
     RDKit          3D

 45 47  0  0  0  0  0  0  0  0999 V2000
   32.8050   27.9010   48.7160 C   0  0  0  0  0  0  0  0  0  0  0  0
   31.7000   28.3390   49.3840 C   0  0  0  0  0  0  0  0  0  0  0  0
   30.4640   27.7160   49.3420 C   0  0  0  0  0  0  0  0  0  0  0  0
   30.3980   26.5860   48.5590 C   0  0  0  0  0  0  0  0  0  0  0  0
   31.4850   26.1000   47.8610 C   0  0  0  0  0  0  0  0  0  0  0  0
   32.6930   26.7560   47.9370 C   0  0  0  0  0  0  0  0  0  0  0  0
   36.1650   28.9690   49.7320 C   0  0  0  0  0  0  0  0  0  0  0  0
   36.4440   30.0000   48.8250 C   0  0  0  0  0  0  0  0  0  0  0  0
   35.4610   30.3050   47.8790 C   0  0  0  0  0  0  0  0  0  0  0  0
   34.2820   29.5880   47.8830 N   0  0  0  0  0  0  0  0  0  0  0  0
   34.0760   28.5940   48.7970 C   0  0  0  0  0  0  0  0  0  0  0  0
   35.0050   28.3080   49.6890 N   0  0  0  0  0  0  0  0  0  0  0  0
   37.7080   30.7780   48.8110 C   0  0  0  0  0  0  0  0  0  0  0  0
   38.5050   30.5180   47.7360 F   0  0  0  0  0  0  0  0  0  0  0  0
   38.4530   30.5270   49.9410 F   0  0  0  0  0  0  0  0  0  0  0  0
   37.4150   32.1550   48.7810 F   0  0  0  0  0  0  0  0  0  0  0  0
   33.8930   26.3040   47.2270 C   0  0  0  0  0  0  0  0  0  0  0  0
   34.0320   24.8090   47.1140 C   0  0  0  0  0  0  0  0  0  0  0  0
   34.1310   24.3080   45.6990 C   0  0  0  0  0  0  0  0  0  0  0  0
   34.6050   25.3980   44.7730 C   0  0  0  0  0  0  0  0  0  0  0  0
   35.4120   24.8510   43.6200 C   0  0  0  0  0  0  0  0  0  0  0  0
   36.6430   24.1530   44.1200 C   0  0  0  0  0  0  0  0  0  0  0  0
   36.5050   23.5860   45.5040 C   0  0  0  0  0  0  0  0  0  0  0  0
   35.0920   23.1390   45.7080 C   0  0  0  0  0  0  0  0  0  0  0  0
   31.7968   29.2473   49.9968 H   0  0  0  0  0  0  0  0  0  0  0  0
   29.5943   28.0981   49.8966 H   0  0  0  0  0  0  0  0  0  0  0  0
   29.4408   26.0488   48.4866 H   0  0  0  0  0  0  0  0  0  0  0  0
   31.3866   25.1927   47.2468 H   0  0  0  0  0  0  0  0  0  0  0  0
   36.9134   28.6996   50.4918 H   0  0  0  0  0  0  0  0  0  0  0  0
   35.6250   31.1050   47.1421 H   0  0  0  0  0  0  0  0  0  0  0  0
   33.8680   26.7235   46.2104 H   0  0  0  0  0  0  0  0  0  0  0  0
   34.7530   26.6520   47.8180 H   0  0  0  0  0  0  0  0  0  0  0  0
   34.9413   24.5046   47.6529 H   0  0  0  0  0  0  0  0  0  0  0  0
   33.1184   24.3715   47.5429 H   0  0  0  0  0  0  0  0  0  0  0  0
   33.1449   23.9911   45.3286 H   0  0  0  0  0  0  0  0  0  0  0  0
   33.7290   25.9294   44.3726 H   0  0  0  0  0  0  0  0  0  0  0  0
   35.2526   26.0750   45.3494 H   0  0  0  0  0  0  0  0  0  0  0  0
   35.7092   25.6803   42.9613 H   0  0  0  0  0  0  0  0  0  0  0  0
   34.7946   24.1278   43.0670 H   0  0  0  0  0  0  0  0  0  0  0  0
   36.8772   23.3286   43.4304 H   0  0  0  0  0  0  0  0  0  0  0  0
   37.4412   24.9086   44.1641 H   0  0  0  0  0  0  0  0  0  0  0  0
   37.1837   22.7283   45.6206 H   0  0  0  0  0  0  0  0  0  0  0  0
   36.7631   24.3541   46.2480 H   0  0  0  0  0  0  0  0  0  0  0  0
   35.0172   22.6229   46.6765 H   0  0  0  0  0  0  0  0  0  0  0  0
   34.8217   22.4651   44.8817 H   0  0  0  0  0  0  0  0  0  0  0  0
  1 11  1  0
  1  2  2  0
  3  2  1  0
  4  3  2  0
  5  6  2  0
  5  4  1  0
  6  1  1  0
  8  7  2  0
  9 10  2  0
  9  8  1  0
 10 11  1  0
 11 12  2  0
 12  7  1  0
 13  8  1  0
 13 15  1  0
 14 13  1  0
 16 13  1  0
 17  6  1  0
 18 17  1  0
 19 24  1  0
 19 18  1  0
 20 19  1  0
 21 22  1  0
 21 20  1  0
 22 23  1  0
 23 24  1  0
  2 25  1  0
  3 26  1  0
  4 27  1  0
  5 28  1  0
  7 29  1  0
  9 30  1  0
 17 31  1  0
 17 32  1  0
 18 33  1  0
 18 34  1  0
 19 35  1  0
 20 36  1  0
 20 37  1  0
 21 38  1  0
 21 39  1  0
 22 40  1  0
 22 41  1  0
 23 42  1  0
 23 43  1  0
 24 44  1  0
 24 45  1  0
M  ISO  8  25  14  26  14  27  14  28  14  29  14  30  14  31   8  32   8
M  ISO  8  33   8  34   8  35  13  36  13  37  13  38  13  39  13  40  13
M  ISO  5  41  13  42  13  43  13  44  13  45  13
M  END
>  <minimizedAffinity>  (1) 
-5.4014883

>  <minimizedRMSD>  (1) 
1.26391578

$$$$
