
     RDKit          3D

 29 32  0  0  0  0  0  0  0  0999 V2000
   37.0050   29.8540   51.6100 C   0  0  0  0  0  0  0  0  0  0  0  0
   37.8150   30.6440   50.7800 C   0  0  0  0  0  0  0  0  0  0  0  0
   37.4310   30.7380   49.4390 C   0  0  0  0  0  0  0  0  0  0  0  0
   36.3140   30.0830   48.9750 N   0  0  0  0  0  0  0  0  0  0  0  0
   35.5860   29.3380   49.8460 C   0  0  0  0  0  0  0  0  0  0  0  0
   35.9170   29.2180   51.1510 N   0  0  0  0  0  0  0  0  0  0  0  0
   38.1900   31.5360   48.4720 C   0  0  0  0  0  0  0  0  0  0  0  0
   38.8500   32.7190   48.5880 N   0  0  0  0  0  0  0  0  0  0  0  0
   39.3820   33.0440   47.4480 O   0  0  0  0  0  0  0  0  0  0  0  0
   39.0880   32.1080   46.5930 C   0  0  0  0  0  0  0  0  0  0  0  0
   38.3370   31.1320   47.1880 N   0  0  0  0  0  0  0  0  0  0  0  0
   39.4550   32.0250   45.2020 N   0  0  0  0  0  0  0  0  0  0  0  0
   38.9690   32.8910   44.2940 N   0  0  0  0  0  0  0  0  0  0  0  0
   39.4740   32.5800   43.0960 C   0  0  0  0  0  0  0  0  0  0  0  0
   40.3020   31.4800   43.2800 C   0  0  0  0  0  0  0  0  0  0  0  0
   40.2830   31.1320   44.6330 C   0  0  0  0  0  0  0  0  0  0  0  0
   34.4170   28.6770   49.2720 C   0  0  0  0  0  0  0  0  0  0  0  0
   34.5110   27.9430   48.0920 C   0  0  0  0  0  0  0  0  0  0  0  0
   33.2130   27.4750   47.8690 C   0  0  0  0  0  0  0  0  0  0  0  0
   32.4220   27.9490   48.9150 C   0  0  0  0  0  0  0  0  0  0  0  0
   33.1890   28.6430   49.6970 O   0  0  0  0  0  0  0  0  0  0  0  0
   37.2712   29.7530   52.6725 H   0  0  0  0  0  0  0  0  0  0  0  0
   38.7058   31.1624   51.1645 H   0  0  0  0  0  0  0  0  0  0  0  0
   39.2724   33.0965   42.1460 H   0  0  0  0  0  0  0  0  0  0  0  0
   40.8760   30.9689   42.4930 H   0  0  0  0  0  0  0  0  0  0  0  0
   40.8251   30.3101   45.1235 H   0  0  0  0  0  0  0  0  0  0  0  0
   35.4051   27.7705   47.4748 H   0  0  0  0  0  0  0  0  0  0  0  0
   32.8786   26.8507   47.0273 H   0  0  0  0  0  0  0  0  0  0  0  0
   31.3457   27.7676   49.0516 H   0  0  0  0  0  0  0  0  0  0  0  0
  2  1  2  0
  3  2  1  0
  4  3  2  0
  4  5  1  0
  5  6  2  0
  6  1  1  0
  7  8  2  0
  7  3  1  0
  9  8  1  0
 10 11  2  0
 10  9  1  0
 11  7  1  0
 12 10  1  0
 13 12  1  0
 14 15  1  0
 14 13  2  0
 15 16  2  0
 16 12  1  0
 17 21  1  0
 17  5  1  0
 18 17  2  0
 19 18  1  0
 19 20  2  0
 20 21  1  0
  1 22  1  0
  2 23  1  0
 14 24  1  0
 15 25  1  0
 16 26  1  0
 18 27  1  0
 19 28  1  0
 20 29  1  0
M  ISO  8  22  14  23  14  24  14  25  14  26  14  27  14  28  14  29  14
M  END
>  <minimizedAffinity>  (1) 
-6.50850487

>  <minimizedRMSD>  (1) 
0.922206223

$$$$
