
     RDKit          3D

 26 27  0  0  0  0  0  0  0  0999 V2000
   36.8250   30.8880   47.8780 N   0  0  0  0  0  0  0  0  0  0  0  0
   37.3400   30.7590   46.6330 C   0  0  0  0  0  0  0  0  0  0  0  0
   38.4320   31.5210   46.2520 C   0  0  0  0  0  0  0  0  0  0  0  0
   38.9070   32.3720   47.2150 C   0  0  0  0  0  0  0  0  0  0  0  0
   39.9120   33.0920   46.9030 O   0  0  0  0  0  0  0  0  0  0  0  0
   38.4280   32.5370   48.4660 N   0  0  0  0  0  0  0  0  0  0  0  0
   37.3610   31.7540   48.7530 C   0  0  0  0  0  0  0  0  0  0  0  0
   36.8510   31.8430   49.8920 O   0  0  0  0  0  0  0  0  0  0  0  0
   35.9940   29.0890   49.1680 C   0  0  0  0  0  0  0  0  0  0  0  0
   35.7190   30.0860   48.2080 C   0  0  0  0  0  0  0  0  0  0  0  0
   34.4350   30.1680   47.7090 C   0  0  0  0  0  0  0  0  0  0  0  0
   33.4990   29.2930   48.1580 N   0  0  0  0  0  0  0  0  0  0  0  0
   33.7740   28.3420   49.0790 C   0  0  0  0  0  0  0  0  0  0  0  0
   35.0240   28.2570   49.5700 N   0  0  0  0  0  0  0  0  0  0  0  0
   39.0090   33.4690   49.4080 C   0  0  0  0  0  0  0  0  0  0  0  0
   39.6230   34.6630   48.7450 C   0  0  0  0  0  0  0  0  0  0  0  0
   36.8910   30.0485   45.9233 H   0  0  0  0  0  0  0  0  0  0  0  0
   38.8838   31.4484   45.2517 H   0  0  0  0  0  0  0  0  0  0  0  0
   37.0067   28.9948   49.5870 H   0  0  0  0  0  0  0  0  0  0  0  0
   34.1741   30.9299   46.9597 H   0  0  0  0  0  0  0  0  0  0  0  0
   32.9900   27.6502   49.4208 H   0  0  0  0  0  0  0  0  0  0  0  0
   38.2196   33.8147   50.0916 H   0  0  0  0  0  0  0  0  0  0  0  0
   39.8116   32.9399   49.9426 H   0  0  0  0  0  0  0  0  0  0  0  0
   39.9833   35.3637   49.5125 H   0  0  0  0  0  0  0  0  0  0  0  0
   40.4671   34.3405   48.1177 H   0  0  0  0  0  0  0  0  0  0  0  0
   38.8696   35.1619   48.1177 H   0  0  0  0  0  0  0  0  0  0  0  0
  1 10  1  0
  1  7  1  0
  2  1  1  0
  3  2  2  0
  3  4  1  0
  4  6  1  0
  5  4  2  0
  6  7  1  0
  6 15  1  0
  7  8  2  0
  9 14  2  0
 10  9  1  0
 11 12  1  0
 11 10  2  0
 12 13  2  0
 13 14  1  0
 16 15  1  0
  2 17  1  0
  3 18  1  0
  9 19  1  0
 11 20  1  0
 13 21  1  0
 15 22  1  0
 15 23  1  0
 16 24  1  0
 16 25  1  0
 16 26  1  0
M  ISO  8  17  14  18  14  19  14  20  14  21  14  22   8  23   8  24   8
M  ISO  2  25   8  26   8
M  END
>  <minimizedAffinity>  (1) 
-4.89439297

>  <minimizedRMSD>  (1) 
1.83293271

$$$$
