
     RDKit          3D

 40 43  0  0  1  0  0  0  0  0999 V2000
   34.3940   30.2210   47.3900 C   0  0  0  0  0  0  0  0  0  0  0  0
   35.5220   30.1420   48.1880 C   0  0  0  0  0  0  0  0  0  0  0  0
   35.5560   29.0000   49.0530 C   0  0  0  0  0  0  0  0  0  0  0  0
   34.5350   28.1070   49.0430 N   0  0  0  0  0  0  0  0  0  0  0  0
   33.4780   28.2580   48.2390 C   0  0  0  0  0  0  0  0  0  0  0  0
   33.4130   29.3020   47.4260 N   0  0  0  0  0  0  0  0  0  0  0  0
   36.6570   31.0210   48.2890 C   0  0  0  0  0  0  0  0  0  0  0  0
   36.7210   31.6430   49.5030 C   0  0  0  0  0  0  0  0  0  0  0  0
   37.7480   32.5380   49.8140 C   0  0  0  0  0  0  0  0  0  0  0  0
   38.7270   32.8070   48.8740 C   0  0  0  0  0  0  0  0  0  0  0  0
   38.6460   32.1720   47.6610 C   0  0  0  0  0  0  0  0  0  0  0  0
   39.5830   32.3730   46.6400 C   0  0  0  0  0  0  0  0  0  0  0  0
   39.4550   31.7080   45.4270 C   0  0  0  0  0  0  0  0  0  0  0  0
   38.4250   30.8390   45.1750 C   0  0  0  0  0  0  0  0  0  0  0  0
   37.4920   30.6350   46.1860 C   0  0  0  0  0  0  0  0  0  0  0  0
   37.6350   31.3020   47.3790 C   0  0  0  0  0  0  0  0  0  0  0  0
   32.3940   27.2330   48.2760 C   0  0  1  0  0  0  0  0  0  0  0  0
   31.1430   27.5550   49.0390 C   0  0  0  0  0  0  0  0  0  0  0  0
   31.1190   27.4710   47.5440 C   0  0  2  0  0  0  0  0  0  0  0  0
   30.3660   26.0730   46.6870 S   0  0  0  0  0  0  0  0  0  0  0  0
   28.6100   26.4180   46.3670 C   0  0  0  0  0  0  0  0  0  0  0  0
   27.8240   26.5850   47.6320 C   0  0  0  0  0  0  0  0  0  0  0  0
   34.2959   31.0704   46.6979 H   0  0  0  0  0  0  0  0  0  0  0  0
   36.4121   28.8472   49.7267 H   0  0  0  0  0  0  0  0  0  0  0  0
   35.9452   31.4344   50.2544 H   0  0  0  0  0  0  0  0  0  0  0  0
   37.7780   33.0255   50.7996 H   0  0  0  0  0  0  0  0  0  0  0  0
   39.5453   33.5087   49.0929 H   0  0  0  0  0  0  0  0  0  0  0  0
   40.4257   33.0618   46.7994 H   0  0  0  0  0  0  0  0  0  0  0  0
   40.2054   31.8846   44.6423 H   0  0  0  0  0  0  0  0  0  0  0  0
   38.3396   30.3217   44.2080 H   0  0  0  0  0  0  0  0  0  0  0  0
   36.6479   29.9466   46.0322 H   0  0  0  0  0  0  0  0  0  0  0  0
   33.1334   26.4186   48.2819 H   0  0  0  0  0  0  0  0  0  0  0  0
   30.6503   26.7785   49.6426 H   0  0  0  0  0  0  0  0  0  0  0  0
   30.8559   28.3130   49.7826 H   0  0  0  0  0  0  0  0  0  0  0  0
   30.7660   28.1529   46.7563 H   0  0  0  0  0  0  0  0  0  0  0  0
   28.5329   27.3436   45.7777 H   0  0  0  0  0  0  0  0  0  0  0  0
   28.1920   25.5590   45.8217 H   0  0  0  0  0  0  0  0  0  0  0  0
   28.4880   26.4439   48.4976 H   0  0  0  0  0  0  0  0  0  0  0  0
   27.3902   27.5954   47.6635 H   0  0  0  0  0  0  0  0  0  0  0  0
   27.0169   25.8383   47.6635 H   0  0  0  0  0  0  0  0  0  0  0  0
  1  6  2  0
  1  2  1  0
  2  7  1  0
  2  3  2  0
  4  3  1  0
  5 17  1  0
  5  4  2  0
  6  5  1  0
  7  8  2  0
  8  9  1  0
 10  9  2  0
 11 10  1  0
 12 11  2  0
 13 12  1  0
 14 13  2  0
 14 15  1  0
 15 16  2  0
 16 11  1  0
 16  7  1  0
 17 18  1  0
 19 17  1  0
 19 18  1  0
 20 19  1  0
 21 20  1  0
 21 22  1  0
  1 23  1  0
  3 24  1  0
  8 25  1  0
  9 26  1  0
 10 27  1  0
 12 28  1  0
 13 29  1  0
 14 30  1  0
 15 31  1  0
 17 32  1  1
 18 33  1  0
 18 34  1  0
 19 35  1  6
 21 36  1  0
 21 37  1  0
 22 38  1  0
 22 39  1  0
 22 40  1  0
M  ISO  8  23  14  24  14  25  14  26  14  27  14  28  14  29  14  30  14
M  ISO  8  31  14  32  13  33  13  34  13  35  13  36   8  37   8  38   8
M  ISO  2  39   8  40   8
M  END
>  <minimizedAffinity>  (1) 
-6.33428383

>  <minimizedRMSD>  (1) 
1.63945854

$$$$
