
     RDKit          3D

 36 37  0  0  1  0  0  0  0  0999 V2000
   37.7920   30.9450   46.7370 C   0  0  0  0  0  0  0  0  0  0  0  0
   38.4400   30.8940   47.8070 O   0  0  0  0  0  0  0  0  0  0  0  0
   38.4790   31.5580   45.6500 N   0  0  0  0  0  0  0  0  0  0  0  0
   38.4010   30.8760   44.3830 C   0  0  0  0  0  0  0  0  0  0  0  0
   39.4770   31.3510   43.4250 C   0  0  0  0  0  0  0  0  0  0  0  0
   40.5830   31.6740   44.1860 O   0  0  0  0  0  0  0  0  0  0  0  0
   40.3110   32.9370   44.7740 C   0  0  0  0  0  0  0  0  0  0  0  0
   39.2280   32.8070   45.7850 C   0  0  2  0  0  0  0  0  0  0  0  0
   34.4880   29.4280   47.7440 C   0  0  0  0  0  0  0  0  0  0  0  0
   35.8220   29.9580   47.8480 C   0  0  0  0  0  0  0  0  0  0  0  0
   36.4450   30.4030   46.6780 C   0  0  0  0  0  0  0  0  0  0  0  0
   35.7330   30.2970   45.5250 N   0  0  0  0  0  0  0  0  0  0  0  0
   34.5040   29.8020   45.4700 C   0  0  0  0  0  0  0  0  0  0  0  0
   33.8900   29.3750   46.5560 N   0  0  0  0  0  0  0  0  0  0  0  0
   33.8840   29.7660   44.1130 C   0  0  0  0  0  0  0  0  0  0  0  0
   33.7830   31.0530   43.5940 F   0  0  0  0  0  0  0  0  0  0  0  0
   34.7250   29.0890   43.2470 F   0  0  0  0  0  0  0  0  0  0  0  0
   32.6640   29.1110   44.0890 F   0  0  0  0  0  0  0  0  0  0  0  0
   33.8940   28.9930   48.9240 O   0  0  0  0  0  0  0  0  0  0  0  0
   34.0620   29.6000   50.1650 C   0  0  0  0  0  0  0  0  0  0  0  0
   35.0320   28.9760   50.9350 F   0  0  0  0  0  0  0  0  0  0  0  0
   34.2670   30.9460   50.1250 F   0  0  0  0  0  0  0  0  0  0  0  0
   32.8330   29.4080   50.8290 F   0  0  0  0  0  0  0  0  0  0  0  0
   39.8680   32.7060   47.0470 O   0  0  0  0  0  0  0  0  0  0  0  0
   39.5990   33.7760   47.9220 C   0  0  0  0  0  0  0  0  0  0  0  0
   40.4170   34.7420   48.0470 O   0  0  0  0  0  0  0  0  0  0  0  0
   38.4510   33.8190   48.6660 O   0  0  0  0  0  0  0  0  0  0  0  0
   38.5243   29.7959   44.5510 H   0  0  0  0  0  0  0  0  0  0  0  0
   37.4207   31.0949   43.9346 H   0  0  0  0  0  0  0  0  0  0  0  0
   39.1271   32.2358   42.8730 H   0  0  0  0  0  0  0  0  0  0  0  0
   39.7211   30.5690   42.6909 H   0  0  0  0  0  0  0  0  0  0  0  0
   41.2214   33.3146   45.2625 H   0  0  0  0  0  0  0  0  0  0  0  0
   39.9892   33.6378   43.9895 H   0  0  0  0  0  0  0  0  0  0  0  0
   38.5468   33.6623   45.6650 H   0  0  0  0  0  0  0  0  0  0  0  0
   36.3361   30.0114   48.8190 H   0  0  0  0  0  0  0  0  0  0  0  0
   38.2838   34.5818   49.2745 H   0  0  0  0  0  0  0  0  0  0  0  0
  1  2  2  0
  3  8  1  0
  3  1  1  0
  4  3  1  0
  5  6  1  0
  5  4  1  0
  6  7  1  0
  7  8  1  0
  8 24  1  0
  9 10  2  0
  9 19  1  0
 11  1  1  0
 11 10  1  0
 12 11  2  0
 13 12  1  0
 13 14  2  0
 14  9  1  0
 15 13  1  0
 16 15  1  0
 17 15  1  0
 18 15  1  0
 19 20  1  0
 20 23  1  0
 20 21  1  0
 22 20  1  0
 24 25  1  0
 25 26  2  0
 25 27  1  0
  4 28  1  0
  4 29  1  0
  5 30  1  0
  5 31  1  0
  7 32  1  0
  7 33  1  0
  8 34  1  1
 10 35  1  0
 27 36  1  0
M  ISO  8  28  13  29  13  30  13  31  13  32  13  33  13  34  13  35  14
M  ISO  1  36   3
M  END
>  <minimizedAffinity>  (1) 
-5.26184654

>  <minimizedRMSD>  (1) 
0.836737156

$$$$
