
     RDKit          3D

 34 36  0  0  1  0  0  0  0  0999 V2000
   38.6240   31.8570   48.1450 C   0  0  1  0  0  0  0  0  0  0  0  0
   37.8500   31.0610   49.1060 C   0  0  0  0  0  0  0  0  0  0  0  0
   38.3170   30.8960   50.3420 N   0  0  0  0  0  0  0  0  0  0  0  0
   37.6560   30.1780   51.2790 C   0  0  0  0  0  0  0  0  0  0  0  0
   36.4970   29.5870   51.0450 N   0  0  0  0  0  0  0  0  0  0  0  0
   35.9100   29.6840   49.8150 C   0  0  0  0  0  0  0  0  0  0  0  0
   34.7290   29.0820   49.5690 C   0  0  0  0  0  0  0  0  0  0  0  0
   34.1460   29.1760   48.3470 C   0  0  0  0  0  0  0  0  0  0  0  0
   34.8280   29.9170   47.3890 C   0  0  0  0  0  0  0  0  0  0  0  0
   36.0280   30.5100   47.6960 C   0  0  0  0  0  0  0  0  0  0  0  0
   36.6270   30.4220   48.9150 C   0  0  0  0  0  0  0  0  0  0  0  0
   39.0240   31.6000   46.7900 C   0  0  0  0  0  0  0  0  0  0  0  0
   39.8980   32.6190   46.3470 C   0  0  0  0  0  0  0  0  0  0  0  0
   40.5290   32.5080   45.0630 C   0  0  0  0  0  0  0  0  0  0  0  0
   40.2260   31.4120   44.3700 N   0  0  0  0  0  0  0  0  0  0  0  0
   39.3700   30.4400   44.8240 C   0  0  0  0  0  0  0  0  0  0  0  0
   38.7900   30.5420   46.0030 N   0  0  0  0  0  0  0  0  0  0  0  0
   39.0430   29.2340   44.0010 C   0  0  0  0  0  0  0  0  0  0  0  0
   38.3350   33.1100   48.5450 O   0  0  0  0  0  0  0  0  0  0  0  0
   39.1780   34.0410   49.0580 C   0  0  0  0  0  0  0  0  0  0  0  0
   39.6380   33.9430   50.2080 O   0  0  0  0  0  0  0  0  0  0  0  0
   39.6250   35.1870   48.3930 O   0  0  0  0  0  0  0  0  0  0  0  0
   39.6262   31.4039   48.1279 H   0  0  0  0  0  0  0  0  0  0  0  0
   38.1027   30.0818   52.2796 H   0  0  0  0  0  0  0  0  0  0  0  0
   34.2331   28.5091   50.3664 H   0  0  0  0  0  0  0  0  0  0  0  0
   33.1837   28.6910   48.1262 H   0  0  0  0  0  0  0  0  0  0  0  0
   34.4045   30.0290   46.3800 H   0  0  0  0  0  0  0  0  0  0  0  0
   36.5348   31.0901   46.9107 H   0  0  0  0  0  0  0  0  0  0  0  0
   40.0937   33.4939   46.9843 H   0  0  0  0  0  0  0  0  0  0  0  0
   41.2160   33.2757   44.6775 H   0  0  0  0  0  0  0  0  0  0  0  0
   38.8136   28.3879   44.6654 H   0  0  0  0  0  0  0  0  0  0  0  0
   38.1707   29.4488   43.3663 H   0  0  0  0  0  0  0  0  0  0  0  0
   39.9044   28.9787   43.3663 H   0  0  0  0  0  0  0  0  0  0  0  0
   40.2422   35.8138   48.8472 H   0  0  0  0  0  0  0  0  0  0  0  0
  1 19  1  0
  1  2  1  0
  2  3  2  0
  3  4  1  0
  5  4  2  0
  6  5  1  0
  7  6  2  0
  8  7  1  0
  9 10  1  0
  9  8  2  0
 10 11  2  0
 11  2  1  0
 11  6  1  0
 12  1  1  0
 13 12  2  0
 14 13  1  0
 15 16  1  0
 15 14  2  0
 16 17  2  0
 17 12  1  0
 18 16  1  0
 19 20  1  0
 20 21  2  0
 22 20  1  0
  1 23  1  1
  4 24  1  0
  7 25  1  0
  8 26  1  0
  9 27  1  0
 10 28  1  0
 13 29  1  0
 14 30  1  0
 18 31  1  0
 18 32  1  0
 18 33  1  0
 22 34  1  0
M  END
>  <minimizedAffinity>  (1) 
-7.14609861

>  <minimizedRMSD>  (1) 
0.457493544

$$$$
