
     RDKit          3D

 43 46  0  0  1  0  0  0  0  0999 V2000
   37.9820   32.2650   45.0120 C   0  0  0  0  0  0  0  0  0  0  0  0
   38.4730   31.8260   43.6700 C   0  0  0  0  0  0  0  0  0  0  0  0
   38.6720   32.8070   42.6560 C   0  0  0  0  0  0  0  0  0  0  0  0
   39.2570   31.7530   41.2690 S   0  0  0  0  0  0  0  0  0  0  0  0
   39.1260   30.1780   42.3120 C   0  0  0  0  0  0  0  0  0  0  0  0
   38.7570   30.6050   43.2830 N   0  0  0  0  0  0  0  0  0  0  0  0
   39.4270   28.8150   41.9230 N   0  0  0  0  0  0  0  0  0  0  0  0
   39.2970   27.7460   42.6830 C   0  0  0  0  0  0  0  0  0  0  0  0
   39.6710   26.6610   41.9700 N   0  0  0  0  0  0  0  0  0  0  0  0
   40.0270   27.1250   40.7620 C   0  0  0  0  0  0  0  0  0  0  0  0
   40.4910   26.3990   39.6640 C   0  0  0  0  0  0  0  0  0  0  0  0
   40.7880   27.1030   38.5420 N   0  0  0  0  0  0  0  0  0  0  0  0
   40.6360   28.4480   38.5100 C   0  0  0  0  0  0  0  0  0  0  0  0
   40.1910   29.1830   39.5560 N   0  0  0  0  0  0  0  0  0  0  0  0
   39.8830   28.5170   40.6920 C   0  0  0  0  0  0  0  0  0  0  0  0
   40.6440   24.9770   39.7160 N   0  0  0  0  0  0  0  0  0  0  0  0
   38.9900   32.1430   46.0880 C   0  0  1  0  0  0  0  0  0  0  0  0
   37.8220   32.8600   49.6360 C   0  0  0  0  0  0  0  0  0  0  0  0
   38.5500   32.9700   48.4510 C   0  0  0  0  0  0  0  0  0  0  0  0
   38.2940   32.1260   47.3880 C   0  0  0  0  0  0  0  0  0  0  0  0
   37.2890   31.1810   47.5770 N   0  0  0  0  0  0  0  0  0  0  0  0
   36.6010   31.0920   48.7260 C   0  0  0  0  0  0  0  0  0  0  0  0
   36.8470   31.9050   49.7510 N   0  0  0  0  0  0  0  0  0  0  0  0
   39.6600   30.7600   45.9560 C   0  0  0  0  0  0  0  0  0  0  0  0
   40.0460   33.1600   45.9790 C   0  0  0  0  0  0  0  0  0  0  0  0
   41.2360   32.5600   45.4070 N   0  0  0  0  0  0  0  0  0  0  0  0
   37.6767   33.3194   44.9413 H   0  0  0  0  0  0  0  0  0  0  0  0
   37.1470   31.6008   45.2797 H   0  0  0  0  0  0  0  0  0  0  0  0
   38.5179   33.8955   42.6932 H   0  0  0  0  0  0  0  0  0  0  0  0
   38.9429   27.7385   43.7244 H   0  0  0  0  0  0  0  0  0  0  0  0
   40.8893   28.9750   37.5783 H   0  0  0  0  0  0  0  0  0  0  0  0
   40.9885   24.4656   38.8910 H   0  0  0  0  0  0  0  0  0  0  0  0
   40.4096   24.4650   40.5784 H   0  0  0  0  0  0  0  0  0  0  0  0
   38.0306   33.5388   50.4761 H   0  0  0  0  0  0  0  0  0  0  0  0
   39.3348   33.7356   48.3624 H   0  0  0  0  0  0  0  0  0  0  0  0
   35.8148   30.3288   48.8230 H   0  0  0  0  0  0  0  0  0  0  0  0
   39.8580   30.3514   46.9579 H   0  0  0  0  0  0  0  0  0  0  0  0
   38.9916   30.0796   45.4080 H   0  0  0  0  0  0  0  0  0  0  0  0
   40.6082   30.8627   45.4080 H   0  0  0  0  0  0  0  0  0  0  0  0
   39.7008   33.9795   45.3315 H   0  0  0  0  0  0  0  0  0  0  0  0
   40.2787   33.5564   46.9784 H   0  0  0  0  0  0  0  0  0  0  0  0
   41.8597   32.2455   46.1640 H   0  0  0  0  0  0  0  0  0  0  0  0
   40.9681   31.7532   44.8254 H   0  0  0  0  0  0  0  0  0  0  0  0
  2  1  1  0
  3  2  2  0
  4  5  1  0
  4  3  1  0
  5  6  2  0
  6  2  1  0
  7  5  1  0
  7  8  1  0
  9  8  2  0
 10  9  1  0
 11 16  1  0
 11 10  2  0
 12 11  1  0
 13 12  2  0
 13 14  1  0
 14 15  2  0
 15 10  1  0
 15  7  1  0
 17  1  1  6
 17 20  1  0
 18 23  2  0
 19 18  1  0
 20 21  1  0
 20 19  2  0
 21 22  2  0
 22 23  1  0
 24 17  1  0
 25 17  1  0
 26 25  1  0
  1 27  1  0
  1 28  1  0
  3 29  1  0
  8 30  1  0
 13 31  1  0
 16 32  1  0
 16 33  1  0
 18 34  1  0
 19 35  1  0
 22 36  1  0
 24 37  1  0
 24 38  1  0
 24 39  1  0
 25 40  1  0
 25 41  1  0
 26 42  1  0
 26 43  1  0
M  ISO  8  27   8  28   8  29  14  30  14  31  14  34  14  35  14  36  14
M  ISO  7  37   8  38   8  39   8  40   8  41   8  42   5  43   5
M  END
>  <minimizedAffinity>  (1) 
-5.69242907

>  <minimizedRMSD>  (1) 
0.405676395

$$$$
