
     RDKit          3D

 42 44  0  0  1  0  0  0  0  0999 V2000
   35.4950   29.0580   48.3960 C   0  0  0  0  0  0  0  0  0  0  0  0
   34.9050   29.2790   47.1230 C   0  0  0  0  0  0  0  0  0  0  0  0
   34.9550   30.2140   46.1270 C   0  0  0  0  0  0  0  0  0  0  0  0
   34.1480   29.8980   45.0820 N   0  0  0  0  0  0  0  0  0  0  0  0
   33.5580   28.7390   45.3880 C   0  0  0  0  0  0  0  0  0  0  0  0
   34.0260   28.3780   46.6250 N   0  0  0  0  0  0  0  0  0  0  0  0
   33.5470   27.1180   47.2130 C   0  0  0  0  0  0  0  0  0  0  0  0
   32.0570   26.9890   47.2180 C   0  0  0  0  0  0  0  0  0  0  0  0
   31.5160   28.2550   47.8710 C   0  0  0  0  0  0  0  0  0  0  0  0
   30.9920   27.7590   49.2020 C   0  0  0  0  0  0  0  0  0  0  0  0
   30.3260   26.4500   48.7560 C   0  0  0  0  0  0  0  0  0  0  0  0
   31.5030   25.8400   47.9820 C   0  0  0  0  0  0  0  0  0  0  0  0
   35.5850   30.1430   49.3600 C   0  0  2  0  0  0  0  0  0  0  0  0
   36.7640   31.0540   49.0950 C   0  0  0  0  0  0  0  0  0  0  0  0
   36.8150   32.2500   49.8050 C   0  0  0  0  0  0  0  0  0  0  0  0
   37.9190   33.0780   49.5090 C   0  0  0  0  0  0  0  0  0  0  0  0
   38.8300   32.6780   48.5880 N   0  0  0  0  0  0  0  0  0  0  0  0
   38.7350   31.4910   47.9150 C   0  0  0  0  0  0  0  0  0  0  0  0
   37.6840   30.6650   48.1740 N   0  0  0  0  0  0  0  0  0  0  0  0
   35.8140   29.4970   50.7800 C   0  0  0  0  0  0  0  0  0  0  0  0
   36.5228   28.7118   48.2125 H   0  0  0  0  0  0  0  0  0  0  0  0
   34.7987   28.3544   48.8756 H   0  0  0  0  0  0  0  0  0  0  0  0
   35.5783   31.1195   46.1676 H   0  0  0  0  0  0  0  0  0  0  0  0
   32.8381   28.1835   44.7690 H   0  0  0  0  0  0  0  0  0  0  0  0
   33.9667   26.2822   46.6340 H   0  0  0  0  0  0  0  0  0  0  0  0
   33.8758   27.1059   48.2627 H   0  0  0  0  0  0  0  0  0  0  0  0
   31.7577   26.8282   46.1718 H   0  0  0  0  0  0  0  0  0  0  0  0
   32.3146   28.9980   48.0133 H   0  0  0  0  0  0  0  0  0  0  0  0
   30.7486   28.7594   47.2654 H   0  0  0  0  0  0  0  0  0  0  0  0
   31.8060   27.5789   49.9196 H   0  0  0  0  0  0  0  0  0  0  0  0
   30.3281   28.4603   49.7286 H   0  0  0  0  0  0  0  0  0  0  0  0
   30.0261   25.8265   49.6112 H   0  0  0  0  0  0  0  0  0  0  0  0
   29.3908   26.5622   48.1878 H   0  0  0  0  0  0  0  0  0  0  0  0
   31.1567   25.0476   47.3022 H   0  0  0  0  0  0  0  0  0  0  0  0
   32.2470   25.3681   48.6406 H   0  0  0  0  0  0  0  0  0  0  0  0
   34.6611   30.7363   49.2930 H   0  0  0  0  0  0  0  0  0  0  0  0
   36.0497   32.5299   50.5439 H   0  0  0  0  0  0  0  0  0  0  0  0
   38.0397   34.0430   50.0230 H   0  0  0  0  0  0  0  0  0  0  0  0
   39.4974   31.2075   47.1745 H   0  0  0  0  0  0  0  0  0  0  0  0
   35.5552   30.2271   51.5610 H   0  0  0  0  0  0  0  0  0  0  0  0
   35.1768   28.6065   50.8848 H   0  0  0  0  0  0  0  0  0  0  0  0
   36.8698   29.2067   50.8848 H   0  0  0  0  0  0  0  0  0  0  0  0
  1 13  1  0
  2  1  1  0
  3  2  2  0
  4  5  2  0
  4  3  1  0
  5  6  1  0
  6  2  1  0
  6  7  1  0
  7  8  1  0
  8  9  1  0
  8 12  1  0
  9 10  1  0
 11 10  1  0
 12 11  1  0
 13 20  1  0
 14 13  1  0
 14 15  2  0
 16 15  1  0
 17 16  2  0
 18 19  2  0
 18 17  1  0
 19 14  1  0
  1 21  1  0
  1 22  1  0
  3 23  1  0
  5 24  1  0
  7 25  1  0
  7 26  1  0
  8 27  1  0
  9 28  1  0
  9 29  1  0
 10 30  1  0
 10 31  1  0
 11 32  1  0
 11 33  1  0
 12 34  1  0
 12 35  1  0
 13 36  1  1
 15 37  1  0
 16 38  1  0
 18 39  1  0
 20 40  1  0
 20 41  1  0
 20 42  1  0
M  ISO  8  21   8  22   8  23  14  24  14  25   8  26   8  27  13  28  13
M  ISO  8  29  13  30  13  31  13  32  13  33  13  34  13  35  13  36   8
M  ISO  6  37  14  38  14  39  14  40   8  41   8  42   8
M  END
>  <minimizedAffinity>  (1) 
-4.26441383

>  <minimizedRMSD>  (1) 
2.22054124

$$$$
