
     RDKit          3D

 47 52  0  0  1  0  0  0  0  0999 V2000
   34.1640   30.2490   47.5310 C   0  0  0  0  0  0  0  0  0  0  0  0
   35.3840   30.0290   48.1440 C   0  0  0  0  0  0  0  0  0  0  0  0
   35.4750   28.8210   48.9020 C   0  0  0  0  0  0  0  0  0  0  0  0
   34.3980   27.9900   48.9750 N   0  0  0  0  0  0  0  0  0  0  0  0
   33.2430   28.2830   48.3450 C   0  0  0  0  0  0  0  0  0  0  0  0
   33.1340   29.3980   47.6350 N   0  0  0  0  0  0  0  0  0  0  0  0
   36.5770   30.8500   48.1300 C   0  0  0  0  0  0  0  0  0  0  0  0
   36.7990   31.4250   49.3610 C   0  0  0  0  0  0  0  0  0  0  0  0
   37.8950   32.2560   49.5930 C   0  0  0  0  0  0  0  0  0  0  0  0
   38.7850   32.5050   48.5450 C   0  0  0  0  0  0  0  0  0  0  0  0
   38.5430   31.9210   47.3280 C   0  0  0  0  0  0  0  0  0  0  0  0
   39.3810   32.1180   46.2410 C   0  0  0  0  0  0  0  0  0  0  0  0
   39.0890   31.4970   45.0230 C   0  0  0  0  0  0  0  0  0  0  0  0
   37.9860   30.6870   44.8590 C   0  0  0  0  0  0  0  0  0  0  0  0
   37.1510   30.4880   45.9340 C   0  0  0  0  0  0  0  0  0  0  0  0
   37.4670   31.1110   47.1130 C   0  0  0  0  0  0  0  0  0  0  0  0
   32.1110   27.3100   48.4830 C   0  0  1  0  0  0  0  0  0  0  0  0
   30.8540   27.6110   47.7450 C   0  0  0  0  0  0  0  0  0  0  0  0
   31.7230   26.4690   47.2910 C   0  0  1  0  0  0  0  0  0  0  0  0
   32.6430   26.6010   46.1370 C   0  0  0  0  0  0  0  0  0  0  0  0
   32.4870   27.6780   45.3130 N   0  0  0  0  0  0  0  0  0  0  0  0
   33.3560   27.8530   44.2730 C   0  0  0  0  0  0  0  0  0  0  0  0
   34.3860   26.9970   44.0070 N   0  0  0  0  0  0  0  0  0  0  0  0
   34.5650   25.9180   44.8060 C   0  0  0  0  0  0  0  0  0  0  0  0
   35.5780   25.0110   44.5780 C   0  0  0  0  0  0  0  0  0  0  0  0
   35.6840   23.9130   45.4360 C   0  0  0  0  0  0  0  0  0  0  0  0
   34.7940   23.7350   46.4970 C   0  0  0  0  0  0  0  0  0  0  0  0
   33.7880   24.6640   46.7000 C   0  0  0  0  0  0  0  0  0  0  0  0
   33.6820   25.7540   45.8520 C   0  0  0  0  0  0  0  0  0  0  0  0
   34.0334   31.1623   46.9320 H   0  0  0  0  0  0  0  0  0  0  0  0
   36.4089   28.5637   49.4233 H   0  0  0  0  0  0  0  0  0  0  0  0
   36.0948   31.2242   50.1818 H   0  0  0  0  0  0  0  0  0  0  0  0
   38.0558   32.7072   50.5832 H   0  0  0  0  0  0  0  0  0  0  0  0
   39.6601   33.1549   48.6928 H   0  0  0  0  0  0  0  0  0  0  0  0
   40.2699   32.7589   46.3364 H   0  0  0  0  0  0  0  0  0  0  0  0
   39.7613   31.6601   44.1678 H   0  0  0  0  0  0  0  0  0  0  0  0
   37.7779   30.2101   43.8898 H   0  0  0  0  0  0  0  0  0  0  0  0
   36.2590   29.8498   45.8500 H   0  0  0  0  0  0  0  0  0  0  0  0
   32.3737   27.0869   49.5276 H   0  0  0  0  0  0  0  0  0  0  0  0
   29.8803   27.4064   48.2140 H   0  0  0  0  0  0  0  0  0  0  0  0
   30.4354   28.5057   47.2609 H   0  0  0  0  0  0  0  0  0  0  0  0
   31.4981   25.4179   47.0572 H   0  0  0  0  0  0  0  0  0  0  0  0
   33.2190   28.7261   43.6181 H   0  0  0  0  0  0  0  0  0  0  0  0
   36.2827   25.1477   43.7445 H   0  0  0  0  0  0  0  0  0  0  0  0
   36.4834   23.1753   45.2724 H   0  0  0  0  0  0  0  0  0  0  0  0
   34.8912   22.8660   47.1643 H   0  0  0  0  0  0  0  0  0  0  0  0
   33.0771   24.5373   47.5298 H   0  0  0  0  0  0  0  0  0  0  0  0
  1  6  2  0
  1  2  1  0
  2  3  2  0
  3  4  1  0
  5 17  1  0
  5  4  2  0
  6  5  1  0
  7  2  1  0
  7  8  2  0
  8  9  1  0
 10  9  2  0
 11 10  1  0
 12 11  2  0
 13 12  1  0
 14 13  2  0
 14 15  1  0
 15 16  2  0
 16 11  1  0
 16  7  1  0
 18 17  1  0
 19 18  1  0
 19 17  1  0
 20 19  1  0
 21 20  2  0
 22 21  1  0
 23 22  2  0
 23 24  1  0
 24 29  2  0
 25 24  1  0
 25 26  2  0
 26 27  1  0
 27 28  2  0
 29 20  1  0
 29 28  1  0
  1 30  1  0
  3 31  1  0
  8 32  1  0
  9 33  1  0
 10 34  1  0
 12 35  1  0
 13 36  1  0
 14 37  1  0
 15 38  1  0
 17 39  1  1
 18 40  1  0
 18 41  1  0
 19 42  1  1
 22 43  1  0
 25 44  1  0
 26 45  1  0
 27 46  1  0
 28 47  1  0
M  ISO  8  30  14  31  14  32  14  33  14  34  14  35  14  36  14  37  14
M  ISO  8  38  14  39  13  40  13  41  13  42  13  43  14  44  14  45  14
M  ISO  2  46  14  47  14
M  END
>  <minimizedAffinity>  (1) 
-6.65493059

>  <minimizedRMSD>  (1) 
2.06457019

$$$$
