
     RDKit          3D

 31 33  0  0  0  0  0  0  0  0999 V2000
   36.8630   29.9380   48.6960 C   0  0  0  0  0  0  0  0  0  0  0  0
   37.7180   30.7010   47.8640 C   0  0  0  0  0  0  0  0  0  0  0  0
   37.2630   31.0750   46.5880 C   0  0  0  0  0  0  0  0  0  0  0  0
   36.0220   30.6640   46.2620 N   0  0  0  0  0  0  0  0  0  0  0  0
   35.2260   29.9470   47.0520 C   0  0  0  0  0  0  0  0  0  0  0  0
   35.6550   29.5980   48.2470 N   0  0  0  0  0  0  0  0  0  0  0  0
   38.2270   31.8500   45.8440 C   0  0  0  0  0  0  0  0  0  0  0  0
   39.3080   32.3950   46.4250 N   0  0  0  0  0  0  0  0  0  0  0  0
   40.2260   33.1200   45.7890 C   0  0  0  0  0  0  0  0  0  0  0  0
   40.1470   33.3730   44.4870 N   0  0  0  0  0  0  0  0  0  0  0  0
   39.1050   32.8800   43.7870 C   0  0  0  0  0  0  0  0  0  0  0  0
   38.9980   33.1250   42.4520 C   0  0  0  0  0  0  0  0  0  0  0  0
   37.9270   32.6230   41.7220 C   0  0  0  0  0  0  0  0  0  0  0  0
   36.9910   31.8750   42.4090 C   0  0  0  0  0  0  0  0  0  0  0  0
   37.1460   31.6580   43.7540 C   0  0  0  0  0  0  0  0  0  0  0  0
   38.1900   32.1390   44.5010 C   0  0  0  0  0  0  0  0  0  0  0  0
   33.8980   29.6080   46.4890 C   0  0  0  0  0  0  0  0  0  0  0  0
   33.0260   30.7030   46.6060 F   0  0  0  0  0  0  0  0  0  0  0  0
   33.9960   29.3330   45.1540 F   0  0  0  0  0  0  0  0  0  0  0  0
   33.3390   28.4920   47.1080 F   0  0  0  0  0  0  0  0  0  0  0  0
   37.3380   29.5870   49.9430 O   0  0  0  0  0  0  0  0  0  0  0  0
   37.6150   30.4730   50.9750 C   0  0  0  0  0  0  0  0  0  0  0  0
   38.8990   31.0070   50.9060 F   0  0  0  0  0  0  0  0  0  0  0  0
   36.6950   31.4750   51.1200 F   0  0  0  0  0  0  0  0  0  0  0  0
   37.5650   29.7020   52.1440 F   0  0  0  0  0  0  0  0  0  0  0  0
   38.7198   30.9955   48.2101 H   0  0  0  0  0  0  0  0  0  0  0  0
   41.0764   33.5221   46.3593 H   0  0  0  0  0  0  0  0  0  0  0  0
   39.7673   33.7266   41.9458 H   0  0  0  0  0  0  0  0  0  0  0  0
   37.8290   32.8134   40.6430 H   0  0  0  0  0  0  0  0  0  0  0  0
   36.1238   31.4546   41.8787 H   0  0  0  0  0  0  0  0  0  0  0  0
   36.3811   31.0575   44.2682 H   0  0  0  0  0  0  0  0  0  0  0  0
  1 21  1  0
  2  1  2  0
  3  2  1  0
  4  3  2  0
  4  5  1  0
  5  6  2  0
  6  1  1  0
  7  8  2  0
  7  3  1  0
  9  8  1  0
 10  9  2  0
 11 10  1  0
 11 16  2  0
 12 11  1  0
 13 14  1  0
 13 12  2  0
 14 15  2  0
 15 16  1  0
 16  7  1  0
 17 18  1  0
 17  5  1  0
 17 20  1  0
 19 17  1  0
 21 22  1  0
 22 24  1  0
 22 25  1  0
 23 22  1  0
  2 26  1  0
  9 27  1  0
 12 28  1  0
 13 29  1  0
 14 30  1  0
 15 31  1  0
M  ISO  6  26  14  27  14  28  14  29  14  30  14  31  14
M  END
>  <minimizedAffinity>  (1) 
-6.31523514

>  <minimizedRMSD>  (1) 
6.13280487

$$$$
