
     RDKit          3D

 42 44  0  0  0  0  0  0  0  0999 V2000
   32.8770   27.8410   48.5500 C   0  0  0  0  0  0  0  0  0  0  0  0
   31.7590   28.2150   49.2500 C   0  0  0  0  0  0  0  0  0  0  0  0
   30.5480   27.5640   49.1660 C   0  0  0  0  0  0  0  0  0  0  0  0
   30.5010   26.4840   48.3190 C   0  0  0  0  0  0  0  0  0  0  0  0
   31.5990   26.0840   47.6050 C   0  0  0  0  0  0  0  0  0  0  0  0
   32.8000   26.7550   47.7100 C   0  0  0  0  0  0  0  0  0  0  0  0
   36.1820   28.9680   49.6750 C   0  0  0  0  0  0  0  0  0  0  0  0
   36.4680   30.0190   48.7850 C   0  0  0  0  0  0  0  0  0  0  0  0
   35.5060   30.3150   47.8130 C   0  0  0  0  0  0  0  0  0  0  0  0
   34.3540   29.5710   47.7850 N   0  0  0  0  0  0  0  0  0  0  0  0
   34.1330   28.5620   48.6750 C   0  0  0  0  0  0  0  0  0  0  0  0
   35.0390   28.2840   49.5890 N   0  0  0  0  0  0  0  0  0  0  0  0
   37.7200   30.8160   48.8280 C   0  0  0  0  0  0  0  0  0  0  0  0
   38.5480   30.5930   47.7630 F   0  0  0  0  0  0  0  0  0  0  0  0
   38.4480   30.5390   49.9630 F   0  0  0  0  0  0  0  0  0  0  0  0
   37.4200   32.1790   48.8320 F   0  0  0  0  0  0  0  0  0  0  0  0
   33.9890   26.3660   46.9670 C   0  0  0  0  0  0  0  0  0  0  0  0
   34.1350   24.9090   46.7090 C   0  0  0  0  0  0  0  0  0  0  0  0
   34.8800   24.5500   45.4760 C   0  0  0  0  0  0  0  0  0  0  0  0
   34.1010   24.0120   44.3430 C   0  0  0  0  0  0  0  0  0  0  0  0
   34.6160   22.6170   44.0310 C   0  0  0  0  0  0  0  0  0  0  0  0
   35.4030   22.1920   45.2480 C   0  0  0  0  0  0  0  0  0  0  0  0
   35.8970   23.4750   45.8740 C   0  0  0  0  0  0  0  0  0  0  0  0
   31.8335   29.0859   49.9178 H   0  0  0  0  0  0  0  0  0  0  0  0
   29.6703   27.8900   49.7433 H   0  0  0  0  0  0  0  0  0  0  0  0
   29.5587   25.9268   48.2115 H   0  0  0  0  0  0  0  0  0  0  0  0
   31.5222   25.2135   46.9369 H   0  0  0  0  0  0  0  0  0  0  0  0
   36.9122   28.7055   50.4546 H   0  0  0  0  0  0  0  0  0  0  0  0
   35.6698   31.1258   47.0879 H   0  0  0  0  0  0  0  0  0  0  0  0
   33.9651   26.8814   45.9955 H   0  0  0  0  0  0  0  0  0  0  0  0
   34.8448   26.6480   47.5979 H   0  0  0  0  0  0  0  0  0  0  0  0
   34.6629   24.4643   47.5655 H   0  0  0  0  0  0  0  0  0  0  0  0
   33.1145   24.5233   46.5684 H   0  0  0  0  0  0  0  0  0  0  0  0
   35.3001   25.4966   45.1052 H   0  0  0  0  0  0  0  0  0  0  0  0
   33.0358   23.9636   44.6134 H   0  0  0  0  0  0  0  0  0  0  0  0
   34.2118   24.6629   43.4632 H   0  0  0  0  0  0  0  0  0  0  0  0
   33.7764   21.9279   43.8570 H   0  0  0  0  0  0  0  0  0  0  0  0
   35.2353   22.6060   43.1220 H   0  0  0  0  0  0  0  0  0  0  0  0
   34.7585   21.6439   45.9510 H   0  0  0  0  0  0  0  0  0  0  0  0
   36.2325   21.5193   44.9845 H   0  0  0  0  0  0  0  0  0  0  0  0
   36.8952   23.7301   45.4886 H   0  0  0  0  0  0  0  0  0  0  0  0
   35.9858   23.3853   46.9667 H   0  0  0  0  0  0  0  0  0  0  0  0
  1 11  1  0
  1  2  2  0
  3  2  1  0
  4  3  2  0
  5  6  2  0
  5  4  1  0
  6  1  1  0
  8 13  1  0
  8  7  2  0
  9  8  1  0
 10  9  2  0
 10 11  1  0
 11 12  2  0
 12  7  1  0
 13 16  1  0
 13 15  1  0
 14 13  1  0
 17  6  1  0
 18 17  1  0
 19 23  1  0
 19 18  1  0
 20 19  1  0
 21 20  1  0
 21 22  1  0
 22 23  1  0
  2 24  1  0
  3 25  1  0
  4 26  1  0
  5 27  1  0
  7 28  1  0
  9 29  1  0
 17 30  1  0
 17 31  1  0
 18 32  1  0
 18 33  1  0
 19 34  1  0
 20 35  1  0
 20 36  1  0
 21 37  1  0
 21 38  1  0
 22 39  1  0
 22 40  1  0
 23 41  1  0
 23 42  1  0
M  ISO  8  24  14  25  14  26  14  27  14  28  14  29  14  30   8  31   8
M  ISO  8  32   8  33   8  34  13  35  13  36  13  37  13  38  13  39  13
M  ISO  3  40  13  41  13  42  13
M  END
>  <minimizedAffinity>  (1) 
-5.08045721

>  <minimizedRMSD>  (1) 
0.382086873

$$$$
