
     RDKit          3D

 43 45  0  0  1  0  0  0  0  0999 V2000
   36.8800   30.5140   45.9720 C   0  0  0  0  0  0  0  0  0  0  0  0
   37.8220   30.3670   46.7990 O   0  0  0  0  0  0  0  0  0  0  0  0
   37.2250   31.2540   44.8130 N   0  0  0  0  0  0  0  0  0  0  0  0
   36.7550   30.7090   43.5480 C   0  0  0  0  0  0  0  0  0  0  0  0
   37.4960   31.2940   42.3700 C   0  0  0  0  0  0  0  0  0  0  0  0
   38.7990   31.5430   42.7840 O   0  0  0  0  0  0  0  0  0  0  0  0
   38.7470   32.7080   43.5640 C   0  0  0  0  0  0  0  0  0  0  0  0
   37.9960   32.4750   44.8550 C   0  0  2  0  0  0  0  0  0  0  0  0
   33.9010   29.1260   47.8090 C   0  0  0  0  0  0  0  0  0  0  0  0
   35.1920   29.6940   47.5680 C   0  0  0  0  0  0  0  0  0  0  0  0
   35.5840   29.9400   46.2620 C   0  0  0  0  0  0  0  0  0  0  0  0
   34.6890   29.6160   45.2770 N   0  0  0  0  0  0  0  0  0  0  0  0
   33.4990   29.0910   45.5360 C   0  0  0  0  0  0  0  0  0  0  0  0
   33.1100   28.8490   46.7780 N   0  0  0  0  0  0  0  0  0  0  0  0
   32.6590   28.8030   44.3380 C   0  0  0  0  0  0  0  0  0  0  0  0
   32.5780   29.9410   43.5190 F   0  0  0  0  0  0  0  0  0  0  0  0
   33.2770   27.8360   43.5600 F   0  0  0  0  0  0  0  0  0  0  0  0
   31.3980   28.3280   44.6560 F   0  0  0  0  0  0  0  0  0  0  0  0
   33.5310   28.8890   49.1220 O   0  0  0  0  0  0  0  0  0  0  0  0
   34.0370   29.5680   50.2230 C   0  0  0  0  0  0  0  0  0  0  0  0
   35.0300   28.9060   50.9030 F   0  0  0  0  0  0  0  0  0  0  0  0
   34.4270   30.8630   49.9590 F   0  0  0  0  0  0  0  0  0  0  0  0
   32.9320   29.6760   51.1030 F   0  0  0  0  0  0  0  0  0  0  0  0
   39.0130   32.2460   45.8060 O   0  0  0  0  0  0  0  0  0  0  0  0
   39.1860   32.8770   47.0000 C   0  0  0  0  0  0  0  0  0  0  0  0
   38.5370   32.6030   48.1900 C   0  0  0  0  0  0  0  0  0  0  0  0
   38.8100   33.3310   49.3500 C   0  0  0  0  0  0  0  0  0  0  0  0
   39.7280   34.3480   49.3690 C   0  0  0  0  0  0  0  0  0  0  0  0
   40.3760   34.6230   48.1800 C   0  0  0  0  0  0  0  0  0  0  0  0
   40.1130   33.9010   47.0150 C   0  0  0  0  0  0  0  0  0  0  0  0
   36.9022   29.6189   43.5544 H   0  0  0  0  0  0  0  0  0  0  0  0
   35.6908   30.9662   43.4417 H   0  0  0  0  0  0  0  0  0  0  0  0
   37.0166   32.2314   42.0515 H   0  0  0  0  0  0  0  0  0  0  0  0
   37.4842   30.5984   41.5179 H   0  0  0  0  0  0  0  0  0  0  0  0
   39.7731   33.0270   43.7995 H   0  0  0  0  0  0  0  0  0  0  0  0
   38.2183   33.4843   42.9915 H   0  0  0  0  0  0  0  0  0  0  0  0
   37.3204   33.3181   45.0617 H   0  0  0  0  0  0  0  0  0  0  0  0
   35.8629   29.9317   48.4066 H   0  0  0  0  0  0  0  0  0  0  0  0
   37.7908   31.7955   48.2235 H   0  0  0  0  0  0  0  0  0  0  0  0
   38.2720   33.0805   50.2762 H   0  0  0  0  0  0  0  0  0  0  0  0
   39.9388   34.9177   50.2860 H   0  0  0  0  0  0  0  0  0  0  0  0
   41.1195   35.4332   48.1509 H   0  0  0  0  0  0  0  0  0  0  0  0
   40.6543   34.1522   46.0909 H   0  0  0  0  0  0  0  0  0  0  0  0
  1 11  1  0
  1  2  2  0
  3  8  1  0
  3  1  1  0
  4  3  1  0
  5  6  1  0
  5  4  1  0
  6  7  1  0
  7  8  1  0
  8 24  1  0
  9 19  1  0
 10  9  2  0
 11 10  1  0
 12 13  1  0
 12 11  2  0
 13 14  2  0
 14  9  1  0
 15 18  1  0
 15 13  1  0
 16 15  1  0
 17 15  1  0
 19 20  1  0
 20 21  1  0
 20 23  1  0
 22 20  1  0
 24 25  1  0
 25 30  1  0
 25 26  2  0
 26 27  1  0
 27 28  2  0
 29 28  1  0
 30 29  2  0
  4 31  1  0
  4 32  1  0
  5 33  1  0
  5 34  1  0
  7 35  1  0
  7 36  1  0
  8 37  1  1
 10 38  1  0
 26 39  1  0
 27 40  1  0
 28 41  1  0
 29 42  1  0
 30 43  1  0
M  ISO  8  31  13  32  13  33  13  34  13  35  13  36  13  37  13  38  14
M  ISO  5  39  14  40  14  41  14  42  14  43  14
M  END
>  <minimizedAffinity>  (1) 
-5.77285004

>  <minimizedRMSD>  (1) 
1.99434519

$$$$
