
     RDKit          3D

 33 36  0  0  0  0  0  0  0  0999 V2000
   35.4080   29.7260   49.1120 C   0  0  0  0  0  0  0  0  0  0  0  0
   35.2730   29.2050   50.4130 C   0  0  0  0  0  0  0  0  0  0  0  0
   36.1370   29.4340   51.4490 C   0  0  0  0  0  0  0  0  0  0  0  0
   37.2280   30.2290   51.2370 C   0  0  0  0  0  0  0  0  0  0  0  0
   37.4370   30.7750   50.0100 C   0  0  0  0  0  0  0  0  0  0  0  0
   38.5480   31.5670   49.8480 C   0  0  0  0  0  0  0  0  0  0  0  0
   38.8140   32.1430   48.6440 C   0  0  0  0  0  0  0  0  0  0  0  0
   37.9300   31.9060   47.5920 C   0  0  0  0  0  0  0  0  0  0  0  0
   36.8350   31.1060   47.8110 C   0  0  0  0  0  0  0  0  0  0  0  0
   36.5340   30.5130   48.9940 C   0  0  0  0  0  0  0  0  0  0  0  0
   33.6120   27.6660   46.7960 C   0  0  0  0  0  0  0  0  0  0  0  0
   32.7860   28.4980   46.0370 C   0  0  0  0  0  0  0  0  0  0  0  0
   32.8620   29.8380   46.3490 C   0  0  0  0  0  0  0  0  0  0  0  0
   33.6920   30.2260   47.3230 N   0  0  0  0  0  0  0  0  0  0  0  0
   34.4730   29.4600   48.0440 C   0  0  0  0  0  0  0  0  0  0  0  0
   34.3980   28.1650   47.7400 N   0  0  0  0  0  0  0  0  0  0  0  0
   32.0650   30.8190   45.6460 C   0  0  0  0  0  0  0  0  0  0  0  0
   30.8580   30.6120   45.0250 C   0  0  0  0  0  0  0  0  0  0  0  0
   30.4400   31.7660   44.4890 N   0  0  0  0  0  0  0  0  0  0  0  0
   31.3520   32.7420   44.7440 C   0  0  0  0  0  0  0  0  0  0  0  0
   32.3160   32.1260   45.4460 N   0  0  0  0  0  0  0  0  0  0  0  0
   34.4030   28.5622   50.6126 H   0  0  0  0  0  0  0  0  0  0  0  0
   35.9562   28.9852   52.4369 H   0  0  0  0  0  0  0  0  0  0  0  0
   37.9347   30.4264   52.0566 H   0  0  0  0  0  0  0  0  0  0  0  0
   39.2268   31.7366   50.6968 H   0  0  0  0  0  0  0  0  0  0  0  0
   39.7015   32.7777   48.5046 H   0  0  0  0  0  0  0  0  0  0  0  0
   38.1067   32.3526   46.6024 H   0  0  0  0  0  0  0  0  0  0  0  0
   36.1524   30.9335   46.9659 H   0  0  0  0  0  0  0  0  0  0  0  0
   33.6104   26.5822   46.6081 H   0  0  0  0  0  0  0  0  0  0  0  0
   32.1235   28.1120   45.2482 H   0  0  0  0  0  0  0  0  0  0  0  0
   30.3211   29.6532   44.9757 H   0  0  0  0  0  0  0  0  0  0  0  0
   31.3093   33.7990   44.4426 H   0  0  0  0  0  0  0  0  0  0  0  0
   33.1593   32.6034   45.7950 H   0  0  0  0  0  0  0  0  0  0  0  0
  1  2  2  0
  2  3  1  0
  4  3  2  0
  5  4  1  0
  6  5  2  0
  7  6  1  0
  8  9  1  0
  8  7  2  0
  9 10  2  0
 10  1  1  0
 10  5  1  0
 11 16  2  0
 12 13  2  0
 12 11  1  0
 13 14  1  0
 14 15  2  0
 15  1  1  0
 16 15  1  0
 17 13  1  0
 18 17  2  0
 19 20  2  0
 19 18  1  0
 20 21  1  0
 21 17  1  0
  2 22  1  0
  3 23  1  0
  4 24  1  0
  6 25  1  0
  7 26  1  0
  8 27  1  0
  9 28  1  0
 11 29  1  0
 12 30  1  0
 18 31  1  0
 20 32  1  0
 21 33  1  0
M  ISO  8  22  14  23  14  24  14  25  14  26  14  27  14  28  14  29  14
M  ISO  4  30  14  31  14  32  14  33   9
M  END
>  <minimizedAffinity>  (1) 
-6.82256079

>  <minimizedRMSD>  (1) 
0.654101312

$$$$
