
     RDKit          3D

 23 24  0  0  0  0  0  0  0  0999 V2000
   34.0660   29.3880   50.0190 C   0  0  0  0  0  0  0  0  0  0  0  0
   37.7300   29.8450   50.1530 C   0  0  0  0  0  0  0  0  0  0  0  0
   37.9870   30.6910   49.0550 C   0  0  0  0  0  0  0  0  0  0  0  0
   36.8930   31.0910   48.2840 C   0  0  0  0  0  0  0  0  0  0  0  0
   35.6540   30.6380   48.6440 N   0  0  0  0  0  0  0  0  0  0  0  0
   35.4350   29.8350   49.6940 C   0  0  0  0  0  0  0  0  0  0  0  0
   36.4780   29.4360   50.4530 N   0  0  0  0  0  0  0  0  0  0  0  0
   33.5770   28.3040   49.1460 C   0  0  0  0  0  0  0  0  0  0  0  0
   32.1970   28.1450   49.1560 C   0  0  0  0  0  0  0  0  0  0  0  0
   31.5770   27.1720   48.3880 C   0  0  0  0  0  0  0  0  0  0  0  0
   32.3810   26.3640   47.6140 C   0  0  0  0  0  0  0  0  0  0  0  0
   33.7380   26.5290   47.6120 C   0  0  0  0  0  0  0  0  0  0  0  0
   34.3750   27.4910   48.3670 C   0  0  0  0  0  0  0  0  0  0  0  0
   34.0547   29.0292   51.0588 H   0  0  0  0  0  0  0  0  0  0  0  0
   33.4000   30.2503   49.8673 H   0  0  0  0  0  0  0  0  0  0  0  0
   38.5690   29.5099   50.7805 H   0  0  0  0  0  0  0  0  0  0  0  0
   39.0079   31.0228   48.8150 H   0  0  0  0  0  0  0  0  0  0  0  0
   37.0242   31.7505   47.4135 H   0  0  0  0  0  0  0  0  0  0  0  0
   31.5835   28.8052   49.7867 H   0  0  0  0  0  0  0  0  0  0  0  0
   30.4839   27.0494   48.3961 H   0  0  0  0  0  0  0  0  0  0  0  0
   31.9267   25.5788   46.9919 H   0  0  0  0  0  0  0  0  0  0  0  0
   34.3480   25.8659   46.9810 H   0  0  0  0  0  0  0  0  0  0  0  0
   35.4689   27.6052   48.3492 H   0  0  0  0  0  0  0  0  0  0  0  0
  2  7  2  0
  3  2  1  0
  4  5  1  0
  4  3  2  0
  5  6  2  0
  6  1  1  0
  6  7  1  0
  8  9  2  0
  8  1  1  0
 10  9  1  0
 11 10  2  0
 12 11  1  0
 12 13  2  0
 13  8  1  0
  1 14  1  0
  1 15  1  0
  2 16  1  0
  3 17  1  0
  4 18  1  0
  9 19  1  0
 10 20  1  0
 11 21  1  0
 12 22  1  0
 13 23  1  0
M  ISO  8  14   8  15   8  16  14  17  14  18  14  19  14  20  14  21  14
M  ISO  2  22  14  23  14
M  END
>  <minimizedAffinity>  (1) 
-4.16298819

>  <minimizedRMSD>  (1) 
2.37972641

$$$$
