
     RDKit          3D

 20 21  0  0  0  0  0  0  0  0999 V2000
   35.3960   29.1230   50.3750 C   0  0  0  0  0  0  0  0  0  0  0  0
   36.1380   30.1610   49.7940 C   0  0  0  0  0  0  0  0  0  0  0  0
   35.8000   30.5330   48.4870 C   0  0  0  0  0  0  0  0  0  0  0  0
   34.7720   29.8720   47.8490 N   0  0  0  0  0  0  0  0  0  0  0  0
   34.0930   28.8730   48.4710 C   0  0  0  0  0  0  0  0  0  0  0  0
   34.4050   28.5120   49.7120 N   0  0  0  0  0  0  0  0  0  0  0  0
   33.0230   28.2320   47.7200 C   0  0  0  0  0  0  0  0  0  0  0  0
   33.0500   26.9300   47.2610 C   0  0  0  0  0  0  0  0  0  0  0  0
   31.8820   26.7290   46.6220 N   0  0  0  0  0  0  0  0  0  0  0  0
   31.1520   27.8660   46.6800 C   0  0  0  0  0  0  0  0  0  0  0  0
   31.8610   28.7860   47.3570 N   0  0  0  0  0  0  0  0  0  0  0  0
   37.2470   30.8710   50.4890 C   0  0  0  0  0  0  0  0  0  0  0  0
   38.4860   30.5820   49.9870 F   0  0  0  0  0  0  0  0  0  0  0  0
   37.2860   30.5550   51.8220 F   0  0  0  0  0  0  0  0  0  0  0  0
   37.0730   32.2380   50.3530 F   0  0  0  0  0  0  0  0  0  0  0  0
   35.6333   28.8024   51.4002 H   0  0  0  0  0  0  0  0  0  0  0  0
   36.3463   31.3402   47.9772 H   0  0  0  0  0  0  0  0  0  0  0  0
   33.8640   26.2017   47.3915 H   0  0  0  0  0  0  0  0  0  0  0  0
   30.1511   28.0127   46.2479 H   0  0  0  0  0  0  0  0  0  0  0  0
   31.5614   29.7502   47.5608 H   0  0  0  0  0  0  0  0  0  0  0  0
  2  1  2  0
  2 12  1  0
  3  2  1  0
  4  5  1  0
  4  3  2  0
  5  6  2  0
  6  1  1  0
  7  5  1  0
  8  7  2  0
  9 10  2  0
  9  8  1  0
 10 11  1  0
 11  7  1  0
 12 14  1  0
 13 12  1  0
 15 12  1  0
  1 16  1  0
  3 17  1  0
  8 18  1  0
 10 19  1  0
 11 20  1  0
M  ISO  5  16  14  17  14  18  14  19  14  20   9
M  END
>  <minimizedAffinity>  (1) 
-4.84085178

>  <minimizedRMSD>  (1) 
0.633580089

$$$$
