
     RDKit          3D

 29 31  0  0  1  0  0  0  0  0999 V2000
   38.0170   31.2600   47.6420 N   0  0  0  0  0  0  0  0  0  0  0  0
   39.0140   32.3310   47.6390 C   0  0  0  0  0  0  0  0  0  0  0  0
   38.5480   33.1680   48.7890 C   0  0  0  0  0  0  0  0  0  0  0  0
   38.2620   32.1310   49.8260 C   0  0  0  0  0  0  0  0  0  0  0  0
   37.9730   30.8800   49.0390 C   0  0  1  0  0  0  0  0  0  0  0  0
   37.3090   30.7620   46.5270 C   0  0  0  0  0  0  0  0  0  0  0  0
   37.9100   30.5660   45.2750 C   0  0  0  0  0  0  0  0  0  0  0  0
   37.1640   30.0750   44.2010 C   0  0  0  0  0  0  0  0  0  0  0  0
   35.8510   29.8020   44.4280 N   0  0  0  0  0  0  0  0  0  0  0  0
   35.2860   29.9970   45.6430 C   0  0  0  0  0  0  0  0  0  0  0  0
   36.0220   30.4700   46.6610 N   0  0  0  0  0  0  0  0  0  0  0  0
   36.7060   30.2420   49.4540 C   0  0  0  0  0  0  0  0  0  0  0  0
   36.4560   28.9460   49.8500 C   0  0  0  0  0  0  0  0  0  0  0  0
   35.1590   28.7540   50.1670 N   0  0  0  0  0  0  0  0  0  0  0  0
   34.5560   29.9470   49.9730 C   0  0  0  0  0  0  0  0  0  0  0  0
   35.4850   30.8140   49.5510 N   0  0  0  0  0  0  0  0  0  0  0  0
   40.0271   31.9386   47.8109 H   0  0  0  0  0  0  0  0  0  0  0  0
   39.0877   32.8755   46.6860 H   0  0  0  0  0  0  0  0  0  0  0  0
   39.3330   33.8624   49.1229 H   0  0  0  0  0  0  0  0  0  0  0  0
   37.6870   33.8104   48.5522 H   0  0  0  0  0  0  0  0  0  0  0  0
   39.1336   31.9855   50.4811 H   0  0  0  0  0  0  0  0  0  0  0  0
   37.4258   32.4150   50.4819 H   0  0  0  0  0  0  0  0  0  0  0  0
   38.7233   30.0984   49.2294 H   0  0  0  0  0  0  0  0  0  0  0  0
   38.9759   30.8005   45.1379 H   0  0  0  0  0  0  0  0  0  0  0  0
   37.6195   29.9157   43.2125 H   0  0  0  0  0  0  0  0  0  0  0  0
   34.2212   29.7672   45.7962 H   0  0  0  0  0  0  0  0  0  0  0  0
   37.2240   28.1602   49.9016 H   0  0  0  0  0  0  0  0  0  0  0  0
   33.4903   30.1673   50.1333 H   0  0  0  0  0  0  0  0  0  0  0  0
   35.2920   31.8006   49.3267 H   0  0  0  0  0  0  0  0  0  0  0  0
  1  5  1  0
  2  1  1  0
  2  3  1  0
  3  4  1  0
  5 12  1  0
  5  4  1  0
  6 11  1  0
  6  1  1  0
  7  6  2  0
  8  9  2  0
  8  7  1  0
  9 10  1  0
 10 11  2  0
 12 16  1  0
 12 13  2  0
 13 14  1  0
 15 14  2  0
 16 15  1  0
  2 17  1  0
  2 18  1  0
  3 19  1  0
  3 20  1  0
  4 21  1  0
  4 22  1  0
  5 23  1  6
  7 24  1  0
  8 25  1  0
 10 26  1  0
 13 27  1  0
 15 28  1  0
 16 29  1  0
M  ISO  8  17  13  18  13  19  13  20  13  21  13  22  13  23  13  24  14
M  ISO  5  25  14  26  14  27  14  28  14  29   9
M  END
>  <minimizedAffinity>  (1) 
-4.73023987

>  <minimizedRMSD>  (1) 
3.38903642

$$$$
