
     RDKit          3D

 29 32  0  0  0  0  0  0  0  0999 V2000
   36.8850   29.8180   51.5820 C   0  0  0  0  0  0  0  0  0  0  0  0
   37.7090   30.6120   50.7860 C   0  0  0  0  0  0  0  0  0  0  0  0
   37.3370   30.7070   49.4310 C   0  0  0  0  0  0  0  0  0  0  0  0
   36.2360   30.0570   48.9490 N   0  0  0  0  0  0  0  0  0  0  0  0
   35.4860   29.3020   49.7990 C   0  0  0  0  0  0  0  0  0  0  0  0
   35.8030   29.1800   51.1060 N   0  0  0  0  0  0  0  0  0  0  0  0
   38.1270   31.5150   48.4860 C   0  0  0  0  0  0  0  0  0  0  0  0
   38.8050   32.6840   48.6180 N   0  0  0  0  0  0  0  0  0  0  0  0
   39.3560   33.0020   47.4820 O   0  0  0  0  0  0  0  0  0  0  0  0
   39.0580   32.0850   46.6210 C   0  0  0  0  0  0  0  0  0  0  0  0
   38.2810   31.1100   47.1930 N   0  0  0  0  0  0  0  0  0  0  0  0
   39.4410   32.0060   45.2340 N   0  0  0  0  0  0  0  0  0  0  0  0
   38.9730   32.8880   44.3300 N   0  0  0  0  0  0  0  0  0  0  0  0
   39.4970   32.5690   43.1280 C   0  0  0  0  0  0  0  0  0  0  0  0
   40.3050   31.4580   43.3270 C   0  0  0  0  0  0  0  0  0  0  0  0
   40.2590   31.1140   44.6600 C   0  0  0  0  0  0  0  0  0  0  0  0
   34.3100   28.6090   49.2790 C   0  0  0  0  0  0  0  0  0  0  0  0
   34.3040   27.5830   48.3580 C   0  0  0  0  0  0  0  0  0  0  0  0
   33.0170   27.2080   48.1340 N   0  0  0  0  0  0  0  0  0  0  0  0
   32.2460   27.9940   48.9060 C   0  0  0  0  0  0  0  0  0  0  0  0
   33.0290   28.8560   49.6120 N   0  0  0  0  0  0  0  0  0  0  0  0
   37.1320   29.7089   52.6483 H   0  0  0  0  0  0  0  0  0  0  0  0
   38.5915   31.1301   51.1895 H   0  0  0  0  0  0  0  0  0  0  0  0
   39.3184   33.0887   42.1751 H   0  0  0  0  0  0  0  0  0  0  0  0
   40.8852   30.9389   42.5499 H   0  0  0  0  0  0  0  0  0  0  0  0
   40.7841   30.2811   45.1505 H   0  0  0  0  0  0  0  0  0  0  0  0
   35.1928   27.1415   47.8835 H   0  0  0  0  0  0  0  0  0  0  0  0
   31.1483   27.9477   48.9592 H   0  0  0  0  0  0  0  0  0  0  0  0
   32.7007   29.5681   50.2799 H   0  0  0  0  0  0  0  0  0  0  0  0
  2  1  2  0
  3  2  1  0
  4  3  2  0
  4  5  1  0
  5  6  2  0
  6  1  1  0
  7  8  2  0
  7  3  1  0
  9  8  1  0
 10 11  2  0
 10  9  1  0
 11  7  1  0
 12 10  1  0
 13 12  1  0
 14 15  1  0
 14 13  2  0
 15 16  2  0
 16 12  1  0
 17 21  1  0
 17  5  1  0
 18 17  2  0
 19 18  1  0
 19 20  2  0
 20 21  1  0
  1 22  1  0
  2 23  1  0
 14 24  1  0
 15 25  1  0
 16 26  1  0
 18 27  1  0
 20 28  1  0
 21 29  1  0
M  ISO  8  22  14  23  14  24  14  25  14  26  14  27  14  28  14  29   9
M  END
>  <minimizedAffinity>  (1) 
-6.55093813

>  <minimizedRMSD>  (1) 
0.742658734

$$$$
