
     RDKit          3D

 22 24  0  0  0  0  0  0  0  0999 V2000
   34.9240   29.3100   48.6800 C   0  0  0  0  0  0  0  0  0  0  0  0
   34.3090   28.1260   49.1520 C   0  0  0  0  0  0  0  0  0  0  0  0
   33.2040   27.7040   48.4790 C   0  0  0  0  0  0  0  0  0  0  0  0
   32.7630   28.4140   47.4310 C   0  0  0  0  0  0  0  0  0  0  0  0
   33.9080   29.8070   47.2770 S   0  0  0  0  0  0  0  0  0  0  0  0
   37.4990   30.3760   51.1020 C   0  0  0  0  0  0  0  0  0  0  0  0
   38.3870   31.1140   50.2860 C   0  0  0  0  0  0  0  0  0  0  0  0
   38.0790   31.2240   48.9320 C   0  0  0  0  0  0  0  0  0  0  0  0
   36.9500   30.6290   48.4420 N   0  0  0  0  0  0  0  0  0  0  0  0
   36.1300   29.9330   49.2690 C   0  0  0  0  0  0  0  0  0  0  0  0
   36.3790   29.7910   50.5940 N   0  0  0  0  0  0  0  0  0  0  0  0
   31.6250   28.1990   46.5430 C   0  0  0  0  0  0  0  0  0  0  0  0
   31.3000   27.1220   45.8050 N   0  0  0  0  0  0  0  0  0  0  0  0
   30.1960   27.3580   45.1570 O   0  0  0  0  0  0  0  0  0  0  0  0
   29.7540   28.5660   45.4280 C   0  0  0  0  0  0  0  0  0  0  0  0
   30.6430   29.1020   46.2960 N   0  0  0  0  0  0  0  0  0  0  0  0
   34.7039   27.5751   50.0184 H   0  0  0  0  0  0  0  0  0  0  0  0
   32.6782   26.7898   48.7917 H   0  0  0  0  0  0  0  0  0  0  0  0
   37.7184   30.2717   52.1748 H   0  0  0  0  0  0  0  0  0  0  0  0
   39.2886   31.5844   50.7053 H   0  0  0  0  0  0  0  0  0  0  0  0
   38.7420   31.7878   48.2593 H   0  0  0  0  0  0  0  0  0  0  0  0
   28.8465   29.0437   45.0303 H   0  0  0  0  0  0  0  0  0  0  0  0
  1  2  2  0
  1 10  1  0
  3  2  1  0
  4  3  2  0
  5  4  1  0
  5  1  1  0
  7  6  2  0
  8  7  1  0
  9  8  2  0
  9 10  1  0
 10 11  2  0
 11  6  1  0
 12  4  1  0
 13 12  2  0
 14 15  1  0
 14 13  1  0
 15 16  2  0
 16 12  1  0
  2 17  1  0
  3 18  1  0
  6 19  1  0
  7 20  1  0
  8 21  1  0
 15 22  1  0
M  ISO  6  17  14  18  14  19  14  20  14  21  14  22  14
M  END
>  <minimizedAffinity>  (1) 
-4.31502581

>  <minimizedRMSD>  (1) 
0.263688266

$$$$
