
     RDKit          3D

 28 30  0  0  0  0  0  0  0  0999 V2000
   36.7230   30.6750   46.5040 C   0  0  0  0  0  0  0  0  0  0  0  0
   35.4330   30.1380   46.3790 C   0  0  0  0  0  0  0  0  0  0  0  0
   34.8220   29.8530   45.1870 C   0  0  0  0  0  0  0  0  0  0  0  0
   35.5210   30.1080   44.0250 C   0  0  0  0  0  0  0  0  0  0  0  0
   36.8130   30.6440   44.1230 C   0  0  0  0  0  0  0  0  0  0  0  0
   37.4090   30.9220   45.3500 C   0  0  0  0  0  0  0  0  0  0  0  0
   37.4800   30.3840   50.0660 C   0  0  0  0  0  0  0  0  0  0  0  0
   38.1940   31.5430   50.3300 C   0  0  0  0  0  0  0  0  0  0  0  0
   38.4240   32.4360   49.2680 C   0  0  0  0  0  0  0  0  0  0  0  0
   37.9330   32.1020   48.0610 N   0  0  0  0  0  0  0  0  0  0  0  0
   37.2380   30.9600   47.8260 C   0  0  0  0  0  0  0  0  0  0  0  0
   37.0260   30.1190   48.8490 N   0  0  0  0  0  0  0  0  0  0  0  0
   37.2310   29.4410   51.2200 C   0  0  0  0  0  0  0  0  0  0  0  0
   35.8600   29.2060   51.3220 F   0  0  0  0  0  0  0  0  0  0  0  0
   37.9290   28.3070   51.0030 F   0  0  0  0  0  0  0  0  0  0  0  0
   37.6300   30.0740   52.3820 F   0  0  0  0  0  0  0  0  0  0  0  0
   38.7680   31.4470   45.3160 C   0  0  0  0  0  0  0  0  0  0  0  0
   39.8200   30.6370   45.5140 N   0  0  0  0  0  0  0  0  0  0  0  0
   40.9510   31.2740   45.4660 O   0  0  0  0  0  0  0  0  0  0  0  0
   40.6940   32.5360   45.2320 C   0  0  0  0  0  0  0  0  0  0  0  0
   39.3890   32.6080   45.1480 N   0  0  0  0  0  0  0  0  0  0  0  0
   34.8731   29.9314   47.3031 H   0  0  0  0  0  0  0  0  0  0  0  0
   33.8055   29.4338   45.1568 H   0  0  0  0  0  0  0  0  0  0  0  0
   35.0742   29.8953   43.0426 H   0  0  0  0  0  0  0  0  0  0  0  0
   37.3741   30.8517   43.1999 H   0  0  0  0  0  0  0  0  0  0  0  0
   38.5698   31.7579   51.3412 H   0  0  0  0  0  0  0  0  0  0  0  0
   38.9835   33.3710   49.4185 H   0  0  0  0  0  0  0  0  0  0  0  0
   41.4175   33.3581   45.1283 H   0  0  0  0  0  0  0  0  0  0  0  0
  1 11  1  0
  2  1  2  0
  3  2  1  0
  4  5  1  0
  4  3  2  0
  5  6  2  0
  6  1  1  0
  7  8  2  0
  7 13  1  0
  9  8  1  0
 10  9  2  0
 11 10  1  0
 11 12  2  0
 12  7  1  0
 13 14  1  0
 13 16  1  0
 15 13  1  0
 17  6  1  0
 17 18  2  0
 19 18  1  0
 20 19  1  0
 21 20  2  0
 21 17  1  0
  2 22  1  0
  3 23  1  0
  4 24  1  0
  5 25  1  0
  8 26  1  0
  9 27  1  0
 20 28  1  0
M  ISO  7  22  14  23  14  24  14  25  14  26  14  27  14  28  14
M  END
>  <minimizedAffinity>  (1) 
-6.50386143

>  <minimizedRMSD>  (1) 
0.462459356

$$$$
