
     RDKit          3D

 28 29  0  0  0  0  0  0  0  0999 V2000
   36.9180   29.9310   49.8800 C   0  0  0  0  0  0  0  0  0  0  0  0
   37.9970   30.6770   49.4430 C   0  0  0  0  0  0  0  0  0  0  0  0
   37.9980   31.1470   48.1320 C   0  0  0  0  0  0  0  0  0  0  0  0
   36.9400   30.8440   47.3620 N   0  0  0  0  0  0  0  0  0  0  0  0
   35.8910   30.1040   47.8230 C   0  0  0  0  0  0  0  0  0  0  0  0
   35.9010   29.6610   49.0780 N   0  0  0  0  0  0  0  0  0  0  0  0
   39.0620   31.9080   47.6340 N   0  0  0  0  0  0  0  0  0  0  0  0
   38.9790   32.6130   46.4170 C   0  0  0  0  0  0  0  0  0  0  0  0
   37.9550   32.3990   45.6720 N   0  0  0  0  0  0  0  0  0  0  0  0
   39.9930   33.5210   46.0400 N   0  0  0  0  0  0  0  0  0  0  0  0
   37.8280   33.0020   44.8130 H   0  0  0  0  0  0  0  0  0  0  0  0
   34.7600   29.8040   46.9360 C   0  0  0  0  0  0  0  0  0  0  0  0
   34.9120   29.9920   45.5670 C   0  0  0  0  0  0  0  0  0  0  0  0
   33.8560   29.7110   44.7410 C   0  0  0  0  0  0  0  0  0  0  0  0
   32.6700   29.2530   45.2260 N   0  0  0  0  0  0  0  0  0  0  0  0
   32.5650   29.0830   46.5750 C   0  0  0  0  0  0  0  0  0  0  0  0
   33.5980   29.3560   47.4080 N   0  0  0  0  0  0  0  0  0  0  0  0
   36.9260   29.4260   51.3020 C   0  0  0  0  0  0  0  0  0  0  0  0
   35.6180   29.1490   51.6980 F   0  0  0  0  0  0  0  0  0  0  0  0
   37.7870   28.3970   51.4090 F   0  0  0  0  0  0  0  0  0  0  0  0
   37.3550   30.4940   52.1080 F   0  0  0  0  0  0  0  0  0  0  0  0
   38.8381   30.8950   50.1175 H   0  0  0  0  0  0  0  0  0  0  0  0
   39.9364   31.9542   48.1763 H   0  0  0  0  0  0  0  0  0  0  0  0
   39.9220   34.0310   45.1480 H   0  0  0  0  0  0  0  0  0  0  0  0
   40.8035   33.6732   46.6571 H   0  0  0  0  0  0  0  0  0  0  0  0
   35.8631   30.3598   45.1545 H   0  0  0  0  0  0  0  0  0  0  0  0
   33.9697   29.8595   43.6570 H   0  0  0  0  0  0  0  0  0  0  0  0
   31.6182   28.7151   46.9972 H   0  0  0  0  0  0  0  0  0  0  0  0
  1 18  1  0
  2  1  2  0
  3  2  1  0
  4  5  1  0
  4  3  2  0
  5  6  2  0
  6  1  1  0
  7  3  1  0
  8  7  1  0
  9  8  2  0
 10  8  1  0
 11  9  1  0
 12 17  1  0
 12  5  1  0
 13 12  2  0
 14 15  2  0
 14 13  1  0
 15 16  1  0
 16 17  2  0
 18 20  1  0
 18 19  1  0
 18 21  1  0
  2 22  1  0
  7 23  1  0
 10 24  1  0
 10 25  1  0
 13 26  1  0
 14 27  1  0
 16 28  1  0
M  ISO  4  22  14  26  14  27  14  28  14
M  END
>  <minimizedAffinity>  (1) 
-6.58990049

>  <minimizedRMSD>  (1) 
0.203894466

$$$$
