
     RDKit          3D

 45 48  0  0  0  0  0  0  0  0999 V2000
   37.6970   32.6940   43.1140 C   0  0  0  0  0  0  0  0  0  0  0  0
   38.2630   31.7370   42.2660 C   0  0  0  0  0  0  0  0  0  0  0  0
   38.5380   30.5150   42.8000 C   0  0  0  0  0  0  0  0  0  0  0  0
   38.2390   30.3550   44.0870 N   0  0  0  0  0  0  0  0  0  0  0  0
   37.7190   31.1820   44.9350 C   0  0  0  0  0  0  0  0  0  0  0  0
   37.4610   32.3640   44.3840 N   0  0  0  0  0  0  0  0  0  0  0  0
   37.3600   31.1100   46.3340 C   0  0  0  0  0  0  0  0  0  0  0  0
   36.3690   30.2530   46.8260 C   0  0  0  0  0  0  0  0  0  0  0  0
   35.9970   30.1580   48.1300 C   0  0  0  0  0  0  0  0  0  0  0  0
   36.6190   30.9480   49.0730 C   0  0  0  0  0  0  0  0  0  0  0  0
   37.5770   31.7880   48.6550 C   0  0  0  0  0  0  0  0  0  0  0  0
   38.2000   32.5850   49.6120 C   0  0  0  0  0  0  0  0  0  0  0  0
   39.1830   33.4680   49.2780 C   0  0  0  0  0  0  0  0  0  0  0  0
   39.5540   33.5560   47.9480 C   0  0  0  0  0  0  0  0  0  0  0  0
   38.9200   32.7590   47.0360 C   0  0  0  0  0  0  0  0  0  0  0  0
   37.9460   31.8780   47.3330 C   0  0  0  0  0  0  0  0  0  0  0  0
   36.2290   30.8390   50.3900 O   0  0  0  0  0  0  0  0  0  0  0  0
   36.6490   29.7440   51.1770 C   0  0  0  0  0  0  0  0  0  0  0  0
   37.4590   28.8500   50.5500 F   0  0  0  0  0  0  0  0  0  0  0  0
   37.3950   30.2540   52.2380 F   0  0  0  0  0  0  0  0  0  0  0  0
   35.4840   29.1190   51.6300 F   0  0  0  0  0  0  0  0  0  0  0  0
   39.0890   29.4310   42.0890 N   0  0  0  0  0  0  0  0  0  0  0  0
   40.2910   28.7880   42.4620 C   0  0  0  0  0  0  0  0  0  0  0  0
   41.2670   29.5210   42.9130 N   0  0  0  0  0  0  0  0  0  0  0  0
   40.4330   27.3760   42.3580 N   0  0  0  0  0  0  0  0  0  0  0  0
   42.1670   29.2040   43.2530 H   0  0  0  0  0  0  0  0  0  0  0  0
   38.5510   32.0490   40.8720 C   0  0  0  0  0  0  0  0  0  0  0  0
   37.7000   32.9000   40.2090 C   0  0  0  0  0  0  0  0  0  0  0  0
   37.8330   33.2930   38.8920 C   0  0  0  0  0  0  0  0  0  0  0  0
   38.9090   32.7790   38.2120 N   0  0  0  0  0  0  0  0  0  0  0  0
   39.7460   31.9330   38.8870 C   0  0  0  0  0  0  0  0  0  0  0  0
   39.5620   31.5980   40.1460 N   0  0  0  0  0  0  0  0  0  0  0  0
   37.4513   33.6991   42.7407 H   0  0  0  0  0  0  0  0  0  0  0  0
   35.8514   29.6067   46.1019 H   0  0  0  0  0  0  0  0  0  0  0  0
   35.2054   29.4558   48.4305 H   0  0  0  0  0  0  0  0  0  0  0  0
   37.8909   32.4997   50.6642 H   0  0  0  0  0  0  0  0  0  0  0  0
   39.6672   34.0924   50.0433 H   0  0  0  0  0  0  0  0  0  0  0  0
   40.3433   34.2533   47.6308 H   0  0  0  0  0  0  0  0  0  0  0  0
   39.2278   32.8435   45.9833 H   0  0  0  0  0  0  0  0  0  0  0  0
   38.5905   29.0896   41.2548 H   0  0  0  0  0  0  0  0  0  0  0  0
   41.3169   26.9255   42.6348 H   0  0  0  0  0  0  0  0  0  0  0  0
   39.6518   26.8044   42.0059 H   0  0  0  0  0  0  0  0  0  0  0  0
   36.8443   33.3002   40.7725 H   0  0  0  0  0  0  0  0  0  0  0  0
   37.1175   33.9789   38.4149 H   0  0  0  0  0  0  0  0  0  0  0  0
   40.6117   31.5141   38.3531 H   0  0  0  0  0  0  0  0  0  0  0  0
  1  6  2  0
  2  3  2  0
  2  1  1  0
  3  4  1  0
  4  5  2  0
  5  7  1  0
  6  5  1  0
  7  8  2  0
  7 16  1  0
  8  9  1  0
  9 10  2  0
 10 17  1  0
 11 10  1  0
 11 12  2  0
 13 12  1  0
 14 13  2  0
 15 16  2  0
 15 14  1  0
 16 11  1  0
 17 18  1  0
 18 21  1  0
 18 20  1  0
 19 18  1  0
 22 23  1  0
 22  3  1  0
 23 24  2  0
 24 26  1  0
 25 23  1  0
 27  2  1  0
 28 27  2  0
 29 28  1  0
 30 31  1  0
 30 29  2  0
 31 32  2  0
 32 27  1  0
  1 33  1  0
  8 34  1  0
  9 35  1  0
 12 36  1  0
 13 37  1  0
 14 38  1  0
 15 39  1  0
 22 40  1  0
 25 41  1  0
 25 42  1  0
 28 43  1  0
 29 44  1  0
 31 45  1  0
M  ISO  8  33  14  34  14  35  14  36  14  37  14  38  14  39  14  43  14
M  ISO  2  44  14  45  14
M  END
>  <minimizedAffinity>  (1) 
-7.6694088

>  <minimizedRMSD>  (1) 
1.4313947

$$$$
