
     RDKit          3D

 32 34  0  0  0  0  0  0  0  0999 V2000
   36.2910   30.6160   46.1430 C   0  0  0  0  0  0  0  0  0  0  0  0
   37.7350   30.7640   45.7410 C   0  0  0  0  0  0  0  0  0  0  0  0
   38.5850   31.6100   46.4120 C   0  0  0  0  0  0  0  0  0  0  0  0
   39.9000   31.7660   46.0340 C   0  0  0  0  0  0  0  0  0  0  0  0
   40.3190   31.0490   44.9730 N   0  0  0  0  0  0  0  0  0  0  0  0
   39.5190   30.2180   44.3000 C   0  0  0  0  0  0  0  0  0  0  0  0
   38.2320   30.0740   44.6800 N   0  0  0  0  0  0  0  0  0  0  0  0
   40.0220   29.4620   43.1570 C   0  0  0  0  0  0  0  0  0  0  0  0
   39.4290   28.2680   42.8020 C   0  0  0  0  0  0  0  0  0  0  0  0
   39.9400   27.5780   41.7040 C   0  0  0  0  0  0  0  0  0  0  0  0
   40.9860   28.1100   41.0430 N   0  0  0  0  0  0  0  0  0  0  0  0
   41.5640   29.2710   41.3860 C   0  0  0  0  0  0  0  0  0  0  0  0
   41.0640   29.9340   42.4510 N   0  0  0  0  0  0  0  0  0  0  0  0
   36.2980   30.5140   47.6410 C   0  0  0  0  0  0  0  0  0  0  0  0
   34.9240   29.6700   49.5020 C   0  0  0  0  0  0  0  0  0  0  0  0
   35.2050   29.7390   48.1330 C   0  0  0  0  0  0  0  0  0  0  0  0
   34.3800   29.0340   47.2870 C   0  0  0  0  0  0  0  0  0  0  0  0
   33.3350   28.3050   47.7800 N   0  0  0  0  0  0  0  0  0  0  0  0
   33.0910   28.2580   49.1030 C   0  0  0  0  0  0  0  0  0  0  0  0
   33.8830   28.9350   49.9260 N   0  0  0  0  0  0  0  0  0  0  0  0
   35.8597   29.7071   45.6981 H   0  0  0  0  0  0  0  0  0  0  0  0
   35.6825   31.4638   45.7953 H   0  0  0  0  0  0  0  0  0  0  0  0
   38.2049   32.1777   47.2741 H   0  0  0  0  0  0  0  0  0  0  0  0
   40.5771   32.4447   46.5734 H   0  0  0  0  0  0  0  0  0  0  0  0
   38.5752   27.8709   43.3706 H   0  0  0  0  0  0  0  0  0  0  0  0
   39.4995   26.6219   41.3850 H   0  0  0  0  0  0  0  0  0  0  0  0
   42.4175   29.6700   40.8182 H   0  0  0  0  0  0  0  0  0  0  0  0
   37.2390   30.0419   47.9597 H   0  0  0  0  0  0  0  0  0  0  0  0
   36.2023   31.5308   48.0495 H   0  0  0  0  0  0  0  0  0  0  0  0
   35.5504   30.2132   50.2249 H   0  0  0  0  0  0  0  0  0  0  0  0
   34.5637   29.0576   46.2027 H   0  0  0  0  0  0  0  0  0  0  0  0
   32.2494   27.6685   49.4958 H   0  0  0  0  0  0  0  0  0  0  0  0
  1 14  1  0
  2  1  1  0
  2  3  2  0
  4  3  1  0
  5  4  2  0
  6  7  2  0
  6  5  1  0
  7  2  1  0
  8  6  1  0
  9  8  2  0
 10  9  1  0
 11 12  1  0
 11 10  2  0
 12 13  2  0
 13  8  1  0
 14 16  1  0
 15 20  2  0
 16 15  1  0
 17 18  1  0
 17 16  2  0
 18 19  2  0
 19 20  1  0
  1 21  1  0
  1 22  1  0
  3 23  1  0
  4 24  1  0
  9 25  1  0
 10 26  1  0
 12 27  1  0
 14 28  1  0
 14 29  1  0
 15 30  1  0
 17 31  1  0
 19 32  1  0
M  ISO  8  21   8  22   8  23  14  24  14  25  14  26  14  27  14  28   8
M  ISO  4  29   8  30  14  31  14  32  14
M  END
>  <minimizedAffinity>  (1) 
-4.53337145

>  <minimizedRMSD>  (1) 
4.53212738

$$$$
