
     RDKit          3D

 24 26  0  0  0  0  0  0  0  0999 V2000
   38.3610   31.0900   47.8270 C   0  0  0  0  0  0  0  0  0  0  0  0
   38.8150   32.4460   47.8510 C   0  0  0  0  0  0  0  0  0  0  0  0
   39.6040   32.6690   46.2030 S   0  0  0  0  0  0  0  0  0  0  0  0
   39.1740   30.8780   45.7780 C   0  0  0  0  0  0  0  0  0  0  0  0
   38.6480   30.4800   46.6790 N   0  0  0  0  0  0  0  0  0  0  0  0
   38.1230   30.8790   50.2760 C   0  0  0  0  0  0  0  0  0  0  0  0
   37.6680   30.5230   48.9910 C   0  0  0  0  0  0  0  0  0  0  0  0
   36.5960   29.6570   48.9040 C   0  0  0  0  0  0  0  0  0  0  0  0
   36.0240   29.1840   50.0340 N   0  0  0  0  0  0  0  0  0  0  0  0
   36.4830   29.5440   51.2530 C   0  0  0  0  0  0  0  0  0  0  0  0
   37.5300   30.3900   51.3700 N   0  0  0  0  0  0  0  0  0  0  0  0
   39.5440   30.2950   44.4590 C   0  0  0  0  0  0  0  0  0  0  0  0
   40.5110   30.8600   43.6530 C   0  0  0  0  0  0  0  0  0  0  0  0
   40.7680   30.2320   42.4540 C   0  0  0  0  0  0  0  0  0  0  0  0
   40.1070   29.1200   42.0920 N   0  0  0  0  0  0  0  0  0  0  0  0
   39.1620   28.5600   42.8730 C   0  0  0  0  0  0  0  0  0  0  0  0
   38.9050   29.1680   44.0450 N   0  0  0  0  0  0  0  0  0  0  0  0
   38.7161   33.1819   48.6626 H   0  0  0  0  0  0  0  0  0  0  0  0
   38.9752   31.5666   50.3803 H   0  0  0  0  0  0  0  0  0  0  0  0
   36.2093   29.3534   47.9200 H   0  0  0  0  0  0  0  0  0  0  0  0
   36.0003   29.1450   52.1573 H   0  0  0  0  0  0  0  0  0  0  0  0
   41.0516   31.7696   43.9538 H   0  0  0  0  0  0  0  0  0  0  0  0
   41.5299   30.6496   41.7794 H   0  0  0  0  0  0  0  0  0  0  0  0
   38.6265   27.6493   42.5666 H   0  0  0  0  0  0  0  0  0  0  0  0
  1  2  2  0
  1  7  1  0
  3  2  1  0
  4  3  1  0
  4  5  2  0
  5  1  1  0
  6 11  2  0
  7  6  1  0
  8  7  2  0
  8  9  1  0
  9 10  2  0
 10 11  1  0
 12  4  1  0
 13 12  2  0
 14 13  1  0
 15 14  2  0
 15 16  1  0
 16 17  2  0
 17 12  1  0
  2 18  1  0
  6 19  1  0
  8 20  1  0
 10 21  1  0
 13 22  1  0
 14 23  1  0
 16 24  1  0
M  ISO  7  18  14  19  14  20  14  21  14  22  14  23  14  24  14
M  END
>  <minimizedAffinity>  (1) 
-5.36191463

>  <minimizedRMSD>  (1) 
0.605057061

$$$$
