
     RDKit          3D

 22 23  0  0  0  0  0  0  0  0999 V2000
   37.5290   30.3980   49.0990 C   0  0  0  0  0  0  0  0  0  0  0  0
   37.7670   31.4240   50.0370 C   0  0  0  0  0  0  0  0  0  0  0  0
   38.4580   32.5710   49.6140 C   0  0  0  0  0  0  0  0  0  0  0  0
   38.8660   32.6330   48.3070 N   0  0  0  0  0  0  0  0  0  0  0  0
   38.6090   31.6240   47.4690 C   0  0  0  0  0  0  0  0  0  0  0  0
   37.9610   30.5250   47.8260 N   0  0  0  0  0  0  0  0  0  0  0  0
   39.0790   31.7670   46.0880 C   0  0  0  0  0  0  0  0  0  0  0  0
   40.2330   31.0980   45.6620 C   0  0  0  0  0  0  0  0  0  0  0  0
   40.6090   31.2840   44.3460 C   0  0  0  0  0  0  0  0  0  0  0  0
   39.9420   32.0570   43.4700 N   0  0  0  0  0  0  0  0  0  0  0  0
   38.8390   32.6800   43.9230 C   0  0  0  0  0  0  0  0  0  0  0  0
   38.4020   32.5470   45.2110 N   0  0  0  0  0  0  0  0  0  0  0  0
   36.8560   29.2910   49.5360 O   0  0  0  0  0  0  0  0  0  0  0  0
   35.5880   29.3040   50.1410 C   0  0  0  0  0  0  0  0  0  0  0  0
   35.6440   29.2760   51.5180 F   0  0  0  0  0  0  0  0  0  0  0  0
   34.7830   30.3160   49.7050 F   0  0  0  0  0  0  0  0  0  0  0  0
   34.9620   28.1110   49.7510 F   0  0  0  0  0  0  0  0  0  0  0  0
   37.4193   31.3279   51.0762 H   0  0  0  0  0  0  0  0  0  0  0  0
   38.6658   33.3959   50.3114 H   0  0  0  0  0  0  0  0  0  0  0  0
   40.8118   30.4558   46.3421 H   0  0  0  0  0  0  0  0  0  0  0  0
   41.5125   30.7665   43.9912 H   0  0  0  0  0  0  0  0  0  0  0  0
   38.2689   33.3188   43.2324 H   0  0  0  0  0  0  0  0  0  0  0  0
  1 13  1  0
  1  2  2  0
  3  2  1  0
  4  3  2  0
  5  6  2  0
  5  4  1  0
  6  1  1  0
  7  5  1  0
  8  7  2  0
  9  8  1  0
 10 11  1  0
 10  9  2  0
 11 12  2  0
 12  7  1  0
 13 14  1  0
 14 15  1  0
 16 14  1  0
 17 14  1  0
  2 18  1  0
  3 19  1  0
  8 20  1  0
  9 21  1  0
 11 22  1  0
M  ISO  5  18  14  19  14  20  14  21  14  22  14
M  END
>  <minimizedAffinity>  (1) 
-5.93028593

>  <minimizedRMSD>  (1) 
1.38726795

$$$$
