
     RDKit          3D

 32 34  0  0  0  0  0  0  0  0999 V2000
   36.5110   30.9180   48.8520 C   0  0  0  0  0  0  0  0  0  0  0  0
   37.5770   31.2310   47.8580 C   0  0  0  0  0  0  0  0  0  0  0  0
   37.7640   30.4730   46.7230 C   0  0  0  0  0  0  0  0  0  0  0  0
   38.7070   30.7010   45.7430 C   0  0  0  0  0  0  0  0  0  0  0  0
   39.5170   31.8080   45.9720 C   0  0  0  0  0  0  0  0  0  0  0  0
   39.4000   32.6170   47.0770 C   0  0  0  0  0  0  0  0  0  0  0  0
   40.2190   33.7050   47.2850 C   0  0  0  0  0  0  0  0  0  0  0  0
   40.1020   34.5070   48.3930 C   0  0  0  0  0  0  0  0  0  0  0  0
   39.1370   34.2390   49.3560 C   0  0  0  0  0  0  0  0  0  0  0  0
   38.3210   33.1440   49.1370 C   0  0  0  0  0  0  0  0  0  0  0  0
   38.4230   32.3330   48.0360 C   0  0  0  0  0  0  0  0  0  0  0  0
   36.3460   29.3950   48.9780 C   0  0  0  0  0  0  0  0  0  0  0  0
   34.3650   27.9310   49.0430 C   0  0  0  0  0  0  0  0  0  0  0  0
   35.0330   29.0530   48.4860 C   0  0  0  0  0  0  0  0  0  0  0  0
   34.3660   29.7520   47.4890 C   0  0  0  0  0  0  0  0  0  0  0  0
   33.1260   29.3380   47.0970 N   0  0  0  0  0  0  0  0  0  0  0  0
   32.5160   28.2720   47.6410 C   0  0  0  0  0  0  0  0  0  0  0  0
   33.1340   27.5840   48.6000 N   0  0  0  0  0  0  0  0  0  0  0  0
   35.5608   31.3618   48.5201 H   0  0  0  0  0  0  0  0  0  0  0  0
   36.7936   31.3344   49.8301 H   0  0  0  0  0  0  0  0  0  0  0  0
   37.1003   29.6065   46.5859 H   0  0  0  0  0  0  0  0  0  0  0  0
   38.8099   30.0608   44.8544 H   0  0  0  0  0  0  0  0  0  0  0  0
   40.2922   32.0489   45.2297 H   0  0  0  0  0  0  0  0  0  0  0  0
   40.9923   33.9389   46.5385 H   0  0  0  0  0  0  0  0  0  0  0  0
   40.7763   35.3669   48.5192 H   0  0  0  0  0  0  0  0  0  0  0  0
   39.0271   34.8686   50.2512 H   0  0  0  0  0  0  0  0  0  0  0  0
   37.5494   32.9114   49.8856 H   0  0  0  0  0  0  0  0  0  0  0  0
   37.1149   28.8842   48.3797 H   0  0  0  0  0  0  0  0  0  0  0  0
   36.4581   29.0811   50.0263 H   0  0  0  0  0  0  0  0  0  0  0  0
   34.8489   27.3424   49.8363 H   0  0  0  0  0  0  0  0  0  0  0  0
   34.8323   30.6308   47.0197 H   0  0  0  0  0  0  0  0  0  0  0  0
   31.5155   27.9699   47.2979 H   0  0  0  0  0  0  0  0  0  0  0  0
  1 12  1  0
  2 11  1  0
  2  1  1  0
  3  2  2  0
  4  5  2  0
  4  3  1  0
  5  6  1  0
  6  7  1  0
  6 11  2  0
  7  8  2  0
  8  9  1  0
 10  9  2  0
 11 10  1  0
 14 12  1  0
 14 13  2  0
 15 14  1  0
 16 15  2  0
 16 17  1  0
 17 18  2  0
 18 13  1  0
  1 19  1  0
  1 20  1  0
  3 21  1  0
  4 22  1  0
  5 23  1  0
  7 24  1  0
  8 25  1  0
  9 26  1  0
 10 27  1  0
 12 28  1  0
 12 29  1  0
 13 30  1  0
 15 31  1  0
 17 32  1  0
M  ISO  8  19   8  20   8  21  14  22  14  23  14  24  14  25  14  26  14
M  ISO  6  27  14  28   8  29   8  30  14  31  14  32  14
M  END
>  <minimizedAffinity>  (1) 
-5.75283337

>  <minimizedRMSD>  (1) 
3.86274076

$$$$
