
     RDKit          3D

 31 34  0  0  0  0  0  0  0  0999 V2000
   35.6380   30.0370   47.8400 C   0  0  0  0  0  0  0  0  0  0  0  0
   36.6210   30.6710   47.1030 C   0  0  0  0  0  0  0  0  0  0  0  0
   37.6580   31.0000   47.8970 N   0  0  0  0  0  0  0  0  0  0  0  0
   37.3710   30.5900   49.1540 C   0  0  0  0  0  0  0  0  0  0  0  0
   38.0720   30.6710   50.3450 C   0  0  0  0  0  0  0  0  0  0  0  0
   37.5100   30.1530   51.4890 C   0  0  0  0  0  0  0  0  0  0  0  0
   36.2700   29.5670   51.4320 C   0  0  0  0  0  0  0  0  0  0  0  0
   35.5200   29.4590   50.2550 C   0  0  0  0  0  0  0  0  0  0  0  0
   36.1230   29.9930   49.1270 C   0  0  0  0  0  0  0  0  0  0  0  0
   32.3520   29.8510   46.1780 C   0  0  0  0  0  0  0  0  0  0  0  0
   32.0610   28.4950   46.2770 C   0  0  0  0  0  0  0  0  0  0  0  0
   32.9960   27.6610   46.9110 C   0  0  0  0  0  0  0  0  0  0  0  0
   34.1480   28.2230   47.4030 N   0  0  0  0  0  0  0  0  0  0  0  0
   34.3920   29.5560   47.2850 C   0  0  0  0  0  0  0  0  0  0  0  0
   33.5050   30.3510   46.6810 N   0  0  0  0  0  0  0  0  0  0  0  0
   32.7960   26.2250   47.0710 C   0  0  0  0  0  0  0  0  0  0  0  0
   33.8420   25.3260   47.2130 C   0  0  0  0  0  0  0  0  0  0  0  0
   33.3450   24.0450   47.3430 C   0  0  0  0  0  0  0  0  0  0  0  0
   31.9920   24.1910   47.2790 N   0  0  0  0  0  0  0  0  0  0  0  0
   31.6860   25.4660   47.1200 N   0  0  0  0  0  0  0  0  0  0  0  0
   36.5644   30.8770   46.0239 H   0  0  0  0  0  0  0  0  0  0  0  0
   38.5193   31.4800   47.5992 H   0  0  0  0  0  0  0  0  0  0  0  0
   39.0650   31.1432   50.3763 H   0  0  0  0  0  0  0  0  0  0  0  0
   38.0518   30.2082   52.4447 H   0  0  0  0  0  0  0  0  0  0  0  0
   35.8429   29.1606   52.3607 H   0  0  0  0  0  0  0  0  0  0  0  0
   34.5272   28.9861   50.2274 H   0  0  0  0  0  0  0  0  0  0  0  0
   31.6366   30.5256   45.6850 H   0  0  0  0  0  0  0  0  0  0  0  0
   31.1242   28.0868   45.8699 H   0  0  0  0  0  0  0  0  0  0  0  0
   34.9089   25.5938   47.2209 H   0  0  0  0  0  0  0  0  0  0  0  0
   33.9150   23.1128   47.4701 H   0  0  0  0  0  0  0  0  0  0  0  0
   31.3098   23.4221   47.3448 H   0  0  0  0  0  0  0  0  0  0  0  0
  1  9  1  0
  2  1  2  0
  2  3  1  0
  3  4  1  0
  4  5  2  0
  5  6  1  0
  7  6  2  0
  8  7  1  0
  9  4  1  0
  9  8  2  0
 10 11  2  0
 10 15  1  0
 11 12  1  0
 12 16  1  0
 12 13  2  0
 14 13  1  0
 14  1  1  0
 15 14  2  0
 16 20  2  0
 16 17  1  0
 17 18  2  0
 19 18  1  0
 20 19  1  0
  2 21  1  0
  3 22  1  0
  5 23  1  0
  6 24  1  0
  7 25  1  0
  8 26  1  0
 10 27  1  0
 11 28  1  0
 17 29  1  0
 18 30  1  0
 19 31  1  0
M  ISO  8  21  14  22   9  23  14  24  14  25  14  26  14  27  14  28  14
M  ISO  3  29  14  30  14  31   9
M  END
>  <minimizedAffinity>  (1) 
-5.75298738

>  <minimizedRMSD>  (1) 
0.379858285

$$$$
