
     RDKit          3D

 25 27  0  0  0  0  0  0  0  0999 V2000
   36.9080   31.2950   48.7010 C   0  0  0  0  0  0  0  0  0  0  0  0
   37.0890   32.1700   49.7260 C   0  0  0  0  0  0  0  0  0  0  0  0
   38.1070   33.0990   49.6450 C   0  0  0  0  0  0  0  0  0  0  0  0
   38.9370   33.1740   48.5820 N   0  0  0  0  0  0  0  0  0  0  0  0
   38.7340   32.2910   47.5780 C   0  0  0  0  0  0  0  0  0  0  0  0
   37.7320   31.3620   47.6350 N   0  0  0  0  0  0  0  0  0  0  0  0
   35.9100   29.3080   49.6920 C   0  0  0  0  0  0  0  0  0  0  0  0
   35.8720   30.2740   48.6730 C   0  0  0  0  0  0  0  0  0  0  0  0
   34.8790   30.2080   47.7170 C   0  0  0  0  0  0  0  0  0  0  0  0
   33.9670   29.1980   47.8040 N   0  0  0  0  0  0  0  0  0  0  0  0
   34.0090   28.2700   48.7900 C   0  0  0  0  0  0  0  0  0  0  0  0
   34.9700   28.3210   49.7270 N   0  0  0  0  0  0  0  0  0  0  0  0
   39.5510   32.2370   46.3470 C   0  0  0  0  0  0  0  0  0  0  0  0
   40.0120   33.0650   45.3720 C   0  0  0  0  0  0  0  0  0  0  0  0
   40.7370   32.2950   44.5130 C   0  0  0  0  0  0  0  0  0  0  0  0
   40.7200   31.0220   44.9530 N   0  0  0  0  0  0  0  0  0  0  0  0
   39.9980   30.9790   46.0720 N   0  0  0  0  0  0  0  0  0  0  0  0
   36.4328   32.1380   50.6083 H   0  0  0  0  0  0  0  0  0  0  0  0
   38.2474   33.8045   50.4772 H   0  0  0  0  0  0  0  0  0  0  0  0
   36.6964   29.3477   50.4601 H   0  0  0  0  0  0  0  0  0  0  0  0
   34.8246   30.9500   46.9068 H   0  0  0  0  0  0  0  0  0  0  0  0
   33.2531   27.4716   48.8234 H   0  0  0  0  0  0  0  0  0  0  0  0
   39.8340   34.1476   45.2921 H   0  0  0  0  0  0  0  0  0  0  0  0
   41.2514   32.6537   43.6093 H   0  0  0  0  0  0  0  0  0  0  0  0
   41.1846   30.2207   44.5025 H   0  0  0  0  0  0  0  0  0  0  0  0
  1  2  2  0
  3  2  1  0
  4  3  2  0
  5  6  2  0
  5  4  1  0
  6  1  1  0
  7 12  2  0
  8  1  1  0
  8  7  1  0
  9 10  1  0
  9  8  2  0
 10 11  2  0
 11 12  1  0
 13  5  1  0
 14 13  1  0
 15 16  1  0
 15 14  2  0
 16 17  1  0
 17 13  2  0
  2 18  1  0
  3 19  1  0
  7 20  1  0
  9 21  1  0
 11 22  1  0
 14 23  1  0
 15 24  1  0
 16 25  1  0
M  ISO  8  18  14  19  14  20  14  21  14  22  14  23  14  24  14  25   9
M  END
>  <minimizedAffinity>  (1) 
-5.99053812

>  <minimizedRMSD>  (1) 
0.290063351

$$$$
