
     RDKit          3D

 42 45  0  0  1  0  0  0  0  0999 V2000
   31.4200   28.4380   46.4700 C   0  0  2  0  0  0  0  0  0  0  0  0
   34.7210   29.2970   48.7370 C   0  0  0  0  0  0  0  0  0  0  0  0
   33.9620   28.2290   49.2260 C   0  0  0  0  0  0  0  0  0  0  0  0
   32.8500   27.8840   48.5250 C   0  0  0  0  0  0  0  0  0  0  0  0
   32.5560   28.5770   47.4280 C   0  0  0  0  0  0  0  0  0  0  0  0
   33.8460   29.8380   47.2420 S   0  0  0  0  0  0  0  0  0  0  0  0
   37.2950   30.2280   51.2060 C   0  0  0  0  0  0  0  0  0  0  0  0
   38.2540   30.8950   50.3930 C   0  0  0  0  0  0  0  0  0  0  0  0
   38.0050   31.0080   49.0400 C   0  0  0  0  0  0  0  0  0  0  0  0
   36.8510   30.4790   48.5310 N   0  0  0  0  0  0  0  0  0  0  0  0
   35.9730   29.8590   49.3330 C   0  0  0  0  0  0  0  0  0  0  0  0
   36.1430   29.7040   50.6820 N   0  0  0  0  0  0  0  0  0  0  0  0
   31.0430   29.7670   45.9580 C   0  0  0  0  0  0  0  0  0  0  0  0
   30.3190   27.6480   47.1110 C   0  0  0  0  0  0  0  0  0  0  0  0
   29.1440   28.3920   47.5340 C   0  0  0  0  0  0  0  0  0  0  0  0
   28.3920   29.3370   46.8650 C   0  0  0  0  0  0  0  0  0  0  0  0
   27.2950   29.9500   47.4270 C   0  0  0  0  0  0  0  0  0  0  0  0
   26.9090   29.6340   48.6940 C   0  0  0  0  0  0  0  0  0  0  0  0
   27.6340   28.6940   49.3950 C   0  0  0  0  0  0  0  0  0  0  0  0
   27.2160   28.3900   50.6870 C   0  0  0  0  0  0  0  0  0  0  0  0
   27.8910   27.4630   51.4450 C   0  0  0  0  0  0  0  0  0  0  0  0
   28.9750   26.8450   50.9110 C   0  0  0  0  0  0  0  0  0  0  0  0
   29.3900   27.1370   49.6470 C   0  0  0  0  0  0  0  0  0  0  0  0
   28.7430   28.0690   48.8380 C   0  0  0  0  0  0  0  0  0  0  0  0
   31.7031   27.8596   45.5782 H   0  0  0  0  0  0  0  0  0  0  0  0
   34.2530   27.6906   50.1400 H   0  0  0  0  0  0  0  0  0  0  0  0
   32.2095   27.0532   48.8561 H   0  0  0  0  0  0  0  0  0  0  0  0
   37.4842   30.1306   52.2852 H   0  0  0  0  0  0  0  0  0  0  0  0
   39.1725   31.3109   50.8327 H   0  0  0  0  0  0  0  0  0  0  0  0
   38.7242   31.5161   48.3808 H   0  0  0  0  0  0  0  0  0  0  0  0
   30.8508   30.4445   46.8030 H   0  0  0  0  0  0  0  0  0  0  0  0
   31.8624   30.1695   45.3443 H   0  0  0  0  0  0  0  0  0  0  0  0
   30.1343   29.6793   45.3443 H   0  0  0  0  0  0  0  0  0  0  0  0
   29.9897   26.8873   46.3879 H   0  0  0  0  0  0  0  0  0  0  0  0
   30.7541   27.2431   48.0366 H   0  0  0  0  0  0  0  0  0  0  0  0
   28.6816   29.6116   45.8399 H   0  0  0  0  0  0  0  0  0  0  0  0
   26.7289   30.6969   46.8512 H   0  0  0  0  0  0  0  0  0  0  0  0
   26.0341   30.1202   49.1502 H   0  0  0  0  0  0  0  0  0  0  0  0
   26.3350   28.8975   51.1067 H   0  0  0  0  0  0  0  0  0  0  0  0
   27.5585   27.2262   52.4664 H   0  0  0  0  0  0  0  0  0  0  0  0
   29.5244   26.1002   51.5055 H   0  0  0  0  0  0  0  0  0  0  0  0
   30.2726   26.6154   49.2482 H   0  0  0  0  0  0  0  0  0  0  0  0
  1 14  1  0
  1  5  1  0
  2  3  2  0
  2 11  1  0
  4  3  1  0
  5  4  2  0
  6  5  1  0
  6  2  1  0
  8  7  2  0
  9  8  1  0
 10  9  2  0
 10 11  1  0
 11 12  2  0
 12  7  1  0
 13  1  1  0
 14 15  1  0
 15 24  2  0
 16 17  2  0
 16 15  1  0
 17 18  1  0
 18 19  2  0
 19 20  1  0
 20 21  2  0
 22 21  1  0
 23 22  2  0
 24 19  1  0
 24 23  1  0
  1 25  1  6
  3 26  1  0
  4 27  1  0
  7 28  1  0
  8 29  1  0
  9 30  1  0
 13 31  1  0
 13 32  1  0
 13 33  1  0
 14 34  1  0
 14 35  1  0
 16 36  1  0
 17 37  1  0
 18 38  1  0
 20 39  1  0
 21 40  1  0
 22 41  1  0
 23 42  1  0
M  ISO  8  25   8  26  14  27  14  28  14  29  14  30  14  31   8  32   8
M  ISO  8  33   8  34   8  35   8  36  14  37  14  38  14  39  14  40  14
M  ISO  2  41  14  42  14
M  END
>  <minimizedAffinity>  (1) 
-6.7571044

>  <minimizedRMSD>  (1) 
1.75920534

$$$$
