
     RDKit          3D

 22 24  0  0  0  0  0  0  0  0999 V2000
   36.9840   29.7280   51.6510 C   0  0  0  0  0  0  0  0  0  0  0  0
   37.8260   30.5180   50.8530 C   0  0  0  0  0  0  0  0  0  0  0  0
   37.2970   30.8970   49.6090 C   0  0  0  0  0  0  0  0  0  0  0  0
   36.0350   30.5060   49.2240 N   0  0  0  0  0  0  0  0  0  0  0  0
   35.2850   29.7330   50.0700 C   0  0  0  0  0  0  0  0  0  0  0  0
   35.7530   29.3500   51.2670 N   0  0  0  0  0  0  0  0  0  0  0  0
   38.0550   31.7230   48.6630 C   0  0  0  0  0  0  0  0  0  0  0  0
   38.7670   32.8570   48.8290 N   0  0  0  0  0  0  0  0  0  0  0  0
   39.2730   33.2400   47.6990 O   0  0  0  0  0  0  0  0  0  0  0  0
   38.9060   32.3730   46.7840 C   0  0  0  0  0  0  0  0  0  0  0  0
   38.1480   31.4180   47.3520 N   0  0  0  0  0  0  0  0  0  0  0  0
   39.3090   32.5000   45.3620 C   0  0  0  0  0  0  0  0  0  0  0  0
   40.1730   33.6200   44.9350 C   0  0  0  0  0  0  0  0  0  0  0  0
   40.7820   32.2340   45.0350 C   0  0  0  0  0  0  0  0  0  0  0  0
   37.3487   29.4032   52.6366 H   0  0  0  0  0  0  0  0  0  0  0  0
   38.8320   30.8197   51.1800 H   0  0  0  0  0  0  0  0  0  0  0  0
   34.2769   29.4195   49.7610 H   0  0  0  0  0  0  0  0  0  0  0  0
   38.3372   32.1197   45.0142 H   0  0  0  0  0  0  0  0  0  0  0  0
   40.4594   34.3956   45.6605 H   0  0  0  0  0  0  0  0  0  0  0  0
   40.1126   34.3776   44.1398 H   0  0  0  0  0  0  0  0  0  0  0  0
   41.0580   31.6815   44.1248 H   0  0  0  0  0  0  0  0  0  0  0  0
   41.6382   31.7837   45.5586 H   0  0  0  0  0  0  0  0  0  0  0  0
  2  1  2  0
  3  2  1  0
  4  3  2  0
  4  5  1  0
  5  6  2  0
  6  1  1  0
  7  8  2  0
  7  3  1  0
  9  8  1  0
 10 11  2  0
 10  9  1  0
 11  7  1  0
 12 10  1  0
 13 14  1  0
 13 12  1  0
 14 12  1  0
  1 15  1  0
  2 16  1  0
  5 17  1  0
 12 18  1  0
 13 19  1  0
 13 20  1  0
 14 21  1  0
 14 22  1  0
M  ISO  8  15  14  16  14  17  14  18  13  19  13  20  13  21  13  22  13
M  END
>  <minimizedAffinity>  (1) 
-5.1330533

>  <minimizedRMSD>  (1) 
0.958656609

$$$$
