
     RDKit          3D

 21 22  0  0  0  0  0  0  0  0999 V2000
   37.5950   30.4070   49.0780 C   0  0  0  0  0  0  0  0  0  0  0  0
   37.8360   31.4500   49.9990 C   0  0  0  0  0  0  0  0  0  0  0  0
   38.5150   32.5870   49.5370 C   0  0  0  0  0  0  0  0  0  0  0  0
   38.9030   32.6220   48.2330 N   0  0  0  0  0  0  0  0  0  0  0  0
   38.6440   31.5960   47.3990 C   0  0  0  0  0  0  0  0  0  0  0  0
   38.0050   30.5030   47.7930 N   0  0  0  0  0  0  0  0  0  0  0  0
   39.1140   31.7390   45.9890 C   0  0  0  0  0  0  0  0  0  0  0  0
   40.5370   31.2410   45.6580 C   0  0  0  0  0  0  0  0  0  0  0  0
   40.2130   32.6860   45.6690 C   0  0  0  0  0  0  0  0  0  0  0  0
   36.9310   29.3010   49.5390 O   0  0  0  0  0  0  0  0  0  0  0  0
   35.6670   29.2950   50.1280 C   0  0  0  0  0  0  0  0  0  0  0  0
   35.6920   29.2780   51.5100 F   0  0  0  0  0  0  0  0  0  0  0  0
   34.8540   30.3080   49.6860 F   0  0  0  0  0  0  0  0  0  0  0  0
   35.0450   28.1140   49.7240 F   0  0  0  0  0  0  0  0  0  0  0  0
   37.5022   31.3733   51.0443 H   0  0  0  0  0  0  0  0  0  0  0  0
   38.7285   33.4292   50.2116 H   0  0  0  0  0  0  0  0  0  0  0  0
   38.0981   31.5738   45.6009 H   0  0  0  0  0  0  0  0  0  0  0  0
   40.7356   30.7257   44.7067 H   0  0  0  0  0  0  0  0  0  0  0  0
   41.2794   30.5993   46.1551 H   0  0  0  0  0  0  0  0  0  0  0  0
   40.6239   33.3279   46.4621 H   0  0  0  0  0  0  0  0  0  0  0  0
   40.3293   33.4981   44.9362 H   0  0  0  0  0  0  0  0  0  0  0  0
  1 10  1  0
  1  2  2  0
  3  2  1  0
  4  3  2  0
  5  6  2  0
  5  4  1  0
  6  1  1  0
  7  5  1  0
  8  9  1  0
  8  7  1  0
  9  7  1  0
 10 11  1  0
 11 12  1  0
 13 11  1  0
 14 11  1  0
  2 15  1  0
  3 16  1  0
  7 17  1  0
  8 18  1  0
  8 19  1  0
  9 20  1  0
  9 21  1  0
M  ISO  7  15  14  16  14  17  13  18  13  19  13  20  13  21  13
M  END
>  <minimizedAffinity>  (1) 
-5.29242659

>  <minimizedRMSD>  (1) 
1.07561588

$$$$
