
     RDKit          3D

 26 27  0  0  0  0  0  0  0  0999 V2000
   37.9780   30.5570   47.7620 C   0  0  0  0  0  0  0  0  0  0  0  0
   37.2820   30.1540   51.4890 C   0  0  0  0  0  0  0  0  0  0  0  0
   37.9330   30.5590   50.3100 C   0  0  0  0  0  0  0  0  0  0  0  0
   37.3970   30.2000   49.0850 C   0  0  0  0  0  0  0  0  0  0  0  0
   36.2530   29.4660   49.0860 N   0  0  0  0  0  0  0  0  0  0  0  0
   35.6380   29.0850   50.2070 C   0  0  0  0  0  0  0  0  0  0  0  0
   36.1560   29.4310   51.4000 N   0  0  0  0  0  0  0  0  0  0  0  0
   38.6620   31.9070   47.8180 C   0  0  0  0  0  0  0  0  0  0  0  0
   38.9130   32.3640   46.4190 C   0  0  0  0  0  0  0  0  0  0  0  0
   37.9610   32.1220   45.4380 C   0  0  0  0  0  0  0  0  0  0  0  0
   38.0900   32.5000   44.1190 C   0  0  0  0  0  0  0  0  0  0  0  0
   39.2610   33.1700   43.7540 C   0  0  0  0  0  0  0  0  0  0  0  0
   40.2440   33.4320   44.7060 C   0  0  0  0  0  0  0  0  0  0  0  0
   40.0760   33.0350   46.0330 C   0  0  0  0  0  0  0  0  0  0  0  0
   37.1732   30.5920   47.0130 H   0  0  0  0  0  0  0  0  0  0  0  0
   38.7243   29.7962   47.4894 H   0  0  0  0  0  0  0  0  0  0  0  0
   37.6916   30.4271   52.4727 H   0  0  0  0  0  0  0  0  0  0  0  0
   38.8569   31.1538   50.3605 H   0  0  0  0  0  0  0  0  0  0  0  0
   34.7131   28.4916   50.1565 H   0  0  0  0  0  0  0  0  0  0  0  0
   38.0148   32.6307   48.3352 H   0  0  0  0  0  0  0  0  0  0  0  0
   39.6119   31.8280   48.3670 H   0  0  0  0  0  0  0  0  0  0  0  0
   37.0426   31.5934   45.7331 H   0  0  0  0  0  0  0  0  0  0  0  0
   37.3023   32.2829   43.3825 H   0  0  0  0  0  0  0  0  0  0  0  0
   39.4070   33.4914   42.7122 H   0  0  0  0  0  0  0  0  0  0  0  0
   41.1631   33.9579   44.4080 H   0  0  0  0  0  0  0  0  0  0  0  0
   40.8590   33.2503   46.7750 H   0  0  0  0  0  0  0  0  0  0  0  0
  1  8  1  0
  1  4  1  0
  3  2  2  0
  4  5  2  0
  4  3  1  0
  5  6  1  0
  6  7  2  0
  7  2  1  0
  9  8  1  0
 10  9  2  0
 11 10  1  0
 12 11  2  0
 12 13  1  0
 13 14  2  0
 14  9  1  0
  1 15  1  0
  1 16  1  0
  2 17  1  0
  3 18  1  0
  6 19  1  0
  8 20  1  0
  8 21  1  0
 10 22  1  0
 11 23  1  0
 12 24  1  0
 13 25  1  0
 14 26  1  0
M  ISO  8  15   8  16   8  17  14  18  14  19  14  20   8  21   8  22  14
M  ISO  4  23  14  24  14  25  14  26  14
M  END
>  <minimizedAffinity>  (1) 
-5.29522181

>  <minimizedRMSD>  (1) 
0.807129264

$$$$
