
     RDKit          3D

 27 29  0  0  1  0  0  0  0  0999 V2000
   36.9880   29.6820   49.7840 C   0  0  0  0  0  0  0  0  0  0  0  0
   38.6050   32.9230   49.1040 C   0  0  0  0  0  0  0  0  0  0  0  0
   39.0630   32.7850   47.7950 C   0  0  0  0  0  0  0  0  0  0  0  0
   38.8070   31.5570   47.1440 C   0  0  0  0  0  0  0  0  0  0  0  0
   38.1330   30.5920   47.8390 N   0  0  0  0  0  0  0  0  0  0  0  0
   37.7090   30.7750   49.1070 C   0  0  0  0  0  0  0  0  0  0  0  0
   37.9550   31.9440   49.7190 N   0  0  0  0  0  0  0  0  0  0  0  0
   35.5340   29.7770   49.3600 C   0  0  2  0  0  0  0  0  0  0  0  0
   34.4630   29.3730   50.2970 C   0  0  0  0  0  0  0  0  0  0  0  0
   34.8470   28.4420   49.2030 C   0  0  1  0  0  0  0  0  0  0  0  0
   33.8140   28.1960   48.1700 C   0  0  0  0  0  0  0  0  0  0  0  0
   32.5740   27.4310   48.3920 C   0  0  0  0  0  0  0  0  0  0  0  0
   33.7050   26.7190   47.7470 C   0  0  0  0  0  0  0  0  0  0  0  0
   37.4063   28.7104   49.4824 H   0  0  0  0  0  0  0  0  0  0  0  0
   37.0837   29.7674   50.8765 H   0  0  0  0  0  0  0  0  0  0  0  0
   38.7869   33.8663   49.6399 H   0  0  0  0  0  0  0  0  0  0  0  0
   39.6022   33.5993   47.2888 H   0  0  0  0  0  0  0  0  0  0  0  0
   39.1398   31.3831   46.1101 H   0  0  0  0  0  0  0  0  0  0  0  0
   35.6982   30.6836   48.7590 H   0  0  0  0  0  0  0  0  0  0  0  0
   34.7132   29.1249   51.3390 H   0  0  0  0  0  0  0  0  0  0  0  0
   33.5164   29.8257   50.6271 H   0  0  0  0  0  0  0  0  0  0  0  0
   35.2289   27.4162   49.0943 H   0  0  0  0  0  0  0  0  0  0  0  0
   33.9772   29.1928   47.7344 H   0  0  0  0  0  0  0  0  0  0  0  0
   32.2785   27.1630   49.4171 H   0  0  0  0  0  0  0  0  0  0  0  0
   31.5208   27.5923   48.1185 H   0  0  0  0  0  0  0  0  0  0  0  0
   33.6555   26.4493   46.6817 H   0  0  0  0  0  0  0  0  0  0  0  0
   34.2730   25.7984   47.9469 H   0  0  0  0  0  0  0  0  0  0  0  0
  2  7  2  0
  3  2  1  0
  4  3  2  0
  4  5  1  0
  5  6  2  0
  6  7  1  0
  6  1  1  0
  8  1  1  0
  8  9  1  0
 10  8  1  0
 10  9  1  0
 11 12  1  0
 11 10  1  0
 13 11  1  0
 13 12  1  0
  1 14  1  0
  1 15  1  0
  2 16  1  0
  3 17  1  0
  4 18  1  0
  8 19  1  6
  9 20  1  0
  9 21  1  0
 10 22  1  1
 11 23  1  0
 12 24  1  0
 12 25  1  0
 13 26  1  0
 13 27  1  0
M  ISO  8  14   8  15   8  16  14  17  14  18  14  19  13  20  13  21  13
M  ISO  6  22  13  23  13  24  13  25  13  26  13  27  13
M  END
>  <minimizedAffinity>  (1) 
-4.80413532

>  <minimizedRMSD>  (1) 
0.90399617

$$$$
