
     RDKit          3D

 28 29  0  0  1  0  0  0  0  0999 V2000
   37.1490   30.3880   49.4220 C   0  0  0  0  0  0  0  0  0  0  0  0
   36.9630   31.6420   50.0780 C   0  0  0  0  0  0  0  0  0  0  0  0
   37.5920   32.7720   49.5590 C   0  0  0  0  0  0  0  0  0  0  0  0
   38.3570   32.6200   48.4440 N   0  0  0  0  0  0  0  0  0  0  0  0
   38.5050   31.4260   47.8600 C   0  0  0  0  0  0  0  0  0  0  0  0
   37.9280   30.3250   48.3160 N   0  0  0  0  0  0  0  0  0  0  0  0
   39.3620   31.3580   46.6430 C   0  0  2  0  0  0  0  0  0  0  0  0
   39.6680   32.7560   46.1850 C   0  0  0  0  0  0  0  0  0  0  0  0
   40.5380   32.7320   44.9820 C   0  0  0  0  0  0  0  0  0  0  0  0
   40.4780   31.5830   44.0800 C   0  0  0  0  0  0  0  0  0  0  0  0
   39.5550   30.4670   44.4110 C   0  0  0  0  0  0  0  0  0  0  0  0
   38.5410   30.7890   45.4780 C   0  0  0  0  0  0  0  0  0  0  0  0
   36.5280   29.2950   49.9420 O   0  0  0  0  0  0  0  0  0  0  0  0
   35.1890   29.2480   50.3480 C   0  0  0  0  0  0  0  0  0  0  0  0
   35.0240   29.2220   51.7180 F   0  0  0  0  0  0  0  0  0  0  0  0
   34.4050   30.2320   49.8080 F   0  0  0  0  0  0  0  0  0  0  0  0
   34.6810   28.0340   49.8690 F   0  0  0  0  0  0  0  0  0  0  0  0
   36.3341   31.7151   50.9775 H   0  0  0  0  0  0  0  0  0  0  0  0
   37.4738   33.7562   50.0358 H   0  0  0  0  0  0  0  0  0  0  0  0
   40.2542   30.7623   46.8863 H   0  0  0  0  0  0  0  0  0  0  0  0
   38.7270   33.2707   45.9407 H   0  0  0  0  0  0  0  0  0  0  0  0
   40.1931   33.2873   46.9925 H   0  0  0  0  0  0  0  0  0  0  0  0
   41.2199   33.5692   44.7718 H   0  0  0  0  0  0  0  0  0  0  0  0
   41.1030   31.5456   43.1755 H   0  0  0  0  0  0  0  0  0  0  0  0
   39.0131   30.1866   43.4957 H   0  0  0  0  0  0  0  0  0  0  0  0
   40.1790   29.6530   44.8085 H   0  0  0  0  0  0  0  0  0  0  0  0
   37.8185   31.5340   45.1133 H   0  0  0  0  0  0  0  0  0  0  0  0
   37.9572   29.9053   45.7751 H   0  0  0  0  0  0  0  0  0  0  0  0
  1 13  1  0
  1  2  2  0
  3  2  1  0
  4  3  2  0
  5  6  2  0
  5  4  1  0
  6  1  1  0
  7  5  1  0
  8  7  1  0
  9  8  1  0
 10 11  1  0
 10  9  2  0
 11 12  1  0
 12  7  1  0
 13 14  1  0
 14 15  1  0
 16 14  1  0
 17 14  1  0
  2 18  1  0
  3 19  1  0
  7 20  1  1
  8 21  1  0
  8 22  1  0
  9 23  1  0
 10 24  1  0
 11 25  1  0
 11 26  1  0
 12 27  1  0
 12 28  1  0
M  ISO  8  18  14  19  14  20  13  21  13  22  13  23  13  24  13  25  13
M  ISO  3  26  13  27  13  28  13
M  END
>  <minimizedAffinity>  (1) 
-6.23201418

>  <minimizedRMSD>  (1) 
1.63648617

$$$$
