
     RDKit          3D

 29 30  0  0  0  0  0  0  0  0999 V2000
   36.7110   29.9400   49.6730 C   0  0  0  0  0  0  0  0  0  0  0  0
   37.8920   30.3000   48.9960 C   0  0  0  0  0  0  0  0  0  0  0  0
   37.7810   30.6810   47.6510 C   0  0  0  0  0  0  0  0  0  0  0  0
   36.5390   30.6800   47.0730 N   0  0  0  0  0  0  0  0  0  0  0  0
   35.4410   30.3240   47.7740 C   0  0  0  0  0  0  0  0  0  0  0  0
   35.5180   29.9600   49.0500 N   0  0  0  0  0  0  0  0  0  0  0  0
   39.0030   31.0690   46.8980 C   0  0  0  0  0  0  0  0  0  0  0  0
   38.9010   30.4820   45.5260 C   0  0  0  0  0  0  0  0  0  0  0  0
   39.9330   30.9860   44.5670 C   0  0  0  0  0  0  0  0  0  0  0  0
   40.8270   32.0460   45.1430 C   0  0  0  0  0  0  0  0  0  0  0  0
   40.1050   33.1050   45.9220 C   0  0  0  0  0  0  0  0  0  0  0  0
   39.1160   32.5630   46.9100 C   0  0  0  0  0  0  0  0  0  0  0  0
   36.8240   29.5330   51.1120 C   0  0  0  0  0  0  0  0  0  0  0  0
   35.5660   29.1970   51.6010 F   0  0  0  0  0  0  0  0  0  0  0  0
   37.7370   28.5280   51.2080 F   0  0  0  0  0  0  0  0  0  0  0  0
   37.2440   30.6510   51.8260 F   0  0  0  0  0  0  0  0  0  0  0  0
   38.8674   30.2830   49.5043 H   0  0  0  0  0  0  0  0  0  0  0  0
   34.4597   30.3355   47.2772 H   0  0  0  0  0  0  0  0  0  0  0  0
   39.9253   30.6798   47.3540 H   0  0  0  0  0  0  0  0  0  0  0  0
   39.0100   29.3905   45.6084 H   0  0  0  0  0  0  0  0  0  0  0  0
   37.9219   30.7825   45.1247 H   0  0  0  0  0  0  0  0  0  0  0  0
   39.4171   31.4056   43.6908 H   0  0  0  0  0  0  0  0  0  0  0  0
   40.5747   30.1311   44.3073 H   0  0  0  0  0  0  0  0  0  0  0  0
   41.5515   31.5593   45.8125 H   0  0  0  0  0  0  0  0  0  0  0  0
   41.3053   32.5520   44.2914 H   0  0  0  0  0  0  0  0  0  0  0  0
   40.8501   33.7013   46.4691 H   0  0  0  0  0  0  0  0  0  0  0  0
   39.5360   33.7041   45.1958 H   0  0  0  0  0  0  0  0  0  0  0  0
   38.1277   32.9870   46.6790 H   0  0  0  0  0  0  0  0  0  0  0  0
   39.4744   32.8483   47.9101 H   0  0  0  0  0  0  0  0  0  0  0  0
  1 13  1  0
  2  1  2  0
  3  2  1  0
  4  3  2  0
  4  5  1  0
  5  6  2  0
  6  1  1  0
  7 12  1  0
  7  3  1  0
  8  7  1  0
  9 10  1  0
  9  8  1  0
 10 11  1  0
 11 12  1  0
 13 15  1  0
 13 14  1  0
 13 16  1  0
  2 17  1  0
  5 18  1  0
  7 19  1  0
  8 20  1  0
  8 21  1  0
  9 22  1  0
  9 23  1  0
 10 24  1  0
 10 25  1  0
 11 26  1  0
 11 27  1  0
 12 28  1  0
 12 29  1  0
M  ISO  8  17  14  18  14  19  13  20  13  21  13  22  13  23  13  24  13
M  ISO  5  25  13  26  13  27  13  28  13  29  13
M  END
>  <minimizedAffinity>  (1) 
-6.26563358

>  <minimizedRMSD>  (1) 
2.60236073

$$$$
