
     RDKit          3D

 53 56  0  0  0  0  0  0  0  0999 V2000
   37.3410   31.1170   46.3370 C   0  0  0  0  0  0  0  0  0  0  0  0
   36.3550   30.2600   46.8390 C   0  0  0  0  0  0  0  0  0  0  0  0
   36.0030   30.1650   48.1490 C   0  0  0  0  0  0  0  0  0  0  0  0
   36.6280   30.9440   49.0820 C   0  0  0  0  0  0  0  0  0  0  0  0
   37.5900   31.7940   48.6620 C   0  0  0  0  0  0  0  0  0  0  0  0
   38.2230   32.5830   49.6080 C   0  0  0  0  0  0  0  0  0  0  0  0
   39.2020   33.4640   49.2650 C   0  0  0  0  0  0  0  0  0  0  0  0
   39.5590   33.5570   47.9280 C   0  0  0  0  0  0  0  0  0  0  0  0
   38.9110   32.7620   47.0240 C   0  0  0  0  0  0  0  0  0  0  0  0
   37.9410   31.8830   47.3290 C   0  0  0  0  0  0  0  0  0  0  0  0
   37.6110   32.6870   43.1070 C   0  0  0  0  0  0  0  0  0  0  0  0
   38.1860   31.7420   42.2640 C   0  0  0  0  0  0  0  0  0  0  0  0
   38.4970   30.5210   42.8030 C   0  0  0  0  0  0  0  0  0  0  0  0
   38.2140   30.3690   44.0890 N   0  0  0  0  0  0  0  0  0  0  0  0
   37.6850   31.1870   44.9400 C   0  0  0  0  0  0  0  0  0  0  0  0
   37.3940   32.3600   44.3890 N   0  0  0  0  0  0  0  0  0  0  0  0
   39.0740   29.4540   42.0820 N   0  0  0  0  0  0  0  0  0  0  0  0
   40.2720   28.8230   42.4840 C   0  0  0  0  0  0  0  0  0  0  0  0
   41.2300   29.5600   42.9590 N   0  0  0  0  0  0  0  0  0  0  0  0
   40.4290   27.4170   42.3780 N   0  0  0  0  0  0  0  0  0  0  0  0
   42.1320   29.2600   43.3030 H   0  0  0  0  0  0  0  0  0  0  0  0
   38.4650   32.0150   40.8300 C   0  0  0  0  0  0  0  0  0  0  0  0
   37.2630   31.5180   40.0130 C   0  0  0  0  0  0  0  0  0  0  0  0
   36.1220   32.4870   40.0610 C   0  0  0  0  0  0  0  0  0  0  0  0
   36.5320   33.8890   39.6690 C   0  0  0  0  0  0  0  0  0  0  0  0
   37.9840   33.8110   39.2510 C   0  0  0  0  0  0  0  0  0  0  0  0
   38.7710   33.4480   40.5140 C   0  0  0  0  0  0  0  0  0  0  0  0
   36.2550   30.8330   50.4070 O   0  0  0  0  0  0  0  0  0  0  0  0
   36.6700   29.7280   51.1810 C   0  0  0  0  0  0  0  0  0  0  0  0
   37.4850   28.8410   50.5460 F   0  0  0  0  0  0  0  0  0  0  0  0
   37.4190   30.2280   52.2450 F   0  0  0  0  0  0  0  0  0  0  0  0
   35.5120   29.1060   51.6310 F   0  0  0  0  0  0  0  0  0  0  0  0
   35.8259   29.6160   46.1211 H   0  0  0  0  0  0  0  0  0  0  0  0
   35.2157   29.4616   48.4576 H   0  0  0  0  0  0  0  0  0  0  0  0
   37.9269   32.4953   50.6638 H   0  0  0  0  0  0  0  0  0  0  0  0
   39.6962   34.0849   50.0267 H   0  0  0  0  0  0  0  0  0  0  0  0
   40.3452   34.2541   47.6026 H   0  0  0  0  0  0  0  0  0  0  0  0
   39.2056   32.8482   45.9677 H   0  0  0  0  0  0  0  0  0  0  0  0
   37.3394   33.6837   42.7291 H   0  0  0  0  0  0  0  0  0  0  0  0
   38.6027   29.1221   41.2284 H   0  0  0  0  0  0  0  0  0  0  0  0
   41.3095   26.9732   42.6758 H   0  0  0  0  0  0  0  0  0  0  0  0
   39.6625   26.8400   42.0032 H   0  0  0  0  0  0  0  0  0  0  0  0
   39.3858   31.4757   40.5630 H   0  0  0  0  0  0  0  0  0  0  0  0
   36.9286   30.5530   40.4217 H   0  0  0  0  0  0  0  0  0  0  0  0
   37.5803   31.4135   38.9650 H   0  0  0  0  0  0  0  0  0  0  0  0
   35.3384   32.1430   39.3698 H   0  0  0  0  0  0  0  0  0  0  0  0
   35.7601   32.5240   41.0991 H   0  0  0  0  0  0  0  0  0  0  0  0
   35.9141   34.2455   38.8316 H   0  0  0  0  0  0  0  0  0  0  0  0
   36.3958   34.5915   40.5044 H   0  0  0  0  0  0  0  0  0  0  0  0
   38.1186   33.0365   38.4816 H   0  0  0  0  0  0  0  0  0  0  0  0
   38.3301   34.7627   38.8216 H   0  0  0  0  0  0  0  0  0  0  0  0
   39.8492   33.5726   40.3351 H   0  0  0  0  0  0  0  0  0  0  0  0
   38.4879   34.1019   41.3521 H   0  0  0  0  0  0  0  0  0  0  0  0
  1  2  2  0
  1 10  1  0
  2  3  1  0
  3  4  2  0
  4 28  1  0
  5  4  1  0
  5  6  2  0
  7  6  1  0
  8  7  2  0
  9 10  2  0
  9  8  1  0
 10  5  1  0
 11 16  2  0
 12 13  2  0
 12 11  1  0
 13 14  1  0
 14 15  2  0
 15  1  1  0
 16 15  1  0
 17 18  1  0
 17 13  1  0
 18 19  2  0
 19 21  1  0
 20 18  1  0
 22 12  1  0
 23 24  1  0
 23 22  1  0
 25 24  1  0
 26 25  1  0
 26 27  1  0
 27 22  1  0
 28 29  1  0
 29 32  1  0
 29 31  1  0
 30 29  1  0
  2 33  1  0
  3 34  1  0
  6 35  1  0
  7 36  1  0
  8 37  1  0
  9 38  1  0
 11 39  1  0
 17 40  1  0
 20 41  1  0
 20 42  1  0
 22 43  1  0
 23 44  1  0
 23 45  1  0
 24 46  1  0
 24 47  1  0
 25 48  1  0
 25 49  1  0
 26 50  1  0
 26 51  1  0
 27 52  1  0
 27 53  1  0
M  END
>  <minimizedAffinity>  (1) 
-7.74643517

>  <minimizedRMSD>  (1) 
1.12853515

$$$$
