
     RDKit          3D

 35 38  0  0  0  0  0  0  0  0999 V2000
   38.4260   31.6160   48.1220 C   0  0  0  0  0  0  0  0  0  0  0  0
   39.0820   32.8030   48.1620 N   0  0  0  0  0  0  0  0  0  0  0  0
   39.5440   33.0890   46.9770 O   0  0  0  0  0  0  0  0  0  0  0  0
   39.2120   32.1290   46.1660 C   0  0  0  0  0  0  0  0  0  0  0  0
   38.5020   31.1620   46.8310 N   0  0  0  0  0  0  0  0  0  0  0  0
   39.5000   32.0080   44.7710 N   0  0  0  0  0  0  0  0  0  0  0  0
   38.9660   32.8450   43.8780 N   0  0  0  0  0  0  0  0  0  0  0  0
   39.3990   32.5110   42.6370 C   0  0  0  0  0  0  0  0  0  0  0  0
   40.2450   31.4000   42.8280 C   0  0  0  0  0  0  0  0  0  0  0  0
   40.2930   31.1030   44.1720 C   0  0  0  0  0  0  0  0  0  0  0  0
   37.3400   30.1600   51.4070 C   0  0  0  0  0  0  0  0  0  0  0  0
   38.0580   30.9360   50.4940 C   0  0  0  0  0  0  0  0  0  0  0  0
   37.7350   30.8460   49.1460 C   0  0  0  0  0  0  0  0  0  0  0  0
   36.7310   30.0040   48.7630 N   0  0  0  0  0  0  0  0  0  0  0  0
   36.0560   29.2660   49.6660 C   0  0  0  0  0  0  0  0  0  0  0  0
   36.3540   29.3380   50.9980 N   0  0  0  0  0  0  0  0  0  0  0  0
   34.9780   28.3790   49.1460 C   0  0  0  0  0  0  0  0  0  0  0  0
   33.6420   28.6910   49.7810 C   0  0  0  0  0  0  0  0  0  0  0  0
   32.6860   28.0370   48.7990 C   0  0  0  0  0  0  0  0  0  0  0  0
   33.3710   28.0470   47.4670 C   0  0  0  0  0  0  0  0  0  0  0  0
   34.6960   28.7380   47.7000 C   0  0  0  0  0  0  0  0  0  0  0  0
   39.1447   33.0016   41.6859 H   0  0  0  0  0  0  0  0  0  0  0  0
   40.7795   30.8586   42.0335 H   0  0  0  0  0  0  0  0  0  0  0  0
   40.8615   30.2942   44.6544 H   0  0  0  0  0  0  0  0  0  0  0  0
   37.5837   30.2211   52.4779 H   0  0  0  0  0  0  0  0  0  0  0  0
   38.8623   31.6043   50.8353 H   0  0  0  0  0  0  0  0  0  0  0  0
   35.3209   27.3499   49.3288 H   0  0  0  0  0  0  0  0  0  0  0  0
   33.5582   28.2444   50.7828 H   0  0  0  0  0  0  0  0  0  0  0  0
   33.4590   29.7637   49.9415 H   0  0  0  0  0  0  0  0  0  0  0  0
   32.4719   27.0033   49.1084 H   0  0  0  0  0  0  0  0  0  0  0  0
   31.7282   28.5763   48.7575 H   0  0  0  0  0  0  0  0  0  0  0  0
   32.7718   28.6026   46.7306 H   0  0  0  0  0  0  0  0  0  0  0  0
   33.5051   27.0303   47.0691 H   0  0  0  0  0  0  0  0  0  0  0  0
   35.4758   28.3468   47.0300 H   0  0  0  0  0  0  0  0  0  0  0  0
   34.6766   29.8201   47.5035 H   0  0  0  0  0  0  0  0  0  0  0  0
  1  2  2  0
  1 13  1  0
  3  2  1  0
  4  5  2  0
  4  3  1  0
  5  1  1  0
  6  4  1  0
  7  6  1  0
  8  9  1  0
  8  7  2  0
  9 10  2  0
 10  6  1  0
 12 11  2  0
 13 12  1  0
 14 13  2  0
 14 15  1  0
 15 16  2  0
 16 11  1  0
 17 15  1  0
 17 18  1  0
 19 18  1  0
 20 21  1  0
 20 19  1  0
 21 17  1  0
  8 22  1  0
  9 23  1  0
 10 24  1  0
 11 25  1  0
 12 26  1  0
 17 27  1  0
 18 28  1  0
 18 29  1  0
 19 30  1  0
 19 31  1  0
 20 32  1  0
 20 33  1  0
 21 34  1  0
 21 35  1  0
M  ISO  8  22  14  23  14  24  14  25  14  26  14  27  13  28  13  29  13
M  ISO  6  30  13  31  13  32  13  33  13  34  13  35  13
M  END
>  <minimizedAffinity>  (1) 
-6.77503347

>  <minimizedRMSD>  (1) 
0.28898412

$$$$
