
     RDKit          3D

 25 27  0  0  0  0  0  0  0  0999 V2000
   38.3820   31.4870   48.2080 C   0  0  0  0  0  0  0  0  0  0  0  0
   39.0150   32.6720   48.1930 N   0  0  0  0  0  0  0  0  0  0  0  0
   39.4530   32.9410   47.0060 O   0  0  0  0  0  0  0  0  0  0  0  0
   39.1240   31.9550   46.2210 C   0  0  0  0  0  0  0  0  0  0  0  0
   38.4530   31.0240   46.9280 N   0  0  0  0  0  0  0  0  0  0  0  0
   37.3320   30.1290   51.5390 C   0  0  0  0  0  0  0  0  0  0  0  0
   38.0110   30.8990   50.5990 C   0  0  0  0  0  0  0  0  0  0  0  0
   37.7160   30.7210   49.2520 C   0  0  0  0  0  0  0  0  0  0  0  0
   36.7750   29.8020   48.9020 N   0  0  0  0  0  0  0  0  0  0  0  0
   36.1290   29.0660   49.8430 C   0  0  0  0  0  0  0  0  0  0  0  0
   36.3980   29.2190   51.1550 N   0  0  0  0  0  0  0  0  0  0  0  0
   39.4280   31.8630   44.7970 C   0  0  0  0  0  0  0  0  0  0  0  0
   40.0810   30.7590   44.2920 C   0  0  0  0  0  0  0  0  0  0  0  0
   40.4170   30.5690   42.9670 C   0  0  0  0  0  0  0  0  0  0  0  0
   40.0490   31.6010   42.1090 C   0  0  0  0  0  0  0  0  0  0  0  0
   39.3940   32.7230   42.5770 C   0  0  0  0  0  0  0  0  0  0  0  0
   39.0760   32.8680   43.9230 C   0  0  0  0  0  0  0  0  0  0  0  0
   37.5545   30.2588   52.6084 H   0  0  0  0  0  0  0  0  0  0  0  0
   38.7660   31.6337   50.9156 H   0  0  0  0  0  0  0  0  0  0  0  0
   35.3726   28.3317   49.5289 H   0  0  0  0  0  0  0  0  0  0  0  0
   40.3565   29.9656   45.0023 H   0  0  0  0  0  0  0  0  0  0  0  0
   40.9382   29.6667   42.6145 H   0  0  0  0  0  0  0  0  0  0  0  0
   40.2844   31.5215   41.0374 H   0  0  0  0  0  0  0  0  0  0  0  0
   39.1179   33.5191   41.8699 H   0  0  0  0  0  0  0  0  0  0  0  0
   38.5540   33.7670   44.2825 H   0  0  0  0  0  0  0  0  0  0  0  0
  1  8  1  0
  2  1  2  0
  3  2  1  0
  4  5  2  0
  4  3  1  0
  5  1  1  0
  7  6  2  0
  8  7  1  0
  9  8  2  0
  9 10  1  0
 10 11  2  0
 11  6  1  0
 12  4  1  0
 13 12  2  0
 14 13  1  0
 15 16  1  0
 15 14  2  0
 16 17  2  0
 17 12  1  0
  6 18  1  0
  7 19  1  0
 10 20  1  0
 13 21  1  0
 14 22  1  0
 15 23  1  0
 16 24  1  0
 17 25  1  0
M  ISO  8  18  14  19  14  20  14  21  14  22  14  23  14  24  14  25  14
M  END
>  <minimizedAffinity>  (1) 
-5.60084438

>  <minimizedRMSD>  (1) 
0.482350469

$$$$
