
     RDKit          3D

 27 28  0  0  0  0  0  0  0  0999 V2000
   36.8710   29.6380   49.1150 C   0  0  0  0  0  0  0  0  0  0  0  0
   37.7760   30.4390   48.3480 C   0  0  0  0  0  0  0  0  0  0  0  0
   37.3520   30.9230   47.1260 C   0  0  0  0  0  0  0  0  0  0  0  0
   36.1060   30.6150   46.7230 N   0  0  0  0  0  0  0  0  0  0  0  0
   35.2610   29.8550   47.4600 C   0  0  0  0  0  0  0  0  0  0  0  0
   35.6450   29.3740   48.6440 N   0  0  0  0  0  0  0  0  0  0  0  0
   38.1740   31.7450   46.2560 C   0  0  0  0  0  0  0  0  0  0  0  0
   39.3210   32.2940   46.7840 C   0  0  0  0  0  0  0  0  0  0  0  0
   40.1330   33.0850   45.9840 C   0  0  0  0  0  0  0  0  0  0  0  0
   39.8300   33.3510   44.6450 C   0  0  0  0  0  0  0  0  0  0  0  0
   38.6810   32.7870   44.1550 C   0  0  0  0  0  0  0  0  0  0  0  0
   37.8690   32.0010   44.9430 C   0  0  0  0  0  0  0  0  0  0  0  0
   33.9210   29.6150   46.8580 C   0  0  0  0  0  0  0  0  0  0  0  0
   34.0570   28.9470   45.6400 F   0  0  0  0  0  0  0  0  0  0  0  0
   33.1880   28.7780   47.6570 F   0  0  0  0  0  0  0  0  0  0  0  0
   33.2060   30.7890   46.6830 F   0  0  0  0  0  0  0  0  0  0  0  0
   37.3040   29.1650   50.3260 O   0  0  0  0  0  0  0  0  0  0  0  0
   37.1060   29.7900   51.5530 C   0  0  0  0  0  0  0  0  0  0  0  0
   37.9620   29.3200   52.5410 F   0  0  0  0  0  0  0  0  0  0  0  0
   37.1280   31.1540   51.5030 F   0  0  0  0  0  0  0  0  0  0  0  0
   35.8090   29.4270   51.9500 F   0  0  0  0  0  0  0  0  0  0  0  0
   38.7854   30.6637   48.7230 H   0  0  0  0  0  0  0  0  0  0  0  0
   39.5919   32.1066   47.8335 H   0  0  0  0  0  0  0  0  0  0  0  0
   41.0465   33.5177   46.4179 H   0  0  0  0  0  0  0  0  0  0  0  0
   40.4795   33.9797   44.0181 H   0  0  0  0  0  0  0  0  0  0  0  0
   38.4002   32.9663   43.1067 H   0  0  0  0  0  0  0  0  0  0  0  0
   36.9551   31.5687   44.5095 H   0  0  0  0  0  0  0  0  0  0  0  0
  1 17  1  0
  2  1  2  0
  3  2  1  0
  4  3  2  0
  4  5  1  0
  5  6  2  0
  6  1  1  0
  7  8  2  0
  7  3  1  0
  9  8  1  0
 10  9  2  0
 11 10  1  0
 11 12  2  0
 12  7  1  0
 13  5  1  0
 13 15  1  0
 14 13  1  0
 16 13  1  0
 17 18  1  0
 18 21  1  0
 18 19  1  0
 20 18  1  0
  2 22  1  0
  8 23  1  0
  9 24  1  0
 10 25  1  0
 11 26  1  0
 12 27  1  0
M  ISO  6  22  14  23  14  24  14  25  14  26  14  27  14
M  END
>  <minimizedAffinity>  (1) 
-6.37159348

>  <minimizedRMSD>  (1) 
4.76128769

$$$$
