
     RDKit          3D

 36 39  0  0  0  0  0  0  0  0999 V2000
   35.5760   29.5160   49.3540 C   0  0  0  0  0  0  0  0  0  0  0  0
   35.6340   29.1740   50.7210 C   0  0  0  0  0  0  0  0  0  0  0  0
   36.5870   29.6180   51.5970 C   0  0  0  0  0  0  0  0  0  0  0  0
   37.5690   30.4560   51.1480 C   0  0  0  0  0  0  0  0  0  0  0  0
   37.5820   30.8330   49.8420 C   0  0  0  0  0  0  0  0  0  0  0  0
   38.5900   31.6710   49.4560 C   0  0  0  0  0  0  0  0  0  0  0  0
   38.6680   32.0970   48.1500 C   0  0  0  0  0  0  0  0  0  0  0  0
   37.6960   31.6450   47.2530 C   0  0  0  0  0  0  0  0  0  0  0  0
   36.7120   30.8020   47.7100 C   0  0  0  0  0  0  0  0  0  0  0  0
   36.6050   30.3650   48.9880 C   0  0  0  0  0  0  0  0  0  0  0  0
   33.6640   26.9920   47.6820 C   0  0  0  0  0  0  0  0  0  0  0  0
   32.7450   27.6460   46.8460 C   0  0  0  0  0  0  0  0  0  0  0  0
   32.7960   29.0200   46.8700 C   0  0  0  0  0  0  0  0  0  0  0  0
   33.6900   29.6080   47.6610 N   0  0  0  0  0  0  0  0  0  0  0  0
   34.5590   29.0320   48.4510 C   0  0  0  0  0  0  0  0  0  0  0  0
   34.5030   27.6950   48.4230 N   0  0  0  0  0  0  0  0  0  0  0  0
   31.9090   29.8400   46.0600 C   0  0  0  0  0  0  0  0  0  0  0  0
   30.6180   29.5020   45.7120 C   0  0  0  0  0  0  0  0  0  0  0  0
   29.8060   30.3080   44.9410 C   0  0  0  0  0  0  0  0  0  0  0  0
   30.2820   31.5310   44.4720 C   0  0  0  0  0  0  0  0  0  0  0  0
   31.5550   31.8770   44.8080 C   0  0  0  0  0  0  0  0  0  0  0  0
   32.3280   31.0580   45.5700 C   0  0  0  0  0  0  0  0  0  0  0  0
   34.8564   28.5012   51.1116 H   0  0  0  0  0  0  0  0  0  0  0  0
   36.5630   29.3039   52.6509 H   0  0  0  0  0  0  0  0  0  0  0  0
   38.3430   30.8226   51.8383 H   0  0  0  0  0  0  0  0  0  0  0  0
   39.3389   32.0049   50.1892 H   0  0  0  0  0  0  0  0  0  0  0  0
   39.4712   32.7730   47.8217 H   0  0  0  0  0  0  0  0  0  0  0  0
   37.7185   31.9589   46.1990 H   0  0  0  0  0  0  0  0  0  0  0  0
   35.9578   30.4575   46.9872 H   0  0  0  0  0  0  0  0  0  0  0  0
   33.6859   25.8929   47.7204 H   0  0  0  0  0  0  0  0  0  0  0  0
   32.0320   27.0962   46.2141 H   0  0  0  0  0  0  0  0  0  0  0  0
   30.2156   28.5417   46.0669 H   0  0  0  0  0  0  0  0  0  0  0  0
   28.7832   29.9854   44.6965 H   0  0  0  0  0  0  0  0  0  0  0  0
   29.6541   32.1905   43.8549 H   0  0  0  0  0  0  0  0  0  0  0  0
   31.9653   32.8354   44.4571 H   0  0  0  0  0  0  0  0  0  0  0  0
   33.3497   31.3876   45.8099 H   0  0  0  0  0  0  0  0  0  0  0  0
  1  2  2  0
  2  3  1  0
  4  3  2  0
  5  4  1  0
  6  5  2  0
  7  6  1  0
  8  9  1  0
  8  7  2  0
  9 10  2  0
 10  1  1  0
 10  5  1  0
 11 16  2  0
 12 13  2  0
 12 11  1  0
 13 14  1  0
 14 15  2  0
 15  1  1  0
 16 15  1  0
 17 13  1  0
 18 17  2  0
 19 18  1  0
 20 21  1  0
 20 19  2  0
 21 22  2  0
 22 17  1  0
  2 23  1  0
  3 24  1  0
  4 25  1  0
  6 26  1  0
  7 27  1  0
  8 28  1  0
  9 29  1  0
 11 30  1  0
 12 31  1  0
 18 32  1  0
 19 33  1  0
 20 34  1  0
 21 35  1  0
 22 36  1  0
M  ISO  8  23  14  24  14  25  14  26  14  27  14  28  14  29  14  30  14
M  ISO  6  31  14  32  14  33  14  34  14  35  14  36  14
M  END
>  <minimizedAffinity>  (1) 
-6.81279135

>  <minimizedRMSD>  (1) 
0.679775178

$$$$
