
     RDKit          3D

 34 37  0  0  0  0  0  0  0  0999 V2000
   35.7470   29.1250   49.2350 C   0  0  0  0  0  0  0  0  0  0  0  0
   35.7680   30.2470   48.4020 C   0  0  0  0  0  0  0  0  0  0  0  0
   34.7520   30.4000   47.4710 C   0  0  0  0  0  0  0  0  0  0  0  0
   33.7780   29.4460   47.4100 N   0  0  0  0  0  0  0  0  0  0  0  0
   33.7770   28.3710   48.2230 C   0  0  0  0  0  0  0  0  0  0  0  0
   34.7630   28.2000   49.1450 N   0  0  0  0  0  0  0  0  0  0  0  0
   36.8630   31.1910   48.5670 C   0  0  0  0  0  0  0  0  0  0  0  0
   37.0510   31.9130   49.7150 C   0  0  0  0  0  0  0  0  0  0  0  0
   38.1510   32.7830   49.7210 C   0  0  0  0  0  0  0  0  0  0  0  0
   38.9950   32.9320   48.6880 N   0  0  0  0  0  0  0  0  0  0  0  0
   38.7590   32.1970   47.5890 C   0  0  0  0  0  0  0  0  0  0  0  0
   37.7040   31.3310   47.5190 N   0  0  0  0  0  0  0  0  0  0  0  0
   39.6330   32.3220   46.4630 N   0  0  0  0  0  0  0  0  0  0  0  0
   40.1510   33.3380   45.7510 C   0  0  0  0  0  0  0  0  0  0  0  0
   40.9270   32.7940   44.7820 N   0  0  0  0  0  0  0  0  0  0  0  0
   40.8670   31.4390   44.9200 C   0  0  0  0  0  0  0  0  0  0  0  0
   40.0540   31.1450   45.9750 N   0  0  0  0  0  0  0  0  0  0  0  0
   32.7180   27.3690   48.1310 C   0  0  0  0  0  0  0  0  0  0  0  0
   31.4710   27.6620   48.6440 C   0  0  0  0  0  0  0  0  0  0  0  0
   30.4440   26.7300   48.5710 C   0  0  0  0  0  0  0  0  0  0  0  0
   30.6460   25.4930   47.9860 C   0  0  0  0  0  0  0  0  0  0  0  0
   31.9040   25.2200   47.4790 C   0  0  0  0  0  0  0  0  0  0  0  0
   32.9340   26.1380   47.5440 C   0  0  0  0  0  0  0  0  0  0  0  0
   36.5463   28.9909   49.9788 H   0  0  0  0  0  0  0  0  0  0  0  0
   34.7315   31.2696   46.7976 H   0  0  0  0  0  0  0  0  0  0  0  0
   36.3794   31.8165   50.5808 H   0  0  0  0  0  0  0  0  0  0  0  0
   38.3331   33.3794   50.6272 H   0  0  0  0  0  0  0  0  0  0  0  0
   39.9774   34.4105   45.9228 H   0  0  0  0  0  0  0  0  0  0  0  0
   41.3872   30.7055   44.2865 H   0  0  0  0  0  0  0  0  0  0  0  0
   31.2892   28.6399   49.1137 H   0  0  0  0  0  0  0  0  0  0  0  0
   29.4556   26.9792   48.9844 H   0  0  0  0  0  0  0  0  0  0  0  0
   29.8349   24.7523   47.9260 H   0  0  0  0  0  0  0  0  0  0  0  0
   32.0895   24.2424   47.0100 H   0  0  0  0  0  0  0  0  0  0  0  0
   33.9223   25.8894   47.1298 H   0  0  0  0  0  0  0  0  0  0  0  0
  2  7  1  0
  2  1  2  0
  3  2  1  0
  4  3  2  0
  4  5  1  0
  5  6  2  0
  6  1  1  0
  7  8  2  0
  8  9  1  0
 10  9  2  0
 11 10  1  0
 12 11  2  0
 12  7  1  0
 13 11  1  0
 14 13  1  0
 15 16  1  0
 15 14  2  0
 16 17  2  0
 17 13  1  0
 18  5  1  0
 18 19  2  0
 20 19  1  0
 21 20  2  0
 22 23  2  0
 22 21  1  0
 23 18  1  0
  1 24  1  0
  3 25  1  0
  8 26  1  0
  9 27  1  0
 14 28  1  0
 16 29  1  0
 19 30  1  0
 20 31  1  0
 21 32  1  0
 22 33  1  0
 23 34  1  0
M  ISO  8  24  14  25  14  26  14  27  14  28  14  29  14  30  14  31  14
M  ISO  3  32  14  33  14  34  14
M  END
>  <minimizedAffinity>  (1) 
-6.40199709

>  <minimizedRMSD>  (1) 
0.80706501

$$$$
