
     RDKit          3D

 50 53  0  0  0  0  0  0  0  0999 V2000
   36.2490   31.2940   42.5770 C   0  0  0  0  0  0  0  0  0  0  0  0
   37.4690   31.0490   41.9120 C   0  0  0  0  0  0  0  0  0  0  0  0
   38.5360   30.7220   42.6760 C   0  0  0  0  0  0  0  0  0  0  0  0
   38.3340   30.6630   43.9750 N   0  0  0  0  0  0  0  0  0  0  0  0
   37.2670   30.8680   44.6760 C   0  0  0  0  0  0  0  0  0  0  0  0
   36.2280   31.1890   43.9080 N   0  0  0  0  0  0  0  0  0  0  0  0
   36.9390   30.8300   46.0790 C   0  0  0  0  0  0  0  0  0  0  0  0
   35.9170   30.0550   46.6180 C   0  0  0  0  0  0  0  0  0  0  0  0
   35.5770   29.9930   47.9300 C   0  0  0  0  0  0  0  0  0  0  0  0
   36.2660   30.7360   48.8430 C   0  0  0  0  0  0  0  0  0  0  0  0
   37.2710   31.5130   48.3890 C   0  0  0  0  0  0  0  0  0  0  0  0
   37.9710   32.2680   49.3200 C   0  0  0  0  0  0  0  0  0  0  0  0
   39.0010   33.0780   48.9510 C   0  0  0  0  0  0  0  0  0  0  0  0
   39.3380   33.1320   47.6060 C   0  0  0  0  0  0  0  0  0  0  0  0
   38.6260   32.3740   46.7190 C   0  0  0  0  0  0  0  0  0  0  0  0
   37.6010   31.5620   47.0540 C   0  0  0  0  0  0  0  0  0  0  0  0
   35.9020   30.6570   50.1660 O   0  0  0  0  0  0  0  0  0  0  0  0
   36.4270   29.6280   50.9970 C   0  0  0  0  0  0  0  0  0  0  0  0
   37.2390   28.7320   50.3830 F   0  0  0  0  0  0  0  0  0  0  0  0
   37.1970   30.2550   51.9660 F   0  0  0  0  0  0  0  0  0  0  0  0
   35.3280   29.0020   51.5730 F   0  0  0  0  0  0  0  0  0  0  0  0
   39.8220   30.4650   42.1480 N   0  0  0  0  0  0  0  0  0  0  0  0
   40.8940   29.9730   42.9510 C   0  0  0  0  0  0  0  0  0  0  0  0
   41.0380   30.5040   44.1300 N   0  0  0  0  0  0  0  0  0  0  0  0
   41.7690   28.9480   42.4890 N   0  0  0  0  0  0  0  0  0  0  0  0
   41.7380   30.2620   44.8190 H   0  0  0  0  0  0  0  0  0  0  0  0
   37.7400   31.8710   37.7610 C   0  0  0  0  0  0  0  0  0  0  0  0
   37.6350   30.5520   38.1600 C   0  0  0  0  0  0  0  0  0  0  0  0
   37.5350   30.1740   39.4830 C   0  0  0  0  0  0  0  0  0  0  0  0
   37.5400   31.1280   40.4590 C   0  0  0  0  0  0  0  0  0  0  0  0
   37.6470   32.4720   40.0730 C   0  0  0  0  0  0  0  0  0  0  0  0
   37.7470   32.8450   38.7420 C   0  0  0  0  0  0  0  0  0  0  0  0
   37.8530   32.1070   36.0470 S   0  0  0  0  0  0  0  0  0  0  0  0
   38.4190   30.8980   35.3450 O   0  0  0  0  0  0  0  0  0  0  0  0
   36.4850   32.4320   35.5310 O   0  0  0  0  0  0  0  0  0  0  0  0
   35.3422   31.5635   42.0157 H   0  0  0  0  0  0  0  0  0  0  0  0
   35.3332   29.4382   45.9189 H   0  0  0  0  0  0  0  0  0  0  0  0
   34.7491   29.3462   48.2560 H   0  0  0  0  0  0  0  0  0  0  0  0
   37.6867   32.2104   50.3811 H   0  0  0  0  0  0  0  0  0  0  0  0
   39.5497   33.6719   49.6967 H   0  0  0  0  0  0  0  0  0  0  0  0
   40.1626   33.7727   47.2602 H   0  0  0  0  0  0  0  0  0  0  0  0
   38.9082   32.4296   45.6573 H   0  0  0  0  0  0  0  0  0  0  0  0
   39.9913   30.6393   41.1471 H   0  0  0  0  0  0  0  0  0  0  0  0
   42.5341   28.6135   43.0920 H   0  0  0  0  0  0  0  0  0  0  0  0
   41.6365   28.5414   41.5520 H   0  0  0  0  0  0  0  0  0  0  0  0
   37.6310   29.7684   37.3880 H   0  0  0  0  0  0  0  0  0  0  0  0
   37.4517   29.1101   39.7497 H   0  0  0  0  0  0  0  0  0  0  0  0
   37.6517   33.2521   40.8485 H   0  0  0  0  0  0  0  0  0  0  0  0
   37.8312   33.9071   38.4685 H   0  0  0  0  0  0  0  0  0  0  0  0
   38.7169   33.1391   35.7912 H   0  0  0  0  0  0  0  0  0  0  0  0
  1  6  2  0
  2  1  1  0
  2  3  2  0
  3  4  1  0
  4  5  2  0
  5  7  1  0
  6  5  1  0
  7  8  2  0
  7 16  1  0
  8  9  1  0
  9 10  2  0
 10 17  1  0
 11 10  1  0
 11 12  2  0
 13 12  1  0
 14 13  2  0
 15 16  2  0
 15 14  1  0
 16 11  1  0
 17 18  1  0
 18 21  1  0
 18 20  1  0
 19 18  1  0
 22  3  1  0
 22 23  1  0
 23 24  2  0
 24 26  1  0
 25 23  1  0
 27 28  2  0
 27 32  1  0
 28 29  1  0
 29 30  2  0
 30  2  1  0
 31 30  1  0
 32 31  2  0
 33 27  1  0
 34 33  2  0
 35 33  2  0
  1 36  1  0
  8 37  1  0
  9 38  1  0
 12 39  1  0
 13 40  1  0
 14 41  1  0
 15 42  1  0
 22 43  1  0
 25 44  1  0
 25 45  1  0
 28 46  1  0
 29 47  1  0
 31 48  1  0
 32 49  1  0
 33 50  1  0
M  ISO  8  36  14  37  14  38  14  39  14  40  14  41  14  42  14  46  14
M  ISO  4  47  14  48  14  49  14  50  11
M  END
>  <minimizedAffinity>  (1) 
-7.1772418

>  <minimizedRMSD>  (1) 
0.652755558

$$$$
