
     RDKit          3D

 31 32  0  0  0  0  0  0  0  0999 V2000
   36.9900   29.7350   48.9420 C   0  0  0  0  0  0  0  0  0  0  0  0
   38.0590   30.3210   48.1880 C   0  0  0  0  0  0  0  0  0  0  0  0
   37.7800   30.7620   46.9070 C   0  0  0  0  0  0  0  0  0  0  0  0
   36.5190   30.6160   46.4420 N   0  0  0  0  0  0  0  0  0  0  0  0
   35.5320   30.0650   47.1630 C   0  0  0  0  0  0  0  0  0  0  0  0
   35.7860   29.6410   48.3820 N   0  0  0  0  0  0  0  0  0  0  0  0
   38.7650   31.3430   46.1090 N   0  0  0  0  0  0  0  0  0  0  0  0
   39.2550   32.6730   46.3020 C   0  0  0  0  0  0  0  0  0  0  0  0
   40.3030   33.0490   45.2980 C   0  0  0  0  0  0  0  0  0  0  0  0
   39.9800   32.7070   43.9450 N   0  0  0  0  0  0  0  0  0  0  0  0
   39.1660   31.5280   43.8060 C   0  0  0  0  0  0  0  0  0  0  0  0
   39.3610   30.6040   45.0120 C   0  0  0  0  0  0  0  0  0  0  0  0
   34.2040   29.9840   46.4910 C   0  0  0  0  0  0  0  0  0  0  0  0
   34.3470   30.1580   45.1140 F   0  0  0  0  0  0  0  0  0  0  0  0
   33.6810   28.7260   46.6490 F   0  0  0  0  0  0  0  0  0  0  0  0
   33.2990   30.8840   47.0180 F   0  0  0  0  0  0  0  0  0  0  0  0
   37.2520   29.2910   50.2160 O   0  0  0  0  0  0  0  0  0  0  0  0
   36.9490   29.9930   51.3780 C   0  0  0  0  0  0  0  0  0  0  0  0
   37.8320   29.7600   52.4230 F   0  0  0  0  0  0  0  0  0  0  0  0
   36.7950   31.3530   51.1980 F   0  0  0  0  0  0  0  0  0  0  0  0
   35.7080   29.5000   51.7950 F   0  0  0  0  0  0  0  0  0  0  0  0
   39.0685   30.4169   48.6143 H   0  0  0  0  0  0  0  0  0  0  0  0
   38.4132   33.3756   46.2135 H   0  0  0  0  0  0  0  0  0  0  0  0
   39.7158   32.7184   47.2998 H   0  0  0  0  0  0  0  0  0  0  0  0
   40.4541   34.1373   45.3505 H   0  0  0  0  0  0  0  0  0  0  0  0
   41.2052   32.4761   45.5584 H   0  0  0  0  0  0  0  0  0  0  0  0
   39.4733   33.4993   43.5250 H   0  0  0  0  0  0  0  0  0  0  0  0
   38.1081   31.8226   43.7415 H   0  0  0  0  0  0  0  0  0  0  0  0
   39.4637   30.9926   42.8924 H   0  0  0  0  0  0  0  0  0  0  0  0
   38.8452   29.6446   44.8589 H   0  0  0  0  0  0  0  0  0  0  0  0
   40.4167   30.3520   45.1906 H   0  0  0  0  0  0  0  0  0  0  0  0
  1 17  1  0
  2  1  2  0
  3  2  1  0
  4  3  2  0
  4  5  1  0
  5  6  2  0
  6  1  1  0
  7  8  1  0
  7  3  1  0
  9  8  1  0
 10  9  1  0
 11 10  1  0
 11 12  1  0
 12  7  1  0
 13 15  1  0
 13 16  1  0
 13  5  1  0
 14 13  1  0
 17 18  1  0
 18 21  1  0
 18 19  1  0
 20 18  1  0
  2 22  1  0
  8 23  1  0
  8 24  1  0
  9 25  1  0
  9 26  1  0
 10 27  1  0
 11 28  1  0
 11 29  1  0
 12 30  1  0
 12 31  1  0
M  ISO  8  22  14  23  13  24  13  25  13  26  13  27   5  28  13  29  13
M  ISO  2  30  13  31  13
M  END
>  <minimizedAffinity>  (1) 
-5.95219278

>  <minimizedRMSD>  (1) 
4.74656057

$$$$
