
     RDKit          3D

 27 28  0  0  0  0  0  0  0  0999 V2000
   36.6790   29.8690   49.6240 C   0  0  0  0  0  0  0  0  0  0  0  0
   37.7710   30.4400   48.9650 C   0  0  0  0  0  0  0  0  0  0  0  0
   37.6140   30.7900   47.6300 C   0  0  0  0  0  0  0  0  0  0  0  0
   36.4230   30.5620   47.0360 N   0  0  0  0  0  0  0  0  0  0  0  0
   35.3750   29.9990   47.7140 C   0  0  0  0  0  0  0  0  0  0  0  0
   35.5080   29.6590   48.9940 N   0  0  0  0  0  0  0  0  0  0  0  0
   38.6800   31.3760   46.8960 N   0  0  0  0  0  0  0  0  0  0  0  0
   39.2710   32.6340   47.3060 C   0  0  0  0  0  0  0  0  0  0  0  0
   39.9910   33.3180   46.1760 C   0  0  0  0  0  0  0  0  0  0  0  0
   40.7460   32.4640   45.3230 N   0  0  0  0  0  0  0  0  0  0  0  0
   40.6550   31.0610   45.5960 C   0  0  0  0  0  0  0  0  0  0  0  0
   39.1900   30.7060   45.7150 C   0  0  0  0  0  0  0  0  0  0  0  0
   36.8320   29.4840   51.0720 C   0  0  0  0  0  0  0  0  0  0  0  0
   35.5960   29.1430   51.6010 F   0  0  0  0  0  0  0  0  0  0  0  0
   37.7700   28.5150   51.1720 F   0  0  0  0  0  0  0  0  0  0  0  0
   37.2560   30.6320   51.7490 F   0  0  0  0  0  0  0  0  0  0  0  0
   38.7248   30.6070   49.4870 H   0  0  0  0  0  0  0  0  0  0  0  0
   34.4187   29.8269   47.1984 H   0  0  0  0  0  0  0  0  0  0  0  0
   38.4735   33.2977   47.6714 H   0  0  0  0  0  0  0  0  0  0  0  0
   40.0067   32.4204   48.0954 H   0  0  0  0  0  0  0  0  0  0  0  0
   39.2406   33.8348   45.5597 H   0  0  0  0  0  0  0  0  0  0  0  0
   40.7196   33.9937   46.6478 H   0  0  0  0  0  0  0  0  0  0  0  0
   41.7362   32.7363   45.4015 H   0  0  0  0  0  0  0  0  0  0  0  0
   41.1127   30.4898   44.7749 H   0  0  0  0  0  0  0  0  0  0  0  0
   41.1860   30.8162   46.5277 H   0  0  0  0  0  0  0  0  0  0  0  0
   38.6456   31.0489   44.8228 H   0  0  0  0  0  0  0  0  0  0  0  0
   39.0579   29.6170   45.7966 H   0  0  0  0  0  0  0  0  0  0  0  0
  1 13  1  0
  2  1  2  0
  3  2  1  0
  4  3  2  0
  4  5  1  0
  5  6  2  0
  6  1  1  0
  7  8  1  0
  7  3  1  0
  9  8  1  0
 10 11  1  0
 10  9  1  0
 11 12  1  0
 12  7  1  0
 13 15  1  0
 13 14  1  0
 13 16  1  0
  2 17  1  0
  5 18  1  0
  8 19  1  0
  8 20  1  0
  9 21  1  0
  9 22  1  0
 10 23  1  0
 11 24  1  0
 11 25  1  0
 12 26  1  0
 12 27  1  0
M  ISO  8  17  14  18  14  19  13  20  13  21  13  22  13  23   5  24  13
M  ISO  3  25  13  26  13  27  13
M  END
>  <minimizedAffinity>  (1) 
-6.03455544

>  <minimizedRMSD>  (1) 
2.46799922

$$$$
