
     RDKit          3D

 38 41  0  0  0  0  0  0  0  0999 V2000
   36.7430   31.1030   48.5820 C   0  0  0  0  0  0  0  0  0  0  0  0
   36.9770   31.8430   49.7120 C   0  0  0  0  0  0  0  0  0  0  0  0
   38.0870   32.6910   49.6840 C   0  0  0  0  0  0  0  0  0  0  0  0
   38.9020   32.8010   48.6250 N   0  0  0  0  0  0  0  0  0  0  0  0
   38.6260   32.0540   47.5410 C   0  0  0  0  0  0  0  0  0  0  0  0
   37.5540   31.2100   47.5200 N   0  0  0  0  0  0  0  0  0  0  0  0
   39.4630   32.1360   46.3890 N   0  0  0  0  0  0  0  0  0  0  0  0
   39.9820   33.1280   45.6370 C   0  0  0  0  0  0  0  0  0  0  0  0
   40.7120   32.5760   44.6580 N   0  0  0  0  0  0  0  0  0  0  0  0
   40.6330   31.2150   44.8220 C   0  0  0  0  0  0  0  0  0  0  0  0
   39.8480   30.9470   45.9090 N   0  0  0  0  0  0  0  0  0  0  0  0
   35.5030   29.1780   49.4330 C   0  0  0  0  0  0  0  0  0  0  0  0
   35.6250   30.1840   48.4790 C   0  0  0  0  0  0  0  0  0  0  0  0
   34.6570   30.2430   47.4830 C   0  0  0  0  0  0  0  0  0  0  0  0
   33.6520   29.3360   47.4770 N   0  0  0  0  0  0  0  0  0  0  0  0
   33.5620   28.3630   48.4260 C   0  0  0  0  0  0  0  0  0  0  0  0
   34.4840   28.2830   49.4000 N   0  0  0  0  0  0  0  0  0  0  0  0
   32.4880   27.4310   48.3790 N   0  0  0  0  0  0  0  0  0  0  0  0
   31.2190   27.6500   49.0470 C   0  0  0  0  0  0  0  0  0  0  0  0
   30.1690   27.6440   47.9340 C   0  0  0  0  0  0  0  0  0  0  0  0
   30.2080   26.3130   47.3640 N   0  0  0  0  0  0  0  0  0  0  0  0
   31.4590   26.1140   46.6690 C   0  0  0  0  0  0  0  0  0  0  0  0
   32.6340   26.1940   47.6380 C   0  0  0  0  0  0  0  0  0  0  0  0
   36.3247   31.7728   50.5949 H   0  0  0  0  0  0  0  0  0  0  0  0
   38.3031   33.2987   50.5751 H   0  0  0  0  0  0  0  0  0  0  0  0
   39.8319   34.2055   45.7994 H   0  0  0  0  0  0  0  0  0  0  0  0
   41.1211   30.4637   44.1837 H   0  0  0  0  0  0  0  0  0  0  0  0
   36.2526   29.1067   50.2349 H   0  0  0  0  0  0  0  0  0  0  0  0
   34.7072   31.0202   46.7062 H   0  0  0  0  0  0  0  0  0  0  0  0
   31.0197   26.8442   49.7688 H   0  0  0  0  0  0  0  0  0  0  0  0
   31.2112   28.5936   49.6123 H   0  0  0  0  0  0  0  0  0  0  0  0
   29.1715   27.8551   48.3469 H   0  0  0  0  0  0  0  0  0  0  0  0
   30.3756   28.4153   47.1775 H   0  0  0  0  0  0  0  0  0  0  0  0
   30.1208   25.6159   48.1172 H   0  0  0  0  0  0  0  0  0  0  0  0
   31.4525   25.1235   46.1907 H   0  0  0  0  0  0  0  0  0  0  0  0
   31.5716   26.9036   45.9114 H   0  0  0  0  0  0  0  0  0  0  0  0
   32.6149   25.3365   48.3267 H   0  0  0  0  0  0  0  0  0  0  0  0
   33.5915   26.1709   47.0970 H   0  0  0  0  0  0  0  0  0  0  0  0
  1  2  2  0
  3  2  1  0
  4  3  2  0
  5  4  1  0
  6  5  2  0
  6  1  1  0
  7  5  1  0
  8  7  1  0
  9 10  1  0
  9  8  2  0
 10 11  2  0
 11  7  1  0
 13  1  1  0
 13 12  2  0
 14 13  1  0
 15 14  2  0
 15 16  1  0
 16 17  2  0
 17 12  1  0
 18 16  1  0
 18 19  1  0
 20 19  1  0
 21 20  1  0
 22 21  1  0
 22 23  1  0
 23 18  1  0
  2 24  1  0
  3 25  1  0
  8 26  1  0
 10 27  1  0
 12 28  1  0
 14 29  1  0
 19 30  1  0
 19 31  1  0
 20 32  1  0
 20 33  1  0
 21 34  1  0
 22 35  1  0
 22 36  1  0
 23 37  1  0
 23 38  1  0
M  END
>  <minimizedAffinity>  (1) 
-7.08521557

>  <minimizedRMSD>  (1) 
0.531893194

$$$$
