
     RDKit          3D

 44 47  0  0  0  0  0  0  0  0999 V2000
   38.2220   31.1210   50.0600 C   0  0  0  0  0  0  0  0  0  0  0  0
   36.8430   29.1020   49.9360 C   0  0  0  0  0  0  0  0  0  0  0  0
   36.9720   30.4920   49.8390 C   0  0  0  0  0  0  0  0  0  0  0  0
   35.8440   31.1930   49.5380 C   0  0  0  0  0  0  0  0  0  0  0  0
   34.6440   30.5760   49.3410 N   0  0  0  0  0  0  0  0  0  0  0  0
   34.5400   29.2330   49.4400 C   0  0  0  0  0  0  0  0  0  0  0  0
   35.6270   28.5360   49.7310 N   0  0  0  0  0  0  0  0  0  0  0  0
   33.2700   28.5460   49.2350 C   0  0  0  0  0  0  0  0  0  0  0  0
   32.0450   28.7790   49.8540 C   0  0  0  0  0  0  0  0  0  0  0  0
   31.1070   27.9340   49.3920 N   0  0  0  0  0  0  0  0  0  0  0  0
   31.7100   27.1460   48.4740 C   0  0  0  0  0  0  0  0  0  0  0  0
   31.1590   26.1110   47.7120 C   0  0  0  0  0  0  0  0  0  0  0  0
   32.0550   25.5010   46.8580 C   0  0  0  0  0  0  0  0  0  0  0  0
   33.3850   25.7820   46.6730 C   0  0  0  0  0  0  0  0  0  0  0  0
   33.8780   26.8180   47.4550 C   0  0  0  0  0  0  0  0  0  0  0  0
   33.0400   27.4900   48.3460 C   0  0  0  0  0  0  0  0  0  0  0  0
   38.3480   32.4180   49.3270 C   0  0  0  0  0  0  0  0  0  0  0  0
   38.7350   32.0530   47.9230 C   0  0  0  0  0  0  0  0  0  0  0  0
   38.5760   30.7850   47.4480 C   0  0  0  0  0  0  0  0  0  0  0  0
   38.9540   30.4510   46.1600 C   0  0  0  0  0  0  0  0  0  0  0  0
   39.4890   31.4330   45.3880 N   0  0  0  0  0  0  0  0  0  0  0  0
   39.6430   32.6670   45.8490 C   0  0  0  0  0  0  0  0  0  0  0  0
   39.2770   32.9900   47.0940 N   0  0  0  0  0  0  0  0  0  0  0  0
   40.2290   33.7370   44.9910 C   0  0  0  0  0  0  0  0  0  0  0  0
   39.8240   33.5120   43.5240 C   0  0  0  0  0  0  0  0  0  0  0  0
   38.3351   31.3123   51.1373 H   0  0  0  0  0  0  0  0  0  0  0  0
   39.0062   30.4473   49.6843 H   0  0  0  0  0  0  0  0  0  0  0  0
   37.7157   28.4766   50.1752 H   0  0  0  0  0  0  0  0  0  0  0  0
   35.9025   32.2880   49.4513 H   0  0  0  0  0  0  0  0  0  0  0  0
   31.8684   29.5504   50.6180 H   0  0  0  0  0  0  0  0  0  0  0  0
   30.1194   27.8946   49.6817 H   0  0  0  0  0  0  0  0  0  0  0  0
   30.1038   25.8095   47.7868 H   0  0  0  0  0  0  0  0  0  0  0  0
   31.6498   24.6822   46.2453 H   0  0  0  0  0  0  0  0  0  0  0  0
   34.0131   25.2286   45.9594 H   0  0  0  0  0  0  0  0  0  0  0  0
   34.9351   27.1107   47.3718 H   0  0  0  0  0  0  0  0  0  0  0  0
   37.3892   32.9571   49.3331 H   0  0  0  0  0  0  0  0  0  0  0  0
   39.0920   33.0793   49.7952 H   0  0  0  0  0  0  0  0  0  0  0  0
   38.1396   30.0142   48.1003 H   0  0  0  0  0  0  0  0  0  0  0  0
   38.8263   29.4285   45.7750 H   0  0  0  0  0  0  0  0  0  0  0  0
   39.8580   34.7170   45.3257 H   0  0  0  0  0  0  0  0  0  0  0  0
   41.3255   33.7070   45.0728 H   0  0  0  0  0  0  0  0  0  0  0  0
   38.8630   32.9781   43.4867 H   0  0  0  0  0  0  0  0  0  0  0  0
   39.7235   34.4836   43.0182 H   0  0  0  0  0  0  0  0  0  0  0  0
   40.5959   32.9134   43.0182 H   0  0  0  0  0  0  0  0  0  0  0  0
  3  2  2  0
  3  1  1  0
  4  3  1  0
  5  6  1  0
  5  4  2  0
  6  7  2  0
  7  2  1  0
  8  6  1  0
  8  9  2  0
 10  9  1  0
 11 10  1  0
 12 11  2  0
 13 12  1  0
 14 13  2  0
 14 15  1  0
 15 16  2  0
 16 11  1  0
 16  8  1  0
 17  1  1  0
 18 17  1  0
 19 18  2  0
 20 19  1  0
 21 22  1  0
 21 20  2  0
 22 23  2  0
 23 18  1  0
 24 22  1  0
 25 24  1  0
  1 26  1  0
  1 27  1  0
  2 28  1  0
  4 29  1  0
  9 30  1  0
 10 31  1  0
 12 32  1  0
 13 33  1  0
 14 34  1  0
 15 35  1  0
 17 36  1  0
 17 37  1  0
 19 38  1  0
 20 39  1  0
 24 40  1  0
 24 41  1  0
 25 42  1  0
 25 43  1  0
 25 44  1  0
M  ISO  8  26   8  27   8  28  14  29  14  30  14  31   9  32  14  33  14
M  ISO  8  34  14  35  14  36   8  37   8  38  14  39  14  40   8  41   8
M  ISO  3  42   8  43   8  44   8
M  END
>  <minimizedAffinity>  (1) 
-5.85572529

>  <minimizedRMSD>  (1) 
1.4907217

$$$$
