
     RDKit          3D

 48 53  0  0  0  0  0  0  0  0999 V2000
   31.7610   29.8460   46.0260 C   0  0  0  0  0  0  0  0  0  0  0  0
   31.4160   28.4940   46.0000 C   0  0  0  0  0  0  0  0  0  0  0  0
   32.3240   27.5690   46.5190 C   0  0  0  0  0  0  0  0  0  0  0  0
   33.4960   28.0180   47.0240 N   0  0  0  0  0  0  0  0  0  0  0  0
   33.8000   29.3460   47.0350 C   0  0  0  0  0  0  0  0  0  0  0  0
   32.9430   30.2460   46.5420 N   0  0  0  0  0  0  0  0  0  0  0  0
   35.0860   29.7210   47.6010 C   0  0  0  0  0  0  0  0  0  0  0  0
   36.1290   30.2650   46.8420 C   0  0  0  0  0  0  0  0  0  0  0  0
   37.1800   30.5120   47.6320 N   0  0  0  0  0  0  0  0  0  0  0  0
   36.8550   30.1440   48.8950 C   0  0  0  0  0  0  0  0  0  0  0  0
   37.5830   30.1950   50.0680 C   0  0  0  0  0  0  0  0  0  0  0  0
   36.9660   29.7350   51.2340 C   0  0  0  0  0  0  0  0  0  0  0  0
   35.6670   29.2490   51.1910 C   0  0  0  0  0  0  0  0  0  0  0  0
   34.9280   29.1950   50.0100 C   0  0  0  0  0  0  0  0  0  0  0  0
   35.5580   29.6520   48.8810 C   0  0  0  0  0  0  0  0  0  0  0  0
   32.0020   26.1570   46.5110 C   0  0  0  0  0  0  0  0  0  0  0  0
   32.7710   25.2890   47.2390 C   0  0  0  0  0  0  0  0  0  0  0  0
   32.4040   23.9690   47.1960 C   0  0  0  0  0  0  0  0  0  0  0  0
   31.3320   23.5450   46.4680 N   0  0  0  0  0  0  0  0  0  0  0  0
   30.5840   24.4300   45.7540 C   0  0  0  0  0  0  0  0  0  0  0  0
   30.9740   25.7060   45.8210 N   0  0  0  0  0  0  0  0  0  0  0  0
   29.4910   23.8250   45.0400 C   0  0  0  0  0  0  0  0  0  0  0  0
   28.9380   24.4910   43.9660 C   0  0  0  0  0  0  0  0  0  0  0  0
   27.8930   24.0040   43.2160 C   0  0  0  0  0  0  0  0  0  0  0  0
   27.3210   22.7930   43.4990 C   0  0  0  0  0  0  0  0  0  0  0  0
   27.8270   22.0800   44.5580 C   0  0  0  0  0  0  0  0  0  0  0  0
   27.2830   20.8560   44.8800 C   0  0  0  0  0  0  0  0  0  0  0  0
   27.7580   20.1010   45.9340 C   0  0  0  0  0  0  0  0  0  0  0  0
   28.8220   20.6340   46.6690 C   0  0  0  0  0  0  0  0  0  0  0  0
   29.3300   21.8580   46.3110 C   0  0  0  0  0  0  0  0  0  0  0  0
   28.8720   22.6220   45.2680 C   0  0  0  0  0  0  0  0  0  0  0  0
   31.0627   30.5937   45.6219 H   0  0  0  0  0  0  0  0  0  0  0  0
   30.4533   28.1655   45.5813 H   0  0  0  0  0  0  0  0  0  0  0  0
   36.0902   30.4598   45.7601 H   0  0  0  0  0  0  0  0  0  0  0  0
   38.0803   30.9125   47.3321 H   0  0  0  0  0  0  0  0  0  0  0  0
   38.6118   30.5839   50.0834 H   0  0  0  0  0  0  0  0  0  0  0  0
   37.5115   29.7582   52.1889 H   0  0  0  0  0  0  0  0  0  0  0  0
   35.2033   28.8933   52.1229 H   0  0  0  0  0  0  0  0  0  0  0  0
   33.8986   28.8080   49.9853 H   0  0  0  0  0  0  0  0  0  0  0  0
   33.6357   25.6321   47.8260 H   0  0  0  0  0  0  0  0  0  0  0  0
   32.9902   23.2318   47.7642 H   0  0  0  0  0  0  0  0  0  0  0  0
   29.3580   25.4703   43.6930 H   0  0  0  0  0  0  0  0  0  0  0  0
   27.5099   24.5984   42.3735 H   0  0  0  0  0  0  0  0  0  0  0  0
   26.4850   22.4044   42.8989 H   0  0  0  0  0  0  0  0  0  0  0  0
   26.4461   20.4690   44.2802 H   0  0  0  0  0  0  0  0  0  0  0  0
   27.3192   19.1239   46.1845 H   0  0  0  0  0  0  0  0  0  0  0  0
   29.2451   20.0810   47.5206 H   0  0  0  0  0  0  0  0  0  0  0  0
   30.1664   22.2556   46.9046 H   0  0  0  0  0  0  0  0  0  0  0  0
  1  6  2  0
  2  1  1  0
  2  3  2  0
  3  4  1  0
  4  5  2  0
  5  7  1  0
  6  5  1  0
  7 15  1  0
  8  7  2  0
  8  9  1  0
  9 10  1  0
 10 11  2  0
 11 12  1  0
 13 12  2  0
 14 13  1  0
 15 10  1  0
 15 14  2  0
 16  3  1  0
 16 17  2  0
 18 17  1  0
 19 18  2  0
 20 21  2  0
 20 19  1  0
 21 16  1  0
 22 31  1  0
 22 20  1  0
 23 22  2  0
 24 25  2  0
 24 23  1  0
 25 26  1  0
 26 27  1  0
 26 31  2  0
 27 28  2  0
 28 29  1  0
 30 29  2  0
 31 30  1  0
  1 32  1  0
  2 33  1  0
  8 34  1  0
  9 35  1  0
 11 36  1  0
 12 37  1  0
 13 38  1  0
 14 39  1  0
 17 40  1  0
 18 41  1  0
 23 42  1  0
 24 43  1  0
 25 44  1  0
 27 45  1  0
 28 46  1  0
 29 47  1  0
 30 48  1  0
M  ISO  8  32  14  33  14  34  14  35   9  36  14  37  14  38  14  39  14
M  ISO  8  40  14  41  14  42  14  43  14  44  14  45  14  46  14  47  14
M  ISO  1  48  14
M  END
>  <minimizedAffinity>  (1) 
-7.26348639

>  <minimizedRMSD>  (1) 
0.994882584

$$$$
