
     RDKit          3D

 50 54  0  0  1  0  0  0  0  0999 V2000
   32.7740   27.3630   46.5540 C   0  0  2  0  0  0  0  0  0  0  0  0
   35.5560   29.8920   48.1050 C   0  0  0  0  0  0  0  0  0  0  0  0
   35.0720   28.9690   49.0250 C   0  0  0  0  0  0  0  0  0  0  0  0
   34.1270   28.1010   48.5730 C   0  0  0  0  0  0  0  0  0  0  0  0
   33.7360   28.1840   47.3240 C   0  0  0  0  0  0  0  0  0  0  0  0
   34.6720   29.5490   46.5610 S   0  0  0  0  0  0  0  0  0  0  0  0
   37.4660   32.6300   49.6500 C   0  0  0  0  0  0  0  0  0  0  0  0
   38.5520   32.7960   48.7750 C   0  0  0  0  0  0  0  0  0  0  0  0
   38.6070   31.9680   47.6680 C   0  0  0  0  0  0  0  0  0  0  0  0
   37.6220   31.0450   47.4790 N   0  0  0  0  0  0  0  0  0  0  0  0
   36.6100   30.9380   48.3530 C   0  0  0  0  0  0  0  0  0  0  0  0
   36.4640   31.7110   49.4800 N   0  0  0  0  0  0  0  0  0  0  0  0
   32.5850   27.9070   45.2290 C   0  0  0  0  0  0  0  0  0  0  0  0
   31.5150   27.1920   47.3950 C   0  0  0  0  0  0  0  0  0  0  0  0
   30.9200   25.9760   47.2230 O   0  0  0  0  0  0  0  0  0  0  0  0
   29.9070   25.7940   46.3010 C   0  0  0  0  0  0  0  0  0  0  0  0
   29.1260   26.5390   45.4700 C   0  0  0  0  0  0  0  0  0  0  0  0
   28.3080   25.6310   44.8320 C   0  0  0  0  0  0  0  0  0  0  0  0
   28.5990   24.3770   45.2720 C   0  0  0  0  0  0  0  0  0  0  0  0
   29.5550   24.5660   46.1390 O   0  0  0  0  0  0  0  0  0  0  0  0
   28.1160   23.0320   45.0120 C   0  0  0  0  0  0  0  0  0  0  0  0
   28.5280   22.0470   45.9230 C   0  0  0  0  0  0  0  0  0  0  0  0
   28.1530   20.7290   45.8070 C   0  0  0  0  0  0  0  0  0  0  0  0
   27.3460   20.3060   44.7800 C   0  0  0  0  0  0  0  0  0  0  0  0
   26.9220   21.2380   43.8650 C   0  0  0  0  0  0  0  0  0  0  0  0
   26.1410   20.8610   42.8110 C   0  0  0  0  0  0  0  0  0  0  0  0
   25.7080   21.7660   41.8350 C   0  0  0  0  0  0  0  0  0  0  0  0
   26.1400   23.0850   42.0270 C   0  0  0  0  0  0  0  0  0  0  0  0
   26.9150   23.4130   43.0910 C   0  0  0  0  0  0  0  0  0  0  0  0
   27.3350   22.5340   44.0430 C   0  0  0  0  0  0  0  0  0  0  0  0
   33.1547   26.3490   46.3622 H   0  0  0  0  0  0  0  0  0  0  0  0
   35.4339   28.9419   50.0634 H   0  0  0  0  0  0  0  0  0  0  0  0
   33.6980   27.3422   49.2440 H   0  0  0  0  0  0  0  0  0  0  0  0
   37.4164   33.2834   50.5335 H   0  0  0  0  0  0  0  0  0  0  0  0
   39.3273   33.5535   48.9622 H   0  0  0  0  0  0  0  0  0  0  0  0
   39.4353   32.0535   46.9493 H   0  0  0  0  0  0  0  0  0  0  0  0
   32.2249   28.9435   45.3061 H   0  0  0  0  0  0  0  0  0  0  0  0
   33.5415   27.8906   44.6860 H   0  0  0  0  0  0  0  0  0  0  0  0
   31.8447   27.3011   44.6860 H   0  0  0  0  0  0  0  0  0  0  0  0
   31.7841   27.3037   48.4557 H   0  0  0  0  0  0  0  0  0  0  0  0
   30.7961   27.9589   47.0709 H   0  0  0  0  0  0  0  0  0  0  0  0
   29.1441   27.6307   45.3366 H   0  0  0  0  0  0  0  0  0  0  0  0
   27.5406   25.8811   44.0846 H   0  0  0  0  0  0  0  0  0  0  0  0
   29.1758   22.3406   46.7621 H   0  0  0  0  0  0  0  0  0  0  0  0
   28.5063   19.9999   46.5511 H   0  0  0  0  0  0  0  0  0  0  0  0
   27.0477   19.2508   44.6926 H   0  0  0  0  0  0  0  0  0  0  0  0
   25.8406   19.8063   42.7254 H   0  0  0  0  0  0  0  0  0  0  0  0
   25.0784   21.4655   40.9845 H   0  0  0  0  0  0  0  0  0  0  0  0
   25.8474   23.8633   41.3068 H   0  0  0  0  0  0  0  0  0  0  0  0
   27.2263   24.4632   43.1921 H   0  0  0  0  0  0  0  0  0  0  0  0
  1  5  1  0
  1 14  1  0
  2 11  1  0
  2  3  2  0
  4  3  1  0
  5  4  2  0
  6  5  1  0
  6  2  1  0
  8  7  2  0
  9  8  1  0
 10  9  2  0
 10 11  1  0
 11 12  2  0
 12  7  1  0
 13  1  1  0
 15 14  1  0
 16 15  1  0
 17 16  2  0
 18 19  2  0
 18 17  1  0
 19 20  1  0
 20 16  1  0
 21 19  1  0
 21 22  2  0
 23 22  1  0
 24 23  2  0
 25 30  2  0
 25 24  1  0
 26 25  1  0
 27 28  1  0
 27 26  2  0
 28 29  2  0
 29 30  1  0
 30 21  1  0
  1 31  1  6
  3 32  1  0
  4 33  1  0
  7 34  1  0
  8 35  1  0
  9 36  1  0
 13 37  1  0
 13 38  1  0
 13 39  1  0
 14 40  1  0
 14 41  1  0
 17 42  1  0
 18 43  1  0
 22 44  1  0
 23 45  1  0
 24 46  1  0
 26 47  1  0
 27 48  1  0
 28 49  1  0
 29 50  1  0
M  ISO  8  31   8  32  14  33  14  34  14  35  14  36  14  37   8  38   8
M  ISO  8  39   8  40   8  41   8  42  14  43  14  44  14  45  14  46  14
M  ISO  4  47  14  48  14  49  14  50  14
M  END
>  <minimizedAffinity>  (1) 
-5.99052525

>  <minimizedRMSD>  (1) 
4.43094635

$$$$
