
     RDKit          3D

 40 43  0  0  1  0  0  0  0  0999 V2000
   35.2220   29.1570   48.5660 C   0  0  2  0  0  0  0  0  0  0  0  0
   33.9930   29.3740   49.3200 C   0  0  0  0  0  0  0  0  0  0  0  0
   34.3080   27.9970   49.0800 C   0  0  1  0  0  0  0  0  0  0  0  0
   36.5320   29.2000   49.3710 C   0  0  0  0  0  0  0  0  0  0  0  0
   37.5530   32.6990   49.6070 C   0  0  0  0  0  0  0  0  0  0  0  0
   38.4440   32.8360   48.5260 C   0  0  0  0  0  0  0  0  0  0  0  0
   38.6790   31.6950   47.7240 C   0  0  0  0  0  0  0  0  0  0  0  0
   38.0290   30.5300   48.0430 N   0  0  0  0  0  0  0  0  0  0  0  0
   37.1930   30.4610   49.0820 C   0  0  0  0  0  0  0  0  0  0  0  0
   36.9620   31.5560   49.8590 N   0  0  0  0  0  0  0  0  0  0  0  0
   33.4620   27.3090   48.0260 C   0  0  0  0  0  0  0  0  0  0  0  0
   33.8260   26.0880   47.8070 O   0  0  0  0  0  0  0  0  0  0  0  0
   32.3900   27.8600   47.3310 O   0  0  0  0  0  0  0  0  0  0  0  0
   31.1580   28.0770   47.8860 C   0  0  0  0  0  0  0  0  0  0  0  0
   30.7400   27.6250   49.2330 C   0  0  0  0  0  0  0  0  0  0  0  0
   29.4840   27.9210   49.6370 C   0  0  0  0  0  0  0  0  0  0  0  0
   28.5880   28.6340   48.8190 C   0  0  0  0  0  0  0  0  0  0  0  0
   29.5900   28.9470   47.2810 S   0  0  0  0  0  0  0  0  0  0  0  0
   27.3140   29.0750   48.9210 C   0  0  0  0  0  0  0  0  0  0  0  0
   26.2760   28.2390   49.2740 C   0  0  0  0  0  0  0  0  0  0  0  0
   24.9780   28.6950   49.3760 C   0  0  0  0  0  0  0  0  0  0  0  0
   24.7080   30.0260   49.1180 C   0  0  0  0  0  0  0  0  0  0  0  0
   25.7280   30.9080   48.7580 C   0  0  0  0  0  0  0  0  0  0  0  0
   27.0280   30.3980   48.6670 C   0  0  0  0  0  0  0  0  0  0  0  0
   35.6205   29.5481   47.6183 H   0  0  0  0  0  0  0  0  0  0  0  0
   34.0578   29.7659   50.3458 H   0  0  0  0  0  0  0  0  0  0  0  0
   33.0950   29.9774   49.1215 H   0  0  0  0  0  0  0  0  0  0  0  0
   34.4472   27.0970   49.6969 H   0  0  0  0  0  0  0  0  0  0  0  0
   36.3120   29.1313   50.4466 H   0  0  0  0  0  0  0  0  0  0  0  0
   37.1799   28.3555   49.0935 H   0  0  0  0  0  0  0  0  0  0  0  0
   37.3488   33.5664   50.2520 H   0  0  0  0  0  0  0  0  0  0  0  0
   38.9391   33.7949   48.3129 H   0  0  0  0  0  0  0  0  0  0  0  0
   39.3658   31.7407   46.8660 H   0  0  0  0  0  0  0  0  0  0  0  0
   31.4290   27.0666   49.8837 H   0  0  0  0  0  0  0  0  0  0  0  0
   29.1530   27.5950   50.6341 H   0  0  0  0  0  0  0  0  0  0  0  0
   26.4886   27.1796   49.4799 H   0  0  0  0  0  0  0  0  0  0  0  0
   24.1674   28.0075   49.6593 H   0  0  0  0  0  0  0  0  0  0  0  0
   23.6748   30.3951   49.1975 H   0  0  0  0  0  0  0  0  0  0  0  0
   25.5172   31.9679   48.5528 H   0  0  0  0  0  0  0  0  0  0  0  0
   27.8472   31.0752   48.3837 H   0  0  0  0  0  0  0  0  0  0  0  0
  1  3  1  0
  1  2  1  0
  1  4  1  0
  3  2  1  0
  5 10  2  0
  6  5  1  0
  7  8  1  0
  7  6  2  0
  8  9  2  0
  9  4  1  0
  9 10  1  0
 11  3  1  0
 12 11  2  0
 13 14  1  0
 13 11  1  0
 14 15  2  0
 15 16  1  0
 17 19  1  0
 17 16  2  0
 18 14  1  0
 18 17  1  0
 19 20  2  0
 20 21  1  0
 22 21  2  0
 23 22  1  0
 24 23  2  0
 24 19  1  0
  1 25  1  6
  2 26  1  0
  2 27  1  0
  3 28  1  1
  4 29  1  0
  4 30  1  0
  5 31  1  0
  6 32  1  0
  7 33  1  0
 15 34  1  0
 16 35  1  0
 20 36  1  0
 21 37  1  0
 22 38  1  0
 23 39  1  0
 24 40  1  0
M  ISO  8  25  13  26  13  27  13  28  13  29   8  30   8  31  14  32  14
M  ISO  8  33  14  34  14  35  14  36  14  37  14  38  14  39  14  40  14
M  END
>  <minimizedAffinity>  (1) 
-6.79937553

>  <minimizedRMSD>  (1) 
1.89870846

$$$$
