
     RDKit          3D

 24 25  0  0  0  0  0  0  0  0999 V2000
   37.1110   30.4480   49.3040 C   0  0  0  0  0  0  0  0  0  0  0  0
   36.9910   31.5960   50.1160 C   0  0  0  0  0  0  0  0  0  0  0  0
   37.6070   32.7740   49.6610 C   0  0  0  0  0  0  0  0  0  0  0  0
   38.2800   32.7450   48.4700 N   0  0  0  0  0  0  0  0  0  0  0  0
   38.3520   31.6230   47.7540 C   0  0  0  0  0  0  0  0  0  0  0  0
   37.7870   30.4650   48.1340 N   0  0  0  0  0  0  0  0  0  0  0  0
   39.0760   31.5920   46.4750 C   0  0  0  0  0  0  0  0  0  0  0  0
   39.8400   32.6830   46.0980 C   0  0  0  0  0  0  0  0  0  0  0  0
   40.5440   32.7400   44.9260 C   0  0  0  0  0  0  0  0  0  0  0  0
   40.4820   31.6590   44.0970 C   0  0  0  0  0  0  0  0  0  0  0  0
   39.7400   30.5350   44.4090 C   0  0  0  0  0  0  0  0  0  0  0  0
   39.0470   30.5310   45.6050 C   0  0  0  0  0  0  0  0  0  0  0  0
   36.5110   29.2880   49.7460 O   0  0  0  0  0  0  0  0  0  0  0  0
   35.2310   29.1790   50.2780 C   0  0  0  0  0  0  0  0  0  0  0  0
   35.2020   29.1560   51.6600 F   0  0  0  0  0  0  0  0  0  0  0  0
   34.3530   30.1210   49.7960 F   0  0  0  0  0  0  0  0  0  0  0  0
   34.7360   27.9530   49.8380 F   0  0  0  0  0  0  0  0  0  0  0  0
   36.4378   31.5696   51.0664 H   0  0  0  0  0  0  0  0  0  0  0  0
   37.5494   33.7010   50.2504 H   0  0  0  0  0  0  0  0  0  0  0  0
   39.8834   33.5486   46.7754 H   0  0  0  0  0  0  0  0  0  0  0  0
   41.1390   33.6267   44.6618 H   0  0  0  0  0  0  0  0  0  0  0  0
   41.0404   31.6821   43.1495 H   0  0  0  0  0  0  0  0  0  0  0  0
   39.7023   29.6721   43.7278 H   0  0  0  0  0  0  0  0  0  0  0  0
   38.4506   29.6452   45.8690 H   0  0  0  0  0  0  0  0  0  0  0  0
  1 13  1  0
  1  2  2  0
  3  2  1  0
  4  3  2  0
  5  6  2  0
  5  4  1  0
  6  1  1  0
  7  5  1  0
  8  7  2  0
  9  8  1  0
 10 11  1  0
 10  9  2  0
 11 12  2  0
 12  7  1  0
 13 14  1  0
 14 15  1  0
 16 14  1  0
 17 14  1  0
  2 18  1  0
  3 19  1  0
  8 20  1  0
  9 21  1  0
 10 22  1  0
 11 23  1  0
 12 24  1  0
M  ISO  7  18  14  19  14  20  14  21  14  22  14  23  14  24  14
M  END
>  <minimizedAffinity>  (1) 
-6.27857018

>  <minimizedRMSD>  (1) 
1.63436568

$$$$
