
     RDKit          3D

 27 29  0  0  0  0  0  0  0  0999 V2000
   36.4090   30.3970   48.6820 C   0  0  0  0  0  0  0  0  0  0  0  0
   36.2980   29.5250   49.7930 C   0  0  0  0  0  0  0  0  0  0  0  0
   35.3320   28.5690   49.7110 C   0  0  0  0  0  0  0  0  0  0  0  0
   34.5590   28.5030   48.6190 C   0  0  0  0  0  0  0  0  0  0  0  0
   35.1410   29.8350   47.5550 S   0  0  0  0  0  0  0  0  0  0  0  0
   38.3860   33.4440   49.3930 C   0  0  0  0  0  0  0  0  0  0  0  0
   39.2420   33.5130   48.2780 C   0  0  0  0  0  0  0  0  0  0  0  0
   39.1180   32.5170   47.3150 C   0  0  0  0  0  0  0  0  0  0  0  0
   38.1920   31.5210   47.4720 N   0  0  0  0  0  0  0  0  0  0  0  0
   37.3950   31.5040   48.5650 C   0  0  0  0  0  0  0  0  0  0  0  0
   37.4650   32.4450   49.5390 N   0  0  0  0  0  0  0  0  0  0  0  0
   33.4580   27.5730   48.2920 C   0  0  0  0  0  0  0  0  0  0  0  0
   33.7360   26.4460   47.5380 C   0  0  0  0  0  0  0  0  0  0  0  0
   32.6670   25.6200   47.2680 C   0  0  0  0  0  0  0  0  0  0  0  0
   31.3810   25.8660   47.7060 C   0  0  0  0  0  0  0  0  0  0  0  0
   31.1700   27.0130   48.4580 C   0  0  0  0  0  0  0  0  0  0  0  0
   32.2080   27.8900   48.7650 C   0  0  0  0  0  0  0  0  0  0  0  0
   36.9543   29.6151   50.6711 H   0  0  0  0  0  0  0  0  0  0  0  0
   35.1873   27.8557   50.5358 H   0  0  0  0  0  0  0  0  0  0  0  0
   38.4606   34.2181   50.1710 H   0  0  0  0  0  0  0  0  0  0  0  0
   39.9796   34.3222   48.1723 H   0  0  0  0  0  0  0  0  0  0  0  0
   39.7652   32.5297   46.4256 H   0  0  0  0  0  0  0  0  0  0  0  0
   34.7505   26.2231   47.1758 H   0  0  0  0  0  0  0  0  0  0  0  0
   32.8481   24.7144   46.6704 H   0  0  0  0  0  0  0  0  0  0  0  0
   30.5554   25.1792   47.4680 H   0  0  0  0  0  0  0  0  0  0  0  0
   30.1560   27.2357   48.8215 H   0  0  0  0  0  0  0  0  0  0  0  0
   32.0339   28.7980   49.3610 H   0  0  0  0  0  0  0  0  0  0  0  0
  1  2  2  0
  3  2  1  0
  4  3  2  0
  5  4  1  0
  5  1  1  0
  6 11  2  0
  7  6  1  0
  8  9  1  0
  8  7  2  0
  9 10  2  0
 10  1  1  0
 10 11  1  0
 12  4  1  0
 12 17  1  0
 13 12  2  0
 14 13  1  0
 14 15  2  0
 15 16  1  0
 16 17  2  0
  2 18  1  0
  3 19  1  0
  6 20  1  0
  7 21  1  0
  8 22  1  0
 13 23  1  0
 14 24  1  0
 15 25  1  0
 16 26  1  0
 17 27  1  0
M  ISO  8  18  14  19  14  20  14  21  14  22  14  23  14  24  14  25  14
M  ISO  2  26  14  27  14
M  END
>  <minimizedAffinity>  (1) 
-5.54781914

>  <minimizedRMSD>  (1) 
2.89788413

$$$$
