
     RDKit          3D

 32 35  0  0  0  0  0  0  0  0999 V2000
   36.8850   29.8330   51.5600 C   0  0  0  0  0  0  0  0  0  0  0  0
   37.6880   30.6180   50.7310 C   0  0  0  0  0  0  0  0  0  0  0  0
   37.3830   30.6900   49.3810 C   0  0  0  0  0  0  0  0  0  0  0  0
   36.3070   29.9900   48.9020 N   0  0  0  0  0  0  0  0  0  0  0  0
   35.5570   29.2410   49.7500 C   0  0  0  0  0  0  0  0  0  0  0  0
   35.8310   29.1540   51.0660 N   0  0  0  0  0  0  0  0  0  0  0  0
   38.1560   31.4830   48.4300 C   0  0  0  0  0  0  0  0  0  0  0  0
   38.8290   32.6570   48.5810 N   0  0  0  0  0  0  0  0  0  0  0  0
   39.3740   32.9900   47.4440 O   0  0  0  0  0  0  0  0  0  0  0  0
   39.0800   32.0830   46.5730 C   0  0  0  0  0  0  0  0  0  0  0  0
   38.3070   31.1000   47.1420 N   0  0  0  0  0  0  0  0  0  0  0  0
   39.4530   32.0150   45.1890 N   0  0  0  0  0  0  0  0  0  0  0  0
   38.9840   32.8940   44.2850 N   0  0  0  0  0  0  0  0  0  0  0  0
   39.4980   32.5900   43.0740 C   0  0  0  0  0  0  0  0  0  0  0  0
   40.3200   31.4700   43.2650 C   0  0  0  0  0  0  0  0  0  0  0  0
   40.2690   31.1330   44.6080 C   0  0  0  0  0  0  0  0  0  0  0  0
   34.4150   28.5040   49.2170 C   0  0  0  0  0  0  0  0  0  0  0  0
   34.5920   27.5220   48.2630 C   0  0  0  0  0  0  0  0  0  0  0  0
   33.5990   26.7770   47.7010 C   0  0  0  0  0  0  0  0  0  0  0  0
   32.3070   27.0540   48.1460 C   0  0  0  0  0  0  0  0  0  0  0  0
   32.1050   28.0320   49.0980 C   0  0  0  0  0  0  0  0  0  0  0  0
   33.1340   28.7720   49.6520 C   0  0  0  0  0  0  0  0  0  0  0  0
   37.1162   29.7676   52.6334 H   0  0  0  0  0  0  0  0  0  0  0  0
   38.5469   31.1692   51.1415 H   0  0  0  0  0  0  0  0  0  0  0  0
   39.3095   33.1160   42.1265 H   0  0  0  0  0  0  0  0  0  0  0  0
   40.9011   30.9519   42.4879 H   0  0  0  0  0  0  0  0  0  0  0  0
   40.7971   30.3021   45.0987 H   0  0  0  0  0  0  0  0  0  0  0  0
   35.6211   27.3243   47.9284 H   0  0  0  0  0  0  0  0  0  0  0  0
   33.8038   26.0057   46.9440 H   0  0  0  0  0  0  0  0  0  0  0  0
   31.4515   26.4946   47.7394 H   0  0  0  0  0  0  0  0  0  0  0  0
   31.0765   28.2329   49.4324 H   0  0  0  0  0  0  0  0  0  0  0  0
   32.9381   29.5444   50.4103 H   0  0  0  0  0  0  0  0  0  0  0  0
  2  1  2  0
  3  2  1  0
  4  3  2  0
  4  5  1  0
  5  6  2  0
  6  1  1  0
  7  8  2  0
  7  3  1  0
  9  8  1  0
 10 11  2  0
 10  9  1  0
 11  7  1  0
 12 10  1  0
 13 12  1  0
 14 15  1  0
 14 13  2  0
 15 16  2  0
 16 12  1  0
 17 22  1  0
 17  5  1  0
 18 17  2  0
 19 20  2  0
 19 18  1  0
 20 21  1  0
 21 22  2  0
  1 23  1  0
  2 24  1  0
 14 25  1  0
 15 26  1  0
 16 27  1  0
 18 28  1  0
 19 29  1  0
 20 30  1  0
 21 31  1  0
 22 32  1  0
M  ISO  8  23  14  24  14  25  14  26  14  27  14  28  14  29  14  30  14
M  ISO  2  31  14  32  14
M  END
>  <minimizedAffinity>  (1) 
-6.55477333

>  <minimizedRMSD>  (1) 
0.766092837

$$$$
