
     RDKit          3D

 41 43  0  0  1  0  0  0  0  0999 V2000
   34.8660   29.4000   48.6300 C   0  0  0  0  0  0  0  0  0  0  0  0
   34.3000   28.2370   49.1940 C   0  0  0  0  0  0  0  0  0  0  0  0
   33.1800   27.7530   48.6150 C   0  0  0  0  0  0  0  0  0  0  0  0
   32.6730   28.3960   47.5530 C   0  0  0  0  0  0  0  0  0  0  0  0
   33.7760   29.8080   47.2490 S   0  0  0  0  0  0  0  0  0  0  0  0
   37.6470   30.5400   50.7690 C   0  0  0  0  0  0  0  0  0  0  0  0
   38.3450   31.4160   49.8840 C   0  0  0  0  0  0  0  0  0  0  0  0
   37.8600   31.5960   48.5980 C   0  0  0  0  0  0  0  0  0  0  0  0
   36.7380   30.9140   48.2740 N   0  0  0  0  0  0  0  0  0  0  0  0
   36.0940   30.1000   49.1010 C   0  0  0  0  0  0  0  0  0  0  0  0
   36.5150   29.8810   50.3690 N   0  0  0  0  0  0  0  0  0  0  0  0
   31.4750   28.0830   46.7210 C   0  0  2  0  0  0  0  0  0  0  0  0
   31.3850   29.0910   45.6460 C   0  0  0  0  0  0  0  0  0  0  0  0
   30.2540   28.0930   47.6410 C   0  0  0  0  0  0  0  0  0  0  0  0
   29.0220   28.3190   46.9670 N   0  0  0  0  0  0  0  0  0  0  0  0
   28.2480   27.1670   46.6540 C   0  0  0  0  0  0  0  0  0  0  0  0
   27.5710   26.5590   47.8580 C   0  0  0  0  0  0  0  0  0  0  0  0
   26.7070   27.5830   48.5180 C   0  0  0  0  0  0  0  0  0  0  0  0
   26.8500   28.9440   47.9200 C   0  0  0  0  0  0  0  0  0  0  0  0
   28.2760   29.3240   47.6700 C   0  0  0  0  0  0  0  0  0  0  0  0
   34.7518   27.7454   50.0682 H   0  0  0  0  0  0  0  0  0  0  0  0
   32.6927   26.8482   49.0072 H   0  0  0  0  0  0  0  0  0  0  0  0
   38.0253   30.3915   51.7912 H   0  0  0  0  0  0  0  0  0  0  0  0
   39.2531   31.9397   50.2172 H   0  0  0  0  0  0  0  0  0  0  0  0
   38.3618   32.2593   47.8782 H   0  0  0  0  0  0  0  0  0  0  0  0
   31.5373   27.0928   46.2459 H   0  0  0  0  0  0  0  0  0  0  0  0
   31.2955   30.0935   46.0899 H   0  0  0  0  0  0  0  0  0  0  0  0
   32.2908   29.0451   45.0236 H   0  0  0  0  0  0  0  0  0  0  0  0
   30.5016   28.8854   45.0236 H   0  0  0  0  0  0  0  0  0  0  0  0
   30.1963   27.1192   48.1494 H   0  0  0  0  0  0  0  0  0  0  0  0
   30.3910   28.9299   48.3416 H   0  0  0  0  0  0  0  0  0  0  0  0
   27.4748   27.4529   45.9257 H   0  0  0  0  0  0  0  0  0  0  0  0
   28.9372   26.4106   46.2505 H   0  0  0  0  0  0  0  0  0  0  0  0
   26.9513   25.7082   47.5386 H   0  0  0  0  0  0  0  0  0  0  0  0
   28.3346   26.2121   48.5698 H   0  0  0  0  0  0  0  0  0  0  0  0
   25.6572   27.2681   48.4244 H   0  0  0  0  0  0  0  0  0  0  0  0
   27.0244   27.6517   49.5690 H   0  0  0  0  0  0  0  0  0  0  0  0
   26.3082   28.9654   46.9629 H   0  0  0  0  0  0  0  0  0  0  0  0
   26.4377   29.6658   48.6404 H   0  0  0  0  0  0  0  0  0  0  0  0
   28.7632   29.5047   48.6395 H   0  0  0  0  0  0  0  0  0  0  0  0
   28.2648   30.2219   47.0347 H   0  0  0  0  0  0  0  0  0  0  0  0
  1 10  1  0
  1  2  2  0
  3  2  1  0
  4  3  2  0
  5  4  1  0
  5  1  1  0
  7  6  2  0
  8  7  1  0
  9  8  2  0
  9 10  1  0
 10 11  2  0
 11  6  1  0
 12  4  1  0
 12 14  1  0
 13 12  1  0
 15 14  1  0
 15 20  1  0
 16 15  1  0
 16 17  1  0
 17 18  1  0
 19 18  1  0
 20 19  1  0
  2 21  1  0
  3 22  1  0
  6 23  1  0
  7 24  1  0
  8 25  1  0
 12 26  1  6
 13 27  1  0
 13 28  1  0
 13 29  1  0
 14 30  1  0
 14 31  1  0
 16 32  1  0
 16 33  1  0
 17 34  1  0
 17 35  1  0
 18 36  1  0
 18 37  1  0
 19 38  1  0
 19 39  1  0
 20 40  1  0
 20 41  1  0
M  ISO  8  21  14  22  14  23  14  24  14  25  14  26   8  27   8  28   8
M  ISO  8  29   8  30   8  31   8  32  13  33  13  34  13  35  13  36  13
M  ISO  5  37  13  38  13  39  13  40  13  41  13
M  END
>  <minimizedAffinity>  (1) 
-5.26138258

>  <minimizedRMSD>  (1) 
1.17145848

$$$$
