
     RDKit          3D

 41 44  0  0  0  0  0  0  0  0999 V2000
   35.5150   29.5080   49.2360 C   0  0  0  0  0  0  0  0  0  0  0  0
   35.5540   29.1970   50.5930 C   0  0  0  0  0  0  0  0  0  0  0  0
   36.5160   29.6530   51.4600 C   0  0  0  0  0  0  0  0  0  0  0  0
   37.5150   30.4610   51.0110 C   0  0  0  0  0  0  0  0  0  0  0  0
   37.5400   30.8040   49.6960 C   0  0  0  0  0  0  0  0  0  0  0  0
   38.5680   31.6240   49.2830 C   0  0  0  0  0  0  0  0  0  0  0  0
   38.6650   32.0140   47.9840 C   0  0  0  0  0  0  0  0  0  0  0  0
   37.6930   31.5570   47.0980 C   0  0  0  0  0  0  0  0  0  0  0  0
   36.6890   30.7430   47.5580 C   0  0  0  0  0  0  0  0  0  0  0  0
   36.5560   30.3300   48.8490 C   0  0  0  0  0  0  0  0  0  0  0  0
   33.4750   26.9870   47.6990 C   0  0  0  0  0  0  0  0  0  0  0  0
   32.6470   27.6120   46.7610 C   0  0  0  0  0  0  0  0  0  0  0  0
   32.8110   28.9940   46.6610 C   0  0  0  0  0  0  0  0  0  0  0  0
   33.7150   29.5940   47.4390 N   0  0  0  0  0  0  0  0  0  0  0  0
   34.4990   29.0260   48.3230 C   0  0  0  0  0  0  0  0  0  0  0  0
   34.3290   27.7030   48.4060 N   0  0  0  0  0  0  0  0  0  0  0  0
   32.0620   29.7880   45.7690 N   0  0  0  0  0  0  0  0  0  0  0  0
   32.6270   30.7060   44.8110 C   0  0  0  0  0  0  0  0  0  0  0  0
   31.8760   32.0290   44.7770 C   0  0  0  0  0  0  0  0  0  0  0  0
   30.3790   31.8270   44.6640 C   0  0  0  0  0  0  0  0  0  0  0  0
   30.0280   30.3580   44.5610 C   0  0  0  0  0  0  0  0  0  0  0  0
   30.5980   29.6820   45.8050 C   0  0  0  0  0  0  0  0  0  0  0  0
   34.7646   28.5452   50.9954 H   0  0  0  0  0  0  0  0  0  0  0  0
   36.4792   29.3644   52.5208 H   0  0  0  0  0  0  0  0  0  0  0  0
   38.2887   30.8300   51.7003 H   0  0  0  0  0  0  0  0  0  0  0  0
   39.3176   31.9664   50.0116 H   0  0  0  0  0  0  0  0  0  0  0  0
   39.4824   32.6674   47.6451 H   0  0  0  0  0  0  0  0  0  0  0  0
   37.7298   31.8464   46.0374 H   0  0  0  0  0  0  0  0  0  0  0  0
   35.9375   30.3992   46.8320 H   0  0  0  0  0  0  0  0  0  0  0  0
   33.4144   25.8987   47.8475 H   0  0  0  0  0  0  0  0  0  0  0  0
   31.9216   27.0563   46.1486 H   0  0  0  0  0  0  0  0  0  0  0  0
   33.6756   30.8998   45.0807 H   0  0  0  0  0  0  0  0  0  0  0  0
   32.5506   30.2465   43.8145 H   0  0  0  0  0  0  0  0  0  0  0  0
   32.0910   32.5837   45.7023 H   0  0  0  0  0  0  0  0  0  0  0  0
   32.2119   32.5886   43.8915 H   0  0  0  0  0  0  0  0  0  0  0  0
   29.8922   32.2500   45.5551 H   0  0  0  0  0  0  0  0  0  0  0  0
   30.0285   32.3323   43.7520 H   0  0  0  0  0  0  0  0  0  0  0  0
   28.9359   30.2307   44.5273 H   0  0  0  0  0  0  0  0  0  0  0  0
   30.4447   29.9152   43.6443 H   0  0  0  0  0  0  0  0  0  0  0  0
   30.3038   28.6222   45.8181 H   0  0  0  0  0  0  0  0  0  0  0  0
   30.2088   30.1720   46.7096 H   0  0  0  0  0  0  0  0  0  0  0  0
  1  2  2  0
  2  3  1  0
  4  3  2  0
  5  4  1  0
  6  5  2  0
  7  6  1  0
  8  9  1  0
  8  7  2  0
  9 10  2  0
 10  1  1  0
 10  5  1  0
 11 16  2  0
 12 11  1  0
 13 12  2  0
 13 14  1  0
 14 15  2  0
 15 16  1  0
 15  1  1  0
 17 22  1  0
 17 13  1  0
 18 17  1  0
 19 18  1  0
 20 19  1  0
 21 20  1  0
 21 22  1  0
  2 23  1  0
  3 24  1  0
  4 25  1  0
  6 26  1  0
  7 27  1  0
  8 28  1  0
  9 29  1  0
 11 30  1  0
 12 31  1  0
 18 32  1  0
 18 33  1  0
 19 34  1  0
 19 35  1  0
 20 36  1  0
 20 37  1  0
 21 38  1  0
 21 39  1  0
 22 40  1  0
 22 41  1  0
M  ISO  8  23  14  24  14  25  14  26  14  27  14  28  14  29  14  30  14
M  ISO  8  31  14  32  13  33  13  34  13  35  13  36  13  37  13  38  13
M  ISO  3  39  13  40  13  41  13
M  END
>  <minimizedAffinity>  (1) 
-6.72645903

>  <minimizedRMSD>  (1) 
0.304134905

$$$$
