
     RDKit          3D

 42 44  0  0  1  0  0  0  0  0999 V2000
   35.6750   29.1460   48.8780 C   0  0  0  0  0  0  0  0  0  0  0  0
   34.8230   29.4590   47.7830 C   0  0  0  0  0  0  0  0  0  0  0  0
   34.8710   30.1850   46.6160 C   0  0  0  0  0  0  0  0  0  0  0  0
   33.7050   30.1190   45.9260 N   0  0  0  0  0  0  0  0  0  0  0  0
   32.8770   29.3470   46.6350 C   0  0  0  0  0  0  0  0  0  0  0  0
   33.5560   28.9600   47.7400 N   0  0  0  0  0  0  0  0  0  0  0  0
   32.8900   28.0760   48.7170 C   0  0  0  0  0  0  0  0  0  0  0  0
   32.6490   26.8320   48.0820 N   0  0  0  0  0  0  0  0  0  0  0  0
   33.8240   26.1990   47.5280 C   0  0  0  0  0  0  0  0  0  0  0  0
   33.4540   25.0710   46.5820 C   0  0  0  0  0  0  0  0  0  0  0  0
   32.2640   24.4680   46.9540 O   0  0  0  0  0  0  0  0  0  0  0  0
   31.1790   25.3140   46.9950 C   0  0  0  0  0  0  0  0  0  0  0  0
   31.5410   26.7720   47.1850 C   0  0  0  0  0  0  0  0  0  0  0  0
   36.0310   30.1770   49.8380 C   0  0  2  0  0  0  0  0  0  0  0  0
   37.0740   31.1340   49.3050 C   0  0  0  0  0  0  0  0  0  0  0  0
   37.0990   32.4190   49.8340 C   0  0  0  0  0  0  0  0  0  0  0  0
   38.0720   33.2790   49.2850 C   0  0  0  0  0  0  0  0  0  0  0  0
   38.8960   32.8270   48.3130 N   0  0  0  0  0  0  0  0  0  0  0  0
   38.8380   31.5470   47.8180 C   0  0  0  0  0  0  0  0  0  0  0  0
   37.9090   30.6920   48.3270 N   0  0  0  0  0  0  0  0  0  0  0  0
   36.6650   29.4590   51.0920 C   0  0  0  0  0  0  0  0  0  0  0  0
   36.6167   28.7708   48.4508 H   0  0  0  0  0  0  0  0  0  0  0  0
   35.0746   28.4422   49.4731 H   0  0  0  0  0  0  0  0  0  0  0  0
   35.7517   30.7527   46.2813 H   0  0  0  0  0  0  0  0  0  0  0  0
   31.8434   29.0779   46.3718 H   0  0  0  0  0  0  0  0  0  0  0  0
   33.5395   27.9295   49.5926 H   0  0  0  0  0  0  0  0  0  0  0  0
   31.9444   28.5231   49.0575 H   0  0  0  0  0  0  0  0  0  0  0  0
   34.4087   26.9504   46.9770 H   0  0  0  0  0  0  0  0  0  0  0  0
   34.4115   25.7763   48.3564 H   0  0  0  0  0  0  0  0  0  0  0  0
   34.2554   24.3176   46.5929 H   0  0  0  0  0  0  0  0  0  0  0  0
   33.3276   25.4927   45.5739 H   0  0  0  0  0  0  0  0  0  0  0  0
   30.6275   25.2152   46.0484 H   0  0  0  0  0  0  0  0  0  0  0  0
   30.5786   25.0190   47.8682 H   0  0  0  0  0  0  0  0  0  0  0  0
   31.8174   27.2182   46.2183 H   0  0  0  0  0  0  0  0  0  0  0  0
   30.6856   27.3308   47.5924 H   0  0  0  0  0  0  0  0  0  0  0  0
   35.1211   30.7488   50.0728 H   0  0  0  0  0  0  0  0  0  0  0  0
   36.4076   32.7426   50.6260 H   0  0  0  0  0  0  0  0  0  0  0  0
   38.1605   34.3142   49.6462 H   0  0  0  0  0  0  0  0  0  0  0  0
   39.5281   31.2195   47.0265 H   0  0  0  0  0  0  0  0  0  0  0  0
   36.2668   29.9100   52.0129 H   0  0  0  0  0  0  0  0  0  0  0  0
   36.4118   28.3888   51.0686 H   0  0  0  0  0  0  0  0  0  0  0  0
   37.7583   29.5777   51.0686 H   0  0  0  0  0  0  0  0  0  0  0  0
  1 14  1  0
  2  1  1  0
  3  2  2  0
  4  3  1  0
  4  5  2  0
  5  6  1  0
  6  2  1  0
  6  7  1  0
  8  7  1  0
  9  8  1  0
 10 11  1  0
 10  9  1  0
 11 12  1  0
 12 13  1  0
 13  8  1  0
 14 21  1  0
 15 16  2  0
 15 14  1  0
 17 16  1  0
 18 17  2  0
 19 18  1  0
 19 20  2  0
 20 15  1  0
  1 22  1  0
  1 23  1  0
  3 24  1  0
  5 25  1  0
  7 26  1  0
  7 27  1  0
  9 28  1  0
  9 29  1  0
 10 30  1  0
 10 31  1  0
 12 32  1  0
 12 33  1  0
 13 34  1  0
 13 35  1  0
 14 36  1  1
 16 37  1  0
 17 38  1  0
 19 39  1  0
 21 40  1  0
 21 41  1  0
 21 42  1  0
M  ISO  8  22   8  23   8  24  14  25  14  26   8  27   8  28  13  29  13
M  ISO  8  30  13  31  13  32  13  33  13  34  13  35  13  36   8  37  14
M  ISO  5  38  14  39  14  40   8  41   8  42   8
M  END
>  <minimizedAffinity>  (1) 
-4.88826561

>  <minimizedRMSD>  (1) 
0.867254913

$$$$
