
     RDKit          3D

 37 40  0  0  0  0  0  0  0  0999 V2000
   36.7820   31.1110   48.5370 C   0  0  0  0  0  0  0  0  0  0  0  0
   36.9620   31.8740   49.6750 C   0  0  0  0  0  0  0  0  0  0  0  0
   38.0470   32.7620   49.6640 C   0  0  0  0  0  0  0  0  0  0  0  0
   38.8840   32.8940   48.6260 N   0  0  0  0  0  0  0  0  0  0  0  0
   38.6670   32.1260   47.5350 C   0  0  0  0  0  0  0  0  0  0  0  0
   37.6190   31.2430   47.5010 N   0  0  0  0  0  0  0  0  0  0  0  0
   39.5320   32.2370   46.4150 N   0  0  0  0  0  0  0  0  0  0  0  0
   40.0330   33.2400   45.6790 C   0  0  0  0  0  0  0  0  0  0  0  0
   40.8180   32.6870   44.7250 N   0  0  0  0  0  0  0  0  0  0  0  0
   40.7850   31.3430   44.8940 C   0  0  0  0  0  0  0  0  0  0  0  0
   39.9730   31.0610   45.9620 N   0  0  0  0  0  0  0  0  0  0  0  0
   35.7320   29.0300   49.2420 C   0  0  0  0  0  0  0  0  0  0  0  0
   35.7040   30.1520   48.4080 C   0  0  0  0  0  0  0  0  0  0  0  0
   34.6540   30.2850   47.5100 C   0  0  0  0  0  0  0  0  0  0  0  0
   33.7060   29.3020   47.4990 N   0  0  0  0  0  0  0  0  0  0  0  0
   33.7530   28.2290   48.3100 C   0  0  0  0  0  0  0  0  0  0  0  0
   34.7640   28.0900   49.1830 N   0  0  0  0  0  0  0  0  0  0  0  0
   32.7180   27.2610   48.2220 N   0  0  0  0  0  0  0  0  0  0  0  0
   32.9850   25.9910   47.5740 C   0  0  0  0  0  0  0  0  0  0  0  0
   31.6750   25.2330   47.5740 C   0  0  0  0  0  0  0  0  0  0  0  0
   30.6090   25.9590   47.0850 O   0  0  0  0  0  0  0  0  0  0  0  0
   30.3470   27.1170   47.7760 C   0  0  0  0  0  0  0  0  0  0  0  0
   31.4000   27.5150   48.7690 C   0  0  0  0  0  0  0  0  0  0  0  0
   36.2906   31.7893   50.5422 H   0  0  0  0  0  0  0  0  0  0  0  0
   38.2203   33.3834   50.5550 H   0  0  0  0  0  0  0  0  0  0  0  0
   39.8414   34.3135   45.8238 H   0  0  0  0  0  0  0  0  0  0  0  0
   41.3190   30.6038   44.2788 H   0  0  0  0  0  0  0  0  0  0  0  0
   36.5575   28.9108   49.9592 H   0  0  0  0  0  0  0  0  0  0  0  0
   34.5880   31.1494   46.8329 H   0  0  0  0  0  0  0  0  0  0  0  0
   33.3309   26.1545   46.5427 H   0  0  0  0  0  0  0  0  0  0  0  0
   33.7722   25.4306   48.0996 H   0  0  0  0  0  0  0  0  0  0  0  0
   31.7955   24.3334   46.9526 H   0  0  0  0  0  0  0  0  0  0  0  0
   31.4444   24.9942   48.6227 H   0  0  0  0  0  0  0  0  0  0  0  0
   30.2402   27.9331   47.0463 H   0  0  0  0  0  0  0  0  0  0  0  0
   29.4322   26.9282   48.3569 H   0  0  0  0  0  0  0  0  0  0  0  0
   31.2698   26.9309   49.6920 H   0  0  0  0  0  0  0  0  0  0  0  0
   31.3012   28.5881   48.9898 H   0  0  0  0  0  0  0  0  0  0  0  0
  1  2  2  0
  3  2  1  0
  4  3  2  0
  5  4  1  0
  6  5  2  0
  6  1  1  0
  7  5  1  0
  8  7  1  0
  9 10  1  0
  9  8  2  0
 10 11  2  0
 11  7  1  0
 13  1  1  0
 13 12  2  0
 14 13  1  0
 15 14  2  0
 15 16  1  0
 16 17  2  0
 17 12  1  0
 18 16  1  0
 18 23  1  0
 19 18  1  0
 20 19  1  0
 21 20  1  0
 21 22  1  0
 22 23  1  0
  2 24  1  0
  3 25  1  0
  8 26  1  0
 10 27  1  0
 12 28  1  0
 14 29  1  0
 19 30  1  0
 19 31  1  0
 20 32  1  0
 20 33  1  0
 22 34  1  0
 22 35  1  0
 23 36  1  0
 23 37  1  0
M  END
>  <minimizedAffinity>  (1) 
-7.12725544

>  <minimizedRMSD>  (1) 
0.528194785

$$$$
