
     RDKit          3D

 43 46  0  0  1  0  0  0  0  0999 V2000
   35.2530   29.0890   48.4690 C   0  0  2  0  0  0  0  0  0  0  0  0
   33.9810   29.3990   49.1130 C   0  0  0  0  0  0  0  0  0  0  0  0
   34.2740   27.9980   49.0150 C   0  0  1  0  0  0  0  0  0  0  0  0
   36.5050   29.1760   49.3620 C   0  0  0  0  0  0  0  0  0  0  0  0
   37.5310   32.6720   49.6100 C   0  0  0  0  0  0  0  0  0  0  0  0
   38.4220   32.8100   48.5280 C   0  0  0  0  0  0  0  0  0  0  0  0
   38.6560   31.6740   47.7200 C   0  0  0  0  0  0  0  0  0  0  0  0
   38.0040   30.5060   48.0340 N   0  0  0  0  0  0  0  0  0  0  0  0
   37.1660   30.4380   49.0780 C   0  0  0  0  0  0  0  0  0  0  0  0
   36.9370   31.5250   49.8590 N   0  0  0  0  0  0  0  0  0  0  0  0
   33.4830   27.2420   47.9670 C   0  0  0  0  0  0  0  0  0  0  0  0
   34.0120   26.1040   47.6530 O   0  0  0  0  0  0  0  0  0  0  0  0
   32.2990   27.6550   47.3590 O   0  0  0  0  0  0  0  0  0  0  0  0
   31.1430   27.9070   48.0500 C   0  0  0  0  0  0  0  0  0  0  0  0
   30.8600   27.4510   49.4320 C   0  0  0  0  0  0  0  0  0  0  0  0
   29.6700   27.7850   49.9760 C   0  0  0  0  0  0  0  0  0  0  0  0
   28.7220   28.5420   49.2660 C   0  0  0  0  0  0  0  0  0  0  0  0
   29.5490   28.8430   47.6360 S   0  0  0  0  0  0  0  0  0  0  0  0
   27.5170   28.9990   49.5440 N   0  0  0  0  0  0  0  0  0  0  0  0
   27.2150   30.4040   49.3600 C   0  0  0  0  0  0  0  0  0  0  0  0
   26.1970   30.4370   48.2220 C   0  0  0  0  0  0  0  0  0  0  0  0
   25.3790   29.3370   48.2530 O   0  0  0  0  0  0  0  0  0  0  0  0
   25.1610   28.7850   49.4920 C   0  0  0  0  0  0  0  0  0  0  0  0
   26.4470   28.1540   50.0390 C   0  0  0  0  0  0  0  0  0  0  0  0
   35.7266   29.3853   47.5214 H   0  0  0  0  0  0  0  0  0  0  0  0
   33.9862   29.8780   50.1032 H   0  0  0  0  0  0  0  0  0  0  0  0
   33.1159   30.0022   48.8004 H   0  0  0  0  0  0  0  0  0  0  0  0
   34.3463   27.1524   49.7148 H   0  0  0  0  0  0  0  0  0  0  0  0
   36.2123   29.1370   50.4216 H   0  0  0  0  0  0  0  0  0  0  0  0
   37.1818   28.3332   49.1580 H   0  0  0  0  0  0  0  0  0  0  0  0
   37.3284   33.5378   50.2576 H   0  0  0  0  0  0  0  0  0  0  0  0
   38.9188   33.7689   48.3189 H   0  0  0  0  0  0  0  0  0  0  0  0
   39.3424   31.7238   46.8619 H   0  0  0  0  0  0  0  0  0  0  0  0
   31.5959   26.8594   49.9963 H   0  0  0  0  0  0  0  0  0  0  0  0
   29.4369   27.4567   50.9996 H   0  0  0  0  0  0  0  0  0  0  0  0
   26.7847   30.8315   50.2777 H   0  0  0  0  0  0  0  0  0  0  0  0
   28.1135   30.9959   49.1314 H   0  0  0  0  0  0  0  0  0  0  0  0
   26.7334   30.4576   47.2619 H   0  0  0  0  0  0  0  0  0  0  0  0
   25.5742   31.3361   48.3393 H   0  0  0  0  0  0  0  0  0  0  0  0
   24.8225   29.5712   50.1829 H   0  0  0  0  0  0  0  0  0  0  0  0
   24.3945   28.0014   49.3998 H   0  0  0  0  0  0  0  0  0  0  0  0
   26.5623   27.1254   49.6665 H   0  0  0  0  0  0  0  0  0  0  0  0
   26.4430   28.0915   51.1372 H   0  0  0  0  0  0  0  0  0  0  0  0
  1  3  1  0
  1  2  1  0
  1  4  1  0
  3  2  1  0
  5 10  2  0
  6  5  1  0
  7  8  1  0
  7  6  2  0
  8  9  2  0
  9  4  1  0
  9 10  1  0
 11  3  1  0
 12 11  2  0
 13 11  1  0
 13 14  1  0
 14 15  2  0
 15 16  1  0
 17 19  1  0
 17 16  2  0
 18 14  1  0
 18 17  1  0
 19 24  1  0
 20 19  1  0
 21 22  1  0
 21 20  1  0
 22 23  1  0
 23 24  1  0
  1 25  1  6
  2 26  1  0
  2 27  1  0
  3 28  1  1
  4 29  1  0
  4 30  1  0
  5 31  1  0
  6 32  1  0
  7 33  1  0
 15 34  1  0
 16 35  1  0
 20 36  1  0
 20 37  1  0
 21 38  1  0
 21 39  1  0
 23 40  1  0
 23 41  1  0
 24 42  1  0
 24 43  1  0
M  ISO  8  25  13  26  13  27  13  28  13  29   8  30   8  31  14  32  14
M  ISO  8  33  14  34  14  35  14  36  13  37  13  38  13  39  13  40  13
M  ISO  3  41  13  42  13  43  13
M  END
>  <minimizedAffinity>  (1) 
-6.18367386

>  <minimizedRMSD>  (1) 
2.04399705

$$$$
