
     RDKit          3D

 41 45  0  0  1  0  0  0  0  0999 V2000
   35.2810   30.4510   47.2920 C   0  0  0  0  0  0  0  0  0  0  0  0
   36.4500   30.3490   48.0560 C   0  0  0  0  0  0  0  0  0  0  0  0
   36.4560   29.4520   49.0990 C   0  0  0  0  0  0  0  0  0  0  0  0
   35.3140   28.7150   49.3220 N   0  0  0  0  0  0  0  0  0  0  0  0
   34.2210   28.8330   48.5810 C   0  0  0  0  0  0  0  0  0  0  0  0
   34.1980   29.7050   47.5600 N   0  0  0  0  0  0  0  0  0  0  0  0
   37.5590   31.1420   47.7470 N   0  0  0  0  0  0  0  0  0  0  0  0
   38.0190   32.1710   48.4790 C   0  0  0  0  0  0  0  0  0  0  0  0
   39.0970   32.7380   47.9270 N   0  0  0  0  0  0  0  0  0  0  0  0
   39.3500   32.0480   46.7880 C   0  0  0  0  0  0  0  0  0  0  0  0
   40.2890   32.1280   45.8000 C   0  0  0  0  0  0  0  0  0  0  0  0
   40.3320   31.2960   44.7270 N   0  0  0  0  0  0  0  0  0  0  0  0
   39.3750   30.3490   44.6720 C   0  0  0  0  0  0  0  0  0  0  0  0
   38.4520   30.2720   45.6450 N   0  0  0  0  0  0  0  0  0  0  0  0
   38.3760   31.0610   46.7020 C   0  0  0  0  0  0  0  0  0  0  0  0
   33.0300   27.9850   48.9150 C   0  0  2  0  0  0  0  0  0  0  0  0
   32.8250   26.8250   47.8800 C   0  0  0  0  0  0  0  0  0  0  0  0
   31.8720   27.9370   48.0070 C   0  0  1  0  0  0  0  0  0  0  0  0
   30.5510   27.6540   48.4220 N   0  0  0  0  0  0  0  0  0  0  0  0
   29.4970   28.0840   47.5340 C   0  0  0  0  0  0  0  0  0  0  0  0
   28.3810   27.0520   47.7260 C   0  0  0  0  0  0  0  0  0  0  0  0
   28.2480   26.7150   49.0500 O   0  0  0  0  0  0  0  0  0  0  0  0
   28.7270   27.6520   49.9290 C   0  0  0  0  0  0  0  0  0  0  0  0
   30.2320   27.8560   49.7960 C   0  0  0  0  0  0  0  0  0  0  0  0
   35.2495   31.1600   46.4515 H   0  0  0  0  0  0  0  0  0  0  0  0
   37.3449   29.3273   49.7349 H   0  0  0  0  0  0  0  0  0  0  0  0
   37.5624   32.5073   49.4215 H   0  0  0  0  0  0  0  0  0  0  0  0
   41.0561   32.9126   45.8775 H   0  0  0  0  0  0  0  0  0  0  0  0
   39.3496   29.6399   43.8315 H   0  0  0  0  0  0  0  0  0  0  0  0
   33.1192   28.1349   50.0011 H   0  0  0  0  0  0  0  0  0  0  0  0
   32.5510   25.8163   48.2227 H   0  0  0  0  0  0  0  0  0  0  0  0
   33.4151   26.3792   47.0657 H   0  0  0  0  0  0  0  0  0  0  0  0
   31.4600   28.6983   47.3282 H   0  0  0  0  0  0  0  0  0  0  0  0
   29.8462   28.0881   46.4909 H   0  0  0  0  0  0  0  0  0  0  0  0
   29.1595   29.1076   47.7539 H   0  0  0  0  0  0  0  0  0  0  0  0
   27.4323   27.4761   47.3653 H   0  0  0  0  0  0  0  0  0  0  0  0
   28.6380   26.1464   47.1569 H   0  0  0  0  0  0  0  0  0  0  0  0
   28.2219   28.6097   49.7348 H   0  0  0  0  0  0  0  0  0  0  0  0
   28.5258   27.2904   50.9482 H   0  0  0  0  0  0  0  0  0  0  0  0
   30.7702   27.1285   50.4214 H   0  0  0  0  0  0  0  0  0  0  0  0
   30.5264   28.8627   50.1275 H   0  0  0  0  0  0  0  0  0  0  0  0
  1  6  2  0
  1  2  1  0
  2  3  2  0
  3  4  1  0
  5 16  1  0
  5  4  2  0
  6  5  1  0
  7  2  1  0
  7  8  1  0
  9  8  2  0
 10  9  1  0
 11 10  2  0
 12 11  1  0
 13 12  2  0
 13 14  1  0
 14 15  2  0
 15 10  1  0
 15  7  1  0
 17 18  1  0
 17 16  1  0
 18 19  1  0
 18 16  1  0
 19 24  1  0
 20 21  1  0
 20 19  1  0
 21 22  1  0
 22 23  1  0
 24 23  1  0
  1 25  1  0
  3 26  1  0
  8 27  1  0
 11 28  1  0
 13 29  1  0
 16 30  1  1
 17 31  1  0
 17 32  1  0
 18 33  1  6
 20 34  1  0
 20 35  1  0
 21 36  1  0
 21 37  1  0
 23 38  1  0
 23 39  1  0
 24 40  1  0
 24 41  1  0
M  ISO  8  25  14  26  14  27  14  28  14  29  14  30  13  31  13  32  13
M  ISO  8  33  13  34  13  35  13  36  13  37  13  38  13  39  13  40  13
M  ISO  1  41  13
M  END
>  <minimizedAffinity>  (1) 
-6.10932827

>  <minimizedRMSD>  (1) 
1.11778462

$$$$
