
     RDKit          3D

 38 39  0  0  0  0  0  0  0  0999 V2000
   37.8260   31.0710   47.0470 C   0  0  0  0  0  0  0  0  0  0  0  0
   38.3760   31.8120   45.9930 N   0  0  0  0  0  0  0  0  0  0  0  0
   39.4680   32.5690   45.9800 C   0  0  0  0  0  0  0  0  0  0  0  0
   39.9390   33.2650   44.8960 C   0  0  0  0  0  0  0  0  0  0  0  0
   39.2480   33.1980   43.7020 C   0  0  0  0  0  0  0  0  0  0  0  0
   39.6420   33.8130   42.6950 O   0  0  0  0  0  0  0  0  0  0  0  0
   38.1410   32.4460   43.6760 N   0  0  0  0  0  0  0  0  0  0  0  0
   37.7570   31.8020   44.7820 C   0  0  0  0  0  0  0  0  0  0  0  0
   36.7020   31.1200   44.6470 O   0  0  0  0  0  0  0  0  0  0  0  0
   37.4090   32.3720   42.4310 C   0  0  0  0  0  0  0  0  0  0  0  0
   37.4940   31.0460   41.7400 C   0  0  0  0  0  0  0  0  0  0  0  0
   35.9540   32.7330   42.7560 C   0  0  0  0  0  0  0  0  0  0  0  0
   37.8590   33.4210   41.4140 C   0  0  0  0  0  0  0  0  0  0  0  0
   38.2690   31.3500   48.4390 C   0  0  0  0  0  0  0  0  0  0  0  0
   35.6100   29.3470   50.2310 C   0  0  0  0  0  0  0  0  0  0  0  0
   36.3070   29.9970   49.1980 C   0  0  0  0  0  0  0  0  0  0  0  0
   37.4930   30.6510   49.4700 C   0  0  0  0  0  0  0  0  0  0  0  0
   37.9370   30.6300   50.7510 N   0  0  0  0  0  0  0  0  0  0  0  0
   37.2920   30.0220   51.7340 C   0  0  0  0  0  0  0  0  0  0  0  0
   36.1410   29.3850   51.4830 N   0  0  0  0  0  0  0  0  0  0  0  0
   38.0473   30.0125   46.8454 H   0  0  0  0  0  0  0  0  0  0  0  0
   36.7655   31.3632   47.0466 H   0  0  0  0  0  0  0  0  0  0  0  0
   40.0415   32.6436   46.9157 H   0  0  0  0  0  0  0  0  0  0  0  0
   40.8551   33.8686   44.9765 H   0  0  0  0  0  0  0  0  0  0  0  0
   37.5454   30.2438   42.4909 H   0  0  0  0  0  0  0  0  0  0  0  0
   36.6032   30.9027   41.1108 H   0  0  0  0  0  0  0  0  0  0  0  0
   38.3958   31.0176   41.1108 H   0  0  0  0  0  0  0  0  0  0  0  0
   35.8195   32.7664   43.8472 H   0  0  0  0  0  0  0  0  0  0  0  0
   35.7158   33.7175   42.3269 H   0  0  0  0  0  0  0  0  0  0  0  0
   35.2833   31.9740   42.3269 H   0  0  0  0  0  0  0  0  0  0  0  0
   38.2389   34.3066   41.9444 H   0  0  0  0  0  0  0  0  0  0  0  0
   38.6563   33.0015   40.7829 H   0  0  0  0  0  0  0  0  0  0  0  0
   37.0055   33.7097   40.7829 H   0  0  0  0  0  0  0  0  0  0  0  0
   39.3216   31.0447   48.5335 H   0  0  0  0  0  0  0  0  0  0  0  0
   38.1201   32.4267   48.6077 H   0  0  0  0  0  0  0  0  0  0  0  0
   34.6632   28.8231   50.0331 H   0  0  0  0  0  0  0  0  0  0  0  0
   35.9081   29.9849   48.1729 H   0  0  0  0  0  0  0  0  0  0  0  0
   37.7006   30.0399   52.7551 H   0  0  0  0  0  0  0  0  0  0  0  0
  1 14  1  0
  2  1  1  0
  3  2  1  0
  4  3  2  0
  5  4  1  0
  6  5  2  0
  7  5  1  0
  7  8  1  0
  8  2  1  0
  9  8  2  0
 10 12  1  0
 10  7  1  0
 11 10  1  0
 13 10  1  0
 14 17  1  0
 15 20  2  0
 16 17  2  0
 16 15  1  0
 17 18  1  0
 18 19  2  0
 20 19  1  0
  1 21  1  0
  1 22  1  0
  3 23  1  0
  4 24  1  0
 11 25  1  0
 11 26  1  0
 11 27  1  0
 12 28  1  0
 12 29  1  0
 12 30  1  0
 13 31  1  0
 13 32  1  0
 13 33  1  0
 14 34  1  0
 14 35  1  0
 15 36  1  0
 16 37  1  0
 19 38  1  0
M  ISO  8  21   8  22   8  23  14  24  14  25   8  26   8  27   8  28   8
M  ISO  8  29   8  30   8  31   8  32   8  33   8  34   8  35   8  36  14
M  ISO  2  37  14  38  14
M  END
>  <minimizedAffinity>  (1) 
-5.12744427

>  <minimizedRMSD>  (1) 
1.17469823

$$$$
