
     RDKit          3D

 17 17  0  0  0  0  0  0  0  0999 V2000
   36.8960   31.3940   49.9210 C   0  0  0  0  0  0  0  0  0  0  0  0
   35.6470   30.8210   49.5470 C   0  0  0  0  0  0  0  0  0  0  0  0
   35.2060   29.6940   50.2810 C   0  0  0  0  0  0  0  0  0  0  0  0
   35.9950   29.2430   51.2810 N   0  0  0  0  0  0  0  0  0  0  0  0
   37.1670   29.8180   51.5970 C   0  0  0  0  0  0  0  0  0  0  0  0
   37.6120   30.8820   50.9250 N   0  0  0  0  0  0  0  0  0  0  0  0
   37.3270   32.4840   49.2140 O   0  0  0  0  0  0  0  0  0  0  0  0
   38.6700   32.5450   48.7780 C   0  0  0  0  0  0  0  0  0  0  0  0
   39.2150   33.8870   49.2200 C   0  0  0  0  0  0  0  0  0  0  0  0
   35.0499   31.2369   48.7221 H   0  0  0  0  0  0  0  0  0  0  0  0
   34.2514   29.2010   50.0449 H   0  0  0  0  0  0  0  0  0  0  0  0
   37.7684   29.4064   52.4209 H   0  0  0  0  0  0  0  0  0  0  0  0
   39.2531   31.7312   49.2337 H   0  0  0  0  0  0  0  0  0  0  0  0
   38.7349   32.4339   47.6855 H   0  0  0  0  0  0  0  0  0  0  0  0
   39.2331   33.9315   50.3190 H   0  0  0  0  0  0  0  0  0  0  0  0
   40.2360   34.0142   48.8311 H   0  0  0  0  0  0  0  0  0  0  0  0
   38.5718   34.6901   48.8311 H   0  0  0  0  0  0  0  0  0  0  0  0
  1  6  2  0
  2  1  1  0
  2  3  2  0
  3  4  1  0
  4  5  2  0
  6  5  1  0
  7  1  1  0
  8  7  1  0
  8  9  1  0
  2 10  1  0
  3 11  1  0
  5 12  1  0
  8 13  1  0
  8 14  1  0
  9 15  1  0
  9 16  1  0
  9 17  1  0
M  ISO  8  10  14  11  14  12  14  13   8  14   8  15   8  16   8  17   8
M  END
>  <minimizedAffinity>  (1) 
-3.67448592

>  <minimizedRMSD>  (1) 
3.9829855

$$$$
