
     RDKit          3D

 46 49  0  0  1  0  0  0  0  0999 V2000
   32.4770   27.8980   47.5470 C   0  0  2  0  0  0  0  0  0  0  0  0
   35.7480   30.1640   48.3780 C   0  0  0  0  0  0  0  0  0  0  0  0
   35.6550   29.0260   49.1820 C   0  0  0  0  0  0  0  0  0  0  0  0
   34.5660   28.2280   48.9590 C   0  0  0  0  0  0  0  0  0  0  0  0
   33.7050   28.5710   48.0320 C   0  0  0  0  0  0  0  0  0  0  0  0
   34.3050   30.1320   47.2950 S   0  0  0  0  0  0  0  0  0  0  0  0
   38.0750   32.7500   49.5810 C   0  0  0  0  0  0  0  0  0  0  0  0
   38.8880   32.9880   48.4740 C   0  0  0  0  0  0  0  0  0  0  0  0
   38.6270   32.2640   47.3230 C   0  0  0  0  0  0  0  0  0  0  0  0
   37.6030   31.3630   47.3210 N   0  0  0  0  0  0  0  0  0  0  0  0
   36.8570   31.1810   48.4230 C   0  0  0  0  0  0  0  0  0  0  0  0
   37.0410   31.8530   49.6080 N   0  0  0  0  0  0  0  0  0  0  0  0
   31.8860   28.6370   46.4560 C   0  0  0  0  0  0  0  0  0  0  0  0
   31.5820   27.6390   48.7520 C   0  0  0  0  0  0  0  0  0  0  0  0
   30.6640   26.6690   48.5370 O   0  0  0  0  0  0  0  0  0  0  0  0
   29.3520   26.9530   48.2080 C   0  0  0  0  0  0  0  0  0  0  0  0
   28.3850   26.5680   47.3210 C   0  0  0  0  0  0  0  0  0  0  0  0
   27.2680   27.3290   47.6050 C   0  0  0  0  0  0  0  0  0  0  0  0
   27.5940   28.1480   48.6530 C   0  0  0  0  0  0  0  0  0  0  0  0
   28.8360   27.8900   48.9760 O   0  0  0  0  0  0  0  0  0  0  0  0
   26.6820   29.0810   49.2250 N   0  0  0  0  0  0  0  0  0  0  0  0
   26.8820   30.5190   49.2390 C   0  0  0  0  0  0  0  0  0  0  0  0
   25.4940   30.9710   48.7750 C   0  0  0  0  0  0  0  0  0  0  0  0
   24.5430   29.8430   49.1150 C   0  0  0  0  0  0  0  0  0  0  0  0
   25.4110   28.8540   49.8930 C   0  0  0  0  0  0  0  0  0  0  0  0
   32.6847   26.9152   47.0988 H   0  0  0  0  0  0  0  0  0  0  0  0
   36.4092   28.7863   49.9460 H   0  0  0  0  0  0  0  0  0  0  0  0
   34.4153   27.3120   49.5491 H   0  0  0  0  0  0  0  0  0  0  0  0
   38.2785   33.3233   50.4975 H   0  0  0  0  0  0  0  0  0  0  0  0
   39.7056   33.7228   48.5133 H   0  0  0  0  0  0  0  0  0  0  0  0
   39.2383   32.4137   46.4208 H   0  0  0  0  0  0  0  0  0  0  0  0
   31.2466   29.4365   46.8585 H   0  0  0  0  0  0  0  0  0  0  0  0
   32.6820   29.0796   45.8392 H   0  0  0  0  0  0  0  0  0  0  0  0
   31.2792   27.9577   45.8392 H   0  0  0  0  0  0  0  0  0  0  0  0
   32.2156   27.3387   49.5996 H   0  0  0  0  0  0  0  0  0  0  0  0
   31.0318   28.5695   48.9557 H   0  0  0  0  0  0  0  0  0  0  0  0
   28.4784   25.8030   46.5361 H   0  0  0  0  0  0  0  0  0  0  0  0
   26.2987   27.2854   47.0868 H   0  0  0  0  0  0  0  0  0  0  0  0
   27.1191   30.8907   50.2468 H   0  0  0  0  0  0  0  0  0  0  0  0
   27.7214   30.8812   48.6273 H   0  0  0  0  0  0  0  0  0  0  0  0
   25.4959   31.1534   47.6902 H   0  0  0  0  0  0  0  0  0  0  0  0
   25.1941   31.9082   49.2667 H   0  0  0  0  0  0  0  0  0  0  0  0
   23.7107   30.2062   49.7358 H   0  0  0  0  0  0  0  0  0  0  0  0
   24.0816   29.3932   48.2235 H   0  0  0  0  0  0  0  0  0  0  0  0
   25.0624   27.8177   49.7725 H   0  0  0  0  0  0  0  0  0  0  0  0
   25.4215   28.9947   50.9839 H   0  0  0  0  0  0  0  0  0  0  0  0
  1  5  1  0
  1 14  1  0
  2 11  1  0
  2  3  2  0
  4  3  1  0
  5  4  2  0
  6  5  1  0
  6  2  1  0
  7 12  2  0
  8  7  1  0
  9  8  2  0
 10  9  1  0
 10 11  2  0
 11 12  1  0
 13  1  1  0
 15 14  1  0
 16 15  1  0
 16 20  1  0
 17 18  1  0
 17 16  2  0
 18 19  2  0
 19 20  1  0
 19 21  1  0
 21 22  1  0
 21 25  1  0
 23 24  1  0
 23 22  1  0
 24 25  1  0
  1 26  1  6
  3 27  1  0
  4 28  1  0
  7 29  1  0
  8 30  1  0
  9 31  1  0
 13 32  1  0
 13 33  1  0
 13 34  1  0
 14 35  1  0
 14 36  1  0
 17 37  1  0
 18 38  1  0
 22 39  1  0
 22 40  1  0
 23 41  1  0
 23 42  1  0
 24 43  1  0
 24 44  1  0
 25 45  1  0
 25 46  1  0
M  ISO  8  26   8  27  14  28  14  29  14  30  14  31  14  32   8  33   8
M  ISO  8  34   8  35   8  36   8  37  14  38  14  39  13  40  13  41  13
M  ISO  5  42  13  43  13  44  13  45  13  46  13
M  END
>  <minimizedAffinity>  (1) 
-6.58402443

>  <minimizedRMSD>  (1) 
2.98545814

$$$$
