
     RDKit          3D

 27 29  0  0  0  0  0  0  0  0999 V2000
   38.0900   31.9020   48.8510 C   0  0  0  0  0  0  0  0  0  0  0  0
   38.6130   33.1100   49.0850 N   0  0  0  0  0  0  0  0  0  0  0  0
   39.3490   33.4910   48.0920 O   0  0  0  0  0  0  0  0  0  0  0  0
   39.3200   32.5330   47.1850 C   0  0  0  0  0  0  0  0  0  0  0  0
   38.5450   31.5220   47.6200 N   0  0  0  0  0  0  0  0  0  0  0  0
   39.9770   32.5070   45.9310 N   0  0  0  0  0  0  0  0  0  0  0  0
   40.9680   31.5680   45.4130 C   0  0  0  0  0  0  0  0  0  0  0  0
   40.4380   31.2560   44.0290 C   0  0  0  0  0  0  0  0  0  0  0  0
   39.7910   32.5410   43.5730 C   0  0  0  0  0  0  0  0  0  0  0  0
   39.8290   33.4310   44.8130 C   0  0  0  0  0  0  0  0  0  0  0  0
   36.7030   29.6010   51.4790 C   0  0  0  0  0  0  0  0  0  0  0  0
   37.6260   30.4330   50.8240 C   0  0  0  0  0  0  0  0  0  0  0  0
   37.2050   31.0170   49.6180 C   0  0  0  0  0  0  0  0  0  0  0  0
   35.9470   30.7630   49.1390 N   0  0  0  0  0  0  0  0  0  0  0  0
   35.1050   29.9540   49.8140 C   0  0  0  0  0  0  0  0  0  0  0  0
   35.4770   29.3720   50.9820 N   0  0  0  0  0  0  0  0  0  0  0  0
   41.9644   32.0311   45.3613 H   0  0  0  0  0  0  0  0  0  0  0  0
   41.0957   30.6756   46.0434 H   0  0  0  0  0  0  0  0  0  0  0  0
   41.2585   30.9728   43.3533 H   0  0  0  0  0  0  0  0  0  0  0  0
   39.7335   30.4112   44.0317 H   0  0  0  0  0  0  0  0  0  0  0  0
   40.3601   32.9945   42.7481 H   0  0  0  0  0  0  0  0  0  0  0  0
   38.7709   32.3899   43.1902 H   0  0  0  0  0  0  0  0  0  0  0  0
   40.6826   34.1233   44.7670 H   0  0  0  0  0  0  0  0  0  0  0  0
   38.9263   34.0528   44.9053 H   0  0  0  0  0  0  0  0  0  0  0  0
   36.9931   29.1233   52.4265 H   0  0  0  0  0  0  0  0  0  0  0  0
   38.6292   30.6181   51.2354 H   0  0  0  0  0  0  0  0  0  0  0  0
   34.0996   29.7627   49.4108 H   0  0  0  0  0  0  0  0  0  0  0  0
  1  2  2  0
  1 13  1  0
  3  2  1  0
  4  5  2  0
  4  3  1  0
  5  1  1  0
  6  4  1  0
  7  6  1  0
  8  7  1  0
  9  8  1  0
  9 10  1  0
 10  6  1  0
 12 11  2  0
 13 12  1  0
 14 13  2  0
 14 15  1  0
 15 16  2  0
 16 11  1  0
  7 17  1  0
  7 18  1  0
  8 19  1  0
  8 20  1  0
  9 21  1  0
  9 22  1  0
 10 23  1  0
 10 24  1  0
 11 25  1  0
 12 26  1  0
 15 27  1  0
M  ISO  8  17  13  18  13  19  13  20  13  21  13  22  13  23  13  24  13
M  ISO  3  25  14  26  14  27  14
M  END
>  <minimizedAffinity>  (1) 
-5.98182583

>  <minimizedRMSD>  (1) 
1.31498313

$$$$
