
     RDKit          3D

 42 45  0  0  1  0  0  0  0  0999 V2000
   35.2930   29.2450   48.7300 C   0  0  2  0  0  0  0  0  0  0  0  0
   34.1070   29.2390   49.5790 C   0  0  0  0  0  0  0  0  0  0  0  0
   34.5120   27.9440   49.1190 C   0  0  1  0  0  0  0  0  0  0  0  0
   36.6480   29.2860   49.4520 C   0  0  0  0  0  0  0  0  0  0  0  0
   37.7180   32.7750   49.5430 C   0  0  0  0  0  0  0  0  0  0  0  0
   38.5540   32.8730   48.4080 C   0  0  0  0  0  0  0  0  0  0  0  0
   38.7300   31.7080   47.6250 C   0  0  0  0  0  0  0  0  0  0  0  0
   38.0870   30.5640   48.0090 N   0  0  0  0  0  0  0  0  0  0  0  0
   37.3070   30.5310   49.0950 C   0  0  0  0  0  0  0  0  0  0  0  0
   37.1300   31.6440   49.8560 N   0  0  0  0  0  0  0  0  0  0  0  0
   33.6530   27.3420   48.0250 C   0  0  0  0  0  0  0  0  0  0  0  0
   33.9210   26.1030   47.7860 O   0  0  0  0  0  0  0  0  0  0  0  0
   32.6530   27.9840   47.3080 O   0  0  0  0  0  0  0  0  0  0  0  0
   31.3600   28.1110   47.7450 C   0  0  0  0  0  0  0  0  0  0  0  0
   30.8410   27.6080   49.0400 C   0  0  0  0  0  0  0  0  0  0  0  0
   29.5390   27.8170   49.3220 C   0  0  0  0  0  0  0  0  0  0  0  0
   28.6910   28.4910   48.4270 C   0  0  0  0  0  0  0  0  0  0  0  0
   29.8050   28.9000   46.9990 S   0  0  0  0  0  0  0  0  0  0  0  0
   27.4170   28.8220   48.4560 N   0  0  0  0  0  0  0  0  0  0  0  0
   26.9620   30.1970   48.5110 C   0  0  0  0  0  0  0  0  0  0  0  0
   25.5100   30.1400   48.9370 C   0  0  0  0  0  0  0  0  0  0  0  0
   25.2410   28.7010   49.2870 C   0  0  0  0  0  0  0  0  0  0  0  0
   26.2520   27.9620   48.4400 C   0  0  0  0  0  0  0  0  0  0  0  0
   35.5901   29.8039   47.8304 H   0  0  0  0  0  0  0  0  0  0  0  0
   34.2132   29.4837   50.6462 H   0  0  0  0  0  0  0  0  0  0  0  0
   33.1517   29.7817   49.5253 H   0  0  0  0  0  0  0  0  0  0  0  0
   34.7647   26.9809   49.5865 H   0  0  0  0  0  0  0  0  0  0  0  0
   36.4930   29.2439   50.5402 H   0  0  0  0  0  0  0  0  0  0  0  0
   37.2665   28.4262   49.1550 H   0  0  0  0  0  0  0  0  0  0  0  0
   37.5573   33.6611   50.1746 H   0  0  0  0  0  0  0  0  0  0  0  0
   39.0490   33.8190   48.1434 H   0  0  0  0  0  0  0  0  0  0  0  0
   39.3684   31.7221   46.7293 H   0  0  0  0  0  0  0  0  0  0  0  0
   31.4974   27.0811   49.7481 H   0  0  0  0  0  0  0  0  0  0  0  0
   29.1309   27.4510   50.2757 H   0  0  0  0  0  0  0  0  0  0  0  0
   27.5531   30.7661   49.2436 H   0  0  0  0  0  0  0  0  0  0  0  0
   27.0770   30.6984   47.5387 H   0  0  0  0  0  0  0  0  0  0  0  0
   25.3421   30.7848   49.8122 H   0  0  0  0  0  0  0  0  0  0  0  0
   24.8402   30.4946   48.1398 H   0  0  0  0  0  0  0  0  0  0  0  0
   25.4082   28.5148   50.3581 H   0  0  0  0  0  0  0  0  0  0  0  0
   24.2024   28.3914   49.0989 H   0  0  0  0  0  0  0  0  0  0  0  0
   25.8791   27.8277   47.4139 H   0  0  0  0  0  0  0  0  0  0  0  0
   26.4657   26.9521   48.8201 H   0  0  0  0  0  0  0  0  0  0  0  0
  1  3  1  0
  1  4  1  0
  1  2  1  0
  3  2  1  0
  5 10  2  0
  6  5  1  0
  7  8  1  0
  7  6  2  0
  8  9  2  0
  9  4  1  0
  9 10  1  0
 11  3  1  0
 12 11  2  0
 13 14  1  0
 13 11  1  0
 14 15  2  0
 15 16  1  0
 17 19  1  0
 17 16  2  0
 18 14  1  0
 18 17  1  0
 19 20  1  0
 20 21  1  0
 21 22  1  0
 23 19  1  0
 23 22  1  0
  1 24  1  6
  2 25  1  0
  2 26  1  0
  3 27  1  1
  4 28  1  0
  4 29  1  0
  5 30  1  0
  6 31  1  0
  7 32  1  0
 15 33  1  0
 16 34  1  0
 20 35  1  0
 20 36  1  0
 21 37  1  0
 21 38  1  0
 22 39  1  0
 22 40  1  0
 23 41  1  0
 23 42  1  0
M  ISO  8  24  13  25  13  26  13  27  13  28   8  29   8  30  14  31  14
M  ISO  8  32  14  33  14  34  14  35  13  36  13  37  13  38  13  39  13
M  ISO  3  40  13  41  13  42  13
M  END
>  <minimizedAffinity>  (1) 
-6.31849194

>  <minimizedRMSD>  (1) 
1.573403

$$$$
