
     RDKit          3D

 31 33  0  0  0  0  0  0  0  0999 V2000
   35.6170   29.0430   49.3580 C   0  0  0  0  0  0  0  0  0  0  0  0
   35.6860   30.0600   48.4290 C   0  0  0  0  0  0  0  0  0  0  0  0
   34.7290   30.0760   47.4140 C   0  0  0  0  0  0  0  0  0  0  0  0
   33.7850   29.1010   47.3860 N   0  0  0  0  0  0  0  0  0  0  0  0
   33.7440   28.1060   48.3220 C   0  0  0  0  0  0  0  0  0  0  0  0
   34.6630   28.0860   49.3020 N   0  0  0  0  0  0  0  0  0  0  0  0
   32.7320   27.1090   48.2450 N   0  0  0  0  0  0  0  0  0  0  0  0
   31.4000   27.4100   48.6220 C   0  0  0  0  0  0  0  0  0  0  0  0
   31.1870   28.2870   49.5460 N   0  0  0  0  0  0  0  0  0  0  0  0
   30.3100   26.7510   47.9880 N   0  0  0  0  0  0  0  0  0  0  0  0
   30.2060   28.5090   49.8250 H   0  0  0  0  0  0  0  0  0  0  0  0
   36.7320   31.0500   48.5490 C   0  0  0  0  0  0  0  0  0  0  0  0
   36.8610   31.8370   49.6780 C   0  0  0  0  0  0  0  0  0  0  0  0
   37.9160   32.7600   49.6720 C   0  0  0  0  0  0  0  0  0  0  0  0
   38.7730   32.9030   48.6470 N   0  0  0  0  0  0  0  0  0  0  0  0
   38.5950   32.1090   47.5770 C   0  0  0  0  0  0  0  0  0  0  0  0
   37.5820   31.1920   47.5310 N   0  0  0  0  0  0  0  0  0  0  0  0
   39.4820   32.2250   46.4630 N   0  0  0  0  0  0  0  0  0  0  0  0
   39.9630   33.2290   45.7210 C   0  0  0  0  0  0  0  0  0  0  0  0
   40.7810   32.7000   44.7840 N   0  0  0  0  0  0  0  0  0  0  0  0
   40.7770   31.3420   44.9850 C   0  0  0  0  0  0  0  0  0  0  0  0
   39.9610   31.0520   46.0380 N   0  0  0  0  0  0  0  0  0  0  0  0
   36.3599   29.0092   50.1685 H   0  0  0  0  0  0  0  0  0  0  0  0
   34.7393   30.8660   46.6487 H   0  0  0  0  0  0  0  0  0  0  0  0
   32.9691   26.1631   47.9133 H   0  0  0  0  0  0  0  0  0  0  0  0
   29.3429   26.9724   48.2647 H   0  0  0  0  0  0  0  0  0  0  0  0
   30.4880   26.0525   47.2523 H   0  0  0  0  0  0  0  0  0  0  0  0
   36.1747   31.7443   50.5327 H   0  0  0  0  0  0  0  0  0  0  0  0
   38.0496   33.4025   50.5548 H   0  0  0  0  0  0  0  0  0  0  0  0
   39.7332   34.2969   45.8507 H   0  0  0  0  0  0  0  0  0  0  0  0
   41.3410   30.6067   44.3923 H   0  0  0  0  0  0  0  0  0  0  0  0
  2 12  1  0
  2  1  2  0
  3  2  1  0
  4  3  2  0
  4  5  1  0
  5  6  2  0
  6  1  1  0
  7  5  1  0
  7  8  1  0
  8  9  2  0
  9 11  1  0
 10  8  1  0
 12 13  2  0
 14 13  1  0
 15 14  2  0
 16 15  1  0
 17 16  2  0
 17 12  1  0
 18 16  1  0
 19 18  1  0
 20 21  1  0
 20 19  2  0
 21 22  2  0
 22 18  1  0
  1 23  1  0
  3 24  1  0
  7 25  1  0
 10 26  1  0
 10 27  1  0
 13 28  1  0
 14 29  1  0
 19 30  1  0
 21 31  1  0
M  END
>  <minimizedAffinity>  (1) 
-7.20369577

>  <minimizedRMSD>  (1) 
0.490445137

$$$$
