
     RDKit          3D

 41 43  0  0  1  0  0  0  0  0999 V2000
   31.8400   28.0630   46.7220 C   0  0  2  0  0  0  0  0  0  0  0  0
   35.1690   29.5250   48.5550 C   0  0  0  0  0  0  0  0  0  0  0  0
   34.7290   28.3130   49.0690 C   0  0  0  0  0  0  0  0  0  0  0  0
   33.6250   27.7610   48.5260 C   0  0  0  0  0  0  0  0  0  0  0  0
   33.0270   28.3970   47.5460 C   0  0  0  0  0  0  0  0  0  0  0  0
   33.9860   29.9230   47.2520 S   0  0  0  0  0  0  0  0  0  0  0  0
   37.9700   30.7820   50.5510 C   0  0  0  0  0  0  0  0  0  0  0  0
   38.5500   31.7580   49.7100 C   0  0  0  0  0  0  0  0  0  0  0  0
   37.9690   31.9740   48.4690 C   0  0  0  0  0  0  0  0  0  0  0  0
   36.8750   31.2390   48.1220 N   0  0  0  0  0  0  0  0  0  0  0  0
   36.3740   30.3270   48.9700 C   0  0  0  0  0  0  0  0  0  0  0  0
   36.8780   30.0360   50.2280 N   0  0  0  0  0  0  0  0  0  0  0  0
   31.7800   28.8810   45.5320 C   0  0  0  0  0  0  0  0  0  0  0  0
   30.6160   28.1190   47.6310 C   0  0  0  0  0  0  0  0  0  0  0  0
   29.6620   27.2120   47.2800 O   0  0  0  0  0  0  0  0  0  0  0  0
   28.5470   27.5680   46.5500 C   0  0  0  0  0  0  0  0  0  0  0  0
   27.6200   26.9680   45.7350 C   0  0  0  0  0  0  0  0  0  0  0  0
   26.7630   27.9870   45.3490 C   0  0  0  0  0  0  0  0  0  0  0  0
   27.2020   29.1620   45.9420 C   0  0  0  0  0  0  0  0  0  0  0  0
   28.2580   28.8300   46.6340 O   0  0  0  0  0  0  0  0  0  0  0  0
   26.5670   30.4250   45.7740 N   0  0  0  0  0  0  0  0  0  0  0  0
   27.3690   31.5800   45.5970 C   0  0  0  0  0  0  0  0  0  0  0  0
   28.4640   31.5310   44.9420 N   0  0  0  0  0  0  0  0  0  0  0  0
   26.9400   32.8330   46.1650 N   0  0  0  0  0  0  0  0  0  0  0  0
   28.7890   30.6410   44.5250 H   0  0  0  0  0  0  0  0  0  0  0  0
   31.8936   27.0416   46.3173 H   0  0  0  0  0  0  0  0  0  0  0  0
   35.2640   27.8185   49.8932 H   0  0  0  0  0  0  0  0  0  0  0  0
   33.2351   26.8010   48.8954 H   0  0  0  0  0  0  0  0  0  0  0  0
   38.4327   30.6133   51.5346 H   0  0  0  0  0  0  0  0  0  0  0  0
   39.4345   32.3287   50.0293 H   0  0  0  0  0  0  0  0  0  0  0  0
   38.3831   32.7237   47.7787 H   0  0  0  0  0  0  0  0  0  0  0  0
   31.7023   29.9401   45.8187 H   0  0  0  0  0  0  0  0  0  0  0  0
   32.6917   28.7284   44.9358 H   0  0  0  0  0  0  0  0  0  0  0  0
   30.9003   28.5970   44.9358 H   0  0  0  0  0  0  0  0  0  0  0  0
   30.9343   27.9140   48.6638 H   0  0  0  0  0  0  0  0  0  0  0  0
   30.1744   29.1219   47.5346 H   0  0  0  0  0  0  0  0  0  0  0  0
   27.5682   25.9070   45.4495 H   0  0  0  0  0  0  0  0  0  0  0  0
   25.8892   27.8824   44.6891 H   0  0  0  0  0  0  0  0  0  0  0  0
   25.5396   30.4983   45.7810 H   0  0  0  0  0  0  0  0  0  0  0  0
   27.5157   33.6782   46.0420 H   0  0  0  0  0  0  0  0  0  0  0  0
   26.0577   32.8834   46.6940 H   0  0  0  0  0  0  0  0  0  0  0  0
  1  5  1  0
  1 14  1  0
  2 11  1  0
  2  3  2  0
  4  3  1  0
  5  4  2  0
  6  5  1  0
  6  2  1  0
  8  7  2  0
  9  8  1  0
 10  9  2  0
 10 11  1  0
 11 12  2  0
 12  7  1  0
 13  1  1  0
 15 14  1  0
 16 20  1  0
 16 15  1  0
 17 16  2  0
 18 17  1  0
 18 19  2  0
 19 20  1  0
 21 19  1  0
 22 21  1  0
 22 24  1  0
 23 22  2  0
 25 23  1  0
  1 26  1  6
  3 27  1  0
  4 28  1  0
  7 29  1  0
  8 30  1  0
  9 31  1  0
 13 32  1  0
 13 33  1  0
 13 34  1  0
 14 35  1  0
 14 36  1  0
 17 37  1  0
 18 38  1  0
 21 39  1  0
 24 40  1  0
 24 41  1  0
M  ISO  8  26   8  27  14  28  14  29  14  30  14  31  14  32   8  33   8
M  ISO  5  34   8  35   8  36   8  37  14  38  14
M  END
>  <minimizedAffinity>  (1) 
-5.25368977

>  <minimizedRMSD>  (1) 
1.91274083

$$$$
