
     RDKit          3D

 35 37  0  0  1  0  0  0  0  0999 V2000
   38.5250   31.9760   48.0050 C   0  0  2  0  0  0  0  0  0  0  0  0
   38.9710   31.7080   46.6690 C   0  0  0  0  0  0  0  0  0  0  0  0
   39.7710   32.7580   46.1880 C   0  0  0  0  0  0  0  0  0  0  0  0
   40.4340   32.6140   44.9150 C   0  0  0  0  0  0  0  0  0  0  0  0
   40.2190   31.4410   44.2730 N   0  0  0  0  0  0  0  0  0  0  0  0
   39.4340   30.4510   44.7730 C   0  0  0  0  0  0  0  0  0  0  0  0
   38.8290   30.5850   45.9380 N   0  0  0  0  0  0  0  0  0  0  0  0
   39.2790   29.2590   44.0030 N   0  0  0  0  0  0  0  0  0  0  0  0
   40.1740   29.0000   42.9270 C   0  0  0  0  0  0  0  0  0  0  0  0
   41.3010   29.5900   42.8140 N   0  0  0  0  0  0  0  0  0  0  0  0
   39.7970   28.0510   41.9470 N   0  0  0  0  0  0  0  0  0  0  0  0
   41.9740   29.4140   42.0310 H   0  0  0  0  0  0  0  0  0  0  0  0
   37.8360   31.1760   49.0130 C   0  0  0  0  0  0  0  0  0  0  0  0
   38.3900   31.0480   50.2190 N   0  0  0  0  0  0  0  0  0  0  0  0
   37.8260   30.3200   51.2140 C   0  0  0  0  0  0  0  0  0  0  0  0
   36.6680   29.6700   51.0660 N   0  0  0  0  0  0  0  0  0  0  0  0
   36.0350   29.7410   49.8840 C   0  0  0  0  0  0  0  0  0  0  0  0
   34.8500   29.0700   49.6810 C   0  0  0  0  0  0  0  0  0  0  0  0
   34.1970   29.1140   48.4660 C   0  0  0  0  0  0  0  0  0  0  0  0
   34.7890   29.8610   47.4790 C   0  0  0  0  0  0  0  0  0  0  0  0
   35.9700   30.5160   47.7210 C   0  0  0  0  0  0  0  0  0  0  0  0
   36.6430   30.4920   48.9080 C   0  0  0  0  0  0  0  0  0  0  0  0
   38.2640   33.2220   48.3990 O   0  0  0  0  0  0  0  0  0  0  0  0
   39.4761   31.4428   47.8600 H   0  0  0  0  0  0  0  0  0  0  0  0
   39.8905   33.6800   46.7758 H   0  0  0  0  0  0  0  0  0  0  0  0
   41.0721   33.4047   44.4935 H   0  0  0  0  0  0  0  0  0  0  0  0
   38.5259   28.5920   44.2242 H   0  0  0  0  0  0  0  0  0  0  0  0
   40.4277   27.8464   41.1588 H   0  0  0  0  0  0  0  0  0  0  0  0
   38.8920   27.5650   42.0220 H   0  0  0  0  0  0  0  0  0  0  0  0
   38.3431   30.2621   52.1832 H   0  0  0  0  0  0  0  0  0  0  0  0
   34.4143   28.4861   50.5052 H   0  0  0  0  0  0  0  0  0  0  0  0
   33.2512   28.5781   48.2976 H   0  0  0  0  0  0  0  0  0  0  0  0
   34.3146   29.9350   46.4893 H   0  0  0  0  0  0  0  0  0  0  0  0
   36.4059   31.1028   46.8990 H   0  0  0  0  0  0  0  0  0  0  0  0
   38.2559   33.2604   49.3882 H   0  0  0  0  0  0  0  0  0  0  0  0
  1 23  1  0
  1 13  1  0
  2  1  1  0
  3  2  2  0
  4  3  1  0
  5  6  1  0
  5  4  2  0
  6  7  2  0
  7  2  1  0
  8  6  1  0
  9  8  1  0
 10  9  2  0
 11  9  1  0
 12 10  1  0
 13 14  2  0
 14 15  1  0
 16 15  2  0
 17 16  1  0
 18 17  2  0
 19 18  1  0
 20 21  1  0
 20 19  2  0
 21 22  2  0
 22 13  1  0
 22 17  1  0
  1 24  1  1
  3 25  1  0
  4 26  1  0
  8 27  1  0
 11 28  1  0
 11 29  1  0
 15 30  1  0
 18 31  1  0
 19 32  1  0
 20 33  1  0
 21 34  1  0
 23 35  1  0
M  END
>  <minimizedAffinity>  (1) 
-7.65493107

>  <minimizedRMSD>  (1) 
0.572583199

$$$$
