
     RDKit          3D

 44 46  0  0  0  0  0  0  0  0999 V2000
   36.2350   31.3450   42.5610 C   0  0  0  0  0  0  0  0  0  0  0  0
   37.4200   31.0610   41.8860 C   0  0  0  0  0  0  0  0  0  0  0  0
   38.4910   30.6750   42.6500 C   0  0  0  0  0  0  0  0  0  0  0  0
   38.2910   30.6100   43.9580 N   0  0  0  0  0  0  0  0  0  0  0  0
   37.2310   30.8540   44.6580 C   0  0  0  0  0  0  0  0  0  0  0  0
   36.2070   31.2280   43.8920 N   0  0  0  0  0  0  0  0  0  0  0  0
   36.9080   30.8180   46.0620 C   0  0  0  0  0  0  0  0  0  0  0  0
   35.8720   30.0390   46.5890 C   0  0  0  0  0  0  0  0  0  0  0  0
   35.5370   29.9810   47.9060 C   0  0  0  0  0  0  0  0  0  0  0  0
   36.2410   30.7270   48.8210 C   0  0  0  0  0  0  0  0  0  0  0  0
   37.2460   31.4930   48.3730 C   0  0  0  0  0  0  0  0  0  0  0  0
   37.9510   32.2420   49.3040 C   0  0  0  0  0  0  0  0  0  0  0  0
   38.9870   33.0480   48.9350 C   0  0  0  0  0  0  0  0  0  0  0  0
   39.3250   33.1030   47.5920 C   0  0  0  0  0  0  0  0  0  0  0  0
   38.6010   32.3470   46.7070 C   0  0  0  0  0  0  0  0  0  0  0  0
   37.5800   31.5470   47.0410 C   0  0  0  0  0  0  0  0  0  0  0  0
   35.8880   30.6570   50.1550 O   0  0  0  0  0  0  0  0  0  0  0  0
   36.4060   29.6420   50.9810 C   0  0  0  0  0  0  0  0  0  0  0  0
   37.2270   28.7370   50.3660 F   0  0  0  0  0  0  0  0  0  0  0  0
   37.1950   30.2530   51.9550 F   0  0  0  0  0  0  0  0  0  0  0  0
   35.3140   28.9890   51.5550 F   0  0  0  0  0  0  0  0  0  0  0  0
   39.7630   30.3390   42.1300 N   0  0  0  0  0  0  0  0  0  0  0  0
   40.8580   29.9650   42.9450 C   0  0  0  0  0  0  0  0  0  0  0  0
   41.0230   30.6050   44.0620 N   0  0  0  0  0  0  0  0  0  0  0  0
   41.7340   28.9290   42.5550 N   0  0  0  0  0  0  0  0  0  0  0  0
   41.7390   30.4400   44.7600 H   0  0  0  0  0  0  0  0  0  0  0  0
   37.5430   31.1690   40.4990 N   0  0  0  0  0  0  0  0  0  0  0  0
   38.5460   31.9400   39.8360 C   0  0  0  0  0  0  0  0  0  0  0  0
   38.7120   33.1460   40.3280 N   0  0  0  0  0  0  0  0  0  0  0  0
   39.2760   31.3770   38.7250 N   0  0  0  0  0  0  0  0  0  0  0  0
   39.4230   33.7430   39.8860 H   0  0  0  0  0  0  0  0  0  0  0  0
   35.3378   31.6601   42.0080 H   0  0  0  0  0  0  0  0  0  0  0  0
   35.2854   29.4287   45.8866 H   0  0  0  0  0  0  0  0  0  0  0  0
   34.7066   29.3401   48.2373 H   0  0  0  0  0  0  0  0  0  0  0  0
   37.6674   32.1842   50.3652 H   0  0  0  0  0  0  0  0  0  0  0  0
   39.5388   33.6377   49.6818 H   0  0  0  0  0  0  0  0  0  0  0  0
   40.1537   33.7376   47.2449 H   0  0  0  0  0  0  0  0  0  0  0  0
   38.8790   32.4013   45.6441 H   0  0  0  0  0  0  0  0  0  0  0  0
   39.8987   30.3679   41.1094 H   0  0  0  0  0  0  0  0  0  0  0  0
   42.5261   28.6693   43.1600 H   0  0  0  0  0  0  0  0  0  0  0  0
   41.5810   28.4328   41.6655 H   0  0  0  0  0  0  0  0  0  0  0  0
   36.8651   30.6585   39.9152 H   0  0  0  0  0  0  0  0  0  0  0  0
   39.0743   30.4175   38.4095 H   0  0  0  0  0  0  0  0  0  0  0  0
   39.9985   31.9349   38.2478 H   0  0  0  0  0  0  0  0  0  0  0  0
  1  6  2  0
  2  1  1  0
  2  3  2  0
  3  4  1  0
  4  5  2  0
  5  7  1  0
  6  5  1  0
  7  8  2  0
  7 16  1  0
  8  9  1  0
  9 10  2  0
 10 17  1  0
 11 10  1  0
 11 12  2  0
 13 12  1  0
 14 13  2  0
 15 16  2  0
 15 14  1  0
 16 11  1  0
 17 18  1  0
 18 21  1  0
 18 20  1  0
 19 18  1  0
 22  3  1  0
 22 23  1  0
 23 24  2  0
 24 26  1  0
 25 23  1  0
 27  2  1  0
 28 29  2  0
 28 27  1  0
 30 28  1  0
 31 29  1  0
  1 32  1  0
  8 33  1  0
  9 34  1  0
 12 35  1  0
 13 36  1  0
 14 37  1  0
 15 38  1  0
 22 39  1  0
 25 40  1  0
 25 41  1  0
 27 42  1  0
 30 43  1  0
 30 44  1  0
M  END
>  <minimizedAffinity>  (1) 
-7.45378351

>  <minimizedRMSD>  (1) 
0.64528352

$$$$
