
     RDKit          3D

 24 25  0  0  0  0  0  0  0  0999 V2000
   34.9500   29.2130   48.6170 C   0  0  0  0  0  0  0  0  0  0  0  0
   34.4090   27.9700   49.0080 C   0  0  0  0  0  0  0  0  0  0  0  0
   33.3160   27.5320   48.3240 C   0  0  0  0  0  0  0  0  0  0  0  0
   32.8170   28.2860   47.3360 C   0  0  0  0  0  0  0  0  0  0  0  0
   33.8780   29.7210   47.2830 S   0  0  0  0  0  0  0  0  0  0  0  0
   37.4600   30.3380   51.0940 C   0  0  0  0  0  0  0  0  0  0  0  0
   38.3390   31.0830   50.2940 C   0  0  0  0  0  0  0  0  0  0  0  0
   38.0550   31.1900   48.9170 C   0  0  0  0  0  0  0  0  0  0  0  0
   36.9490   30.5700   48.4240 N   0  0  0  0  0  0  0  0  0  0  0  0
   36.1280   29.8610   49.2270 C   0  0  0  0  0  0  0  0  0  0  0  0
   36.3640   29.7340   50.5570 N   0  0  0  0  0  0  0  0  0  0  0  0
   31.7000   28.0310   46.4910 N   0  0  0  0  0  0  0  0  0  0  0  0
   30.4560   28.6730   46.7190 C   0  0  0  0  0  0  0  0  0  0  0  0
   30.0340   28.8420   47.9090 N   0  0  0  0  0  0  0  0  0  0  0  0
   29.6850   29.1170   45.6030 N   0  0  0  0  0  0  0  0  0  0  0  0
   30.4810   28.5700   48.7870 H   0  0  0  0  0  0  0  0  0  0  0  0
   34.8494   27.3823   49.8269 H   0  0  0  0  0  0  0  0  0  0  0  0
   32.8483   26.5699   48.5800 H   0  0  0  0  0  0  0  0  0  0  0  0
   37.6590   30.2402   52.1714 H   0  0  0  0  0  0  0  0  0  0  0  0
   39.2246   31.5698   50.7285 H   0  0  0  0  0  0  0  0  0  0  0  0
   38.7166   31.7651   48.2526 H   0  0  0  0  0  0  0  0  0  0  0  0
   31.7964   27.3726   45.7048 H   0  0  0  0  0  0  0  0  0  0  0  0
   28.7800   29.5845   45.7556 H   0  0  0  0  0  0  0  0  0  0  0  0
   30.0336   28.9699   44.6450 H   0  0  0  0  0  0  0  0  0  0  0  0
  1  2  2  0
  1 10  1  0
  3  2  1  0
  4  3  2  0
  5  4  1  0
  5  1  1  0
  7  6  2  0
  8  7  1  0
  9  8  2  0
  9 10  1  0
 10 11  2  0
 11  6  1  0
 12 13  1  0
 12  4  1  0
 13 14  2  0
 14 16  1  0
 15 13  1  0
  2 17  1  0
  3 18  1  0
  6 19  1  0
  7 20  1  0
  8 21  1  0
 12 22  1  0
 15 23  1  0
 15 24  1  0
M  ISO  5  17  14  18  14  19  14  20  14  21  14
M  END
>  <minimizedAffinity>  (1) 
-4.5732522

>  <minimizedRMSD>  (1) 
0.160458788

$$$$
