
     RDKit          3D

 35 37  0  0  1  0  0  0  0  0999 V2000
   33.9510   29.6920   46.5490 C   0  0  0  0  0  0  0  0  0  0  0  0
   35.3860   29.8870   46.4440 C   0  0  0  0  0  0  0  0  0  0  0  0
   35.8900   30.3850   45.2530 C   0  0  0  0  0  0  0  0  0  0  0  0
   34.9860   30.6490   44.2630 N   0  0  0  0  0  0  0  0  0  0  0  0
   33.6780   30.4610   44.3890 C   0  0  0  0  0  0  0  0  0  0  0  0
   33.1650   29.9870   45.5180 N   0  0  0  0  0  0  0  0  0  0  0  0
   32.8800   30.8340   43.2030 C   0  0  0  0  0  0  0  0  0  0  0  0
   33.7230   31.0870   42.1010 F   0  0  0  0  0  0  0  0  0  0  0  0
   32.0680   29.8050   42.8440 F   0  0  0  0  0  0  0  0  0  0  0  0
   32.0530   31.9390   43.4420 F   0  0  0  0  0  0  0  0  0  0  0  0
   37.3140   30.6220   45.1650 C   0  0  0  0  0  0  0  0  0  0  0  0
   38.0200   29.7670   44.5130 O   0  0  0  0  0  0  0  0  0  0  0  0
   38.2240   31.6430   45.6490 C   0  0  0  0  0  0  0  0  0  0  0  0
   39.0650   32.2240   44.7620 N   0  0  0  0  0  0  0  0  0  0  0  0
   39.9570   33.1940   45.1310 C   0  0  0  0  0  0  0  0  0  0  0  0
   40.0520   33.6290   46.4000 N   0  0  0  0  0  0  0  0  0  0  0  0
   39.2550   33.1020   47.3330 C   0  0  0  0  0  0  0  0  0  0  0  0
   39.3300   33.4980   48.6460 C   0  0  0  0  0  0  0  0  0  0  0  0
   38.5260   32.9420   49.6370 C   0  0  0  0  0  0  0  0  0  0  0  0
   37.6280   31.9510   49.2340 C   0  0  0  0  0  0  0  0  0  0  0  0
   37.5900   31.5900   47.9070 C   0  0  0  0  0  0  0  0  0  0  0  0
   38.3730   32.1310   46.9250 C   0  0  0  0  0  0  0  0  0  0  0  0
   33.4460   29.1970   47.7330 O   0  0  0  0  0  0  0  0  0  0  0  0
   33.6700   27.9200   48.2230 C   0  0  0  0  0  0  0  0  0  0  0  0
   34.7670   27.8390   49.0770 F   0  0  0  0  0  0  0  0  0  0  0  0
   32.5700   27.3370   48.8040 F   0  0  0  0  0  0  0  0  0  0  0  0
   33.9930   27.1460   47.0980 F   0  0  0  0  0  0  0  0  0  0  0  0
   36.0532   29.6466   47.2848 H   0  0  0  0  0  0  0  0  0  0  0  0
   37.1608   31.1997   44.2415 H   0  0  0  0  0  0  0  0  0  0  0  0
   38.5024   29.1828   45.1503 H   0  0  0  0  0  0  0  0  0  0  0  0
   40.6162   33.6311   44.3666 H   0  0  0  0  0  0  0  0  0  0  0  0
   40.0503   34.2815   48.9240 H   0  0  0  0  0  0  0  0  0  0  0  0
   38.5945   33.2670   50.6857 H   0  0  0  0  0  0  0  0  0  0  0  0
   36.9629   31.4677   49.9648 H   0  0  0  0  0  0  0  0  0  0  0  0
   36.8756   30.8067   47.6136 H   0  0  0  0  0  0  0  0  0  0  0  0
  1 23  1  0
  2  1  2  0
  3  2  1  0
  4  5  1  0
  4  3  2  0
  5  6  2  0
  6  1  1  0
  7 10  1  0
  7  5  1  0
  8  7  1  0
  9  7  1  0
 11 12  1  0
 11  3  1  0
 11 13  1  0
 13 22  2  0
 14 15  2  0
 14 13  1  0
 15 16  1  0
 16 17  2  0
 17 18  1  0
 18 19  2  0
 20 19  1  0
 21 20  2  0
 22 17  1  0
 22 21  1  0
 23 24  1  0
 24 26  1  0
 24 25  1  0
 27 24  1  0
  2 28  1  0
 11 29  1  0
 12 30  1  0
 15 31  1  0
 18 32  1  0
 19 33  1  0
 20 34  1  0
 21 35  1  0
M  ISO  8  28  14  29   8  30   3  31  14  32  14  33  14  34  14  35  14
M  END
>  <minimizedAffinity>  (1) 
-5.52344275

>  <minimizedRMSD>  (1) 
5.11926079

$$$$
