
     RDKit          3D

 42 43  0  0  0  0  0  0  0  0999 V2000
   37.2390   32.0560   49.5840 C   0  0  0  0  0  0  0  0  0  0  0  0
   37.9780   31.8180   48.3210 C   0  0  0  0  0  0  0  0  0  0  0  0
   37.8880   30.6230   47.6990 C   0  0  0  0  0  0  0  0  0  0  0  0
   38.6210   30.3950   46.5340 C   0  0  0  0  0  0  0  0  0  0  0  0
   39.4040   31.4050   46.0660 N   0  0  0  0  0  0  0  0  0  0  0  0
   39.4730   32.5690   46.6910 C   0  0  0  0  0  0  0  0  0  0  0  0
   38.7780   32.8170   47.8220 N   0  0  0  0  0  0  0  0  0  0  0  0
   40.3090   33.6630   46.1510 C   0  0  0  0  0  0  0  0  0  0  0  0
   40.1290   33.7530   44.6210 C   0  0  0  0  0  0  0  0  0  0  0  0
   37.1220   30.7670   50.2930 C   0  0  0  0  0  0  0  0  0  0  0  0
   35.9830   28.6380   49.8720 C   0  0  0  0  0  0  0  0  0  0  0  0
   35.9750   30.0410   49.9190 C   0  0  0  0  0  0  0  0  0  0  0  0
   34.8080   30.6610   49.5630 C   0  0  0  0  0  0  0  0  0  0  0  0
   33.7190   29.9440   49.1820 N   0  0  0  0  0  0  0  0  0  0  0  0
   33.7530   28.6070   49.1440 C   0  0  0  0  0  0  0  0  0  0  0  0
   34.8590   27.9970   49.4840 N   0  0  0  0  0  0  0  0  0  0  0  0
   32.5750   27.8320   48.7370 C   0  0  0  0  0  0  0  0  0  0  0  0
   32.6350   27.0120   47.7890 O   0  0  0  0  0  0  0  0  0  0  0  0
   31.3590   27.9800   49.3830 O   0  0  0  0  0  0  0  0  0  0  0  0
   30.1400   27.4330   48.9780 C   0  0  0  0  0  0  0  0  0  0  0  0
   29.3200   27.1790   50.2500 C   0  0  0  0  0  0  0  0  0  0  0  0
   29.3340   28.3870   48.1250 C   0  0  0  0  0  0  0  0  0  0  0  0
   36.2372   32.4521   49.3615 H   0  0  0  0  0  0  0  0  0  0  0  0
   37.7731   32.7882   50.2074 H   0  0  0  0  0  0  0  0  0  0  0  0
   37.2404   29.8337   48.1085 H   0  0  0  0  0  0  0  0  0  0  0  0
   38.5677   29.4292   46.0102 H   0  0  0  0  0  0  0  0  0  0  0  0
   40.0058   34.6152   46.6109 H   0  0  0  0  0  0  0  0  0  0  0  0
   41.3654   33.4598   46.3808 H   0  0  0  0  0  0  0  0  0  0  0  0
   39.1666   34.2342   44.3927 H   0  0  0  0  0  0  0  0  0  0  0  0
   40.9477   34.3478   44.1898 H   0  0  0  0  0  0  0  0  0  0  0  0
   40.1444   32.7411   44.1898 H   0  0  0  0  0  0  0  0  0  0  0  0
   38.0112   30.1599   50.0677 H   0  0  0  0  0  0  0  0  0  0  0  0
   37.0394   30.9863   51.3677 H   0  0  0  0  0  0  0  0  0  0  0  0
   36.8859   28.0723   50.1455 H   0  0  0  0  0  0  0  0  0  0  0  0
   34.7509   31.7593   49.5858 H   0  0  0  0  0  0  0  0  0  0  0  0
   30.3455   26.5259   48.3906 H   0  0  0  0  0  0  0  0  0  0  0  0
   29.9452   27.3727   51.1341 H   0  0  0  0  0  0  0  0  0  0  0  0
   28.4477   27.8491   50.2639 H   0  0  0  0  0  0  0  0  0  0  0  0
   28.9792   26.1332   50.2639 H   0  0  0  0  0  0  0  0  0  0  0  0
   28.7611   29.0651   48.7746 H   0  0  0  0  0  0  0  0  0  0  0  0
   30.0134   28.9745   47.4900 H   0  0  0  0  0  0  0  0  0  0  0  0
   28.6413   27.8153   47.4900 H   0  0  0  0  0  0  0  0  0  0  0  0
  1 10  1  0
  2  1  1  0
  3  2  2  0
  4  3  1  0
  5  4  2  0
  5  6  1  0
  6  7  2  0
  7  2  1  0
  8  6  1  0
  9  8  1  0
 11 12  2  0
 12 10  1  0
 13 12  1  0
 14 13  2  0
 15 14  1  0
 15 16  2  0
 16 11  1  0
 17 15  1  0
 17 19  1  0
 18 17  2  0
 20 19  1  0
 20 21  1  0
 22 20  1  0
  1 23  1  0
  1 24  1  0
  3 25  1  0
  4 26  1  0
  8 27  1  0
  8 28  1  0
  9 29  1  0
  9 30  1  0
  9 31  1  0
 10 32  1  0
 10 33  1  0
 11 34  1  0
 13 35  1  0
 20 36  1  0
 21 37  1  0
 21 38  1  0
 21 39  1  0
 22 40  1  0
 22 41  1  0
 22 42  1  0
M  ISO  8  23   8  24   8  25  14  26  14  27   8  28   8  29   8  30   8
M  ISO  8  31   8  32   8  33   8  34  14  35  14  36   8  37   8  38   8
M  ISO  4  39   8  40   8  41   8  42   8
M  END
>  <minimizedAffinity>  (1) 
-5.19149017

>  <minimizedRMSD>  (1) 
0.988845885

$$$$
