
     RDKit          3D

 27 28  0  0  0  0  0  0  0  0999 V2000
   37.2500   31.4280   48.5510 C   0  0  0  0  0  0  0  0  0  0  0  0
   37.6960   32.4130   49.4780 C   0  0  0  0  0  0  0  0  0  0  0  0
   38.6760   33.3010   49.0470 C   0  0  0  0  0  0  0  0  0  0  0  0
   39.1450   33.1650   47.7600 N   0  0  0  0  0  0  0  0  0  0  0  0
   38.6910   32.2210   46.9310 C   0  0  0  0  0  0  0  0  0  0  0  0
   37.7340   31.3370   47.3180 N   0  0  0  0  0  0  0  0  0  0  0  0
   39.2140   32.1120   45.5780 C   0  0  0  0  0  0  0  0  0  0  0  0
   40.3530   31.3890   45.2640 C   0  0  0  0  0  0  0  0  0  0  0  0
   40.5610   31.5040   43.8740 C   0  0  0  0  0  0  0  0  0  0  0  0
   39.5180   32.2970   43.4470 C   0  0  0  0  0  0  0  0  0  0  0  0
   38.7650   32.6270   44.4590 O   0  0  0  0  0  0  0  0  0  0  0  0
   39.3610   32.6640   42.0440 C   0  0  0  0  0  0  0  0  0  0  0  0
   39.6380   31.8150   41.1570 O   0  0  0  0  0  0  0  0  0  0  0  0
   38.9180   33.9070   41.6130 O   0  0  0  0  0  0  0  0  0  0  0  0
   36.2200   30.5070   49.0240 C   0  0  0  0  0  0  0  0  0  0  0  0
   35.0020   30.7100   48.7120 O   0  0  0  0  0  0  0  0  0  0  0  0
   36.5940   29.4190   49.8120 O   0  0  0  0  0  0  0  0  0  0  0  0
   36.5570   29.4610   51.2050 C   0  0  0  0  0  0  0  0  0  0  0  0
   37.6940   29.7570   51.9820 N   0  0  0  0  0  0  0  0  0  0  0  0
   35.4210   29.2110   51.6880 O   0  0  0  0  0  0  0  0  0  0  0  0
   37.2815   32.4693   50.4954 H   0  0  0  0  0  0  0  0  0  0  0  0
   39.0635   34.0862   49.7128 H   0  0  0  0  0  0  0  0  0  0  0  0
   40.9813   30.8271   45.9707 H   0  0  0  0  0  0  0  0  0  0  0  0
   41.3683   31.0631   43.2707 H   0  0  0  0  0  0  0  0  0  0  0  0
   38.8329   34.0937   40.6445 H   0  0  0  0  0  0  0  0  0  0  0  0
   37.6244   29.7780   53.0094 H   0  0  0  0  0  0  0  0  0  0  0  0
   38.5950   29.9524   51.5227 H   0  0  0  0  0  0  0  0  0  0  0  0
  1 15  1  0
  1  2  2  0
  3  2  1  0
  4  3  2  0
  5  6  2  0
  5  4  1  0
  6  1  1  0
  7  5  1  0
  8  7  2  0
  9  8  1  0
 10  9  2  0
 10 11  1  0
 11  7  1  0
 12 10  1  0
 13 12  2  0
 14 12  1  0
 15 17  1  0
 16 15  2  0
 17 18  1  0
 18 20  2  0
 18 19  1  0
  2 21  1  0
  3 22  1  0
  8 23  1  0
  9 24  1  0
 14 25  1  0
 19 26  1  0
 19 27  1  0
M  ISO  5  21  14  22  14  23  14  24  14  25   3
M  END
>  <minimizedAffinity>  (1) 
-5.5658412

>  <minimizedRMSD>  (1) 
0.525759697

$$$$
