
     RDKit          3D

 26 27  0  0  0  0  0  0  0  0999 V2000
   38.0170   30.9420   45.9740 C   0  0  0  0  0  0  0  0  0  0  0  0
   36.7930   30.4880   45.4580 C   0  0  0  0  0  0  0  0  0  0  0  0
   36.5980   30.1500   44.1450 C   0  0  0  0  0  0  0  0  0  0  0  0
   37.6600   30.2590   43.2700 C   0  0  0  0  0  0  0  0  0  0  0  0
   38.8720   30.7010   43.7530 C   0  0  0  0  0  0  0  0  0  0  0  0
   39.0580   31.0420   45.0980 C   0  0  0  0  0  0  0  0  0  0  0  0
   37.7890   30.7610   49.6120 C   0  0  0  0  0  0  0  0  0  0  0  0
   38.2890   32.0050   50.0200 C   0  0  0  0  0  0  0  0  0  0  0  0
   38.7050   32.8960   49.0250 C   0  0  0  0  0  0  0  0  0  0  0  0
   38.6020   32.5070   47.7420 N   0  0  0  0  0  0  0  0  0  0  0  0
   38.1170   31.3010   47.3720 C   0  0  0  0  0  0  0  0  0  0  0  0
   37.7210   30.4550   48.3280 N   0  0  0  0  0  0  0  0  0  0  0  0
   37.3300   29.8110   50.6850 C   0  0  0  0  0  0  0  0  0  0  0  0
   35.9390   29.7050   50.6270 F   0  0  0  0  0  0  0  0  0  0  0  0
   37.9520   28.6320   50.4950 F   0  0  0  0  0  0  0  0  0  0  0  0
   37.6470   30.3780   51.9170 F   0  0  0  0  0  0  0  0  0  0  0  0
   40.4130   31.4480   45.4440 C   0  0  0  0  0  0  0  0  0  0  0  0
   41.0470   32.5120   45.3890 O   0  0  0  0  0  0  0  0  0  0  0  0
   41.3550   30.6180   45.9600 O   0  0  0  0  0  0  0  0  0  0  0  0
   35.9411   30.3985   46.1481 H   0  0  0  0  0  0  0  0  0  0  0  0
   35.6159   29.7991   43.7953 H   0  0  0  0  0  0  0  0  0  0  0  0
   37.5409   29.9981   42.2081 H   0  0  0  0  0  0  0  0  0  0  0  0
   39.7212   30.7889   43.0594 H   0  0  0  0  0  0  0  0  0  0  0  0
   38.3521   32.2715   51.0854 H   0  0  0  0  0  0  0  0  0  0  0  0
   39.1052   33.8871   49.2849 H   0  0  0  0  0  0  0  0  0  0  0  0
   42.2578   30.9647   46.1717 H   0  0  0  0  0  0  0  0  0  0  0  0
  1 11  1  0
  2  1  2  0
  3  2  1  0
  4  5  1  0
  4  3  2  0
  5  6  2  0
  6 17  1  0
  6  1  1  0
  7  8  2  0
  7 13  1  0
  9  8  1  0
 10  9  2  0
 11 10  1  0
 11 12  2  0
 12  7  1  0
 13 16  1  0
 14 13  1  0
 15 13  1  0
 17 19  1  0
 18 17  2  0
  2 20  1  0
  3 21  1  0
  4 22  1  0
  5 23  1  0
  8 24  1  0
  9 25  1  0
 19 26  1  0
M  ISO  7  20  14  21  14  22  14  23  14  24  14  25  14  26   3
M  END
>  <minimizedAffinity>  (1) 
-6.26520348

>  <minimizedRMSD>  (1) 
1.74341083

$$$$
