
     RDKit          3D

 23 23  0  0  0  0  0  0  0  0999 V2000
   36.8720   29.9510   49.8330 C   0  0  0  0  0  0  0  0  0  0  0  0
   38.0420   30.5490   49.3460 C   0  0  0  0  0  0  0  0  0  0  0  0
   38.0220   31.0050   48.0210 C   0  0  0  0  0  0  0  0  0  0  0  0
   36.8990   30.8460   47.3010 N   0  0  0  0  0  0  0  0  0  0  0  0
   35.7850   30.2560   47.8190 C   0  0  0  0  0  0  0  0  0  0  0  0
   35.7950   29.8210   49.0760 N   0  0  0  0  0  0  0  0  0  0  0  0
   39.1460   31.6150   47.4510 N   0  0  0  0  0  0  0  0  0  0  0  0
   39.0720   32.3910   46.2830 C   0  0  0  0  0  0  0  0  0  0  0  0
   37.9240   32.5010   45.6920 N   0  0  0  0  0  0  0  0  0  0  0  0
   40.2330   33.0280   45.7800 N   0  0  0  0  0  0  0  0  0  0  0  0
   37.8760   33.0620   44.8130 H   0  0  0  0  0  0  0  0  0  0  0  0
   36.8780   29.4560   51.2570 C   0  0  0  0  0  0  0  0  0  0  0  0
   35.5750   29.1640   51.6400 F   0  0  0  0  0  0  0  0  0  0  0  0
   37.7400   28.4360   51.3770 F   0  0  0  0  0  0  0  0  0  0  0  0
   37.3060   30.5380   52.0510 F   0  0  0  0  0  0  0  0  0  0  0  0
   34.5660   30.0840   47.0370 C   0  0  0  0  0  0  0  0  0  0  0  0
   34.4470   29.2000   46.1730 O   0  0  0  0  0  0  0  0  0  0  0  0
   33.4300   30.8480   47.1470 O   0  0  0  0  0  0  0  0  0  0  0  0
   38.9372   30.6558   49.9763 H   0  0  0  0  0  0  0  0  0  0  0  0
   40.0617   31.4898   47.9056 H   0  0  0  0  0  0  0  0  0  0  0  0
   40.1780   33.5970   44.9232 H   0  0  0  0  0  0  0  0  0  0  0  0
   41.1322   32.9221   46.2710 H   0  0  0  0  0  0  0  0  0  0  0  0
   32.6473   30.6569   46.5717 H   0  0  0  0  0  0  0  0  0  0  0  0
  1 12  1  0
  2  1  2  0
  3  2  1  0
  4  5  1  0
  4  3  2  0
  5  6  2  0
  6  1  1  0
  7  3  1  0
  8  7  1  0
  9  8  2  0
 10  8  1  0
 11  9  1  0
 12 14  1  0
 12 13  1  0
 12 15  1  0
 16 18  1  0
 16  5  1  0
 17 16  2  0
  2 19  1  0
  7 20  1  0
 10 21  1  0
 10 22  1  0
 18 23  1  0
M  ISO  2  19  14  23   3
M  END
>  <minimizedAffinity>  (1) 
-6.57369852

>  <minimizedRMSD>  (1) 
0.207075015

$$$$
