
     RDKit          3D

 33 35  0  0  1  0  0  0  0  0999 V2000
   37.4940   31.2770   48.7450 N   0  0  0  0  0  0  0  0  0  0  0  0
   38.3780   31.5040   49.8800 C   0  0  0  0  0  0  0  0  0  0  0  0
   38.7220   32.9460   49.7080 C   0  0  0  0  0  0  0  0  0  0  0  0
   39.0330   32.9730   48.2220 C   0  0  0  0  0  0  0  0  0  0  0  0
   37.8300   32.2160   47.7100 C   0  0  1  0  0  0  0  0  0  0  0  0
   36.3640   29.1810   49.4730 C   0  0  0  0  0  0  0  0  0  0  0  0
   36.4720   30.3120   48.6400 C   0  0  0  0  0  0  0  0  0  0  0  0
   35.5070   30.4910   47.6420 C   0  0  0  0  0  0  0  0  0  0  0  0
   34.5120   29.5680   47.5230 N   0  0  0  0  0  0  0  0  0  0  0  0
   34.4420   28.4980   48.3380 C   0  0  0  0  0  0  0  0  0  0  0  0
   35.3670   28.2960   49.3200 N   0  0  0  0  0  0  0  0  0  0  0  0
   38.1700   31.6150   46.4230 C   0  0  0  0  0  0  0  0  0  0  0  0
   38.9880   30.5090   46.1410 C   0  0  0  0  0  0  0  0  0  0  0  0
   39.1890   30.1070   44.8490 C   0  0  0  0  0  0  0  0  0  0  0  0
   38.5940   30.7820   43.8730 N   0  0  0  0  0  0  0  0  0  0  0  0
   37.7990   31.8490   44.1000 C   0  0  0  0  0  0  0  0  0  0  0  0
   37.6150   32.2300   45.3840 N   0  0  0  0  0  0  0  0  0  0  0  0
   37.1590   32.5690   42.9820 C   0  0  0  0  0  0  0  0  0  0  0  0
   37.7910   32.5230   41.8970 O   0  0  0  0  0  0  0  0  0  0  0  0
   35.9550   33.2060   43.2380 O   0  0  0  0  0  0  0  0  0  0  0  0
   37.8603   31.3258   50.8341 H   0  0  0  0  0  0  0  0  0  0  0  0
   39.2512   30.8357   49.9081 H   0  0  0  0  0  0  0  0  0  0  0  0
   37.8737   33.5999   49.9586 H   0  0  0  0  0  0  0  0  0  0  0  0
   39.5344   33.3069   50.3559 H   0  0  0  0  0  0  0  0  0  0  0  0
   39.0718   33.9993   47.8281 H   0  0  0  0  0  0  0  0  0  0  0  0
   40.0095   32.5543   47.9372 H   0  0  0  0  0  0  0  0  0  0  0  0
   36.9471   32.8418   47.5126 H   0  0  0  0  0  0  0  0  0  0  0  0
   37.1113   29.0203   50.2640 H   0  0  0  0  0  0  0  0  0  0  0  0
   35.5511   31.3590   46.9677 H   0  0  0  0  0  0  0  0  0  0  0  0
   33.6240   27.7738   48.2094 H   0  0  0  0  0  0  0  0  0  0  0  0
   39.4704   29.9622   46.9646 H   0  0  0  0  0  0  0  0  0  0  0  0
   39.8304   29.2423   44.6235 H   0  0  0  0  0  0  0  0  0  0  0  0
   35.4929   33.7002   42.5152 H   0  0  0  0  0  0  0  0  0  0  0  0
  1  2  1  0
  3  2  1  0
  4  3  1  0
  5  4  1  0
  5  1  1  0
  7  1  1  0
  7  6  2  0
  8  7  1  0
  9  8  2  0
  9 10  1  0
 10 11  2  0
 11  6  1  0
 12  5  1  0
 13 12  2  0
 14 13  1  0
 15 16  1  0
 15 14  2  0
 16 17  2  0
 17 12  1  0
 18 20  1  0
 18 16  1  0
 19 18  2  0
  2 21  1  0
  2 22  1  0
  3 23  1  0
  3 24  1  0
  4 25  1  0
  4 26  1  0
  5 27  1  6
  6 28  1  0
  8 29  1  0
 10 30  1  0
 13 31  1  0
 14 32  1  0
 20 33  1  0
M  ISO  8  21  13  22  13  23  13  24  13  25  13  26  13  27  13  28  14
M  ISO  5  29  14  30  14  31  14  32  14  33   3
M  END
>  <minimizedAffinity>  (1) 
-5.61675358

>  <minimizedRMSD>  (1) 
0.417341202

$$$$
