
     RDKit          3D

 33 35  0  0  1  0  0  0  0  0999 V2000
   35.3450   29.4450   48.9440 C   0  0  2  0  0  0  0  0  0  0  0  0
   34.2240   29.3630   49.8750 C   0  0  0  0  0  0  0  0  0  0  0  0
   34.5900   28.1150   49.2690 C   0  0  1  0  0  0  0  0  0  0  0  0
   36.7500   29.4290   49.5770 C   0  0  0  0  0  0  0  0  0  0  0  0
   38.1540   32.7980   49.4390 C   0  0  0  0  0  0  0  0  0  0  0  0
   38.8150   32.8060   48.1980 C   0  0  0  0  0  0  0  0  0  0  0  0
   38.7640   31.6280   47.4200 C   0  0  0  0  0  0  0  0  0  0  0  0
   38.0780   30.5520   47.9130 N   0  0  0  0  0  0  0  0  0  0  0  0
   37.4650   30.6010   49.1040 C   0  0  0  0  0  0  0  0  0  0  0  0
   37.5080   31.7300   49.8610 N   0  0  0  0  0  0  0  0  0  0  0  0
   33.6470   27.6150   48.1920 C   0  0  0  0  0  0  0  0  0  0  0  0
   33.9740   26.4510   47.7330 O   0  0  0  0  0  0  0  0  0  0  0  0
   32.5220   28.2740   47.7000 O   0  0  0  0  0  0  0  0  0  0  0  0
   31.2420   27.9700   48.0750 C   0  0  0  0  0  0  0  0  0  0  0  0
   30.7940   27.7220   49.4660 C   0  0  0  0  0  0  0  0  0  0  0  0
   29.4890   27.4350   49.6650 C   0  0  0  0  0  0  0  0  0  0  0  0
   28.5710   27.3700   48.5990 C   0  0  0  0  0  0  0  0  0  0  0  0
   29.6250   27.7500   47.1120 S   0  0  0  0  0  0  0  0  0  0  0  0
   27.2580   27.1210   48.4540 C   0  0  0  0  0  0  0  0  0  0  0  0
   26.4950   27.9720   47.9250 O   0  0  0  0  0  0  0  0  0  0  0  0
   26.7400   25.9120   48.8940 O   0  0  0  0  0  0  0  0  0  0  0  0
   35.5794   30.0787   48.0759 H   0  0  0  0  0  0  0  0  0  0  0  0
   34.4095   29.5103   50.9492 H   0  0  0  0  0  0  0  0  0  0  0  0
   33.2703   29.9070   49.9420 H   0  0  0  0  0  0  0  0  0  0  0  0
   34.8737   27.1139   49.6259 H   0  0  0  0  0  0  0  0  0  0  0  0
   36.6665   29.4592   50.6734 H   0  0  0  0  0  0  0  0  0  0  0  0
   37.2876   28.5118   49.2945 H   0  0  0  0  0  0  0  0  0  0  0  0
   38.1766   33.6995   50.0688 H   0  0  0  0  0  0  0  0  0  0  0  0
   39.3530   33.6983   47.8453 H   0  0  0  0  0  0  0  0  0  0  0  0
   39.2638   31.5771   46.4414 H   0  0  0  0  0  0  0  0  0  0  0  0
   31.5003   27.7700   50.3079 H   0  0  0  0  0  0  0  0  0  0  0  0
   29.1333   27.2467   50.6887 H   0  0  0  0  0  0  0  0  0  0  0  0
   25.7742   25.7205   48.7911 H   0  0  0  0  0  0  0  0  0  0  0  0
  1  3  1  0
  1  4  1  0
  1  2  1  0
  3  2  1  0
  5 10  2  0
  6  5  1  0
  7  8  1  0
  7  6  2  0
  8  9  2  0
  9  4  1  0
  9 10  1  0
 11  3  1  0
 12 11  2  0
 13 14  1  0
 13 11  1  0
 14 15  2  0
 15 16  1  0
 17 16  2  0
 18 14  1  0
 18 17  1  0
 19 17  1  0
 19 21  1  0
 20 19  2  0
  1 22  1  6
  2 23  1  0
  2 24  1  0
  3 25  1  1
  4 26  1  0
  4 27  1  0
  5 28  1  0
  6 29  1  0
  7 30  1  0
 15 31  1  0
 16 32  1  0
 21 33  1  0
M  ISO  8  22  13  23  13  24  13  25  13  26   8  27   8  28  14  29  14
M  ISO  4  30  14  31  14  32  14  33   3
M  END
>  <minimizedAffinity>  (1) 
-5.86407089

>  <minimizedRMSD>  (1) 
0.312176853

$$$$
