
     RDKit          3D

 24 26  0  0  0  0  0  0  0  0999 V2000
   38.3860   31.5830   48.2130 C   0  0  0  0  0  0  0  0  0  0  0  0
   39.0220   32.7700   48.2290 N   0  0  0  0  0  0  0  0  0  0  0  0
   39.5000   33.0360   47.0460 O   0  0  0  0  0  0  0  0  0  0  0  0
   39.1940   32.0560   46.2540 C   0  0  0  0  0  0  0  0  0  0  0  0
   38.4910   31.1090   46.9330 N   0  0  0  0  0  0  0  0  0  0  0  0
   39.5080   31.9100   44.8630 N   0  0  0  0  0  0  0  0  0  0  0  0
   38.9790   32.7220   43.9350 N   0  0  0  0  0  0  0  0  0  0  0  0
   39.4490   32.3530   42.7210 C   0  0  0  0  0  0  0  0  0  0  0  0
   40.2960   31.2690   42.9480 C   0  0  0  0  0  0  0  0  0  0  0  0
   40.3270   30.9980   44.3000 C   0  0  0  0  0  0  0  0  0  0  0  0
   37.2910   30.1000   51.4790 C   0  0  0  0  0  0  0  0  0  0  0  0
   38.0300   30.8810   50.5780 C   0  0  0  0  0  0  0  0  0  0  0  0
   37.6810   30.8100   49.2360 C   0  0  0  0  0  0  0  0  0  0  0  0
   36.6580   30.0030   48.8660 N   0  0  0  0  0  0  0  0  0  0  0  0
   35.9690   29.2670   49.7530 C   0  0  0  0  0  0  0  0  0  0  0  0
   36.2770   29.3060   51.0680 N   0  0  0  0  0  0  0  0  0  0  0  0
   34.8770   28.4140   49.3010 C   0  0  0  0  0  0  0  0  0  0  0  0
   33.6880   28.6820   49.5450 O   0  0  0  0  0  0  0  0  0  0  0  0
   39.2110   32.8147   41.7514 H   0  0  0  0  0  0  0  0  0  0  0  0
   40.8503   30.7186   42.1735 H   0  0  0  0  0  0  0  0  0  0  0  0
   40.8973   30.2076   44.8099 H   0  0  0  0  0  0  0  0  0  0  0  0
   37.5435   30.1346   52.5491 H   0  0  0  0  0  0  0  0  0  0  0  0
   38.8536   31.5244   50.9212 H   0  0  0  0  0  0  0  0  0  0  0  0
   35.1121   27.5058   48.7267 H   0  0  0  0  0  0  0  0  0  0  0  0
  1  2  2  0
  1 13  1  0
  3  2  1  0
  4  5  2  0
  4  3  1  0
  5  1  1  0
  6  4  1  0
  7  6  1  0
  8  9  1  0
  8  7  2  0
  9 10  2  0
 10  6  1  0
 12 11  2  0
 13 12  1  0
 14 13  2  0
 14 15  1  0
 15 16  2  0
 16 11  1  0
 17 18  2  0
 17 15  1  0
  8 19  1  0
  9 20  1  0
 10 21  1  0
 11 22  1  0
 12 23  1  0
 17 24  1  0
M  ISO  6  19  14  20  14  21  14  22  14  23  14  24   6
M  END
>  <minimizedAffinity>  (1) 
-5.87737083

>  <minimizedRMSD>  (1) 
0.446801543

$$$$
