
     RDKit          3D

 37 40  0  0  0  0  0  0  0  0999 V2000
   38.3270   32.7000   49.6940 C   0  0  0  0  0  0  0  0  0  0  0  0
   38.9680   33.1150   48.5040 C   0  0  0  0  0  0  0  0  0  0  0  0
   38.6210   32.4360   47.3260 C   0  0  0  0  0  0  0  0  0  0  0  0
   37.6930   31.4100   47.3500 N   0  0  0  0  0  0  0  0  0  0  0  0
   37.1260   31.0710   48.5270 C   0  0  0  0  0  0  0  0  0  0  0  0
   37.4200   31.6890   49.6950 N   0  0  0  0  0  0  0  0  0  0  0  0
   36.1810   30.0140   48.5090 N   0  0  0  0  0  0  0  0  0  0  0  0
   35.1620   29.9820   47.4730 C   0  0  0  0  0  0  0  0  0  0  0  0
   33.8320   29.8880   48.2070 C   0  0  0  0  0  0  0  0  0  0  0  0
   33.8550   28.9780   49.2480 O   0  0  0  0  0  0  0  0  0  0  0  0
   34.9470   28.1110   49.1880 C   0  0  0  0  0  0  0  0  0  0  0  0
   36.1960   28.9530   49.4980 C   0  0  0  0  0  0  0  0  0  0  0  0
   39.2270   32.7910   46.0450 C   0  0  0  0  0  0  0  0  0  0  0  0
   40.1430   33.7140   45.6880 N   0  0  0  0  0  0  0  0  0  0  0  0
   40.3660   33.6460   44.4030 O   0  0  0  0  0  0  0  0  0  0  0  0
   39.6220   32.7050   43.9130 C   0  0  0  0  0  0  0  0  0  0  0  0
   38.8810   32.1300   44.9010 N   0  0  0  0  0  0  0  0  0  0  0  0
   39.5220   32.2650   42.5600 N   0  0  0  0  0  0  0  0  0  0  0  0
   39.0240   33.0350   41.6000 N   0  0  0  0  0  0  0  0  0  0  0  0
   39.0450   32.3840   40.4290 C   0  0  0  0  0  0  0  0  0  0  0  0
   39.5880   31.1390   40.6820 C   0  0  0  0  0  0  0  0  0  0  0  0
   39.8710   31.1090   42.0220 C   0  0  0  0  0  0  0  0  0  0  0  0
   40.4470   30.0420   42.7960 C   0  0  0  0  0  0  0  0  0  0  0  0
   41.4990   29.4630   42.3890 O   0  0  0  0  0  0  0  0  0  0  0  0
   38.5682   33.2071   50.6399 H   0  0  0  0  0  0  0  0  0  0  0  0
   39.7044   33.9321   48.5017 H   0  0  0  0  0  0  0  0  0  0  0  0
   35.3038   29.1065   46.8223 H   0  0  0  0  0  0  0  0  0  0  0  0
   35.2088   30.8730   46.8296 H   0  0  0  0  0  0  0  0  0  0  0  0
   33.5844   30.8798   48.6132 H   0  0  0  0  0  0  0  0  0  0  0  0
   33.0792   29.5425   47.4832 H   0  0  0  0  0  0  0  0  0  0  0  0
   34.8359   27.3090   49.9326 H   0  0  0  0  0  0  0  0  0  0  0  0
   35.0236   27.6385   48.1976 H   0  0  0  0  0  0  0  0  0  0  0  0
   37.1075   28.3450   49.4005 H   0  0  0  0  0  0  0  0  0  0  0  0
   36.1895   29.3432   50.5264 H   0  0  0  0  0  0  0  0  0  0  0  0
   38.6982   32.7657   39.4574 H   0  0  0  0  0  0  0  0  0  0  0  0
   39.7589   30.3330   39.9532 H   0  0  0  0  0  0  0  0  0  0  0  0
   39.9756   29.7290   43.7393 H   0  0  0  0  0  0  0  0  0  0  0  0
  1  6  2  0
  2  1  1  0
  3  4  1  0
  3  2  2  0
  4  5  2  0
  5  6  1  0
  7  5  1  0
  7 12  1  0
  8  9  1  0
  8  7  1  0
  9 10  1  0
 11 10  1  0
 11 12  1  0
 13  3  1  0
 14 13  2  0
 15 14  1  0
 16 15  1  0
 16 17  2  0
 17 13  1  0
 18 16  1  0
 19 18  1  0
 20 21  1  0
 20 19  2  0
 21 22  2  0
 22 18  1  0
 22 23  1  0
 24 23  2  0
  1 25  1  0
  2 26  1  0
  8 27  1  0
  8 28  1  0
  9 29  1  0
  9 30  1  0
 11 31  1  0
 11 32  1  0
 12 33  1  0
 12 34  1  0
 20 35  1  0
 21 36  1  0
 23 37  1  0
M  ISO  8  25  14  26  14  27  13  28  13  29  13  30  13  31  13  32  13
M  ISO  5  33  13  34  13  35  14  36  14  37   6
M  END
>  <minimizedAffinity>  (1) 
-6.27946472

>  <minimizedRMSD>  (1) 
1.01273024

$$$$
