
     RDKit          3D

 48 52  0  0  1  0  0  0  0  0999 V2000
   38.2410   32.5460   44.7870 C   0  0  0  0  0  0  0  0  0  0  0  0
   37.7640   31.3000   44.2710 N   0  0  0  0  0  0  0  0  0  0  0  0
   36.7170   30.5260   44.6150 C   0  0  0  0  0  0  0  0  0  0  0  0
   36.7200   29.4560   43.7990 N   0  0  0  0  0  0  0  0  0  0  0  0
   37.7400   29.5270   42.9420 C   0  0  0  0  0  0  0  0  0  0  0  0
   38.1420   28.6900   41.9310 C   0  0  0  0  0  0  0  0  0  0  0  0
   37.5460   27.6120   41.6390 O   0  0  0  0  0  0  0  0  0  0  0  0
   39.2230   28.9840   41.1730 N   0  0  0  0  0  0  0  0  0  0  0  0
   39.8450   30.1280   41.4900 C   0  0  0  0  0  0  0  0  0  0  0  0
   41.0180   30.5250   40.7500 N   0  0  0  0  0  0  0  0  0  0  0  0
   39.4850   30.9750   42.4730 N   0  0  0  0  0  0  0  0  0  0  0  0
   38.4130   30.6970   43.2320 C   0  0  0  0  0  0  0  0  0  0  0  0
   39.7740   28.2440   40.0980 C   0  0  0  0  0  0  0  0  0  0  0  0
   40.4570   27.0610   40.1560 C   0  0  0  0  0  0  0  0  0  0  0  0
   40.9680   26.3940   39.0730 C   0  0  0  0  0  0  0  0  0  0  0  0
   40.8100   26.9110   37.8080 C   0  0  0  0  0  0  0  0  0  0  0  0
   40.1230   28.1030   37.7430 C   0  0  0  0  0  0  0  0  0  0  0  0
   39.6510   28.7000   38.8440 N   0  0  0  0  0  0  0  0  0  0  0  0
   39.4620   32.3950   45.7110 C   0  0  2  0  0  0  0  0  0  0  0  0
   37.9100   31.8730   49.0000 C   0  0  0  0  0  0  0  0  0  0  0  0
   38.4080   33.0410   49.6370 C   0  0  0  0  0  0  0  0  0  0  0  0
   39.4180   33.8630   48.3350 S   0  0  0  0  0  0  0  0  0  0  0  0
   38.9680   32.4310   47.1300 C   0  0  0  0  0  0  0  0  0  0  0  0
   38.3240   31.7850   47.7580 N   0  0  0  0  0  0  0  0  0  0  0  0
   37.4710   30.4080   50.9340 C   0  0  0  0  0  0  0  0  0  0  0  0
   37.0430   30.9710   49.7420 C   0  0  0  0  0  0  0  0  0  0  0  0
   35.7500   30.6230   49.3250 C   0  0  0  0  0  0  0  0  0  0  0  0
   35.0080   29.7870   50.0720 N   0  0  0  0  0  0  0  0  0  0  0  0
   35.4700   29.2690   51.2210 C   0  0  0  0  0  0  0  0  0  0  0  0
   36.7080   29.5800   51.6540 N   0  0  0  0  0  0  0  0  0  0  0  0
   40.4110   33.5140   45.5290 C   0  0  0  0  0  0  0  0  0  0  0  0
   37.4290   33.0218   45.3565 H   0  0  0  0  0  0  0  0  0  0  0  0
   38.5566   33.1551   43.9272 H   0  0  0  0  0  0  0  0  0  0  0  0
   35.9920   30.7310   45.4164 H   0  0  0  0  0  0  0  0  0  0  0  0
   41.5032   31.4024   40.9859 H   0  0  0  0  0  0  0  0  0  0  0  0
   41.3703   29.9311   39.9858 H   0  0  0  0  0  0  0  0  0  0  0  0
   40.6080   26.6099   41.1478 H   0  0  0  0  0  0  0  0  0  0  0  0
   41.5049   25.4445   39.2155 H   0  0  0  0  0  0  0  0  0  0  0  0
   41.2041   26.4084   36.9125 H   0  0  0  0  0  0  0  0  0  0  0  0
   39.9584   28.5754   36.7633 H   0  0  0  0  0  0  0  0  0  0  0  0
   39.9772   31.4523   45.4745 H   0  0  0  0  0  0  0  0  0  0  0  0
   38.2312   33.3768   50.6695 H   0  0  0  0  0  0  0  0  0  0  0  0
   38.4784   30.6523   51.3019 H   0  0  0  0  0  0  0  0  0  0  0  0
   35.3438   31.0332   48.3887 H   0  0  0  0  0  0  0  0  0  0  0  0
   34.8370   28.5893   51.8104 H   0  0  0  0  0  0  0  0  0  0  0  0
   40.7289   33.8889   46.5131 H   0  0  0  0  0  0  0  0  0  0  0  0
   41.2901   33.1619   44.9693 H   0  0  0  0  0  0  0  0  0  0  0  0
   39.9201   34.3238   44.9693 H   0  0  0  0  0  0  0  0  0  0  0  0
  1 19  1  0
  2  3  1  0
  2  1  1  0
  4  3  2  0
  5 12  2  0
  5  4  1  0
  6  5  1  0
  7  6  2  0
  8  9  1  0
  8  6  1  0
  9 11  2  0
 10  9  1  0
 11 12  1  0
 12  2  1  0
 13 14  2  0
 13  8  1  0
 15 14  1  0
 16 15  2  0
 17 16  1  0
 17 18  2  0
 18 13  1  0
 19 23  1  0
 20 21  2  0
 20 26  1  0
 22 21  1  0
 23 24  2  0
 23 22  1  0
 24 20  1  0
 25 30  2  0
 26 25  1  0
 27 26  2  0
 27 28  1  0
 28 29  2  0
 29 30  1  0
 31 19  1  0
  1 32  1  0
  1 33  1  0
  3 34  1  0
 10 35  1  0
 10 36  1  0
 14 37  1  0
 15 38  1  0
 16 39  1  0
 17 40  1  0
 19 41  1  6
 21 42  1  0
 25 43  1  0
 27 44  1  0
 29 45  1  0
 31 46  1  0
 31 47  1  0
 31 48  1  0
M  ISO  8  32   8  33   8  34  14  37  14  38  14  39  14  40  14  41   8
M  ISO  7  42  14  43  14  44  14  45  14  46   8  47   8  48   8
M  END
>  <minimizedAffinity>  (1) 
-5.84223175

>  <minimizedRMSD>  (1) 
1.46245515

$$$$
