
     RDKit          3D

 12 12  0  0  0  0  0  0  0  0999 V2000
   37.8160   30.7530   50.5860 C   0  0  0  0  0  0  0  0  0  0  0  0
   37.5520   31.5650   49.4660 C   0  0  0  0  0  0  0  0  0  0  0  0
   36.7020   31.0520   48.4860 C   0  0  0  0  0  0  0  0  0  0  0  0
   36.1790   29.8070   48.6670 N   0  0  0  0  0  0  0  0  0  0  0  0
   36.4570   29.0640   49.7520 C   0  0  0  0  0  0  0  0  0  0  0  0
   37.2800   29.5370   50.7200 N   0  0  0  0  0  0  0  0  0  0  0  0
   38.1450   32.9080   49.3190 C   0  0  0  0  0  0  0  0  0  0  0  0
   38.9910   33.0840   48.4070 O   0  0  0  0  0  0  0  0  0  0  0  0
   38.4836   31.1316   51.3740 H   0  0  0  0  0  0  0  0  0  0  0  0
   36.4596   31.6391   47.5879 H   0  0  0  0  0  0  0  0  0  0  0  0
   36.0127   28.0630   49.8555 H   0  0  0  0  0  0  0  0  0  0  0  0
   37.8548   33.7312   49.9884 H   0  0  0  0  0  0  0  0  0  0  0  0
  1  6  2  0
  2  1  1  0
  3  4  1  0
  3  2  2  0
  4  5  2  0
  5  6  1  0
  7  2  1  0
  8  7  2  0
  1  9  1  0
  3 10  1  0
  5 11  1  0
  7 12  1  0
M  ISO  4   9  14  10  14  11  14  12   6
M  END
>  <minimizedAffinity>  (1) 
-3.23137546

>  <minimizedRMSD>  (1) 
1.367558

$$$$
