
     RDKit          3D

 46 48  0  0  0  0  0  0  0  0999 V2000
   36.9140   30.8080   46.0790 C   0  0  0  0  0  0  0  0  0  0  0  0
   35.8870   30.0340   46.6260 C   0  0  0  0  0  0  0  0  0  0  0  0
   35.5570   29.9830   47.9430 C   0  0  0  0  0  0  0  0  0  0  0  0
   36.2680   30.7430   48.8470 C   0  0  0  0  0  0  0  0  0  0  0  0
   37.2720   31.5130   48.3800 C   0  0  0  0  0  0  0  0  0  0  0  0
   37.9760   32.2690   49.3000 C   0  0  0  0  0  0  0  0  0  0  0  0
   39.0050   33.0740   48.9160 C   0  0  0  0  0  0  0  0  0  0  0  0
   39.3340   33.1170   47.5700 C   0  0  0  0  0  0  0  0  0  0  0  0
   38.6130   32.3530   46.6950 C   0  0  0  0  0  0  0  0  0  0  0  0
   37.5880   31.5470   47.0440 C   0  0  0  0  0  0  0  0  0  0  0  0
   36.2080   31.2450   42.5770 C   0  0  0  0  0  0  0  0  0  0  0  0
   37.4160   30.9930   41.9040 C   0  0  0  0  0  0  0  0  0  0  0  0
   38.4930   30.6660   42.6730 C   0  0  0  0  0  0  0  0  0  0  0  0
   38.2960   30.6190   43.9720 N   0  0  0  0  0  0  0  0  0  0  0  0
   37.2320   30.8320   44.6730 C   0  0  0  0  0  0  0  0  0  0  0  0
   36.1870   31.1500   43.9090 N   0  0  0  0  0  0  0  0  0  0  0  0
   39.7630   30.3800   42.1290 N   0  0  0  0  0  0  0  0  0  0  0  0
   40.8640   29.9820   42.9490 C   0  0  0  0  0  0  0  0  0  0  0  0
   41.0090   30.5900   44.0840 N   0  0  0  0  0  0  0  0  0  0  0  0
   41.7650   28.9620   42.5440 N   0  0  0  0  0  0  0  0  0  0  0  0
   41.7320   30.4260   44.7740 H   0  0  0  0  0  0  0  0  0  0  0  0
   37.5100   31.0770   40.4340 C   0  0  0  0  0  0  0  0  0  0  0  0
   37.8220   29.6630   39.9530 C   0  0  0  0  0  0  0  0  0  0  0  0
   38.6510   31.9220   39.9440 C   0  0  0  0  0  0  0  0  0  0  0  0
   35.9110   30.6710   50.1730 O   0  0  0  0  0  0  0  0  0  0  0  0
   36.4290   29.6440   51.0070 C   0  0  0  0  0  0  0  0  0  0  0  0
   37.2380   28.7400   50.3920 F   0  0  0  0  0  0  0  0  0  0  0  0
   37.2110   30.2610   51.9750 F   0  0  0  0  0  0  0  0  0  0  0  0
   35.3300   29.0190   51.5820 F   0  0  0  0  0  0  0  0  0  0  0  0
   35.2974   29.4153   45.9335 H   0  0  0  0  0  0  0  0  0  0  0  0
   34.7310   29.3418   48.2844 H   0  0  0  0  0  0  0  0  0  0  0  0
   37.6990   32.2189   50.3634 H   0  0  0  0  0  0  0  0  0  0  0  0
   39.5596   33.6733   49.6531 H   0  0  0  0  0  0  0  0  0  0  0  0
   40.1580   33.7526   47.2134 H   0  0  0  0  0  0  0  0  0  0  0  0
   38.8877   32.3983   45.6308 H   0  0  0  0  0  0  0  0  0  0  0  0
   35.2994   31.5147   42.0186 H   0  0  0  0  0  0  0  0  0  0  0  0
   39.9007   30.4603   41.1114 H   0  0  0  0  0  0  0  0  0  0  0  0
   42.5499   28.6956   43.1555 H   0  0  0  0  0  0  0  0  0  0  0  0
   41.6337   28.4885   41.6388 H   0  0  0  0  0  0  0  0  0  0  0  0
   36.5716   31.5158   40.0642 H   0  0  0  0  0  0  0  0  0  0  0  0
   37.9674   29.0040   40.8216 H   0  0  0  0  0  0  0  0  0  0  0  0
   36.9847   29.2893   39.3453 H   0  0  0  0  0  0  0  0  0  0  0  0
   38.7388   29.6763   39.3453 H   0  0  0  0  0  0  0  0  0  0  0  0
   39.2014   32.3296   40.8047 H   0  0  0  0  0  0  0  0  0  0  0  0
   39.3281   31.3058   39.3342 H   0  0  0  0  0  0  0  0  0  0  0  0
   38.2591   32.7494   39.3342 H   0  0  0  0  0  0  0  0  0  0  0  0
  1  2  2  0
  1 10  1  0
  2  3  1  0
  3  4  2  0
  4 25  1  0
  5  4  1  0
  5  6  2  0
  7  6  1  0
  8  7  2  0
  9 10  2  0
  9  8  1  0
 10  5  1  0
 11 16  2  0
 12 11  1  0
 12 13  2  0
 13 14  1  0
 14 15  2  0
 15  1  1  0
 16 15  1  0
 17 13  1  0
 17 18  1  0
 18 19  2  0
 19 21  1  0
 20 18  1  0
 22 12  1  0
 23 22  1  0
 24 22  1  0
 25 26  1  0
 26 29  1  0
 26 28  1  0
 27 26  1  0
  2 30  1  0
  3 31  1  0
  6 32  1  0
  7 33  1  0
  8 34  1  0
  9 35  1  0
 11 36  1  0
 17 37  1  0
 20 38  1  0
 20 39  1  0
 22 40  1  0
 23 41  1  0
 23 42  1  0
 23 43  1  0
 24 44  1  0
 24 45  1  0
 24 46  1  0
M  END
>  <Score>  (1) 
-7.38464

$$$$
