
     RDKit          3D

 41 44  0  0  1  0  0  0  0  0999 V2000
   38.4650   32.3480   48.3040 C   0  0  2  0  0  0  0  0  0  0  0  0
   38.9990   32.3360   46.9730 C   0  0  0  0  0  0  0  0  0  0  0  0
   39.7740   33.4850   46.7400 C   0  0  0  0  0  0  0  0  0  0  0  0
   40.5220   33.6000   45.5160 C   0  0  0  0  0  0  0  0  0  0  0  0
   40.4120   32.5550   44.6650 N   0  0  0  0  0  0  0  0  0  0  0  0
   39.6470   31.4600   44.9260 C   0  0  0  0  0  0  0  0  0  0  0  0
   38.9630   31.3560   46.0470 N   0  0  0  0  0  0  0  0  0  0  0  0
   39.6020   30.4110   43.9470 N   0  0  0  0  0  0  0  0  0  0  0  0
   40.6840   30.1820   43.1610 C   0  0  0  0  0  0  0  0  0  0  0  0
   40.5330   29.1370   42.2410 C   0  0  0  0  0  0  0  0  0  0  0  0
   41.6610   28.8100   41.3370 C   0  0  0  0  0  0  0  0  0  0  0  0
   39.3740   28.3950   42.1380 C   0  0  0  0  0  0  0  0  0  0  0  0
   39.2830   27.4640   41.2970 O   0  0  0  0  0  0  0  0  0  0  0  0
   38.3310   28.6660   42.9450 N   0  0  0  0  0  0  0  0  0  0  0  0
   38.4810   29.6760   43.8310 C   0  0  0  0  0  0  0  0  0  0  0  0
   37.4850   29.9240   44.5910 O   0  0  0  0  0  0  0  0  0  0  0  0
   37.8790   31.3160   49.1580 C   0  0  0  0  0  0  0  0  0  0  0  0
   38.4180   31.0870   50.3530 N   0  0  0  0  0  0  0  0  0  0  0  0
   37.9490   30.1430   51.2060 C   0  0  0  0  0  0  0  0  0  0  0  0
   36.9040   29.3690   50.9130 N   0  0  0  0  0  0  0  0  0  0  0  0
   36.2880   29.5230   49.7330 C   0  0  0  0  0  0  0  0  0  0  0  0
   35.2080   28.7410   49.3680 C   0  0  0  0  0  0  0  0  0  0  0  0
   34.5780   28.8770   48.1700 C   0  0  0  0  0  0  0  0  0  0  0  0
   35.0760   29.8440   47.3300 C   0  0  0  0  0  0  0  0  0  0  0  0
   36.1500   30.6110   47.7080 C   0  0  0  0  0  0  0  0  0  0  0  0
   36.8000   30.4950   48.9000 C   0  0  0  0  0  0  0  0  0  0  0  0
   37.9820   33.4690   48.8370 O   0  0  0  0  0  0  0  0  0  0  0  0
   39.5012   32.0103   48.1551 H   0  0  0  0  0  0  0  0  0  0  0  0
   39.8086   34.2908   47.4880 H   0  0  0  0  0  0  0  0  0  0  0  0
   41.1420   34.4795   45.2879 H   0  0  0  0  0  0  0  0  0  0  0  0
   41.6090   30.7720   43.2403 H   0  0  0  0  0  0  0  0  0  0  0  0
   42.5476   28.5530   41.9352 H   0  0  0  0  0  0  0  0  0  0  0  0
   41.3862   27.9545   40.7024 H   0  0  0  0  0  0  0  0  0  0  0  0
   41.8864   29.6798   40.7024 H   0  0  0  0  0  0  0  0  0  0  0  0
   37.4554   28.1264   42.8897 H   0  0  0  0  0  0  0  0  0  0  0  0
   38.4498   30.0109   52.1764 H   0  0  0  0  0  0  0  0  0  0  0  0
   34.8441   27.9795   50.0734 H   0  0  0  0  0  0  0  0  0  0  0  0
   33.7194   28.2491   47.8898 H   0  0  0  0  0  0  0  0  0  0  0  0
   34.6102   30.0048   46.3466 H   0  0  0  0  0  0  0  0  0  0  0  0
   36.5107   31.3716   46.9999 H   0  0  0  0  0  0  0  0  0  0  0  0
   38.0101   33.4037   49.8244 H   0  0  0  0  0  0  0  0  0  0  0  0
  1 27  1  0
  1 17  1  0
  2  1  1  0
  3  2  2  0
  4  3  1  0
  5  6  1  0
  5  4  2  0
  6  7  2  0
  7  2  1  0
  8  6  1  0
  9  8  1  0
 10  9  2  0
 11 10  1  0
 12 10  1  0
 12 14  1  0
 13 12  2  0
 14 15  1  0
 15  8  1  0
 15 16  2  0
 17 18  2  0
 18 19  1  0
 20 19  2  0
 21 20  1  0
 22 21  2  0
 23 22  1  0
 24 25  1  0
 24 23  2  0
 25 26  2  0
 26 17  1  0
 26 21  1  0
  1 28  1  1
  3 29  1  0
  4 30  1  0
  9 31  1  0
 11 32  1  0
 11 33  1  0
 11 34  1  0
 14 35  1  0
 19 36  1  0
 22 37  1  0
 23 38  1  0
 24 39  1  0
 25 40  1  0
 27 41  1  0
M  END
>  <Score>  (1) 
-7.76099

$$$$
