
     RDKit          3D

 33 34  0  0  0  0  0  0  0  0999 V2000
   36.9040   29.9420   49.8910 C   0  0  0  0  0  0  0  0  0  0  0  0
   38.0070   30.6340   49.4070 C   0  0  0  0  0  0  0  0  0  0  0  0
   37.9820   31.0870   48.0850 C   0  0  0  0  0  0  0  0  0  0  0  0
   36.8820   30.8260   47.3480 N   0  0  0  0  0  0  0  0  0  0  0  0
   35.8240   30.1440   47.8620 C   0  0  0  0  0  0  0  0  0  0  0  0
   35.8500   29.7150   49.1170 N   0  0  0  0  0  0  0  0  0  0  0  0
   39.0630   31.7930   47.5340 N   0  0  0  0  0  0  0  0  0  0  0  0
   38.9520   32.5290   46.3450 C   0  0  0  0  0  0  0  0  0  0  0  0
   37.8530   32.4540   45.6900 N   0  0  0  0  0  0  0  0  0  0  0  0
   40.0340   33.3280   45.8950 N   0  0  0  0  0  0  0  0  0  0  0  0
   37.7850   32.9360   44.7540 H   0  0  0  0  0  0  0  0  0  0  0  0
   34.6470   29.8470   47.1230 N   0  0  0  0  0  0  0  0  0  0  0  0
   34.3590   30.1390   45.8430 C   0  0  0  0  0  0  0  0  0  0  0  0
   33.1480   29.7620   45.2990 C   0  0  0  0  0  0  0  0  0  0  0  0
   32.8720   30.1050   43.8800 C   0  0  0  0  0  0  0  0  0  0  0  0
   32.2410   29.0860   46.0750 C   0  0  0  0  0  0  0  0  0  0  0  0
   31.1290   28.7330   45.5950 O   0  0  0  0  0  0  0  0  0  0  0  0
   32.5460   28.8010   47.3570 N   0  0  0  0  0  0  0  0  0  0  0  0
   33.7280   29.1740   47.8740 C   0  0  0  0  0  0  0  0  0  0  0  0
   33.8880   28.8440   49.0920 O   0  0  0  0  0  0  0  0  0  0  0  0
   36.9300   29.4510   51.3200 C   0  0  0  0  0  0  0  0  0  0  0  0
   35.6390   29.1510   51.7190 F   0  0  0  0  0  0  0  0  0  0  0  0
   37.7990   28.4040   51.3900 F   0  0  0  0  0  0  0  0  0  0  0  0
   37.3910   30.5100   52.0980 F   0  0  0  0  0  0  0  0  0  0  0  0
   38.8801   30.8212   50.0494 H   0  0  0  0  0  0  0  0  0  0  0  0
   39.9706   31.7698   48.0204 H   0  0  0  0  0  0  0  0  0  0  0  0
   39.9479   33.8667   45.0213 H   0  0  0  0  0  0  0  0  0  0  0  0
   40.9058   33.3695   46.4419 H   0  0  0  0  0  0  0  0  0  0  0  0
   35.0915   30.6807   45.2266 H   0  0  0  0  0  0  0  0  0  0  0  0
   32.1829   30.9614   43.8371 H   0  0  0  0  0  0  0  0  0  0  0  0
   33.8141   30.3669   43.3761 H   0  0  0  0  0  0  0  0  0  0  0  0
   32.4146   29.2407   43.3761 H   0  0  0  0  0  0  0  0  0  0  0  0
   31.8681   28.2939   47.9437 H   0  0  0  0  0  0  0  0  0  0  0  0
  1 21  1  0
  2  1  2  0
  3  2  1  0
  4  5  1  0
  4  3  2  0
  5  6  2  0
  6  1  1  0
  7  3  1  0
  8  7  1  0
  9  8  2  0
 10  8  1  0
 11  9  1  0
 12  5  1  0
 12 19  1  0
 13 12  1  0
 14 13  2  0
 14 16  1  0
 15 14  1  0
 16 18  1  0
 17 16  2  0
 18 19  1  0
 19 20  2  0
 21 23  1  0
 21 22  1  0
 21 24  1  0
  2 25  1  0
  7 26  1  0
 10 27  1  0
 10 28  1  0
 13 29  1  0
 15 30  1  0
 15 31  1  0
 15 32  1  0
 18 33  1  0
M  END
>  <Score>  (1) 
-7.48958

$$$$
