
     RDKit          3D

 32 34  0  0  0  0  0  0  0  0999 V2000
   36.4550   30.5280   46.5900 C   0  0  0  0  0  0  0  0  0  0  0  0
   35.1570   30.0580   46.5360 C   0  0  0  0  0  0  0  0  0  0  0  0
   34.5070   29.7420   45.3570 C   0  0  0  0  0  0  0  0  0  0  0  0
   35.1860   29.9020   44.1660 C   0  0  0  0  0  0  0  0  0  0  0  0
   36.4950   30.3740   44.2020 C   0  0  0  0  0  0  0  0  0  0  0  0
   37.1230   30.6830   45.4040 C   0  0  0  0  0  0  0  0  0  0  0  0
   37.3980   30.2960   50.1220 C   0  0  0  0  0  0  0  0  0  0  0  0
   38.1650   31.4450   50.3150 C   0  0  0  0  0  0  0  0  0  0  0  0
   38.3610   32.3030   49.2220 C   0  0  0  0  0  0  0  0  0  0  0  0
   37.7930   31.9590   48.0500 N   0  0  0  0  0  0  0  0  0  0  0  0
   37.0520   30.8380   47.8900 C   0  0  0  0  0  0  0  0  0  0  0  0
   36.8780   30.0410   48.9310 N   0  0  0  0  0  0  0  0  0  0  0  0
   37.1950   29.3870   51.2980 C   0  0  0  0  0  0  0  0  0  0  0  0
   35.8410   29.1310   51.4490 F   0  0  0  0  0  0  0  0  0  0  0  0
   37.9220   28.2590   51.0920 F   0  0  0  0  0  0  0  0  0  0  0  0
   37.6320   30.0570   52.4380 F   0  0  0  0  0  0  0  0  0  0  0  0
   38.4920   31.1710   45.3350 C   0  0  0  0  0  0  0  0  0  0  0  0
   38.5360   32.4990   44.9150 C   0  0  0  0  0  0  0  0  0  0  0  0
   39.7100   33.2100   44.7690 C   0  0  0  0  0  0  0  0  0  0  0  0
   40.9030   32.5950   45.0460 C   0  0  0  0  0  0  0  0  0  0  0  0
   40.8250   31.2870   45.4570 C   0  0  0  0  0  0  0  0  0  0  0  0
   39.6680   30.6230   45.5890 N   0  0  0  0  0  0  0  0  0  0  0  0
   34.6110   29.9281   47.4820 H   0  0  0  0  0  0  0  0  0  0  0  0
   33.4714   29.3712   45.3681 H   0  0  0  0  0  0  0  0  0  0  0  0
   34.7025   29.6614   43.2077 H   0  0  0  0  0  0  0  0  0  0  0  0
   37.0452   30.5056   43.2586 H   0  0  0  0  0  0  0  0  0  0  0  0
   38.6044   31.6724   51.2975 H   0  0  0  0  0  0  0  0  0  0  0  0
   38.9566   33.2227   49.3187 H   0  0  0  0  0  0  0  0  0  0  0  0
   37.5868   33.0065   44.6883 H   0  0  0  0  0  0  0  0  0  0  0  0
   39.6883   34.2576   44.4343 H   0  0  0  0  0  0  0  0  0  0  0  0
   41.8655   33.1179   44.9451 H   0  0  0  0  0  0  0  0  0  0  0  0
   41.7602   30.7568   45.6899 H   0  0  0  0  0  0  0  0  0  0  0  0
  1 11  1  0
  2  1  2  0
  3  2  1  0
  4  5  1  0
  4  3  2  0
  5  6  2  0
  6  1  1  0
  7  8  2  0
  7 13  1  0
  9  8  1  0
 10  9  2  0
 11 10  1  0
 11 12  2  0
 12  7  1  0
 13 14  1  0
 13 16  1  0
 15 13  1  0
 17  6  1  0
 17 22  1  0
 18 17  2  0
 19 18  1  0
 19 20  2  0
 20 21  1  0
 21 22  2  0
  2 23  1  0
  3 24  1  0
  4 25  1  0
  5 26  1  0
  8 27  1  0
  9 28  1  0
 18 29  1  0
 19 30  1  0
 20 31  1  0
 21 32  1  0
M  END
>  <Score>  (1) 
-7.08844

$$$$
