
     RDKit          3D

 46 51  0  0  0  0  0  0  0  0999 V2000
   32.2230   29.6320   46.2250 C   0  0  0  0  0  0  0  0  0  0  0  0
   32.0360   28.2430   46.2250 C   0  0  0  0  0  0  0  0  0  0  0  0
   33.0730   27.4540   46.7690 C   0  0  0  0  0  0  0  0  0  0  0  0
   34.1750   28.0510   47.2570 N   0  0  0  0  0  0  0  0  0  0  0  0
   34.3220   29.4040   47.2390 C   0  0  0  0  0  0  0  0  0  0  0  0
   33.3490   30.1860   46.7260 N   0  0  0  0  0  0  0  0  0  0  0  0
   32.9300   26.0010   46.7920 C   0  0  0  0  0  0  0  0  0  0  0  0
   33.9570   25.2300   47.2620 C   0  0  0  0  0  0  0  0  0  0  0  0
   33.7340   23.8800   47.2410 C   0  0  0  0  0  0  0  0  0  0  0  0
   32.5900   23.3310   46.7920 N   0  0  0  0  0  0  0  0  0  0  0  0
   31.5710   24.1200   46.3240 C   0  0  0  0  0  0  0  0  0  0  0  0
   31.7900   25.4600   46.3440 N   0  0  0  0  0  0  0  0  0  0  0  0
   30.3310   23.6270   45.8320 N   0  0  0  0  0  0  0  0  0  0  0  0
   29.3260   24.1700   45.1220 C   0  0  0  0  0  0  0  0  0  0  0  0
   28.3870   23.2200   44.9400 N   0  0  0  0  0  0  0  0  0  0  0  0
   28.8040   22.0790   45.5380 C   0  0  0  0  0  0  0  0  0  0  0  0
   28.1820   20.8710   45.6110 C   0  0  0  0  0  0  0  0  0  0  0  0
   27.0580   20.6610   45.0860 O   0  0  0  0  0  0  0  0  0  0  0  0
   28.7660   19.8390   46.2620 N   0  0  0  0  0  0  0  0  0  0  0  0
   29.9740   20.1100   46.8090 C   0  0  0  0  0  0  0  0  0  0  0  0
   30.6270   19.0460   47.5070 N   0  0  0  0  0  0  0  0  0  0  0  0
   30.6170   21.2820   46.7610 N   0  0  0  0  0  0  0  0  0  0  0  0
   30.0520   22.3210   46.1180 C   0  0  0  0  0  0  0  0  0  0  0  0
   35.5480   29.9470   47.7880 C   0  0  0  0  0  0  0  0  0  0  0  0
   36.5010   30.6300   47.0380 C   0  0  0  0  0  0  0  0  0  0  0  0
   37.5210   31.0120   47.8070 N   0  0  0  0  0  0  0  0  0  0  0  0
   37.2550   30.5860   49.0750 C   0  0  0  0  0  0  0  0  0  0  0  0
   37.9700   30.7120   50.2560 C   0  0  0  0  0  0  0  0  0  0  0  0
   37.4330   30.1620   51.4190 C   0  0  0  0  0  0  0  0  0  0  0  0
   36.2140   29.5130   51.3690 C   0  0  0  0  0  0  0  0  0  0  0  0
   35.4760   29.3740   50.1910 C   0  0  0  0  0  0  0  0  0  0  0  0
   36.0410   29.9300   49.0660 C   0  0  0  0  0  0  0  0  0  0  0  0
   31.4393   30.2827   45.8098 H   0  0  0  0  0  0  0  0  0  0  0  0
   31.1210   27.7872   45.8188 H   0  0  0  0  0  0  0  0  0  0  0  0
   34.8974   25.6649   47.6314 H   0  0  0  0  0  0  0  0  0  0  0  0
   34.5270   23.2120   47.6084 H   0  0  0  0  0  0  0  0  0  0  0  0
   29.2786   25.2058   44.7548 H   0  0  0  0  0  0  0  0  0  0  0  0
   28.3226   18.9123   46.3362 H   0  0  0  0  0  0  0  0  0  0  0  0
   31.5480   19.2033   47.9404 H   0  0  0  0  0  0  0  0  0  0  0  0
   30.1762   18.1225   47.5762 H   0  0  0  0  0  0  0  0  0  0  0  0
   36.4233   30.8276   45.9587 H   0  0  0  0  0  0  0  0  0  0  0  0
   38.3553   31.5324   47.5003 H   0  0  0  0  0  0  0  0  0  0  0  0
   38.9382   31.2337   50.2750 H   0  0  0  0  0  0  0  0  0  0  0  0
   37.9768   30.2442   52.3716 H   0  0  0  0  0  0  0  0  0  0  0  0
   35.8068   29.0870   52.2978 H   0  0  0  0  0  0  0  0  0  0  0  0
   34.5069   28.8543   50.1644 H   0  0  0  0  0  0  0  0  0  0  0  0
  1  6  2  0
  2  1  1  0
  2  3  2  0
  3  7  1  0
  3  4  1  0
  5  4  2  0
  5 24  1  0
  6  5  1  0
  7  8  2  0
  9  8  1  0
 10  9  2  0
 11 12  2  0
 11 10  1  0
 12  7  1  0
 13 23  1  0
 13 11  1  0
 14 13  1  0
 15 14  2  0
 15 16  1  0
 16 17  1  0
 16 23  2  0
 17 19  1  0
 18 17  2  0
 19 20  1  0
 20 21  1  0
 22 20  2  0
 23 22  1  0
 24 32  1  0
 25 24  2  0
 25 26  1  0
 26 27  1  0
 27 28  2  0
 28 29  1  0
 30 29  2  0
 31 30  1  0
 32 27  1  0
 32 31  2  0
  1 33  1  0
  2 34  1  0
  8 35  1  0
  9 36  1  0
 14 37  1  0
 19 38  1  0
 21 39  1  0
 21 40  1  0
 25 41  1  0
 26 42  1  0
 28 43  1  0
 29 44  1  0
 30 45  1  0
 31 46  1  0
M  END
>  <Score>  (1) 
-7.51224

$$$$
