
     RDKit          3D

 44 48  0  0  0  0  0  0  0  0999 V2000
   30.7870   27.9410   47.0940 C   0  0  0  0  0  0  0  0  0  0  0  0
   31.5680   28.7470   46.3350 C   0  0  0  0  0  0  0  0  0  0  0  0
   32.8220   29.1650   46.7580 C   0  0  0  0  0  0  0  0  0  0  0  0
   33.2930   28.7560   47.9750 C   0  0  0  0  0  0  0  0  0  0  0  0
   32.4850   27.9350   48.7370 C   0  0  0  0  0  0  0  0  0  0  0  0
   31.2410   27.5080   48.3420 C   0  0  0  0  0  0  0  0  0  0  0  0
   36.2680   30.4520   48.7190 C   0  0  0  0  0  0  0  0  0  0  0  0
   36.4310   29.3690   49.5900 C   0  0  0  0  0  0  0  0  0  0  0  0
   35.3450   28.5340   49.4710 C   0  0  0  0  0  0  0  0  0  0  0  0
   34.5520   29.0900   48.5610 N   0  0  0  0  0  0  0  0  0  0  0  0
   35.0870   30.2080   48.1220 N   0  0  0  0  0  0  0  0  0  0  0  0
   38.4060   33.4020   49.3680 C   0  0  0  0  0  0  0  0  0  0  0  0
   39.2100   33.3760   48.2380 C   0  0  0  0  0  0  0  0  0  0  0  0
   39.0150   32.3750   47.2940 C   0  0  0  0  0  0  0  0  0  0  0  0
   38.0340   31.4580   47.5250 N   0  0  0  0  0  0  0  0  0  0  0  0
   37.2690   31.5060   48.6290 C   0  0  0  0  0  0  0  0  0  0  0  0
   37.4300   32.4690   49.5700 N   0  0  0  0  0  0  0  0  0  0  0  0
   29.2030   27.3960   46.5800 S   0  0  0  0  0  0  0  0  0  0  0  0
   29.3400   26.3840   45.5140 O   0  0  0  0  0  0  0  0  0  0  0  0
   28.5470   26.7660   47.8030 O   0  0  0  0  0  0  0  0  0  0  0  0
   28.2030   28.7640   46.1690 C   0  0  0  0  0  0  0  0  0  0  0  0
   27.8970   29.0420   44.8670 N   0  0  0  0  0  0  0  0  0  0  0  0
   27.1270   30.0840   44.5150 C   0  0  0  0  0  0  0  0  0  0  0  0
   26.5900   30.9470   45.4160 N   0  0  0  0  0  0  0  0  0  0  0  0
   26.8540   30.7290   46.7320 C   0  0  0  0  0  0  0  0  0  0  0  0
   26.3340   31.5650   47.6980 C   0  0  0  0  0  0  0  0  0  0  0  0
   26.5860   31.3570   49.0570 C   0  0  0  0  0  0  0  0  0  0  0  0
   27.3880   30.2650   49.4070 C   0  0  0  0  0  0  0  0  0  0  0  0
   27.8730   29.4730   48.3880 C   0  0  0  0  0  0  0  0  0  0  0  0
   27.6380   29.6620   47.0440 C   0  0  0  0  0  0  0  0  0  0  0  0
   31.1972   29.0800   45.3544 H   0  0  0  0  0  0  0  0  0  0  0  0
   33.4324   29.8203   46.1192 H   0  0  0  0  0  0  0  0  0  0  0  0
   32.8596   27.6040   49.7169 H   0  0  0  0  0  0  0  0  0  0  0  0
   30.6290   26.8538   48.9803 H   0  0  0  0  0  0  0  0  0  0  0  0
   37.2884   29.2113   50.2608 H   0  0  0  0  0  0  0  0  0  0  0  0
   35.1685   27.5961   50.0180 H   0  0  0  0  0  0  0  0  0  0  0  0
   38.5582   34.1920   50.1181 H   0  0  0  0  0  0  0  0  0  0  0  0
   39.9908   34.1368   48.0912 H   0  0  0  0  0  0  0  0  0  0  0  0
   39.6347   32.3244   46.3866 H   0  0  0  0  0  0  0  0  0  0  0  0
   26.9213   30.2465   43.4467 H   0  0  0  0  0  0  0  0  0  0  0  0
   25.7065   32.4150   47.3918 H   0  0  0  0  0  0  0  0  0  0  0  0
   26.1692   32.0271   49.8233 H   0  0  0  0  0  0  0  0  0  0  0  0
   27.6234   30.0460   50.4590 H   0  0  0  0  0  0  0  0  0  0  0  0
   28.5017   28.6165   48.6728 H   0  0  0  0  0  0  0  0  0  0  0  0
  1  6  2  0
  2  3  2  0
  2  1  1  0
  3  4  1  0
  4 10  1  0
  4  5  2  0
  6  5  1  0
  7  8  1  0
  9  8  2  0
 10  9  1  0
 11 10  1  0
 11  7  2  0
 12 17  2  0
 13 12  1  0
 14 15  1  0
 14 13  2  0
 15 16  2  0
 16  7  1  0
 16 17  1  0
 18  1  1  0
 18 20  2  0
 19 18  2  0
 21 18  1  0
 21 30  1  0
 22 21  2  0
 23 22  1  0
 23 24  2  0
 24 25  1  0
 25 30  2  0
 25 26  1  0
 26 27  2  0
 27 28  1  0
 29 28  2  0
 30 29  1  0
  2 31  1  0
  3 32  1  0
  5 33  1  0
  6 34  1  0
  8 35  1  0
  9 36  1  0
 12 37  1  0
 13 38  1  0
 14 39  1  0
 23 40  1  0
 26 41  1  0
 27 42  1  0
 28 43  1  0
 29 44  1  0
M  END
>  <Score>  (1) 
-7.22333

$$$$
