
     RDKit          3D

 44 47  0  0  0  0  0  0  0  0999 V2000
   36.9190   30.8180   46.0720 C   0  0  0  0  0  0  0  0  0  0  0  0
   35.8960   30.0440   46.6190 C   0  0  0  0  0  0  0  0  0  0  0  0
   35.5640   29.9860   47.9340 C   0  0  0  0  0  0  0  0  0  0  0  0
   36.2590   30.7280   48.8360 C   0  0  0  0  0  0  0  0  0  0  0  0
   37.2590   31.4990   48.3850 C   0  0  0  0  0  0  0  0  0  0  0  0
   37.9660   32.2560   49.3100 C   0  0  0  0  0  0  0  0  0  0  0  0
   38.9970   33.0640   48.9360 C   0  0  0  0  0  0  0  0  0  0  0  0
   39.3300   33.1180   47.5910 C   0  0  0  0  0  0  0  0  0  0  0  0
   38.6120   32.3600   46.7100 C   0  0  0  0  0  0  0  0  0  0  0  0
   37.5890   31.5520   47.0470 C   0  0  0  0  0  0  0  0  0  0  0  0
   36.2220   31.2850   42.5850 C   0  0  0  0  0  0  0  0  0  0  0  0
   37.4280   31.0160   41.9010 C   0  0  0  0  0  0  0  0  0  0  0  0
   38.5060   30.6670   42.6670 C   0  0  0  0  0  0  0  0  0  0  0  0
   38.3010   30.6190   43.9680 N   0  0  0  0  0  0  0  0  0  0  0  0
   37.2360   30.8470   44.6650 C   0  0  0  0  0  0  0  0  0  0  0  0
   36.2050   31.1830   43.9020 N   0  0  0  0  0  0  0  0  0  0  0  0
   39.7790   30.3580   42.1450 N   0  0  0  0  0  0  0  0  0  0  0  0
   40.8700   29.9740   42.9570 C   0  0  0  0  0  0  0  0  0  0  0  0
   41.0270   30.5810   44.0960 N   0  0  0  0  0  0  0  0  0  0  0  0
   41.7630   28.9540   42.5480 N   0  0  0  0  0  0  0  0  0  0  0  0
   41.7340   30.4010   44.7970 H   0  0  0  0  0  0  0  0  0  0  0  0
   37.5430   31.1030   40.4510 C   0  0  0  0  0  0  0  0  0  0  0  0
   36.4220   30.9420   39.6440 C   0  0  0  0  0  0  0  0  0  0  0  0
   36.7450   31.0610   38.3070 C   0  0  0  0  0  0  0  0  0  0  0  0
   38.1030   31.3000   38.3610 C   0  0  0  0  0  0  0  0  0  0  0  0
   38.4910   31.3110   39.6070 O   0  0  0  0  0  0  0  0  0  0  0  0
   35.9090   30.6580   50.1660 O   0  0  0  0  0  0  0  0  0  0  0  0
   36.4190   29.6390   51.0010 C   0  0  0  0  0  0  0  0  0  0  0  0
   37.2380   28.7340   50.3860 F   0  0  0  0  0  0  0  0  0  0  0  0
   37.1960   30.2480   51.9760 F   0  0  0  0  0  0  0  0  0  0  0  0
   35.3180   28.9960   51.5650 F   0  0  0  0  0  0  0  0  0  0  0  0
   35.3069   29.4269   45.9246 H   0  0  0  0  0  0  0  0  0  0  0  0
   34.7370   29.3420   48.2677 H   0  0  0  0  0  0  0  0  0  0  0  0
   37.6862   32.2017   50.3724 H   0  0  0  0  0  0  0  0  0  0  0  0
   39.5496   33.6568   49.6798 H   0  0  0  0  0  0  0  0  0  0  0  0
   40.1541   33.7571   47.2412 H   0  0  0  0  0  0  0  0  0  0  0  0
   38.8901   32.4137   45.6471 H   0  0  0  0  0  0  0  0  0  0  0  0
   35.3156   31.5735   42.0325 H   0  0  0  0  0  0  0  0  0  0  0  0
   39.9200   30.4147   41.1263 H   0  0  0  0  0  0  0  0  0  0  0  0
   42.5526   28.6876   43.1533 H   0  0  0  0  0  0  0  0  0  0  0  0
   41.6229   28.4784   41.6452 H   0  0  0  0  0  0  0  0  0  0  0  0
   35.4081   30.7451   40.0223 H   0  0  0  0  0  0  0  0  0  0  0  0
   36.0897   30.9850   37.4268 H   0  0  0  0  0  0  0  0  0  0  0  0
   38.7563   31.4567   37.4900 H   0  0  0  0  0  0  0  0  0  0  0  0
  1  2  2  0
  1 10  1  0
  2  3  1  0
  3  4  2  0
  4 27  1  0
  5  4  1  0
  5  6  2  0
  7  6  1  0
  8  7  2  0
  9 10  2  0
  9  8  1  0
 10  5  1  0
 11 16  2  0
 12 11  1  0
 12 13  2  0
 13 14  1  0
 14 15  2  0
 15  1  1  0
 16 15  1  0
 17 13  1  0
 17 18  1  0
 18 19  2  0
 19 21  1  0
 20 18  1  0
 22 12  1  0
 23 22  2  0
 24 25  2  0
 24 23  1  0
 25 26  1  0
 26 22  1  0
 27 28  1  0
 28 31  1  0
 28 30  1  0
 29 28  1  0
  2 32  1  0
  3 33  1  0
  6 34  1  0
  7 35  1  0
  8 36  1  0
  9 37  1  0
 11 38  1  0
 17 39  1  0
 20 40  1  0
 20 41  1  0
 23 42  1  0
 24 43  1  0
 25 44  1  0
M  END
>  <Score>  (1) 
-7.3909

$$$$
