
     RDKit          3D

 39 43  0  0  0  0  0  0  0  0999 V2000
   33.7110   27.1790   47.1010 C   0  0  0  0  0  0  0  0  0  0  0  0
   32.8600   27.8920   46.2590 C   0  0  0  0  0  0  0  0  0  0  0  0
   32.8970   29.2690   46.3950 C   0  0  0  0  0  0  0  0  0  0  0  0
   33.7250   29.8060   47.2980 N   0  0  0  0  0  0  0  0  0  0  0  0
   34.5390   29.1410   48.1060 C   0  0  0  0  0  0  0  0  0  0  0  0
   34.4910   27.8210   47.9630 N   0  0  0  0  0  0  0  0  0  0  0  0
   35.4810   29.5580   49.1220 C   0  0  0  0  0  0  0  0  0  0  0  0
   35.4000   29.1430   50.4650 C   0  0  0  0  0  0  0  0  0  0  0  0
   36.2780   29.5230   51.4450 C   0  0  0  0  0  0  0  0  0  0  0  0
   37.3110   30.3570   51.1390 C   0  0  0  0  0  0  0  0  0  0  0  0
   37.4530   30.7980   49.8620 C   0  0  0  0  0  0  0  0  0  0  0  0
   38.5120   31.6400   49.5970 C   0  0  0  0  0  0  0  0  0  0  0  0
   38.7160   32.1210   48.3400 C   0  0  0  0  0  0  0  0  0  0  0  0
   37.8290   31.7400   47.3420 C   0  0  0  0  0  0  0  0  0  0  0  0
   36.7910   30.8990   47.6590 C   0  0  0  0  0  0  0  0  0  0  0  0
   36.5520   30.3970   48.8990 C   0  0  0  0  0  0  0  0  0  0  0  0
   32.1040   30.1700   45.6260 N   0  0  0  0  0  0  0  0  0  0  0  0
   32.5600   31.0760   44.7450 C   0  0  0  0  0  0  0  0  0  0  0  0
   31.4670   31.7140   44.2460 N   0  0  0  0  0  0  0  0  0  0  0  0
   30.3580   31.2080   44.8100 C   0  0  0  0  0  0  0  0  0  0  0  0
   28.9960   31.4220   44.7270 C   0  0  0  0  0  0  0  0  0  0  0  0
   28.1180   30.7050   45.4660 N   0  0  0  0  0  0  0  0  0  0  0  0
   28.5360   29.7460   46.3210 C   0  0  0  0  0  0  0  0  0  0  0  0
   29.8550   29.5220   46.4160 N   0  0  0  0  0  0  0  0  0  0  0  0
   30.7570   30.2130   45.6990 C   0  0  0  0  0  0  0  0  0  0  0  0
   28.5560   32.4320   43.8260 N   0  0  0  0  0  0  0  0  0  0  0  0
   33.7368   26.0804   47.0515 H   0  0  0  0  0  0  0  0  0  0  0  0
   32.2013   27.3928   45.5331 H   0  0  0  0  0  0  0  0  0  0  0  0
   34.5772   28.4691   50.7456 H   0  0  0  0  0  0  0  0  0  0  0  0
   36.1498   29.1566   52.4742 H   0  0  0  0  0  0  0  0  0  0  0  0
   38.0223   30.6699   51.9176 H   0  0  0  0  0  0  0  0  0  0  0  0
   39.1979   31.9255   50.4082 H   0  0  0  0  0  0  0  0  0  0  0  0
   39.5594   32.7923   48.1211 H   0  0  0  0  0  0  0  0  0  0  0  0
   37.9560   32.1065   46.3127 H   0  0  0  0  0  0  0  0  0  0  0  0
   36.1030   30.6107   46.8506 H   0  0  0  0  0  0  0  0  0  0  0  0
   33.6106   31.2648   44.4794 H   0  0  0  0  0  0  0  0  0  0  0  0
   27.8175   29.1674   46.9201 H   0  0  0  0  0  0  0  0  0  0  0  0
   27.5503   32.6310   43.7267 H   0  0  0  0  0  0  0  0  0  0  0  0
   29.2433   32.9640   43.2733 H   0  0  0  0  0  0  0  0  0  0  0  0
  1  6  2  0
  2  3  2  0
  2  1  1  0
  3  4  1  0
  4  5  2  0
  5  7  1  0
  6  5  1  0
  7  8  2  0
  8  9  1  0
 10  9  2  0
 11 10  1  0
 12 11  2  0
 13 12  1  0
 14 15  1  0
 14 13  2  0
 15 16  2  0
 16  7  1  0
 16 11  1  0
 17 25  1  0
 17  3  1  0
 18 17  1  0
 19 18  2  0
 19 20  1  0
 20 25  2  0
 21 20  1  0
 21 22  2  0
 22 23  1  0
 23 24  2  0
 25 24  1  0
 26 21  1  0
  1 27  1  0
  2 28  1  0
  8 29  1  0
  9 30  1  0
 10 31  1  0
 12 32  1  0
 13 33  1  0
 14 34  1  0
 15 35  1  0
 18 36  1  0
 23 37  1  0
 26 38  1  0
 26 39  1  0
M  END
>  <Score>  (1) 
-7.4424

$$$$
