
     RDKit          3D

 50 55  0  0  1  0  0  0  0  0999 V2000
   35.4770   30.3320   47.2150 C   0  0  0  0  0  0  0  0  0  0  0  0
   36.5380   30.5400   48.0810 C   0  0  0  0  0  0  0  0  0  0  0  0
   36.6160   29.6020   49.1540 C   0  0  0  0  0  0  0  0  0  0  0  0
   35.6900   28.6090   49.2580 N   0  0  0  0  0  0  0  0  0  0  0  0
   34.6940   28.4720   48.3830 C   0  0  0  0  0  0  0  0  0  0  0  0
   34.5930   29.3360   47.3650 N   0  0  0  0  0  0  0  0  0  0  0  0
   37.5680   31.5550   48.0660 C   0  0  0  0  0  0  0  0  0  0  0  0
   37.5060   32.3460   49.1840 C   0  0  0  0  0  0  0  0  0  0  0  0
   38.4080   33.3940   49.3800 C   0  0  0  0  0  0  0  0  0  0  0  0
   39.3800   33.6390   48.4320 C   0  0  0  0  0  0  0  0  0  0  0  0
   39.4290   32.8320   47.3120 C   0  0  0  0  0  0  0  0  0  0  0  0
   40.3710   32.9910   46.2910 C   0  0  0  0  0  0  0  0  0  0  0  0
   40.3670   32.1560   45.2040 C   0  0  0  0  0  0  0  0  0  0  0  0
   39.4560   31.1440   45.0660 C   0  0  0  0  0  0  0  0  0  0  0  0
   38.5150   30.9740   46.0690 C   0  0  0  0  0  0  0  0  0  0  0  0
   38.5360   31.8160   47.1470 C   0  0  0  0  0  0  0  0  0  0  0  0
   33.7220   27.3560   48.5600 C   0  0  1  0  0  0  0  0  0  0  0  0
   32.2680   27.7050   48.6980 C   0  0  0  0  0  0  0  0  0  0  0  0
   32.7800   27.0240   47.4590 C   0  0  2  0  0  0  0  0  0  0  0  0
   32.4040   25.3090   47.1220 S   0  0  0  0  0  0  0  0  0  0  0  0
   33.8820   24.3150   46.8990 C   0  0  0  0  0  0  0  0  0  0  0  0
   34.1160   23.3870   47.8990 C   0  0  0  0  0  0  0  0  0  0  0  0
   35.2080   22.5750   47.8390 C   0  0  0  0  0  0  0  0  0  0  0  0
   36.0500   22.7220   46.7560 C   0  0  0  0  0  0  0  0  0  0  0  0
   35.8520   23.6280   45.7450 C   0  0  0  0  0  0  0  0  0  0  0  0
   36.7140   23.7550   44.6660 C   0  0  0  0  0  0  0  0  0  0  0  0
   36.4240   24.6970   43.7050 C   0  0  0  0  0  0  0  0  0  0  0  0
   35.2970   25.5110   43.7990 C   0  0  0  0  0  0  0  0  0  0  0  0
   34.4290   25.4010   44.8610 C   0  0  0  0  0  0  0  0  0  0  0  0
   34.7330   24.4560   45.8110 C   0  0  0  0  0  0  0  0  0  0  0  0
   35.3542   31.0173   46.3633 H   0  0  0  0  0  0  0  0  0  0  0  0
   37.4237   29.6812   49.8965 H   0  0  0  0  0  0  0  0  0  0  0  0
   36.7315   32.1516   49.9406 H   0  0  0  0  0  0  0  0  0  0  0  0
   38.3440   34.0191   50.2829 H   0  0  0  0  0  0  0  0  0  0  0  0
   40.1005   34.4594   48.5652 H   0  0  0  0  0  0  0  0  0  0  0  0
   41.1212   33.7925   46.3607 H   0  0  0  0  0  0  0  0  0  0  0  0
   41.1208   32.3042   44.4167 H   0  0  0  0  0  0  0  0  0  0  0  0
   39.4703   30.4852   44.1852 H   0  0  0  0  0  0  0  0  0  0  0  0
   37.7628   30.1744   45.9994 H   0  0  0  0  0  0  0  0  0  0  0  0
   34.4490   26.7760   49.1474 H   0  0  0  0  0  0  0  0  0  0  0  0
   31.6332   27.1546   49.4081 H   0  0  0  0  0  0  0  0  0  0  0  0
   31.7009   28.6239   48.9076 H   0  0  0  0  0  0  0  0  0  0  0  0
   32.7152   27.2452   46.3834 H   0  0  0  0  0  0  0  0  0  0  0  0
   33.4178   23.3050   48.7450 H   0  0  0  0  0  0  0  0  0  0  0  0
   35.4106   21.8310   48.6235 H   0  0  0  0  0  0  0  0  0  0  0  0
   36.9356   22.0720   46.6996 H   0  0  0  0  0  0  0  0  0  0  0  0
   37.6072   23.1188   44.5802 H   0  0  0  0  0  0  0  0  0  0  0  0
   37.0977   24.8098   42.8428 H   0  0  0  0  0  0  0  0  0  0  0  0
   35.0981   26.2532   43.0119 H   0  0  0  0  0  0  0  0  0  0  0  0
   33.5361   26.0379   44.9453 H   0  0  0  0  0  0  0  0  0  0  0  0
  1  6  2  0
  1  2  1  0
  2  3  2  0
  3  4  1  0
  5 17  1  0
  5  4  2  0
  6  5  1  0
  7  2  1  0
  7  8  2  0
  8  9  1  0
 10  9  2  0
 11 10  1  0
 12 11  2  0
 13 12  1  0
 14 13  2  0
 14 15  1  0
 15 16  2  0
 16 11  1  0
 16  7  1  0
 17 18  1  0
 19 17  1  0
 19 18  1  0
 20 19  1  0
 21 20  1  0
 21 22  2  0
 23 22  1  0
 24 23  2  0
 25 30  2  0
 25 24  1  0
 26 25  1  0
 27 28  1  0
 27 26  2  0
 28 29  2  0
 29 30  1  0
 30 21  1  0
  1 31  1  0
  3 32  1  0
  8 33  1  0
  9 34  1  0
 10 35  1  0
 12 36  1  0
 13 37  1  0
 14 38  1  0
 15 39  1  0
 17 40  1  1
 18 41  1  0
 18 42  1  0
 19 43  1  6
 22 44  1  0
 23 45  1  0
 24 46  1  0
 26 47  1  0
 27 48  1  0
 28 49  1  0
 29 50  1  0
M  END
>  <Score>  (1) 
-7.46649

$$$$
