
     RDKit          3D

 48 52  0  0  1  0  0  0  0  0999 V2000
   38.6310   31.5570   48.0060 C   0  0  1  0  0  0  0  0  0  0  0  0
   37.8410   30.8970   49.0340 C   0  0  0  0  0  0  0  0  0  0  0  0
   38.3340   30.7730   50.2590 N   0  0  0  0  0  0  0  0  0  0  0  0
   37.6630   30.1580   51.2490 C   0  0  0  0  0  0  0  0  0  0  0  0
   36.4620   29.6250   51.0890 N   0  0  0  0  0  0  0  0  0  0  0  0
   35.8420   29.6820   49.8920 C   0  0  0  0  0  0  0  0  0  0  0  0
   34.6090   29.1430   49.6890 C   0  0  0  0  0  0  0  0  0  0  0  0
   33.9980   29.2080   48.4870 C   0  0  0  0  0  0  0  0  0  0  0  0
   34.6930   29.8520   47.4790 C   0  0  0  0  0  0  0  0  0  0  0  0
   35.9380   30.3850   47.7200 C   0  0  0  0  0  0  0  0  0  0  0  0
   36.5670   30.3250   48.9100 C   0  0  0  0  0  0  0  0  0  0  0  0
   38.9430   31.2290   46.6470 C   0  0  0  0  0  0  0  0  0  0  0  0
   40.2020   31.7710   46.2900 C   0  0  0  0  0  0  0  0  0  0  0  0
   40.7590   31.4720   45.0020 C   0  0  0  0  0  0  0  0  0  0  0  0
   40.0240   30.6840   44.2220 N   0  0  0  0  0  0  0  0  0  0  0  0
   38.8120   30.1810   44.5980 C   0  0  0  0  0  0  0  0  0  0  0  0
   38.3030   30.4560   45.7800 N   0  0  0  0  0  0  0  0  0  0  0  0
   37.9980   29.3450   43.6790 C   0  0  0  0  0  0  0  0  0  0  0  0
   36.7110   29.9860   43.5430 N   0  0  0  0  0  0  0  0  0  0  0  0
   35.6070   29.2940   43.9650 C   0  0  0  0  0  0  0  0  0  0  0  0
   34.4670   29.9940   43.7810 N   0  0  0  0  0  0  0  0  0  0  0  0
   34.8220   31.1580   43.2340 C   0  0  0  0  0  0  0  0  0  0  0  0
   34.1370   32.2820   42.8200 C   0  0  0  0  0  0  0  0  0  0  0  0
   34.8430   33.3040   42.3020 N   0  0  0  0  0  0  0  0  0  0  0  0
   36.1890   33.2350   42.1880 C   0  0  0  0  0  0  0  0  0  0  0  0
   36.9190   32.1470   42.5810 N   0  0  0  0  0  0  0  0  0  0  0  0
   36.1950   31.1370   43.0960 C   0  0  0  0  0  0  0  0  0  0  0  0
   32.7200   32.3480   42.9420 N   0  0  0  0  0  0  0  0  0  0  0  0
   38.3800   32.8840   48.3080 O   0  0  0  0  0  0  0  0  0  0  0  0
   39.2160   33.8380   48.8440 C   0  0  0  0  0  0  0  0  0  0  0  0
   39.9510   34.7780   48.0030 N   0  0  0  0  0  0  0  0  0  0  0  0
   39.3820   33.9420   50.0860 O   0  0  0  0  0  0  0  0  0  0  0  0
   39.5959   31.0308   48.0515 H   0  0  0  0  0  0  0  0  0  0  0  0
   38.1354   30.0948   52.2404 H   0  0  0  0  0  0  0  0  0  0  0  0
   34.0979   28.6423   50.5245 H   0  0  0  0  0  0  0  0  0  0  0  0
   33.0020   28.7727   48.3183 H   0  0  0  0  0  0  0  0  0  0  0  0
   34.2467   29.9385   46.4773 H   0  0  0  0  0  0  0  0  0  0  0  0
   36.4519   30.8916   46.8898 H   0  0  0  0  0  0  0  0  0  0  0  0
   40.7481   32.4157   46.9943 H   0  0  0  0  0  0  0  0  0  0  0  0
   41.7327   31.8694   44.6797 H   0  0  0  0  0  0  0  0  0  0  0  0
   38.4899   29.2759   42.6975 H   0  0  0  0  0  0  0  0  0  0  0  0
   37.8856   28.3254   44.0762 H   0  0  0  0  0  0  0  0  0  0  0  0
   35.6446   28.2856   44.4028 H   0  0  0  0  0  0  0  0  0  0  0  0
   36.7225   34.0957   41.7584 H   0  0  0  0  0  0  0  0  0  0  0  0
   32.2150   33.1901   42.6310 H   0  0  0  0  0  0  0  0  0  0  0  0
   32.1999   31.5537   43.3413 H   0  0  0  0  0  0  0  0  0  0  0  0
   40.5689   35.4804   48.4341 H   0  0  0  0  0  0  0  0  0  0  0  0
   39.8517   34.7389   46.9785 H   0  0  0  0  0  0  0  0  0  0  0  0
  1 29  1  0
  1  2  1  0
  2  3  2  0
  3  4  1  0
  5  4  2  0
  6  5  1  0
  7  6  2  0
  8  7  1  0
  9 10  1  0
  9  8  2  0
 10 11  2  0
 11  2  1  0
 11  6  1  0
 12  1  1  0
 13 12  2  0
 14 13  1  0
 15 16  1  0
 15 14  2  0
 16 17  2  0
 17 12  1  0
 18 16  1  0
 19 18  1  0
 19 20  1  0
 21 20  2  0
 22 21  1  0
 23 28  1  0
 23 22  2  0
 24 23  1  0
 25 24  2  0
 25 26  1  0
 26 27  2  0
 27 22  1  0
 27 19  1  0
 29 30  1  0
 30 32  2  0
 31 30  1  0
  1 33  1  1
  4 34  1  0
  7 35  1  0
  8 36  1  0
  9 37  1  0
 10 38  1  0
 13 39  1  0
 14 40  1  0
 18 41  1  0
 18 42  1  0
 20 43  1  0
 25 44  1  0
 28 45  1  0
 28 46  1  0
 31 47  1  0
 31 48  1  0
M  END
>  <Score>  (1) 
-7.25878

$$$$
