
     RDKit          3D

 37 41  0  0  0  0  0  0  0  0999 V2000
   37.0660   30.0470   51.3500 C   0  0  0  0  0  0  0  0  0  0  0  0
   36.0420   29.2460   50.8310 C   0  0  0  0  0  0  0  0  0  0  0  0
   35.7940   29.4280   49.4880 C   0  0  0  0  0  0  0  0  0  0  0  0
   36.5150   30.3180   48.8030 N   0  0  0  0  0  0  0  0  0  0  0  0
   37.4790   31.0750   49.2780 C   0  0  0  0  0  0  0  0  0  0  0  0
   37.7230   30.9030   50.5790 N   0  0  0  0  0  0  0  0  0  0  0  0
   38.3430   32.0690   48.6850 C   0  0  0  0  0  0  0  0  0  0  0  0
   38.6780   33.2840   49.3150 C   0  0  0  0  0  0  0  0  0  0  0  0
   39.4890   34.2440   48.7860 C   0  0  0  0  0  0  0  0  0  0  0  0
   40.0410   34.0530   47.5500 C   0  0  0  0  0  0  0  0  0  0  0  0
   39.7650   32.9030   46.8730 C   0  0  0  0  0  0  0  0  0  0  0  0
   40.3390   32.7470   45.6300 C   0  0  0  0  0  0  0  0  0  0  0  0
   40.1110   31.6220   44.8910 C   0  0  0  0  0  0  0  0  0  0  0  0
   39.2830   30.6510   45.4410 C   0  0  0  0  0  0  0  0  0  0  0  0
   38.7360   30.8520   46.6790 C   0  0  0  0  0  0  0  0  0  0  0  0
   38.9380   31.9540   47.4450 C   0  0  0  0  0  0  0  0  0  0  0  0
   34.7860   28.6940   48.8000 N   0  0  0  0  0  0  0  0  0  0  0  0
   34.4090   27.4090   48.9260 C   0  0  0  0  0  0  0  0  0  0  0  0
   33.4130   27.1660   48.0630 N   0  0  0  0  0  0  0  0  0  0  0  0
   33.1410   28.2800   47.3820 C   0  0  0  0  0  0  0  0  0  0  0  0
   32.2510   28.6600   46.3850 C   0  0  0  0  0  0  0  0  0  0  0  0
   32.1970   29.9070   45.8600 N   0  0  0  0  0  0  0  0  0  0  0  0
   33.0550   30.8170   46.3380 C   0  0  0  0  0  0  0  0  0  0  0  0
   33.9130   30.4760   47.2900 N   0  0  0  0  0  0  0  0  0  0  0  0
   34.0140   29.2520   47.8500 C   0  0  0  0  0  0  0  0  0  0  0  0
   37.3300   29.9651   52.4147 H   0  0  0  0  0  0  0  0  0  0  0  0
   35.4799   28.5282   51.4465 H   0  0  0  0  0  0  0  0  0  0  0  0
   38.2520   33.4728   50.3114 H   0  0  0  0  0  0  0  0  0  0  0  0
   39.6976   35.1653   49.3496 H   0  0  0  0  0  0  0  0  0  0  0  0
   40.6984   34.8165   47.1084 H   0  0  0  0  0  0  0  0  0  0  0  0
   40.9888   33.5385   45.2284 H   0  0  0  0  0  0  0  0  0  0  0  0
   40.5654   31.4892   43.8981 H   0  0  0  0  0  0  0  0  0  0  0  0
   39.0686   29.7266   44.8846 H   0  0  0  0  0  0  0  0  0  0  0  0
   38.0849   30.0627   47.0829 H   0  0  0  0  0  0  0  0  0  0  0  0
   34.8461   26.6783   49.6224 H   0  0  0  0  0  0  0  0  0  0  0  0
   31.5501   27.9046   46.0001 H   0  0  0  0  0  0  0  0  0  0  0  0
   33.0482   31.8435   45.9426 H   0  0  0  0  0  0  0  0  0  0  0  0
  2  1  2  0
  3  2  1  0
  4  5  1  0
  4  3  2  0
  5  6  2  0
  6  1  1  0
  7  5  1  0
  7  8  2  0
  9  8  1  0
 10  9  2  0
 11 16  2  0
 11 10  1  0
 12 11  1  0
 13 14  1  0
 13 12  2  0
 14 15  2  0
 15 16  1  0
 16  7  1  0
 17 18  1  0
 17  3  1  0
 19 18  2  0
 20 25  2  0
 20 19  1  0
 21 20  1  0
 22 23  1  0
 22 21  2  0
 23 24  2  0
 24 25  1  0
 25 17  1  0
  1 26  1  0
  2 27  1  0
  8 28  1  0
  9 29  1  0
 10 30  1  0
 12 31  1  0
 13 32  1  0
 14 33  1  0
 15 34  1  0
 18 35  1  0
 21 36  1  0
 23 37  1  0
M  END
>  <Score>  (1) 
-7.81852

$$$$
