
     RDKit          3D

 41 44  0  0  1  0  0  0  0  0999 V2000
   38.5830   32.0180   47.8650 C   0  0  1  0  0  0  0  0  0  0  0  0
   37.8870   31.0860   48.7500 C   0  0  0  0  0  0  0  0  0  0  0  0
   38.3910   30.8580   49.9630 N   0  0  0  0  0  0  0  0  0  0  0  0
   37.8210   30.0010   50.8470 C   0  0  0  0  0  0  0  0  0  0  0  0
   36.7090   29.3210   50.5680 N   0  0  0  0  0  0  0  0  0  0  0  0
   36.1250   29.4830   49.3760 C   0  0  0  0  0  0  0  0  0  0  0  0
   34.9830   28.7890   49.0410 C   0  0  0  0  0  0  0  0  0  0  0  0
   34.3810   28.9380   47.8110 C   0  0  0  0  0  0  0  0  0  0  0  0
   34.9760   29.8130   46.9400 C   0  0  0  0  0  0  0  0  0  0  0  0
   36.1140   30.4900   47.3030 C   0  0  0  0  0  0  0  0  0  0  0  0
   36.7370   30.3620   48.5100 C   0  0  0  0  0  0  0  0  0  0  0  0
   39.0990   31.9130   46.5300 C   0  0  0  0  0  0  0  0  0  0  0  0
   39.8360   33.0590   46.1870 C   0  0  0  0  0  0  0  0  0  0  0  0
   40.5500   33.0980   44.9420 C   0  0  0  0  0  0  0  0  0  0  0  0
   40.4460   31.9860   44.1730 N   0  0  0  0  0  0  0  0  0  0  0  0
   39.7190   30.8960   44.5390 C   0  0  0  0  0  0  0  0  0  0  0  0
   39.0660   30.8640   45.6840 N   0  0  0  0  0  0  0  0  0  0  0  0
   39.7160   29.8130   43.6130 N   0  0  0  0  0  0  0  0  0  0  0  0
   40.8650   29.5880   42.7560 C   0  0  0  0  0  0  0  0  0  0  0  0
   40.4570   28.6730   41.6310 C   0  0  0  0  0  0  0  0  0  0  0  0
   39.9850   27.4500   42.0790 O   0  0  0  0  0  0  0  0  0  0  0  0
   39.1890   27.5210   43.2030 C   0  0  0  0  0  0  0  0  0  0  0  0
   38.6270   28.8990   43.4570 C   0  0  0  0  0  0  0  0  0  0  0  0
   38.2420   33.2030   48.3720 O   0  0  0  0  0  0  0  0  0  0  0  0
   39.5666   31.5479   47.7183 H   0  0  0  0  0  0  0  0  0  0  0  0
   38.2940   29.8622   51.8303 H   0  0  0  0  0  0  0  0  0  0  0  0
   34.5408   28.0985   49.7742 H   0  0  0  0  0  0  0  0  0  0  0  0
   33.4700   28.3834   47.5418 H   0  0  0  0  0  0  0  0  0  0  0  0
   34.5389   29.9740   45.9435 H   0  0  0  0  0  0  0  0  0  0  0  0
   36.5535   31.1830   46.5705 H   0  0  0  0  0  0  0  0  0  0  0  0
   39.8658   33.9218   46.8687 H   0  0  0  0  0  0  0  0  0  0  0  0
   41.1421   33.9719   44.6325 H   0  0  0  0  0  0  0  0  0  0  0  0
   41.2137   30.5470   42.3452 H   0  0  0  0  0  0  0  0  0  0  0  0
   41.6802   29.1295   43.3350 H   0  0  0  0  0  0  0  0  0  0  0  0
   41.3306   28.4978   40.9859 H   0  0  0  0  0  0  0  0  0  0  0  0
   39.6385   29.1642   41.0844 H   0  0  0  0  0  0  0  0  0  0  0  0
   38.3502   26.8201   43.0804 H   0  0  0  0  0  0  0  0  0  0  0  0
   39.8230   27.2663   44.0650 H   0  0  0  0  0  0  0  0  0  0  0  0
   38.0029   29.2077   42.6054 H   0  0  0  0  0  0  0  0  0  0  0  0
   38.0088   28.8915   44.3668 H   0  0  0  0  0  0  0  0  0  0  0  0
   38.2558   33.1552   49.3607 H   0  0  0  0  0  0  0  0  0  0  0  0
  1 24  1  0
  1  2  1  0
  2  3  2  0
  3  4  1  0
  5  4  2  0
  6  5  1  0
  7  6  2  0
  8  7  1  0
  9 10  1  0
  9  8  2  0
 10 11  2  0
 11  2  1  0
 11  6  1  0
 12  1  1  0
 13 12  2  0
 14 13  1  0
 15 16  1  0
 15 14  2  0
 16 17  2  0
 17 12  1  0
 18 16  1  0
 19 18  1  0
 20 21  1  0
 20 19  1  0
 21 22  1  0
 22 23  1  0
 23 18  1  0
  1 25  1  1
  4 26  1  0
  7 27  1  0
  8 28  1  0
  9 29  1  0
 10 30  1  0
 13 31  1  0
 14 32  1  0
 19 33  1  0
 19 34  1  0
 20 35  1  0
 20 36  1  0
 22 37  1  0
 22 38  1  0
 23 39  1  0
 23 40  1  0
 24 41  1  0
M  END
>  <Score>  (1) 
-7.44559

$$$$
