
     RDKit          3D

 39 42  0  0  0  0  0  0  0  0999 V2000
   35.9110   30.3760   46.3800 C   0  0  0  0  0  0  0  0  0  0  0  0
   34.6320   29.8470   46.5800 C   0  0  0  0  0  0  0  0  0  0  0  0
   33.7780   29.5580   45.5310 C   0  0  0  0  0  0  0  0  0  0  0  0
   34.1780   29.7880   44.2520 C   0  0  0  0  0  0  0  0  0  0  0  0
   35.4360   30.3090   44.0340 C   0  0  0  0  0  0  0  0  0  0  0  0
   36.3020   30.6030   45.0870 C   0  0  0  0  0  0  0  0  0  0  0  0
   37.6070   31.1630   44.7560 C   0  0  0  0  0  0  0  0  0  0  0  0
   38.0100   32.4460   45.0790 C   0  0  0  0  0  0  0  0  0  0  0  0
   39.2430   32.9780   44.7740 C   0  0  0  0  0  0  0  0  0  0  0  0
   40.1580   32.1970   44.0990 C   0  0  0  0  0  0  0  0  0  0  0  0
   39.8240   30.9030   43.7440 C   0  0  0  0  0  0  0  0  0  0  0  0
   40.7450   30.1150   43.0650 C   0  0  0  0  0  0  0  0  0  0  0  0
   40.4510   28.8330   42.7000 C   0  0  0  0  0  0  0  0  0  0  0  0
   39.2080   28.3360   43.0230 C   0  0  0  0  0  0  0  0  0  0  0  0
   38.2830   29.1170   43.6990 C   0  0  0  0  0  0  0  0  0  0  0  0
   38.5720   30.4170   44.0740 C   0  0  0  0  0  0  0  0  0  0  0  0
   37.3640   30.2060   49.7300 C   0  0  0  0  0  0  0  0  0  0  0  0
   38.3700   31.1690   49.6770 C   0  0  0  0  0  0  0  0  0  0  0  0
   38.5540   31.8840   48.4850 C   0  0  0  0  0  0  0  0  0  0  0  0
   37.7350   31.5890   47.4580 N   0  0  0  0  0  0  0  0  0  0  0  0
   36.7630   30.6530   47.5250 C   0  0  0  0  0  0  0  0  0  0  0  0
   36.6040   29.9800   48.6700 N   0  0  0  0  0  0  0  0  0  0  0  0
   37.1750   29.4450   51.0150 C   0  0  0  0  0  0  0  0  0  0  0  0
   35.8310   29.1930   51.1990 F   0  0  0  0  0  0  0  0  0  0  0  0
   37.9390   28.3320   50.9630 F   0  0  0  0  0  0  0  0  0  0  0  0
   37.5920   30.2780   52.0550 F   0  0  0  0  0  0  0  0  0  0  0  0
   34.2929   29.6538   47.6085 H   0  0  0  0  0  0  0  0  0  0  0  0
   32.7788   29.1436   45.7308 H   0  0  0  0  0  0  0  0  0  0  0  0
   33.5107   29.5627   43.4071 H   0  0  0  0  0  0  0  0  0  0  0  0
   35.7654   30.4978   43.0016 H   0  0  0  0  0  0  0  0  0  0  0  0
   37.2956   33.0863   45.6172 H   0  0  0  0  0  0  0  0  0  0  0  0
   39.4942   34.0090   45.0639 H   0  0  0  0  0  0  0  0  0  0  0  0
   41.1487   32.6017   43.8443 H   0  0  0  0  0  0  0  0  0  0  0  0
   41.7317   30.5329   42.8164 H   0  0  0  0  0  0  0  0  0  0  0  0
   41.1857   28.2148   42.1634 H   0  0  0  0  0  0  0  0  0  0  0  0
   38.9454   27.3057   42.7410 H   0  0  0  0  0  0  0  0  0  0  0  0
   37.2974   28.6936   43.9426 H   0  0  0  0  0  0  0  0  0  0  0  0
   39.0067   31.3642   50.5525 H   0  0  0  0  0  0  0  0  0  0  0  0
   39.3346   32.6535   48.3928 H   0  0  0  0  0  0  0  0  0  0  0  0
  1  2  2  0
  1 21  1  0
  3  2  1  0
  4  3  2  0
  5  4  1  0
  5  6  2  0
  6  1  1  0
  7  8  2  0
  7  6  1  0
  9  8  1  0
 10  9  2  0
 11 16  2  0
 11 10  1  0
 12 11  1  0
 13 14  1  0
 13 12  2  0
 14 15  2  0
 15 16  1  0
 16  7  1  0
 17 23  1  0
 18 17  2  0
 19 18  1  0
 20 21  1  0
 20 19  2  0
 21 22  2  0
 22 17  1  0
 23 24  1  0
 23 26  1  0
 25 23  1  0
  2 27  1  0
  3 28  1  0
  4 29  1  0
  5 30  1  0
  8 31  1  0
  9 32  1  0
 10 33  1  0
 12 34  1  0
 13 35  1  0
 14 36  1  0
 15 37  1  0
 18 38  1  0
 19 39  1  0
M  END
>  <Score>  (1) 
-7.17826

$$$$
