
     RDKit          3D

 34 36  0  0  1  0  0  0  0  0999 V2000
   38.7210   31.9970   48.0660 C   0  0  1  0  0  0  0  0  0  0  0  0
   37.9730   31.1960   49.0630 C   0  0  0  0  0  0  0  0  0  0  0  0
   38.4650   31.0260   50.2850 N   0  0  0  0  0  0  0  0  0  0  0  0
   37.8510   30.3330   51.2550 C   0  0  0  0  0  0  0  0  0  0  0  0
   36.6810   29.7510   51.0670 N   0  0  0  0  0  0  0  0  0  0  0  0
   36.0650   29.8420   49.8720 C   0  0  0  0  0  0  0  0  0  0  0  0
   34.8630   29.2360   49.6530 C   0  0  0  0  0  0  0  0  0  0  0  0
   34.2410   29.3150   48.4360 C   0  0  0  0  0  0  0  0  0  0  0  0
   34.8980   30.0380   47.4600 C   0  0  0  0  0  0  0  0  0  0  0  0
   36.1080   30.6360   47.7210 C   0  0  0  0  0  0  0  0  0  0  0  0
   36.7400   30.5650   48.9230 C   0  0  0  0  0  0  0  0  0  0  0  0
   39.0770   31.6990   46.7060 C   0  0  0  0  0  0  0  0  0  0  0  0
   39.8620   32.7510   46.1870 C   0  0  0  0  0  0  0  0  0  0  0  0
   40.4360   32.6180   44.8810 C   0  0  0  0  0  0  0  0  0  0  0  0
   40.1780   31.4760   44.2320 N   0  0  0  0  0  0  0  0  0  0  0  0
   39.4130   30.4860   44.7670 C   0  0  0  0  0  0  0  0  0  0  0  0
   38.8830   30.5990   45.9660 N   0  0  0  0  0  0  0  0  0  0  0  0
   39.1230   29.2350   44.0010 C   0  0  0  0  0  0  0  0  0  0  0  0
   38.4940   33.2320   48.4850 O   0  0  0  0  0  0  0  0  0  0  0  0
   39.3280   34.0610   49.0920 C   0  0  0  0  0  0  0  0  0  0  0  0
   38.7270   35.3380   49.1920 F   0  0  0  0  0  0  0  0  0  0  0  0
   39.7970   33.8260   50.3390 F   0  0  0  0  0  0  0  0  0  0  0  0
   40.4720   34.3550   48.3110 F   0  0  0  0  0  0  0  0  0  0  0  0
   39.7267   31.5630   47.9649 H   0  0  0  0  0  0  0  0  0  0  0  0
   38.3373   30.2468   52.2379 H   0  0  0  0  0  0  0  0  0  0  0  0
   34.3848   28.6738   50.4686 H   0  0  0  0  0  0  0  0  0  0  0  0
   33.2722   28.8298   48.2462 H   0  0  0  0  0  0  0  0  0  0  0  0
   34.4476   30.1366   46.4613 H   0  0  0  0  0  0  0  0  0  0  0  0
   36.5919   31.2036   46.9125 H   0  0  0  0  0  0  0  0  0  0  0  0
   40.0312   33.6628   46.7786 H   0  0  0  0  0  0  0  0  0  0  0  0
   41.0549   33.4110   44.4359 H   0  0  0  0  0  0  0  0  0  0  0  0
   38.9319   28.4107   44.7038 H   0  0  0  0  0  0  0  0  0  0  0  0
   38.2369   29.3898   43.3678 H   0  0  0  0  0  0  0  0  0  0  0  0
   39.9868   28.9842   43.3678 H   0  0  0  0  0  0  0  0  0  0  0  0
  1 19  1  0
  1  2  1  0
  2  3  2  0
  3  4  1  0
  5  4  2  0
  6  5  1  0
  7  6  2  0
  8  7  1  0
  9 10  1  0
  9  8  2  0
 10 11  2  0
 11  2  1  0
 11  6  1  0
 12  1  1  0
 13 12  2  0
 14 13  1  0
 15 16  1  0
 15 14  2  0
 16 17  2  0
 17 12  1  0
 18 16  1  0
 19 20  1  0
 20 21  1  0
 20 22  1  0
 23 20  1  0
  1 24  1  1
  4 25  1  0
  7 26  1  0
  8 27  1  0
  9 28  1  0
 10 29  1  0
 13 30  1  0
 14 31  1  0
 18 32  1  0
 18 33  1  0
 18 34  1  0
M  END
>  <Score>  (1) 
-7.05177

$$$$
