
     RDKit          3D

 41 46  0  0  1  0  0  0  0  0999 V2000
   35.0330   30.4120   47.3760 C   0  0  0  0  0  0  0  0  0  0  0  0
   36.1830   30.2620   48.1220 C   0  0  0  0  0  0  0  0  0  0  0  0
   36.1890   29.3220   49.1540 C   0  0  0  0  0  0  0  0  0  0  0  0
   35.0310   28.6090   49.3520 N   0  0  0  0  0  0  0  0  0  0  0  0
   33.9420   28.7770   48.6190 C   0  0  0  0  0  0  0  0  0  0  0  0
   33.9400   29.6760   47.6300 N   0  0  0  0  0  0  0  0  0  0  0  0
   37.3340   31.0250   47.8630 N   0  0  0  0  0  0  0  0  0  0  0  0
   37.8330   32.0030   48.6370 C   0  0  0  0  0  0  0  0  0  0  0  0
   38.9450   32.5330   48.1030 N   0  0  0  0  0  0  0  0  0  0  0  0
   39.1780   31.8800   46.9460 C   0  0  0  0  0  0  0  0  0  0  0  0
   40.1300   31.9570   45.9750 C   0  0  0  0  0  0  0  0  0  0  0  0
   40.1510   31.1720   44.8790 N   0  0  0  0  0  0  0  0  0  0  0  0
   39.1390   30.2590   44.7760 C   0  0  0  0  0  0  0  0  0  0  0  0
   38.2080   30.1880   45.7300 N   0  0  0  0  0  0  0  0  0  0  0  0
   38.1560   30.9440   46.8210 C   0  0  0  0  0  0  0  0  0  0  0  0
   32.7270   27.9480   48.9270 C   0  0  2  0  0  0  0  0  0  0  0  0
   32.4850   26.8360   47.8490 C   0  0  0  0  0  0  0  0  0  0  0  0
   31.5620   27.9600   48.0280 C   0  0  1  0  0  0  0  0  0  0  0  0
   30.2690   27.7980   48.6640 N   0  0  0  0  0  0  0  0  0  0  0  0
   30.0870   26.9490   49.7120 C   0  0  0  0  0  0  0  0  0  0  0  0
   28.7780   27.0320   50.0720 N   0  0  0  0  0  0  0  0  0  0  0  0
   28.1650   27.9220   49.2540 C   0  0  0  0  0  0  0  0  0  0  0  0
   26.8810   28.4140   49.1320 C   0  0  0  0  0  0  0  0  0  0  0  0
   26.5700   29.3310   48.1770 N   0  0  0  0  0  0  0  0  0  0  0  0
   27.5150   29.7790   47.3300 C   0  0  0  0  0  0  0  0  0  0  0  0
   28.7770   29.3180   47.4250 N   0  0  0  0  0  0  0  0  0  0  0  0
   29.1160   28.4050   48.3640 C   0  0  0  0  0  0  0  0  0  0  0  0
   25.8930   27.9300   50.0350 N   0  0  0  0  0  0  0  0  0  0  0  0
   35.0112   31.1477   46.5585 H   0  0  0  0  0  0  0  0  0  0  0  0
   37.0791   29.1596   49.7795 H   0  0  0  0  0  0  0  0  0  0  0  0
   37.3868   32.3285   49.5883 H   0  0  0  0  0  0  0  0  0  0  0  0
   40.9291   32.7039   46.0919 H   0  0  0  0  0  0  0  0  0  0  0  0
   39.0919   29.5841   43.9087 H   0  0  0  0  0  0  0  0  0  0  0  0
   32.8267   28.0565   50.0171 H   0  0  0  0  0  0  0  0  0  0  0  0
   32.1904   25.8211   48.1541 H   0  0  0  0  0  0  0  0  0  0  0  0
   33.0573   26.4097   47.0119 H   0  0  0  0  0  0  0  0  0  0  0  0
   31.1422   28.6627   47.2932 H   0  0  0  0  0  0  0  0  0  0  0  0
   30.8544   26.3148   50.1800 H   0  0  0  0  0  0  0  0  0  0  0  0
   27.2569   30.5214   46.5604 H   0  0  0  0  0  0  0  0  0  0  0  0
   24.9247   28.2755   49.9725 H   0  0  0  0  0  0  0  0  0  0  0  0
   26.1463   27.2342   50.7510 H   0  0  0  0  0  0  0  0  0  0  0  0
  1  6  2  0
  1  2  1  0
  2  3  2  0
  3  4  1  0
  5 16  1  0
  5  4  2  0
  6  5  1  0
  7  2  1  0
  7  8  1  0
  9  8  2  0
 10  9  1  0
 11 10  2  0
 12 11  1  0
 13 12  2  0
 13 14  1  0
 14 15  2  0
 15 10  1  0
 15  7  1  0
 17 18  1  0
 17 16  1  0
 18 19  1  0
 18 16  1  0
 19 20  1  0
 20 21  2  0
 22 21  1  0
 23 22  2  0
 23 28  1  0
 24 23  1  0
 25 26  1  0
 25 24  2  0
 26 27  2  0
 27 19  1  0
 27 22  1  0
  1 29  1  0
  3 30  1  0
  8 31  1  0
 11 32  1  0
 13 33  1  0
 16 34  1  1
 17 35  1  0
 17 36  1  0
 18 37  1  6
 20 38  1  0
 25 39  1  0
 28 40  1  0
 28 41  1  0
M  END
>  <Score>  (1) 
-7.38175

$$$$
