
     RDKit          3D

 37 40  0  0  0  0  0  0  0  0999 V2000
   35.5237   29.5407   49.1969 C   0  0  0  0  0  0  0  0  0  0  0  0
   35.4676   29.1393   50.5366 C   0  0  0  0  0  0  0  0  0  0  0  0
   36.3616   29.5430   51.4982 C   0  0  0  0  0  0  0  0  0  0  0  0
   37.3816   30.3898   51.1579 C   0  0  0  0  0  0  0  0  0  0  0  0
   37.4904   30.8176   49.8652 C   0  0  0  0  0  0  0  0  0  0  0  0
   38.5371   31.6693   49.5792 C   0  0  0  0  0  0  0  0  0  0  0  0
   38.7070   32.1379   48.3025 C   0  0  0  0  0  0  0  0  0  0  0  0
   37.8045   31.7299   47.3334 C   0  0  0  0  0  0  0  0  0  0  0  0
   36.7766   30.8756   47.6805 C   0  0  0  0  0  0  0  0  0  0  0  0
   36.5729   30.3888   48.9319 C   0  0  0  0  0  0  0  0  0  0  0  0
   33.6072   27.1052   47.3680 C   0  0  0  0  0  0  0  0  0  0  0  0
   32.8178   27.7982   46.4429 C   0  0  0  0  0  0  0  0  0  0  0  0
   32.9587   29.1842   46.4547 C   0  0  0  0  0  0  0  0  0  0  0  0
   33.8105   29.7344   47.3212 N   0  0  0  0  0  0  0  0  0  0  0  0
   34.5610   29.0965   48.1987 C   0  0  0  0  0  0  0  0  0  0  0  0
   34.4199   27.7666   48.1810 N   0  0  0  0  0  0  0  0  0  0  0  0
   34.6748   28.4693   50.8449 H   0  0  0  0  0  0  0  0  0  0  0  0
   36.2795   29.2073   52.5229 H   0  0  0  0  0  0  0  0  0  0  0  0
   38.0730   30.6942   51.9318 H   0  0  0  0  0  0  0  0  0  0  0  0
   39.2410   31.9858   50.3423 H   0  0  0  0  0  0  0  0  0  0  0  0
   39.5169   32.8080   48.0394 H   0  0  0  0  0  0  0  0  0  0  0  0
   37.8877   32.0676   46.3037 H   0  0  0  0  0  0  0  0  0  0  0  0
   36.0879   30.5790   46.8852 H   0  0  0  0  0  0  0  0  0  0  0  0
   33.4893   26.0327   47.3490 H   0  0  0  0  0  0  0  0  0  0  0  0
   32.1329   27.3836   45.7432 H   0  0  0  0  0  0  0  0  0  0  0  0
   32.2594   30.0835   45.6073 N   0  0  0  0  0  0  0  0  0  0  0  0
   32.9806   31.0845   45.0738 C   0  0  0  0  0  0  0  0  0  0  0  0
   32.3103   31.9616   44.2505 C   0  0  0  0  0  0  0  0  0  0  0  0
   30.9677   31.7215   44.0588 C   0  0  0  0  0  0  0  0  0  0  0  0
   30.1918   32.5696   43.2306 N   0  0  0  0  0  0  0  0  0  0  0  0
   30.2827   30.6861   44.6273 N   0  0  0  0  0  0  0  0  0  0  0  0
   30.9514   29.8264   45.4375 C   0  0  0  0  0  0  0  0  0  0  0  0
   30.3934   28.8502   45.9975 O   0  0  0  0  0  0  0  0  0  0  0  0
   34.0323   31.1849   45.2880 H   0  0  0  0  0  0  0  0  0  0  0  0
   32.8196   32.7847   43.7889 H   0  0  0  0  0  0  0  0  0  0  0  0
   29.6174   33.3317   42.8483 H   0  0  0  0  0  0  0  0  0  0  0  0
   29.7069   32.9001   42.3700 H   0  0  0  0  0  0  0  0  0  0  0  0
  1  2  2  0
  2  3  1  0
  4  3  2  0
  5  4  1  0
  6  5  2  0
  7  6  1  0
  8  9  1  0
  8  7  2  0
  9 10  2  0
 10  1  1  0
 10  5  1  0
 11 16  2  0
 12 13  2  0
 12 11  1  0
 13 14  1  0
 14 15  2  0
 15  1  1  0
 16 15  1  0
  2 17  1  0
  3 18  1  0
  4 19  1  0
  6 20  1  0
  7 21  1  0
  8 22  1  0
  9 23  1  0
 11 24  1  0
 12 25  1  0
 26 27  1  0
 27 28  2  0
 28 29  1  0
 29 30  1  0
 29 31  2  0
 31 32  1  0
 32 33  2  0
 32 26  1  0
 27 34  1  0
 28 35  1  0
 30 36  1  0
 30 37  1  0
 13 26  1  0
M  END
>  <Score>  (1) 
-7.01074

$$$$
