
     RDKit          3D

 35 38  0  0  0  0  0  0  0  0999 V2000
   37.9450   32.6030   49.6980 C   0  0  0  0  0  0  0  0  0  0  0  0
   38.7880   32.8530   48.6120 C   0  0  0  0  0  0  0  0  0  0  0  0
   38.5200   32.1490   47.4390 C   0  0  0  0  0  0  0  0  0  0  0  0
   37.4820   31.2750   47.4000 N   0  0  0  0  0  0  0  0  0  0  0  0
   36.6950   31.0680   48.4800 C   0  0  0  0  0  0  0  0  0  0  0  0
   36.9160   31.7270   49.6360 N   0  0  0  0  0  0  0  0  0  0  0  0
   39.3270   32.3200   46.2310 C   0  0  0  0  0  0  0  0  0  0  0  0
   40.2750   33.2300   45.8820 N   0  0  0  0  0  0  0  0  0  0  0  0
   40.7150   32.9650   44.6820 O   0  0  0  0  0  0  0  0  0  0  0  0
   40.0810   31.9080   44.2400 C   0  0  0  0  0  0  0  0  0  0  0  0
   39.1920   31.4580   45.1740 N   0  0  0  0  0  0  0  0  0  0  0  0
   40.2410   31.2610   42.9710 N   0  0  0  0  0  0  0  0  0  0  0  0
   39.8720   31.8520   41.8250 N   0  0  0  0  0  0  0  0  0  0  0  0
   40.1420   31.0070   40.8060 C   0  0  0  0  0  0  0  0  0  0  0  0
   40.7010   29.8540   41.3760 C   0  0  0  0  0  0  0  0  0  0  0  0
   40.7550   30.0360   42.7490 C   0  0  0  0  0  0  0  0  0  0  0  0
   33.4760   28.2610   48.3020 C   0  0  0  0  0  0  0  0  0  0  0  0
   34.3860   28.2530   49.3290 C   0  0  0  0  0  0  0  0  0  0  0  0
   35.4260   29.1630   49.3810 C   0  0  0  0  0  0  0  0  0  0  0  0
   35.5880   30.1190   48.3990 C   0  0  0  0  0  0  0  0  0  0  0  0
   34.6960   30.1670   47.3450 C   0  0  0  0  0  0  0  0  0  0  0  0
   33.6700   29.2300   47.3410 C   0  0  0  0  0  0  0  0  0  0  0  0
   32.1610   27.1190   48.2240 S   0  0  0  0  0  0  0  0  0  0  0  0
   32.6880   25.8110   47.6550 O   0  0  0  0  0  0  0  0  0  0  0  0
   31.0740   27.5600   47.3060 O   0  0  0  0  0  0  0  0  0  0  0  0
   38.1253   33.1399   50.6410 H   0  0  0  0  0  0  0  0  0  0  0  0
   39.6206   33.5688   48.6792 H   0  0  0  0  0  0  0  0  0  0  0  0
   39.9589   31.1882   39.7366 H   0  0  0  0  0  0  0  0  0  0  0  0
   41.0378   28.9611   40.8290 H   0  0  0  0  0  0  0  0  0  0  0  0
   41.1373   29.3286   43.4996 H   0  0  0  0  0  0  0  0  0  0  0  0
   34.2859   27.5053   50.1296 H   0  0  0  0  0  0  0  0  0  0  0  0
   36.1366   29.1242   50.2198 H   0  0  0  0  0  0  0  0  0  0  0  0
   34.7938   30.9144   46.5439 H   0  0  0  0  0  0  0  0  0  0  0  0
   32.9561   29.2642   46.5048 H   0  0  0  0  0  0  0  0  0  0  0  0
   31.6626   26.9969   49.4943 H   0  0  0  0  0  0  0  0  0  0  0  0
  2  1  2  0
  3  2  1  0
  4  3  2  0
  4  5  1  0
  5  6  2  0
  6  1  1  0
  7  3  1  0
  8  7  2  0
  9  8  1  0
 10  9  1  0
 10 11  2  0
 11  7  1  0
 12 10  1  0
 13 12  1  0
 14 15  1  0
 14 13  2  0
 15 16  2  0
 16 12  1  0
 17 18  2  0
 18 19  1  0
 20  5  1  0
 20 19  2  0
 21 20  1  0
 22 21  2  0
 22 17  1  0
 23 17  1  0
 24 23  2  0
 25 23  2  0
  1 26  1  0
  2 27  1  0
 14 28  1  0
 15 29  1  0
 16 30  1  0
 18 31  1  0
 19 32  1  0
 21 33  1  0
 22 34  1  0
 23 35  1  0
M  END
>  <Score>  (1) 
-7.10065

$$$$
