
     RDKit          3D

 48 53  0  0  1  0  0  0  0  0999 V2000
   35.0850   30.1030   47.1650 C   0  0  0  0  0  0  0  0  0  0  0  0
   36.1120   30.2520   48.0940 C   0  0  0  0  0  0  0  0  0  0  0  0
   36.1280   29.2810   49.1420 C   0  0  0  0  0  0  0  0  0  0  0  0
   35.1750   28.3140   49.1620 N   0  0  0  0  0  0  0  0  0  0  0  0
   34.2130   28.2240   48.2400 C   0  0  0  0  0  0  0  0  0  0  0  0
   34.1820   29.1150   47.2590 N   0  0  0  0  0  0  0  0  0  0  0  0
   37.1650   31.2510   48.1560 C   0  0  0  0  0  0  0  0  0  0  0  0
   37.0740   31.9990   49.2870 C   0  0  0  0  0  0  0  0  0  0  0  0
   37.9900   33.0270   49.5540 C   0  0  0  0  0  0  0  0  0  0  0  0
   39.0000   33.2860   48.6580 C   0  0  0  0  0  0  0  0  0  0  0  0
   39.0670   32.5140   47.5230 C   0  0  0  0  0  0  0  0  0  0  0  0
   40.0580   32.6880   46.5320 C   0  0  0  0  0  0  0  0  0  0  0  0
   40.0770   31.8850   45.4150 C   0  0  0  0  0  0  0  0  0  0  0  0
   39.1560   30.9040   45.2190 C   0  0  0  0  0  0  0  0  0  0  0  0
   38.1780   30.7160   46.1720 C   0  0  0  0  0  0  0  0  0  0  0  0
   38.1690   31.5160   47.2750 C   0  0  0  0  0  0  0  0  0  0  0  0
   33.2170   27.1360   48.3340 C   0  0  1  0  0  0  0  0  0  0  0  0
   31.7830   27.4910   48.5900 C   0  0  0  0  0  0  0  0  0  0  0  0
   32.2060   26.9500   47.2560 C   0  0  2  0  0  0  0  0  0  0  0  0
   31.8130   25.2590   46.7560 S   0  0  0  0  0  0  0  0  0  0  0  0
   33.3430   24.3120   46.8600 C   0  0  0  0  0  0  0  0  0  0  0  0
   33.8460   23.3990   47.7720 C   0  0  0  0  0  0  0  0  0  0  0  0
   35.0590   23.0070   47.3300 N   0  0  0  0  0  0  0  0  0  0  0  0
   35.3760   23.6190   46.1720 C   0  0  0  0  0  0  0  0  0  0  0  0
   36.4820   23.5480   45.3490 C   0  0  0  0  0  0  0  0  0  0  0  0
   36.5710   24.2920   44.1870 C   0  0  0  0  0  0  0  0  0  0  0  0
   35.5080   25.1210   43.8670 C   0  0  0  0  0  0  0  0  0  0  0  0
   34.4120   25.1820   44.6960 C   0  0  0  0  0  0  0  0  0  0  0  0
   34.3050   24.4360   45.8750 C   0  0  0  0  0  0  0  0  0  0  0  0
   35.0121   30.8157   46.3303 H   0  0  0  0  0  0  0  0  0  0  0  0
   36.9023   29.3164   49.9225 H   0  0  0  0  0  0  0  0  0  0  0  0
   36.2672   31.7944   50.0062 H   0  0  0  0  0  0  0  0  0  0  0  0
   37.9008   33.6223   50.4747 H   0  0  0  0  0  0  0  0  0  0  0  0
   39.7316   34.0861   48.8437 H   0  0  0  0  0  0  0  0  0  0  0  0
   40.8204   33.4714   46.6541 H   0  0  0  0  0  0  0  0  0  0  0  0
   40.8601   32.0411   44.6584 H   0  0  0  0  0  0  0  0  0  0  0  0
   39.1907   30.2734   44.3184 H   0  0  0  0  0  0  0  0  0  0  0  0
   37.4167   29.9324   46.0441 H   0  0  0  0  0  0  0  0  0  0  0  0
   33.9604   26.4802   48.8108 H   0  0  0  0  0  0  0  0  0  0  0  0
   31.1748   26.8737   49.2675 H   0  0  0  0  0  0  0  0  0  0  0  0
   31.2511   28.3901   48.9345 H   0  0  0  0  0  0  0  0  0  0  0  0
   32.0673   27.2987   46.2220 H   0  0  0  0  0  0  0  0  0  0  0  0
   33.3470   23.0557   48.6902 H   0  0  0  0  0  0  0  0  0  0  0  0
   35.6638   22.3285   47.8145 H   0  0  0  0  0  0  0  0  0  0  0  0
   37.3135   22.8827   45.6246 H   0  0  0  0  0  0  0  0  0  0  0  0
   37.4567   24.2278   43.5379 H   0  0  0  0  0  0  0  0  0  0  0  0
   35.5404   25.7296   42.9513 H   0  0  0  0  0  0  0  0  0  0  0  0
   33.5814   25.8479   44.4193 H   0  0  0  0  0  0  0  0  0  0  0  0
  1  6  2  0
  1  2  1  0
  2  7  1  0
  2  3  2  0
  3  4  1  0
  5 17  1  0
  5  4  2  0
  6  5  1  0
  7  8  2  0
  8  9  1  0
 10  9  2  0
 11 10  1  0
 12 11  2  0
 13 12  1  0
 14 13  2  0
 14 15  1  0
 15 16  2  0
 16 11  1  0
 16  7  1  0
 17 18  1  0
 19 17  1  0
 19 18  1  0
 20 21  1  0
 20 19  1  0
 21 22  2  0
 23 22  1  0
 24 23  1  0
 25 24  2  0
 26 25  1  0
 27 26  2  0
 27 28  1  0
 28 29  2  0
 29 24  1  0
 29 21  1  0
  1 30  1  0
  3 31  1  0
  8 32  1  0
  9 33  1  0
 10 34  1  0
 12 35  1  0
 13 36  1  0
 14 37  1  0
 15 38  1  0
 17 39  1  1
 18 40  1  0
 18 41  1  0
 19 42  1  6
 22 43  1  0
 23 44  1  0
 25 45  1  0
 26 46  1  0
 27 47  1  0
 28 48  1  0
M  END
>  <Score>  (1) 
-7.06861

$$$$
