
     RDKit          3D

 39 41  0  0  0  0  0  0  0  0999 V2000
   36.8500   30.7960   46.1000 C   0  0  0  0  0  0  0  0  0  0  0  0
   35.8270   30.0300   46.6650 C   0  0  0  0  0  0  0  0  0  0  0  0
   35.5220   29.9850   47.9890 C   0  0  0  0  0  0  0  0  0  0  0  0
   36.2450   30.7330   48.8810 C   0  0  0  0  0  0  0  0  0  0  0  0
   37.2420   31.4910   48.4040 C   0  0  0  0  0  0  0  0  0  0  0  0
   37.9690   32.2430   49.3130 C   0  0  0  0  0  0  0  0  0  0  0  0
   38.9980   33.0390   48.9140 C   0  0  0  0  0  0  0  0  0  0  0  0
   39.3070   33.0820   47.5630 C   0  0  0  0  0  0  0  0  0  0  0  0
   38.5690   32.3280   46.6970 C   0  0  0  0  0  0  0  0  0  0  0  0
   37.5410   31.5250   47.0580 C   0  0  0  0  0  0  0  0  0  0  0  0
   36.1120   31.2960   42.6100 C   0  0  0  0  0  0  0  0  0  0  0  0
   37.2860   30.9830   41.9330 C   0  0  0  0  0  0  0  0  0  0  0  0
   38.3660   30.5910   42.6650 C   0  0  0  0  0  0  0  0  0  0  0  0
   38.1880   30.5440   43.9790 N   0  0  0  0  0  0  0  0  0  0  0  0
   37.1420   30.8140   44.6920 C   0  0  0  0  0  0  0  0  0  0  0  0
   36.1120   31.1930   43.9410 N   0  0  0  0  0  0  0  0  0  0  0  0
   39.6150   30.2390   42.1160 N   0  0  0  0  0  0  0  0  0  0  0  0
   40.7430   29.9300   42.9130 C   0  0  0  0  0  0  0  0  0  0  0  0
   40.9560   30.6520   43.9720 N   0  0  0  0  0  0  0  0  0  0  0  0
   41.6120   28.8620   42.5660 N   0  0  0  0  0  0  0  0  0  0  0  0
   41.6910   30.5320   44.6560 H   0  0  0  0  0  0  0  0  0  0  0  0
   37.3260   31.0800   40.5160 C   0  0  0  0  0  0  0  0  0  0  0  0
   37.9880   30.5770   39.6030 O   0  0  0  0  0  0  0  0  0  0  0  0
   35.9180   30.6720   50.2170 O   0  0  0  0  0  0  0  0  0  0  0  0
   36.4190   29.6340   51.0390 C   0  0  0  0  0  0  0  0  0  0  0  0
   37.2370   28.7360   50.4180 F   0  0  0  0  0  0  0  0  0  0  0  0
   37.1880   30.2280   52.0270 F   0  0  0  0  0  0  0  0  0  0  0  0
   35.3160   28.9970   51.5920 F   0  0  0  0  0  0  0  0  0  0  0  0
   35.2203   29.4146   45.9844 H   0  0  0  0  0  0  0  0  0  0  0  0
   34.6969   29.3497   48.3434 H   0  0  0  0  0  0  0  0  0  0  0  0
   37.7085   32.1954   50.3807 H   0  0  0  0  0  0  0  0  0  0  0  0
   39.5691   33.6322   49.6434 H   0  0  0  0  0  0  0  0  0  0  0  0
   40.1310   33.7116   47.1962 H   0  0  0  0  0  0  0  0  0  0  0  0
   38.8283   32.3765   45.6291 H   0  0  0  0  0  0  0  0  0  0  0  0
   35.2119   31.6182   42.0659 H   0  0  0  0  0  0  0  0  0  0  0  0
   39.7112   30.2051   41.0911 H   0  0  0  0  0  0  0  0  0  0  0  0
   42.4288   28.6500   43.1566 H   0  0  0  0  0  0  0  0  0  0  0  0
   41.4256   28.2993   41.7237 H   0  0  0  0  0  0  0  0  0  0  0  0
   36.5731   31.7850   40.1337 H   0  0  0  0  0  0  0  0  0  0  0  0
  1  2  2  0
  1 10  1  0
  2  3  1  0
  3  4  2  0
  4 24  1  0
  5  4  1  0
  5  6  2  0
  7  6  1  0
  8  7  2  0
  9 10  2  0
  9  8  1  0
 10  5  1  0
 11 16  2  0
 12 11  1  0
 12 13  2  0
 13 14  1  0
 14 15  2  0
 15  1  1  0
 16 15  1  0
 17 13  1  0
 17 18  1  0
 18 19  2  0
 19 21  1  0
 20 18  1  0
 22 12  1  0
 23 22  2  0
 24 25  1  0
 25 28  1  0
 25 27  1  0
 26 25  1  0
  2 29  1  0
  3 30  1  0
  6 31  1  0
  7 32  1  0
  8 33  1  0
  9 34  1  0
 11 35  1  0
 17 36  1  0
 20 37  1  0
 20 38  1  0
 22 39  1  0
M  END
>  <Score>  (1) 
-7.27813

$$$$
