
     RDKit          3D

 34 37  0  0  0  0  0  0  0  0999 V2000
   34.9920   28.9590   49.1320 C   0  0  0  0  0  0  0  0  0  0  0  0
   35.2720   29.9980   48.2690 C   0  0  0  0  0  0  0  0  0  0  0  0
   34.4170   30.1980   47.1890 C   0  0  0  0  0  0  0  0  0  0  0  0
   33.3490   29.3550   47.0450 N   0  0  0  0  0  0  0  0  0  0  0  0
   33.1110   28.3500   47.9130 C   0  0  0  0  0  0  0  0  0  0  0  0
   33.9350   28.1380   48.9740 N   0  0  0  0  0  0  0  0  0  0  0  0
   31.9440   27.6390   47.5220 N   0  0  0  0  0  0  0  0  0  0  0  0
   31.8030   27.1080   46.2900 C   0  0  0  0  0  0  0  0  0  0  0  0
   30.6420   26.4150   45.9390 C   0  0  0  0  0  0  0  0  0  0  0  0
   29.7030   26.3370   46.9420 C   0  0  0  0  0  0  0  0  0  0  0  0
   28.6370   25.7050   46.6310 O   0  0  0  0  0  0  0  0  0  0  0  0
   29.8330   26.8630   48.1730 N   0  0  0  0  0  0  0  0  0  0  0  0
   30.9820   27.5290   48.4680 C   0  0  0  0  0  0  0  0  0  0  0  0
   31.0790   28.0080   49.6200 O   0  0  0  0  0  0  0  0  0  0  0  0
   36.4390   30.8240   48.5330 C   0  0  0  0  0  0  0  0  0  0  0  0
   36.6790   31.3940   49.7540 C   0  0  0  0  0  0  0  0  0  0  0  0
   37.8400   32.1650   49.8670 C   0  0  0  0  0  0  0  0  0  0  0  0
   38.7050   32.3640   48.8580 N   0  0  0  0  0  0  0  0  0  0  0  0
   38.4110   31.7730   47.6750 C   0  0  0  0  0  0  0  0  0  0  0  0
   37.2980   31.0170   47.5130 N   0  0  0  0  0  0  0  0  0  0  0  0
   39.3050   31.9580   46.5680 N   0  0  0  0  0  0  0  0  0  0  0  0
   39.9140   33.0170   45.9840 C   0  0  0  0  0  0  0  0  0  0  0  0
   40.6480   32.5170   44.9570 N   0  0  0  0  0  0  0  0  0  0  0  0
   40.4730   31.1720   44.9350 C   0  0  0  0  0  0  0  0  0  0  0  0
   39.6290   30.8280   45.9500 N   0  0  0  0  0  0  0  0  0  0  0  0
   35.6621   28.7930   49.9884 H   0  0  0  0  0  0  0  0  0  0  0  0
   34.5951   31.0118   46.4707 H   0  0  0  0  0  0  0  0  0  0  0  0
   32.6117   27.2220   45.5531 H   0  0  0  0  0  0  0  0  0  0  0  0
   30.4911   25.9692   44.9448 H   0  0  0  0  0  0  0  0  0  0  0  0
   29.0837   26.7644   48.8727 H   0  0  0  0  0  0  0  0  0  0  0  0
   35.9937   31.2528   50.6028 H   0  0  0  0  0  0  0  0  0  0  0  0
   38.0577   32.6355   50.8372 H   0  0  0  0  0  0  0  0  0  0  0  0
   39.8307   34.0725   46.2823 H   0  0  0  0  0  0  0  0  0  0  0  0
   40.9341   30.4758   44.2190 H   0  0  0  0  0  0  0  0  0  0  0  0
  2 15  1  0
  2  1  2  0
  3  2  1  0
  4  3  2  0
  4  5  1  0
  5  6  2  0
  6  1  1  0
  7  5  1  0
  7 13  1  0
  8  7  1  0
  9  8  2  0
  9 10  1  0
 10 12  1  0
 11 10  2  0
 12 13  1  0
 13 14  2  0
 15 16  2  0
 16 17  1  0
 18 17  2  0
 19 18  1  0
 20 19  2  0
 20 15  1  0
 21 19  1  0
 22 21  1  0
 23 22  2  0
 24 23  1  0
 24 25  2  0
 25 21  1  0
  1 26  1  0
  3 27  1  0
  8 28  1  0
  9 29  1  0
 12 30  1  0
 16 31  1  0
 17 32  1  0
 22 33  1  0
 24 34  1  0
M  END
>  <Score>  (1) 
-7.08325

$$$$
