
     RDKit          3D

 42 47  0  0  1  0  0  0  0  0999 V2000
   32.9730   27.9990   48.9120 C   0  0  2  0  0  0  0  0  0  0  0  0
   32.7460   26.8460   47.8760 C   0  0  0  0  0  0  0  0  0  0  0  0
   31.8110   27.9680   48.0080 C   0  0  1  0  0  0  0  0  0  0  0  0
   30.4620   27.8220   48.4890 N   0  0  0  0  0  0  0  0  0  0  0  0
   29.9940   27.0460   49.5090 C   0  0  0  0  0  0  0  0  0  0  0  0
   28.6890   27.1560   49.6770 N   0  0  0  0  0  0  0  0  0  0  0  0
   28.2400   28.0200   48.7640 C   0  0  0  0  0  0  0  0  0  0  0  0
   26.9530   28.4520   48.5490 C   0  0  0  0  0  0  0  0  0  0  0  0
   26.0070   28.0260   49.2660 O   0  0  0  0  0  0  0  0  0  0  0  0
   26.7860   29.3430   47.5390 N   0  0  0  0  0  0  0  0  0  0  0  0
   27.8620   29.7530   46.8090 C   0  0  0  0  0  0  0  0  0  0  0  0
   27.5100   30.6890   45.7890 N   0  0  0  0  0  0  0  0  0  0  0  0
   29.1070   29.3030   47.0550 N   0  0  0  0  0  0  0  0  0  0  0  0
   29.3460   28.4180   48.0420 C   0  0  0  0  0  0  0  0  0  0  0  0
   35.2410   30.4450   47.2810 C   0  0  0  0  0  0  0  0  0  0  0  0
   36.4090   30.3300   48.0430 C   0  0  0  0  0  0  0  0  0  0  0  0
   36.4140   29.4330   49.0850 C   0  0  0  0  0  0  0  0  0  0  0  0
   35.2670   28.7020   49.3170 N   0  0  0  0  0  0  0  0  0  0  0  0
   34.1750   28.8320   48.5790 C   0  0  0  0  0  0  0  0  0  0  0  0
   34.1580   29.7000   47.5640 N   0  0  0  0  0  0  0  0  0  0  0  0
   37.5190   31.1090   47.7360 N   0  0  0  0  0  0  0  0  0  0  0  0
   37.9880   32.1420   48.4810 C   0  0  0  0  0  0  0  0  0  0  0  0
   39.0710   32.7050   47.9380 N   0  0  0  0  0  0  0  0  0  0  0  0
   39.3270   32.0260   46.8010 C   0  0  0  0  0  0  0  0  0  0  0  0
   40.2680   32.1020   45.8140 C   0  0  0  0  0  0  0  0  0  0  0  0
   40.3090   31.2830   44.7490 N   0  0  0  0  0  0  0  0  0  0  0  0
   39.3400   30.3270   44.6750 C   0  0  0  0  0  0  0  0  0  0  0  0
   38.4190   30.2480   45.6340 N   0  0  0  0  0  0  0  0  0  0  0  0
   38.3410   31.0350   46.7000 C   0  0  0  0  0  0  0  0  0  0  0  0
   33.0692   28.1453   49.9980 H   0  0  0  0  0  0  0  0  0  0  0  0
   32.4591   25.8406   48.2178 H   0  0  0  0  0  0  0  0  0  0  0  0
   33.3263   26.3939   47.0582 H   0  0  0  0  0  0  0  0  0  0  0  0
   31.3968   28.6832   47.2822 H   0  0  0  0  0  0  0  0  0  0  0  0
   30.6350   26.3983   50.1252 H   0  0  0  0  0  0  0  0  0  0  0  0
   25.8475   29.7090   47.3242 H   0  0  0  0  0  0  0  0  0  0  0  0
   26.5284   30.9783   45.6720 H   0  0  0  0  0  0  0  0  0  0  0  0
   28.2378   31.0746   45.1705 H   0  0  0  0  0  0  0  0  0  0  0  0
   35.2084   31.1535   46.4402 H   0  0  0  0  0  0  0  0  0  0  0  0
   37.3061   29.3020   49.7151 H   0  0  0  0  0  0  0  0  0  0  0  0
   37.5294   32.4769   49.4231 H   0  0  0  0  0  0  0  0  0  0  0  0
   41.0399   32.8815   45.8957 H   0  0  0  0  0  0  0  0  0  0  0  0
   39.3188   29.6250   43.8284 H   0  0  0  0  0  0  0  0  0  0  0  0
  2  3  1  0
  2  1  1  0
  3  4  1  0
  3  1  1  0
  4  5  1  0
  5  6  2  0
  7  6  1  0
  8  7  1  0
  8  9  2  0
 10  8  1  0
 11 13  2  0
 11 10  1  0
 12 11  1  0
 13 14  1  0
 14  4  1  0
 14  7  2  0
 15 20  2  0
 15 16  1  0
 16 17  2  0
 17 18  1  0
 19  1  1  0
 19 18  2  0
 20 19  1  0
 21 16  1  0
 21 22  1  0
 23 22  2  0
 24 23  1  0
 25 24  2  0
 26 25  1  0
 27 26  2  0
 27 28  1  0
 28 29  2  0
 29 24  1  0
 29 21  1  0
  1 30  1  1
  2 31  1  0
  2 32  1  0
  3 33  1  6
  5 34  1  0
 10 35  1  0
 12 36  1  0
 12 37  1  0
 15 38  1  0
 17 39  1  0
 22 40  1  0
 25 41  1  0
 27 42  1  0
M  END
>  <Score>  (1) 
-7.33128

$$$$
