
     RDKit          3D

 44 47  0  0  0  0  0  0  0  0999 V2000
   36.1480   31.3700   42.6130 C   0  0  0  0  0  0  0  0  0  0  0  0
   37.3130   31.0370   41.9160 C   0  0  0  0  0  0  0  0  0  0  0  0
   38.3800   30.6060   42.6530 C   0  0  0  0  0  0  0  0  0  0  0  0
   38.1920   30.5510   43.9620 N   0  0  0  0  0  0  0  0  0  0  0  0
   37.1520   30.8400   44.6740 C   0  0  0  0  0  0  0  0  0  0  0  0
   36.1360   31.2530   43.9370 N   0  0  0  0  0  0  0  0  0  0  0  0
   36.8550   30.8110   46.0890 C   0  0  0  0  0  0  0  0  0  0  0  0
   35.8260   30.0440   46.6480 C   0  0  0  0  0  0  0  0  0  0  0  0
   35.5090   29.9860   47.9670 C   0  0  0  0  0  0  0  0  0  0  0  0
   36.2260   30.7200   48.8580 C   0  0  0  0  0  0  0  0  0  0  0  0
   37.2340   31.4860   48.3950 C   0  0  0  0  0  0  0  0  0  0  0  0
   37.9630   32.2340   49.3100 C   0  0  0  0  0  0  0  0  0  0  0  0
   38.9980   33.0330   48.9220 C   0  0  0  0  0  0  0  0  0  0  0  0
   39.3100   33.0840   47.5730 C   0  0  0  0  0  0  0  0  0  0  0  0
   38.5720   32.3340   46.7010 C   0  0  0  0  0  0  0  0  0  0  0  0
   37.5410   31.5320   47.0530 C   0  0  0  0  0  0  0  0  0  0  0  0
   35.8960   30.6550   50.1940 O   0  0  0  0  0  0  0  0  0  0  0  0
   36.4080   29.6240   51.0190 C   0  0  0  0  0  0  0  0  0  0  0  0
   37.2310   28.7300   50.3970 F   0  0  0  0  0  0  0  0  0  0  0  0
   37.1910   30.2340   51.9980 F   0  0  0  0  0  0  0  0  0  0  0  0
   35.3190   28.9820   51.5870 F   0  0  0  0  0  0  0  0  0  0  0  0
   39.6210   30.2230   42.1110 N   0  0  0  0  0  0  0  0  0  0  0  0
   40.7470   29.9200   42.9060 C   0  0  0  0  0  0  0  0  0  0  0  0
   40.9700   30.6450   43.9630 N   0  0  0  0  0  0  0  0  0  0  0  0
   41.6070   28.8510   42.5670 N   0  0  0  0  0  0  0  0  0  0  0  0
   41.7100   30.5330   44.6420 H   0  0  0  0  0  0  0  0  0  0  0  0
   37.3890   31.1430   40.5040 N   0  0  0  0  0  0  0  0  0  0  0  0
   37.8510   30.4230   39.5370 N   0  0  0  0  0  0  0  0  0  0  0  0
   37.7090   30.9110   38.3230 C   0  0  0  0  0  0  0  0  0  0  0  0
   37.0680   32.1180   38.4810 C   0  0  0  0  0  0  0  0  0  0  0  0
   36.8970   32.2060   39.8450 C   0  0  0  0  0  0  0  0  0  0  0  0
   35.2560   31.7230   42.0748 H   0  0  0  0  0  0  0  0  0  0  0  0
   35.2219   29.4355   45.9590 H   0  0  0  0  0  0  0  0  0  0  0  0
   34.6795   29.3508   48.3112 H   0  0  0  0  0  0  0  0  0  0  0  0
   37.6986   32.1807   50.3764 H   0  0  0  0  0  0  0  0  0  0  0  0
   39.5679   33.6193   49.6579 H   0  0  0  0  0  0  0  0  0  0  0  0
   40.1350   33.7153   47.2113 H   0  0  0  0  0  0  0  0  0  0  0  0
   38.8357   32.3863   45.6344 H   0  0  0  0  0  0  0  0  0  0  0  0
   39.7117   30.1610   41.0869 H   0  0  0  0  0  0  0  0  0  0  0  0
   42.4252   28.6414   43.1566 H   0  0  0  0  0  0  0  0  0  0  0  0
   41.4156   28.2815   41.7304 H   0  0  0  0  0  0  0  0  0  0  0  0
   38.0349   30.4500   37.3789 H   0  0  0  0  0  0  0  0  0  0  0  0
   36.7655   32.8379   37.7063 H   0  0  0  0  0  0  0  0  0  0  0  0
   36.4090   33.0570   40.3426 H   0  0  0  0  0  0  0  0  0  0  0  0
  1  6  2  0
  2  1  1  0
  2  3  2  0
  3  4  1  0
  4  5  2  0
  5  7  1  0
  6  5  1  0
  7  8  2  0
  7 16  1  0
  8  9  1  0
  9 10  2  0
 10 17  1  0
 11 10  1  0
 11 12  2  0
 13 12  1  0
 14 13  2  0
 15 16  2  0
 15 14  1  0
 16 11  1  0
 17 18  1  0
 18 21  1  0
 18 20  1  0
 19 18  1  0
 22  3  1  0
 22 23  1  0
 23 24  2  0
 24 26  1  0
 25 23  1  0
 27  2  1  0
 28 27  1  0
 29 30  1  0
 29 28  2  0
 30 31  2  0
 31 27  1  0
  1 32  1  0
  8 33  1  0
  9 34  1  0
 12 35  1  0
 13 36  1  0
 14 37  1  0
 15 38  1  0
 22 39  1  0
 25 40  1  0
 25 41  1  0
 29 42  1  0
 30 43  1  0
 31 44  1  0
M  END
>  <Score>  (1) 
-7.3747

$$$$
