
 OpenBabel03242519433D

 28 29  0  0  1  0  0  0  0  0999 V2000
   39.0900   31.4640   40.7110 N   0  0  0  0  0  0  0  0  0  0  0  0
   40.2930   31.9590   40.0980 C   0  0  0  0  0  0  0  0  0  0  0  0
   40.3080   33.4670   40.0370 C   0  0  0  0  0  0  0  0  0  0  0  0
   39.1280   34.0320   39.4530 N   0  0  0  0  0  0  0  0  0  0  0  0
   37.9030   33.3940   39.7830 C   0  0  0  0  0  0  0  0  0  0  0  0
   37.9120   32.2770   40.7630 C   0  0  1  0  0  0  0  0  0  0  0  0
   41.1460   31.6660   40.7650 H   0  0  0  0  0  0  0  0  0  0  0  0
   40.4720   31.5740   39.0910 H   0  0  0  0  0  0  0  0  0  0  0  0
   40.3580   33.8230   41.0930 H   0  0  0  0  0  0  0  0  0  0  0  0
   41.2050   33.7910   39.5080 H   0  0  0  0  0  0  0  0  0  0  0  0
   39.3060   34.0930   38.4260 H   0  0  0  0  0  0  0  0  0  0  0  0
   37.4550   33.0340   38.8330 H   0  0  0  0  0  0  0  0  0  0  0  0
   37.2180   34.1750   40.1770 H   0  0  0  0  0  0  0  0  0  0  0  0
   37.7430   32.6730   41.7830 H   0  0  0  0  0  0  0  0  0  0  0  0
   38.9290   28.5510   43.0640 C   0  0  0  0  0  0  0  0  0  0  0  0
   38.9370   29.8720   42.6230 C   0  0  0  0  0  0  0  0  0  0  0  0
   39.0690   30.1630   41.2800 C   0  0  0  0  0  0  0  0  0  0  0  0
   39.1840   29.0670   40.4680 N   0  0  0  0  0  0  0  0  0  0  0  0
   39.1750   27.7940   40.9010 C   0  0  0  0  0  0  0  0  0  0  0  0
   39.0470   27.5390   42.2050 N   0  0  0  0  0  0  0  0  0  0  0  0
   38.8200   28.4280   44.1490 H   0  0  0  0  0  0  0  0  0  0  0  0
   38.8450   30.7180   43.2830 H   0  0  0  0  0  0  0  0  0  0  0  0
   39.2720   26.9980   40.1820 H   0  0  0  0  0  0  0  0  0  0  0  0
   36.7390   31.3970   40.4420 C   0  0  0  0  0  0  0  0  0  0  0  0
   36.4950   30.9300   39.3070 O   0  0  0  0  0  0  0  0  0  0  0  0
   35.6920   30.9140   41.2790 N   0  0  0  0  0  0  0  0  0  0  0  0
   35.0990   31.6760   41.6810 H   0  0  0  0  0  0  0  0  0  0  0  0
   35.5290   29.8990   41.4750 H   0  0  0  0  0  0  0  0  0  0  0  0
  1  6  1  0  0  0  0
  1 17  1  0  0  0  0
  2  1  1  0  0  0  0
  2  7  1  0  0  0  0
  3  2  1  0  0  0  0
  3  9  1  0  0  0  0
  4  5  1  0  0  0  0
  4  3  1  0  0  0  0
  5 13  1  0  0  0  0
  5  6  1  0  0  0  0
  6 14  1  1  0  0  0
  8  2  1  0  0  0  0
 10  3  1  0  0  0  0
 11  4  1  0  0  0  0
 12  5  1  0  0  0  0
 15 21  1  0  0  0  0
 16 15  1  0  0  0  0
 16 22  1  0  0  0  0
 17 16  2  0  0  0  0
 18 19  2  0  0  0  0
 18 17  1  0  0  0  0
 19 20  1  0  0  0  0
 20 15  2  0  0  0  0
 23 19  1  0  0  0  0
 24  6  1  0  0  0  0
 24 26  1  0  0  0  0
 25 24  2  0  0  0  0
 26 28  1  0  0  0  0
 26 27  1  0  0  0  0
M  END
>  <minimizedAffinity>
-4.61666918

$$$$

 OpenBabel03242519433D

 28 29  0  0  1  0  0  0  0  0999 V2000
   39.1070   31.3800   40.7230 N   0  0  0  0  0  0  0  0  0  0  0  0
   40.3370   31.8270   40.1260 C   0  0  0  0  0  0  0  0  0  0  0  0
   40.4180   33.3330   40.0780 C   0  0  0  0  0  0  0  0  0  0  0  0
   39.2690   33.9540   39.4870 N   0  0  0  0  0  0  0  0  0  0  0  0
   38.0150   33.3670   39.7990 C   0  0  0  0  0  0  0  0  0  0  0  0
   37.9650   32.2430   40.7700 C   0  0  1  0  0  0  0  0  0  0  0  0
   41.1690   31.4920   40.8000 H   0  0  0  0  0  0  0  0  0  0  0  0
   40.5090   31.4420   39.1190 H   0  0  0  0  0  0  0  0  0  0  0  0
   40.4720   33.6790   41.1370 H   0  0  0  0  0  0  0  0  0  0  0  0
   41.3340   33.6220   39.5610 H   0  0  0  0  0  0  0  0  0  0  0  0
   39.4610   34.0150   38.4620 H   0  0  0  0  0  0  0  0  0  0  0  0
   37.5610   33.0350   38.8420 H   0  0  0  0  0  0  0  0  0  0  0  0
   37.3600   34.1740   40.1920 H   0  0  0  0  0  0  0  0  0  0  0  0
   37.8020   32.6380   41.7920 H   0  0  0  0  0  0  0  0  0  0  0  0
   39.1980   27.6750   41.2790 C   0  0  0  0  0  0  0  0  0  0  0  0
   39.3180   28.8980   40.6260 C   0  0  0  0  0  0  0  0  0  0  0  0
   39.0230   30.0770   41.2810 C   0  0  0  0  0  0  0  0  0  0  0  0
   38.6200   29.9210   42.5800 N   0  0  0  0  0  0  0  0  0  0  0  0
   38.5070   28.7360   43.2060 C   0  0  0  0  0  0  0  0  0  0  0  0
   38.7980   27.6100   42.5490 N   0  0  0  0  0  0  0  0  0  0  0  0
   39.4560   26.7990   40.6700 H   0  0  0  0  0  0  0  0  0  0  0  0
   39.6380   28.9940   39.6020 H   0  0  0  0  0  0  0  0  0  0  0  0
   38.1800   28.7170   44.2310 H   0  0  0  0  0  0  0  0  0  0  0  0
   36.7580   31.4170   40.4290 C   0  0  0  0  0  0  0  0  0  0  0  0
   36.4710   31.0270   39.2760 O   0  0  0  0  0  0  0  0  0  0  0  0
   35.7190   30.9140   41.2650 N   0  0  0  0  0  0  0  0  0  0  0  0
   35.1600   31.6670   41.7290 H   0  0  0  0  0  0  0  0  0  0  0  0
   35.5320   29.8940   41.4050 H   0  0  0  0  0  0  0  0  0  0  0  0
  1  6  1  0  0  0  0
  1 17  1  0  0  0  0
  2  1  1  0  0  0  0
  2  7  1  0  0  0  0
  3  2  1  0  0  0  0
  3  9  1  0  0  0  0
  4  5  1  0  0  0  0
  4  3  1  0  0  0  0
  5 13  1  0  0  0  0
  5  6  1  0  0  0  0
  6 14  1  1  0  0  0
  8  2  1  0  0  0  0
 10  3  1  0  0  0  0
 11  4  1  0  0  0  0
 12  5  1  0  0  0  0
 15 20  1  0  0  0  0
 16 15  2  0  0  0  0
 16 17  1  0  0  0  0
 17 18  2  0  0  0  0
 18 19  1  0  0  0  0
 19 23  1  0  0  0  0
 20 19  2  0  0  0  0
 21 15  1  0  0  0  0
 22 16  1  0  0  0  0
 24  6  1  0  0  0  0
 24 26  1  0  0  0  0
 25 24  2  0  0  0  0
 26 28  1  0  0  0  0
 26 27  1  0  0  0  0
M  END
>  <minimizedAffinity>
-4.57411432

$$$$

 OpenBabel03242519433D

 28 29  0  0  1  0  0  0  0  0999 V2000
   38.9580   30.8600   41.1550 N   0  0  0  0  0  0  0  0  0  0  0  0
   39.2260   30.4320   42.5020 C   0  0  0  0  0  0  0  0  0  0  0  0
   38.3380   29.2800   42.9070 C   0  0  0  0  0  0  0  0  0  0  0  0
   36.9440   29.5180   42.6780 N   0  0  0  0  0  0  0  0  0  0  0  0
   36.6180   30.2180   41.4870 C   0  0  0  0  0  0  0  0  0  0  0  0
   37.7030   30.5600   40.5310 C   0  0  1  0  0  0  0  0  0  0  0  0
   40.2750   30.0370   42.5180 H   0  0  0  0  0  0  0  0  0  0  0  0
   39.1240   31.2210   43.2500 H   0  0  0  0  0  0  0  0  0  0  0  0
   38.6350   28.4150   42.2670 H   0  0  0  0  0  0  0  0  0  0  0  0
   38.5330   29.0340   43.9510 H   0  0  0  0  0  0  0  0  0  0  0  0
   36.5750   29.9690   43.5450 H   0  0  0  0  0  0  0  0  0  0  0  0
   36.0970   31.1510   41.7870 H   0  0  0  0  0  0  0  0  0  0  0  0
   35.8720   29.6060   40.9360 H   0  0  0  0  0  0  0  0  0  0  0  0
   37.8120   29.7520   39.7830 H   0  0  0  0  0  0  0  0  0  0  0  0
   41.6410   31.8850   38.7480 C   0  0  0  0  0  0  0  0  0  0  0  0
   40.6980   31.0830   39.3840 C   0  0  0  0  0  0  0  0  0  0  0  0
   39.9460   31.5780   40.4310 C   0  0  0  0  0  0  0  0  0  0  0  0
   40.2140   32.8790   40.7590 N   0  0  0  0  0  0  0  0  0  0  0  0
   41.1270   33.6490   40.1400 C   0  0  0  0  0  0  0  0  0  0  0  0
   41.8420   33.1460   39.1300 N   0  0  0  0  0  0  0  0  0  0  0  0
   42.1850   31.3960   37.9290 H   0  0  0  0  0  0  0  0  0  0  0  0
   40.5050   30.0600   39.1060 H   0  0  0  0  0  0  0  0  0  0  0  0
   41.2650   34.6640   40.4730 H   0  0  0  0  0  0  0  0  0  0  0  0
   37.2640   31.7860   39.7830 C   0  0  0  0  0  0  0  0  0  0  0  0
   37.0700   31.8290   38.5490 O   0  0  0  0  0  0  0  0  0  0  0  0
   36.9850   33.1020   40.2530 N   0  0  0  0  0  0  0  0  0  0  0  0
   37.8160   33.5740   40.6800 H   0  0  0  0  0  0  0  0  0  0  0  0
   36.0440   33.5550   40.1820 H   0  0  0  0  0  0  0  0  0  0  0  0
  1  2  1  0  0  0  0
  2  7  1  0  0  0  0
  2  3  1  0  0  0  0
  2  8  1  0  0  0  0
  3 10  1  0  0  0  0
  4  3  1  0  0  0  0
  4 11  1  0  0  0  0
  5 12  1  0  0  0  0
  5  4  1  0  0  0  0
  6 14  1  6  0  0  0
  6  1  1  0  0  0  0
  6  5  1  0  0  0  0
  9  3  1  0  0  0  0
 13  5  1  0  0  0  0
 15 20  2  0  0  0  0
 15 16  1  0  0  0  0
 16 17  2  0  0  0  0
 17 18  1  0  0  0  0
 17  1  1  0  0  0  0
 19 23  1  0  0  0  0
 19 18  2  0  0  0  0
 20 19  1  0  0  0  0
 21 15  1  0  0  0  0
 22 16  1  0  0  0  0
 24 26  1  0  0  0  0
 24  6  1  0  0  0  0
 25 24  2  0  0  0  0
 26 27  1  0  0  0  0
 28 26  1  0  0  0  0
M  END
>  <minimizedAffinity>
-4.38316011

$$$$

 OpenBabel03242519433D

 28 29  0  0  1  0  0  0  0  0999 V2000
   37.9040   28.8780   39.6310 N   0  0  0  0  0  0  0  0  0  0  0  0
   38.5300   28.1340   38.5710 C   0  0  0  0  0  0  0  0  0  0  0  0
   38.9350   29.0290   37.4260 C   0  0  0  0  0  0  0  0  0  0  0  0
   37.8780   29.8700   36.9490 N   0  0  0  0  0  0  0  0  0  0  0  0
   37.0160   30.4100   37.9390 C   0  0  0  0  0  0  0  0  0  0  0  0
   37.3180   30.1600   39.3730 C   0  0  1  0  0  0  0  0  0  0  0  0
   39.4820   27.7100   38.9870 H   0  0  0  0  0  0  0  0  0  0  0  0
   37.9160   27.3240   38.1720 H   0  0  0  0  0  0  0  0  0  0  0  0
   39.7370   29.6980   37.8190 H   0  0  0  0  0  0  0  0  0  0  0  0
   39.3450   28.4140   36.6240 H   0  0  0  0  0  0  0  0  0  0  0  0
   37.3780   29.3260   36.2100 H   0  0  0  0  0  0  0  0  0  0  0  0
   35.9920   30.0430   37.7190 H   0  0  0  0  0  0  0  0  0  0  0  0
   36.9920   31.5120   37.7930 H   0  0  0  0  0  0  0  0  0  0  0  0
   37.9500   30.9770   39.7700 H   0  0  0  0  0  0  0  0  0  0  0  0
   37.4020   26.6930   42.6340 C   0  0  0  0  0  0  0  0  0  0  0  0
   37.3790   27.1070   41.3050 C   0  0  0  0  0  0  0  0  0  0  0  0
   37.8720   28.3470   40.9470 C   0  0  0  0  0  0  0  0  0  0  0  0
   38.3610   29.0870   41.9890 N   0  0  0  0  0  0  0  0  0  0  0  0
   38.3800   28.6810   43.2710 C   0  0  0  0  0  0  0  0  0  0  0  0
   37.8970   27.4780   43.5910 N   0  0  0  0  0  0  0  0  0  0  0  0
   36.9870   25.6930   42.8120 H   0  0  0  0  0  0  0  0  0  0  0  0
   36.9880   26.5050   40.5020 H   0  0  0  0  0  0  0  0  0  0  0  0
   38.7870   29.3380   44.0200 H   0  0  0  0  0  0  0  0  0  0  0  0
   36.0150   30.2210   40.1160 C   0  0  0  0  0  0  0  0  0  0  0  0
   34.9770   29.6110   39.7760 O   0  0  0  0  0  0  0  0  0  0  0  0
   35.6600   30.9340   41.2980 N   0  0  0  0  0  0  0  0  0  0  0  0
   35.7290   31.9730   41.1910 H   0  0  0  0  0  0  0  0  0  0  0  0
   35.3620   30.4700   42.1870 H   0  0  0  0  0  0  0  0  0  0  0  0
  1 17  1  0  0  0  0
  2  7  1  0  0  0  0
  2  1  1  0  0  0  0
  3  9  1  0  0  0  0
  3  2  1  0  0  0  0
  4  3  1  0  0  0  0
  4  5  1  0  0  0  0
  5  6  1  0  0  0  0
  6  1  1  0  0  0  0
  6 14  1  1  0  0  0
  6 24  1  0  0  0  0
  8  2  1  0  0  0  0
 10  3  1  0  0  0  0
 11  4  1  0  0  0  0
 12  5  1  0  0  0  0
 13  5  1  0  0  0  0
 15 21  1  0  0  0  0
 15 20  1  0  0  0  0
 16 15  2  0  0  0  0
 17 16  1  0  0  0  0
 17 18  2  0  0  0  0
 18 19  1  0  0  0  0
 19 20  2  0  0  0  0
 19 23  1  0  0  0  0
 22 16  1  0  0  0  0
 24 26  1  0  0  0  0
 25 24  2  0  0  0  0
 26 28  1  0  0  0  0
 27 26  1  0  0  0  0
M  END
>  <minimizedAffinity>
-4.28894281

$$$$

 OpenBabel03242519433D

 28 29  0  0  1  0  0  0  0  0999 V2000
   37.0980   30.6870   38.4890 N   0  0  0  0  0  0  0  0  0  0  0  0
   37.7670   30.2200   37.3040 C   0  0  0  0  0  0  0  0  0  0  0  0
   36.8160   29.5120   36.3700 C   0  0  0  0  0  0  0  0  0  0  0  0
   36.0470   28.4820   37.0020 N   0  0  0  0  0  0  0  0  0  0  0  0
   35.5970   28.7590   38.3200 C   0  0  0  0  0  0  0  0  0  0  0  0
   35.8580   30.1000   38.9040 C   0  0  1  0  0  0  0  0  0  0  0  0
   38.1270   31.1270   36.7520 H   0  0  0  0  0  0  0  0  0  0  0  0
   38.6110   29.5560   37.5010 H   0  0  0  0  0  0  0  0  0  0  0  0
   36.0980   30.2850   36.0080 H   0  0  0  0  0  0  0  0  0  0  0  0
   37.3790   29.1220   35.5210 H   0  0  0  0  0  0  0  0  0  0  0  0
   36.6090   27.6050   36.9270 H   0  0  0  0  0  0  0  0  0  0  0  0
   36.0360   27.9860   38.9860 H   0  0  0  0  0  0  0  0  0  0  0  0
   34.4980   28.5990   38.3360 H   0  0  0  0  0  0  0  0  0  0  0  0
   35.0060   30.7740   38.6920 H   0  0  0  0  0  0  0  0  0  0  0  0
   37.9320   34.0250   39.9740 C   0  0  0  0  0  0  0  0  0  0  0  0
   37.3050   33.0750   39.1720 C   0  0  0  0  0  0  0  0  0  0  0  0
   37.6620   31.7440   39.2510 C   0  0  0  0  0  0  0  0  0  0  0  0
   38.6510   31.4720   40.1580 N   0  0  0  0  0  0  0  0  0  0  0  0
   39.2520   32.3950   40.9300 C   0  0  0  0  0  0  0  0  0  0  0  0
   38.8880   33.6760   40.8350 N   0  0  0  0  0  0  0  0  0  0  0  0
   37.5750   35.0540   39.8350 H   0  0  0  0  0  0  0  0  0  0  0  0
   36.5280   33.3150   38.4650 H   0  0  0  0  0  0  0  0  0  0  0  0
   40.0210   32.0810   41.6140 H   0  0  0  0  0  0  0  0  0  0  0  0
   35.9140   29.9300   40.3950 C   0  0  0  0  0  0  0  0  0  0  0  0
   36.2330   28.8680   40.9740 O   0  0  0  0  0  0  0  0  0  0  0  0
   35.6370   30.8590   41.4400 N   0  0  0  0  0  0  0  0  0  0  0  0
   34.6460   31.1920   41.4440 H   0  0  0  0  0  0  0  0  0  0  0  0
   36.3510   31.1790   42.1350 H   0  0  0  0  0  0  0  0  0  0  0  0
  1  6  1  0  0  0  0
  1 17  1  0  0  0  0
  2  8  1  0  0  0  0
  2  1  1  0  0  0  0
  3  4  1  0  0  0  0
  3  2  1  0  0  0  0
  4  5  1  0  0  0  0
  5 13  1  0  0  0  0
  5  6  1  0  0  0  0
  5 12  1  0  0  0  0
  6 14  1  6  0  0  0
  6 24  1  0  0  0  0
  7  2  1  0  0  0  0
  9  3  1  0  0  0  0
 10  3  1  0  0  0  0
 11  4  1  0  0  0  0
 15 20  1  0  0  0  0
 16 17  1  0  0  0  0
 16 15  2  0  0  0  0
 17 18  2  0  0  0  0
 18 19  1  0  0  0  0
 19 23  1  0  0  0  0
 20 19  2  0  0  0  0
 21 15  1  0  0  0  0
 22 16  1  0  0  0  0
 24 25  2  0  0  0  0
 24 26  1  0  0  0  0
 26 27  1  0  0  0  0
 26 28  1  0  0  0  0
M  END
>  <minimizedAffinity>
-4.28203869

$$$$

 OpenBabel03242519433D

 28 29  0  0  1  0  0  0  0  0999 V2000
   38.4900   29.6470   41.5530 N   0  0  0  0  0  0  0  0  0  0  0  0
   39.1660   29.2770   42.7670 C   0  0  0  0  0  0  0  0  0  0  0  0
   38.8650   27.8520   43.1600 C   0  0  0  0  0  0  0  0  0  0  0  0
   37.4650   27.5490   43.2040 N   0  0  0  0  0  0  0  0  0  0  0  0
   36.6680   28.1380   42.1870 C   0  0  0  0  0  0  0  0  0  0  0  0
   37.3310   28.9250   41.1150 C   0  0  1  0  0  0  0  0  0  0  0  0
   40.2670   29.3150   42.5530 H   0  0  0  0  0  0  0  0  0  0  0  0
   38.9400   29.9220   43.6180 H   0  0  0  0  0  0  0  0  0  0  0  0
   39.3180   27.2050   42.3720 H   0  0  0  0  0  0  0  0  0  0  0  0
   39.3460   27.6390   44.1150 H   0  0  0  0  0  0  0  0  0  0  0  0
   37.1440   27.7740   44.1720 H   0  0  0  0  0  0  0  0  0  0  0  0
   35.9160   28.7810   42.6920 H   0  0  0  0  0  0  0  0  0  0  0  0
   36.1010   27.3190   41.6950 H   0  0  0  0  0  0  0  0  0  0  0  0
   37.5700   28.2650   40.2590 H   0  0  0  0  0  0  0  0  0  0  0  0
   39.5910   33.0170   40.3380 C   0  0  0  0  0  0  0  0  0  0  0  0
   39.0990   32.0380   41.1960 C   0  0  0  0  0  0  0  0  0  0  0  0
   38.9750   30.7290   40.7730 C   0  0  0  0  0  0  0  0  0  0  0  0
   39.3690   30.5100   39.4800 N   0  0  0  0  0  0  0  0  0  0  0  0
   39.8430   31.4610   38.6560 C   0  0  0  0  0  0  0  0  0  0  0  0
   39.9530   32.7190   39.0900 N   0  0  0  0  0  0  0  0  0  0  0  0
   39.6500   34.0230   40.7720 H   0  0  0  0  0  0  0  0  0  0  0  0
   38.7960   32.2360   42.2110 H   0  0  0  0  0  0  0  0  0  0  0  0
   40.1270   31.1880   37.6540 H   0  0  0  0  0  0  0  0  0  0  0  0
   36.3310   29.9300   40.6200 C   0  0  0  0  0  0  0  0  0  0  0  0
   35.9440   30.0160   39.4340 O   0  0  0  0  0  0  0  0  0  0  0  0
   35.6310   30.9550   41.3200 N   0  0  0  0  0  0  0  0  0  0  0  0
   36.2630   31.6810   41.7300 H   0  0  0  0  0  0  0  0  0  0  0  0
   34.5890   30.9820   41.4170 H   0  0  0  0  0  0  0  0  0  0  0  0
  1  2  1  0  0  0  0
  2  3  1  0  0  0  0
  2  8  1  0  0  0  0
  3  4  1  0  0  0  0
  3 10  1  0  0  0  0
  4 11  1  0  0  0  0
  5 12  1  0  0  0  0
  5  4  1  0  0  0  0
  6 14  1  6  0  0  0
  6  1  1  0  0  0  0
  6  5  1  0  0  0  0
  7  2  1  0  0  0  0
  9  3  1  0  0  0  0
 13  5  1  0  0  0  0
 15 21  1  0  0  0  0
 15 16  1  0  0  0  0
 16 22  1  0  0  0  0
 17 16  2  0  0  0  0
 17  1  1  0  0  0  0
 18 17  1  0  0  0  0
 19 20  1  0  0  0  0
 19 18  2  0  0  0  0
 20 15  2  0  0  0  0
 23 19  1  0  0  0  0
 24  6  1  0  0  0  0
 24 26  1  0  0  0  0
 25 24  2  0  0  0  0
 26 28  1  0  0  0  0
 26 27  1  0  0  0  0
M  END
>  <minimizedAffinity>
-4.27958155

$$$$

 OpenBabel03242519433D

 28 29  0  0  1  0  0  0  0  0999 V2000
   37.4440   27.9390   40.9580 N   0  0  0  0  0  0  0  0  0  0  0  0
   38.4260   26.9140   41.1900 C   0  0  0  0  0  0  0  0  0  0  0  0
   38.4390   26.4720   42.6330 C   0  0  0  0  0  0  0  0  0  0  0  0
   38.5500   27.5530   43.5670 N   0  0  0  0  0  0  0  0  0  0  0  0
   37.8310   28.7340   43.2420 C   0  0  0  0  0  0  0  0  0  0  0  0
   36.9540   28.7370   42.0420 C   0  0  1  0  0  0  0  0  0  0  0  0
   38.1120   26.0180   40.5930 H   0  0  0  0  0  0  0  0  0  0  0  0
   39.4430   27.1980   40.9100 H   0  0  0  0  0  0  0  0  0  0  0  0
   37.4570   25.9750   42.8180 H   0  0  0  0  0  0  0  0  0  0  0  0
   39.2390   25.7440   42.7730 H   0  0  0  0  0  0  0  0  0  0  0  0
   39.5720   27.7120   43.7150 H   0  0  0  0  0  0  0  0  0  0  0  0
   38.5730   29.5540   43.1460 H   0  0  0  0  0  0  0  0  0  0  0  0
   37.1960   28.9860   44.1180 H   0  0  0  0  0  0  0  0  0  0  0  0
   35.9270   28.4360   42.3290 H   0  0  0  0  0  0  0  0  0  0  0  0
   37.1110   28.5680   37.2790 C   0  0  0  0  0  0  0  0  0  0  0  0
   37.7130   28.3630   38.5160 C   0  0  0  0  0  0  0  0  0  0  0  0
   36.9470   28.1590   39.6470 C   0  0  0  0  0  0  0  0  0  0  0  0
   35.5960   28.1810   39.4290 N   0  0  0  0  0  0  0  0  0  0  0  0
   35.0190   28.3800   38.2300 C   0  0  0  0  0  0  0  0  0  0  0  0
   35.7830   28.5740   37.1530 N   0  0  0  0  0  0  0  0  0  0  0  0
   37.8080   28.7200   36.4450 H   0  0  0  0  0  0  0  0  0  0  0  0
   38.7810   28.3500   38.6610 H   0  0  0  0  0  0  0  0  0  0  0  0
   33.9450   28.3800   38.1620 H   0  0  0  0  0  0  0  0  0  0  0  0
   36.8690   30.1560   41.5600 C   0  0  0  0  0  0  0  0  0  0  0  0
   37.8600   30.8880   41.3410 O   0  0  0  0  0  0  0  0  0  0  0  0
   35.7330   30.9610   41.2570 N   0  0  0  0  0  0  0  0  0  0  0  0
   35.1150   31.1310   42.0840 H   0  0  0  0  0  0  0  0  0  0  0  0
   35.5320   31.3450   40.3040 H   0  0  0  0  0  0  0  0  0  0  0  0
  1  2  1  0  0  0  0
  1  6  1  0  0  0  0
  2  3  1  0  0  0  0
  3 10  1  0  0  0  0
  3  9  1  0  0  0  0
  3  4  1  0  0  0  0
  4 11  1  0  0  0  0
  5  4  1  0  0  0  0
  5 13  1  0  0  0  0
  6 14  1  1  0  0  0
  6  5  1  0  0  0  0
  7  2  1  0  0  0  0
  8  2  1  0  0  0  0
 12  5  1  0  0  0  0
 15 16  1  0  0  0  0
 16 22  1  0  0  0  0
 16 17  2  0  0  0  0
 17  1  1  0  0  0  0
 18 17  1  0  0  0  0
 19 18  2  0  0  0  0
 20 15  2  0  0  0  0
 20 19  1  0  0  0  0
 21 15  1  0  0  0  0
 23 19  1  0  0  0  0
 24  6  1  0  0  0  0
 25 24  2  0  0  0  0
 26 24  1  0  0  0  0
 26 27  1  0  0  0  0
 28 26  1  0  0  0  0
M  END
>  <minimizedAffinity>
-4.09628916

$$$$

 OpenBabel03242519433D

 28 29  0  0  1  0  0  0  0  0999 V2000
   38.1420   29.8320   41.4200 N   0  0  0  0  0  0  0  0  0  0  0  0
   36.7240   30.0180   41.5680 C   0  0  0  0  0  0  0  0  0  0  0  0
   36.1870   31.0190   40.5730 C   0  0  0  0  0  0  0  0  0  0  0  0
   36.9010   32.2610   40.5610 N   0  0  0  0  0  0  0  0  0  0  0  0
   38.3100   32.1720   40.7170 C   0  0  0  0  0  0  0  0  0  0  0  0
   38.9450   30.8300   40.7780 C   0  0  1  0  0  0  0  0  0  0  0  0
   36.2360   29.0400   41.3180 H   0  0  0  0  0  0  0  0  0  0  0  0
   36.4170   30.3320   42.5680 H   0  0  0  0  0  0  0  0  0  0  0  0
   36.3120   30.5570   39.5650 H   0  0  0  0  0  0  0  0  0  0  0  0
   35.1250   31.1740   40.7650 H   0  0  0  0  0  0  0  0  0  0  0  0
   36.4390   32.8740   41.2690 H   0  0  0  0  0  0  0  0  0  0  0  0
   38.5740   32.7360   41.6360 H   0  0  0  0  0  0  0  0  0  0  0  0
   38.7720   32.7190   39.8680 H   0  0  0  0  0  0  0  0  0  0  0  0
   39.2440   30.5100   39.7600 H   0  0  0  0  0  0  0  0  0  0  0  0
   39.4650   27.0720   43.5830 C   0  0  0  0  0  0  0  0  0  0  0  0
   38.8370   28.2630   43.2280 C   0  0  0  0  0  0  0  0  0  0  0  0
   38.7540   28.6460   41.9040 C   0  0  0  0  0  0  0  0  0  0  0  0
   39.3280   27.7710   41.0220 N   0  0  0  0  0  0  0  0  0  0  0  0
   39.9320   26.6210   41.3710 C   0  0  0  0  0  0  0  0  0  0  0  0
   39.9990   26.2740   42.6590 N   0  0  0  0  0  0  0  0  0  0  0  0
   39.4760   26.8610   44.6600 H   0  0  0  0  0  0  0  0  0  0  0  0
   38.3930   28.9360   43.9430 H   0  0  0  0  0  0  0  0  0  0  0  0
   40.3540   25.9980   40.6010 H   0  0  0  0  0  0  0  0  0  0  0  0
   40.2100   30.9750   41.5740 C   0  0  0  0  0  0  0  0  0  0  0  0
   41.3400   30.6130   41.1780 O   0  0  0  0  0  0  0  0  0  0  0  0
   40.4240   31.5150   42.8750 N   0  0  0  0  0  0  0  0  0  0  0  0
   39.9270   30.9860   43.6290 H   0  0  0  0  0  0  0  0  0  0  0  0
   41.0160   32.3570   43.0630 H   0  0  0  0  0  0  0  0  0  0  0  0
  1  2  1  0  0  0  0
  1 17  1  0  0  0  0
  2  8  1  0  0  0  0
  3 10  1  0  0  0  0
  3  2  1  0  0  0  0
  4  3  1  0  0  0  0
  4  5  1  0  0  0  0
  4 11  1  0  0  0  0
  5  6  1  0  0  0  0
  5 12  1  0  0  0  0
  6 14  1  6  0  0  0
  6  1  1  0  0  0  0
  6 24  1  0  0  0  0
  7  2  1  0  0  0  0
  9  3  1  0  0  0  0
 13  5  1  0  0  0  0
 15 21  1  0  0  0  0
 16 15  1  0  0  0  0
 16 22  1  0  0  0  0
 17 16  2  0  0  0  0
 18 19  2  0  0  0  0
 18 17  1  0  0  0  0
 19 20  1  0  0  0  0
 20 15  2  0  0  0  0
 23 19  1  0  0  0  0
 24 26  1  0  0  0  0
 25 24  2  0  0  0  0
 26 28  1  0  0  0  0
 26 27  1  0  0  0  0
M  END
>  <minimizedAffinity>
-4.08123159

$$$$

 OpenBabel03242519433D

 28 29  0  0  1  0  0  0  0  0999 V2000
   38.4600   29.9810   41.2700 N   0  0  0  0  0  0  0  0  0  0  0  0
   38.9220   31.0100   40.3780 C   0  0  0  0  0  0  0  0  0  0  0  0
   38.1450   32.2920   40.5580 C   0  0  0  0  0  0  0  0  0  0  0  0
   36.7240   32.1190   40.4990 N   0  0  0  0  0  0  0  0  0  0  0  0
   36.2140   30.9440   41.1110 C   0  0  0  0  0  0  0  0  0  0  0  0
   37.1470   30.0470   41.8410 C   0  0  1  0  0  0  0  0  0  0  0  0
   39.9800   31.2450   40.6680 H   0  0  0  0  0  0  0  0  0  0  0  0
   38.8870   30.7340   39.3220 H   0  0  0  0  0  0  0  0  0  0  0  0
   38.3900   32.6680   41.5800 H   0  0  0  0  0  0  0  0  0  0  0  0
   38.4870   33.0190   39.8200 H   0  0  0  0  0  0  0  0  0  0  0  0
   36.4550   32.2190   39.4950 H   0  0  0  0  0  0  0  0  0  0  0  0
   35.6990   30.3590   40.3200 H   0  0  0  0  0  0  0  0  0  0  0  0
   35.4270   31.2590   41.8300 H   0  0  0  0  0  0  0  0  0  0  0  0
   37.1880   30.3380   42.9080 H   0  0  0  0  0  0  0  0  0  0  0  0
   40.7580   27.0240   41.1370 C   0  0  0  0  0  0  0  0  0  0  0  0
   39.9430   28.0620   40.6950 C   0  0  0  0  0  0  0  0  0  0  0  0
   39.3110   28.8940   41.5980 C   0  0  0  0  0  0  0  0  0  0  0  0
   39.5630   28.6020   42.9120 N   0  0  0  0  0  0  0  0  0  0  0  0
   40.3520   27.5980   43.3330 C   0  0  0  0  0  0  0  0  0  0  0  0
   40.9510   26.8080   42.4390 N   0  0  0  0  0  0  0  0  0  0  0  0
   41.2120   26.4220   40.3400 H   0  0  0  0  0  0  0  0  0  0  0  0
   39.7610   28.2710   39.6540 H   0  0  0  0  0  0  0  0  0  0  0  0
   40.4870   27.4490   44.3900 H   0  0  0  0  0  0  0  0  0  0  0  0
   36.5610   28.6650   41.7920 C   0  0  0  0  0  0  0  0  0  0  0  0
   36.1540   28.1060   40.7500 O   0  0  0  0  0  0  0  0  0  0  0  0
   36.3380   27.7210   42.8360 N   0  0  0  0  0  0  0  0  0  0  0  0
   35.6620   28.0580   43.5600 H   0  0  0  0  0  0  0  0  0  0  0  0
   36.8020   26.7840   42.8780 H   0  0  0  0  0  0  0  0  0  0  0  0
  1 17  1  0  0  0  0
  1  6  1  0  0  0  0
  2  3  1  0  0  0  0
  2  7  1  0  0  0  0
  2  1  1  0  0  0  0
  3  9  1  0  0  0  0
  4  3  1  0  0  0  0
  4  5  1  0  0  0  0
  5 13  1  0  0  0  0
  5  6  1  0  0  0  0
  6 14  1  1  0  0  0
  8  2  1  0  0  0  0
 10  3  1  0  0  0  0
 11  4  1  0  0  0  0
 12  5  1  0  0  0  0
 15 20  1  0  0  0  0
 16 15  2  0  0  0  0
 16 17  1  0  0  0  0
 17 18  2  0  0  0  0
 18 19  1  0  0  0  0
 19 23  1  0  0  0  0
 20 19  2  0  0  0  0
 21 15  1  0  0  0  0
 22 16  1  0  0  0  0
 24  6  1  0  0  0  0
 24 26  1  0  0  0  0
 25 24  2  0  0  0  0
 26 28  1  0  0  0  0
 26 27  1  0  0  0  0
M  END
>  <minimizedAffinity>
-4.07054901

$$$$
