
 OpenBabel03242523553D

 39 41  0  0  1  0  0  0  0  0999 V2000
   42.8220   34.4980   38.7650 C   0  0  1  0  0  0  0  0  0  0  0  0
   42.9530   35.1790   40.1190 C   0  0  1  0  0  0  0  0  0  0  0  0
   41.6630   35.3970   40.6340 O   0  0  0  0  0  0  0  0  0  0  0  0
   40.7360   35.7210   39.6400 C   0  0  0  0  0  0  0  0  0  0  0  0
   40.4410   34.5430   38.7350 C   0  0  2  0  0  0  0  0  0  0  0  0
   41.6630   33.5610   38.8740 C   0  0  1  0  0  0  0  0  0  0  0  0
   43.7830   33.9860   38.5470 H   0  0  0  0  0  0  0  0  0  0  0  0
   43.5300   36.1120   40.0830 H   0  0  0  0  0  0  0  0  0  0  0  0
   41.0170   36.6270   39.0690 H   0  0  0  0  0  0  0  0  0  0  0  0
   39.8050   35.9580   40.1920 H   0  0  0  0  0  0  0  0  0  0  0  0
   39.5200   34.0100   39.0210 H   0  0  0  0  0  0  0  0  0  0  0  0
   41.4470   33.2860   39.9550 H   0  0  0  0  0  0  0  0  0  0  0  0
   42.6010   35.4470   37.7550 O   0  0  0  0  0  0  0  0  0  0  0  0
   43.3800   35.5300   37.1810 H   0  0  0  0  0  0  0  0  0  0  0  0
   40.4530   34.9560   37.4120 O   0  0  0  0  0  0  0  0  0  0  0  0
   39.9740   34.3240   36.8110 H   0  0  0  0  0  0  0  0  0  0  0  0
   43.4940   34.1980   40.9700 O   0  0  0  0  0  0  0  0  0  0  0  0
   44.6030   34.3450   41.7050 C   0  0  0  0  0  0  0  0  0  0  0  0
   45.8620   34.4460   41.0990 C   0  0  0  0  0  0  0  0  0  0  0  0
   46.9760   34.5990   41.9070 C   0  0  0  0  0  0  0  0  0  0  0  0
   46.8160   34.6480   43.2790 N   0  0  0  0  0  0  0  0  0  0  0  0
   45.5830   34.5470   43.8300 C   0  0  0  0  0  0  0  0  0  0  0  0
   44.4820   34.3980   43.0480 N   0  0  0  0  0  0  0  0  0  0  0  0
   45.9660   34.4050   40.0180 H   0  0  0  0  0  0  0  0  0  0  0  0
   45.4680   34.5870   44.9050 H   0  0  0  0  0  0  0  0  0  0  0  0
   48.3540   34.6940   41.3330 C   0  0  0  0  0  0  0  0  0  0  0  0
   49.0810   36.0250   41.5050 C   0  0  0  0  0  0  0  0  0  0  0  0
   49.5040   34.7040   42.1800 C   0  0  0  0  0  0  0  0  0  0  0  0
   48.3780   34.3350   40.2790 H   0  0  0  0  0  0  0  0  0  0  0  0
   48.6770   36.7710   42.2140 H   0  0  0  0  0  0  0  0  0  0  0  0
   49.7540   36.3670   40.6890 H   0  0  0  0  0  0  0  0  0  0  0  0
   50.4530   34.2490   41.7910 H   0  0  0  0  0  0  0  0  0  0  0  0
   49.3770   34.6300   43.2760 H   0  0  0  0  0  0  0  0  0  0  0  0
   41.5400   32.6280   37.9140 O   0  0  0  0  0  0  0  0  0  0  0  0
   40.8670   31.4550   37.9610 C   0  0  0  0  0  0  0  0  0  0  0  0
   39.6630   31.3180   37.4710 O   0  0  0  0  0  0  0  0  0  0  0  0
   40.8950   30.0770   38.3710 N   0  0  0  0  0  0  0  0  0  0  0  0
   40.0860   29.4730   38.1090 H   0  0  0  0  0  0  0  0  0  0  0  0
   41.6850   29.6300   38.9250 H   0  0  0  0  0  0  0  0  0  0  0  0
  1  7  1  6  0  0  0
  1  6  1  0  0  0  0
  1  2  1  0  0  0  0
  2  8  1  6  0  0  0
  2  3  1  0  0  0  0
  2 17  1  0  0  0  0
  4 10  1  0  0  0  0
  4  3  1  0  0  0  0
  5  6  1  0  0  0  0
  5 11  1  1  0  0  0
  5  4  1  0  0  0  0
  6 12  1  1  0  0  0
  9  4  1  0  0  0  0
 13  1  1  0  0  0  0
 14 13  1  0  0  0  0
 15  5  1  0  0  0  0
 16 15  1  0  0  0  0
 17 18  1  0  0  0  0
 18 23  1  0  0  0  0
 19 18  2  0  0  0  0
 19 20  1  0  0  0  0
 20 21  2  0  0  0  0
 21 22  1  0  0  0  0
 22 25  1  0  0  0  0
 23 22  2  0  0  0  0
 24 19  1  0  0  0  0
 26 27  1  0  0  0  0
 26 20  1  0  0  0  0
 26 28  1  0  0  0  0
 27 28  1  0  0  0  0
 27 30  1  0  0  0  0
 28 33  1  0  0  0  0
 29 26  1  0  0  0  0
 31 27  1  0  0  0  0
 32 28  1  0  0  0  0
 34 35  1  0  0  0  0
 34  6  1  0  0  0  0
 35 37  1  0  0  0  0
 36 35  2  0  0  0  0
 37 39  1  0  0  0  0
 38 37  1  0  0  0  0
M  END
>  <minimizedAffinity>
-5.70316601

>  <minimizedRMSD>
0.0443415381

$$$$
