
 OpenBabel03252509193D

 37 39  0  0  1  0  0  0  0  0999 V2000
   37.1260   31.4680   38.5600 C   0  0  1  0  0  0  0  0  0  0  0  0
   37.3590   31.1870   37.1070 C   0  0  0  0  0  0  0  0  0  0  0  0
   37.0000   29.8030   36.6650 C   0  0  0  0  0  0  0  0  0  0  0  0
   35.7030   29.3060   37.2680 C   0  0  0  0  0  0  0  0  0  0  0  0
   35.5810   29.6190   38.7430 C   0  0  0  0  0  0  0  0  0  0  0  0
   36.9380   30.1060   39.2520 C   0  0  2  0  0  0  0  0  0  0  0  0
   36.1840   32.0010   38.6710 H   0  0  0  0  0  0  0  0  0  0  0  0
   36.8100   31.9370   36.5000 H   0  0  0  0  0  0  0  0  0  0  0  0
   38.4450   31.3410   36.9030 H   0  0  0  0  0  0  0  0  0  0  0  0
   37.8210   29.1090   36.9490 H   0  0  0  0  0  0  0  0  0  0  0  0
   36.8590   29.7990   35.5660 H   0  0  0  0  0  0  0  0  0  0  0  0
   35.6660   28.1960   37.1650 H   0  0  0  0  0  0  0  0  0  0  0  0
   34.8360   29.7580   36.7510 H   0  0  0  0  0  0  0  0  0  0  0  0
   34.8820   30.4520   38.9090 H   0  0  0  0  0  0  0  0  0  0  0  0
   35.2770   28.7560   39.3490 H   0  0  0  0  0  0  0  0  0  0  0  0
   37.7450   29.4170   39.0100 H   0  0  0  0  0  0  0  0  0  0  0  0
   40.5920   33.1570   39.9620 C   0  0  0  0  0  0  0  0  0  0  0  0
   39.4610   33.8880   40.3060 C   0  0  0  0  0  0  0  0  0  0  0  0
   38.2720   33.4310   39.9020 C   0  0  0  0  0  0  0  0  0  0  0  0
   38.1730   32.2520   39.1550 C   0  0  0  0  0  0  0  0  0  0  0  0
   39.9030   31.7560   39.0190 S   0  0  0  0  0  0  0  0  0  0  0  0
   39.5470   34.7990   40.8850 H   0  0  0  0  0  0  0  0  0  0  0  0
   37.3040   33.8660   40.0760 H   0  0  0  0  0  0  0  0  0  0  0  0
   43.7430   34.1080   41.7060 C   0  0  0  0  0  0  0  0  0  0  0  0
   44.6290   34.1290   40.6140 C   0  0  0  0  0  0  0  0  0  0  0  0
   44.1200   33.8210   39.3410 C   0  0  0  0  0  0  0  0  0  0  0  0
   42.7970   33.5230   39.2510 N   0  0  0  0  0  0  0  0  0  0  0  0
   41.9840   33.5130   40.3180 C   0  0  0  0  0  0  0  0  0  0  0  0
   42.4520   33.8070   41.5560 N   0  0  0  0  0  0  0  0  0  0  0  0
   44.0770   34.3370   42.7110 H   0  0  0  0  0  0  0  0  0  0  0  0
   45.6710   34.3760   40.7630 H   0  0  0  0  0  0  0  0  0  0  0  0
   44.7480   33.8240   38.4840 H   0  0  0  0  0  0  0  0  0  0  0  0
   36.7920   30.3640   40.7190 C   0  0  0  0  0  0  0  0  0  0  0  0
   37.5980   29.9710   41.5780 O   0  0  0  0  0  0  0  0  0  0  0  0
   35.7650   31.0700   41.4030 N   0  0  0  0  0  0  0  0  0  0  0  0
   35.0790   30.7400   42.1110 H   0  0  0  0  0  0  0  0  0  0  0  0
   35.9520   31.9930   40.9510 H   0  0  0  0  0  0  0  0  0  0  0  0
  1  7  1  1  0  0  0
  1 20  1  0  0  0  0
  1  6  1  0  0  0  0
  2  1  1  0  0  0  0
  3 10  1  0  0  0  0
  3  2  1  0  0  0  0
  3  4  1  0  0  0  0
  4  5  1  0  0  0  0
  5 14  1  0  0  0  0
  5  6  1  0  0  0  0
  5 15  1  0  0  0  0
  6 16  1  6  0  0  0
  6 33  1  0  0  0  0
  8  2  1  0  0  0  0
  9  2  1  0  0  0  0
 11  3  1  0  0  0  0
 12  4  1  0  0  0  0
 13  4  1  0  0  0  0
 17 18  2  0  0  0  0
 17 28  1  0  0  0  0
 18 22  1  0  0  0  0
 19 23  1  0  0  0  0
 19 18  1  0  0  0  0
 20 19  2  0  0  0  0
 21 20  1  0  0  0  0
 21 17  1  0  0  0  0
 24 30  1  0  0  0  0
 25 31  1  0  0  0  0
 25 24  2  0  0  0  0
 26 25  1  0  0  0  0
 27 26  2  0  0  0  0
 27 28  1  0  0  0  0
 28 29  2  0  0  0  0
 29 24  1  0  0  0  0
 32 26  1  0  0  0  0
 33 35  1  0  0  0  0
 33 34  2  0  0  0  0
 35 36  1  0  0  0  0
 37 35  1  0  0  0  0
M  END
>  <minimizedAffinity>
-5.35398006

$$$$

 OpenBabel03252509193D

 37 39  0  0  1  0  0  0  0  0999 V2000
   36.5700   26.9690   40.6720 C   0  0  1  0  0  0  0  0  0  0  0  0
   36.7910   26.2400   39.3810 C   0  0  0  0  0  0  0  0  0  0  0  0
   37.4450   24.9010   39.5160 C   0  0  0  0  0  0  0  0  0  0  0  0
   36.9150   24.0970   40.6850 C   0  0  0  0  0  0  0  0  0  0  0  0
   36.7540   24.9220   41.9430 C   0  0  0  0  0  0  0  0  0  0  0  0
   37.4410   26.2720   41.7320 C   0  0  2  0  0  0  0  0  0  0  0  0
   35.5370   26.8310   40.9840 H   0  0  0  0  0  0  0  0  0  0  0  0
   35.8210   26.1400   38.8500 H   0  0  0  0  0  0  0  0  0  0  0  0
   37.4440   26.8780   38.7400 H   0  0  0  0  0  0  0  0  0  0  0  0
   38.5410   25.0450   39.6420 H   0  0  0  0  0  0  0  0  0  0  0  0
   37.2410   24.3050   38.6040 H   0  0  0  0  0  0  0  0  0  0  0  0
   37.6450   23.2850   40.9170 H   0  0  0  0  0  0  0  0  0  0  0  0
   35.9320   23.6560   40.4390 H   0  0  0  0  0  0  0  0  0  0  0  0
   35.6940   25.1500   42.1260 H   0  0  0  0  0  0  0  0  0  0  0  0
   37.1900   24.4510   42.8330 H   0  0  0  0  0  0  0  0  0  0  0  0
   38.4720   26.1670   41.3990 H   0  0  0  0  0  0  0  0  0  0  0  0
   38.0740   30.7630   40.2530 C   0  0  0  0  0  0  0  0  0  0  0  0
   36.7090   30.7520   40.5200 C   0  0  0  0  0  0  0  0  0  0  0  0
   36.1110   29.5680   40.6760 C   0  0  0  0  0  0  0  0  0  0  0  0
   36.8380   28.3770   40.5740 C   0  0  0  0  0  0  0  0  0  0  0  0
   38.5000   28.9890   40.2290 S   0  0  0  0  0  0  0  0  0  0  0  0
   36.1550   31.6790   40.5980 H   0  0  0  0  0  0  0  0  0  0  0  0
   35.0730   29.3760   40.8840 H   0  0  0  0  0  0  0  0  0  0  0  0
   39.5940   34.1610   40.3830 C   0  0  0  0  0  0  0  0  0  0  0  0
   40.6040   34.0130   39.4150 C   0  0  0  0  0  0  0  0  0  0  0  0
   40.7230   32.7730   38.7660 C   0  0  0  0  0  0  0  0  0  0  0  0
   39.8470   31.7950   39.1170 N   0  0  0  0  0  0  0  0  0  0  0  0
   38.8970   31.9750   40.0470 C   0  0  0  0  0  0  0  0  0  0  0  0
   38.7630   33.1620   40.6880 N   0  0  0  0  0  0  0  0  0  0  0  0
   39.4540   35.0930   40.9180 H   0  0  0  0  0  0  0  0  0  0  0  0
   41.2650   34.8380   39.1880 H   0  0  0  0  0  0  0  0  0  0  0  0
   41.4690   32.6120   38.0260 H   0  0  0  0  0  0  0  0  0  0  0  0
   37.3000   27.0430   43.0070 C   0  0  0  0  0  0  0  0  0  0  0  0
   38.2580   27.4560   43.6800 O   0  0  0  0  0  0  0  0  0  0  0  0
   36.1140   27.4440   43.6800 N   0  0  0  0  0  0  0  0  0  0  0  0
   35.7560   27.1870   44.6230 H   0  0  0  0  0  0  0  0  0  0  0  0
   35.7600   28.0590   42.9140 H   0  0  0  0  0  0  0  0  0  0  0  0
  1  7  1  1  0  0  0
  1  6  1  0  0  0  0
  2  3  1  0  0  0  0
  2  1  1  0  0  0  0
  3 10  1  0  0  0  0
  3  4  1  0  0  0  0
  4 12  1  0  0  0  0
  4  5  1  0  0  0  0
  5 14  1  0  0  0  0
  5 15  1  0  0  0  0
  6 16  1  6  0  0  0
  6  5  1  0  0  0  0
  6 33  1  0  0  0  0
  8  2  1  0  0  0  0
  9  2  1  0  0  0  0
 11  3  1  0  0  0  0
 13  4  1  0  0  0  0
 17 18  2  0  0  0  0
 18 22  1  0  0  0  0
 18 19  1  0  0  0  0
 19 23  1  0  0  0  0
 20  1  1  0  0  0  0
 20 19  2  0  0  0  0
 21 17  1  0  0  0  0
 21 20  1  0  0  0  0
 24 29  1  0  0  0  0
 24 30  1  0  0  0  0
 25 24  2  0  0  0  0
 26 27  2  0  0  0  0
 26 25  1  0  0  0  0
 27 28  1  0  0  0  0
 28 17  1  0  0  0  0
 28 29  2  0  0  0  0
 31 25  1  0  0  0  0
 32 26  1  0  0  0  0
 33 34  2  0  0  0  0
 33 35  1  0  0  0  0
 35 36  1  0  0  0  0
 37 35  1  0  0  0  0
M  END
>  <minimizedAffinity>
-5.28801346

$$$$

 OpenBabel03252509193D

 37 39  0  0  1  0  0  0  0  0999 V2000
   38.5130   29.0610   41.5770 C   0  0  1  0  0  0  0  0  0  0  0  0
   38.9440   28.2300   42.7480 C   0  0  0  0  0  0  0  0  0  0  0  0
   37.8420   27.8220   43.6740 C   0  0  0  0  0  0  0  0  0  0  0  0
   36.5840   27.3950   42.9470 C   0  0  0  0  0  0  0  0  0  0  0  0
   36.2250   28.3150   41.8010 C   0  0  0  0  0  0  0  0  0  0  0  0
   37.0940   29.5690   41.8910 C   0  0  2  0  0  0  0  0  0  0  0  0
   38.4210   28.4200   40.7020 H   0  0  0  0  0  0  0  0  0  0  0  0
   39.4840   27.3330   42.3770 H   0  0  0  0  0  0  0  0  0  0  0  0
   39.6800   28.8290   43.3330 H   0  0  0  0  0  0  0  0  0  0  0  0
   37.6010   28.6750   44.3460 H   0  0  0  0  0  0  0  0  0  0  0  0
   38.1740   26.9490   44.2700 H   0  0  0  0  0  0  0  0  0  0  0  0
   35.7320   27.4210   43.6670 H   0  0  0  0  0  0  0  0  0  0  0  0
   36.6980   26.3730   42.5400 H   0  0  0  0  0  0  0  0  0  0  0  0
   36.4690   27.8490   40.8350 H   0  0  0  0  0  0  0  0  0  0  0  0
   35.1720   28.6260   41.8050 H   0  0  0  0  0  0  0  0  0  0  0  0
   37.0450   30.0410   42.8720 H   0  0  0  0  0  0  0  0  0  0  0  0
   41.1310   31.7940   39.9940 C   0  0  0  0  0  0  0  0  0  0  0  0
   40.8620   32.0230   41.3390 C   0  0  0  0  0  0  0  0  0  0  0  0
   40.0210   31.1920   41.9600 C   0  0  0  0  0  0  0  0  0  0  0  0
   39.4290   30.1250   41.2760 C   0  0  0  0  0  0  0  0  0  0  0  0
   40.1230   30.3190   39.6210 S   0  0  0  0  0  0  0  0  0  0  0  0
   41.3260   32.8500   41.8610 H   0  0  0  0  0  0  0  0  0  0  0  0
   39.7040   31.2210   42.9880 H   0  0  0  0  0  0  0  0  0  0  0  0
   42.7390   33.7070   37.2320 C   0  0  0  0  0  0  0  0  0  0  0  0
   43.9080   34.1390   37.8840 C   0  0  0  0  0  0  0  0  0  0  0  0
   44.0970   33.7640   39.2250 C   0  0  0  0  0  0  0  0  0  0  0  0
   43.1320   33.0020   39.8040 N   0  0  0  0  0  0  0  0  0  0  0  0
   42.0290   32.6110   39.1480 C   0  0  0  0  0  0  0  0  0  0  0  0
   41.8240   32.9610   37.8550 N   0  0  0  0  0  0  0  0  0  0  0  0
   42.5370   33.9660   36.1990 H   0  0  0  0  0  0  0  0  0  0  0  0
   44.6320   34.7440   37.3570 H   0  0  0  0  0  0  0  0  0  0  0  0
   44.9640   34.0640   39.7600 H   0  0  0  0  0  0  0  0  0  0  0  0
   36.6830   30.4730   40.7720 C   0  0  0  0  0  0  0  0  0  0  0  0
   36.4490   30.0870   39.6160 O   0  0  0  0  0  0  0  0  0  0  0  0
   36.4830   31.8800   40.7900 N   0  0  0  0  0  0  0  0  0  0  0  0
   36.9800   32.6370   40.2760 H   0  0  0  0  0  0  0  0  0  0  0  0
   35.6940   31.8670   41.4730 H   0  0  0  0  0  0  0  0  0  0  0  0
  1  7  1  6  0  0  0
  1  6  1  0  0  0  0
  1  2  1  0  0  0  0
  2  9  1  0  0  0  0
  2  3  1  0  0  0  0
  3 11  1  0  0  0  0
  3 10  1  0  0  0  0
  4 12  1  0  0  0  0
  4  3  1  0  0  0  0
  5 15  1  0  0  0  0
  5  6  1  0  0  0  0
  5  4  1  0  0  0  0
  6 16  1  1  0  0  0
  8  2  1  0  0  0  0
 13  4  1  0  0  0  0
 14  5  1  0  0  0  0
 17 18  2  0  0  0  0
 18 22  1  0  0  0  0
 18 19  1  0  0  0  0
 19 23  1  0  0  0  0
 20  1  1  0  0  0  0
 20 19  2  0  0  0  0
 21 17  1  0  0  0  0
 21 20  1  0  0  0  0
 24 29  2  0  0  0  0
 24 25  1  0  0  0  0
 25 26  2  0  0  0  0
 26 32  1  0  0  0  0
 26 27  1  0  0  0  0
 28 27  2  0  0  0  0
 28 17  1  0  0  0  0
 29 28  1  0  0  0  0
 30 24  1  0  0  0  0
 31 25  1  0  0  0  0
 33 35  1  0  0  0  0
 33  6  1  0  0  0  0
 34 33  2  0  0  0  0
 35 37  1  0  0  0  0
 36 35  1  0  0  0  0
M  END
>  <minimizedAffinity>
-5.12047529

$$$$

 OpenBabel03252509193D

 37 39  0  0  1  0  0  0  0  0999 V2000
   38.9250   26.8030   41.6130 C   0  0  1  0  0  0  0  0  0  0  0  0
   39.7930   25.5840   41.6870 C   0  0  0  0  0  0  0  0  0  0  0  0
   39.2140   24.4400   42.4570 C   0  0  0  0  0  0  0  0  0  0  0  0
   37.7410   24.2250   42.1820 C   0  0  0  0  0  0  0  0  0  0  0  0
   36.9520   25.5160   42.1540 C   0  0  0  0  0  0  0  0  0  0  0  0
   37.8380   26.6400   42.6920 C   0  0  2  0  0  0  0  0  0  0  0  0
   38.4070   26.8120   40.6560 H   0  0  0  0  0  0  0  0  0  0  0  0
   40.0510   25.2610   40.6570 H   0  0  0  0  0  0  0  0  0  0  0  0
   40.7490   25.8800   42.1790 H   0  0  0  0  0  0  0  0  0  0  0  0
   39.3560   24.6280   43.5440 H   0  0  0  0  0  0  0  0  0  0  0  0
   39.7310   23.5050   42.1600 H   0  0  0  0  0  0  0  0  0  0  0  0
   37.3140   23.5980   43.0000 H   0  0  0  0  0  0  0  0  0  0  0  0
   37.5970   23.7190   41.2090 H   0  0  0  0  0  0  0  0  0  0  0  0
   36.7020   25.7990   41.1220 H   0  0  0  0  0  0  0  0  0  0  0  0
   36.0370   25.4810   42.7600 H   0  0  0  0  0  0  0  0  0  0  0  0
   38.2690   26.4030   43.6630 H   0  0  0  0  0  0  0  0  0  0  0  0
   40.7180   30.4810   41.3100 C   0  0  0  0  0  0  0  0  0  0  0  0
   41.0500   29.8160   42.4850 C   0  0  0  0  0  0  0  0  0  0  0  0
   40.5220   28.6060   42.6910 C   0  0  0  0  0  0  0  0  0  0  0  0
   39.6620   28.0280   41.7510 C   0  0  0  0  0  0  0  0  0  0  0  0
   39.6000   29.3040   40.4760 S   0  0  0  0  0  0  0  0  0  0  0  0
   41.7170   30.2700   43.2070 H   0  0  0  0  0  0  0  0  0  0  0  0
   40.6700   27.9580   43.5370 H   0  0  0  0  0  0  0  0  0  0  0  0
   41.0360   34.0550   40.3120 C   0  0  0  0  0  0  0  0  0  0  0  0
   42.4360   34.1590   40.2230 C   0  0  0  0  0  0  0  0  0  0  0  0
   43.2050   33.0170   40.5050 C   0  0  0  0  0  0  0  0  0  0  0  0
   42.5400   31.8820   40.8440 N   0  0  0  0  0  0  0  0  0  0  0  0
   41.2020   31.8230   40.9190 C   0  0  0  0  0  0  0  0  0  0  0  0
   40.4380   32.9120   40.6520 N   0  0  0  0  0  0  0  0  0  0  0  0
   40.3910   34.9010   40.1070 H   0  0  0  0  0  0  0  0  0  0  0  0
   42.8950   35.0980   39.9460 H   0  0  0  0  0  0  0  0  0  0  0  0
   44.2660   33.0450   40.4510 H   0  0  0  0  0  0  0  0  0  0  0  0
   37.0140   27.8900   42.6920 C   0  0  0  0  0  0  0  0  0  0  0  0
   36.2430   28.2150   41.7750 O   0  0  0  0  0  0  0  0  0  0  0  0
   36.9410   28.9090   43.6800 N   0  0  0  0  0  0  0  0  0  0  0  0
   37.1920   29.9180   43.6250 H   0  0  0  0  0  0  0  0  0  0  0  0
   36.5620   28.2970   44.4360 H   0  0  0  0  0  0  0  0  0  0  0  0
  1  7  1  6  0  0  0
  1  2  1  0  0  0  0
  1 20  1  0  0  0  0
  1  6  1  0  0  0  0
  2  9  1  0  0  0  0
  2  3  1  0  0  0  0
  3 10  1  0  0  0  0
  4  3  1  0  0  0  0
  4 12  1  0  0  0  0
  5  4  1  0  0  0  0
  5  6  1  0  0  0  0
  5 15  1  0  0  0  0
  6 16  1  1  0  0  0
  8  2  1  0  0  0  0
 11  3  1  0  0  0  0
 13  4  1  0  0  0  0
 14  5  1  0  0  0  0
 17 18  2  0  0  0  0
 18 19  1  0  0  0  0
 18 22  1  0  0  0  0
 19 23  1  0  0  0  0
 20 19  2  0  0  0  0
 21 17  1  0  0  0  0
 21 20  1  0  0  0  0
 24 29  1  0  0  0  0
 25 24  2  0  0  0  0
 25 26  1  0  0  0  0
 26 27  2  0  0  0  0
 27 28  1  0  0  0  0
 28 17  1  0  0  0  0
 29 28  2  0  0  0  0
 30 24  1  0  0  0  0
 31 25  1  0  0  0  0
 32 26  1  0  0  0  0
 33  6  1  0  0  0  0
 33 35  1  0  0  0  0
 34 33  2  0  0  0  0
 35 37  1  0  0  0  0
 36 35  1  0  0  0  0
M  END
>  <minimizedAffinity>
-5.07079363

$$$$

 OpenBabel03252509193D

 37 39  0  0  1  0  0  0  0  0999 V2000
   37.0780   24.6670   41.0510 C   0  0  1  0  0  0  0  0  0  0  0  0
   36.1530   24.4110   39.9000 C   0  0  0  0  0  0  0  0  0  0  0  0
   36.6290   23.3850   38.9210 C   0  0  0  0  0  0  0  0  0  0  0  0
   37.2570   22.1780   39.5860 C   0  0  0  0  0  0  0  0  0  0  0  0
   38.1920   22.5480   40.7160 C   0  0  0  0  0  0  0  0  0  0  0  0
   38.4390   24.0570   40.6700 C   0  0  2  0  0  0  0  0  0  0  0  0
   36.7260   24.1120   41.9190 H   0  0  0  0  0  0  0  0  0  0  0  0
   35.1530   24.1300   40.2940 H   0  0  0  0  0  0  0  0  0  0  0  0
   36.0220   25.3740   39.3520 H   0  0  0  0  0  0  0  0  0  0  0  0
   37.3740   23.8530   38.2400 H   0  0  0  0  0  0  0  0  0  0  0  0
   35.7630   23.0100   38.3400 H   0  0  0  0  0  0  0  0  0  0  0  0
   37.8620   21.6290   38.8260 H   0  0  0  0  0  0  0  0  0  0  0  0
   36.4770   21.5100   39.9950 H   0  0  0  0  0  0  0  0  0  0  0  0
   37.7240   22.3500   41.6910 H   0  0  0  0  0  0  0  0  0  0  0  0
   39.1640   22.0400   40.6620 H   0  0  0  0  0  0  0  0  0  0  0  0
   38.7710   24.3950   39.6900 H   0  0  0  0  0  0  0  0  0  0  0  0
   37.5580   28.7340   41.2930 C   0  0  0  0  0  0  0  0  0  0  0  0
   37.1590   28.1670   42.4980 C   0  0  0  0  0  0  0  0  0  0  0  0
   36.9720   26.8450   42.5370 C   0  0  0  0  0  0  0  0  0  0  0  0
   37.1720   26.0570   41.3980 C   0  0  0  0  0  0  0  0  0  0  0  0
   37.6650   27.2930   40.1780 S   0  0  0  0  0  0  0  0  0  0  0  0
   37.0080   28.7840   43.3740 H   0  0  0  0  0  0  0  0  0  0  0  0
   36.6660   26.2470   43.3770 H   0  0  0  0  0  0  0  0  0  0  0  0
   37.3470   32.3280   40.3370 C   0  0  0  0  0  0  0  0  0  0  0  0
   38.5940   32.7780   40.8080 C   0  0  0  0  0  0  0  0  0  0  0  0
   39.4450   31.8470   41.4250 C   0  0  0  0  0  0  0  0  0  0  0  0
   39.0050   30.5650   41.5250 N   0  0  0  0  0  0  0  0  0  0  0  0
   37.8070   30.1750   41.0640 C   0  0  0  0  0  0  0  0  0  0  0  0
   36.9680   31.0550   40.4650 N   0  0  0  0  0  0  0  0  0  0  0  0
   36.6480   32.9990   39.8530 H   0  0  0  0  0  0  0  0  0  0  0  0
   38.8760   33.8160   40.6930 H   0  0  0  0  0  0  0  0  0  0  0  0
   40.3980   32.1380   41.7970 H   0  0  0  0  0  0  0  0  0  0  0  0
   39.4000   24.3800   41.7710 C   0  0  0  0  0  0  0  0  0  0  0  0
   40.3750   25.1380   41.6430 O   0  0  0  0  0  0  0  0  0  0  0  0
   39.4030   23.9200   43.1160 N   0  0  0  0  0  0  0  0  0  0  0  0
   40.1050   23.3480   43.6290 H   0  0  0  0  0  0  0  0  0  0  0  0
   38.4880   24.3500   43.3770 H   0  0  0  0  0  0  0  0  0  0  0  0
  1 20  1  0  0  0  0
  1  7  1  1  0  0  0
  2  8  1  0  0  0  0
  2  1  1  0  0  0  0
  3  4  1  0  0  0  0
  3  2  1  0  0  0  0
  4 13  1  0  0  0  0
  4  5  1  0  0  0  0
  5 14  1  0  0  0  0
  6 16  1  6  0  0  0
  6  5  1  0  0  0  0
  6  1  1  0  0  0  0
  6 33  1  0  0  0  0
  9  2  1  0  0  0  0
 10  3  1  0  0  0  0
 11  3  1  0  0  0  0
 12  4  1  0  0  0  0
 15  5  1  0  0  0  0
 17 18  2  0  0  0  0
 18 19  1  0  0  0  0
 18 22  1  0  0  0  0
 19 23  1  0  0  0  0
 20 19  2  0  0  0  0
 21 17  1  0  0  0  0
 21 20  1  0  0  0  0
 24 29  2  0  0  0  0
 24 25  1  0  0  0  0
 25 26  2  0  0  0  0
 26 27  1  0  0  0  0
 26 32  1  0  0  0  0
 28 17  1  0  0  0  0
 28 27  2  0  0  0  0
 29 28  1  0  0  0  0
 30 24  1  0  0  0  0
 31 25  1  0  0  0  0
 33 35  1  0  0  0  0
 34 33  2  0  0  0  0
 35 37  1  0  0  0  0
 35 36  1  0  0  0  0
M  END
>  <minimizedAffinity>
-5.06982994

$$$$

 OpenBabel03252509193D

 37 39  0  0  1  0  0  0  0  0999 V2000
   36.1620   30.0300   38.1670 C   0  0  1  0  0  0  0  0  0  0  0  0
   35.7740   29.3480   36.8900 C   0  0  0  0  0  0  0  0  0  0  0  0
   34.7990   28.2230   37.0440 C   0  0  0  0  0  0  0  0  0  0  0  0
   33.6920   28.5290   38.0300 C   0  0  0  0  0  0  0  0  0  0  0  0
   34.1950   29.1910   39.2940 C   0  0  0  0  0  0  0  0  0  0  0  0
   35.7220   29.1040   39.3160 C   0  0  2  0  0  0  0  0  0  0  0  0
   35.5820   30.9440   38.2710 H   0  0  0  0  0  0  0  0  0  0  0  0
   35.3760   30.1050   36.1820 H   0  0  0  0  0  0  0  0  0  0  0  0
   36.7030   28.9370   36.4300 H   0  0  0  0  0  0  0  0  0  0  0  0
   35.3460   27.3160   37.3820 H   0  0  0  0  0  0  0  0  0  0  0  0
   34.3090   28.0330   36.0680 H   0  0  0  0  0  0  0  0  0  0  0  0
   33.2110   27.5680   38.3330 H   0  0  0  0  0  0  0  0  0  0  0  0
   32.9380   29.1960   37.5740 H   0  0  0  0  0  0  0  0  0  0  0  0
   33.9560   30.2650   39.2940 H   0  0  0  0  0  0  0  0  0  0  0  0
   33.8120   28.7270   40.2120 H   0  0  0  0  0  0  0  0  0  0  0  0
   36.0830   28.0870   39.1730 H   0  0  0  0  0  0  0  0  0  0  0  0
   39.8970   31.7120   38.3920 C   0  0  0  0  0  0  0  0  0  0  0  0
   39.9370   30.3260   38.2780 C   0  0  0  0  0  0  0  0  0  0  0  0
   38.7760   29.6710   38.1960 C   0  0  0  0  0  0  0  0  0  0  0  0
   37.5590   30.3590   38.2250 C   0  0  0  0  0  0  0  0  0  0  0  0
   38.1080   32.0720   38.3800 S   0  0  0  0  0  0  0  0  0  0  0  0
   40.8840   29.8020   38.2550 H   0  0  0  0  0  0  0  0  0  0  0  0
   38.6230   28.6090   38.1050 H   0  0  0  0  0  0  0  0  0  0  0  0
   42.7330   34.0410   37.7530 C   0  0  0  0  0  0  0  0  0  0  0  0
   43.2530   34.1530   39.0550 C   0  0  0  0  0  0  0  0  0  0  0  0
   42.6220   33.4370   40.0860 C   0  0  0  0  0  0  0  0  0  0  0  0
   41.5450   32.6780   39.7530 N   0  0  0  0  0  0  0  0  0  0  0  0
   41.0770   32.5980   38.4970 C   0  0  0  0  0  0  0  0  0  0  0  0
   41.6690   33.2800   37.4860 N   0  0  0  0  0  0  0  0  0  0  0  0
   43.1760   34.5690   36.9180 H   0  0  0  0  0  0  0  0  0  0  0  0
   44.1150   34.7780   39.2440 H   0  0  0  0  0  0  0  0  0  0  0  0
   42.9780   33.4880   41.0860 H   0  0  0  0  0  0  0  0  0  0  0  0
   36.1810   29.7280   40.5960 C   0  0  0  0  0  0  0  0  0  0  0  0
   37.0640   29.2490   41.3260 O   0  0  0  0  0  0  0  0  0  0  0  0
   35.7350   30.9280   41.2130 N   0  0  0  0  0  0  0  0  0  0  0  0
   35.2680   31.0800   42.1310 H   0  0  0  0  0  0  0  0  0  0  0  0
   36.0390   31.5630   40.4420 H   0  0  0  0  0  0  0  0  0  0  0  0
  1 20  1  0  0  0  0
  1  7  1  1  0  0  0
  1  6  1  0  0  0  0
  2  3  1  0  0  0  0
  2  1  1  0  0  0  0
  3 10  1  0  0  0  0
  3  4  1  0  0  0  0
  4 12  1  0  0  0  0
  4  5  1  0  0  0  0
  5  6  1  0  0  0  0
  5 15  1  0  0  0  0
  6 16  1  6  0  0  0
  6 33  1  0  0  0  0
  8  2  1  0  0  0  0
  9  2  1  0  0  0  0
 11  3  1  0  0  0  0
 13  4  1  0  0  0  0
 14  5  1  0  0  0  0
 17 28  1  0  0  0  0
 18 17  2  0  0  0  0
 19 20  2  0  0  0  0
 19 18  1  0  0  0  0
 20 21  1  0  0  0  0
 21 17  1  0  0  0  0
 22 18  1  0  0  0  0
 23 19  1  0  0  0  0
 24 25  1  0  0  0  0
 25 31  1  0  0  0  0
 25 26  2  0  0  0  0
 26 32  1  0  0  0  0
 27 26  1  0  0  0  0
 28 27  2  0  0  0  0
 29 24  2  0  0  0  0
 29 28  1  0  0  0  0
 30 24  1  0  0  0  0
 33 35  1  0  0  0  0
 33 34  2  0  0  0  0
 35 36  1  0  0  0  0
 37 35  1  0  0  0  0
M  END
>  <minimizedAffinity>
-5.03439331

$$$$

 OpenBabel03252509193D

 37 39  0  0  1  0  0  0  0  0999 V2000
   37.5480   26.8800   42.3200 C   0  0  1  0  0  0  0  0  0  0  0  0
   37.4800   25.3890   42.1810 C   0  0  0  0  0  0  0  0  0  0  0  0
   38.7850   24.6770   42.3530 C   0  0  0  0  0  0  0  0  0  0  0  0
   39.6170   25.2300   43.4900 C   0  0  0  0  0  0  0  0  0  0  0  0
   39.6400   26.7420   43.5230 C   0  0  0  0  0  0  0  0  0  0  0  0
   39.0350   27.2670   42.2200 C   0  0  2  0  0  0  0  0  0  0  0  0
   37.2260   27.1580   43.3210 H   0  0  0  0  0  0  0  0  0  0  0  0
   36.7310   24.9920   42.8980 H   0  0  0  0  0  0  0  0  0  0  0  0
   37.0960   25.1620   41.1590 H   0  0  0  0  0  0  0  0  0  0  0  0
   39.3650   24.7550   41.4070 H   0  0  0  0  0  0  0  0  0  0  0  0
   38.5880   23.6130   42.5930 H   0  0  0  0  0  0  0  0  0  0  0  0
   40.6710   24.8890   43.3570 H   0  0  0  0  0  0  0  0  0  0  0  0
   39.2300   24.8740   44.4630 H   0  0  0  0  0  0  0  0  0  0  0  0
   38.9960   27.1250   44.3280 H   0  0  0  0  0  0  0  0  0  0  0  0
   40.6490   27.1610   43.6250 H   0  0  0  0  0  0  0  0  0  0  0  0
   39.5050   26.8350   41.3380 H   0  0  0  0  0  0  0  0  0  0  0  0
   35.5060   28.3350   39.0730 C   0  0  0  0  0  0  0  0  0  0  0  0
   35.2280   29.0360   40.2410 C   0  0  0  0  0  0  0  0  0  0  0  0
   35.8390   28.6490   41.3640 C   0  0  0  0  0  0  0  0  0  0  0  0
   36.7310   27.5710   41.3620 C   0  0  0  0  0  0  0  0  0  0  0  0
   36.6970   27.0690   39.6280 S   0  0  0  0  0  0  0  0  0  0  0  0
   34.5380   29.8700   40.2330 H   0  0  0  0  0  0  0  0  0  0  0  0
   35.7420   29.0740   42.3480 H   0  0  0  0  0  0  0  0  0  0  0  0
   34.9050   28.9440   35.4480 C   0  0  0  0  0  0  0  0  0  0  0  0
   33.5160   29.1680   35.4660 C   0  0  0  0  0  0  0  0  0  0  0  0
   32.8500   29.1020   36.7010 C   0  0  0  0  0  0  0  0  0  0  0  0
   33.5970   28.8270   37.8020 N   0  0  0  0  0  0  0  0  0  0  0  0
   34.9210   28.6190   37.7430 C   0  0  0  0  0  0  0  0  0  0  0  0
   35.5860   28.6760   36.5630 N   0  0  0  0  0  0  0  0  0  0  0  0
   35.4730   28.9820   34.5260 H   0  0  0  0  0  0  0  0  0  0  0  0
   32.9880   29.3820   34.5470 H   0  0  0  0  0  0  0  0  0  0  0  0
   31.8020   29.2640   36.7670 H   0  0  0  0  0  0  0  0  0  0  0  0
   39.1130   28.7610   42.2680 C   0  0  0  0  0  0  0  0  0  0  0  0
   38.7710   29.4450   43.2460 O   0  0  0  0  0  0  0  0  0  0  0  0
   39.5690   29.6620   41.2670 N   0  0  0  0  0  0  0  0  0  0  0  0
   39.0600   30.4110   40.7550 H   0  0  0  0  0  0  0  0  0  0  0  0
   40.5510   29.3080   41.2450 H   0  0  0  0  0  0  0  0  0  0  0  0
  1  7  1  1  0  0  0
  2  1  1  0  0  0  0
  2  3  1  0  0  0  0
  2  8  1  0  0  0  0
  3 11  1  0  0  0  0
  3  4  1  0  0  0  0
  4  5  1  0  0  0  0
  4 13  1  0  0  0  0
  5 15  1  0  0  0  0
  5 14  1  0  0  0  0
  6 16  1  6  0  0  0
  6 33  1  0  0  0  0
  6  1  1  0  0  0  0
  6  5  1  0  0  0  0
  9  2  1  0  0  0  0
 10  3  1  0  0  0  0
 12  4  1  0  0  0  0
 17 21  1  0  0  0  0
 17 18  2  0  0  0  0
 18 19  1  0  0  0  0
 19 23  1  0  0  0  0
 20 19  2  0  0  0  0
 20  1  1  0  0  0  0
 21 20  1  0  0  0  0
 22 18  1  0  0  0  0
 24 25  2  0  0  0  0
 24 29  1  0  0  0  0
 25 26  1  0  0  0  0
 26 32  1  0  0  0  0
 26 27  2  0  0  0  0
 28 27  1  0  0  0  0
 28 17  1  0  0  0  0
 29 28  2  0  0  0  0
 30 24  1  0  0  0  0
 31 25  1  0  0  0  0
 33 34  2  0  0  0  0
 35 33  1  0  0  0  0
 36 35  1  0  0  0  0
 37 35  1  0  0  0  0
M  END
>  <minimizedAffinity>
-4.99649811

$$$$

 OpenBabel03252509193D

 37 39  0  0  1  0  0  0  0  0999 V2000
   38.1330   26.3130   42.2880 C   0  0  1  0  0  0  0  0  0  0  0  0
   36.9360   25.9480   41.4630 C   0  0  0  0  0  0  0  0  0  0  0  0
   37.0990   24.7200   40.6230 C   0  0  0  0  0  0  0  0  0  0  0  0
   37.8110   23.5970   41.3460 C   0  0  0  0  0  0  0  0  0  0  0  0
   39.0180   24.0710   42.1260 C   0  0  0  0  0  0  0  0  0  0  0  0
   39.3220   25.5140   41.7250 C   0  0  2  0  0  0  0  0  0  0  0  0
   37.9820   25.9610   43.3070 H   0  0  0  0  0  0  0  0  0  0  0  0
   36.0550   25.8410   42.1300 H   0  0  0  0  0  0  0  0  0  0  0  0
   36.7220   26.8040   40.7820 H   0  0  0  0  0  0  0  0  0  0  0  0
   37.6720   24.9830   39.7070 H   0  0  0  0  0  0  0  0  0  0  0  0
   36.0970   24.3340   40.3490 H   0  0  0  0  0  0  0  0  0  0  0  0
   38.1780   22.8640   40.5890 H   0  0  0  0  0  0  0  0  0  0  0  0
   37.1260   23.0930   42.0520 H   0  0  0  0  0  0  0  0  0  0  0  0
   38.8000   24.0980   43.2040 H   0  0  0  0  0  0  0  0  0  0  0  0
   39.9180   23.4680   41.9460 H   0  0  0  0  0  0  0  0  0  0  0  0
   39.4140   25.6370   40.6470 H   0  0  0  0  0  0  0  0  0  0  0  0
   38.7680   30.3080   41.6000 C   0  0  0  0  0  0  0  0  0  0  0  0
   38.8230   29.9790   42.9500 C   0  0  0  0  0  0  0  0  0  0  0  0
   38.6310   28.7020   43.2930 C   0  0  0  0  0  0  0  0  0  0  0  0
   38.3810   27.7280   42.3200 C   0  0  0  0  0  0  0  0  0  0  0  0
   38.4250   28.7030   40.8020 S   0  0  0  0  0  0  0  0  0  0  0  0
   39.0180   30.7400   43.6950 H   0  0  0  0  0  0  0  0  0  0  0  0
   38.6390   28.2760   44.2810 H   0  0  0  0  0  0  0  0  0  0  0  0
   40.1050   33.5850   40.4400 C   0  0  0  0  0  0  0  0  0  0  0  0
   38.9270   34.1600   39.9280 C   0  0  0  0  0  0  0  0  0  0  0  0
   37.7390   33.4140   40.0000 C   0  0  0  0  0  0  0  0  0  0  0  0
   37.8080   32.1800   40.5640 N   0  0  0  0  0  0  0  0  0  0  0  0
   38.9520   31.6650   41.0400 C   0  0  0  0  0  0  0  0  0  0  0  0
   40.1110   32.3660   40.9810 N   0  0  0  0  0  0  0  0  0  0  0  0
   41.0510   34.1110   40.4120 H   0  0  0  0  0  0  0  0  0  0  0  0
   38.9510   35.1500   39.4940 H   0  0  0  0  0  0  0  0  0  0  0  0
   36.8240   33.8060   39.6280 H   0  0  0  0  0  0  0  0  0  0  0  0
   40.5440   25.9350   42.4810 C   0  0  0  0  0  0  0  0  0  0  0  0
   40.7440   25.6770   43.6790 O   0  0  0  0  0  0  0  0  0  0  0  0
   41.6680   26.6720   42.0190 N   0  0  0  0  0  0  0  0  0  0  0  0
   42.0290   27.6020   42.3140 H   0  0  0  0  0  0  0  0  0  0  0  0
   41.9760   25.9650   41.3160 H   0  0  0  0  0  0  0  0  0  0  0  0
  1 20  1  0  0  0  0
  1  7  1  1  0  0  0
  2  8  1  0  0  0  0
  2  1  1  0  0  0  0
  3  4  1  0  0  0  0
  3  2  1  0  0  0  0
  4 13  1  0  0  0  0
  4  5  1  0  0  0  0
  5 14  1  0  0  0  0
  6 16  1  6  0  0  0
  6  5  1  0  0  0  0
  6  1  1  0  0  0  0
  6 33  1  0  0  0  0
  9  2  1  0  0  0  0
 10  3  1  0  0  0  0
 11  3  1  0  0  0  0
 12  4  1  0  0  0  0
 15  5  1  0  0  0  0
 17 18  2  0  0  0  0
 18 19  1  0  0  0  0
 18 22  1  0  0  0  0
 19 23  1  0  0  0  0
 20 19  2  0  0  0  0
 21 17  1  0  0  0  0
 21 20  1  0  0  0  0
 24 29  1  0  0  0  0
 25 26  1  0  0  0  0
 25 24  2  0  0  0  0
 26 27  2  0  0  0  0
 27 28  1  0  0  0  0
 28 17  1  0  0  0  0
 29 28  2  0  0  0  0
 30 24  1  0  0  0  0
 31 25  1  0  0  0  0
 32 26  1  0  0  0  0
 33 34  2  0  0  0  0
 35 36  1  0  0  0  0
 35 33  1  0  0  0  0
 37 35  1  0  0  0  0
M  END
>  <minimizedAffinity>
-4.9649148

$$$$

 OpenBabel03252509193D

 37 39  0  0  1  0  0  0  0  0999 V2000
   38.6910   30.5420   41.5990 C   0  0  1  0  0  0  0  0  0  0  0  0
   40.1560   30.8560   41.5830 C   0  0  0  0  0  0  0  0  0  0  0  0
   40.5590   31.9490   40.6440 C   0  0  0  0  0  0  0  0  0  0  0  0
   39.6000   33.1200   40.6520 C   0  0  0  0  0  0  0  0  0  0  0  0
   38.1480   32.6940   40.6410 C   0  0  0  0  0  0  0  0  0  0  0  0
   38.0830   31.1950   40.3440 C   0  0  2  0  0  0  0  0  0  0  0  0
   38.2320   31.0360   42.4530 H   0  0  0  0  0  0  0  0  0  0  0  0
   40.4860   31.0970   42.6150 H   0  0  0  0  0  0  0  0  0  0  0  0
   40.6970   29.9280   41.2820 H   0  0  0  0  0  0  0  0  0  0  0  0
   40.6190   31.5360   39.6130 H   0  0  0  0  0  0  0  0  0  0  0  0
   41.5460   32.3470   40.9540 H   0  0  0  0  0  0  0  0  0  0  0  0
   39.7700   33.7250   39.7290 H   0  0  0  0  0  0  0  0  0  0  0  0
   39.7620   33.7500   41.5460 H   0  0  0  0  0  0  0  0  0  0  0  0
   37.6960   32.8230   41.6350 H   0  0  0  0  0  0  0  0  0  0  0  0
   37.5450   33.2180   39.8890 H   0  0  0  0  0  0  0  0  0  0  0  0
   38.6330   30.9240   39.4440 H   0  0  0  0  0  0  0  0  0  0  0  0
   38.3000   26.4840   41.1400 C   0  0  0  0  0  0  0  0  0  0  0  0
   37.7100   26.9530   42.3090 C   0  0  0  0  0  0  0  0  0  0  0  0
   37.7760   28.2630   42.5630 C   0  0  0  0  0  0  0  0  0  0  0  0
   38.4190   29.1340   41.6770 C   0  0  0  0  0  0  0  0  0  0  0  0
   38.9730   28.0030   40.3840 S   0  0  0  0  0  0  0  0  0  0  0  0
   37.2130   26.2710   42.9870 H   0  0  0  0  0  0  0  0  0  0  0  0
   37.3780   28.7910   43.4110 H   0  0  0  0  0  0  0  0  0  0  0  0
   37.7200   22.8340   40.6760 C   0  0  0  0  0  0  0  0  0  0  0  0
   38.6440   22.5700   39.6490 C   0  0  0  0  0  0  0  0  0  0  0  0
   39.4180   23.6370   39.1630 C   0  0  0  0  0  0  0  0  0  0  0  0
   39.2220   24.8590   39.7220 N   0  0  0  0  0  0  0  0  0  0  0  0
   38.3290   25.0710   40.7010 C   0  0  0  0  0  0  0  0  0  0  0  0
   37.5700   24.0580   41.1860 N   0  0  0  0  0  0  0  0  0  0  0  0
   37.0950   22.0530   41.0910 H   0  0  0  0  0  0  0  0  0  0  0  0
   38.7440   21.5690   39.2530 H   0  0  0  0  0  0  0  0  0  0  0  0
   40.1310   23.4880   38.3890 H   0  0  0  0  0  0  0  0  0  0  0  0
   36.6360   30.8170   40.2970 C   0  0  0  0  0  0  0  0  0  0  0  0
   36.0950   30.2540   39.3320 O   0  0  0  0  0  0  0  0  0  0  0  0
   35.6320   31.0070   41.2860 N   0  0  0  0  0  0  0  0  0  0  0  0
   34.7580   31.5700   41.2560 H   0  0  0  0  0  0  0  0  0  0  0  0
   36.0800   30.4010   42.0090 H   0  0  0  0  0  0  0  0  0  0  0  0
  1 20  1  0  0  0  0
  1  7  1  1  0  0  0
  2  1  1  0  0  0  0
  2  8  1  0  0  0  0
  3  4  1  0  0  0  0
  3 11  1  0  0  0  0
  3  2  1  0  0  0  0
  4 13  1  0  0  0  0
  5  4  1  0  0  0  0
  5 14  1  0  0  0  0
  6 16  1  6  0  0  0
  6  5  1  0  0  0  0
  6  1  1  0  0  0  0
  9  2  1  0  0  0  0
 10  3  1  0  0  0  0
 12  4  1  0  0  0  0
 15  5  1  0  0  0  0
 17 18  2  0  0  0  0
 18 19  1  0  0  0  0
 18 22  1  0  0  0  0
 19 23  1  0  0  0  0
 20 19  2  0  0  0  0
 21 17  1  0  0  0  0
 21 20  1  0  0  0  0
 24 30  1  0  0  0  0
 24 29  1  0  0  0  0
 25 24  2  0  0  0  0
 26 25  1  0  0  0  0
 26 27  2  0  0  0  0
 27 28  1  0  0  0  0
 28 17  1  0  0  0  0
 28 29  2  0  0  0  0
 31 25  1  0  0  0  0
 32 26  1  0  0  0  0
 33  6  1  0  0  0  0
 33 35  1  0  0  0  0
 34 33  2  0  0  0  0
 35 37  1  0  0  0  0
 36 35  1  0  0  0  0
M  END
>  <minimizedAffinity>
-4.93027735

$$$$
