
 OpenBabel03252509193D

 37 39  0  0  1  0  0  0  0  0999 V2000
   47.6680   29.3170   47.7730 C   0  0  1  0  0  0  0  0  0  0  0  0
   47.6170   28.3260   46.6500 C   0  0  0  0  0  0  0  0  0  0  0  0
   48.8920   27.5850   46.4010 C   0  0  0  0  0  0  0  0  0  0  0  0
   49.5850   27.1520   47.6750 C   0  0  0  0  0  0  0  0  0  0  0  0
   49.6040   28.2330   48.7330 C   0  0  0  0  0  0  0  0  0  0  0  0
   49.1560   29.5480   48.0940 C   0  0  2  0  0  0  0  0  0  0  0  0
   47.2300   28.8680   48.6620 H   0  0  0  0  0  0  0  0  0  0  0  0
   46.7880   27.6100   46.8360 H   0  0  0  0  0  0  0  0  0  0  0  0
   47.3560   28.8840   45.7200 H   0  0  0  0  0  0  0  0  0  0  0  0
   49.5800   28.2370   45.8180 H   0  0  0  0  0  0  0  0  0  0  0  0
   48.6690   26.6600   45.8320 H   0  0  0  0  0  0  0  0  0  0  0  0
   50.6470   26.9080   47.4370 H   0  0  0  0  0  0  0  0  0  0  0  0
   49.0860   26.2640   48.1060 H   0  0  0  0  0  0  0  0  0  0  0  0
   48.8700   28.0190   49.5240 H   0  0  0  0  0  0  0  0  0  0  0  0
   50.5940   28.3890   49.1800 H   0  0  0  0  0  0  0  0  0  0  0  0
   49.7260   29.7920   47.1990 H   0  0  0  0  0  0  0  0  0  0  0  0
   46.0370   32.7550   46.2400 C   0  0  0  0  0  0  0  0  0  0  0  0
   45.5980   32.4800   47.5310 C   0  0  0  0  0  0  0  0  0  0  0  0
   46.0650   31.3820   48.1310 C   0  0  0  0  0  0  0  0  0  0  0  0
   46.9690   30.5360   47.4790 C   0  0  0  0  0  0  0  0  0  0  0  0
   47.1690   31.3670   45.8890 S   0  0  0  0  0  0  0  0  0  0  0  0
   44.8990   33.1410   48.0280 H   0  0  0  0  0  0  0  0  0  0  0  0
   45.8330   31.0210   49.1180 H   0  0  0  0  0  0  0  0  0  0  0  0
   44.4960   35.8820   44.9290 C   0  0  0  0  0  0  0  0  0  0  0  0
   45.0870   35.9280   43.6530 C   0  0  0  0  0  0  0  0  0  0  0  0
   45.9770   34.9010   43.2980 C   0  0  0  0  0  0  0  0  0  0  0  0
   46.2070   33.9250   44.2150 N   0  0  0  0  0  0  0  0  0  0  0  0
   45.6240   33.9180   45.4240 C   0  0  0  0  0  0  0  0  0  0  0  0
   44.7620   34.8980   45.7900 N   0  0  0  0  0  0  0  0  0  0  0  0
   43.8030   36.6460   45.2610 H   0  0  0  0  0  0  0  0  0  0  0  0
   44.8550   36.7380   42.9760 H   0  0  0  0  0  0  0  0  0  0  0  0
   46.4480   34.8900   42.3450 H   0  0  0  0  0  0  0  0  0  0  0  0
   49.2280   30.6020   49.1540 C   0  0  0  0  0  0  0  0  0  0  0  0
   49.1180   30.3750   50.3700 O   0  0  0  0  0  0  0  0  0  0  0  0
   49.4270   32.0020   49.0080 N   0  0  0  0  0  0  0  0  0  0  0  0
   48.7460   32.7860   49.0540 H   0  0  0  0  0  0  0  0  0  0  0  0
   50.4570   31.9460   48.8470 H   0  0  0  0  0  0  0  0  0  0  0  0
  1  6  1  0  0  0  0
  1  7  1  1  0  0  0
  2  8  1  0  0  0  0
  2  1  1  0  0  0  0
  3  2  1  0  0  0  0
  3  4  1  0  0  0  0
  4 13  1  0  0  0  0
  4  5  1  0  0  0  0
  5 15  1  0  0  0  0
  5 14  1  0  0  0  0
  6 16  1  6  0  0  0
  6  5  1  0  0  0  0
  6 33  1  0  0  0  0
  9  2  1  0  0  0  0
 10  3  1  0  0  0  0
 11  3  1  0  0  0  0
 12  4  1  0  0  0  0
 17 18  2  0  0  0  0
 18 22  1  0  0  0  0
 18 19  1  0  0  0  0
 19 23  1  0  0  0  0
 20  1  1  0  0  0  0
 20 19  2  0  0  0  0
 21 17  1  0  0  0  0
 21 20  1  0  0  0  0
 24 30  1  0  0  0  0
 24 29  1  0  0  0  0
 25 24  2  0  0  0  0
 26 25  1  0  0  0  0
 26 27  2  0  0  0  0
 27 28  1  0  0  0  0
 28 29  2  0  0  0  0
 28 17  1  0  0  0  0
 31 25  1  0  0  0  0
 32 26  1  0  0  0  0
 33 34  2  0  0  0  0
 35 36  1  0  0  0  0
 35 33  1  0  0  0  0
 37 35  1  0  0  0  0
M  END
>  <minimizedAffinity>
-4.72992134

>  <minimizedRMSD>
0.756917119

$$$$
