
 OpenBabel03242513513D

 28 29  0  0  1  0  0  0  0  0999 V2000
   46.5230   35.0350   41.8310 C   0  0  2  0  0  0  0  0  0  0  0  0
   46.4650   33.6590   41.1850 C   0  0  0  0  0  0  0  0  0  0  0  0
   47.3040   33.9570   39.9540 C   0  0  0  0  0  0  0  0  0  0  0  0
   48.3720   34.8460   40.4330 C   0  0  0  0  0  0  0  0  0  0  0  0
   47.9910   35.2740   41.9340 C   0  0  2  0  0  0  0  0  0  0  0  0
   46.1030   35.7640   41.1240 H   0  0  0  0  0  0  0  0  0  0  0  0
   45.4530   33.3170   40.9670 H   0  0  0  0  0  0  0  0  0  0  0  0
   47.0660   32.9300   41.7800 H   0  0  0  0  0  0  0  0  0  0  0  0
   46.6140   34.5540   39.2880 H   0  0  0  0  0  0  0  0  0  0  0  0
   47.6430   33.0340   39.4510 H   0  0  0  0  0  0  0  0  0  0  0  0
   48.4960   35.7720   39.8280 H   0  0  0  0  0  0  0  0  0  0  0  0
   49.3780   34.4100   40.5560 H   0  0  0  0  0  0  0  0  0  0  0  0
   48.5020   36.1890   41.8790 H   0  0  0  0  0  0  0  0  0  0  0  0
   44.4950   36.0520   44.8390 C   0  0  0  0  0  0  0  0  0  0  0  0
   45.0640   36.1330   43.5520 C   0  0  0  0  0  0  0  0  0  0  0  0
   45.8590   35.0960   43.1530 C   0  0  0  0  0  0  0  0  0  0  0  0
   46.0500   34.0440   44.0350 N   0  0  0  0  0  0  0  0  0  0  0  0
   45.4980   33.9930   45.2490 C   0  0  0  0  0  0  0  0  0  0  0  0
   44.7270   34.9880   45.6510 N   0  0  0  0  0  0  0  0  0  0  0  0
   43.8650   36.8940   45.1290 H   0  0  0  0  0  0  0  0  0  0  0  0
   44.8930   36.9650   42.8980 H   0  0  0  0  0  0  0  0  0  0  0  0
   45.7150   33.1230   45.8550 H   0  0  0  0  0  0  0  0  0  0  0  0
   48.6300   34.3350   42.7610 O   0  0  0  0  0  0  0  0  0  0  0  0
   49.8760   33.8150   42.5650 C   0  0  0  0  0  0  0  0  0  0  0  0
   49.7440   32.5400   42.5530 O   0  0  0  0  0  0  0  0  0  0  0  0
   51.2770   33.7450   42.3590 N   0  0  0  0  0  0  0  0  0  0  0  0
   51.6620   33.2830   41.5090 H   0  0  0  0  0  0  0  0  0  0  0  0
   51.9400   34.1640   43.0780 H   0  0  0  0  0  0  0  0  0  0  0  0
  1  6  1  6  0  0  0
  1  5  1  0  0  0  0
  1 16  1  0  0  0  0
  2  8  1  0  0  0  0
  2  1  1  0  0  0  0
  3  4  1  0  0  0  0
  3  2  1  0  0  0  0
  4 12  1  0  0  0  0
  4  5  1  0  0  0  0
  5 13  1  1  0  0  0
  5 23  1  0  0  0  0
  7  2  1  0  0  0  0
  9  3  1  0  0  0  0
 10  3  1  0  0  0  0
 11  4  1  0  0  0  0
 14 20  1  0  0  0  0
 14 19  1  0  0  0  0
 15 14  2  0  0  0  0
 16 15  1  0  0  0  0
 16 17  2  0  0  0  0
 17 18  1  0  0  0  0
 18 19  2  0  0  0  0
 18 22  1  0  0  0  0
 21 15  1  0  0  0  0
 24 23  1  0  0  0  0
 25 24  2  0  0  0  0
 26 24  1  0  0  0  0
 26 28  1  0  0  0  0
 27 26  1  0  0  0  0
M  END
>  <minimizedAffinity>
-5.18171644

>  <minimizedRMSD>
0.642517328

$$$$
