
 OpenBabel03252502283D

 29 30  0  0  0  0  0  0  0  0999 V2000
   45.1270   34.4130   41.1880 C   0  0  0  0  0  0  0  0  0  0  0  0
   45.5410   34.9930   42.3820 C   0  0  0  0  0  0  0  0  0  0  0  0
   46.9170   35.2110   42.5590 C   0  0  0  0  0  0  0  0  0  0  0  0
   47.8020   34.8560   41.5780 C   0  0  0  0  0  0  0  0  0  0  0  0
   47.4020   34.2850   40.4050 C   0  0  0  0  0  0  0  0  0  0  0  0
   46.0350   34.0740   40.2390 C   0  0  0  0  0  0  0  0  0  0  0  0
   44.8430   35.2740   43.1560 H   0  0  0  0  0  0  0  0  0  0  0  0
   47.2200   35.6640   43.4940 H   0  0  0  0  0  0  0  0  0  0  0  0
   48.8650   35.0170   41.6990 H   0  0  0  0  0  0  0  0  0  0  0  0
   48.1020   33.9990   39.6180 H   0  0  0  0  0  0  0  0  0  0  0  0
   41.4340   34.8390   40.5710 C   0  0  0  0  0  0  0  0  0  0  0  0
   42.8040   35.1740   40.6590 C   0  0  0  0  0  0  0  0  0  0  0  0
   43.6990   34.2100   41.0540 C   0  0  0  0  0  0  0  0  0  0  0  0
   43.1930   32.9770   41.3380 N   0  0  0  0  0  0  0  0  0  0  0  0
   41.8860   32.6600   41.2520 C   0  0  0  0  0  0  0  0  0  0  0  0
   40.9890   33.6060   40.8630 N   0  0  0  0  0  0  0  0  0  0  0  0
   43.1710   36.1560   40.4290 H   0  0  0  0  0  0  0  0  0  0  0  0
   41.5750   31.6480   41.4990 H   0  0  0  0  0  0  0  0  0  0  0  0
   40.4550   35.8770   40.1430 C   0  0  0  0  0  0  0  0  0  0  0  0
   39.2230   35.2190   39.9580 F   0  0  0  0  0  0  0  0  0  0  0  0
   40.8460   36.3010   38.8770 F   0  0  0  0  0  0  0  0  0  0  0  0
   40.3160   36.8900   41.0490 F   0  0  0  0  0  0  0  0  0  0  0  0
   45.4470   32.1770   38.5250 C   0  0  0  0  0  0  0  0  0  0  0  0
   45.9590   31.1800   39.0170 O   0  0  0  0  0  0  0  0  0  0  0  0
   45.5010   33.4910   39.0690 N   0  0  0  0  0  0  0  0  0  0  0  0
   45.0590   34.3010   38.5320 H   0  0  0  0  0  0  0  0  0  0  0  0
   44.7300   32.0190   37.3000 N   0  0  0  0  0  0  0  0  0  0  0  0
   44.0040   31.7650   36.5960 H   0  0  0  0  0  0  0  0  0  0  0  0
   45.0290   32.3380   36.3320 H   0  0  0  0  0  0  0  0  0  0  0  0
  1  2  1  0  0  0  0
  2  3  2  0  0  0  0
  2  7  1  0  0  0  0
  3  8  1  0  0  0  0
  4  9  1  0  0  0  0
  4  3  1  0  0  0  0
  5  4  2  0  0  0  0
  6  5  1  0  0  0  0
  6  1  2  0  0  0  0
 10  5  1  0  0  0  0
 11 12  2  0  0  0  0
 11 16  1  0  0  0  0
 12 13  1  0  0  0  0
 13  1  1  0  0  0  0
 13 14  2  0  0  0  0
 15 14  1  0  0  0  0
 15 18  1  0  0  0  0
 16 15  2  0  0  0  0
 17 12  1  0  0  0  0
 19 11  1  0  0  0  0
 19 22  1  0  0  0  0
 20 19  1  0  0  0  0
 21 19  1  0  0  0  0
 23 24  2  0  0  0  0
 23 25  1  0  0  0  0
 25  6  1  0  0  0  0
 26 25  1  0  0  0  0
 27 23  1  0  0  0  0
 28 27  1  0  0  0  0
 29 27  1  0  0  0  0
M  END
>  <minimizedAffinity>
-5.5980854

>  <minimizedRMSD>
0.0322234444

$$$$
