
 OpenBabel03242515013D

 31 32  0  0  0  0  0  0  0  0999 V2000
   41.8710   35.2550   41.5150 C   0  0  0  0  0  0  0  0  0  0  0  0
   41.3860   34.2440   41.6340 H   0  0  0  0  0  0  0  0  0  0  0  0
   41.8970   35.6760   42.5490 H   0  0  0  0  0  0  0  0  0  0  0  0
   40.9410   36.1050   40.7220 C   0  0  0  0  0  0  0  0  0  0  0  0
   41.5790   36.8000   40.1150 H   0  0  0  0  0  0  0  0  0  0  0  0
   40.3120   36.7670   41.3520 H   0  0  0  0  0  0  0  0  0  0  0  0
   41.7540   36.2840   37.7990 Cl  0  0  0  0  0  0  0  0  0  0  0  0
   40.4480   35.3020   38.3890 C   0  0  0  0  0  0  0  0  0  0  0  0
   40.1610   35.2960   39.7560 C   0  0  0  0  0  0  0  0  0  0  0  0
   39.1150   34.4950   40.1430 C   0  0  0  0  0  0  0  0  0  0  0  0
   38.3240   33.7000   39.3230 C   0  0  0  0  0  0  0  0  0  0  0  0
   38.6340   33.7310   37.9840 C   0  0  0  0  0  0  0  0  0  0  0  0
   37.6940   32.7600   36.8520 Cl  0  0  0  0  0  0  0  0  0  0  0  0
   39.6730   34.5150   37.5330 C   0  0  0  0  0  0  0  0  0  0  0  0
   38.8680   34.4710   41.2120 H   0  0  0  0  0  0  0  0  0  0  0  0
   37.5220   33.1070   39.7400 H   0  0  0  0  0  0  0  0  0  0  0  0
   39.8890   34.5130   36.4640 H   0  0  0  0  0  0  0  0  0  0  0  0
   43.5020   35.0720   40.7790 S   0  0  0  0  0  0  0  0  0  0  0  0
   44.7710   34.7390   41.9910 C   0  0  0  0  0  0  0  0  0  0  0  0
   46.0630   34.5130   41.4950 C   0  0  0  0  0  0  0  0  0  0  0  0
   47.0940   34.2480   42.4010 C   0  0  0  0  0  0  0  0  0  0  0  0
   46.7800   34.2250   43.7190 N   0  0  0  0  0  0  0  0  0  0  0  0
   45.5280   34.4450   44.1840 C   0  0  0  0  0  0  0  0  0  0  0  0
   44.5570   34.6950   43.3130 N   0  0  0  0  0  0  0  0  0  0  0  0
   46.3290   34.5290   40.4460 H   0  0  0  0  0  0  0  0  0  0  0  0
   48.1140   34.0640   42.0890 H   0  0  0  0  0  0  0  0  0  0  0  0
   45.3330   34.3900   45.6160 C   0  0  0  0  0  0  0  0  0  0  0  0
   44.4690   35.1510   46.1120 O   0  0  0  0  0  0  0  0  0  0  0  0
   46.1440   33.4660   46.3650 N   0  0  0  0  0  0  0  0  0  0  0  0
   46.3250   32.4580   46.5660 H   0  0  0  0  0  0  0  0  0  0  0  0
   46.7630   34.1450   46.8790 H   0  0  0  0  0  0  0  0  0  0  0  0
  1  2  1  0  0  0  0
  1  3  1  0  0  0  0
  4  6  1  0  0  0  0
  4  1  1  0  0  0  0
  5  4  1  0  0  0  0
  7  8  1  0  0  0  0
  8  9  1  0  0  0  0
  9 10  2  0  0  0  0
  9  4  1  0  0  0  0
 10 15  1  0  0  0  0
 11 16  1  0  0  0  0
 11 10  1  0  0  0  0
 12 11  2  0  0  0  0
 13 12  1  0  0  0  0
 14 12  1  0  0  0  0
 14  8  2  0  0  0  0
 17 14  1  0  0  0  0
 18  1  1  0  0  0  0
 18 19  1  0  0  0  0
 19 24  1  0  0  0  0
 20 19  2  0  0  0  0
 20 21  1  0  0  0  0
 21 22  2  0  0  0  0
 22 23  1  0  0  0  0
 23 27  1  0  0  0  0
 24 23  2  0  0  0  0
 25 20  1  0  0  0  0
 26 21  1  0  0  0  0
 27 28  2  0  0  0  0
 27 29  1  0  0  0  0
 29 30  1  0  0  0  0
 29 31  1  0  0  0  0
M  END
>  <minimizedAffinity>
-6.19342899

>  <minimizedRMSD>
0.0771992281

$$$$
