
 OpenBabel03242515023D

 31 32  0  0  0  0  0  0  0  0999 V2000
   37.3600   30.4390   40.2180 C   0  0  0  0  0  0  0  0  0  0  0  0
   36.9340   31.4660   40.0330 H   0  0  0  0  0  0  0  0  0  0  0  0
   37.1810   29.8870   39.2640 H   0  0  0  0  0  0  0  0  0  0  0  0
   36.5210   29.7890   41.2610 C   0  0  0  0  0  0  0  0  0  0  0  0
   35.4520   29.9650   40.9710 H   0  0  0  0  0  0  0  0  0  0  0  0
   36.6290   30.2560   42.2620 H   0  0  0  0  0  0  0  0  0  0  0  0
   37.3210   28.5270   43.9080 Cl  0  0  0  0  0  0  0  0  0  0  0  0
   37.0870   27.6350   42.4350 C   0  0  0  0  0  0  0  0  0  0  0  0
   36.7180   28.3200   41.2730 C   0  0  0  0  0  0  0  0  0  0  0  0
   36.5520   27.5450   40.1520 C   0  0  0  0  0  0  0  0  0  0  0  0
   36.7110   26.1690   40.0570 C   0  0  0  0  0  0  0  0  0  0  0  0
   37.0730   25.5280   41.2180 C   0  0  0  0  0  0  0  0  0  0  0  0
   37.3030   23.7800   41.2120 Cl  0  0  0  0  0  0  0  0  0  0  0  0
   37.2560   26.2500   42.3770 C   0  0  0  0  0  0  0  0  0  0  0  0
   36.2620   28.0570   39.2250 H   0  0  0  0  0  0  0  0  0  0  0  0
   36.5520   25.6600   39.1160 H   0  0  0  0  0  0  0  0  0  0  0  0
   37.5430   25.7060   43.2780 H   0  0  0  0  0  0  0  0  0  0  0  0
   39.1010   30.5630   40.6530 S   0  0  0  0  0  0  0  0  0  0  0  0
   39.8790   32.0210   39.9730 C   0  0  0  0  0  0  0  0  0  0  0  0
   39.5690   33.2400   40.5950 C   0  0  0  0  0  0  0  0  0  0  0  0
   40.1510   34.4110   40.1030 C   0  0  0  0  0  0  0  0  0  0  0  0
   40.9880   34.3000   39.0420 N   0  0  0  0  0  0  0  0  0  0  0  0
   41.2770   33.1160   38.4520 C   0  0  0  0  0  0  0  0  0  0  0  0
   40.7180   32.0100   38.9290 N   0  0  0  0  0  0  0  0  0  0  0  0
   38.9030   33.3440   41.4410 H   0  0  0  0  0  0  0  0  0  0  0  0
   39.9570   35.3850   40.5320 H   0  0  0  0  0  0  0  0  0  0  0  0
   42.1870   33.1400   37.3280 C   0  0  0  0  0  0  0  0  0  0  0  0
   42.5520   32.0390   36.8550 O   0  0  0  0  0  0  0  0  0  0  0  0
   42.6040   34.4270   36.8350 N   0  0  0  0  0  0  0  0  0  0  0  0
   42.2980   35.2900   36.3330 H   0  0  0  0  0  0  0  0  0  0  0  0
   43.6130   34.4170   37.1370 H   0  0  0  0  0  0  0  0  0  0  0  0
  1 18  1  0  0  0  0
  1  4  1  0  0  0  0
  2  1  1  0  0  0  0
  3  1  1  0  0  0  0
  4  9  1  0  0  0  0
  4  6  1  0  0  0  0
  5  4  1  0  0  0  0
  8  7  1  0  0  0  0
  9  8  2  0  0  0  0
 10  9  1  0  0  0  0
 11 10  2  0  0  0  0
 11 12  1  0  0  0  0
 12 14  2  0  0  0  0
 13 12  1  0  0  0  0
 14  8  1  0  0  0  0
 14 17  1  0  0  0  0
 15 10  1  0  0  0  0
 16 11  1  0  0  0  0
 19 20  1  0  0  0  0
 19 18  1  0  0  0  0
 20 25  1  0  0  0  0
 21 26  1  0  0  0  0
 21 20  2  0  0  0  0
 22 21  1  0  0  0  0
 23 24  1  0  0  0  0
 23 22  2  0  0  0  0
 24 19  2  0  0  0  0
 27 23  1  0  0  0  0
 28 27  2  0  0  0  0
 29 31  1  0  0  0  0
 29 27  1  0  0  0  0
 30 29  1  0  0  0  0
M  END
>  <minimizedAffinity>
-5.51702023

$$$$

 OpenBabel03242515023D

 31 32  0  0  0  0  0  0  0  0999 V2000
   36.6110   31.0010   40.8790 C   0  0  0  0  0  0  0  0  0  0  0  0
   37.4730   31.0290   41.6050 H   0  0  0  0  0  0  0  0  0  0  0  0
   35.8370   31.6610   41.3400 H   0  0  0  0  0  0  0  0  0  0  0  0
   36.0640   29.6170   40.8880 C   0  0  0  0  0  0  0  0  0  0  0  0
   36.0210   29.2810   39.8200 H   0  0  0  0  0  0  0  0  0  0  0  0
   35.0170   29.5640   41.2510 H   0  0  0  0  0  0  0  0  0  0  0  0
   36.4910   26.8920   39.6110 Cl  0  0  0  0  0  0  0  0  0  0  0  0
   37.2460   27.4030   41.0900 C   0  0  0  0  0  0  0  0  0  0  0  0
   36.9770   28.6810   41.5880 C   0  0  0  0  0  0  0  0  0  0  0  0
   37.6120   29.0110   42.7600 C   0  0  0  0  0  0  0  0  0  0  0  0
   38.4830   28.2120   43.4910 C   0  0  0  0  0  0  0  0  0  0  0  0
   38.7240   26.9630   42.9720 C   0  0  0  0  0  0  0  0  0  0  0  0
   39.8140   25.8650   43.8190 Cl  0  0  0  0  0  0  0  0  0  0  0  0
   38.1170   26.5720   41.7980 C   0  0  0  0  0  0  0  0  0  0  0  0
   37.4200   30.0090   43.1730 H   0  0  0  0  0  0  0  0  0  0  0  0
   38.9280   28.5780   44.4060 H   0  0  0  0  0  0  0  0  0  0  0  0
   38.3330   25.5730   41.4190 H   0  0  0  0  0  0  0  0  0  0  0  0
   37.1510   31.5630   39.2580 S   0  0  0  0  0  0  0  0  0  0  0  0
   38.5290   32.6970   39.3460 C   0  0  0  0  0  0  0  0  0  0  0  0
   38.3380   33.8510   40.1200 C   0  0  0  0  0  0  0  0  0  0  0  0
   39.3850   34.7720   40.2230 C   0  0  0  0  0  0  0  0  0  0  0  0
   40.5340   34.4920   39.5610 N   0  0  0  0  0  0  0  0  0  0  0  0
   40.7040   33.3730   38.8170 C   0  0  0  0  0  0  0  0  0  0  0  0
   39.7020   32.5060   38.7270 N   0  0  0  0  0  0  0  0  0  0  0  0
   37.4270   34.0870   40.6530 H   0  0  0  0  0  0  0  0  0  0  0  0
   39.3080   35.6830   40.8010 H   0  0  0  0  0  0  0  0  0  0  0  0
   41.9830   33.1990   38.1630 C   0  0  0  0  0  0  0  0  0  0  0  0
   42.8250   32.4610   38.7250 O   0  0  0  0  0  0  0  0  0  0  0  0
   42.1920   33.8870   36.9150 N   0  0  0  0  0  0  0  0  0  0  0  0
   41.9220   33.9280   35.9070 H   0  0  0  0  0  0  0  0  0  0  0  0
   42.8980   34.6050   37.2210 H   0  0  0  0  0  0  0  0  0  0  0  0
  1  4  1  0  0  0  0
  1  3  1  0  0  0  0
  1  2  1  0  0  0  0
  4  6  1  0  0  0  0
  4  9  1  0  0  0  0
  5  4  1  0  0  0  0
  7  8  1  0  0  0  0
  8  9  2  0  0  0  0
  8 14  1  0  0  0  0
  9 10  1  0  0  0  0
 10 15  1  0  0  0  0
 10 11  2  0  0  0  0
 11 16  1  0  0  0  0
 12 11  1  0  0  0  0
 12 13  1  0  0  0  0
 14 12  2  0  0  0  0
 17 14  1  0  0  0  0
 18 19  1  0  0  0  0
 18  1  1  0  0  0  0
 19 20  1  0  0  0  0
 20 21  2  0  0  0  0
 20 25  1  0  0  0  0
 21 26  1  0  0  0  0
 22 21  1  0  0  0  0
 23 22  2  0  0  0  0
 24 23  1  0  0  0  0
 24 19  2  0  0  0  0
 27 28  2  0  0  0  0
 27 23  1  0  0  0  0
 29 31  1  0  0  0  0
 29 27  1  0  0  0  0
 30 29  1  0  0  0  0
M  END
>  <minimizedAffinity>
-5.51243782

$$$$

 OpenBabel03242515023D

 31 32  0  0  0  0  0  0  0  0999 V2000
   37.5160   28.9570   43.0040 C   0  0  0  0  0  0  0  0  0  0  0  0
   36.8050   29.6240   43.5720 H   0  0  0  0  0  0  0  0  0  0  0  0
   36.9130   28.5730   42.1460 H   0  0  0  0  0  0  0  0  0  0  0  0
   37.8250   27.7910   43.8750 C   0  0  0  0  0  0  0  0  0  0  0  0
   36.9270   27.6290   44.5270 H   0  0  0  0  0  0  0  0  0  0  0  0
   38.6620   27.9810   44.5780 H   0  0  0  0  0  0  0  0  0  0  0  0
   40.5490   26.4470   43.9810 Cl  0  0  0  0  0  0  0  0  0  0  0  0
   39.2050   25.8530   43.0520 C   0  0  0  0  0  0  0  0  0  0  0  0
   37.9960   26.5530   43.0770 C   0  0  0  0  0  0  0  0  0  0  0  0
   36.9830   26.0200   42.3190 C   0  0  0  0  0  0  0  0  0  0  0  0
   37.0380   24.8710   41.5400 C   0  0  0  0  0  0  0  0  0  0  0  0
   38.2430   24.2090   41.5390 C   0  0  0  0  0  0  0  0  0  0  0  0
   38.4260   22.7380   40.5840 Cl  0  0  0  0  0  0  0  0  0  0  0  0
   39.2990   24.6930   42.2800 C   0  0  0  0  0  0  0  0  0  0  0  0
   36.0210   26.5490   42.3200 H   0  0  0  0  0  0  0  0  0  0  0  0
   36.1730   24.5440   40.9810 H   0  0  0  0  0  0  0  0  0  0  0  0
   40.2380   24.1390   42.2540 H   0  0  0  0  0  0  0  0  0  0  0  0
   38.9650   29.8940   42.4940 S   0  0  0  0  0  0  0  0  0  0  0  0
   38.6650   30.8870   41.0390 C   0  0  0  0  0  0  0  0  0  0  0  0
   37.3290   31.2240   40.7790 C   0  0  0  0  0  0  0  0  0  0  0  0
   37.0390   32.0000   39.6530 C   0  0  0  0  0  0  0  0  0  0  0  0
   38.0780   32.3850   38.8720 N   0  0  0  0  0  0  0  0  0  0  0  0
   39.3630   32.0530   39.1370 C   0  0  0  0  0  0  0  0  0  0  0  0
   39.6260   31.3140   40.2090 N   0  0  0  0  0  0  0  0  0  0  0  0
   36.4900   30.9230   41.3930 H   0  0  0  0  0  0  0  0  0  0  0  0
   36.0320   32.2960   39.3900 H   0  0  0  0  0  0  0  0  0  0  0  0
   40.3740   32.5310   38.2190 C   0  0  0  0  0  0  0  0  0  0  0  0
   41.4090   33.0400   38.7110 O   0  0  0  0  0  0  0  0  0  0  0  0
   40.1180   32.3860   36.8100 N   0  0  0  0  0  0  0  0  0  0  0  0
   40.0310   31.7050   36.0230 H   0  0  0  0  0  0  0  0  0  0  0  0
   39.9750   33.3960   36.5480 H   0  0  0  0  0  0  0  0  0  0  0  0
  1  2  1  0  0  0  0
  1  4  1  0  0  0  0
  3  1  1  0  0  0  0
  4  5  1  0  0  0  0
  4  6  1  0  0  0  0
  8  9  1  0  0  0  0
  8  7  1  0  0  0  0
  9  4  1  0  0  0  0
 10 15  1  0  0  0  0
 10  9  2  0  0  0  0
 11 10  1  0  0  0  0
 12 11  2  0  0  0  0
 12 14  1  0  0  0  0
 13 12  1  0  0  0  0
 14  8  2  0  0  0  0
 16 11  1  0  0  0  0
 17 14  1  0  0  0  0
 18  1  1  0  0  0  0
 19 18  1  0  0  0  0
 20 19  1  0  0  0  0
 20 25  1  0  0  0  0
 21 20  2  0  0  0  0
 22 23  2  0  0  0  0
 22 21  1  0  0  0  0
 23 24  1  0  0  0  0
 24 19  2  0  0  0  0
 26 21  1  0  0  0  0
 27 28  2  0  0  0  0
 27 23  1  0  0  0  0
 29 27  1  0  0  0  0
 30 29  1  0  0  0  0
 31 29  1  0  0  0  0
M  END
>  <minimizedAffinity>
-5.47930431

$$$$

 OpenBabel03242515023D

 31 32  0  0  0  0  0  0  0  0999 V2000
   39.0430   29.9310   38.6780 C   0  0  0  0  0  0  0  0  0  0  0  0
   38.2740   29.1260   38.5040 H   0  0  0  0  0  0  0  0  0  0  0  0
   39.7340   29.8510   37.8040 H   0  0  0  0  0  0  0  0  0  0  0  0
   39.8240   29.5490   39.8860 C   0  0  0  0  0  0  0  0  0  0  0  0
   40.3030   30.4880   40.2690 H   0  0  0  0  0  0  0  0  0  0  0  0
   40.6670   28.8650   39.6620 H   0  0  0  0  0  0  0  0  0  0  0  0
   39.8960   31.0560   42.5240 Cl  0  0  0  0  0  0  0  0  0  0  0  0
   38.8900   29.6730   42.2200 C   0  0  0  0  0  0  0  0  0  0  0  0
   38.9370   29.0560   40.9670 C   0  0  0  0  0  0  0  0  0  0  0  0
   38.1130   27.9710   40.8050 C   0  0  0  0  0  0  0  0  0  0  0  0
   37.2480   27.4300   41.7490 C   0  0  0  0  0  0  0  0  0  0  0  0
   37.2270   28.0620   42.9690 C   0  0  0  0  0  0  0  0  0  0  0  0
   36.1660   27.4610   44.2420 Cl  0  0  0  0  0  0  0  0  0  0  0  0
   38.0320   29.1580   43.1950 C   0  0  0  0  0  0  0  0  0  0  0  0
   38.1290   27.4670   39.8310 H   0  0  0  0  0  0  0  0  0  0  0  0
   36.6420   26.5680   41.5090 H   0  0  0  0  0  0  0  0  0  0  0  0
   37.9870   29.6320   44.1760 H   0  0  0  0  0  0  0  0  0  0  0  0
   38.2380   31.5350   38.8050 S   0  0  0  0  0  0  0  0  0  0  0  0
   39.3900   32.8600   39.1350 C   0  0  0  0  0  0  0  0  0  0  0  0
   39.0050   33.7920   40.1090 C   0  0  0  0  0  0  0  0  0  0  0  0
   39.8700   34.8490   40.4070 C   0  0  0  0  0  0  0  0  0  0  0  0
   41.0420   34.9100   39.7290 N   0  0  0  0  0  0  0  0  0  0  0  0
   41.4010   34.0020   38.7920 C   0  0  0  0  0  0  0  0  0  0  0  0
   40.5700   33.0030   38.5170 N   0  0  0  0  0  0  0  0  0  0  0  0
   38.0730   33.7560   40.6580 H   0  0  0  0  0  0  0  0  0  0  0  0
   39.6370   35.6050   41.1460 H   0  0  0  0  0  0  0  0  0  0  0  0
   42.6810   34.1880   38.1450 C   0  0  0  0  0  0  0  0  0  0  0  0
   43.7060   34.1390   38.8640 O   0  0  0  0  0  0  0  0  0  0  0  0
   42.6830   34.4140   36.7230 N   0  0  0  0  0  0  0  0  0  0  0  0
   42.5140   33.9800   35.7880 H   0  0  0  0  0  0  0  0  0  0  0  0
   42.9780   35.4250   36.7020 H   0  0  0  0  0  0  0  0  0  0  0  0
  1 18  1  0  0  0  0
  1  4  1  0  0  0  0
  2  1  1  0  0  0  0
  3  1  1  0  0  0  0
  4  5  1  0  0  0  0
  4  9  1  0  0  0  0
  6  4  1  0  0  0  0
  8  7  1  0  0  0  0
  8 14  1  0  0  0  0
  9  8  2  0  0  0  0
 10  9  1  0  0  0  0
 10 11  2  0  0  0  0
 11 12  1  0  0  0  0
 12 14  2  0  0  0  0
 12 13  1  0  0  0  0
 14 17  1  0  0  0  0
 15 10  1  0  0  0  0
 16 11  1  0  0  0  0
 18 19  1  0  0  0  0
 19 20  1  0  0  0  0
 20 21  2  0  0  0  0
 20 25  1  0  0  0  0
 21 26  1  0  0  0  0
 22 21  1  0  0  0  0
 23 22  2  0  0  0  0
 24 23  1  0  0  0  0
 24 19  2  0  0  0  0
 27 23  1  0  0  0  0
 27 28  2  0  0  0  0
 29 27  1  0  0  0  0
 30 29  1  0  0  0  0
 31 29  1  0  0  0  0
M  END
>  <minimizedAffinity>
-5.44839525

$$$$

 OpenBabel03242515023D

 31 32  0  0  0  0  0  0  0  0999 V2000
   37.7790   31.9110   39.5480 C   0  0  0  0  0  0  0  0  0  0  0  0
   37.2220   31.9800   38.5700 H   0  0  0  0  0  0  0  0  0  0  0  0
   38.4930   31.0650   39.4030 H   0  0  0  0  0  0  0  0  0  0  0  0
   36.8040   31.4840   40.5880 C   0  0  0  0  0  0  0  0  0  0  0  0
   35.8910   31.1240   40.0450 H   0  0  0  0  0  0  0  0  0  0  0  0
   36.4500   32.3220   41.2240 H   0  0  0  0  0  0  0  0  0  0  0  0
   35.1210   28.9530   40.5680 Cl  0  0  0  0  0  0  0  0  0  0  0  0
   36.6230   29.1180   41.4250 C   0  0  0  0  0  0  0  0  0  0  0  0
   37.3150   30.3300   41.3650 C   0  0  0  0  0  0  0  0  0  0  0  0
   38.4930   30.3800   42.0680 C   0  0  0  0  0  0  0  0  0  0  0  0
   39.0590   29.3610   42.8240 C   0  0  0  0  0  0  0  0  0  0  0  0
   38.3520   28.1830   42.8600 C   0  0  0  0  0  0  0  0  0  0  0  0
   38.9770   26.8220   43.7900 Cl  0  0  0  0  0  0  0  0  0  0  0  0
   37.1620   28.0690   42.1750 C   0  0  0  0  0  0  0  0  0  0  0  0
   39.0580   31.3210   42.0380 H   0  0  0  0  0  0  0  0  0  0  0  0
   39.9970   29.5140   43.3390 H   0  0  0  0  0  0  0  0  0  0  0  0
   36.6300   27.1190   42.2290 H   0  0  0  0  0  0  0  0  0  0  0  0
   38.5920   33.4750   39.9060 S   0  0  0  0  0  0  0  0  0  0  0  0
   40.3730   33.3380   39.9200 C   0  0  0  0  0  0  0  0  0  0  0  0
   40.9450   32.7610   41.0630 C   0  0  0  0  0  0  0  0  0  0  0  0
   42.3350   32.6300   41.1250 C   0  0  0  0  0  0  0  0  0  0  0  0
   43.0560   33.0730   40.0660 N   0  0  0  0  0  0  0  0  0  0  0  0
   42.4900   33.6280   38.9690 C   0  0  0  0  0  0  0  0  0  0  0  0
   41.1680   33.7480   38.9210 N   0  0  0  0  0  0  0  0  0  0  0  0
   40.3830   32.4030   41.9150 H   0  0  0  0  0  0  0  0  0  0  0  0
   42.8440   32.1950   41.9760 H   0  0  0  0  0  0  0  0  0  0  0  0
   43.3770   34.0580   37.9110 C   0  0  0  0  0  0  0  0  0  0  0  0
   44.6030   34.0990   38.1640 O   0  0  0  0  0  0  0  0  0  0  0  0
   42.7850   34.4070   36.6450 N   0  0  0  0  0  0  0  0  0  0  0  0
   42.3010   34.0360   35.7970 H   0  0  0  0  0  0  0  0  0  0  0  0
   42.9420   35.4480   36.6540 H   0  0  0  0  0  0  0  0  0  0  0  0
  1 18  1  0  0  0  0
  1  4  1  0  0  0  0
  2  1  1  0  0  0  0
  3  1  1  0  0  0  0
  4  6  1  0  0  0  0
  4  9  1  0  0  0  0
  5  4  1  0  0  0  0
  7  8  1  0  0  0  0
  8 14  1  0  0  0  0
  9  8  2  0  0  0  0
  9 10  1  0  0  0  0
 10 11  2  0  0  0  0
 11 12  1  0  0  0  0
 11 16  1  0  0  0  0
 12 13  1  0  0  0  0
 14 17  1  0  0  0  0
 14 12  2  0  0  0  0
 15 10  1  0  0  0  0
 18 19  1  0  0  0  0
 19 20  1  0  0  0  0
 20 21  2  0  0  0  0
 20 25  1  0  0  0  0
 21 26  1  0  0  0  0
 22 21  1  0  0  0  0
 23 22  2  0  0  0  0
 24 23  1  0  0  0  0
 24 19  2  0  0  0  0
 27 28  2  0  0  0  0
 27 23  1  0  0  0  0
 29 31  1  0  0  0  0
 29 27  1  0  0  0  0
 30 29  1  0  0  0  0
M  END
>  <minimizedAffinity>
-5.4044013

$$$$

 OpenBabel03242515023D

 31 32  0  0  0  0  0  0  0  0999 V2000
   36.4170   28.2430   41.1330 C   0  0  0  0  0  0  0  0  0  0  0  0
   35.5130   27.7630   40.6610 H   0  0  0  0  0  0  0  0  0  0  0  0
   37.2810   27.8440   40.5480 H   0  0  0  0  0  0  0  0  0  0  0  0
   36.5400   27.7010   42.5140 C   0  0  0  0  0  0  0  0  0  0  0  0
   35.8020   26.8610   42.5970 H   0  0  0  0  0  0  0  0  0  0  0  0
   36.2390   28.4290   43.2950 H   0  0  0  0  0  0  0  0  0  0  0  0
   36.8390   24.7200   42.0060 Cl  0  0  0  0  0  0  0  0  0  0  0  0
   38.1310   25.7510   42.5410 C   0  0  0  0  0  0  0  0  0  0  0  0
   37.8800   27.1100   42.7440 C   0  0  0  0  0  0  0  0  0  0  0  0
   38.9510   27.8580   43.1660 C   0  0  0  0  0  0  0  0  0  0  0  0
   40.2420   27.4050   43.4100 C   0  0  0  0  0  0  0  0  0  0  0  0
   40.4520   26.0630   43.2000 C   0  0  0  0  0  0  0  0  0  0  0  0
   42.0530   25.3790   43.4790 Cl  0  0  0  0  0  0  0  0  0  0  0  0
   39.4170   25.2580   42.7760 C   0  0  0  0  0  0  0  0  0  0  0  0
   38.7840   28.9290   43.3330 H   0  0  0  0  0  0  0  0  0  0  0  0
   41.0120   28.0880   43.7420 H   0  0  0  0  0  0  0  0  0  0  0  0
   39.6230   24.1990   42.6210 H   0  0  0  0  0  0  0  0  0  0  0  0
   36.2740   30.0340   41.0600 S   0  0  0  0  0  0  0  0  0  0  0  0
   37.7990   30.8280   40.5740 C   0  0  0  0  0  0  0  0  0  0  0  0
   38.7790   30.0010   40.0080 C   0  0  0  0  0  0  0  0  0  0  0  0
   39.9920   30.5710   39.6110 C   0  0  0  0  0  0  0  0  0  0  0  0
   40.1500   31.9040   39.7980 N   0  0  0  0  0  0  0  0  0  0  0  0
   39.1940   32.6900   40.3460 C   0  0  0  0  0  0  0  0  0  0  0  0
   38.0460   32.1370   40.7200 N   0  0  0  0  0  0  0  0  0  0  0  0
   38.6680   28.9360   39.8520 H   0  0  0  0  0  0  0  0  0  0  0  0
   40.7930   29.9930   39.1680 H   0  0  0  0  0  0  0  0  0  0  0  0
   39.4950   34.0980   40.4890 C   0  0  0  0  0  0  0  0  0  0  0  0
   40.2490   34.6190   39.6340 O   0  0  0  0  0  0  0  0  0  0  0  0
   38.9040   34.7970   41.6010 N   0  0  0  0  0  0  0  0  0  0  0  0
   38.0130   35.1650   42.0030 H   0  0  0  0  0  0  0  0  0  0  0  0
   39.7640   34.9650   42.1850 H   0  0  0  0  0  0  0  0  0  0  0  0
  1  4  1  0  0  0  0
  2  1  1  0  0  0  0
  3  1  1  0  0  0  0
  4  5  1  0  0  0  0
  4  9  1  0  0  0  0
  4  6  1  0  0  0  0
  7  8  1  0  0  0  0
  8  9  2  0  0  0  0
  8 14  1  0  0  0  0
  9 10  1  0  0  0  0
 10 15  1  0  0  0  0
 10 11  2  0  0  0  0
 11 16  1  0  0  0  0
 12 11  1  0  0  0  0
 12 13  1  0  0  0  0
 14 12  2  0  0  0  0
 17 14  1  0  0  0  0
 18  1  1  0  0  0  0
 19 24  1  0  0  0  0
 19 18  1  0  0  0  0
 20 19  2  0  0  0  0
 21 22  2  0  0  0  0
 21 20  1  0  0  0  0
 22 23  1  0  0  0  0
 23 27  1  0  0  0  0
 23 24  2  0  0  0  0
 25 20  1  0  0  0  0
 26 21  1  0  0  0  0
 27 29  1  0  0  0  0
 28 27  2  0  0  0  0
 29 30  1  0  0  0  0
 29 31  1  0  0  0  0
M  END
>  <minimizedAffinity>
-5.34881687

$$$$

 OpenBabel03242515023D

 31 32  0  0  0  0  0  0  0  0999 V2000
   36.5130   28.4710   42.1240 C   0  0  0  0  0  0  0  0  0  0  0  0
   37.2700   29.2070   42.5210 H   0  0  0  0  0  0  0  0  0  0  0  0
   35.5250   28.9500   42.3290 H   0  0  0  0  0  0  0  0  0  0  0  0
   36.5890   27.2510   42.9730 C   0  0  0  0  0  0  0  0  0  0  0  0
   35.9580   26.4710   42.4720 H   0  0  0  0  0  0  0  0  0  0  0  0
   36.1370   27.3890   43.9760 H   0  0  0  0  0  0  0  0  0  0  0  0
   37.0170   24.4580   41.8530 Cl  0  0  0  0  0  0  0  0  0  0  0  0
   38.2800   25.4390   42.5320 C   0  0  0  0  0  0  0  0  0  0  0  0
   37.9690   26.7120   43.0190 C   0  0  0  0  0  0  0  0  0  0  0  0
   39.0210   27.4250   43.5380 C   0  0  0  0  0  0  0  0  0  0  0  0
   40.3460   27.0140   43.6280 C   0  0  0  0  0  0  0  0  0  0  0  0
   40.6150   25.7580   43.1390 C   0  0  0  0  0  0  0  0  0  0  0  0
   42.2620   25.1350   43.2030 Cl  0  0  0  0  0  0  0  0  0  0  0  0
   39.6010   24.9920   42.6050 C   0  0  0  0  0  0  0  0  0  0  0  0
   38.8060   28.4280   43.9280 H   0  0  0  0  0  0  0  0  0  0  0  0
   41.0950   27.6630   44.0590 H   0  0  0  0  0  0  0  0  0  0  0  0
   39.8540   24.0010   42.2280 H   0  0  0  0  0  0  0  0  0  0  0  0
   36.8080   28.1660   40.3760 S   0  0  0  0  0  0  0  0  0  0  0  0
   37.1030   29.6680   39.4550 C   0  0  0  0  0  0  0  0  0  0  0  0
   37.1270   29.5480   38.0580 C   0  0  0  0  0  0  0  0  0  0  0  0
   37.3530   30.6920   37.2880 C   0  0  0  0  0  0  0  0  0  0  0  0
   37.5390   31.8630   37.9460 N   0  0  0  0  0  0  0  0  0  0  0  0
   37.5140   31.9640   39.2950 C   0  0  0  0  0  0  0  0  0  0  0  0
   37.2980   30.8690   40.0150 N   0  0  0  0  0  0  0  0  0  0  0  0
   36.9800   28.6200   37.5200 H   0  0  0  0  0  0  0  0  0  0  0  0
   37.3860   30.6740   36.2070 H   0  0  0  0  0  0  0  0  0  0  0  0
   37.7270   33.2760   39.8660 C   0  0  0  0  0  0  0  0  0  0  0  0
   38.5940   33.3820   40.7650 O   0  0  0  0  0  0  0  0  0  0  0  0
   36.9290   34.3620   39.3600 N   0  0  0  0  0  0  0  0  0  0  0  0
   36.7530   34.9830   38.5390 H   0  0  0  0  0  0  0  0  0  0  0  0
   36.3140   34.5390   40.1960 H   0  0  0  0  0  0  0  0  0  0  0  0
  1  3  1  0  0  0  0
  1  2  1  0  0  0  0
  1  4  1  0  0  0  0
  4  9  1  0  0  0  0
  4  6  1  0  0  0  0
  5  4  1  0  0  0  0
  7  8  1  0  0  0  0
  8 14  2  0  0  0  0
  8  9  1  0  0  0  0
  9 10  2  0  0  0  0
 10 11  1  0  0  0  0
 10 15  1  0  0  0  0
 11 16  1  0  0  0  0
 12 13  1  0  0  0  0
 12 11  2  0  0  0  0
 14 12  1  0  0  0  0
 17 14  1  0  0  0  0
 18  1  1  0  0  0  0
 19 24  1  0  0  0  0
 19 18  1  0  0  0  0
 20 19  2  0  0  0  0
 21 22  2  0  0  0  0
 21 20  1  0  0  0  0
 22 23  1  0  0  0  0
 23 27  1  0  0  0  0
 23 24  2  0  0  0  0
 25 20  1  0  0  0  0
 26 21  1  0  0  0  0
 27 28  2  0  0  0  0
 29 27  1  0  0  0  0
 29 31  1  0  0  0  0
 30 29  1  0  0  0  0
M  END
>  <minimizedAffinity>
-5.34533644

$$$$

 OpenBabel03242515023D

 31 32  0  0  0  0  0  0  0  0999 V2000
   36.6230   28.0610   41.7780 C   0  0  0  0  0  0  0  0  0  0  0  0
   35.8040   27.5270   42.3390 H   0  0  0  0  0  0  0  0  0  0  0  0
   37.2960   27.2440   41.4210 H   0  0  0  0  0  0  0  0  0  0  0  0
   37.3960   28.8600   42.7680 C   0  0  0  0  0  0  0  0  0  0  0  0
   36.8010   28.8560   43.7190 H   0  0  0  0  0  0  0  0  0  0  0  0
   37.4870   29.9290   42.4890 H   0  0  0  0  0  0  0  0  0  0  0  0
   39.9070   30.4170   42.0560 Cl  0  0  0  0  0  0  0  0  0  0  0  0
   39.9130   28.8450   42.7960 C   0  0  0  0  0  0  0  0  0  0  0  0
   38.6960   28.2190   43.0800 C   0  0  0  0  0  0  0  0  0  0  0  0
   38.7840   26.9810   43.6650 C   0  0  0  0  0  0  0  0  0  0  0  0
   39.9460   26.2950   43.9980 C   0  0  0  0  0  0  0  0  0  0  0  0
   41.1240   26.9400   43.7050 C   0  0  0  0  0  0  0  0  0  0  0  0
   42.6600   26.1620   44.0840 Cl  0  0  0  0  0  0  0  0  0  0  0  0
   41.1020   28.1860   43.1170 C   0  0  0  0  0  0  0  0  0  0  0  0
   37.8440   26.4660   43.9000 H   0  0  0  0  0  0  0  0  0  0  0  0
   39.8960   25.3180   44.4590 H   0  0  0  0  0  0  0  0  0  0  0  0
   42.0570   28.6660   42.8990 H   0  0  0  0  0  0  0  0  0  0  0  0
   35.9180   29.0370   40.4410 S   0  0  0  0  0  0  0  0  0  0  0  0
   36.9780   30.3850   39.9400 C   0  0  0  0  0  0  0  0  0  0  0  0
   36.7320   31.6280   40.5400 C   0  0  0  0  0  0  0  0  0  0  0  0
   37.5330   32.7160   40.1840 C   0  0  0  0  0  0  0  0  0  0  0  0
   38.5100   32.5040   39.2680 N   0  0  0  0  0  0  0  0  0  0  0  0
   38.7360   31.2980   38.6970 C   0  0  0  0  0  0  0  0  0  0  0  0
   37.9680   30.2710   39.0440 N   0  0  0  0  0  0  0  0  0  0  0  0
   35.9570   31.8120   41.2720 H   0  0  0  0  0  0  0  0  0  0  0  0
   37.4000   33.7040   40.6060 H   0  0  0  0  0  0  0  0  0  0  0  0
   39.8120   31.2110   37.7340 C   0  0  0  0  0  0  0  0  0  0  0  0
   40.5340   30.1870   37.7630 O   0  0  0  0  0  0  0  0  0  0  0  0
   39.9740   32.3070   36.8140 N   0  0  0  0  0  0  0  0  0  0  0  0
   39.5610   32.7970   35.9890 H   0  0  0  0  0  0  0  0  0  0  0  0
   40.8710   32.7180   37.1800 H   0  0  0  0  0  0  0  0  0  0  0  0
  1  2  1  0  0  0  0
  1  4  1  0  0  0  0
  3  1  1  0  0  0  0
  4  9  1  0  0  0  0
  4  5  1  0  0  0  0
  6  4  1  0  0  0  0
  7  8  1  0  0  0  0
  8  9  2  0  0  0  0
  8 14  1  0  0  0  0
  9 10  1  0  0  0  0
 10 15  1  0  0  0  0
 10 11  2  0  0  0  0
 11 16  1  0  0  0  0
 12 11  1  0  0  0  0
 12 13  1  0  0  0  0
 14 12  2  0  0  0  0
 17 14  1  0  0  0  0
 18  1  1  0  0  0  0
 19 18  1  0  0  0  0
 19 20  1  0  0  0  0
 20 25  1  0  0  0  0
 21 20  2  0  0  0  0
 21 26  1  0  0  0  0
 22 21  1  0  0  0  0
 23 24  1  0  0  0  0
 23 22  2  0  0  0  0
 24 19  2  0  0  0  0
 27 28  2  0  0  0  0
 27 23  1  0  0  0  0
 29 31  1  0  0  0  0
 29 27  1  0  0  0  0
 30 29  1  0  0  0  0
M  END
>  <minimizedAffinity>
-5.27058506

$$$$

 OpenBabel03242515023D

 31 32  0  0  0  0  0  0  0  0999 V2000
   36.7070   27.6210   40.1530 C   0  0  0  0  0  0  0  0  0  0  0  0
   36.0870   27.2840   39.2740 H   0  0  0  0  0  0  0  0  0  0  0  0
   37.7390   27.7330   39.7400 H   0  0  0  0  0  0  0  0  0  0  0  0
   36.7490   26.4970   41.1270 C   0  0  0  0  0  0  0  0  0  0  0  0
   36.7540   25.5500   40.5260 H   0  0  0  0  0  0  0  0  0  0  0  0
   35.8390   26.4340   41.7590 H   0  0  0  0  0  0  0  0  0  0  0  0
   36.5890   27.5130   43.9870 Cl  0  0  0  0  0  0  0  0  0  0  0  0
   38.0510   26.9540   43.2320 C   0  0  0  0  0  0  0  0  0  0  0  0
   38.0090   26.5080   41.9090 C   0  0  0  0  0  0  0  0  0  0  0  0
   39.2030   26.0810   41.3840 C   0  0  0  0  0  0  0  0  0  0  0  0
   40.4340   26.0500   42.0280 C   0  0  0  0  0  0  0  0  0  0  0  0
   40.4390   26.4950   43.3280 C   0  0  0  0  0  0  0  0  0  0  0  0
   41.9470   26.5000   44.2410 Cl  0  0  0  0  0  0  0  0  0  0  0  0
   39.2710   26.9370   43.9120 C   0  0  0  0  0  0  0  0  0  0  0  0
   39.1990   25.7250   40.3470 H   0  0  0  0  0  0  0  0  0  0  0  0
   41.3150   25.6910   41.5140 H   0  0  0  0  0  0  0  0  0  0  0  0
   39.3150   27.2830   44.9450 H   0  0  0  0  0  0  0  0  0  0  0  0
   36.0400   29.1500   40.8280 S   0  0  0  0  0  0  0  0  0  0  0  0
   37.2720   30.4370   40.9660 C   0  0  0  0  0  0  0  0  0  0  0  0
   38.4200   30.1230   41.7070 C   0  0  0  0  0  0  0  0  0  0  0  0
   39.4160   31.0940   41.8460 C   0  0  0  0  0  0  0  0  0  0  0  0
   39.2100   32.2950   41.2510 N   0  0  0  0  0  0  0  0  0  0  0  0
   38.0960   32.5830   40.5380 C   0  0  0  0  0  0  0  0  0  0  0  0
   37.1570   31.6520   40.4130 N   0  0  0  0  0  0  0  0  0  0  0  0
   38.5990   29.1700   42.1880 H   0  0  0  0  0  0  0  0  0  0  0  0
   40.3270   30.9220   42.4040 H   0  0  0  0  0  0  0  0  0  0  0  0
   38.0040   33.9030   39.9550 C   0  0  0  0  0  0  0  0  0  0  0  0
   38.9370   34.7070   40.1910 O   0  0  0  0  0  0  0  0  0  0  0  0
   36.8490   34.1970   39.1470 N   0  0  0  0  0  0  0  0  0  0  0  0
   36.3660   33.9980   38.2430 H   0  0  0  0  0  0  0  0  0  0  0  0
   36.3560   34.8800   39.7790 H   0  0  0  0  0  0  0  0  0  0  0  0
  1 18  1  0  0  0  0
  1  4  1  0  0  0  0
  2  1  1  0  0  0  0
  3  1  1  0  0  0  0
  4  6  1  0  0  0  0
  4  9  1  0  0  0  0
  5  4  1  0  0  0  0
  8 14  1  0  0  0  0
  8  7  1  0  0  0  0
  9  8  2  0  0  0  0
 10  9  1  0  0  0  0
 10 11  2  0  0  0  0
 11 12  1  0  0  0  0
 12 14  2  0  0  0  0
 12 13  1  0  0  0  0
 14 17  1  0  0  0  0
 15 10  1  0  0  0  0
 16 11  1  0  0  0  0
 18 19  1  0  0  0  0
 19 20  1  0  0  0  0
 20 21  2  0  0  0  0
 20 25  1  0  0  0  0
 21 26  1  0  0  0  0
 22 21  1  0  0  0  0
 23 22  2  0  0  0  0
 24 23  1  0  0  0  0
 24 19  2  0  0  0  0
 27 28  2  0  0  0  0
 27 23  1  0  0  0  0
 29 31  1  0  0  0  0
 29 27  1  0  0  0  0
 30 29  1  0  0  0  0
M  END
>  <minimizedAffinity>
-5.25008726

$$$$
