
 OpenBabel03252502293D

 29 30  0  0  0  0  0  0  0  0999 V2000
   35.1820   29.1400   38.4180 C   0  0  0  0  0  0  0  0  0  0  0  0
   33.8160   28.8840   38.4320 C   0  0  0  0  0  0  0  0  0  0  0  0
   33.1600   28.7710   37.1950 C   0  0  0  0  0  0  0  0  0  0  0  0
   33.8620   28.9130   36.0290 C   0  0  0  0  0  0  0  0  0  0  0  0
   35.2020   29.1650   36.0090 C   0  0  0  0  0  0  0  0  0  0  0  0
   35.8430   29.2750   37.2410 C   0  0  0  0  0  0  0  0  0  0  0  0
   33.2620   28.7700   39.3520 H   0  0  0  0  0  0  0  0  0  0  0  0
   32.0970   28.5710   37.2260 H   0  0  0  0  0  0  0  0  0  0  0  0
   33.3720   28.8290   35.0680 H   0  0  0  0  0  0  0  0  0  0  0  0
   35.7690   29.2800   35.0830 H   0  0  0  0  0  0  0  0  0  0  0  0
   36.6660   28.4370   41.8100 C   0  0  0  0  0  0  0  0  0  0  0  0
   36.0420   28.1900   40.5670 C   0  0  0  0  0  0  0  0  0  0  0  0
   35.8110   29.2460   39.7190 C   0  0  0  0  0  0  0  0  0  0  0  0
   36.2070   30.4780   40.1450 N   0  0  0  0  0  0  0  0  0  0  0  0
   36.8020   30.7100   41.3320 C   0  0  0  0  0  0  0  0  0  0  0  0
   37.0370   29.6730   42.1810 N   0  0  0  0  0  0  0  0  0  0  0  0
   35.7420   27.2060   40.2600 H   0  0  0  0  0  0  0  0  0  0  0  0
   37.0840   31.7300   41.5870 H   0  0  0  0  0  0  0  0  0  0  0  0
   36.9220   27.2990   42.7370 C   0  0  0  0  0  0  0  0  0  0  0  0
   35.8750   27.3020   43.6800 F   0  0  0  0  0  0  0  0  0  0  0  0
   38.0720   27.6150   43.4550 F   0  0  0  0  0  0  0  0  0  0  0  0
   36.9790   26.0910   42.1010 F   0  0  0  0  0  0  0  0  0  0  0  0
   38.0570   30.6820   37.2130 C   0  0  0  0  0  0  0  0  0  0  0  0
   37.6780   31.8020   36.8940 O   0  0  0  0  0  0  0  0  0  0  0  0
   37.2270   29.5340   37.3490 N   0  0  0  0  0  0  0  0  0  0  0  0
   37.6690   28.5920   37.5870 H   0  0  0  0  0  0  0  0  0  0  0  0
   39.4490   30.5030   37.4750 N   0  0  0  0  0  0  0  0  0  0  0  0
   40.4340   30.1600   37.4410 H   0  0  0  0  0  0  0  0  0  0  0  0
   40.0440   31.0200   38.1880 H   0  0  0  0  0  0  0  0  0  0  0  0
  1  2  1  0  0  0  0
  1 13  1  0  0  0  0
  2  7  1  0  0  0  0
  3  8  1  0  0  0  0
  3  2  2  0  0  0  0
  4  3  1  0  0  0  0
  5  4  2  0  0  0  0
  5  6  1  0  0  0  0
  6 25  1  0  0  0  0
  6  1  2  0  0  0  0
  9  4  1  0  0  0  0
 10  5  1  0  0  0  0
 11 16  1  0  0  0  0
 11 19  1  0  0  0  0
 12 11  2  0  0  0  0
 13 14  2  0  0  0  0
 13 12  1  0  0  0  0
 14 15  1  0  0  0  0
 15 18  1  0  0  0  0
 15 16  2  0  0  0  0
 17 12  1  0  0  0  0
 19 21  1  0  0  0  0
 19 20  1  0  0  0  0
 22 19  1  0  0  0  0
 23 25  1  0  0  0  0
 23 27  1  0  0  0  0
 24 23  2  0  0  0  0
 25 26  1  0  0  0  0
 27 29  1  0  0  0  0
 28 27  1  0  0  0  0
M  END
>  <minimizedAffinity>
-5.53832293

$$$$

 OpenBabel03252502293D

 29 30  0  0  0  0  0  0  0  0999 V2000
   36.6980   28.4800   40.6760 C   0  0  0  0  0  0  0  0  0  0  0  0
   36.8380   27.1360   41.0010 C   0  0  0  0  0  0  0  0  0  0  0  0
   37.2640   26.8190   42.3010 C   0  0  0  0  0  0  0  0  0  0  0  0
   37.5290   27.8160   43.2000 C   0  0  0  0  0  0  0  0  0  0  0  0
   37.3940   29.1370   42.8870 C   0  0  0  0  0  0  0  0  0  0  0  0
   36.9700   29.4400   41.5950 C   0  0  0  0  0  0  0  0  0  0  0  0
   36.6290   26.3490   40.2920 H   0  0  0  0  0  0  0  0  0  0  0  0
   37.3670   25.7680   42.5350 H   0  0  0  0  0  0  0  0  0  0  0  0
   37.8580   27.5890   44.2060 H   0  0  0  0  0  0  0  0  0  0  0  0
   37.6030   29.9380   43.5990 H   0  0  0  0  0  0  0  0  0  0  0  0
   34.6610   28.9710   37.5440 C   0  0  0  0  0  0  0  0  0  0  0  0
   34.9530   28.6760   38.8950 C   0  0  0  0  0  0  0  0  0  0  0  0
   36.2560   28.7540   39.3240 C   0  0  0  0  0  0  0  0  0  0  0  0
   37.1900   29.1150   38.4000 N   0  0  0  0  0  0  0  0  0  0  0  0
   36.9080   29.3950   37.1130 C   0  0  0  0  0  0  0  0  0  0  0  0
   35.6220   29.3220   36.6750 N   0  0  0  0  0  0  0  0  0  0  0  0
   34.1930   28.3940   39.5990 H   0  0  0  0  0  0  0  0  0  0  0  0
   37.7210   29.6760   36.4470 H   0  0  0  0  0  0  0  0  0  0  0  0
   33.2520   28.8900   37.0690 C   0  0  0  0  0  0  0  0  0  0  0  0
   32.4390   29.3140   38.1390 F   0  0  0  0  0  0  0  0  0  0  0  0
   32.9630   27.5400   36.8920 F   0  0  0  0  0  0  0  0  0  0  0  0
   33.0130   29.6570   35.9640 F   0  0  0  0  0  0  0  0  0  0  0  0
   37.6540   31.8090   40.7000 C   0  0  0  0  0  0  0  0  0  0  0  0
   38.8750   31.7480   40.6370 O   0  0  0  0  0  0  0  0  0  0  0  0
   36.7950   30.7710   41.1550 N   0  0  0  0  0  0  0  0  0  0  0  0
   35.7430   30.9460   41.2130 H   0  0  0  0  0  0  0  0  0  0  0  0
   37.0290   33.0220   40.2810 N   0  0  0  0  0  0  0  0  0  0  0  0
   36.4610   33.8980   40.2660 H   0  0  0  0  0  0  0  0  0  0  0  0
   37.1070   33.4960   39.3330 H   0  0  0  0  0  0  0  0  0  0  0  0
  1  2  2  0  0  0  0
  1  6  1  0  0  0  0
  2  3  1  0  0  0  0
  3  8  1  0  0  0  0
  3  4  2  0  0  0  0
  4  9  1  0  0  0  0
  5  4  1  0  0  0  0
  5 10  1  0  0  0  0
  6  5  2  0  0  0  0
  7  2  1  0  0  0  0
 11 12  1  0  0  0  0
 12 13  2  0  0  0  0
 12 17  1  0  0  0  0
 13  1  1  0  0  0  0
 14 13  1  0  0  0  0
 15 14  2  0  0  0  0
 16 15  1  0  0  0  0
 16 11  2  0  0  0  0
 18 15  1  0  0  0  0
 19 11  1  0  0  0  0
 19 20  1  0  0  0  0
 21 19  1  0  0  0  0
 22 19  1  0  0  0  0
 23 25  1  0  0  0  0
 24 23  2  0  0  0  0
 25 26  1  0  0  0  0
 25  6  1  0  0  0  0
 27 23  1  0  0  0  0
 28 27  1  0  0  0  0
 29 27  1  0  0  0  0
M  END
>  <minimizedAffinity>
-5.43467426

$$$$

 OpenBabel03252502293D

 29 30  0  0  0  0  0  0  0  0999 V2000
   38.4880   31.2320   40.5100 C   0  0  0  0  0  0  0  0  0  0  0  0
   37.4890   31.4360   39.5660 C   0  0  0  0  0  0  0  0  0  0  0  0
   37.1760   32.7610   39.2220 C   0  0  0  0  0  0  0  0  0  0  0  0
   37.8440   33.8000   39.8110 C   0  0  0  0  0  0  0  0  0  0  0  0
   38.8250   33.6060   40.7380 C   0  0  0  0  0  0  0  0  0  0  0  0
   39.1280   32.2880   41.0720 C   0  0  0  0  0  0  0  0  0  0  0  0
   36.9610   30.6160   39.1010 H   0  0  0  0  0  0  0  0  0  0  0  0
   36.3950   32.9000   38.4860 H   0  0  0  0  0  0  0  0  0  0  0  0
   37.6150   34.8270   39.5580 H   0  0  0  0  0  0  0  0  0  0  0  0
   39.3630   34.4300   41.2120 H   0  0  0  0  0  0  0  0  0  0  0  0
   38.4030   27.7220   41.8790 C   0  0  0  0  0  0  0  0  0  0  0  0
   38.0070   29.0600   41.6530 C   0  0  0  0  0  0  0  0  0  0  0  0
   38.7730   29.8480   40.8290 C   0  0  0  0  0  0  0  0  0  0  0  0
   39.8790   29.2740   40.2790 N   0  0  0  0  0  0  0  0  0  0  0  0
   40.2540   27.9980   40.4960 C   0  0  0  0  0  0  0  0  0  0  0  0
   39.5040   27.2060   41.3100 N   0  0  0  0  0  0  0  0  0  0  0  0
   37.1290   29.4820   42.1030 H   0  0  0  0  0  0  0  0  0  0  0  0
   41.1540   27.6250   40.0120 H   0  0  0  0  0  0  0  0  0  0  0  0
   37.5790   26.8580   42.7710 C   0  0  0  0  0  0  0  0  0  0  0  0
   38.4700   26.2370   43.6680 F   0  0  0  0  0  0  0  0  0  0  0  0
   37.0700   25.8320   41.9800 F   0  0  0  0  0  0  0  0  0  0  0  0
   36.6250   27.5520   43.4590 F   0  0  0  0  0  0  0  0  0  0  0  0
   41.5470   31.9690   42.0350 C   0  0  0  0  0  0  0  0  0  0  0  0
   42.2700   32.2580   41.0910 O   0  0  0  0  0  0  0  0  0  0  0  0
   40.1240   31.9620   42.0180 N   0  0  0  0  0  0  0  0  0  0  0  0
   39.5890   31.6470   42.8870 H   0  0  0  0  0  0  0  0  0  0  0  0
   42.1760   31.6070   43.2650 N   0  0  0  0  0  0  0  0  0  0  0  0
   42.4690   31.0820   44.1190 H   0  0  0  0  0  0  0  0  0  0  0  0
   42.8630   32.1850   43.8340 H   0  0  0  0  0  0  0  0  0  0  0  0
  1 13  1  0  0  0  0
  1  6  1  0  0  0  0
  2  1  2  0  0  0  0
  3  2  1  0  0  0  0
  3  4  2  0  0  0  0
  4  5  1  0  0  0  0
  5  6  2  0  0  0  0
  5 10  1  0  0  0  0
  6 25  1  0  0  0  0
  7  2  1  0  0  0  0
  8  3  1  0  0  0  0
  9  4  1  0  0  0  0
 11 19  1  0  0  0  0
 12 11  1  0  0  0  0
 12 17  1  0  0  0  0
 13 12  2  0  0  0  0
 14 15  2  0  0  0  0
 14 13  1  0  0  0  0
 15 16  1  0  0  0  0
 16 11  2  0  0  0  0
 18 15  1  0  0  0  0
 19 22  1  0  0  0  0
 19 20  1  0  0  0  0
 21 19  1  0  0  0  0
 23 27  1  0  0  0  0
 24 23  2  0  0  0  0
 25 23  1  0  0  0  0
 25 26  1  0  0  0  0
 27 29  1  0  0  0  0
 27 28  1  0  0  0  0
M  END
>  <minimizedAffinity>
-5.20981741

$$$$

 OpenBabel03252502293D

 29 30  0  0  0  0  0  0  0  0999 V2000
   37.4650   28.0920   38.1360 C   0  0  0  0  0  0  0  0  0  0  0  0
   37.7850   27.3460   37.0080 C   0  0  0  0  0  0  0  0  0  0  0  0
   37.4970   27.9050   35.7520 C   0  0  0  0  0  0  0  0  0  0  0  0
   36.9190   29.1420   35.6660 C   0  0  0  0  0  0  0  0  0  0  0  0
   36.6020   29.8790   36.7700 C   0  0  0  0  0  0  0  0  0  0  0  0
   36.8930   29.3160   38.0110 C   0  0  0  0  0  0  0  0  0  0  0  0
   38.2420   26.3700   37.0750 H   0  0  0  0  0  0  0  0  0  0  0  0
   37.7530   27.3100   34.8860 H   0  0  0  0  0  0  0  0  0  0  0  0
   36.6900   29.5880   34.7070 H   0  0  0  0  0  0  0  0  0  0  0  0
   36.1410   30.8670   36.7100 H   0  0  0  0  0  0  0  0  0  0  0  0
   37.5890   25.8390   41.1540 C   0  0  0  0  0  0  0  0  0  0  0  0
   37.1820   26.3380   39.8970 C   0  0  0  0  0  0  0  0  0  0  0  0
   37.7830   27.4720   39.4060 C   0  0  0  0  0  0  0  0  0  0  0  0
   38.7460   28.0450   40.1810 N   0  0  0  0  0  0  0  0  0  0  0  0
   39.1320   27.5660   41.3800 C   0  0  0  0  0  0  0  0  0  0  0  0
   38.5450   26.4440   41.8770 N   0  0  0  0  0  0  0  0  0  0  0  0
   36.4190   25.8630   39.3100 H   0  0  0  0  0  0  0  0  0  0  0  0
   39.9120   28.0920   41.9280 H   0  0  0  0  0  0  0  0  0  0  0  0
   36.9450   24.6100   41.6950 C   0  0  0  0  0  0  0  0  0  0  0  0
   37.9700   23.6590   41.8700 F   0  0  0  0  0  0  0  0  0  0  0  0
   36.1330   24.1030   40.6850 F   0  0  0  0  0  0  0  0  0  0  0  0
   36.2920   24.8210   42.8770 F   0  0  0  0  0  0  0  0  0  0  0  0
   35.5720   29.9230   40.1940 C   0  0  0  0  0  0  0  0  0  0  0  0
   34.5720   29.2190   40.1270 O   0  0  0  0  0  0  0  0  0  0  0  0
   36.6110   29.9820   39.2240 N   0  0  0  0  0  0  0  0  0  0  0  0
   37.4180   30.6670   39.3580 H   0  0  0  0  0  0  0  0  0  0  0  0
   35.7170   30.7610   41.3410 N   0  0  0  0  0  0  0  0  0  0  0  0
   35.8360   31.5930   41.9590 H   0  0  0  0  0  0  0  0  0  0  0  0
   35.7320   30.4630   42.3610 H   0  0  0  0  0  0  0  0  0  0  0  0
  1 13  1  0  0  0  0
  2  7  1  0  0  0  0
  2  1  2  0  0  0  0
  3  2  1  0  0  0  0
  4  3  2  0  0  0  0
  4  5  1  0  0  0  0
  5  6  2  0  0  0  0
  6  1  1  0  0  0  0
  6 25  1  0  0  0  0
  8  3  1  0  0  0  0
  9  4  1  0  0  0  0
 10  5  1  0  0  0  0
 11 19  1  0  0  0  0
 11 16  1  0  0  0  0
 12 11  2  0  0  0  0
 13 12  1  0  0  0  0
 13 14  2  0  0  0  0
 14 15  1  0  0  0  0
 15 16  2  0  0  0  0
 15 18  1  0  0  0  0
 17 12  1  0  0  0  0
 19 20  1  0  0  0  0
 19 22  1  0  0  0  0
 21 19  1  0  0  0  0
 23 27  1  0  0  0  0
 24 23  2  0  0  0  0
 25 26  1  0  0  0  0
 25 23  1  0  0  0  0
 27 28  1  0  0  0  0
 27 29  1  0  0  0  0
M  END
>  <minimizedAffinity>
-5.17321634

$$$$

 OpenBabel03252502293D

 29 30  0  0  0  0  0  0  0  0999 V2000
   37.4550   29.5490   39.6140 C   0  0  0  0  0  0  0  0  0  0  0  0
   36.5070   29.2370   38.6460 C   0  0  0  0  0  0  0  0  0  0  0  0
   36.4970   30.0050   37.4700 C   0  0  0  0  0  0  0  0  0  0  0  0
   37.3980   31.0210   37.3050 C   0  0  0  0  0  0  0  0  0  0  0  0
   38.3310   31.3320   38.2510 C   0  0  0  0  0  0  0  0  0  0  0  0
   38.3320   30.5650   39.4130 C   0  0  0  0  0  0  0  0  0  0  0  0
   35.7960   28.4350   38.7760 H   0  0  0  0  0  0  0  0  0  0  0  0
   35.7530   29.7470   36.7290 H   0  0  0  0  0  0  0  0  0  0  0  0
   37.4050   31.6210   36.4050 H   0  0  0  0  0  0  0  0  0  0  0  0
   39.0530   32.1410   38.1260 H   0  0  0  0  0  0  0  0  0  0  0  0
   37.4820   26.6810   42.0580 C   0  0  0  0  0  0  0  0  0  0  0  0
   37.5280   27.3590   40.8190 C   0  0  0  0  0  0  0  0  0  0  0  0
   37.4230   28.7290   40.8070 C   0  0  0  0  0  0  0  0  0  0  0  0
   37.2790   29.3470   42.0120 N   0  0  0  0  0  0  0  0  0  0  0  0
   37.2350   28.6990   43.1920 C   0  0  0  0  0  0  0  0  0  0  0  0
   37.3380   27.3420   43.2190 N   0  0  0  0  0  0  0  0  0  0  0  0
   37.6420   26.8410   39.8860 H   0  0  0  0  0  0  0  0  0  0  0  0
   37.1180   29.2780   44.1060 H   0  0  0  0  0  0  0  0  0  0  0  0
   37.5950   25.1960   42.0830 C   0  0  0  0  0  0  0  0  0  0  0  0
   38.7020   24.8890   42.8990 F   0  0  0  0  0  0  0  0  0  0  0  0
   37.9550   24.7990   40.7990 F   0  0  0  0  0  0  0  0  0  0  0  0
   36.4730   24.5800   42.5600 F   0  0  0  0  0  0  0  0  0  0  0  0
   39.5710   31.8920   41.3060 C   0  0  0  0  0  0  0  0  0  0  0  0
   39.0760   33.0100   41.2410 O   0  0  0  0  0  0  0  0  0  0  0  0
   39.2490   30.7920   40.4640 N   0  0  0  0  0  0  0  0  0  0  0  0
   39.7760   29.8710   40.5760 H   0  0  0  0  0  0  0  0  0  0  0  0
   40.5570   31.6620   42.3130 N   0  0  0  0  0  0  0  0  0  0  0  0
   41.4480   31.4170   42.7980 H   0  0  0  0  0  0  0  0  0  0  0  0
   40.4510   31.7890   43.3630 H   0  0  0  0  0  0  0  0  0  0  0  0
  1 13  1  0  0  0  0
  2  7  1  0  0  0  0
  2  1  2  0  0  0  0
  3  2  1  0  0  0  0
  4  3  2  0  0  0  0
  4  5  1  0  0  0  0
  5  6  2  0  0  0  0
  6  1  1  0  0  0  0
  6 25  1  0  0  0  0
  8  3  1  0  0  0  0
  9  4  1  0  0  0  0
 10  5  1  0  0  0  0
 11 19  1  0  0  0  0
 11 16  1  0  0  0  0
 12 11  2  0  0  0  0
 13 12  1  0  0  0  0
 13 14  2  0  0  0  0
 14 15  1  0  0  0  0
 15 16  2  0  0  0  0
 15 18  1  0  0  0  0
 17 12  1  0  0  0  0
 19 22  1  0  0  0  0
 19 20  1  0  0  0  0
 21 19  1  0  0  0  0
 23 27  1  0  0  0  0
 24 23  2  0  0  0  0
 25 26  1  0  0  0  0
 25 23  1  0  0  0  0
 27 28  1  0  0  0  0
 27 29  1  0  0  0  0
M  END
>  <minimizedAffinity>
-5.14430809

$$$$

 OpenBabel03252502293D

 29 30  0  0  0  0  0  0  0  0999 V2000
   35.6670   27.3970   38.4010 C   0  0  0  0  0  0  0  0  0  0  0  0
   35.5040   26.5980   37.2750 C   0  0  0  0  0  0  0  0  0  0  0  0
   34.5000   26.9560   36.3610 C   0  0  0  0  0  0  0  0  0  0  0  0
   33.7190   28.0550   36.5910 C   0  0  0  0  0  0  0  0  0  0  0  0
   33.8740   28.8430   37.6950 C   0  0  0  0  0  0  0  0  0  0  0  0
   34.8730   28.4800   38.5950 C   0  0  0  0  0  0  0  0  0  0  0  0
   36.1210   25.7310   37.0920 H   0  0  0  0  0  0  0  0  0  0  0  0
   34.3880   26.3220   35.4910 H   0  0  0  0  0  0  0  0  0  0  0  0
   32.9420   28.3440   35.8970 H   0  0  0  0  0  0  0  0  0  0  0  0
   33.2550   29.7220   37.8850 H   0  0  0  0  0  0  0  0  0  0  0  0
   37.7380   25.6250   41.0040 C   0  0  0  0  0  0  0  0  0  0  0  0
   36.6370   25.9140   40.1660 C   0  0  0  0  0  0  0  0  0  0  0  0
   36.7160   26.9870   39.3120 C   0  0  0  0  0  0  0  0  0  0  0  0
   37.8710   27.7100   39.3330 N   0  0  0  0  0  0  0  0  0  0  0  0
   38.9190   27.4320   40.1340 C   0  0  0  0  0  0  0  0  0  0  0  0
   38.8540   26.3720   40.9840 N   0  0  0  0  0  0  0  0  0  0  0  0
   35.7400   25.3240   40.1730 H   0  0  0  0  0  0  0  0  0  0  0  0
   39.8010   28.0660   40.0810 H   0  0  0  0  0  0  0  0  0  0  0  0
   37.6630   24.4640   41.9330 C   0  0  0  0  0  0  0  0  0  0  0  0
   36.4700   24.6110   42.6690 F   0  0  0  0  0  0  0  0  0  0  0  0
   38.6930   24.6200   42.8560 F   0  0  0  0  0  0  0  0  0  0  0  0
   37.6730   23.2590   41.2890 F   0  0  0  0  0  0  0  0  0  0  0  0
   35.8440   30.4050   40.0890 C   0  0  0  0  0  0  0  0  0  0  0  0
   36.4960   31.0770   39.3000 O   0  0  0  0  0  0  0  0  0  0  0  0
   35.1280   29.2170   39.7720 N   0  0  0  0  0  0  0  0  0  0  0  0
   34.6290   28.6810   40.5490 H   0  0  0  0  0  0  0  0  0  0  0  0
   35.7910   30.8430   41.4470 N   0  0  0  0  0  0  0  0  0  0  0  0
   35.8690   30.8790   42.4870 H   0  0  0  0  0  0  0  0  0  0  0  0
   35.4540   31.7840   41.8100 H   0  0  0  0  0  0  0  0  0  0  0  0
  1  6  1  0  0  0  0
  1 13  1  0  0  0  0
  2  1  2  0  0  0  0
  3  4  2  0  0  0  0
  3  2  1  0  0  0  0
  4  5  1  0  0  0  0
  5 10  1  0  0  0  0
  5  6  2  0  0  0  0
  6 25  1  0  0  0  0
  7  2  1  0  0  0  0
  8  3  1  0  0  0  0
  9  4  1  0  0  0  0
 11 19  1  0  0  0  0
 12 17  1  0  0  0  0
 12 11  2  0  0  0  0
 13 14  2  0  0  0  0
 13 12  1  0  0  0  0
 14 15  1  0  0  0  0
 15 16  2  0  0  0  0
 16 11  1  0  0  0  0
 18 15  1  0  0  0  0
 19 20  1  0  0  0  0
 19 21  1  0  0  0  0
 22 19  1  0  0  0  0
 23 27  1  0  0  0  0
 24 23  2  0  0  0  0
 25 23  1  0  0  0  0
 25 26  1  0  0  0  0
 27 29  1  0  0  0  0
 27 28  1  0  0  0  0
M  END
>  <minimizedAffinity>
-5.09812927

$$$$

 OpenBabel03252502293D

 29 30  0  0  0  0  0  0  0  0999 V2000
   36.9310   26.1880   40.2500 C   0  0  0  0  0  0  0  0  0  0  0  0
   37.0590   25.0600   39.4470 C   0  0  0  0  0  0  0  0  0  0  0  0
   37.3860   23.8470   40.0730 C   0  0  0  0  0  0  0  0  0  0  0  0
   37.5710   23.7990   41.4270 C   0  0  0  0  0  0  0  0  0  0  0  0
   37.4490   24.9020   42.2210 C   0  0  0  0  0  0  0  0  0  0  0  0
   37.1230   26.1010   41.5910 C   0  0  0  0  0  0  0  0  0  0  0  0
   36.9120   25.0970   38.3780 H   0  0  0  0  0  0  0  0  0  0  0  0
   37.4810   22.9800   39.4310 H   0  0  0  0  0  0  0  0  0  0  0  0
   37.8240   22.8730   41.9250 H   0  0  0  0  0  0  0  0  0  0  0  0
   37.5950   24.8720   43.3030 H   0  0  0  0  0  0  0  0  0  0  0  0
   36.8840   29.6960   38.8740 C   0  0  0  0  0  0  0  0  0  0  0  0
   37.3330   28.5700   39.6000 C   0  0  0  0  0  0  0  0  0  0  0  0
   36.5920   27.4140   39.5570 C   0  0  0  0  0  0  0  0  0  0  0  0
   35.4560   27.4360   38.8050 N   0  0  0  0  0  0  0  0  0  0  0  0
   35.0310   28.5120   38.1130 C   0  0  0  0  0  0  0  0  0  0  0  0
   35.7560   29.6630   38.1470 N   0  0  0  0  0  0  0  0  0  0  0  0
   38.2330   28.5850   40.1840 H   0  0  0  0  0  0  0  0  0  0  0  0
   34.1100   28.4360   37.5390 H   0  0  0  0  0  0  0  0  0  0  0  0
   37.6810   30.9540   38.9130 C   0  0  0  0  0  0  0  0  0  0  0  0
   38.9920   30.5910   39.2790 F   0  0  0  0  0  0  0  0  0  0  0  0
   37.1920   31.7070   39.9770 F   0  0  0  0  0  0  0  0  0  0  0  0
   37.6920   31.6200   37.7210 F   0  0  0  0  0  0  0  0  0  0  0  0
   37.7570   28.0450   43.2330 C   0  0  0  0  0  0  0  0  0  0  0  0
   38.8450   27.6990   43.6760 O   0  0  0  0  0  0  0  0  0  0  0  0
   36.9690   27.3090   42.3060 N   0  0  0  0  0  0  0  0  0  0  0  0
   36.0100   27.6810   42.0190 H   0  0  0  0  0  0  0  0  0  0  0  0
   37.2260   29.2930   43.6800 N   0  0  0  0  0  0  0  0  0  0  0  0
   36.6020   30.0200   44.0940 H   0  0  0  0  0  0  0  0  0  0  0  0
   37.6780   30.2520   43.6030 H   0  0  0  0  0  0  0  0  0  0  0  0
  1  6  1  0  0  0  0
  2  3  1  0  0  0  0
  2  1  2  0  0  0  0
  3  4  2  0  0  0  0
  4  9  1  0  0  0  0
  4  5  1  0  0  0  0
  5 10  1  0  0  0  0
  6  5  2  0  0  0  0
  6 25  1  0  0  0  0
  7  2  1  0  0  0  0
  8  3  1  0  0  0  0
 11 19  1  0  0  0  0
 11 12  1  0  0  0  0
 12 17  1  0  0  0  0
 13 12  2  0  0  0  0
 13  1  1  0  0  0  0
 14 13  1  0  0  0  0
 15 16  1  0  0  0  0
 15 14  2  0  0  0  0
 16 11  2  0  0  0  0
 18 15  1  0  0  0  0
 19 20  1  0  0  0  0
 19 21  1  0  0  0  0
 22 19  1  0  0  0  0
 23 24  2  0  0  0  0
 23 27  1  0  0  0  0
 25 23  1  0  0  0  0
 26 25  1  0  0  0  0
 27 28  1  0  0  0  0
 29 27  1  0  0  0  0
M  END
>  <minimizedAffinity>
-5.02143574

$$$$

 OpenBabel03252502293D

 29 30  0  0  0  0  0  0  0  0999 V2000
   37.8120   26.2140   40.2110 C   0  0  0  0  0  0  0  0  0  0  0  0
   38.0470   25.1290   39.3750 C   0  0  0  0  0  0  0  0  0  0  0  0
   37.7150   23.8510   39.8540 C   0  0  0  0  0  0  0  0  0  0  0  0
   37.1800   23.7030   41.1040 C   0  0  0  0  0  0  0  0  0  0  0  0
   36.9480   24.7640   41.9300 C   0  0  0  0  0  0  0  0  0  0  0  0
   37.2810   26.0270   41.4450 C   0  0  0  0  0  0  0  0  0  0  0  0
   38.4690   25.2450   38.3870 H   0  0  0  0  0  0  0  0  0  0  0  0
   37.9050   23.0190   39.1880 H   0  0  0  0  0  0  0  0  0  0  0  0
   36.9190   22.7270   41.4890 H   0  0  0  0  0  0  0  0  0  0  0  0
   36.5220   24.6540   42.9290 H   0  0  0  0  0  0  0  0  0  0  0  0
   37.8100   29.5600   38.4780 C   0  0  0  0  0  0  0  0  0  0  0  0
   37.3280   28.3180   38.9470 C   0  0  0  0  0  0  0  0  0  0  0  0
   38.1710   27.5090   39.6700 C   0  0  0  0  0  0  0  0  0  0  0  0
   39.4350   27.9710   39.8860 N   0  0  0  0  0  0  0  0  0  0  0  0
   39.8910   29.1560   39.4370 C   0  0  0  0  0  0  0  0  0  0  0  0
   39.0670   29.9670   38.7200 N   0  0  0  0  0  0  0  0  0  0  0  0
   36.3260   27.9830   38.7600 H   0  0  0  0  0  0  0  0  0  0  0  0
   40.9180   29.4410   39.6590 H   0  0  0  0  0  0  0  0  0  0  0  0
   36.9040   30.4450   37.6940 C   0  0  0  0  0  0  0  0  0  0  0  0
   36.5760   31.5300   38.5300 F   0  0  0  0  0  0  0  0  0  0  0  0
   35.7160   29.7440   37.5090 F   0  0  0  0  0  0  0  0  0  0  0  0
   37.4670   30.8980   36.5340 F   0  0  0  0  0  0  0  0  0  0  0  0
   37.8280   27.8970   43.2010 C   0  0  0  0  0  0  0  0  0  0  0  0
   38.8970   27.5370   43.6770 O   0  0  0  0  0  0  0  0  0  0  0  0
   37.0860   27.2000   42.2070 N   0  0  0  0  0  0  0  0  0  0  0  0
   36.1390   27.5800   41.8950 H   0  0  0  0  0  0  0  0  0  0  0  0
   37.2690   29.1200   43.6800 N   0  0  0  0  0  0  0  0  0  0  0  0
   36.6220   29.8250   44.0980 H   0  0  0  0  0  0  0  0  0  0  0  0
   37.7170   30.0840   43.6670 H   0  0  0  0  0  0  0  0  0  0  0  0
  1  6  1  0  0  0  0
  2  3  1  0  0  0  0
  2  1  2  0  0  0  0
  3  4  2  0  0  0  0
  4  9  1  0  0  0  0
  4  5  1  0  0  0  0
  5 10  1  0  0  0  0
  6  5  2  0  0  0  0
  6 25  1  0  0  0  0
  7  2  1  0  0  0  0
  8  3  1  0  0  0  0
 11 16  2  0  0  0  0
 11 12  1  0  0  0  0
 12 13  2  0  0  0  0
 13 14  1  0  0  0  0
 13  1  1  0  0  0  0
 15 18  1  0  0  0  0
 15 14  2  0  0  0  0
 16 15  1  0  0  0  0
 17 12  1  0  0  0  0
 19 11  1  0  0  0  0
 19 20  1  0  0  0  0
 21 19  1  0  0  0  0
 22 19  1  0  0  0  0
 23 24  2  0  0  0  0
 23 27  1  0  0  0  0
 25 23  1  0  0  0  0
 26 25  1  0  0  0  0
 27 28  1  0  0  0  0
 29 27  1  0  0  0  0
M  END
>  <minimizedAffinity>
-5.00757647

$$$$

 OpenBabel03252502293D

 29 30  0  0  0  0  0  0  0  0999 V2000
   36.7930   30.2480   39.2350 C   0  0  0  0  0  0  0  0  0  0  0  0
   36.5340   30.2580   37.8700 C   0  0  0  0  0  0  0  0  0  0  0  0
   35.4270   29.5260   37.4110 C   0  0  0  0  0  0  0  0  0  0  0  0
   34.6460   28.8320   38.2950 C   0  0  0  0  0  0  0  0  0  0  0  0
   34.8960   28.8180   39.6360 C   0  0  0  0  0  0  0  0  0  0  0  0
   35.9960   29.5490   40.0810 C   0  0  0  0  0  0  0  0  0  0  0  0
   37.1490   30.8050   37.1720 H   0  0  0  0  0  0  0  0  0  0  0  0
   35.2400   29.5450   36.3450 H   0  0  0  0  0  0  0  0  0  0  0  0
   33.7900   28.2630   37.9580 H   0  0  0  0  0  0  0  0  0  0  0  0
   34.2780   28.2680   40.3470 H   0  0  0  0  0  0  0  0  0  0  0  0
   40.2790   31.5470   39.8410 C   0  0  0  0  0  0  0  0  0  0  0  0
   39.2490   30.7050   39.3630 C   0  0  0  0  0  0  0  0  0  0  0  0
   37.9450   31.0190   39.6580 C   0  0  0  0  0  0  0  0  0  0  0  0
   37.7330   32.1400   40.4030 N   0  0  0  0  0  0  0  0  0  0  0  0
   38.7170   32.9410   40.8570 C   0  0  0  0  0  0  0  0  0  0  0  0
   40.0130   32.6410   40.5720 N   0  0  0  0  0  0  0  0  0  0  0  0
   39.4500   29.8280   38.7780 H   0  0  0  0  0  0  0  0  0  0  0  0
   38.4510   33.8160   41.4450 H   0  0  0  0  0  0  0  0  0  0  0  0
   41.6970   31.2150   39.5270 C   0  0  0  0  0  0  0  0  0  0  0  0
   42.4100   32.4300   39.5480 F   0  0  0  0  0  0  0  0  0  0  0  0
   41.7270   30.7880   38.2030 F   0  0  0  0  0  0  0  0  0  0  0  0
   42.2490   30.3300   40.4080 F   0  0  0  0  0  0  0  0  0  0  0  0
   37.0150   28.7420   42.3590 C   0  0  0  0  0  0  0  0  0  0  0  0
   37.4090   27.6100   42.1100 O   0  0  0  0  0  0  0  0  0  0  0  0
   36.3550   29.6100   41.4450 N   0  0  0  0  0  0  0  0  0  0  0  0
   36.0100   30.5630   41.7810 H   0  0  0  0  0  0  0  0  0  0  0  0
   37.2320   29.2430   43.6780 N   0  0  0  0  0  0  0  0  0  0  0  0
   37.0800   29.6400   44.6320 H   0  0  0  0  0  0  0  0  0  0  0  0
   38.1590   29.3430   44.1880 H   0  0  0  0  0  0  0  0  0  0  0  0
  1 13  1  0  0  0  0
  1  6  1  0  0  0  0
  2  1  2  0  0  0  0
  3  2  1  0  0  0  0
  3  4  2  0  0  0  0
  4  5  1  0  0  0  0
  5  6  2  0  0  0  0
  5 10  1  0  0  0  0
  6 25  1  0  0  0  0
  7  2  1  0  0  0  0
  8  3  1  0  0  0  0
  9  4  1  0  0  0  0
 11 16  1  0  0  0  0
 12 13  1  0  0  0  0
 12 11  2  0  0  0  0
 13 14  2  0  0  0  0
 14 15  1  0  0  0  0
 15 18  1  0  0  0  0
 16 15  2  0  0  0  0
 17 12  1  0  0  0  0
 19 20  1  0  0  0  0
 19 11  1  0  0  0  0
 19 22  1  0  0  0  0
 21 19  1  0  0  0  0
 23 27  1  0  0  0  0
 24 23  2  0  0  0  0
 25 26  1  0  0  0  0
 25 23  1  0  0  0  0
 27 29  1  0  0  0  0
 27 28  1  0  0  0  0
M  END
>  <minimizedAffinity>
-4.95642328

$$$$
