
 OpenBabel03242521443D

 32 33  0  0  1  0  0  0  0  0999 V2000
   45.2540   35.5250   44.3210 C   0  0  0  0  0  0  0  0  0  0  0  0
   46.1970   34.7930   43.5950 C   0  0  0  0  0  0  0  0  0  0  0  0
   46.6960   33.5970   44.1070 C   0  0  0  0  0  0  0  0  0  0  0  0
   46.2310   33.2070   45.2950 N   0  0  0  0  0  0  0  0  0  0  0  0
   45.3180   33.9190   45.9930 C   0  0  0  0  0  0  0  0  0  0  0  0
   44.8230   35.0800   45.5150 N   0  0  0  0  0  0  0  0  0  0  0  0
   46.4900   35.2040   42.6610 H   0  0  0  0  0  0  0  0  0  0  0  0
   44.9890   33.5320   46.9570 H   0  0  0  0  0  0  0  0  0  0  0  0
   48.6420   33.7510   42.5750 C   0  0  2  0  0  0  0  0  0  0  0  0
   47.6740   32.8850   43.2990 C   0  0  2  0  0  0  0  0  0  0  0  0
   47.1070   32.1500   42.2160 O   0  0  0  0  0  0  0  0  0  0  0  0
   48.2330   31.6980   41.5560 C   0  0  0  0  0  0  0  0  0  0  0  0
   49.3640   32.6500   41.7710 C   0  0  1  0  0  0  0  0  0  0  0  0
   48.1670   34.3970   41.8130 H   0  0  0  0  0  0  0  0  0  0  0  0
   48.2170   32.1050   43.8770 H   0  0  0  0  0  0  0  0  0  0  0  0
   48.5260   30.7350   42.0510 H   0  0  0  0  0  0  0  0  0  0  0  0
   48.0390   31.4520   40.4920 H   0  0  0  0  0  0  0  0  0  0  0  0
   50.1710   32.2530   42.3900 H   0  0  0  0  0  0  0  0  0  0  0  0
   49.4670   34.4870   43.3690 O   0  0  0  0  0  0  0  0  0  0  0  0
   49.4840   35.4490   43.1800 H   0  0  0  0  0  0  0  0  0  0  0  0
   49.8620   33.2080   40.5990 O   0  0  0  0  0  0  0  0  0  0  0  0
   50.6640   33.7120   40.8550 H   0  0  0  0  0  0  0  0  0  0  0  0
   44.7370   36.8170   43.7510 C   0  0  0  0  0  0  0  0  0  0  0  0
   45.2930   37.0710   42.8500 H   0  0  0  0  0  0  0  0  0  0  0  0
   43.6370   36.7340   43.5810 H   0  0  0  0  0  0  0  0  0  0  0  0
   45.3280   39.1720   44.6230 C   0  0  0  0  0  0  0  0  0  0  0  0
   45.5720   39.5290   43.4360 O   0  0  0  0  0  0  0  0  0  0  0  0
   44.9080   37.8210   44.7930 N   0  0  0  0  0  0  0  0  0  0  0  0
   44.6950   37.5040   45.7860 H   0  0  0  0  0  0  0  0  0  0  0  0
   45.4490   40.0300   45.7500 N   0  0  0  0  0  0  0  0  0  0  0  0
   44.4950   40.2820   46.1390 H   0  0  0  0  0  0  0  0  0  0  0  0
   46.3590   40.3640   46.1420 H   0  0  0  0  0  0  0  0  0  0  0  0
  1  6  1  0  0  0  0
  2  3  1  0  0  0  0
  2  1  2  0  0  0  0
  3  4  2  0  0  0  0
  4  5  1  0  0  0  0
  5  8  1  0  0  0  0
  6  5  2  0  0  0  0
  7  2  1  0  0  0  0
  9 14  1  6  0  0  0
  9 10  1  0  0  0  0
  9 19  1  0  0  0  0
 10 15  1  1  0  0  0
 10  3  1  0  0  0  0
 11 10  1  0  0  0  0
 12 13  1  0  0  0  0
 12 16  1  0  0  0  0
 12 11  1  0  0  0  0
 13 18  1  1  0  0  0
 13  9  1  0  0  0  0
 17 12  1  0  0  0  0
 20 19  1  0  0  0  0
 21 22  1  0  0  0  0
 21 13  1  0  0  0  0
 23  1  1  0  0  0  0
 23 28  1  0  0  0  0
 24 23  1  0  0  0  0
 25 23  1  0  0  0  0
 26 28  1  0  0  0  0
 26 30  1  0  0  0  0
 27 26  2  0  0  0  0
 28 29  1  0  0  0  0
 30 31  1  0  0  0  0
 30 32  1  0  0  0  0
M  END
>  <minimizedAffinity>
-5.46328545

>  <minimizedRMSD>
0.132913187

$$$$
