
 OpenBabel03242521443D

 32 33  0  0  1  0  0  0  0  0999 V2000
   38.5570   30.8640   41.4460 C   0  0  0  0  0  0  0  0  0  0  0  0
   39.5650   31.5680   40.7830 C   0  0  0  0  0  0  0  0  0  0  0  0
   39.2570   32.3340   39.6610 C   0  0  0  0  0  0  0  0  0  0  0  0
   37.9820   32.3530   39.2720 N   0  0  0  0  0  0  0  0  0  0  0  0
   37.0090   31.6690   39.9190 C   0  0  0  0  0  0  0  0  0  0  0  0
   37.2860   30.9210   41.0060 N   0  0  0  0  0  0  0  0  0  0  0  0
   40.5420   31.4760   41.1870 H   0  0  0  0  0  0  0  0  0  0  0  0
   35.9910   31.7370   39.5380 H   0  0  0  0  0  0  0  0  0  0  0  0
   40.8220   32.4490   37.7380 C   0  0  2  0  0  0  0  0  0  0  0  0
   40.3540   33.0420   39.0200 C   0  0  2  0  0  0  0  0  0  0  0  0
   41.5630   33.0430   39.7750 O   0  0  0  0  0  0  0  0  0  0  0  0
   42.4470   33.6470   38.8990 C   0  0  0  0  0  0  0  0  0  0  0  0
   42.0250   33.3820   37.4910 C   0  0  1  0  0  0  0  0  0  0  0  0
   41.2620   31.4410   37.8580 H   0  0  0  0  0  0  0  0  0  0  0  0
   40.1390   34.1260   38.8840 H   0  0  0  0  0  0  0  0  0  0  0  0
   42.3490   34.7520   39.0610 H   0  0  0  0  0  0  0  0  0  0  0  0
   43.5050   33.3950   39.1150 H   0  0  0  0  0  0  0  0  0  0  0  0
   41.6660   34.2650   36.9590 H   0  0  0  0  0  0  0  0  0  0  0  0
   39.9070   32.4490   36.7310 O   0  0  0  0  0  0  0  0  0  0  0  0
   39.7490   31.5800   36.3070 H   0  0  0  0  0  0  0  0  0  0  0  0
   42.9720   32.6970   36.7380 O   0  0  0  0  0  0  0  0  0  0  0  0
   42.6370   32.6910   35.8160 H   0  0  0  0  0  0  0  0  0  0  0  0
   38.9150   30.0360   42.6510 C   0  0  0  0  0  0  0  0  0  0  0  0
   39.6610   29.2930   42.3780 H   0  0  0  0  0  0  0  0  0  0  0  0
   39.2470   30.7090   43.4780 H   0  0  0  0  0  0  0  0  0  0  0  0
   37.4030   28.0250   43.2180 C   0  0  0  0  0  0  0  0  0  0  0  0
   38.3440   27.2500   42.8870 O   0  0  0  0  0  0  0  0  0  0  0  0
   37.6760   29.4190   43.1060 N   0  0  0  0  0  0  0  0  0  0  0  0
   36.8960   30.0870   43.3830 H   0  0  0  0  0  0  0  0  0  0  0  0
   36.1340   27.5810   43.6790 N   0  0  0  0  0  0  0  0  0  0  0  0
   35.7970   26.7480   43.1170 H   0  0  0  0  0  0  0  0  0  0  0  0
   35.6050   28.0220   44.4680 H   0  0  0  0  0  0  0  0  0  0  0  0
  1 23  1  0  0  0  0
  2  7  1  0  0  0  0
  2  1  2  0  0  0  0
  3  2  1  0  0  0  0
  4  3  2  0  0  0  0
  4  5  1  0  0  0  0
  5  6  2  0  0  0  0
  6  1  1  0  0  0  0
  8  5  1  0  0  0  0
  9 14  1  1  0  0  0
  9 10  1  0  0  0  0
 10 15  1  6  0  0  0
 10  3  1  0  0  0  0
 10 11  1  0  0  0  0
 12 16  1  0  0  0  0
 12 17  1  0  0  0  0
 12 11  1  0  0  0  0
 13 18  1  6  0  0  0
 13  9  1  0  0  0  0
 13 12  1  0  0  0  0
 19  9  1  0  0  0  0
 20 19  1  0  0  0  0
 21 13  1  0  0  0  0
 22 21  1  0  0  0  0
 23 28  1  0  0  0  0
 23 25  1  0  0  0  0
 24 23  1  0  0  0  0
 26 30  1  0  0  0  0
 27 26  2  0  0  0  0
 28 26  1  0  0  0  0
 28 29  1  0  0  0  0
 30 32  1  0  0  0  0
 31 30  1  0  0  0  0
M  END
>  <minimizedAffinity>
-5.56547832

$$$$

 OpenBabel03242521443D

 32 33  0  0  1  0  0  0  0  0999 V2000
   38.3320   26.7040   41.6010 C   0  0  0  0  0  0  0  0  0  0  0  0
   38.4650   28.0510   41.2560 C   0  0  0  0  0  0  0  0  0  0  0  0
   37.7300   29.0200   41.9340 C   0  0  0  0  0  0  0  0  0  0  0  0
   36.9170   28.5960   42.9030 N   0  0  0  0  0  0  0  0  0  0  0  0
   36.7920   27.2900   43.2330 C   0  0  0  0  0  0  0  0  0  0  0  0
   37.4940   26.3360   42.5890 N   0  0  0  0  0  0  0  0  0  0  0  0
   39.1440   28.2660   40.4690 H   0  0  0  0  0  0  0  0  0  0  0  0
   36.1070   27.0250   44.0370 H   0  0  0  0  0  0  0  0  0  0  0  0
   36.7860   30.9920   40.7600 C   0  0  2  0  0  0  0  0  0  0  0  0
   37.9180   30.4030   41.5250 C   0  0  2  0  0  0  0  0  0  0  0  0
   38.9930   30.5950   40.6080 O   0  0  0  0  0  0  0  0  0  0  0  0
   38.8640   31.9350   40.2920 C   0  0  0  0  0  0  0  0  0  0  0  0
   37.4350   32.3500   40.4200 C   0  0  1  0  0  0  0  0  0  0  0  0
   36.6170   30.5030   39.7830 H   0  0  0  0  0  0  0  0  0  0  0  0
   38.1900   31.0660   42.3770 H   0  0  0  0  0  0  0  0  0  0  0  0
   39.4340   32.5020   41.0730 H   0  0  0  0  0  0  0  0  0  0  0  0
   39.3300   32.1940   39.3190 H   0  0  0  0  0  0  0  0  0  0  0  0
   37.2410   33.0350   41.2480 H   0  0  0  0  0  0  0  0  0  0  0  0
   35.6150   31.0960   41.4460 O   0  0  0  0  0  0  0  0  0  0  0  0
   34.8340   30.6990   41.0070 H   0  0  0  0  0  0  0  0  0  0  0  0
   36.8770   32.8260   39.2380 O   0  0  0  0  0  0  0  0  0  0  0  0
   35.9910   33.1740   39.4740 H   0  0  0  0  0  0  0  0  0  0  0  0
   39.1290   25.6740   40.8480 C   0  0  0  0  0  0  0  0  0  0  0  0
   38.6250   24.7110   40.8940 H   0  0  0  0  0  0  0  0  0  0  0  0
   39.3030   26.0300   39.8040 H   0  0  0  0  0  0  0  0  0  0  0  0
   40.8320   24.8210   42.5880 C   0  0  0  0  0  0  0  0  0  0  0  0
   39.9390   24.0630   43.0610 O   0  0  0  0  0  0  0  0  0  0  0  0
   40.4410   25.6290   41.4820 N   0  0  0  0  0  0  0  0  0  0  0  0
   41.1810   26.2720   41.0690 H   0  0  0  0  0  0  0  0  0  0  0  0
   42.1580   24.8970   43.0950 N   0  0  0  0  0  0  0  0  0  0  0  0
   42.1600   24.8760   44.1540 H   0  0  0  0  0  0  0  0  0  0  0  0
   43.0150   24.9660   42.4970 H   0  0  0  0  0  0  0  0  0  0  0  0
  1  6  1  0  0  0  0
  2  1  2  0  0  0  0
  2  3  1  0  0  0  0
  3  4  2  0  0  0  0
  4  5  1  0  0  0  0
  5  8  1  0  0  0  0
  6  5  2  0  0  0  0
  7  2  1  0  0  0  0
  9 14  1  6  0  0  0
  9 19  1  0  0  0  0
  9 10  1  0  0  0  0
 10  3  1  0  0  0  0
 10 15  1  1  0  0  0
 11 10  1  0  0  0  0
 12 13  1  0  0  0  0
 12 11  1  0  0  0  0
 12 16  1  0  0  0  0
 13  9  1  0  0  0  0
 13 18  1  1  0  0  0
 17 12  1  0  0  0  0
 20 19  1  0  0  0  0
 21 22  1  0  0  0  0
 21 13  1  0  0  0  0
 23 24  1  0  0  0  0
 23 28  1  0  0  0  0
 23  1  1  0  0  0  0
 25 23  1  0  0  0  0
 26 27  2  0  0  0  0
 26 30  1  0  0  0  0
 28 26  1  0  0  0  0
 29 28  1  0  0  0  0
 30 31  1  0  0  0  0
 32 30  1  0  0  0  0
M  END
>  <minimizedAffinity>
-5.41164827

$$$$

 OpenBabel03242521443D

 32 33  0  0  1  0  0  0  0  0999 V2000
   37.1810   29.9450   41.4170 C   0  0  0  0  0  0  0  0  0  0  0  0
   36.9320   28.5740   41.5220 C   0  0  0  0  0  0  0  0  0  0  0  0
   37.8300   27.7530   42.1980 C   0  0  0  0  0  0  0  0  0  0  0  0
   38.9080   28.3370   42.7230 N   0  0  0  0  0  0  0  0  0  0  0  0
   39.1440   29.6650   42.6200 C   0  0  0  0  0  0  0  0  0  0  0  0
   38.2870   30.4780   41.9690 N   0  0  0  0  0  0  0  0  0  0  0  0
   36.0400   28.2250   41.0640 H   0  0  0  0  0  0  0  0  0  0  0  0
   40.0480   30.0650   43.0770 H   0  0  0  0  0  0  0  0  0  0  0  0
   38.6850   25.4240   42.2840 C   0  0  2  0  0  0  0  0  0  0  0  0
   37.5090   26.3360   42.2700 C   0  0  2  0  0  0  0  0  0  0  0  0
   36.7990   25.8440   41.1360 O   0  0  0  0  0  0  0  0  0  0  0  0
   36.7460   24.4880   41.3980 C   0  0  0  0  0  0  0  0  0  0  0  0
   37.9240   24.0840   42.2220 C   0  0  1  0  0  0  0  0  0  0  0  0
   39.2780   25.4600   41.3510 H   0  0  0  0  0  0  0  0  0  0  0  0
   36.8300   26.0950   43.1180 H   0  0  0  0  0  0  0  0  0  0  0  0
   35.8380   24.3220   42.0330 H   0  0  0  0  0  0  0  0  0  0  0  0
   36.5990   23.8790   40.4820 H   0  0  0  0  0  0  0  0  0  0  0  0
   37.6750   23.7880   43.2430 H   0  0  0  0  0  0  0  0  0  0  0  0
   39.5010   25.5470   43.3660 O   0  0  0  0  0  0  0  0  0  0  0  0
   40.4490   25.6860   43.1640 H   0  0  0  0  0  0  0  0  0  0  0  0
   38.7410   23.1360   41.6140 O   0  0  0  0  0  0  0  0  0  0  0  0
   39.3980   22.8670   42.2900 H   0  0  0  0  0  0  0  0  0  0  0  0
   36.2010   30.8110   40.6740 C   0  0  0  0  0  0  0  0  0  0  0  0
   36.0450   30.4150   39.6730 H   0  0  0  0  0  0  0  0  0  0  0  0
   35.2570   30.8950   41.2660 H   0  0  0  0  0  0  0  0  0  0  0  0
   37.3330   32.8180   39.5150 C   0  0  0  0  0  0  0  0  0  0  0  0
   37.3160   32.1740   38.4290 O   0  0  0  0  0  0  0  0  0  0  0  0
   36.7770   32.1490   40.6440 N   0  0  0  0  0  0  0  0  0  0  0  0
   36.7800   32.6770   41.5670 H   0  0  0  0  0  0  0  0  0  0  0  0
   37.8630   34.1300   39.6530 N   0  0  0  0  0  0  0  0  0  0  0  0
   38.7630   34.2350   39.1040 H   0  0  0  0  0  0  0  0  0  0  0  0
   37.4190   34.8890   40.2230 H   0  0  0  0  0  0  0  0  0  0  0  0
  1  2  2  0  0  0  0
  1  6  1  0  0  0  0
  2  3  1  0  0  0  0
  3 10  1  0  0  0  0
  3  4  2  0  0  0  0
  5  4  1  0  0  0  0
  5  8  1  0  0  0  0
  6  5  2  0  0  0  0
  7  2  1  0  0  0  0
  9 14  1  6  0  0  0
  9 19  1  0  0  0  0
 10  9  1  0  0  0  0
 10 15  1  1  0  0  0
 11 12  1  0  0  0  0
 11 10  1  0  0  0  0
 12 16  1  0  0  0  0
 12 13  1  0  0  0  0
 13  9  1  0  0  0  0
 13 18  1  1  0  0  0
 17 12  1  0  0  0  0
 20 19  1  0  0  0  0
 21 13  1  0  0  0  0
 21 22  1  0  0  0  0
 23 25  1  0  0  0  0
 23  1  1  0  0  0  0
 24 23  1  0  0  0  0
 26 30  1  0  0  0  0
 26 28  1  0  0  0  0
 27 26  2  0  0  0  0
 28 23  1  0  0  0  0
 28 29  1  0  0  0  0
 30 32  1  0  0  0  0
 31 30  1  0  0  0  0
M  END
>  <minimizedAffinity>
-5.33832216

$$$$

 OpenBabel03242521443D

 32 33  0  0  1  0  0  0  0  0999 V2000
   37.7020   28.0470   42.2960 C   0  0  0  0  0  0  0  0  0  0  0  0
   38.4140   29.2420   42.1630 C   0  0  0  0  0  0  0  0  0  0  0  0
   37.8720   30.2980   41.4340 C   0  0  0  0  0  0  0  0  0  0  0  0
   36.6700   30.1040   40.8900 N   0  0  0  0  0  0  0  0  0  0  0  0
   35.9850   28.9450   41.0230 C   0  0  0  0  0  0  0  0  0  0  0  0
   36.4920   27.9110   41.7240 N   0  0  0  0  0  0  0  0  0  0  0  0
   39.3610   29.2780   42.6420 H   0  0  0  0  0  0  0  0  0  0  0  0
   35.0080   28.8670   40.5480 H   0  0  0  0  0  0  0  0  0  0  0  0
   38.2250   32.4700   40.2860 C   0  0  2  0  0  0  0  0  0  0  0  0
   38.6660   31.5130   41.3360 C   0  0  2  0  0  0  0  0  0  0  0  0
   40.0200   31.2910   40.9480 O   0  0  0  0  0  0  0  0  0  0  0  0
   40.4920   32.5820   40.8050 C   0  0  0  0  0  0  0  0  0  0  0  0
   39.3710   33.4930   40.4260 C   0  0  1  0  0  0  0  0  0  0  0  0
   38.3230   32.0680   39.2590 H   0  0  0  0  0  0  0  0  0  0  0  0
   38.7650   32.0370   42.3130 H   0  0  0  0  0  0  0  0  0  0  0  0
   40.8400   32.9080   41.8200 H   0  0  0  0  0  0  0  0  0  0  0  0
   41.3770   32.6450   40.1390 H   0  0  0  0  0  0  0  0  0  0  0  0
   39.0930   34.2080   41.2020 H   0  0  0  0  0  0  0  0  0  0  0  0
   36.9850   33.0000   40.4690 O   0  0  0  0  0  0  0  0  0  0  0  0
   36.3740   32.9130   39.7070 H   0  0  0  0  0  0  0  0  0  0  0  0
   39.5500   34.1300   39.2030 O   0  0  0  0  0  0  0  0  0  0  0  0
   38.8200   34.7810   39.1220 H   0  0  0  0  0  0  0  0  0  0  0  0
   38.3120   26.9180   43.0810 C   0  0  0  0  0  0  0  0  0  0  0  0
   39.3860   27.0700   43.1720 H   0  0  0  0  0  0  0  0  0  0  0  0
   37.7950   26.8290   44.0670 H   0  0  0  0  0  0  0  0  0  0  0  0
   38.6650   24.4410   42.4510 C   0  0  0  0  0  0  0  0  0  0  0  0
   39.6280   24.3920   43.2670 O   0  0  0  0  0  0  0  0  0  0  0  0
   37.9980   25.6970   42.3500 N   0  0  0  0  0  0  0  0  0  0  0  0
   37.1830   25.7560   41.6700 H   0  0  0  0  0  0  0  0  0  0  0  0
   38.2360   23.3400   41.6620 N   0  0  0  0  0  0  0  0  0  0  0  0
   39.0650   22.8010   41.2800 H   0  0  0  0  0  0  0  0  0  0  0  0
   37.2330   23.0970   41.4830 H   0  0  0  0  0  0  0  0  0  0  0  0
  1 23  1  0  0  0  0
  2  1  1  0  0  0  0
  2  7  1  0  0  0  0
  3  2  2  0  0  0  0
  4  5  2  0  0  0  0
  4  3  1  0  0  0  0
  5  6  1  0  0  0  0
  6  1  2  0  0  0  0
  8  5  1  0  0  0  0
  9 14  1  6  0  0  0
  9 13  1  0  0  0  0
  9 19  1  0  0  0  0
  9 10  1  0  0  0  0
 10  3  1  0  0  0  0
 10 15  1  1  0  0  0
 11 10  1  0  0  0  0
 12 11  1  0  0  0  0
 12 16  1  0  0  0  0
 13 12  1  0  0  0  0
 13 18  1  1  0  0  0
 17 12  1  0  0  0  0
 20 19  1  0  0  0  0
 21 13  1  0  0  0  0
 22 21  1  0  0  0  0
 23 24  1  0  0  0  0
 23 25  1  0  0  0  0
 26 27  2  0  0  0  0
 28 26  1  0  0  0  0
 28 23  1  0  0  0  0
 29 28  1  0  0  0  0
 30 26  1  0  0  0  0
 31 30  1  0  0  0  0
 32 30  1  0  0  0  0
M  END
>  <minimizedAffinity>
-5.29982185

$$$$

 OpenBabel03242521443D

 32 33  0  0  1  0  0  0  0  0999 V2000
   40.0340   32.7550   38.8360 C   0  0  0  0  0  0  0  0  0  0  0  0
   39.3350   31.5640   39.0510 C   0  0  0  0  0  0  0  0  0  0  0  0
   38.3850   31.4880   40.0670 C   0  0  0  0  0  0  0  0  0  0  0  0
   38.1900   32.5860   40.7980 N   0  0  0  0  0  0  0  0  0  0  0  0
   38.8690   33.7370   40.5850 C   0  0  0  0  0  0  0  0  0  0  0  0
   39.7930   33.8320   39.6070 N   0  0  0  0  0  0  0  0  0  0  0  0
   39.5760   30.7580   38.4050 H   0  0  0  0  0  0  0  0  0  0  0  0
   38.6510   34.5900   41.2250 H   0  0  0  0  0  0  0  0  0  0  0  0
   36.7860   30.1480   41.4120 C   0  0  2  0  0  0  0  0  0  0  0  0
   37.6940   30.2190   40.2350 C   0  0  2  0  0  0  0  0  0  0  0  0
   38.5600   29.1170   40.4960 O   0  0  0  0  0  0  0  0  0  0  0  0
   37.6600   28.0970   40.7400 C   0  0  0  0  0  0  0  0  0  0  0  0
   36.3940   28.6600   41.2970 C   0  0  1  0  0  0  0  0  0  0  0  0
   37.3160   30.2310   42.3790 H   0  0  0  0  0  0  0  0  0  0  0  0
   37.1530   29.9030   39.3150 H   0  0  0  0  0  0  0  0  0  0  0  0
   37.4030   27.6540   39.7430 H   0  0  0  0  0  0  0  0  0  0  0  0
   38.0970   27.2740   41.3420 H   0  0  0  0  0  0  0  0  0  0  0  0
   35.5380   28.5870   40.6240 H   0  0  0  0  0  0  0  0  0  0  0  0
   35.7270   31.0030   41.3780 O   0  0  0  0  0  0  0  0  0  0  0  0
   35.6220   31.5720   42.1690 H   0  0  0  0  0  0  0  0  0  0  0  0
   36.0740   28.1860   42.5640 O   0  0  0  0  0  0  0  0  0  0  0  0
   35.1770   28.5290   42.7670 H   0  0  0  0  0  0  0  0  0  0  0  0
   41.0610   32.8110   37.7390 C   0  0  0  0  0  0  0  0  0  0  0  0
   40.7750   33.5610   37.0040 H   0  0  0  0  0  0  0  0  0  0  0  0
   42.0690   32.9920   38.1830 H   0  0  0  0  0  0  0  0  0  0  0  0
   42.2630   30.8000   36.6590 C   0  0  0  0  0  0  0  0  0  0  0  0
   43.3520   31.4350   36.7370 O   0  0  0  0  0  0  0  0  0  0  0  0
   41.1120   31.4760   37.1570 N   0  0  0  0  0  0  0  0  0  0  0  0
   40.1860   30.9550   37.1030 H   0  0  0  0  0  0  0  0  0  0  0  0
   42.1440   29.4920   36.1160 N   0  0  0  0  0  0  0  0  0  0  0  0
   42.7390   29.3870   35.2450 H   0  0  0  0  0  0  0  0  0  0  0  0
   41.5460   28.7360   36.5240 H   0  0  0  0  0  0  0  0  0  0  0  0
  1  2  2  0  0  0  0
  1  6  1  0  0  0  0
  2  3  1  0  0  0  0
  3 10  1  0  0  0  0
  3  4  2  0  0  0  0
  5  4  1  0  0  0  0
  5  8  1  0  0  0  0
  6  5  2  0  0  0  0
  7  2  1  0  0  0  0
  9 14  1  1  0  0  0
 10 15  1  6  0  0  0
 10 11  1  0  0  0  0
 10  9  1  0  0  0  0
 11 12  1  0  0  0  0
 12 13  1  0  0  0  0
 12 17  1  0  0  0  0
 13 18  1  6  0  0  0
 13  9  1  0  0  0  0
 13 21  1  0  0  0  0
 16 12  1  0  0  0  0
 19  9  1  0  0  0  0
 19 20  1  0  0  0  0
 21 22  1  0  0  0  0
 23 25  1  0  0  0  0
 23  1  1  0  0  0  0
 24 23  1  0  0  0  0
 26 27  2  0  0  0  0
 26 28  1  0  0  0  0
 28 23  1  0  0  0  0
 29 28  1  0  0  0  0
 30 32  1  0  0  0  0
 30 26  1  0  0  0  0
 31 30  1  0  0  0  0
M  END
>  <minimizedAffinity>
-5.27027464

$$$$

 OpenBabel03242521443D

 32 33  0  0  1  0  0  0  0  0999 V2000
   35.9920   29.8720   39.0180 C   0  0  0  0  0  0  0  0  0  0  0  0
   36.9700   30.8160   39.3400 C   0  0  0  0  0  0  0  0  0  0  0  0
   37.8100   31.3160   38.3480 C   0  0  0  0  0  0  0  0  0  0  0  0
   37.6280   30.8520   37.1100 N   0  0  0  0  0  0  0  0  0  0  0  0
   36.6780   29.9380   36.8040 C   0  0  0  0  0  0  0  0  0  0  0  0
   35.8560   29.4410   37.7500 N   0  0  0  0  0  0  0  0  0  0  0  0
   37.0180   31.1100   40.3590 H   0  0  0  0  0  0  0  0  0  0  0  0
   36.5940   29.6100   35.7690 H   0  0  0  0  0  0  0  0  0  0  0  0
   40.1040   32.2080   38.0330 C   0  0  2  0  0  0  0  0  0  0  0  0
   38.8050   32.2970   38.7520 C   0  0  2  0  0  0  0  0  0  0  0  0
   39.2350   32.1630   40.1040 O   0  0  0  0  0  0  0  0  0  0  0  0
   40.2460   33.1030   40.1780 C   0  0  0  0  0  0  0  0  0  0  0  0
   40.8720   33.2800   38.8330 C   0  0  1  0  0  0  0  0  0  0  0  0
   40.6470   31.2640   38.2240 H   0  0  0  0  0  0  0  0  0  0  0  0
   38.4160   33.3390   38.7120 H   0  0  0  0  0  0  0  0  0  0  0  0
   39.7560   34.0780   40.4350 H   0  0  0  0  0  0  0  0  0  0  0  0
   40.9680   32.8940   40.9940 H   0  0  0  0  0  0  0  0  0  0  0  0
   40.6760   34.2510   38.3740 H   0  0  0  0  0  0  0  0  0  0  0  0
   40.0440   32.4550   36.6960 O   0  0  0  0  0  0  0  0  0  0  0  0
   40.4380   31.7650   36.1230 H   0  0  0  0  0  0  0  0  0  0  0  0
   42.2280   32.9760   38.7970 O   0  0  0  0  0  0  0  0  0  0  0  0
   42.5460   33.2430   37.9090 H   0  0  0  0  0  0  0  0  0  0  0  0
   35.1030   29.3410   40.1090 C   0  0  0  0  0  0  0  0  0  0  0  0
   34.1250   29.8150   40.0510 H   0  0  0  0  0  0  0  0  0  0  0  0
   35.0560   28.2270   40.0400 H   0  0  0  0  0  0  0  0  0  0  0  0
   36.5950   28.7590   42.1310 C   0  0  0  0  0  0  0  0  0  0  0  0
   36.7520   27.5990   41.6560 O   0  0  0  0  0  0  0  0  0  0  0  0
   35.7750   29.6390   41.3670 N   0  0  0  0  0  0  0  0  0  0  0  0
   35.6340   30.6210   41.7500 H   0  0  0  0  0  0  0  0  0  0  0  0
   37.1800   29.2040   43.3470 N   0  0  0  0  0  0  0  0  0  0  0  0
   37.1300   28.4500   44.0900 H   0  0  0  0  0  0  0  0  0  0  0  0
   37.6020   30.1530   43.4870 H   0  0  0  0  0  0  0  0  0  0  0  0
  1  2  1  0  0  0  0
  1 23  1  0  0  0  0
  2  7  1  0  0  0  0
  3 10  1  0  0  0  0
  3  2  2  0  0  0  0
  4  3  1  0  0  0  0
  5  4  2  0  0  0  0
  5  6  1  0  0  0  0
  6  1  2  0  0  0  0
  8  5  1  0  0  0  0
  9 14  1  1  0  0  0
  9 10  1  0  0  0  0
  9 13  1  0  0  0  0
 10 15  1  6  0  0  0
 10 11  1  0  0  0  0
 11 12  1  0  0  0  0
 12 16  1  0  0  0  0
 12 17  1  0  0  0  0
 13 18  1  6  0  0  0
 13 12  1  0  0  0  0
 19  9  1  0  0  0  0
 20 19  1  0  0  0  0
 21 13  1  0  0  0  0
 22 21  1  0  0  0  0
 23 28  1  0  0  0  0
 24 23  1  0  0  0  0
 25 23  1  0  0  0  0
 26 30  1  0  0  0  0
 27 26  2  0  0  0  0
 28 29  1  0  0  0  0
 28 26  1  0  0  0  0
 30 32  1  0  0  0  0
 30 31  1  0  0  0  0
M  END
>  <minimizedAffinity>
-5.24937582

$$$$

 OpenBabel03242521443D

 32 33  0  0  1  0  0  0  0  0999 V2000
   34.4720   29.0730   37.2770 C   0  0  0  0  0  0  0  0  0  0  0  0
   34.7280   28.7650   38.6160 C   0  0  0  0  0  0  0  0  0  0  0  0
   36.0330   28.8050   39.1020 C   0  0  0  0  0  0  0  0  0  0  0  0
   36.9910   29.1430   38.2380 N   0  0  0  0  0  0  0  0  0  0  0  0
   36.7370   29.4410   36.9430 C   0  0  0  0  0  0  0  0  0  0  0  0
   35.4810   29.4080   36.4520 N   0  0  0  0  0  0  0  0  0  0  0  0
   33.8840   28.5110   39.2070 H   0  0  0  0  0  0  0  0  0  0  0  0
   37.5760   29.7080   36.3020 H   0  0  0  0  0  0  0  0  0  0  0  0
   36.6850   29.6040   41.3600 C   0  0  2  0  0  0  0  0  0  0  0  0
   36.2290   28.4750   40.5050 C   0  0  2  0  0  0  0  0  0  0  0  0
   37.2660   27.5240   40.7380 O   0  0  0  0  0  0  0  0  0  0  0  0
   37.3260   27.4980   42.1180 C   0  0  0  0  0  0  0  0  0  0  0  0
   36.8940   28.8170   42.6700 C   0  0  1  0  0  0  0  0  0  0  0  0
   37.6890   29.9810   41.0880 H   0  0  0  0  0  0  0  0  0  0  0  0
   35.3350   27.9890   40.9570 H   0  0  0  0  0  0  0  0  0  0  0  0
   36.5670   26.7450   42.4550 H   0  0  0  0  0  0  0  0  0  0  0  0
   38.3050   27.1410   42.4990 H   0  0  0  0  0  0  0  0  0  0  0  0
   35.9430   28.7880   43.2040 H   0  0  0  0  0  0  0  0  0  0  0  0
   35.8060   30.6370   41.4700 O   0  0  0  0  0  0  0  0  0  0  0  0
   36.1700   31.5230   41.2600 H   0  0  0  0  0  0  0  0  0  0  0  0
   37.8700   29.4600   43.4240 O   0  0  0  0  0  0  0  0  0  0  0  0
   37.4350   30.2430   43.8250 H   0  0  0  0  0  0  0  0  0  0  0  0
   33.0560   29.0150   36.7730 C   0  0  0  0  0  0  0  0  0  0  0  0
   32.8770   29.8370   36.0830 H   0  0  0  0  0  0  0  0  0  0  0  0
   32.8630   28.0110   36.3220 H   0  0  0  0  0  0  0  0  0  0  0  0
   31.0380   29.9110   38.1080 C   0  0  0  0  0  0  0  0  0  0  0  0
   30.7260   30.6270   37.1160 O   0  0  0  0  0  0  0  0  0  0  0  0
   32.1990   29.1000   37.9490 N   0  0  0  0  0  0  0  0  0  0  0  0
   32.4760   28.4870   38.7730 H   0  0  0  0  0  0  0  0  0  0  0  0
   30.3090   29.8820   39.3270 N   0  0  0  0  0  0  0  0  0  0  0  0
   30.0040   30.8560   39.6100 H   0  0  0  0  0  0  0  0  0  0  0  0
   30.1040   29.0110   39.8720 H   0  0  0  0  0  0  0  0  0  0  0  0
  1  2  1  0  0  0  0
  2  3  2  0  0  0  0
  2  7  1  0  0  0  0
  3 10  1  0  0  0  0
  4  3  1  0  0  0  0
  5  4  2  0  0  0  0
  6  5  1  0  0  0  0
  6  1  2  0  0  0  0
  8  5  1  0  0  0  0
  9 14  1  6  0  0  0
  9 19  1  0  0  0  0
  9 13  1  0  0  0  0
 10 11  1  0  0  0  0
 10 15  1  1  0  0  0
 10  9  1  0  0  0  0
 11 12  1  0  0  0  0
 12 16  1  0  0  0  0
 12 17  1  0  0  0  0
 12 13  1  0  0  0  0
 13 18  1  1  0  0  0
 13 21  1  0  0  0  0
 20 19  1  0  0  0  0
 21 22  1  0  0  0  0
 23  1  1  0  0  0  0
 23 28  1  0  0  0  0
 24 23  1  0  0  0  0
 25 23  1  0  0  0  0
 26 30  1  0  0  0  0
 27 26  2  0  0  0  0
 28 26  1  0  0  0  0
 28 29  1  0  0  0  0
 30 31  1  0  0  0  0
 30 32  1  0  0  0  0
M  END
>  <minimizedAffinity>
-5.07165432

$$$$

 OpenBabel03242521443D

 32 33  0  0  1  0  0  0  0  0999 V2000
   38.2290   27.2560   43.2230 C   0  0  0  0  0  0  0  0  0  0  0  0
   37.4440   26.4470   42.3970 C   0  0  0  0  0  0  0  0  0  0  0  0
   37.8890   25.1760   42.0420 C   0  0  0  0  0  0  0  0  0  0  0  0
   39.0720   24.7910   42.5240 N   0  0  0  0  0  0  0  0  0  0  0  0
   39.8270   25.5790   43.3240 C   0  0  0  0  0  0  0  0  0  0  0  0
   39.4150   26.8130   43.6800 N   0  0  0  0  0  0  0  0  0  0  0  0
   36.5220   26.8620   42.0770 H   0  0  0  0  0  0  0  0  0  0  0  0
   40.7810   25.1900   43.6770 H   0  0  0  0  0  0  0  0  0  0  0  0
   37.7060   23.3050   40.4220 C   0  0  2  0  0  0  0  0  0  0  0  0
   37.0230   24.3860   41.1810 C   0  0  2  0  0  0  0  0  0  0  0  0
   36.4300   25.1280   40.1180 O   0  0  0  0  0  0  0  0  0  0  0  0
   35.7870   24.1380   39.4000 C   0  0  0  0  0  0  0  0  0  0  0  0
   36.5060   22.8400   39.5720 C   0  0  1  0  0  0  0  0  0  0  0  0
   38.4460   23.6830   39.6910 H   0  0  0  0  0  0  0  0  0  0  0  0
   36.1430   23.9750   41.7230 H   0  0  0  0  0  0  0  0  0  0  0  0
   34.7770   24.0100   39.8680 H   0  0  0  0  0  0  0  0  0  0  0  0
   35.6050   24.4220   38.3430 H   0  0  0  0  0  0  0  0  0  0  0  0
   35.9520   22.0950   40.1470 H   0  0  0  0  0  0  0  0  0  0  0  0
   38.2570   22.3210   41.1850 O   0  0  0  0  0  0  0  0  0  0  0  0
   39.2020   22.1310   41.0070 H   0  0  0  0  0  0  0  0  0  0  0  0
   36.9850   22.2970   38.3850 O   0  0  0  0  0  0  0  0  0  0  0  0
   37.3240   21.4040   38.6080 H   0  0  0  0  0  0  0  0  0  0  0  0
   37.7310   28.6280   43.5860 C   0  0  0  0  0  0  0  0  0  0  0  0
   37.4100   28.6410   44.6260 H   0  0  0  0  0  0  0  0  0  0  0  0
   38.5250   29.3820   43.3620 H   0  0  0  0  0  0  0  0  0  0  0  0
   36.6080   29.9000   41.6430 C   0  0  0  0  0  0  0  0  0  0  0  0
   37.6620   30.5840   41.5080 O   0  0  0  0  0  0  0  0  0  0  0  0
   36.6310   28.9190   42.6760 N   0  0  0  0  0  0  0  0  0  0  0  0
   35.7540   28.3320   42.8020 H   0  0  0  0  0  0  0  0  0  0  0  0
   35.4480   30.0630   40.8390 N   0  0  0  0  0  0  0  0  0  0  0  0
   35.2470   31.0890   40.6660 H   0  0  0  0  0  0  0  0  0  0  0  0
   34.8700   29.2710   40.4690 H   0  0  0  0  0  0  0  0  0  0  0  0
  1 23  1  0  0  0  0
  1  6  1  0  0  0  0
  2  1  2  0  0  0  0
  3  2  1  0  0  0  0
  3  4  2  0  0  0  0
  4  5  1  0  0  0  0
  5  8  1  0  0  0  0
  5  6  2  0  0  0  0
  7  2  1  0  0  0  0
  9 14  1  6  0  0  0
  9 10  1  0  0  0  0
  9 19  1  0  0  0  0
 10 15  1  1  0  0  0
 10  3  1  0  0  0  0
 11 10  1  0  0  0  0
 12 13  1  0  0  0  0
 12 16  1  0  0  0  0
 12 11  1  0  0  0  0
 13 18  1  1  0  0  0
 13  9  1  0  0  0  0
 17 12  1  0  0  0  0
 20 19  1  0  0  0  0
 21 22  1  0  0  0  0
 21 13  1  0  0  0  0
 23 24  1  0  0  0  0
 25 23  1  0  0  0  0
 26 28  1  0  0  0  0
 27 26  2  0  0  0  0
 28 29  1  0  0  0  0
 28 23  1  0  0  0  0
 30 26  1  0  0  0  0
 31 30  1  0  0  0  0
 32 30  1  0  0  0  0
M  END
>  <minimizedAffinity>
-5.06466818

$$$$

 OpenBabel03242521443D

 32 33  0  0  1  0  0  0  0  0999 V2000
   37.3660   28.5920   41.4770 C   0  0  0  0  0  0  0  0  0  0  0  0
   38.5750   27.9170   41.2910 C   0  0  0  0  0  0  0  0  0  0  0  0
   39.1440   27.2040   42.3430 C   0  0  0  0  0  0  0  0  0  0  0  0
   38.4840   27.2050   43.5020 N   0  0  0  0  0  0  0  0  0  0  0  0
   37.3130   27.8600   43.6770 C   0  0  0  0  0  0  0  0  0  0  0  0
   36.7460   28.5560   42.6710 N   0  0  0  0  0  0  0  0  0  0  0  0
   39.0060   27.9890   40.3230 H   0  0  0  0  0  0  0  0  0  0  0  0
   36.8360   27.8110   44.6550 H   0  0  0  0  0  0  0  0  0  0  0  0
   40.8060   25.5260   43.1080 C   0  0  2  0  0  0  0  0  0  0  0  0
   40.4030   26.5240   42.0810 C   0  0  2  0  0  0  0  0  0  0  0  0
   41.5390   27.3850   42.0820 O   0  0  0  0  0  0  0  0  0  0  0  0
   42.5800   26.4870   41.9470 C   0  0  0  0  0  0  0  0  0  0  0  0
   42.1940   25.1710   42.5370 C   0  0  1  0  0  0  0  0  0  0  0  0
   41.0100   25.9750   44.0980 H   0  0  0  0  0  0  0  0  0  0  0  0
   40.4350   26.0640   41.0680 H   0  0  0  0  0  0  0  0  0  0  0  0
   42.7140   26.3190   40.8470 H   0  0  0  0  0  0  0  0  0  0  0  0
   43.5450   26.8890   42.3180 H   0  0  0  0  0  0  0  0  0  0  0  0
   42.0640   24.3730   41.8030 H   0  0  0  0  0  0  0  0  0  0  0  0
   39.9710   24.4580   43.2370 O   0  0  0  0  0  0  0  0  0  0  0  0
   39.6550   24.2800   44.1470 H   0  0  0  0  0  0  0  0  0  0  0  0
   43.0130   24.7580   43.5820 O   0  0  0  0  0  0  0  0  0  0  0  0
   42.7380   23.8430   43.8020 H   0  0  0  0  0  0  0  0  0  0  0  0
   36.7760   29.3620   40.3280 C   0  0  0  0  0  0  0  0  0  0  0  0
   37.3080   29.1200   39.4100 H   0  0  0  0  0  0  0  0  0  0  0  0
   35.6790   29.1580   40.2690 H   0  0  0  0  0  0  0  0  0  0  0  0
   36.9570   31.8740   39.7700 C   0  0  0  0  0  0  0  0  0  0  0  0
   36.8810   31.5870   38.5430 O   0  0  0  0  0  0  0  0  0  0  0  0
   36.9040   30.7720   40.6720 N   0  0  0  0  0  0  0  0  0  0  0  0
   36.9650   30.9960   41.7100 H   0  0  0  0  0  0  0  0  0  0  0  0
   37.0890   33.1990   40.2680 N   0  0  0  0  0  0  0  0  0  0  0  0
   37.7640   33.7620   39.6760 H   0  0  0  0  0  0  0  0  0  0  0  0
   36.5850   33.5660   41.1100 H   0  0  0  0  0  0  0  0  0  0  0  0
  1  6  1  0  0  0  0
  2  1  2  0  0  0  0
  2  3  1  0  0  0  0
  3  4  2  0  0  0  0
  4  5  1  0  0  0  0
  5  8  1  0  0  0  0
  6  5  2  0  0  0  0
  7  2  1  0  0  0  0
  9 19  1  0  0  0  0
  9 14  1  1  0  0  0
 10 15  1  6  0  0  0
 10 11  1  0  0  0  0
 10  3  1  0  0  0  0
 10  9  1  0  0  0  0
 12 11  1  0  0  0  0
 12 17  1  0  0  0  0
 12 13  1  0  0  0  0
 13 18  1  6  0  0  0
 13  9  1  0  0  0  0
 13 21  1  0  0  0  0
 16 12  1  0  0  0  0
 19 20  1  0  0  0  0
 21 22  1  0  0  0  0
 23 28  1  0  0  0  0
 23  1  1  0  0  0  0
 24 23  1  0  0  0  0
 25 23  1  0  0  0  0
 26 30  1  0  0  0  0
 26 28  1  0  0  0  0
 27 26  2  0  0  0  0
 28 29  1  0  0  0  0
 30 32  1  0  0  0  0
 31 30  1  0  0  0  0
M  END
>  <minimizedAffinity>
-5.01379347

$$$$
