
 OpenBabel03242520183D

 25 26  0  0  0  0  0  0  0  0999 V2000
   38.0370   26.3760   42.4760 C   0  0  0  0  0  0  0  0  0  0  0  0
   37.0530   26.8280   41.5820 C   0  0  0  0  0  0  0  0  0  0  0  0
   36.6690   28.1860   41.6590 C   0  0  0  0  0  0  0  0  0  0  0  0
   37.2810   28.9700   42.5980 N   0  0  0  0  0  0  0  0  0  0  0  0
   38.2250   28.4820   43.4350 C   0  0  0  0  0  0  0  0  0  0  0  0
   38.6060   27.2130   43.3880 N   0  0  0  0  0  0  0  0  0  0  0  0
   36.6390   26.1420   40.8900 H   0  0  0  0  0  0  0  0  0  0  0  0
   38.6780   29.1460   44.1600 H   0  0  0  0  0  0  0  0  0  0  0  0
   38.4320   24.9460   42.3720 C   0  0  0  0  0  0  0  0  0  0  0  0
   39.7280   24.7430   41.6010 C   0  0  0  0  0  0  0  0  0  0  0  0
   39.6180   24.4460   43.0660 C   0  0  0  0  0  0  0  0  0  0  0  0
   37.5870   24.2620   42.2860 H   0  0  0  0  0  0  0  0  0  0  0  0
   39.7400   23.8630   40.8960 H   0  0  0  0  0  0  0  0  0  0  0  0
   40.2750   25.6080   41.2280 H   0  0  0  0  0  0  0  0  0  0  0  0
   39.6300   23.3920   43.3840 H   0  0  0  0  0  0  0  0  0  0  0  0
   40.1740   25.1360   43.7230 H   0  0  0  0  0  0  0  0  0  0  0  0
   35.6390   28.7090   40.7430 C   0  0  0  0  0  0  0  0  0  0  0  0
   35.5400   28.0600   39.8300 H   0  0  0  0  0  0  0  0  0  0  0  0
   34.6310   28.7460   41.1850 H   0  0  0  0  0  0  0  0  0  0  0  0
   35.9790   30.0950   40.2500 C   0  0  0  0  0  0  0  0  0  0  0  0
   35.3770   30.3630   39.3550 H   0  0  0  0  0  0  0  0  0  0  0  0
   37.0530   30.1530   39.9890 H   0  0  0  0  0  0  0  0  0  0  0  0
   35.6680   31.0470   41.3070 N   0  0  0  0  0  0  0  0  0  0  0  0
   35.0760   30.5430   42.0180 H   0  0  0  0  0  0  0  0  0  0  0  0
   35.1370   31.8480   40.9210 H   0  0  0  0  0  0  0  0  0  0  0  0
  1  6  1  0  0  0  0
  2  3  1  0  0  0  0
  2  1  2  0  0  0  0
  3  4  2  0  0  0  0
  4  5  1  0  0  0  0
  5  8  1  0  0  0  0
  6  5  2  0  0  0  0
  7  2  1  0  0  0  0
  9  1  1  0  0  0  0
  9 11  1  0  0  0  0
 10  9  1  0  0  0  0
 10 11  1  0  0  0  0
 11 15  1  0  0  0  0
 11 16  1  0  0  0  0
 12  9  1  0  0  0  0
 13 10  1  0  0  0  0
 14 10  1  0  0  0  0
 17 19  1  0  0  0  0
 17  3  1  0  0  0  0
 18 17  1  0  0  0  0
 20 17  1  0  0  0  0
 20 23  1  0  0  0  0
 21 20  1  0  0  0  0
 22 20  1  0  0  0  0
 23 24  1  0  0  0  0
 25 23  1  0  0  0  0
M  END
>  <minimizedAffinity>
-4.27346087

$$$$

 OpenBabel03242520183D

 25 26  0  0  0  0  0  0  0  0999 V2000
   37.4660   29.4870   42.3580 C   0  0  0  0  0  0  0  0  0  0  0  0
   38.6760   30.1870   42.2280 C   0  0  0  0  0  0  0  0  0  0  0  0
   38.7190   31.2610   41.3100 C   0  0  0  0  0  0  0  0  0  0  0  0
   37.5800   31.5470   40.6090 N   0  0  0  0  0  0  0  0  0  0  0  0
   36.4390   30.8380   40.7740 C   0  0  0  0  0  0  0  0  0  0  0  0
   36.3680   29.8260   41.6270 N   0  0  0  0  0  0  0  0  0  0  0  0
   39.5030   29.8880   42.8180 H   0  0  0  0  0  0  0  0  0  0  0  0
   35.5660   31.1060   40.1940 H   0  0  0  0  0  0  0  0  0  0  0  0
   37.4410   28.3660   43.3360 C   0  0  0  0  0  0  0  0  0  0  0  0
   37.4210   26.9980   42.6710 C   0  0  0  0  0  0  0  0  0  0  0  0
   38.5910   27.4740   43.4780 C   0  0  0  0  0  0  0  0  0  0  0  0
   36.8730   28.5850   44.2410 H   0  0  0  0  0  0  0  0  0  0  0  0
   36.7410   26.2370   43.1480 H   0  0  0  0  0  0  0  0  0  0  0  0
   37.4630   26.9260   41.5850 H   0  0  0  0  0  0  0  0  0  0  0  0
   38.7700   27.0060   44.4590 H   0  0  0  0  0  0  0  0  0  0  0  0
   39.5020   27.6910   42.8950 H   0  0  0  0  0  0  0  0  0  0  0  0
   39.9660   32.0270   41.1370 C   0  0  0  0  0  0  0  0  0  0  0  0
   40.4530   32.2400   42.1270 H   0  0  0  0  0  0  0  0  0  0  0  0
   40.7300   31.5010   40.5440 H   0  0  0  0  0  0  0  0  0  0  0  0
   39.7160   33.3650   40.4840 C   0  0  0  0  0  0  0  0  0  0  0  0
   39.1920   33.2480   39.5120 H   0  0  0  0  0  0  0  0  0  0  0  0
   40.6770   33.8890   40.3120 H   0  0  0  0  0  0  0  0  0  0  0  0
   38.8660   34.1540   41.3660 N   0  0  0  0  0  0  0  0  0  0  0  0
   38.4680   33.4970   42.0870 H   0  0  0  0  0  0  0  0  0  0  0  0
   38.0940   34.5840   40.8250 H   0  0  0  0  0  0  0  0  0  0  0  0
  1  9  1  0  0  0  0
  2  1  1  0  0  0  0
  2  7  1  0  0  0  0
  3  2  2  0  0  0  0
  4  5  2  0  0  0  0
  4  3  1  0  0  0  0
  5  6  1  0  0  0  0
  6  1  2  0  0  0  0
  8  5  1  0  0  0  0
  9 11  1  0  0  0  0
  9 12  1  0  0  0  0
 10 13  1  0  0  0  0
 10  9  1  0  0  0  0
 10 11  1  0  0  0  0
 11 15  1  0  0  0  0
 14 10  1  0  0  0  0
 16 11  1  0  0  0  0
 17  3  1  0  0  0  0
 17 18  1  0  0  0  0
 19 17  1  0  0  0  0
 20 17  1  0  0  0  0
 20 23  1  0  0  0  0
 21 20  1  0  0  0  0
 22 20  1  0  0  0  0
 23 24  1  0  0  0  0
 25 23  1  0  0  0  0
M  END
>  <minimizedAffinity>
-4.05534792

$$$$

 OpenBabel03242520183D

 25 26  0  0  0  0  0  0  0  0999 V2000
   38.6470   28.7440   42.7730 C   0  0  0  0  0  0  0  0  0  0  0  0
   37.5210   29.2660   42.1160 C   0  0  0  0  0  0  0  0  0  0  0  0
   37.6790   30.4760   41.4020 C   0  0  0  0  0  0  0  0  0  0  0  0
   38.9170   31.0570   41.3970 N   0  0  0  0  0  0  0  0  0  0  0  0
   39.9700   30.5090   42.0480 C   0  0  0  0  0  0  0  0  0  0  0  0
   39.8520   29.3760   42.7270 N   0  0  0  0  0  0  0  0  0  0  0  0
   36.6040   28.7400   42.1800 H   0  0  0  0  0  0  0  0  0  0  0  0
   40.9280   31.0100   42.0120 H   0  0  0  0  0  0  0  0  0  0  0  0
   38.4600   27.4670   43.5110 C   0  0  0  0  0  0  0  0  0  0  0  0
   38.5550   26.2420   42.6130 C   0  0  0  0  0  0  0  0  0  0  0  0
   39.5700   26.5300   43.6780 C   0  0  0  0  0  0  0  0  0  0  0  0
   37.7460   27.5340   44.3330 H   0  0  0  0  0  0  0  0  0  0  0  0
   37.8050   25.4270   42.8230 H   0  0  0  0  0  0  0  0  0  0  0  0
   38.7800   26.3660   41.5550 H   0  0  0  0  0  0  0  0  0  0  0  0
   39.5820   25.8880   44.5720 H   0  0  0  0  0  0  0  0  0  0  0  0
   40.5660   26.8220   43.3030 H   0  0  0  0  0  0  0  0  0  0  0  0
   36.5270   31.0650   40.6960 C   0  0  0  0  0  0  0  0  0  0  0  0
   35.8840   30.2690   40.2310 H   0  0  0  0  0  0  0  0  0  0  0  0
   35.8530   31.6380   41.3510 H   0  0  0  0  0  0  0  0  0  0  0  0
   36.9630   31.9750   39.5730 C   0  0  0  0  0  0  0  0  0  0  0  0
   36.2100   31.9970   38.7560 H   0  0  0  0  0  0  0  0  0  0  0  0
   37.9310   31.6310   39.1590 H   0  0  0  0  0  0  0  0  0  0  0  0
   37.0970   33.3250   40.1020 N   0  0  0  0  0  0  0  0  0  0  0  0
   36.6260   33.3400   41.0440 H   0  0  0  0  0  0  0  0  0  0  0  0
   36.6300   34.0030   39.4720 H   0  0  0  0  0  0  0  0  0  0  0  0
  1  9  1  0  0  0  0
  2  7  1  0  0  0  0
  2  1  2  0  0  0  0
  3  2  1  0  0  0  0
  4  3  2  0  0  0  0
  4  5  1  0  0  0  0
  5  6  2  0  0  0  0
  6  1  1  0  0  0  0
  8  5  1  0  0  0  0
  9 11  1  0  0  0  0
  9 12  1  0  0  0  0
 10 13  1  0  0  0  0
 10  9  1  0  0  0  0
 10 11  1  0  0  0  0
 11 15  1  0  0  0  0
 14 10  1  0  0  0  0
 16 11  1  0  0  0  0
 17 19  1  0  0  0  0
 17  3  1  0  0  0  0
 18 17  1  0  0  0  0
 20 23  1  0  0  0  0
 20 17  1  0  0  0  0
 21 20  1  0  0  0  0
 22 20  1  0  0  0  0
 23 24  1  0  0  0  0
 25 23  1  0  0  0  0
M  END
>  <minimizedAffinity>
-3.95029759

$$$$

 OpenBabel03242520183D

 25 26  0  0  0  0  0  0  0  0999 V2000
   37.9510   26.7340   42.0320 C   0  0  0  0  0  0  0  0  0  0  0  0
   37.7730   27.6150   40.9530 C   0  0  0  0  0  0  0  0  0  0  0  0
   37.6630   28.9940   41.2430 C   0  0  0  0  0  0  0  0  0  0  0  0
   37.7370   29.3790   42.5540 N   0  0  0  0  0  0  0  0  0  0  0  0
   37.9110   28.4850   43.5550 C   0  0  0  0  0  0  0  0  0  0  0  0
   38.0170   27.1860   43.3150 N   0  0  0  0  0  0  0  0  0  0  0  0
   37.7290   27.2180   39.9730 H   0  0  0  0  0  0  0  0  0  0  0  0
   37.9640   28.8430   44.5750 H   0  0  0  0  0  0  0  0  0  0  0  0
   38.0740   25.2880   41.7030 C   0  0  0  0  0  0  0  0  0  0  0  0
   36.7850   24.5150   41.9400 C   0  0  0  0  0  0  0  0  0  0  0  0
   37.3510   24.7170   40.5670 C   0  0  0  0  0  0  0  0  0  0  0  0
   39.0560   24.8690   41.9220 H   0  0  0  0  0  0  0  0  0  0  0  0
   36.9100   23.4950   42.4030 H   0  0  0  0  0  0  0  0  0  0  0  0
   35.8940   25.0420   42.2780 H   0  0  0  0  0  0  0  0  0  0  0  0
   37.7900   23.8490   40.0530 H   0  0  0  0  0  0  0  0  0  0  0  0
   36.7680   25.3940   39.9190 H   0  0  0  0  0  0  0  0  0  0  0  0
   37.4740   29.9600   40.1460 C   0  0  0  0  0  0  0  0  0  0  0  0
   38.4510   30.2030   39.6450 H   0  0  0  0  0  0  0  0  0  0  0  0
   36.8180   29.5940   39.3420 H   0  0  0  0  0  0  0  0  0  0  0  0
   36.9090   31.2700   40.6420 C   0  0  0  0  0  0  0  0  0  0  0  0
   36.7390   31.9790   39.8040 H   0  0  0  0  0  0  0  0  0  0  0  0
   37.6060   31.7340   41.3680 H   0  0  0  0  0  0  0  0  0  0  0  0
   35.6270   31.0040   41.2790 N   0  0  0  0  0  0  0  0  0  0  0  0
   35.3380   30.0280   41.0070 H   0  0  0  0  0  0  0  0  0  0  0  0
   34.9160   31.6800   40.9450 H   0  0  0  0  0  0  0  0  0  0  0  0
  1  6  1  0  0  0  0
  2  3  1  0  0  0  0
  2  1  2  0  0  0  0
  3  4  2  0  0  0  0
  4  5  1  0  0  0  0
  5  8  1  0  0  0  0
  6  5  2  0  0  0  0
  7  2  1  0  0  0  0
  9 12  1  0  0  0  0
  9 10  1  0  0  0  0
  9  1  1  0  0  0  0
 10 14  1  0  0  0  0
 10 13  1  0  0  0  0
 11  9  1  0  0  0  0
 11 10  1  0  0  0  0
 15 11  1  0  0  0  0
 16 11  1  0  0  0  0
 17 20  1  0  0  0  0
 17  3  1  0  0  0  0
 18 17  1  0  0  0  0
 19 17  1  0  0  0  0
 20 23  1  0  0  0  0
 20 22  1  0  0  0  0
 21 20  1  0  0  0  0
 24 23  1  0  0  0  0
 25 23  1  0  0  0  0
M  END
>  <minimizedAffinity>
-3.94539285

$$$$

 OpenBabel03242520183D

 25 26  0  0  0  0  0  0  0  0999 V2000
   37.6930   29.5240   42.5480 C   0  0  0  0  0  0  0  0  0  0  0  0
   39.0030   30.0290   42.5870 C   0  0  0  0  0  0  0  0  0  0  0  0
   39.3300   31.0770   41.6970 C   0  0  0  0  0  0  0  0  0  0  0  0
   38.3500   31.5310   40.8570 N   0  0  0  0  0  0  0  0  0  0  0  0
   37.1020   31.0080   40.8630 C   0  0  0  0  0  0  0  0  0  0  0  0
   36.7650   30.0240   41.6850 N   0  0  0  0  0  0  0  0  0  0  0  0
   39.6900   29.6100   43.2740 H   0  0  0  0  0  0  0  0  0  0  0  0
   36.3630   31.4040   40.1780 H   0  0  0  0  0  0  0  0  0  0  0  0
   37.3690   28.4280   43.4990 C   0  0  0  0  0  0  0  0  0  0  0  0
   37.0810   27.1050   42.8040 C   0  0  0  0  0  0  0  0  0  0  0  0
   38.2830   27.3000   43.6780 C   0  0  0  0  0  0  0  0  0  0  0  0
   36.8170   28.7580   44.3790 H   0  0  0  0  0  0  0  0  0  0  0  0
   36.2240   26.5100   43.2300 H   0  0  0  0  0  0  0  0  0  0  0  0
   37.1630   27.0370   41.7200 H   0  0  0  0  0  0  0  0  0  0  0  0
   38.3020   26.7940   44.6550 H   0  0  0  0  0  0  0  0  0  0  0  0
   39.2480   27.3150   43.1440 H   0  0  0  0  0  0  0  0  0  0  0  0
   40.6920   31.6410   41.6980 C   0  0  0  0  0  0  0  0  0  0  0  0
   41.1850   31.5150   40.6960 H   0  0  0  0  0  0  0  0  0  0  0  0
   40.7230   32.7220   41.9050 H   0  0  0  0  0  0  0  0  0  0  0  0
   41.5830   30.9530   42.7040 C   0  0  0  0  0  0  0  0  0  0  0  0
   42.1890   30.1530   42.2250 H   0  0  0  0  0  0  0  0  0  0  0  0
   40.9700   30.5030   43.5100 H   0  0  0  0  0  0  0  0  0  0  0  0
   42.4950   31.9410   43.2610 N   0  0  0  0  0  0  0  0  0  0  0  0
   42.4480   32.7940   42.6440 H   0  0  0  0  0  0  0  0  0  0  0  0
   43.4630   31.5710   43.2650 H   0  0  0  0  0  0  0  0  0  0  0  0
  1  2  1  0  0  0  0
  1  9  1  0  0  0  0
  2  7  1  0  0  0  0
  3 17  1  0  0  0  0
  3  2  2  0  0  0  0
  4  5  2  0  0  0  0
  4  3  1  0  0  0  0
  5  6  1  0  0  0  0
  6  1  2  0  0  0  0
  8  5  1  0  0  0  0
  9 11  1  0  0  0  0
  9 12  1  0  0  0  0
 10 13  1  0  0  0  0
 10  9  1  0  0  0  0
 10 11  1  0  0  0  0
 11 15  1  0  0  0  0
 14 10  1  0  0  0  0
 16 11  1  0  0  0  0
 17 19  1  0  0  0  0
 17 20  1  0  0  0  0
 18 17  1  0  0  0  0
 20 23  1  0  0  0  0
 20 22  1  0  0  0  0
 21 20  1  0  0  0  0
 23 25  1  0  0  0  0
 24 23  1  0  0  0  0
M  END
>  <minimizedAffinity>
-3.87784791

$$$$

 OpenBabel03242520183D

 25 26  0  0  0  0  0  0  0  0999 V2000
   36.8940   28.7620   41.3080 C   0  0  0  0  0  0  0  0  0  0  0  0
   37.5320   29.9550   41.6870 C   0  0  0  0  0  0  0  0  0  0  0  0
   37.9730   30.8190   40.6590 C   0  0  0  0  0  0  0  0  0  0  0  0
   37.7500   30.4370   39.3650 N   0  0  0  0  0  0  0  0  0  0  0  0
   37.1290   29.2750   39.0560 C   0  0  0  0  0  0  0  0  0  0  0  0
   36.7050   28.4440   39.9980 N   0  0  0  0  0  0  0  0  0  0  0  0
   37.6560   30.1600   42.7180 H   0  0  0  0  0  0  0  0  0  0  0  0
   36.9780   29.0210   38.0150 H   0  0  0  0  0  0  0  0  0  0  0  0
   36.4300   27.8720   42.4060 C   0  0  0  0  0  0  0  0  0  0  0  0
   37.3850   26.7190   42.6780 C   0  0  0  0  0  0  0  0  0  0  0  0
   37.1530   27.8130   43.6760 C   0  0  0  0  0  0  0  0  0  0  0  0
   35.3470   27.7580   42.4510 H   0  0  0  0  0  0  0  0  0  0  0  0
   36.8960   25.7240   42.8830 H   0  0  0  0  0  0  0  0  0  0  0  0
   38.3120   26.6420   42.1130 H   0  0  0  0  0  0  0  0  0  0  0  0
   36.5860   27.5730   44.5880 H   0  0  0  0  0  0  0  0  0  0  0  0
   38.0090   28.4930   43.8270 H   0  0  0  0  0  0  0  0  0  0  0  0
   38.6490   32.0830   41.0050 C   0  0  0  0  0  0  0  0  0  0  0  0
   38.2770   32.4870   41.9860 H   0  0  0  0  0  0  0  0  0  0  0  0
   39.7380   31.9830   41.1250 H   0  0  0  0  0  0  0  0  0  0  0  0
   38.3930   33.1560   39.9740 C   0  0  0  0  0  0  0  0  0  0  0  0
   38.6970   32.8190   38.9590 H   0  0  0  0  0  0  0  0  0  0  0  0
   38.9590   34.0720   40.2310 H   0  0  0  0  0  0  0  0  0  0  0  0
   36.9650   33.4380   39.9500 N   0  0  0  0  0  0  0  0  0  0  0  0
   36.4830   32.6600   40.4720 H   0  0  0  0  0  0  0  0  0  0  0  0
   36.6220   33.4610   38.9720 H   0  0  0  0  0  0  0  0  0  0  0  0
  1  2  1  0  0  0  0
  1  9  1  0  0  0  0
  2  7  1  0  0  0  0
  3 17  1  0  0  0  0
  3  2  2  0  0  0  0
  4  3  1  0  0  0  0
  5  4  2  0  0  0  0
  5  6  1  0  0  0  0
  6  1  2  0  0  0  0
  8  5  1  0  0  0  0
  9 12  1  0  0  0  0
  9 10  1  0  0  0  0
  9 11  1  0  0  0  0
 10 13  1  0  0  0  0
 10 11  1  0  0  0  0
 11 16  1  0  0  0  0
 11 15  1  0  0  0  0
 14 10  1  0  0  0  0
 17 19  1  0  0  0  0
 17 18  1  0  0  0  0
 20 22  1  0  0  0  0
 20 17  1  0  0  0  0
 21 20  1  0  0  0  0
 23 20  1  0  0  0  0
 23 24  1  0  0  0  0
 25 23  1  0  0  0  0
M  END
>  <minimizedAffinity>
-3.78481221

$$$$

 OpenBabel03242520183D

 25 26  0  0  0  0  0  0  0  0999 V2000
   36.7990   28.8290   41.7650 C   0  0  0  0  0  0  0  0  0  0  0  0
   36.5580   27.4570   41.5880 C   0  0  0  0  0  0  0  0  0  0  0  0
   37.3710   26.5490   42.3050 C   0  0  0  0  0  0  0  0  0  0  0  0
   38.3380   27.0660   43.1220 N   0  0  0  0  0  0  0  0  0  0  0  0
   38.5270   28.4000   43.2550 C   0  0  0  0  0  0  0  0  0  0  0  0
   37.7810   29.2750   42.5960 N   0  0  0  0  0  0  0  0  0  0  0  0
   35.7830   27.1560   40.9320 H   0  0  0  0  0  0  0  0  0  0  0  0
   39.3070   28.7560   43.9150 H   0  0  0  0  0  0  0  0  0  0  0  0
   35.9260   29.7660   41.0080 C   0  0  0  0  0  0  0  0  0  0  0  0
   36.4070   30.0060   39.5850 C   0  0  0  0  0  0  0  0  0  0  0  0
   35.1230   29.2920   39.8810 C   0  0  0  0  0  0  0  0  0  0  0  0
   35.4950   30.5570   41.6210 H   0  0  0  0  0  0  0  0  0  0  0  0
   36.3340   31.0710   39.2210 H   0  0  0  0  0  0  0  0  0  0  0  0
   37.2860   29.4800   39.2160 H   0  0  0  0  0  0  0  0  0  0  0  0
   34.1780   29.8110   39.6600 H   0  0  0  0  0  0  0  0  0  0  0  0
   35.1260   28.2140   39.6480 H   0  0  0  0  0  0  0  0  0  0  0  0
   37.1580   25.0980   42.1530 C   0  0  0  0  0  0  0  0  0  0  0  0
   36.8410   24.6300   43.1250 H   0  0  0  0  0  0  0  0  0  0  0  0
   36.3660   24.8400   41.4330 H   0  0  0  0  0  0  0  0  0  0  0  0
   38.4190   24.3870   41.7260 C   0  0  0  0  0  0  0  0  0  0  0  0
   39.0850   25.0620   41.1450 H   0  0  0  0  0  0  0  0  0  0  0  0
   38.1670   23.5080   41.1010 H   0  0  0  0  0  0  0  0  0  0  0  0
   39.1340   23.9640   42.9220 N   0  0  0  0  0  0  0  0  0  0  0  0
   38.7080   24.4730   43.7390 H   0  0  0  0  0  0  0  0  0  0  0  0
   40.1370   24.2130   42.8450 H   0  0  0  0  0  0  0  0  0  0  0  0
  1  6  1  0  0  0  0
  2  1  2  0  0  0  0
  2  3  1  0  0  0  0
  3  4  2  0  0  0  0
  4  5  1  0  0  0  0
  5  8  1  0  0  0  0
  6  5  2  0  0  0  0
  7  2  1  0  0  0  0
  9 12  1  0  0  0  0
  9  1  1  0  0  0  0
 10 11  1  0  0  0  0
 10  9  1  0  0  0  0
 11  9  1  0  0  0  0
 13 10  1  0  0  0  0
 14 10  1  0  0  0  0
 15 11  1  0  0  0  0
 16 11  1  0  0  0  0
 17  3  1  0  0  0  0
 17 18  1  0  0  0  0
 19 17  1  0  0  0  0
 20 17  1  0  0  0  0
 20 23  1  0  0  0  0
 21 20  1  0  0  0  0
 22 20  1  0  0  0  0
 23 24  1  0  0  0  0
 25 23  1  0  0  0  0
M  END
>  <minimizedAffinity>
-3.78180408

$$$$

 OpenBabel03242520183D

 25 26  0  0  0  0  0  0  0  0999 V2000
   38.0310   30.1220   41.8810 C   0  0  0  0  0  0  0  0  0  0  0  0
   38.7930   30.8780   40.9750 C   0  0  0  0  0  0  0  0  0  0  0  0
   38.1070   31.5310   39.9260 C   0  0  0  0  0  0  0  0  0  0  0  0
   36.7480   31.3840   39.8620 N   0  0  0  0  0  0  0  0  0  0  0  0
   36.0640   30.6430   40.7640 C   0  0  0  0  0  0  0  0  0  0  0  0
   36.6790   30.0180   41.7580 N   0  0  0  0  0  0  0  0  0  0  0  0
   39.8410   30.9310   41.1100 H   0  0  0  0  0  0  0  0  0  0  0  0
   34.9900   30.5590   40.6680 H   0  0  0  0  0  0  0  0  0  0  0  0
   38.7730   29.4500   42.9820 C   0  0  0  0  0  0  0  0  0  0  0  0
   38.8050   27.9360   42.8380 C   0  0  0  0  0  0  0  0  0  0  0  0
   40.0430   28.7730   42.7220 C   0  0  0  0  0  0  0  0  0  0  0  0
   38.6680   29.9440   43.9480 H   0  0  0  0  0  0  0  0  0  0  0  0
   38.6630   27.3550   43.7940 H   0  0  0  0  0  0  0  0  0  0  0  0
   38.3440   27.4670   41.9710 H   0  0  0  0  0  0  0  0  0  0  0  0
   40.7830   28.7220   43.5360 H   0  0  0  0  0  0  0  0  0  0  0  0
   40.4720   28.8290   41.7080 H   0  0  0  0  0  0  0  0  0  0  0  0
   38.8600   32.3370   38.9480 C   0  0  0  0  0  0  0  0  0  0  0  0
   38.2590   33.2210   38.6000 H   0  0  0  0  0  0  0  0  0  0  0  0
   39.7950   32.7590   39.3490 H   0  0  0  0  0  0  0  0  0  0  0  0
   39.2060   31.5410   37.7130 C   0  0  0  0  0  0  0  0  0  0  0  0
   38.2920   31.2480   37.1530 H   0  0  0  0  0  0  0  0  0  0  0  0
   39.7620   30.6250   37.9940 H   0  0  0  0  0  0  0  0  0  0  0  0
   40.0220   32.3760   36.8430 N   0  0  0  0  0  0  0  0  0  0  0  0
   39.9440   33.3660   37.1950 H   0  0  0  0  0  0  0  0  0  0  0  0
   39.6720   32.3260   35.8690 H   0  0  0  0  0  0  0  0  0  0  0  0
  1  9  1  0  0  0  0
  2  7  1  0  0  0  0
  2  1  2  0  0  0  0
  3  2  1  0  0  0  0
  4  3  2  0  0  0  0
  4  5  1  0  0  0  0
  5  6  2  0  0  0  0
  6  1  1  0  0  0  0
  8  5  1  0  0  0  0
  9 12  1  0  0  0  0
 10  9  1  0  0  0  0
 10 13  1  0  0  0  0
 11 10  1  0  0  0  0
 11  9  1  0  0  0  0
 11 15  1  0  0  0  0
 14 10  1  0  0  0  0
 16 11  1  0  0  0  0
 17 19  1  0  0  0  0
 17  3  1  0  0  0  0
 18 17  1  0  0  0  0
 20 22  1  0  0  0  0
 20 17  1  0  0  0  0
 21 20  1  0  0  0  0
 23 24  1  0  0  0  0
 23 20  1  0  0  0  0
 25 23  1  0  0  0  0
M  END
>  <minimizedAffinity>
-3.76079369

$$$$

 OpenBabel03242520183D

 25 26  0  0  0  0  0  0  0  0999 V2000
   35.7370   29.5770   39.1230 C   0  0  0  0  0  0  0  0  0  0  0  0
   36.6280   30.4450   38.4700 C   0  0  0  0  0  0  0  0  0  0  0  0
   37.2670   31.4370   39.2480 C   0  0  0  0  0  0  0  0  0  0  0  0
   36.9770   31.4860   40.5840 N   0  0  0  0  0  0  0  0  0  0  0  0
   36.1100   30.6220   41.1620 C   0  0  0  0  0  0  0  0  0  0  0  0
   35.4950   29.6820   40.4590 N   0  0  0  0  0  0  0  0  0  0  0  0
   36.7860   30.3250   37.4300 H   0  0  0  0  0  0  0  0  0  0  0  0
   35.9170   30.7040   42.2230 H   0  0  0  0  0  0  0  0  0  0  0  0
   35.0830   28.5360   38.2870 C   0  0  0  0  0  0  0  0  0  0  0  0
   33.6320   28.8610   37.9630 C   0  0  0  0  0  0  0  0  0  0  0  0
   34.6940   28.8220   36.9060 C   0  0  0  0  0  0  0  0  0  0  0  0
   35.4210   27.5220   38.5020 H   0  0  0  0  0  0  0  0  0  0  0  0
   32.9180   27.9890   38.0080 H   0  0  0  0  0  0  0  0  0  0  0  0
   33.1990   29.7970   38.3100 H   0  0  0  0  0  0  0  0  0  0  0  0
   34.6790   27.9910   36.1850 H   0  0  0  0  0  0  0  0  0  0  0  0
   34.9580   29.8040   36.4770 H   0  0  0  0  0  0  0  0  0  0  0  0
   38.2110   32.3730   38.6100 C   0  0  0  0  0  0  0  0  0  0  0  0
   37.7110   32.9580   37.7910 H   0  0  0  0  0  0  0  0  0  0  0  0
   38.6200   33.1270   39.3000 H   0  0  0  0  0  0  0  0  0  0  0  0
   39.3730   31.6500   37.9730 C   0  0  0  0  0  0  0  0  0  0  0  0
   39.1150   30.5930   37.7460 H   0  0  0  0  0  0  0  0  0  0  0  0
   40.2490   31.6670   38.6520 H   0  0  0  0  0  0  0  0  0  0  0  0
   39.6970   32.3170   36.7200 N   0  0  0  0  0  0  0  0  0  0  0  0
   38.8920   32.9560   36.4880 H   0  0  0  0  0  0  0  0  0  0  0  0
   39.8130   31.6180   35.9640 H   0  0  0  0  0  0  0  0  0  0  0  0
  1  6  1  0  0  0  0
  2  1  2  0  0  0  0
  2  3  1  0  0  0  0
  3  4  2  0  0  0  0
  4  5  1  0  0  0  0
  5  8  1  0  0  0  0
  6  5  2  0  0  0  0
  7  2  1  0  0  0  0
  9 12  1  0  0  0  0
  9  1  1  0  0  0  0
 10 13  1  0  0  0  0
 10  9  1  0  0  0  0
 10 14  1  0  0  0  0
 11 10  1  0  0  0  0
 11  9  1  0  0  0  0
 15 11  1  0  0  0  0
 16 11  1  0  0  0  0
 17  3  1  0  0  0  0
 17 19  1  0  0  0  0
 18 17  1  0  0  0  0
 20 17  1  0  0  0  0
 20 22  1  0  0  0  0
 21 20  1  0  0  0  0
 23 20  1  0  0  0  0
 24 23  1  0  0  0  0
 25 23  1  0  0  0  0
M  END
>  <minimizedAffinity>
-3.7474916

$$$$
