
 OpenBabel03252509333D

 34 35  0  0  1  0  0  0  0  0999 V2000
   37.4330   29.5930   39.9260 O   0  0  0  0  0  0  0  0  0  0  0  0
   37.1030   30.4280   41.1160 P   0  0  2  0  0  0  0  0  0  0  0  0
   35.4730   30.8110   41.2100 O   0  0  0  0  0  0  0  0  0  0  0  0
   35.1060   30.8010   42.1230 H   0  0  0  0  0  0  0  0  0  0  0  0
   37.9190   31.9140   41.0070 O   0  0  0  0  0  0  0  0  0  0  0  0
   37.8480   32.3440   39.7160 C   0  0  0  0  0  0  0  0  0  0  0  0
   37.3580   31.7280   38.9790 H   0  0  0  0  0  0  0  0  0  0  0  0
   37.2430   33.3000   39.7490 H   0  0  0  0  0  0  0  0  0  0  0  0
   41.0850   34.1270   39.3010 C   0  0  0  0  0  0  0  0  0  0  0  0
   39.8380   33.7630   39.8200 C   0  0  0  0  0  0  0  0  0  0  0  0
   39.1560   32.7390   39.1860 C   0  0  0  0  0  0  0  0  0  0  0  0
   39.7330   32.1430   38.0930 N   0  0  0  0  0  0  0  0  0  0  0  0
   40.9400   32.5270   37.6240 C   0  0  0  0  0  0  0  0  0  0  0  0
   41.6000   33.5060   38.2260 N   0  0  0  0  0  0  0  0  0  0  0  0
   41.6040   34.9220   39.8020 H   0  0  0  0  0  0  0  0  0  0  0  0
   39.4310   34.2630   40.6800 H   0  0  0  0  0  0  0  0  0  0  0  0
   41.3710   32.0360   36.7580 H   0  0  0  0  0  0  0  0  0  0  0  0
   37.6430   29.6540   42.5100 O   0  0  0  0  0  0  0  0  0  0  0  0
   37.9820   28.3370   42.1980 C   0  0  1  0  0  0  0  0  0  0  0  0
   38.9000   27.7020   43.2080 C   0  0  0  0  0  0  0  0  0  0  0  0
   38.7840   26.2400   42.8330 C   0  0  0  0  0  0  0  0  0  0  0  0
   37.4060   26.0660   42.2140 C   0  0  0  0  0  0  0  0  0  0  0  0
   36.7480   27.4370   42.3510 C   0  0  1  0  0  0  0  0  0  0  0  0
   38.3560   28.1940   41.1840 H   0  0  0  0  0  0  0  0  0  0  0  0
   38.6000   27.9010   44.2370 H   0  0  0  0  0  0  0  0  0  0  0  0
   39.9370   28.0000   42.9940 H   0  0  0  0  0  0  0  0  0  0  0  0
   39.5900   25.9020   42.1450 H   0  0  0  0  0  0  0  0  0  0  0  0
   38.7840   25.6550   43.7640 H   0  0  0  0  0  0  0  0  0  0  0  0
   36.8070   25.2730   42.6910 H   0  0  0  0  0  0  0  0  0  0  0  0
   37.5630   25.9010   41.1270 H   0  0  0  0  0  0  0  0  0  0  0  0
   36.0440   27.6300   41.5430 H   0  0  0  0  0  0  0  0  0  0  0  0
   36.1770   27.5270   43.6800 N   0  0  0  0  0  0  0  0  0  0  0  0
   36.0280   28.5120   44.0050 H   0  0  0  0  0  0  0  0  0  0  0  0
   35.2220   27.1090   43.6110 H   0  0  0  0  0  0  0  0  0  0  0  0
  2  1  2  6  0  0  0
  2  3  1  0  0  0  0
  2 18  1  0  0  0  0
  3  4  1  0  0  0  0
  5  2  1  0  0  0  0
  6  8  1  0  0  0  0
  6  5  1  0  0  0  0
  7  6  1  0  0  0  0
  9 15  1  0  0  0  0
  9 10  1  0  0  0  0
 10 16  1  0  0  0  0
 11  6  1  0  0  0  0
 11 10  2  0  0  0  0
 12 11  1  0  0  0  0
 13 12  2  0  0  0  0
 13 14  1  0  0  0  0
 14  9  2  0  0  0  0
 17 13  1  0  0  0  0
 19 24  1  6  0  0  0
 19 23  1  0  0  0  0
 19 18  1  0  0  0  0
 19 20  1  0  0  0  0
 20 25  1  0  0  0  0
 21 20  1  0  0  0  0
 21 28  1  0  0  0  0
 22 23  1  0  0  0  0
 22 29  1  0  0  0  0
 22 21  1  0  0  0  0
 23 31  1  6  0  0  0
 23 32  1  0  0  0  0
 26 20  1  0  0  0  0
 27 21  1  0  0  0  0
 30 22  1  0  0  0  0
 32 33  1  0  0  0  0
 34 32  1  0  0  0  0
M  END
>  <minimizedAffinity>
-5.12159443

$$$$

 OpenBabel03252509333D

 34 35  0  0  1  0  0  0  0  0999 V2000
   38.0490   30.1580   42.4630 O   0  0  0  0  0  0  0  0  0  0  0  0
   37.1570   30.0550   41.2740 P   0  0  2  0  0  0  0  0  0  0  0  0
   35.6780   30.8110   41.5010 O   0  0  0  0  0  0  0  0  0  0  0  0
   35.3370   31.2830   40.7070 H   0  0  0  0  0  0  0  0  0  0  0  0
   36.7970   28.4200   40.9780 O   0  0  0  0  0  0  0  0  0  0  0  0
   36.5920   27.8080   42.1780 C   0  0  0  0  0  0  0  0  0  0  0  0
   36.5750   28.3990   43.0790 H   0  0  0  0  0  0  0  0  0  0  0  0
   35.5610   27.3470   42.1080 H   0  0  0  0  0  0  0  0  0  0  0  0
   37.9830   24.3580   42.1640 C   0  0  0  0  0  0  0  0  0  0  0  0
   37.1040   25.4250   41.9540 C   0  0  0  0  0  0  0  0  0  0  0  0
   37.5010   26.6770   42.3900 C   0  0  0  0  0  0  0  0  0  0  0  0
   38.7240   26.8030   42.9990 N   0  0  0  0  0  0  0  0  0  0  0  0
   39.5430   25.7440   43.1840 C   0  0  0  0  0  0  0  0  0  0  0  0
   39.1690   24.5420   42.7680 N   0  0  0  0  0  0  0  0  0  0  0  0
   37.6630   23.3930   41.8210 H   0  0  0  0  0  0  0  0  0  0  0  0
   36.1560   25.2730   41.4700 H   0  0  0  0  0  0  0  0  0  0  0  0
   40.5030   25.8750   43.6690 H   0  0  0  0  0  0  0  0  0  0  0  0
   37.9600   30.6500   39.9190 O   0  0  0  0  0  0  0  0  0  0  0  0
   38.6320   31.8230   40.2650 C   0  0  1  0  0  0  0  0  0  0  0  0
   39.7930   32.1350   39.3610 C   0  0  0  0  0  0  0  0  0  0  0  0
   40.0680   33.5790   39.7210 C   0  0  0  0  0  0  0  0  0  0  0  0
   38.7430   34.1610   40.1870 C   0  0  0  0  0  0  0  0  0  0  0  0
   37.7340   33.0350   39.9800 C   0  0  1  0  0  0  0  0  0  0  0  0
   38.9240   31.8830   41.3140 H   0  0  0  0  0  0  0  0  0  0  0  0
   39.5570   31.9980   38.3050 H   0  0  0  0  0  0  0  0  0  0  0  0
   40.6710   31.5570   39.6860 H   0  0  0  0  0  0  0  0  0  0  0  0
   40.8610   33.6920   40.4920 H   0  0  0  0  0  0  0  0  0  0  0  0
   40.3330   34.1100   38.7950 H   0  0  0  0  0  0  0  0  0  0  0  0
   38.4520   35.0780   39.6480 H   0  0  0  0  0  0  0  0  0  0  0  0
   38.8270   34.3090   41.2850 H   0  0  0  0  0  0  0  0  0  0  0  0
   36.9240   33.0770   40.7070 H   0  0  0  0  0  0  0  0  0  0  0  0
   37.3020   33.0710   38.5970 N   0  0  0  0  0  0  0  0  0  0  0  0
   36.9090   32.1610   38.2580 H   0  0  0  0  0  0  0  0  0  0  0  0
   36.5070   33.7480   38.5620 H   0  0  0  0  0  0  0  0  0  0  0  0
  2  3  1  0  0  0  0
  2  1  2  1  0  0  0
  4  3  1  0  0  0  0
  5  2  1  0  0  0  0
  5  6  1  0  0  0  0
  6 11  1  0  0  0  0
  6  7  1  0  0  0  0
  8  6  1  0  0  0  0
  9 14  1  0  0  0  0
 10  9  2  0  0  0  0
 10 11  1  0  0  0  0
 11 12  2  0  0  0  0
 12 13  1  0  0  0  0
 13 17  1  0  0  0  0
 14 13  2  0  0  0  0
 15  9  1  0  0  0  0
 16 10  1  0  0  0  0
 18 19  1  0  0  0  0
 18  2  1  0  0  0  0
 19 24  1  1  0  0  0
 20 26  1  0  0  0  0
 20 21  1  0  0  0  0
 20 19  1  0  0  0  0
 21 22  1  0  0  0  0
 21 27  1  0  0  0  0
 22 30  1  0  0  0  0
 23 22  1  0  0  0  0
 23 19  1  0  0  0  0
 23 31  1  1  0  0  0
 25 20  1  0  0  0  0
 28 21  1  0  0  0  0
 29 22  1  0  0  0  0
 32 23  1  0  0  0  0
 33 32  1  0  0  0  0
 34 32  1  0  0  0  0
M  END
>  <minimizedAffinity>
-5.02423954

$$$$

 OpenBabel03252509333D

 34 35  0  0  1  0  0  0  0  0999 V2000
   36.1810   30.3940   38.9400 O   0  0  0  0  0  0  0  0  0  0  0  0
   36.7410   30.8240   40.2520 P   0  0  2  0  0  0  0  0  0  0  0  0
   35.5570   31.0940   41.4080 O   0  0  0  0  0  0  0  0  0  0  0  0
   35.8000   30.7980   42.3150 H   0  0  0  0  0  0  0  0  0  0  0  0
   37.5450   32.3100   40.0630 O   0  0  0  0  0  0  0  0  0  0  0  0
   38.8260   32.1580   40.5010 C   0  0  0  0  0  0  0  0  0  0  0  0
   39.1040   32.5410   41.4690 H   0  0  0  0  0  0  0  0  0  0  0  0
   38.9900   31.0400   40.5690 H   0  0  0  0  0  0  0  0  0  0  0  0
   40.9140   32.3670   37.4310 C   0  0  0  0  0  0  0  0  0  0  0  0
   39.9710   31.9040   38.3540 C   0  0  0  0  0  0  0  0  0  0  0  0
   39.8100   32.6280   39.5220 C   0  0  0  0  0  0  0  0  0  0  0  0
   40.5780   33.7490   39.7100 N   0  0  0  0  0  0  0  0  0  0  0  0
   41.4790   34.1610   38.7920 C   0  0  0  0  0  0  0  0  0  0  0  0
   41.6380   33.4720   37.6710 N   0  0  0  0  0  0  0  0  0  0  0  0
   41.0290   31.7960   36.5290 H   0  0  0  0  0  0  0  0  0  0  0  0
   39.3950   31.0180   38.1570 H   0  0  0  0  0  0  0  0  0  0  0  0
   42.0710   35.0520   38.9690 H   0  0  0  0  0  0  0  0  0  0  0  0
   37.8770   29.6960   40.7740 O   0  0  0  0  0  0  0  0  0  0  0  0
   37.2530   28.7810   41.6220 C   0  0  1  0  0  0  0  0  0  0  0  0
   37.5840   27.3480   41.3010 C   0  0  0  0  0  0  0  0  0  0  0  0
   37.1070   26.6470   42.5540 C   0  0  0  0  0  0  0  0  0  0  0  0
   37.2200   27.6620   43.6800 C   0  0  0  0  0  0  0  0  0  0  0  0
   37.8560   28.8880   43.0290 C   0  0  1  0  0  0  0  0  0  0  0  0
   36.1770   28.9210   41.7250 H   0  0  0  0  0  0  0  0  0  0  0  0
   38.6450   27.1920   41.1050 H   0  0  0  0  0  0  0  0  0  0  0  0
   36.9380   27.0010   40.4810 H   0  0  0  0  0  0  0  0  0  0  0  0
   36.0730   26.2470   42.4620 H   0  0  0  0  0  0  0  0  0  0  0  0
   37.8250   25.8460   42.7830 H   0  0  0  0  0  0  0  0  0  0  0  0
   37.8080   27.3020   44.5400 H   0  0  0  0  0  0  0  0  0  0  0  0
   36.1830   27.9540   43.9520 H   0  0  0  0  0  0  0  0  0  0  0  0
   37.5310   29.8130   43.5040 H   0  0  0  0  0  0  0  0  0  0  0  0
   39.2920   28.6920   43.0160 N   0  0  0  0  0  0  0  0  0  0  0  0
   39.7860   29.2700   42.2960 H   0  0  0  0  0  0  0  0  0  0  0  0
   39.6380   29.0400   43.9390 H   0  0  0  0  0  0  0  0  0  0  0  0
  2  1  2  6  0  0  0
  2 18  1  0  0  0  0
  2  3  1  0  0  0  0
  3  4  1  0  0  0  0
  5  2  1  0  0  0  0
  5  6  1  0  0  0  0
  6  8  1  0  0  0  0
  6  7  1  0  0  0  0
  9 14  2  0  0  0  0
  9 10  1  0  0  0  0
 10 11  2  0  0  0  0
 11 12  1  0  0  0  0
 11  6  1  0  0  0  0
 13 17  1  0  0  0  0
 13 12  2  0  0  0  0
 14 13  1  0  0  0  0
 15  9  1  0  0  0  0
 16 10  1  0  0  0  0
 18 19  1  0  0  0  0
 19 24  1  1  0  0  0
 19 23  1  0  0  0  0
 20 19  1  0  0  0  0
 20 21  1  0  0  0  0
 21 28  1  0  0  0  0
 21 22  1  0  0  0  0
 22 30  1  0  0  0  0
 22 29  1  0  0  0  0
 23 31  1  1  0  0  0
 23 22  1  0  0  0  0
 25 20  1  0  0  0  0
 26 20  1  0  0  0  0
 27 21  1  0  0  0  0
 32 23  1  0  0  0  0
 32 34  1  0  0  0  0
 33 32  1  0  0  0  0
M  END
>  <minimizedAffinity>
-4.90343809

$$$$

 OpenBabel03252509333D

 34 35  0  0  1  0  0  0  0  0999 V2000
   39.0830   28.3890   41.9850 O   0  0  0  0  0  0  0  0  0  0  0  0
   37.6690   28.1980   42.4140 P   0  0  2  0  0  0  0  0  0  0  0  0
   37.2300   29.2070   43.6800 O   0  0  0  0  0  0  0  0  0  0  0  0
   36.3150   29.5640   43.6160 H   0  0  0  0  0  0  0  0  0  0  0  0
   37.4640   26.6150   42.9960 O   0  0  0  0  0  0  0  0  0  0  0  0
   38.3730   25.8130   42.3750 C   0  0  0  0  0  0  0  0  0  0  0  0
   39.3400   26.2130   42.1140 H   0  0  0  0  0  0  0  0  0  0  0  0
   38.5890   24.9780   43.1080 H   0  0  0  0  0  0  0  0  0  0  0  0
   36.1980   23.7020   40.2210 C   0  0  0  0  0  0  0  0  0  0  0  0
   36.7150   24.3280   41.3590 C   0  0  0  0  0  0  0  0  0  0  0  0
   37.8170   25.1490   41.1930 C   0  0  0  0  0  0  0  0  0  0  0  0
   38.3380   25.3020   39.9330 N   0  0  0  0  0  0  0  0  0  0  0  0
   37.8060   24.6770   38.8590 C   0  0  0  0  0  0  0  0  0  0  0  0
   36.7510   23.8900   39.0110 N   0  0  0  0  0  0  0  0  0  0  0  0
   35.3430   23.0690   40.3640 H   0  0  0  0  0  0  0  0  0  0  0  0
   36.2690   24.1750   42.3250 H   0  0  0  0  0  0  0  0  0  0  0  0
   38.2400   24.8180   37.8760 H   0  0  0  0  0  0  0  0  0  0  0  0
   36.6500   28.3860   41.0860 O   0  0  0  0  0  0  0  0  0  0  0  0
   37.1610   29.3860   40.2580 C   0  0  1  0  0  0  0  0  0  0  0  0
   36.3330   29.6180   39.0230 C   0  0  0  0  0  0  0  0  0  0  0  0
   36.8820   30.9460   38.5450 C   0  0  0  0  0  0  0  0  0  0  0  0
   37.3850   31.6690   39.7840 C   0  0  0  0  0  0  0  0  0  0  0  0
   37.0110   30.7510   40.9440 C   0  0  1  0  0  0  0  0  0  0  0  0
   38.2160   29.2700   40.0070 H   0  0  0  0  0  0  0  0  0  0  0  0
   35.2630   29.6510   39.2300 H   0  0  0  0  0  0  0  0  0  0  0  0
   36.6030   28.8730   38.2600 H   0  0  0  0  0  0  0  0  0  0  0  0
   37.6800   30.8360   37.7790 H   0  0  0  0  0  0  0  0  0  0  0  0
   36.0380   31.5370   38.1600 H   0  0  0  0  0  0  0  0  0  0  0  0
   36.9620   32.6790   39.9060 H   0  0  0  0  0  0  0  0  0  0  0  0
   38.4950   31.6660   39.7270 H   0  0  0  0  0  0  0  0  0  0  0  0
   37.7170   30.8320   41.7690 H   0  0  0  0  0  0  0  0  0  0  0  0
   35.6340   31.0240   41.3030 N   0  0  0  0  0  0  0  0  0  0  0  0
   35.1710   30.2370   41.8160 H   0  0  0  0  0  0  0  0  0  0  0  0
   35.6660   31.8180   41.9820 H   0  0  0  0  0  0  0  0  0  0  0  0
  2  1  2  6  0  0  0
  2  5  1  0  0  0  0
  2  3  1  0  0  0  0
  4  3  1  0  0  0  0
  6  5  1  0  0  0  0
  6  8  1  0  0  0  0
  7  6  1  0  0  0  0
  9 15  1  0  0  0  0
  9 10  1  0  0  0  0
 10 16  1  0  0  0  0
 11 10  2  0  0  0  0
 11  6  1  0  0  0  0
 12 11  1  0  0  0  0
 13 14  1  0  0  0  0
 13 12  2  0  0  0  0
 14  9  2  0  0  0  0
 17 13  1  0  0  0  0
 18  2  1  0  0  0  0
 19 24  1  6  0  0  0
 19 23  1  0  0  0  0
 19 18  1  0  0  0  0
 20 25  1  0  0  0  0
 20 19  1  0  0  0  0
 21 20  1  0  0  0  0
 21 22  1  0  0  0  0
 22 29  1  0  0  0  0
 22 23  1  0  0  0  0
 23 32  1  0  0  0  0
 23 31  1  1  0  0  0
 26 20  1  0  0  0  0
 27 21  1  0  0  0  0
 28 21  1  0  0  0  0
 30 22  1  0  0  0  0
 32 33  1  0  0  0  0
 32 34  1  0  0  0  0
M  END
>  <minimizedAffinity>
-4.83322811

$$$$

 OpenBabel03252509333D

 34 35  0  0  1  0  0  0  0  0999 V2000
   39.9380   29.4360   41.0480 O   0  0  0  0  0  0  0  0  0  0  0  0
   39.1230   30.1780   42.0510 P   0  0  2  0  0  0  0  0  0  0  0  0
   39.9110   31.5270   42.6610 O   0  0  0  0  0  0  0  0  0  0  0  0
   39.3280   32.3070   42.8060 H   0  0  0  0  0  0  0  0  0  0  0  0
   38.8250   29.1760   43.3900 O   0  0  0  0  0  0  0  0  0  0  0  0
   37.8970   28.2470   43.0260 C   0  0  0  0  0  0  0  0  0  0  0  0
   36.9610   28.1960   43.5580 H   0  0  0  0  0  0  0  0  0  0  0  0
   37.6160   28.5030   41.9600 H   0  0  0  0  0  0  0  0  0  0  0  0
   40.1410   25.3340   43.5840 C   0  0  0  0  0  0  0  0  0  0  0  0
   39.6190   26.6290   43.6610 C   0  0  0  0  0  0  0  0  0  0  0  0
   38.4580   26.8940   42.9560 C   0  0  0  0  0  0  0  0  0  0  0  0
   37.8880   25.8830   42.2260 N   0  0  0  0  0  0  0  0  0  0  0  0
   38.4260   24.6450   42.1780 C   0  0  0  0  0  0  0  0  0  0  0  0
   39.5380   24.3840   42.8510 N   0  0  0  0  0  0  0  0  0  0  0  0
   41.0410   25.1410   44.1360 H   0  0  0  0  0  0  0  0  0  0  0  0
   40.1060   27.3860   44.2490 H   0  0  0  0  0  0  0  0  0  0  0  0
   37.9520   23.8660   41.5910 H   0  0  0  0  0  0  0  0  0  0  0  0
   37.6340   30.5790   41.3750 O   0  0  0  0  0  0  0  0  0  0  0  0
   37.7690   30.6610   39.9890 C   0  0  1  0  0  0  0  0  0  0  0  0
   36.5060   30.3220   39.2450 C   0  0  0  0  0  0  0  0  0  0  0  0
   36.8280   30.8490   37.8630 C   0  0  0  0  0  0  0  0  0  0  0  0
   37.8140   31.9890   38.0600 C   0  0  0  0  0  0  0  0  0  0  0  0
   37.9420   32.1290   39.5740 C   0  0  1  0  0  0  0  0  0  0  0  0
   38.6210   30.1140   39.5850 H   0  0  0  0  0  0  0  0  0  0  0  0
   35.6200   30.7870   39.6800 H   0  0  0  0  0  0  0  0  0  0  0  0
   36.4200   29.2300   39.1530 H   0  0  0  0  0  0  0  0  0  0  0  0
   37.2320   30.0670   37.1830 H   0  0  0  0  0  0  0  0  0  0  0  0
   35.9100   31.2970   37.4530 H   0  0  0  0  0  0  0  0  0  0  0  0
   37.4970   32.9320   37.5850 H   0  0  0  0  0  0  0  0  0  0  0  0
   38.7980   31.6260   37.6940 H   0  0  0  0  0  0  0  0  0  0  0  0
   38.9290   32.4840   39.8660 H   0  0  0  0  0  0  0  0  0  0  0  0
   36.8450   32.9530   40.0400 N   0  0  0  0  0  0  0  0  0  0  0  0
   36.6250   32.8210   41.0560 H   0  0  0  0  0  0  0  0  0  0  0  0
   37.1700   33.9420   39.9520 H   0  0  0  0  0  0  0  0  0  0  0  0
  2  1  2  6  0  0  0
  2  3  1  0  0  0  0
  2  5  1  0  0  0  0
  3  4  1  0  0  0  0
  6  5  1  0  0  0  0
  6  7  1  0  0  0  0
  8  6  1  0  0  0  0
  9 10  1  0  0  0  0
  9 15  1  0  0  0  0
 10 16  1  0  0  0  0
 11  6  1  0  0  0  0
 11 10  2  0  0  0  0
 12 11  1  0  0  0  0
 13 12  2  0  0  0  0
 13 14  1  0  0  0  0
 14  9  2  0  0  0  0
 17 13  1  0  0  0  0
 18  2  1  0  0  0  0
 19 24  1  6  0  0  0
 19 18  1  0  0  0  0
 20 25  1  0  0  0  0
 20 19  1  0  0  0  0
 21 22  1  0  0  0  0
 21 20  1  0  0  0  0
 22 23  1  0  0  0  0
 23 31  1  1  0  0  0
 23 19  1  0  0  0  0
 23 32  1  0  0  0  0
 26 20  1  0  0  0  0
 27 21  1  0  0  0  0
 28 21  1  0  0  0  0
 29 22  1  0  0  0  0
 30 22  1  0  0  0  0
 32 33  1  0  0  0  0
 34 32  1  0  0  0  0
M  END
>  <minimizedAffinity>
-4.69681787

$$$$

 OpenBabel03252509333D

 34 35  0  0  1  0  0  0  0  0999 V2000
   38.0030   32.0610   40.6690 O   0  0  0  0  0  0  0  0  0  0  0  0
   37.2610   30.7910   40.9060 P   0  0  2  0  0  0  0  0  0  0  0  0
   35.6650   31.0430   41.3540 O   0  0  0  0  0  0  0  0  0  0  0  0
   35.0280   30.3990   40.9680 H   0  0  0  0  0  0  0  0  0  0  0  0
   37.9740   29.9520   42.2000 O   0  0  0  0  0  0  0  0  0  0  0  0
   37.1180   28.9670   42.5910 C   0  0  0  0  0  0  0  0  0  0  0  0
   36.5540   29.0860   43.5010 H   0  0  0  0  0  0  0  0  0  0  0  0
   36.3420   28.9000   41.7700 H   0  0  0  0  0  0  0  0  0  0  0  0
   39.4850   26.2190   43.4150 C   0  0  0  0  0  0  0  0  0  0  0  0
   38.8860   27.4830   43.4020 C   0  0  0  0  0  0  0  0  0  0  0  0
   37.7580   27.6490   42.6170 C   0  0  0  0  0  0  0  0  0  0  0  0
   37.2930   26.5750   41.9020 N   0  0  0  0  0  0  0  0  0  0  0  0
   37.9030   25.3700   41.9430 C   0  0  0  0  0  0  0  0  0  0  0  0
   38.9830   25.2040   42.6920 N   0  0  0  0  0  0  0  0  0  0  0  0
   40.3580   26.1040   44.0280 H   0  0  0  0  0  0  0  0  0  0  0  0
   39.2920   28.2920   43.9820 H   0  0  0  0  0  0  0  0  0  0  0  0
   37.5110   24.5400   41.3660 H   0  0  0  0  0  0  0  0  0  0  0  0
   37.3780   29.8110   39.5410 O   0  0  0  0  0  0  0  0  0  0  0  0
   36.1360   29.7630   38.9070 C   0  0  1  0  0  0  0  0  0  0  0  0
   36.2330   29.5640   37.4190 C   0  0  0  0  0  0  0  0  0  0  0  0
   34.8090   29.1810   37.0790 C   0  0  0  0  0  0  0  0  0  0  0  0
   34.2350   28.5240   38.3240 C   0  0  0  0  0  0  0  0  0  0  0  0
   35.4030   28.4740   39.3050 C   0  0  1  0  0  0  0  0  0  0  0  0
   35.4720   30.5930   39.1490 H   0  0  0  0  0  0  0  0  0  0  0  0
   36.9560   28.7970   37.1400 H   0  0  0  0  0  0  0  0  0  0  0  0
   36.4230   30.5330   36.9340 H   0  0  0  0  0  0  0  0  0  0  0  0
   34.1930   30.0460   36.7480 H   0  0  0  0  0  0  0  0  0  0  0  0
   34.8480   28.4010   36.3050 H   0  0  0  0  0  0  0  0  0  0  0  0
   33.8110   27.5240   38.1380 H   0  0  0  0  0  0  0  0  0  0  0  0
   33.4980   29.2380   38.7500 H   0  0  0  0  0  0  0  0  0  0  0  0
   35.0680   28.5410   40.3390 H   0  0  0  0  0  0  0  0  0  0  0  0
   36.1890   27.2940   39.0040 N   0  0  0  0  0  0  0  0  0  0  0  0
   37.1750   27.3470   39.3520 H   0  0  0  0  0  0  0  0  0  0  0  0
   35.7470   26.5110   39.5370 H   0  0  0  0  0  0  0  0  0  0  0  0
  2  1  2  6  0  0  0
  2  3  1  0  0  0  0
  2  5  1  0  0  0  0
  4  3  1  0  0  0  0
  5  6  1  0  0  0  0
  6 11  1  0  0  0  0
  6  7  1  0  0  0  0
  8  6  1  0  0  0  0
  9 15  1  0  0  0  0
 10  9  1  0  0  0  0
 10 16  1  0  0  0  0
 11 10  2  0  0  0  0
 12 13  2  0  0  0  0
 12 11  1  0  0  0  0
 13 14  1  0  0  0  0
 14  9  2  0  0  0  0
 17 13  1  0  0  0  0
 18  2  1  0  0  0  0
 19 24  1  1  0  0  0
 19 23  1  0  0  0  0
 19 18  1  0  0  0  0
 20 19  1  0  0  0  0
 21 20  1  0  0  0  0
 21 22  1  0  0  0  0
 22 30  1  0  0  0  0
 22 23  1  0  0  0  0
 23 31  1  1  0  0  0
 25 20  1  0  0  0  0
 26 20  1  0  0  0  0
 27 21  1  0  0  0  0
 28 21  1  0  0  0  0
 29 22  1  0  0  0  0
 32 23  1  0  0  0  0
 32 33  1  0  0  0  0
 32 34  1  0  0  0  0
M  END
>  <minimizedAffinity>
-4.64702225

$$$$

 OpenBabel03252509333D

 34 35  0  0  1  0  0  0  0  0999 V2000
   36.3580   30.4010   38.4130 O   0  0  0  0  0  0  0  0  0  0  0  0
   36.2440   30.1100   39.8700 P   0  0  2  0  0  0  0  0  0  0  0  0
   34.6890   29.6810   40.3290 O   0  0  0  0  0  0  0  0  0  0  0  0
   34.6480   28.9690   41.0060 H   0  0  0  0  0  0  0  0  0  0  0  0
   36.6150   31.5110   40.7570 O   0  0  0  0  0  0  0  0  0  0  0  0
   37.2860   32.3670   39.9360 C   0  0  0  0  0  0  0  0  0  0  0  0
   37.2440   32.2200   38.8690 H   0  0  0  0  0  0  0  0  0  0  0  0
   36.8190   33.3830   40.1120 H   0  0  0  0  0  0  0  0  0  0  0  0
   40.6970   33.8030   40.3030 C   0  0  0  0  0  0  0  0  0  0  0  0
   39.3570   33.6710   39.9270 C   0  0  0  0  0  0  0  0  0  0  0  0
   38.6920   32.5230   40.3220 C   0  0  0  0  0  0  0  0  0  0  0  0
   39.3760   31.5870   41.0540 N   0  0  0  0  0  0  0  0  0  0  0  0
   40.6730   31.7540   41.3960 C   0  0  0  0  0  0  0  0  0  0  0  0
   41.3160   32.8510   41.0210 N   0  0  0  0  0  0  0  0  0  0  0  0
   41.2010   34.6980   39.9910 H   0  0  0  0  0  0  0  0  0  0  0  0
   38.8670   34.4360   39.3520 H   0  0  0  0  0  0  0  0  0  0  0  0
   41.1870   30.9960   41.9750 H   0  0  0  0  0  0  0  0  0  0  0  0
   37.3670   28.9300   40.2950 O   0  0  0  0  0  0  0  0  0  0  0  0
   36.8630   28.1820   41.3600 C   0  0  1  0  0  0  0  0  0  0  0  0
   37.4660   26.8080   41.4630 C   0  0  0  0  0  0  0  0  0  0  0  0
   37.0390   26.4020   42.8580 C   0  0  0  0  0  0  0  0  0  0  0  0
   36.8920   27.6920   43.6500 C   0  0  0  0  0  0  0  0  0  0  0  0
   37.3400   28.7880   42.6870 C   0  0  1  0  0  0  0  0  0  0  0  0
   35.7740   28.1370   41.4040 H   0  0  0  0  0  0  0  0  0  0  0  0
   38.5490   26.8090   41.3350 H   0  0  0  0  0  0  0  0  0  0  0  0
   36.9490   26.1310   40.7670 H   0  0  0  0  0  0  0  0  0  0  0  0
   36.1030   25.8030   42.8690 H   0  0  0  0  0  0  0  0  0  0  0  0
   37.8720   25.8490   43.3150 H   0  0  0  0  0  0  0  0  0  0  0  0
   37.4760   27.7020   44.5850 H   0  0  0  0  0  0  0  0  0  0  0  0
   35.8040   27.8430   43.8140 H   0  0  0  0  0  0  0  0  0  0  0  0
   36.8230   29.7280   42.8740 H   0  0  0  0  0  0  0  0  0  0  0  0
   38.7850   28.8740   42.7500 N   0  0  0  0  0  0  0  0  0  0  0  0
   39.2150   29.3150   41.9020 H   0  0  0  0  0  0  0  0  0  0  0  0
   39.0010   29.5230   43.5400 H   0  0  0  0  0  0  0  0  0  0  0  0
  2  1  2  6  0  0  0
  2 18  1  0  0  0  0
  2  3  1  0  0  0  0
  2  5  1  0  0  0  0
  3  4  1  0  0  0  0
  6  8  1  0  0  0  0
  6 11  1  0  0  0  0
  6  5  1  0  0  0  0
  7  6  1  0  0  0  0
  9 14  1  0  0  0  0
 10  9  2  0  0  0  0
 10 11  1  0  0  0  0
 11 12  2  0  0  0  0
 12 13  1  0  0  0  0
 13 17  1  0  0  0  0
 14 13  2  0  0  0  0
 15  9  1  0  0  0  0
 16 10  1  0  0  0  0
 18 19  1  0  0  0  0
 19 24  1  6  0  0  0
 19 20  1  0  0  0  0
 19 23  1  0  0  0  0
 20 21  1  0  0  0  0
 21 27  1  0  0  0  0
 21 28  1  0  0  0  0
 21 22  1  0  0  0  0
 22 30  1  0  0  0  0
 22 29  1  0  0  0  0
 23 32  1  0  0  0  0
 23 31  1  1  0  0  0
 23 22  1  0  0  0  0
 25 20  1  0  0  0  0
 26 20  1  0  0  0  0
 32 34  1  0  0  0  0
 33 32  1  0  0  0  0
M  END
>  <minimizedAffinity>
-4.61088991

$$$$

 OpenBabel03252509333D

 34 35  0  0  1  0  0  0  0  0999 V2000
   38.0620   32.9060   40.7330 O   0  0  0  0  0  0  0  0  0  0  0  0
   37.5130   31.5390   40.5060 P   0  0  2  0  0  0  0  0  0  0  0  0
   35.9180   31.3880   41.0000 O   0  0  0  0  0  0  0  0  0  0  0  0
   35.3600   30.8330   40.4090 H   0  0  0  0  0  0  0  0  0  0  0  0
   38.3890   30.4170   41.4320 O   0  0  0  0  0  0  0  0  0  0  0  0
   37.4990   29.6310   42.1000 C   0  0  0  0  0  0  0  0  0  0  0  0
   37.3750   29.7560   43.1630 H   0  0  0  0  0  0  0  0  0  0  0  0
   36.4880   29.8760   41.6550 H   0  0  0  0  0  0  0  0  0  0  0  0
   37.1870   25.9300   42.3010 C   0  0  0  0  0  0  0  0  0  0  0  0
   36.9830   27.2860   42.5750 C   0  0  0  0  0  0  0  0  0  0  0  0
   37.6990   28.2050   41.8270 C   0  0  0  0  0  0  0  0  0  0  0  0
   38.5630   27.7390   40.8680 N   0  0  0  0  0  0  0  0  0  0  0  0
   38.7300   26.4190   40.6360 C   0  0  0  0  0  0  0  0  0  0  0  0
   38.0470   25.5340   41.3490 N   0  0  0  0  0  0  0  0  0  0  0  0
   36.6250   25.2290   42.8880 H   0  0  0  0  0  0  0  0  0  0  0  0
   36.2940   27.5980   43.3380 H   0  0  0  0  0  0  0  0  0  0  0  0
   39.4200   26.0820   39.8710 H   0  0  0  0  0  0  0  0  0  0  0  0
   37.7050   31.1210   38.8860 O   0  0  0  0  0  0  0  0  0  0  0  0
   38.9990   30.6370   38.6910 C   0  0  1  0  0  0  0  0  0  0  0  0
   39.0770   29.5370   37.6670 C   0  0  0  0  0  0  0  0  0  0  0  0
   40.5660   29.4880   37.4000 C   0  0  0  0  0  0  0  0  0  0  0  0
   41.0950   30.8860   37.6750 C   0  0  0  0  0  0  0  0  0  0  0  0
   39.8520   31.7100   38.0010 C   0  0  1  0  0  0  0  0  0  0  0  0
   39.5200   30.3580   39.6070 H   0  0  0  0  0  0  0  0  0  0  0  0
   38.4930   29.7490   36.7720 H   0  0  0  0  0  0  0  0  0  0  0  0
   38.8110   28.5810   38.1410 H   0  0  0  0  0  0  0  0  0  0  0  0
   41.0930   28.7210   38.0100 H   0  0  0  0  0  0  0  0  0  0  0  0
   40.7080   29.3070   36.3250 H   0  0  0  0  0  0  0  0  0  0  0  0
   41.6640   31.3150   36.8330 H   0  0  0  0  0  0  0  0  0  0  0  0
   41.6860   30.8260   38.6140 H   0  0  0  0  0  0  0  0  0  0  0  0
   40.0720   32.5170   38.6980 H   0  0  0  0  0  0  0  0  0  0  0  0
   39.2630   32.1430   36.7490 N   0  0  0  0  0  0  0  0  0  0  0  0
   38.2480   32.3910   36.8280 H   0  0  0  0  0  0  0  0  0  0  0  0
   39.7490   33.0320   36.4940 H   0  0  0  0  0  0  0  0  0  0  0  0
  2  1  2  1  0  0  0
  2  3  1  0  0  0  0
  2  5  1  0  0  0  0
  4  3  1  0  0  0  0
  5  6  1  0  0  0  0
  6  7  1  0  0  0  0
  8  6  1  0  0  0  0
  9 10  1  0  0  0  0
  9 15  1  0  0  0  0
 10 16  1  0  0  0  0
 11  6  1  0  0  0  0
 11 10  2  0  0  0  0
 12 11  1  0  0  0  0
 13 12  2  0  0  0  0
 13 14  1  0  0  0  0
 14  9  2  0  0  0  0
 17 13  1  0  0  0  0
 18  2  1  0  0  0  0
 19 18  1  0  0  0  0
 19 24  1  1  0  0  0
 20 26  1  0  0  0  0
 20 19  1  0  0  0  0
 21 20  1  0  0  0  0
 21 22  1  0  0  0  0
 21 27  1  0  0  0  0
 22 23  1  0  0  0  0
 22 30  1  0  0  0  0
 23 19  1  0  0  0  0
 23 31  1  1  0  0  0
 25 20  1  0  0  0  0
 28 21  1  0  0  0  0
 29 22  1  0  0  0  0
 32 33  1  0  0  0  0
 32 23  1  0  0  0  0
 34 32  1  0  0  0  0
M  END
>  <minimizedAffinity>
-4.60599041

$$$$

 OpenBabel03252509333D

 34 35  0  0  1  0  0  0  0  0999 V2000
   41.9660   31.2920   40.1660 O   0  0  0  0  0  0  0  0  0  0  0  0
   41.0210   32.3080   40.7070 P   0  0  2  0  0  0  0  0  0  0  0  0
   41.8010   33.5870   41.4610 O   0  0  0  0  0  0  0  0  0  0  0  0
   41.3870   34.4660   41.3030 H   0  0  0  0  0  0  0  0  0  0  0  0
   40.0460   31.5950   41.9020 O   0  0  0  0  0  0  0  0  0  0  0  0
   40.6240   30.4180   42.2740 C   0  0  0  0  0  0  0  0  0  0  0  0
   41.3590   29.9630   41.6300 H   0  0  0  0  0  0  0  0  0  0  0  0
   41.1740   30.6430   43.2360 H   0  0  0  0  0  0  0  0  0  0  0  0
   37.3630   28.7090   42.7960 C   0  0  0  0  0  0  0  0  0  0  0  0
   38.2940   29.6930   42.4500 C   0  0  0  0  0  0  0  0  0  0  0  0
   39.6340   29.3990   42.6310 C   0  0  0  0  0  0  0  0  0  0  0  0
   39.9730   28.1690   43.1370 N   0  0  0  0  0  0  0  0  0  0  0  0
   39.0400   27.2460   43.4590 C   0  0  0  0  0  0  0  0  0  0  0  0
   37.7550   27.5220   43.2880 N   0  0  0  0  0  0  0  0  0  0  0  0
   36.3270   28.9500   42.6500 H   0  0  0  0  0  0  0  0  0  0  0  0
   37.9740   30.6420   42.0570 H   0  0  0  0  0  0  0  0  0  0  0  0
   39.3390   26.2830   43.8570 H   0  0  0  0  0  0  0  0  0  0  0  0
   40.0040   32.8390   39.4740 O   0  0  0  0  0  0  0  0  0  0  0  0
   39.0570   31.8500   39.2070 C   0  0  1  0  0  0  0  0  0  0  0  0
   37.6620   32.3890   39.0370 C   0  0  0  0  0  0  0  0  0  0  0  0
   36.9630   31.2050   38.4060 C   0  0  0  0  0  0  0  0  0  0  0  0
   38.0320   30.4320   37.6500 C   0  0  0  0  0  0  0  0  0  0  0  0
   39.2960   31.2720   37.8050 C   0  0  1  0  0  0  0  0  0  0  0  0
   39.0700   31.0110   39.9030 H   0  0  0  0  0  0  0  0  0  0  0  0
   37.6270   33.2840   38.4140 H   0  0  0  0  0  0  0  0  0  0  0  0
   37.2050   32.5340   40.0270 H   0  0  0  0  0  0  0  0  0  0  0  0
   36.4380   30.5640   39.1480 H   0  0  0  0  0  0  0  0  0  0  0  0
   36.2650   31.5920   37.6490 H   0  0  0  0  0  0  0  0  0  0  0  0
   37.7810   30.2570   36.5900 H   0  0  0  0  0  0  0  0  0  0  0  0
   38.2080   29.4930   38.2170 H   0  0  0  0  0  0  0  0  0  0  0  0
   40.1940   30.6570   37.8050 H   0  0  0  0  0  0  0  0  0  0  0  0
   39.2740   32.3040   36.7870 N   0  0  0  0  0  0  0  0  0  0  0  0
   39.8770   33.1300   37.0150 H   0  0  0  0  0  0  0  0  0  0  0  0
   39.7010   31.8750   35.9340 H   0  0  0  0  0  0  0  0  0  0  0  0
  2  1  2  6  0  0  0
  2  3  1  0  0  0  0
  2  5  1  0  0  0  0
  4  3  1  0  0  0  0
  5  6  1  0  0  0  0
  6 11  1  0  0  0  0
  6  8  1  0  0  0  0
  7  6  1  0  0  0  0
  9 14  1  0  0  0  0
 10 11  1  0  0  0  0
 10  9  2  0  0  0  0
 11 12  2  0  0  0  0
 12 13  1  0  0  0  0
 13 17  1  0  0  0  0
 14 13  2  0  0  0  0
 15  9  1  0  0  0  0
 16 10  1  0  0  0  0
 18  2  1  0  0  0  0
 19 18  1  0  0  0  0
 19 24  1  1  0  0  0
 20 19  1  0  0  0  0
 20 26  1  0  0  0  0
 21 20  1  0  0  0  0
 21 27  1  0  0  0  0
 22 23  1  0  0  0  0
 22 30  1  0  0  0  0
 22 21  1  0  0  0  0
 23 31  1  6  0  0  0
 23 19  1  0  0  0  0
 25 20  1  0  0  0  0
 28 21  1  0  0  0  0
 29 22  1  0  0  0  0
 32 33  1  0  0  0  0
 32 23  1  0  0  0  0
 34 32  1  0  0  0  0
M  END
>  <minimizedAffinity>
-4.58169794

$$$$
