
 OpenBabel03252508243D

 42 44  0  0  0  0  0  0  0  0999 V2000
   37.0300   28.3810   40.9270 C   0  0  0  0  0  0  0  0  0  0  0  0
   36.6410   27.3000   41.6900 C   0  0  0  0  0  0  0  0  0  0  0  0
   36.8490   27.1930   43.0460 C   0  0  0  0  0  0  0  0  0  0  0  0
   37.5030   28.2780   43.6460 C   0  0  0  0  0  0  0  0  0  0  0  0
   37.9080   29.3750   42.9310 C   0  0  0  0  0  0  0  0  0  0  0  0
   37.6810   29.4380   41.5850 C   0  0  0  0  0  0  0  0  0  0  0  0
   36.1250   26.4350   41.3050 H   0  0  0  0  0  0  0  0  0  0  0  0
   36.5660   26.3790   43.6700 H   0  0  0  0  0  0  0  0  0  0  0  0
   37.6960   28.2490   44.7260 H   0  0  0  0  0  0  0  0  0  0  0  0
   38.4070   30.1700   43.4760 H   0  0  0  0  0  0  0  0  0  0  0  0
   38.1290   30.6050   40.9420 N   0  0  0  0  0  0  0  0  0  0  0  0
   37.2970   31.7330   40.6390 C   0  0  0  0  0  0  0  0  0  0  0  0
   38.1220   32.9750   40.4050 C   0  0  0  0  0  0  0  0  0  0  0  0
   39.2600   33.1040   41.2520 N   0  0  0  0  0  0  0  0  0  0  0  0
   40.1240   31.9830   41.2590 C   0  0  0  0  0  0  0  0  0  0  0  0
   39.5070   30.8420   40.4840 C   0  0  0  0  0  0  0  0  0  0  0  0
   36.8610   31.4990   39.6200 H   0  0  0  0  0  0  0  0  0  0  0  0
   36.4130   31.8770   41.2660 H   0  0  0  0  0  0  0  0  0  0  0  0
   37.4430   33.8430   40.6530 H   0  0  0  0  0  0  0  0  0  0  0  0
   38.4330   33.0950   39.3490 H   0  0  0  0  0  0  0  0  0  0  0  0
   39.7470   33.9660   40.9910 H   0  0  0  0  0  0  0  0  0  0  0  0
   40.2630   31.6320   42.3080 H   0  0  0  0  0  0  0  0  0  0  0  0
   41.1250   32.1690   40.8240 H   0  0  0  0  0  0  0  0  0  0  0  0
   40.0680   29.9030   40.6360 H   0  0  0  0  0  0  0  0  0  0  0  0
   39.4600   31.1120   39.3990 H   0  0  0  0  0  0  0  0  0  0  0  0
   36.8130   28.4850   39.4810 C   0  0  0  0  0  0  0  0  0  0  0  0
   37.1190   27.6120   38.9070 H   0  0  0  0  0  0  0  0  0  0  0  0
   37.4760   29.3210   39.1090 H   0  0  0  0  0  0  0  0  0  0  0  0
   35.3810   28.8410   39.1510 C   0  0  0  0  0  0  0  0  0  0  0  0
   35.1430   29.8900   39.5010 H   0  0  0  0  0  0  0  0  0  0  0  0
   34.6210   28.1950   39.5510 H   0  0  0  0  0  0  0  0  0  0  0  0
   33.8070   29.0200   35.7250 C   0  0  0  0  0  0  0  0  0  0  0  0
   33.9280   28.9710   37.1330 C   0  0  0  0  0  0  0  0  0  0  0  0
   35.2130   28.8870   37.6770 C   0  0  0  0  0  0  0  0  0  0  0  0
   36.2790   28.8570   36.8200 N   0  0  0  0  0  0  0  0  0  0  0  0
   36.1260   28.9060   35.4930 C   0  0  0  0  0  0  0  0  0  0  0  0
   34.8990   28.9860   34.9420 N   0  0  0  0  0  0  0  0  0  0  0  0
   32.7630   29.0850   35.3960 H   0  0  0  0  0  0  0  0  0  0  0  0
   33.0670   28.9960   37.7880 H   0  0  0  0  0  0  0  0  0  0  0  0
   37.2520   28.8740   34.6200 N   0  0  0  0  0  0  0  0  0  0  0  0
   38.1830   29.1850   35.0250 H   0  0  0  0  0  0  0  0  0  0  0  0
   37.1510   28.5550   33.6290 H   0  0  0  0  0  0  0  0  0  0  0  0
  1  6  2  0  0  0  0
  1  2  1  0  0  0  0
  2  3  2  0  0  0  0
  3  4  1  0  0  0  0
  3  8  1  0  0  0  0
  4  9  1  0  0  0  0
  5 10  1  0  0  0  0
  5  4  2  0  0  0  0
  6  5  1  0  0  0  0
  7  2  1  0  0  0  0
 11  6  1  0  0  0  0
 12 11  1  0  0  0  0
 12 18  1  0  0  0  0
 13 12  1  0  0  0  0
 13 19  1  0  0  0  0
 13 14  1  0  0  0  0
 14 15  1  0  0  0  0
 15 22  1  0  0  0  0
 16 24  1  0  0  0  0
 16 11  1  0  0  0  0
 16 15  1  0  0  0  0
 17 12  1  0  0  0  0
 20 13  1  0  0  0  0
 21 14  1  0  0  0  0
 23 15  1  0  0  0  0
 25 16  1  0  0  0  0
 26  1  1  0  0  0  0
 27 26  1  0  0  0  0
 28 26  1  0  0  0  0
 29 26  1  0  0  0  0
 29 30  1  0  0  0  0
 29 31  1  0  0  0  0
 32 33  1  0  0  0  0
 33 34  2  0  0  0  0
 33 39  1  0  0  0  0
 34 29  1  0  0  0  0
 35 34  1  0  0  0  0
 36 35  2  0  0  0  0
 37 36  1  0  0  0  0
 37 32  2  0  0  0  0
 38 32  1  0  0  0  0
 40 41  1  0  0  0  0
 40 36  1  0  0  0  0
 42 40  1  0  0  0  0
M  END
>  <minimizedAffinity>
-5.62943792

$$$$

 OpenBabel03252508243D

 42 44  0  0  0  0  0  0  0  0999 V2000
   36.3650   27.2730   39.5890 C   0  0  0  0  0  0  0  0  0  0  0  0
   36.0190   26.5650   38.4560 C   0  0  0  0  0  0  0  0  0  0  0  0
   36.6320   25.4020   38.0520 C   0  0  0  0  0  0  0  0  0  0  0  0
   37.6680   24.9450   38.8770 C   0  0  0  0  0  0  0  0  0  0  0  0
   38.0490   25.6120   40.0130 C   0  0  0  0  0  0  0  0  0  0  0  0
   37.4120   26.7650   40.3760 C   0  0  0  0  0  0  0  0  0  0  0  0
   35.2270   26.8450   37.7800 H   0  0  0  0  0  0  0  0  0  0  0  0
   36.3970   24.8260   37.1880 H   0  0  0  0  0  0  0  0  0  0  0  0
   38.1940   24.0210   38.6050 H   0  0  0  0  0  0  0  0  0  0  0  0
   38.8610   25.1880   40.5930 H   0  0  0  0  0  0  0  0  0  0  0  0
   37.8690   27.3720   41.5580 N   0  0  0  0  0  0  0  0  0  0  0  0
   38.6580   28.5680   41.6020 C   0  0  0  0  0  0  0  0  0  0  0  0
   38.5840   29.2260   42.9580 C   0  0  0  0  0  0  0  0  0  0  0  0
   37.3050   29.1630   43.5820 N   0  0  0  0  0  0  0  0  0  0  0  0
   36.7560   27.8610   43.6800 C   0  0  0  0  0  0  0  0  0  0  0  0
   37.6110   26.8750   42.9190 C   0  0  0  0  0  0  0  0  0  0  0  0
   39.7290   28.2050   41.5330 H   0  0  0  0  0  0  0  0  0  0  0  0
   38.5670   29.2510   40.7520 H   0  0  0  0  0  0  0  0  0  0  0  0
   38.7950   30.3200   42.7780 H   0  0  0  0  0  0  0  0  0  0  0  0
   39.3560   28.8550   43.6600 H   0  0  0  0  0  0  0  0  0  0  0  0
   37.3810   29.6200   44.4950 H   0  0  0  0  0  0  0  0  0  0  0  0
   35.7450   27.8520   43.2110 H   0  0  0  0  0  0  0  0  0  0  0  0
   36.6590   27.4780   44.7140 H   0  0  0  0  0  0  0  0  0  0  0  0
   37.1050   25.8980   42.8190 H   0  0  0  0  0  0  0  0  0  0  0  0
   38.6000   26.7660   43.4310 H   0  0  0  0  0  0  0  0  0  0  0  0
   35.7130   28.5170   40.0090 C   0  0  0  0  0  0  0  0  0  0  0  0
   36.1960   29.0310   40.8380 H   0  0  0  0  0  0  0  0  0  0  0  0
   34.6910   28.2360   40.4000 H   0  0  0  0  0  0  0  0  0  0  0  0
   35.5250   29.4720   38.8520 C   0  0  0  0  0  0  0  0  0  0  0  0
   34.5320   30.0050   38.9360 H   0  0  0  0  0  0  0  0  0  0  0  0
   35.5720   29.0470   37.8660 H   0  0  0  0  0  0  0  0  0  0  0  0
   37.6850   32.2730   40.1700 C   0  0  0  0  0  0  0  0  0  0  0  0
   36.7010   31.2580   40.1280 C   0  0  0  0  0  0  0  0  0  0  0  0
   36.5410   30.5500   38.9330 C   0  0  0  0  0  0  0  0  0  0  0  0
   37.3440   30.8770   37.8740 N   0  0  0  0  0  0  0  0  0  0  0  0
   38.2650   31.8440   37.9510 C   0  0  0  0  0  0  0  0  0  0  0  0
   38.4390   32.5420   39.0910 N   0  0  0  0  0  0  0  0  0  0  0  0
   37.7330   32.7690   41.1470 H   0  0  0  0  0  0  0  0  0  0  0  0
   36.0790   31.0200   40.9810 H   0  0  0  0  0  0  0  0  0  0  0  0
   39.0890   32.1660   36.8350 N   0  0  0  0  0  0  0  0  0  0  0  0
   39.2230   31.4100   36.1020 H   0  0  0  0  0  0  0  0  0  0  0  0
   39.5360   33.1090   36.7550 H   0  0  0  0  0  0  0  0  0  0  0  0
  1 26  1  0  0  0  0
  1  6  1  0  0  0  0
  2  1  2  0  0  0  0
  3  2  1  0  0  0  0
  3  4  2  0  0  0  0
  4  5  1  0  0  0  0
  5  6  2  0  0  0  0
  5 10  1  0  0  0  0
  6 11  1  0  0  0  0
  7  2  1  0  0  0  0
  8  3  1  0  0  0  0
  9  4  1  0  0  0  0
 11 12  1  0  0  0  0
 11 16  1  0  0  0  0
 12 13  1  0  0  0  0
 13 14  1  0  0  0  0
 13 20  1  0  0  0  0
 14 15  1  0  0  0  0
 14 21  1  0  0  0  0
 15 23  1  0  0  0  0
 16 25  1  0  0  0  0
 16 15  1  0  0  0  0
 17 12  1  0  0  0  0
 18 12  1  0  0  0  0
 19 13  1  0  0  0  0
 22 15  1  0  0  0  0
 24 16  1  0  0  0  0
 26 28  1  0  0  0  0
 26 27  1  0  0  0  0
 29 34  1  0  0  0  0
 29 30  1  0  0  0  0
 29 26  1  0  0  0  0
 31 29  1  0  0  0  0
 32 38  1  0  0  0  0
 33 32  1  0  0  0  0
 33 39  1  0  0  0  0
 34 33  2  0  0  0  0
 35 36  2  0  0  0  0
 35 34  1  0  0  0  0
 36 37  1  0  0  0  0
 37 32  2  0  0  0  0
 40 36  1  0  0  0  0
 41 40  1  0  0  0  0
 42 40  1  0  0  0  0
M  END
>  <minimizedAffinity>
-5.60108709

$$$$

 OpenBabel03252508243D

 42 44  0  0  0  0  0  0  0  0999 V2000
   36.4050   30.3230   38.9300 C   0  0  0  0  0  0  0  0  0  0  0  0
   35.7770   29.3650   38.1620 C   0  0  0  0  0  0  0  0  0  0  0  0
   35.9530   29.2210   36.8050 C   0  0  0  0  0  0  0  0  0  0  0  0
   36.8370   30.1310   36.2100 C   0  0  0  0  0  0  0  0  0  0  0  0
   37.4860   31.1010   36.9300 C   0  0  0  0  0  0  0  0  0  0  0  0
   37.2800   31.2060   38.2770 C   0  0  0  0  0  0  0  0  0  0  0  0
   35.0950   28.6240   38.5470 H   0  0  0  0  0  0  0  0  0  0  0  0
   35.4900   28.4980   36.1760 H   0  0  0  0  0  0  0  0  0  0  0  0
   37.0180   30.0650   35.1290 H   0  0  0  0  0  0  0  0  0  0  0  0
   38.1530   31.7630   36.3890 H   0  0  0  0  0  0  0  0  0  0  0  0
   37.9930   32.2270   38.9280 N   0  0  0  0  0  0  0  0  0  0  0  0
   37.4360   33.4930   39.3030 C   0  0  0  0  0  0  0  0  0  0  0  0
   38.2610   34.1610   40.3760 C   0  0  0  0  0  0  0  0  0  0  0  0
   38.7990   33.2740   41.3520 N   0  0  0  0  0  0  0  0  0  0  0  0
   39.5380   32.1880   40.8240 C   0  0  0  0  0  0  0  0  0  0  0  0
   39.4100   32.1520   39.3190 C   0  0  0  0  0  0  0  0  0  0  0  0
   37.5880   34.1510   38.3930 H   0  0  0  0  0  0  0  0  0  0  0  0
   36.3540   33.5280   39.4630 H   0  0  0  0  0  0  0  0  0  0  0  0
   37.5500   34.8430   40.9260 H   0  0  0  0  0  0  0  0  0  0  0  0
   39.0710   34.7940   39.9660 H   0  0  0  0  0  0  0  0  0  0  0  0
   39.3490   33.8320   42.0100 H   0  0  0  0  0  0  0  0  0  0  0  0
   39.1160   31.2320   41.2130 H   0  0  0  0  0  0  0  0  0  0  0  0
   40.6190   32.2080   41.0590 H   0  0  0  0  0  0  0  0  0  0  0  0
   39.8140   31.2110   38.9040 H   0  0  0  0  0  0  0  0  0  0  0  0
   39.9290   33.0410   38.8800 H   0  0  0  0  0  0  0  0  0  0  0  0
   36.2060   30.4750   40.3750 C   0  0  0  0  0  0  0  0  0  0  0  0
   35.5980   31.3290   40.6660 H   0  0  0  0  0  0  0  0  0  0  0  0
   37.2220   30.6760   40.8260 H   0  0  0  0  0  0  0  0  0  0  0  0
   35.6570   29.2140   41.0030 C   0  0  0  0  0  0  0  0  0  0  0  0
   35.3330   28.4820   40.2050 H   0  0  0  0  0  0  0  0  0  0  0  0
   34.8280   29.3350   41.6770 H   0  0  0  0  0  0  0  0  0  0  0  0
   38.6570   28.5610   43.1990 C   0  0  0  0  0  0  0  0  0  0  0  0
   37.6400   29.2600   42.5080 C   0  0  0  0  0  0  0  0  0  0  0  0
   36.7430   28.5170   41.7360 C   0  0  0  0  0  0  0  0  0  0  0  0
   36.8970   27.1580   41.6920 N   0  0  0  0  0  0  0  0  0  0  0  0
   37.8720   26.5310   42.3590 C   0  0  0  0  0  0  0  0  0  0  0  0
   38.7510   27.2240   43.1110 N   0  0  0  0  0  0  0  0  0  0  0  0
   39.3080   29.2300   43.7750 H   0  0  0  0  0  0  0  0  0  0  0  0
   37.5400   30.3370   42.5600 H   0  0  0  0  0  0  0  0  0  0  0  0
   38.0120   25.1150   42.2980 N   0  0  0  0  0  0  0  0  0  0  0  0
   37.1460   24.5560   42.0420 H   0  0  0  0  0  0  0  0  0  0  0  0
   38.9330   24.6600   42.4990 H   0  0  0  0  0  0  0  0  0  0  0  0
  1 26  1  0  0  0  0
  2  7  1  0  0  0  0
  2  1  2  0  0  0  0
  3  2  1  0  0  0  0
  4  3  2  0  0  0  0
  4  5  1  0  0  0  0
  5  6  2  0  0  0  0
  6 11  1  0  0  0  0
  6  1  1  0  0  0  0
  8  3  1  0  0  0  0
  9  4  1  0  0  0  0
 10  5  1  0  0  0  0
 11 12  1  0  0  0  0
 11 16  1  0  0  0  0
 12 18  1  0  0  0  0
 12 13  1  0  0  0  0
 13 19  1  0  0  0  0
 13 14  1  0  0  0  0
 14 21  1  0  0  0  0
 15 23  1  0  0  0  0
 15 22  1  0  0  0  0
 15 14  1  0  0  0  0
 16 15  1  0  0  0  0
 17 12  1  0  0  0  0
 20 13  1  0  0  0  0
 24 16  1  0  0  0  0
 25 16  1  0  0  0  0
 26 27  1  0  0  0  0
 26 28  1  0  0  0  0
 26 29  1  0  0  0  0
 29 31  1  0  0  0  0
 29 34  1  0  0  0  0
 30 29  1  0  0  0  0
 32 38  1  0  0  0  0
 33 39  1  0  0  0  0
 33 32  2  0  0  0  0
 34 33  1  0  0  0  0
 35 34  2  0  0  0  0
 35 36  1  0  0  0  0
 36 37  2  0  0  0  0
 37 32  1  0  0  0  0
 40 36  1  0  0  0  0
 40 42  1  0  0  0  0
 41 40  1  0  0  0  0
M  END
>  <minimizedAffinity>
-5.53401613

$$$$

 OpenBabel03252508243D

 42 44  0  0  0  0  0  0  0  0999 V2000
   38.7750   28.2180   42.6540 C   0  0  0  0  0  0  0  0  0  0  0  0
   39.6000   27.5300   43.5190 C   0  0  0  0  0  0  0  0  0  0  0  0
   39.6980   26.1590   43.5720 C   0  0  0  0  0  0  0  0  0  0  0  0
   38.8860   25.4590   42.6680 C   0  0  0  0  0  0  0  0  0  0  0  0
   38.0500   26.0970   41.7890 C   0  0  0  0  0  0  0  0  0  0  0  0
   37.9850   27.4610   41.7720 C   0  0  0  0  0  0  0  0  0  0  0  0
   40.2610   27.9960   44.2320 H   0  0  0  0  0  0  0  0  0  0  0  0
   40.3200   25.5900   44.2210 H   0  0  0  0  0  0  0  0  0  0  0  0
   38.9220   24.3620   42.6640 H   0  0  0  0  0  0  0  0  0  0  0  0
   37.4570   25.4770   41.1250 H   0  0  0  0  0  0  0  0  0  0  0  0
   37.1030   28.0220   40.8320 N   0  0  0  0  0  0  0  0  0  0  0  0
   35.8360   28.6070   41.1590 C   0  0  0  0  0  0  0  0  0  0  0  0
   35.3570   29.5260   40.0620 C   0  0  0  0  0  0  0  0  0  0  0  0
   36.3830   30.2900   39.4340 N   0  0  0  0  0  0  0  0  0  0  0  0
   37.4720   29.5310   38.9430 C   0  0  0  0  0  0  0  0  0  0  0  0
   37.3450   28.0910   39.3820 C   0  0  0  0  0  0  0  0  0  0  0  0
   35.1070   27.7410   41.1270 H   0  0  0  0  0  0  0  0  0  0  0  0
   35.7200   28.9990   42.1730 H   0  0  0  0  0  0  0  0  0  0  0  0
   34.6720   30.2690   40.5640 H   0  0  0  0  0  0  0  0  0  0  0  0
   34.7610   29.0030   39.2890 H   0  0  0  0  0  0  0  0  0  0  0  0
   35.9450   30.8560   38.7020 H   0  0  0  0  0  0  0  0  0  0  0  0
   38.4200   29.9250   39.3770 H   0  0  0  0  0  0  0  0  0  0  0  0
   37.5730   29.5280   37.8410 H   0  0  0  0  0  0  0  0  0  0  0  0
   38.2720   27.5260   39.1780 H   0  0  0  0  0  0  0  0  0  0  0  0
   36.4670   27.6220   38.8710 H   0  0  0  0  0  0  0  0  0  0  0  0
   38.6700   29.6800   42.6090 C   0  0  0  0  0  0  0  0  0  0  0  0
   38.2140   30.1340   43.4870 H   0  0  0  0  0  0  0  0  0  0  0  0
   37.9700   29.9320   41.7580 H   0  0  0  0  0  0  0  0  0  0  0  0
   40.0040   30.3310   42.3260 C   0  0  0  0  0  0  0  0  0  0  0  0
   40.6460   29.6570   41.6840 H   0  0  0  0  0  0  0  0  0  0  0  0
   40.5940   30.6100   43.1800 H   0  0  0  0  0  0  0  0  0  0  0  0
   40.6550   33.4480   40.2970 C   0  0  0  0  0  0  0  0  0  0  0  0
   40.8950   32.3000   41.0880 C   0  0  0  0  0  0  0  0  0  0  0  0
   39.7920   31.5480   41.5020 C   0  0  0  0  0  0  0  0  0  0  0  0
   38.5450   31.9620   41.1210 N   0  0  0  0  0  0  0  0  0  0  0  0
   38.3560   33.0540   40.3720 C   0  0  0  0  0  0  0  0  0  0  0  0
   39.4020   33.7980   39.9600 N   0  0  0  0  0  0  0  0  0  0  0  0
   41.5800   33.9700   40.0240 H   0  0  0  0  0  0  0  0  0  0  0  0
   41.8930   31.9940   41.3750 H   0  0  0  0  0  0  0  0  0  0  0  0
   37.0480   33.4660   39.9880 N   0  0  0  0  0  0  0  0  0  0  0  0
   36.2930   32.7200   39.9770 H   0  0  0  0  0  0  0  0  0  0  0  0
   36.8550   34.4610   39.7300 H   0  0  0  0  0  0  0  0  0  0  0  0
  1  2  1  0  0  0  0
  2  3  2  0  0  0  0
  2  7  1  0  0  0  0
  3  8  1  0  0  0  0
  4  3  1  0  0  0  0
  5  4  2  0  0  0  0
  6  5  1  0  0  0  0
  6  1  2  0  0  0  0
  9  4  1  0  0  0  0
 10  5  1  0  0  0  0
 11 12  1  0  0  0  0
 11  6  1  0  0  0  0
 12 18  1  0  0  0  0
 13 19  1  0  0  0  0
 13 12  1  0  0  0  0
 14 13  1  0  0  0  0
 15 22  1  0  0  0  0
 15 16  1  0  0  0  0
 15 14  1  0  0  0  0
 16 11  1  0  0  0  0
 17 12  1  0  0  0  0
 20 13  1  0  0  0  0
 21 14  1  0  0  0  0
 23 15  1  0  0  0  0
 24 16  1  0  0  0  0
 25 16  1  0  0  0  0
 26  1  1  0  0  0  0
 26 27  1  0  0  0  0
 28 26  1  0  0  0  0
 29 26  1  0  0  0  0
 29 31  1  0  0  0  0
 30 29  1  0  0  0  0
 32 33  1  0  0  0  0
 33 39  1  0  0  0  0
 33 34  2  0  0  0  0
 34 29  1  0  0  0  0
 35 34  1  0  0  0  0
 36 35  2  0  0  0  0
 37 32  2  0  0  0  0
 37 36  1  0  0  0  0
 38 32  1  0  0  0  0
 40 36  1  0  0  0  0
 41 40  1  0  0  0  0
 42 40  1  0  0  0  0
M  END
>  <minimizedAffinity>
-5.53013229

$$$$

 OpenBabel03252508243D

 42 44  0  0  0  0  0  0  0  0999 V2000
   36.7820   29.2360   40.8540 C   0  0  0  0  0  0  0  0  0  0  0  0
   35.6710   28.5660   40.3870 C   0  0  0  0  0  0  0  0  0  0  0  0
   35.1340   28.7340   39.1310 C   0  0  0  0  0  0  0  0  0  0  0  0
   35.7950   29.6570   38.3100 C   0  0  0  0  0  0  0  0  0  0  0  0
   36.9040   30.3480   38.7280 C   0  0  0  0  0  0  0  0  0  0  0  0
   37.4010   30.1490   39.9840 C   0  0  0  0  0  0  0  0  0  0  0  0
   35.1170   27.8330   40.9530 H   0  0  0  0  0  0  0  0  0  0  0  0
   34.2810   28.2380   38.7330 H   0  0  0  0  0  0  0  0  0  0  0  0
   35.4130   29.8330   37.2960 H   0  0  0  0  0  0  0  0  0  0  0  0
   37.3520   31.0440   38.0260 H   0  0  0  0  0  0  0  0  0  0  0  0
   38.5420   30.8990   40.3180 N   0  0  0  0  0  0  0  0  0  0  0  0
   39.8900   30.4650   40.0940 C   0  0  0  0  0  0  0  0  0  0  0  0
   40.8490   31.6310   40.0970 C   0  0  0  0  0  0  0  0  0  0  0  0
   40.3460   32.8180   39.4910 N   0  0  0  0  0  0  0  0  0  0  0  0
   39.0980   33.2580   39.9950 C   0  0  0  0  0  0  0  0  0  0  0  0
   38.5260   32.2310   40.9430 C   0  0  0  0  0  0  0  0  0  0  0  0
   40.1610   29.8870   41.0300 H   0  0  0  0  0  0  0  0  0  0  0  0
   40.0480   29.7390   39.2920 H   0  0  0  0  0  0  0  0  0  0  0  0
   41.7280   31.3040   39.4690 H   0  0  0  0  0  0  0  0  0  0  0  0
   41.2380   31.8680   41.1060 H   0  0  0  0  0  0  0  0  0  0  0  0
   41.0700   33.5380   39.5680 H   0  0  0  0  0  0  0  0  0  0  0  0
   38.3790   33.3660   39.1510 H   0  0  0  0  0  0  0  0  0  0  0  0
   39.1350   34.2210   40.5400 H   0  0  0  0  0  0  0  0  0  0  0  0
   37.4750   32.4600   41.1970 H   0  0  0  0  0  0  0  0  0  0  0  0
   39.1600   32.1790   41.8630 H   0  0  0  0  0  0  0  0  0  0  0  0
   37.3430   29.0580   42.1970 C   0  0  0  0  0  0  0  0  0  0  0  0
   37.2740   29.9310   42.8420 H   0  0  0  0  0  0  0  0  0  0  0  0
   38.4520   28.8810   42.0680 H   0  0  0  0  0  0  0  0  0  0  0  0
   36.7560   27.8530   42.8970 C   0  0  0  0  0  0  0  0  0  0  0  0
   35.9040   27.4210   42.2930 H   0  0  0  0  0  0  0  0  0  0  0  0
   36.3890   28.0090   43.8950 H   0  0  0  0  0  0  0  0  0  0  0  0
   39.9120   25.9280   43.6620 C   0  0  0  0  0  0  0  0  0  0  0  0
   38.9720   26.9840   43.6280 C   0  0  0  0  0  0  0  0  0  0  0  0
   37.7710   26.7710   42.9470 C   0  0  0  0  0  0  0  0  0  0  0  0
   37.5700   25.5550   42.3520 N   0  0  0  0  0  0  0  0  0  0  0  0
   38.4830   24.5790   42.4040 C   0  0  0  0  0  0  0  0  0  0  0  0
   39.6500   24.7580   43.0540 N   0  0  0  0  0  0  0  0  0  0  0  0
   40.8190   26.1920   44.2170 H   0  0  0  0  0  0  0  0  0  0  0  0
   39.1560   27.9370   44.1080 H   0  0  0  0  0  0  0  0  0  0  0  0
   38.2510   23.3210   41.7770 N   0  0  0  0  0  0  0  0  0  0  0  0
   37.2400   23.0470   41.6070 H   0  0  0  0  0  0  0  0  0  0  0  0
   39.0520   22.7050   41.5020 H   0  0  0  0  0  0  0  0  0  0  0  0
  1 26  1  0  0  0  0
  2  1  1  0  0  0  0
  2  7  1  0  0  0  0
  3  2  2  0  0  0  0
  4  5  2  0  0  0  0
  4  3  1  0  0  0  0
  5  6  1  0  0  0  0
  6 11  1  0  0  0  0
  6  1  2  0  0  0  0
  8  3  1  0  0  0  0
  9  4  1  0  0  0  0
 10  5  1  0  0  0  0
 11 16  1  0  0  0  0
 12 13  1  0  0  0  0
 12 11  1  0  0  0  0
 12 17  1  0  0  0  0
 13 20  1  0  0  0  0
 14 21  1  0  0  0  0
 14 15  1  0  0  0  0
 14 13  1  0  0  0  0
 15 23  1  0  0  0  0
 15 16  1  0  0  0  0
 16 24  1  0  0  0  0
 16 25  1  0  0  0  0
 18 12  1  0  0  0  0
 19 13  1  0  0  0  0
 22 15  1  0  0  0  0
 26 27  1  0  0  0  0
 26 29  1  0  0  0  0
 28 26  1  0  0  0  0
 29 34  1  0  0  0  0
 29 31  1  0  0  0  0
 30 29  1  0  0  0  0
 32 38  1  0  0  0  0
 33 32  1  0  0  0  0
 33 39  1  0  0  0  0
 34 33  2  0  0  0  0
 35 36  2  0  0  0  0
 35 34  1  0  0  0  0
 36 37  1  0  0  0  0
 37 32  2  0  0  0  0
 40 36  1  0  0  0  0
 41 40  1  0  0  0  0
 42 40  1  0  0  0  0
M  END
>  <minimizedAffinity>
-5.4647336

$$$$

 OpenBabel03252508243D

 42 44  0  0  0  0  0  0  0  0999 V2000
   38.3280   26.3340   42.5590 C   0  0  0  0  0  0  0  0  0  0  0  0
   37.0590   25.8620   42.2980 C   0  0  0  0  0  0  0  0  0  0  0  0
   36.7870   24.6330   41.7420 C   0  0  0  0  0  0  0  0  0  0  0  0
   37.9060   23.8450   41.4390 C   0  0  0  0  0  0  0  0  0  0  0  0
   39.1880   24.2690   41.6800 C   0  0  0  0  0  0  0  0  0  0  0  0
   39.4100   25.4980   42.2330 C   0  0  0  0  0  0  0  0  0  0  0  0
   36.1500   26.4020   42.5130 H   0  0  0  0  0  0  0  0  0  0  0  0
   35.8260   24.2320   41.5250 H   0  0  0  0  0  0  0  0  0  0  0  0
   37.7520   22.8550   40.9930 H   0  0  0  0  0  0  0  0  0  0  0  0
   39.9950   23.5950   41.4130 H   0  0  0  0  0  0  0  0  0  0  0  0
   40.7560   25.8410   42.4460 N   0  0  0  0  0  0  0  0  0  0  0  0
   41.4580   25.6370   43.6800 C   0  0  0  0  0  0  0  0  0  0  0  0
   42.9530   25.6430   43.4680 C   0  0  0  0  0  0  0  0  0  0  0  0
   43.3870   25.0220   42.2620 N   0  0  0  0  0  0  0  0  0  0  0  0
   42.7620   25.5070   41.0870 C   0  0  0  0  0  0  0  0  0  0  0  0
   41.6410   26.4550   41.4440 C   0  0  0  0  0  0  0  0  0  0  0  0
   41.2630   26.5810   44.2760 H   0  0  0  0  0  0  0  0  0  0  0  0
   41.0870   24.8430   44.3340 H   0  0  0  0  0  0  0  0  0  0  0  0
   43.3820   25.0290   44.3120 H   0  0  0  0  0  0  0  0  0  0  0  0
   43.3950   26.6550   43.5420 H   0  0  0  0  0  0  0  0  0  0  0  0
   44.4060   25.1030   42.2190 H   0  0  0  0  0  0  0  0  0  0  0  0
   42.3070   24.6530   40.5340 H   0  0  0  0  0  0  0  0  0  0  0  0
   43.4370   26.0450   40.3950 H   0  0  0  0  0  0  0  0  0  0  0  0
   41.0210   26.6940   40.5630 H   0  0  0  0  0  0  0  0  0  0  0  0
   42.0700   27.3840   41.8980 H   0  0  0  0  0  0  0  0  0  0  0  0
   38.6100   27.6480   43.1440 C   0  0  0  0  0  0  0  0  0  0  0  0
   39.4520   28.1760   42.7010 H   0  0  0  0  0  0  0  0  0  0  0  0
   38.9150   27.4710   44.2180 H   0  0  0  0  0  0  0  0  0  0  0  0
   37.3870   28.5370   43.1450 C   0  0  0  0  0  0  0  0  0  0  0  0
   37.2270   28.9890   44.1690 H   0  0  0  0  0  0  0  0  0  0  0  0
   36.4600   28.0790   42.8530 H   0  0  0  0  0  0  0  0  0  0  0  0
   36.8760   31.2220   40.5420 C   0  0  0  0  0  0  0  0  0  0  0  0
   36.6190   30.1070   41.3710 C   0  0  0  0  0  0  0  0  0  0  0  0
   37.6240   29.6990   42.2530 C   0  0  0  0  0  0  0  0  0  0  0  0
   38.7990   30.4010   42.2640 N   0  0  0  0  0  0  0  0  0  0  0  0
   39.0070   31.4520   41.4650 C   0  0  0  0  0  0  0  0  0  0  0  0
   38.0550   31.8660   40.6050 N   0  0  0  0  0  0  0  0  0  0  0  0
   36.0300   31.4630   39.8870 H   0  0  0  0  0  0  0  0  0  0  0  0
   35.6790   29.5690   41.3410 H   0  0  0  0  0  0  0  0  0  0  0  0
   40.2390   32.1670   41.4950 N   0  0  0  0  0  0  0  0  0  0  0  0
   40.8130   32.0990   42.3850 H   0  0  0  0  0  0  0  0  0  0  0  0
   40.5500   32.7300   40.6700 H   0  0  0  0  0  0  0  0  0  0  0  0
  1 26  1  0  0  0  0
  2  7  1  0  0  0  0
  2  1  1  0  0  0  0
  3  2  2  0  0  0  0
  4  5  2  0  0  0  0
  4  3  1  0  0  0  0
  5  6  1  0  0  0  0
  6 11  1  0  0  0  0
  6  1  2  0  0  0  0
  8  3  1  0  0  0  0
  9  4  1  0  0  0  0
 10  5  1  0  0  0  0
 11 12  1  0  0  0  0
 12 17  1  0  0  0  0
 12 18  1  0  0  0  0
 13 20  1  0  0  0  0
 13 12  1  0  0  0  0
 13 19  1  0  0  0  0
 14 13  1  0  0  0  0
 15 16  1  0  0  0  0
 15 14  1  0  0  0  0
 16 25  1  0  0  0  0
 16 11  1  0  0  0  0
 21 14  1  0  0  0  0
 22 15  1  0  0  0  0
 23 15  1  0  0  0  0
 24 16  1  0  0  0  0
 26 29  1  0  0  0  0
 26 28  1  0  0  0  0
 27 26  1  0  0  0  0
 29 30  1  0  0  0  0
 31 29  1  0  0  0  0
 32 37  2  0  0  0  0
 32 33  1  0  0  0  0
 33 34  2  0  0  0  0
 34 35  1  0  0  0  0
 34 29  1  0  0  0  0
 36 40  1  0  0  0  0
 36 35  2  0  0  0  0
 37 36  1  0  0  0  0
 38 32  1  0  0  0  0
 39 33  1  0  0  0  0
 40 41  1  0  0  0  0
 42 40  1  0  0  0  0
M  END
>  <minimizedAffinity>
-5.45378637

$$$$

 OpenBabel03252508243D

 42 44  0  0  0  0  0  0  0  0999 V2000
   37.0440   27.3810   41.8380 C   0  0  0  0  0  0  0  0  0  0  0  0
   37.3540   26.2150   42.5060 C   0  0  0  0  0  0  0  0  0  0  0  0
   37.2910   24.9600   41.9450 C   0  0  0  0  0  0  0  0  0  0  0  0
   36.8810   24.9160   40.6050 C   0  0  0  0  0  0  0  0  0  0  0  0
   36.5630   26.0470   39.8990 C   0  0  0  0  0  0  0  0  0  0  0  0
   36.6390   27.2730   40.4970 C   0  0  0  0  0  0  0  0  0  0  0  0
   37.6870   26.1680   43.5310 H   0  0  0  0  0  0  0  0  0  0  0  0
   37.5210   24.0370   42.4230 H   0  0  0  0  0  0  0  0  0  0  0  0
   36.8130   23.9420   40.1040 H   0  0  0  0  0  0  0  0  0  0  0  0
   36.2550   25.9210   38.8660 H   0  0  0  0  0  0  0  0  0  0  0  0
   36.2990   28.3720   39.6900 N   0  0  0  0  0  0  0  0  0  0  0  0
   37.1670   28.9570   38.7110 C   0  0  0  0  0  0  0  0  0  0  0  0
   36.3890   29.7670   37.7030 C   0  0  0  0  0  0  0  0  0  0  0  0
   35.1300   29.2110   37.3340 N   0  0  0  0  0  0  0  0  0  0  0  0
   34.2770   28.9030   38.4210 C   0  0  0  0  0  0  0  0  0  0  0  0
   35.0110   29.0830   39.7290 C   0  0  0  0  0  0  0  0  0  0  0  0
   37.7600   29.7330   39.2850 H   0  0  0  0  0  0  0  0  0  0  0  0
   37.9400   28.3100   38.2870 H   0  0  0  0  0  0  0  0  0  0  0  0
   37.0180   29.7730   36.7660 H   0  0  0  0  0  0  0  0  0  0  0  0
   36.2500   30.8220   38.0100 H   0  0  0  0  0  0  0  0  0  0  0  0
   34.6910   29.8500   36.6660 H   0  0  0  0  0  0  0  0  0  0  0  0
   33.9740   27.8320   38.3580 H   0  0  0  0  0  0  0  0  0  0  0  0
   33.3580   29.5180   38.4750 H   0  0  0  0  0  0  0  0  0  0  0  0
   34.4340   28.6670   40.5740 H   0  0  0  0  0  0  0  0  0  0  0  0
   35.2300   30.1690   39.8870 H   0  0  0  0  0  0  0  0  0  0  0  0
   37.1040   28.7140   42.4460 C   0  0  0  0  0  0  0  0  0  0  0  0
   36.5240   28.8290   43.3590 H   0  0  0  0  0  0  0  0  0  0  0  0
   36.6310   29.4310   41.7110 H   0  0  0  0  0  0  0  0  0  0  0  0
   38.5300   29.1610   42.6820 C   0  0  0  0  0  0  0  0  0  0  0  0
   39.2570   28.4100   42.2510 H   0  0  0  0  0  0  0  0  0  0  0  0
   38.8170   29.3280   43.7040 H   0  0  0  0  0  0  0  0  0  0  0  0
   40.3010   32.0640   41.0450 C   0  0  0  0  0  0  0  0  0  0  0  0
   40.0960   30.8730   41.7780 C   0  0  0  0  0  0  0  0  0  0  0  0
   38.7850   30.4120   41.9260 C   0  0  0  0  0  0  0  0  0  0  0  0
   37.7750   31.1380   41.3550 N   0  0  0  0  0  0  0  0  0  0  0  0
   38.0070   32.2610   40.6680 C   0  0  0  0  0  0  0  0  0  0  0  0
   39.2620   32.7280   40.5100 N   0  0  0  0  0  0  0  0  0  0  0  0
   41.3600   32.3430   40.9850 H   0  0  0  0  0  0  0  0  0  0  0  0
   40.9140   30.3180   42.2200 H   0  0  0  0  0  0  0  0  0  0  0  0
   36.9390   33.0000   40.0810 N   0  0  0  0  0  0  0  0  0  0  0  0
   36.0430   32.4680   39.8770 H   0  0  0  0  0  0  0  0  0  0  0  0
   37.0480   34.0180   39.8670 H   0  0  0  0  0  0  0  0  0  0  0  0
  1 26  1  0  0  0  0
  1  2  1  0  0  0  0
  2  7  1  0  0  0  0
  3  8  1  0  0  0  0
  3  2  2  0  0  0  0
  4  3  1  0  0  0  0
  5  6  1  0  0  0  0
  5  4  2  0  0  0  0
  6  1  2  0  0  0  0
  9  4  1  0  0  0  0
 10  5  1  0  0  0  0
 11 16  1  0  0  0  0
 11  6  1  0  0  0  0
 12 17  1  0  0  0  0
 12 11  1  0  0  0  0
 13 20  1  0  0  0  0
 13 12  1  0  0  0  0
 14 13  1  0  0  0  0
 14 15  1  0  0  0  0
 15 23  1  0  0  0  0
 15 16  1  0  0  0  0
 16 25  1  0  0  0  0
 16 24  1  0  0  0  0
 18 12  1  0  0  0  0
 19 13  1  0  0  0  0
 21 14  1  0  0  0  0
 22 15  1  0  0  0  0
 26 29  1  0  0  0  0
 26 27  1  0  0  0  0
 28 26  1  0  0  0  0
 29 31  1  0  0  0  0
 30 29  1  0  0  0  0
 32 33  1  0  0  0  0
 33 34  2  0  0  0  0
 33 39  1  0  0  0  0
 34 29  1  0  0  0  0
 35 34  1  0  0  0  0
 36 35  2  0  0  0  0
 37 36  1  0  0  0  0
 37 32  2  0  0  0  0
 38 32  1  0  0  0  0
 40 36  1  0  0  0  0
 41 40  1  0  0  0  0
 42 40  1  0  0  0  0
M  END
>  <minimizedAffinity>
-5.42149544

$$$$

 OpenBabel03252508243D

 42 44  0  0  0  0  0  0  0  0999 V2000
   37.1620   29.2240   41.8900 C   0  0  0  0  0  0  0  0  0  0  0  0
   36.4920   28.2290   42.5700 C   0  0  0  0  0  0  0  0  0  0  0  0
   37.1070   27.2500   43.3170 C   0  0  0  0  0  0  0  0  0  0  0  0
   38.5060   27.3120   43.3590 C   0  0  0  0  0  0  0  0  0  0  0  0
   39.2180   28.2820   42.7010 C   0  0  0  0  0  0  0  0  0  0  0  0
   38.5650   29.2330   41.9710 C   0  0  0  0  0  0  0  0  0  0  0  0
   35.4190   28.1220   42.5950 H   0  0  0  0  0  0  0  0  0  0  0  0
   36.6290   26.4670   43.8550 H   0  0  0  0  0  0  0  0  0  0  0  0
   39.0520   26.5570   43.9400 H   0  0  0  0  0  0  0  0  0  0  0  0
   40.2990   28.2540   42.7880 H   0  0  0  0  0  0  0  0  0  0  0  0
   39.3800   30.1870   41.3380 N   0  0  0  0  0  0  0  0  0  0  0  0
   39.9990   30.0030   40.0580 C   0  0  0  0  0  0  0  0  0  0  0  0
   40.3900   31.3240   39.4420 C   0  0  0  0  0  0  0  0  0  0  0  0
   39.4650   32.3840   39.6680 N   0  0  0  0  0  0  0  0  0  0  0  0
   39.1310   32.6000   41.0270 C   0  0  0  0  0  0  0  0  0  0  0  0
   39.7200   31.5080   41.8900 C   0  0  0  0  0  0  0  0  0  0  0  0
   40.9900   29.5070   40.2910 H   0  0  0  0  0  0  0  0  0  0  0  0
   39.5170   29.2980   39.3740 H   0  0  0  0  0  0  0  0  0  0  0  0
   40.4020   31.1490   38.3270 H   0  0  0  0  0  0  0  0  0  0  0  0
   41.4060   31.6530   39.7320 H   0  0  0  0  0  0  0  0  0  0  0  0
   39.8410   33.2260   39.2240 H   0  0  0  0  0  0  0  0  0  0  0  0
   38.0240   32.5540   41.1460 H   0  0  0  0  0  0  0  0  0  0  0  0
   39.4810   33.5660   41.4400 H   0  0  0  0  0  0  0  0  0  0  0  0
   39.3170   31.5470   42.9170 H   0  0  0  0  0  0  0  0  0  0  0  0
   40.8360   31.5960   41.8920 H   0  0  0  0  0  0  0  0  0  0  0  0
   36.5000   30.2590   41.0890 C   0  0  0  0  0  0  0  0  0  0  0  0
   37.1740   30.9250   40.5540 H   0  0  0  0  0  0  0  0  0  0  0  0
   35.9460   30.9280   41.8110 H   0  0  0  0  0  0  0  0  0  0  0  0
   35.4910   29.6680   40.1300 C   0  0  0  0  0  0  0  0  0  0  0  0
   34.5290   30.2610   40.1530 H   0  0  0  0  0  0  0  0  0  0  0  0
   35.2310   28.6360   40.2830 H   0  0  0  0  0  0  0  0  0  0  0  0
   36.0450   29.0950   36.4410 C   0  0  0  0  0  0  0  0  0  0  0  0
   35.5540   28.9220   37.7550 C   0  0  0  0  0  0  0  0  0  0  0  0
   35.9910   29.8120   38.7400 C   0  0  0  0  0  0  0  0  0  0  0  0
   36.8680   30.7990   38.3790 N   0  0  0  0  0  0  0  0  0  0  0  0
   37.3110   30.9320   37.1240 C   0  0  0  0  0  0  0  0  0  0  0  0
   36.9060   30.0870   36.1550 N   0  0  0  0  0  0  0  0  0  0  0  0
   35.6460   28.3500   35.7420 H   0  0  0  0  0  0  0  0  0  0  0  0
   34.8610   28.1320   38.0140 H   0  0  0  0  0  0  0  0  0  0  0  0
   38.2230   31.9680   36.7720 N   0  0  0  0  0  0  0  0  0  0  0  0
   38.2450   32.8230   37.4000 H   0  0  0  0  0  0  0  0  0  0  0  0
   38.8370   31.8750   35.9300 H   0  0  0  0  0  0  0  0  0  0  0  0
  1  6  2  0  0  0  0
  1  2  1  0  0  0  0
  2  7  1  0  0  0  0
  2  3  2  0  0  0  0
  3  4  1  0  0  0  0
  3  8  1  0  0  0  0
  4  9  1  0  0  0  0
  5 10  1  0  0  0  0
  5  4  2  0  0  0  0
  6  5  1  0  0  0  0
 11 16  1  0  0  0  0
 11  6  1  0  0  0  0
 12 17  1  0  0  0  0
 12 11  1  0  0  0  0
 13 14  1  0  0  0  0
 13 20  1  0  0  0  0
 13 12  1  0  0  0  0
 14 15  1  0  0  0  0
 15 22  1  0  0  0  0
 15 23  1  0  0  0  0
 15 16  1  0  0  0  0
 16 25  1  0  0  0  0
 16 24  1  0  0  0  0
 18 12  1  0  0  0  0
 19 13  1  0  0  0  0
 21 14  1  0  0  0  0
 26 28  1  0  0  0  0
 26  1  1  0  0  0  0
 27 26  1  0  0  0  0
 29 30  1  0  0  0  0
 29 31  1  0  0  0  0
 29 26  1  0  0  0  0
 32 33  1  0  0  0  0
 33 39  1  0  0  0  0
 33 34  2  0  0  0  0
 34 29  1  0  0  0  0
 35 34  1  0  0  0  0
 36 35  2  0  0  0  0
 37 32  2  0  0  0  0
 37 36  1  0  0  0  0
 38 32  1  0  0  0  0
 40 36  1  0  0  0  0
 40 41  1  0  0  0  0
 42 40  1  0  0  0  0
M  END
>  <minimizedAffinity>
-5.40545464

$$$$

 OpenBabel03252508243D

 42 44  0  0  0  0  0  0  0  0999 V2000
   37.5200   27.2490   42.0630 C   0  0  0  0  0  0  0  0  0  0  0  0
   36.9260   26.0200   42.2610 C   0  0  0  0  0  0  0  0  0  0  0  0
   37.5840   24.8160   42.1630 C   0  0  0  0  0  0  0  0  0  0  0  0
   38.9450   24.8950   41.8370 C   0  0  0  0  0  0  0  0  0  0  0  0
   39.5810   26.0920   41.6300 C   0  0  0  0  0  0  0  0  0  0  0  0
   38.8870   27.2640   41.7380 C   0  0  0  0  0  0  0  0  0  0  0  0
   35.8900   25.8780   42.5260 H   0  0  0  0  0  0  0  0  0  0  0  0
   37.1650   23.8490   42.3080 H   0  0  0  0  0  0  0  0  0  0  0  0
   39.5220   23.9660   41.7440 H   0  0  0  0  0  0  0  0  0  0  0  0
   40.6360   26.0600   41.3820 H   0  0  0  0  0  0  0  0  0  0  0  0
   39.6260   28.4380   41.5140 N   0  0  0  0  0  0  0  0  0  0  0  0
   39.8070   29.0480   40.2300 C   0  0  0  0  0  0  0  0  0  0  0  0
   40.2110   30.4960   40.3620 C   0  0  0  0  0  0  0  0  0  0  0  0
   39.5780   31.1970   41.4300 N   0  0  0  0  0  0  0  0  0  0  0  0
   39.6950   30.5770   42.6970 C   0  0  0  0  0  0  0  0  0  0  0  0
   40.3220   29.2100   42.5550 C   0  0  0  0  0  0  0  0  0  0  0  0
   40.7280   28.5460   39.8040 H   0  0  0  0  0  0  0  0  0  0  0  0
   39.0390   28.8500   39.4760 H   0  0  0  0  0  0  0  0  0  0  0  0
   39.8700   30.9970   39.4100 H   0  0  0  0  0  0  0  0  0  0  0  0
   41.3070   30.6350   40.4300 H   0  0  0  0  0  0  0  0  0  0  0  0
   39.9410   32.1540   41.4320 H   0  0  0  0  0  0  0  0  0  0  0  0
   38.6780   30.4290   43.1290 H   0  0  0  0  0  0  0  0  0  0  0  0
   40.3020   31.1400   43.4320 H   0  0  0  0  0  0  0  0  0  0  0  0
   40.2480   28.6340   43.4940 H   0  0  0  0  0  0  0  0  0  0  0  0
   41.3890   29.3220   42.2350 H   0  0  0  0  0  0  0  0  0  0  0  0
   36.8100   28.5290   42.1610 C   0  0  0  0  0  0  0  0  0  0  0  0
   37.4510   29.4050   42.2230 H   0  0  0  0  0  0  0  0  0  0  0  0
   36.2440   28.5150   43.1390 H   0  0  0  0  0  0  0  0  0  0  0  0
   35.8060   28.7030   41.0430 C   0  0  0  0  0  0  0  0  0  0  0  0
   34.8200   29.0760   41.4510 H   0  0  0  0  0  0  0  0  0  0  0  0
   35.5940   27.8320   40.4490 H   0  0  0  0  0  0  0  0  0  0  0  0
   36.8930   30.5450   37.9330 C   0  0  0  0  0  0  0  0  0  0  0  0
   36.4590   29.4950   38.7740 C   0  0  0  0  0  0  0  0  0  0  0  0
   36.2690   29.7770   40.1300 C   0  0  0  0  0  0  0  0  0  0  0  0
   36.5140   31.0510   40.5670 N   0  0  0  0  0  0  0  0  0  0  0  0
   36.9240   32.0190   39.7420 C   0  0  0  0  0  0  0  0  0  0  0  0
   37.1150   31.7740   38.4300 N   0  0  0  0  0  0  0  0  0  0  0  0
   37.0130   30.2260   36.8910 H   0  0  0  0  0  0  0  0  0  0  0  0
   36.2730   28.4950   38.4020 H   0  0  0  0  0  0  0  0  0  0  0  0
   37.1720   33.3380   40.2200 N   0  0  0  0  0  0  0  0  0  0  0  0
   36.6810   33.6240   41.1170 H   0  0  0  0  0  0  0  0  0  0  0  0
   37.8100   33.9840   39.7000 H   0  0  0  0  0  0  0  0  0  0  0  0
  1 26  1  0  0  0  0
  1  2  1  0  0  0  0
  2  7  1  0  0  0  0
  3  2  2  0  0  0  0
  3  8  1  0  0  0  0
  4  3  1  0  0  0  0
  5  6  1  0  0  0  0
  5  4  2  0  0  0  0
  6  1  2  0  0  0  0
  9  4  1  0  0  0  0
 10  5  1  0  0  0  0
 11  6  1  0  0  0  0
 11 16  1  0  0  0  0
 12 13  1  0  0  0  0
 12 11  1  0  0  0  0
 13 20  1  0  0  0  0
 13 14  1  0  0  0  0
 14 21  1  0  0  0  0
 14 15  1  0  0  0  0
 15 22  1  0  0  0  0
 15 23  1  0  0  0  0
 16 15  1  0  0  0  0
 16 24  1  0  0  0  0
 17 12  1  0  0  0  0
 18 12  1  0  0  0  0
 19 13  1  0  0  0  0
 25 16  1  0  0  0  0
 26 27  1  0  0  0  0
 26 28  1  0  0  0  0
 29 30  1  0  0  0  0
 29 26  1  0  0  0  0
 31 29  1  0  0  0  0
 32 37  2  0  0  0  0
 32 33  1  0  0  0  0
 33 34  2  0  0  0  0
 34 35  1  0  0  0  0
 34 29  1  0  0  0  0
 36 40  1  0  0  0  0
 36 35  2  0  0  0  0
 37 36  1  0  0  0  0
 38 32  1  0  0  0  0
 39 33  1  0  0  0  0
 40 41  1  0  0  0  0
 42 40  1  0  0  0  0
M  END
>  <minimizedAffinity>
-5.37238264

$$$$
