
 OpenBabel03252506323D

 26 27  0  0  1  0  0  0  0  0999 V2000
   41.2640   32.3670   37.1370 C   0  0  0  0  0  0  0  0  0  0  0  0
   41.8220   33.5590   37.5930 C   0  0  0  0  0  0  0  0  0  0  0  0
   41.3790   34.0600   38.7900 C   0  0  0  0  0  0  0  0  0  0  0  0
   40.4140   33.3670   39.4780 N   0  0  0  0  0  0  0  0  0  0  0  0
   39.9080   32.2230   39.0000 C   0  0  0  0  0  0  0  0  0  0  0  0
   40.3220   31.7040   37.8240 N   0  0  0  0  0  0  0  0  0  0  0  0
   38.9180   31.5560   39.7640 N   0  0  0  0  0  0  0  0  0  0  0  0
   38.5020   30.1670   39.5870 C   0  0  0  0  0  0  0  0  0  0  0  0
   37.0310   30.2530   39.8810 C   0  0  0  0  0  0  0  0  0  0  0  0
   36.7630   31.6130   40.4700 C   0  0  0  0  0  0  0  0  0  0  0  0
   38.1230   32.1000   40.8630 C   0  0  2  0  0  0  0  0  0  0  0  0
   41.5750   31.9320   36.2070 H   0  0  0  0  0  0  0  0  0  0  0  0
   41.8110   34.9710   39.1310 H   0  0  0  0  0  0  0  0  0  0  0  0
   38.6930   29.8900   38.5400 H   0  0  0  0  0  0  0  0  0  0  0  0
   39.0550   29.4910   40.2700 H   0  0  0  0  0  0  0  0  0  0  0  0
   36.7410   29.4340   40.5800 H   0  0  0  0  0  0  0  0  0  0  0  0
   36.4490   30.1460   38.9430 H   0  0  0  0  0  0  0  0  0  0  0  0
   36.3020   32.3040   39.7350 H   0  0  0  0  0  0  0  0  0  0  0  0
   36.1230   31.4730   41.3690 H   0  0  0  0  0  0  0  0  0  0  0  0
   38.4540   31.7450   41.8500 H   0  0  0  0  0  0  0  0  0  0  0  0
   42.8230   34.1570   36.7560 N   0  0  0  0  0  0  0  0  0  0  0  0
   42.6040   34.3850   35.7510 H   0  0  0  0  0  0  0  0  0  0  0  0
   43.7240   34.3230   37.2320 H   0  0  0  0  0  0  0  0  0  0  0  0
   38.1650   33.5460   40.7140 N   0  0  0  0  0  0  0  0  0  0  0  0
   39.1640   33.8040   40.5110 H   0  0  0  0  0  0  0  0  0  0  0  0
   37.6080   33.8610   39.8790 H   0  0  0  0  0  0  0  0  0  0  0  0
  1  2  2  0  0  0  0
  1  6  1  0  0  0  0
  2  3  1  0  0  0  0
  3 13  1  0  0  0  0
  3  4  2  0  0  0  0
  5  4  1  0  0  0  0
  5  7  1  0  0  0  0
  6  5  2  0  0  0  0
  7 11  1  0  0  0  0
  8  7  1  0  0  0  0
  8  9  1  0  0  0  0
  8 15  1  0  0  0  0
  9 10  1  0  0  0  0
  9 16  1  0  0  0  0
 10 11  1  0  0  0  0
 10 19  1  0  0  0  0
 11 20  1  1  0  0  0
 12  1  1  0  0  0  0
 14  8  1  0  0  0  0
 17  9  1  0  0  0  0
 18 10  1  0  0  0  0
 21 23  1  0  0  0  0
 21  2  1  0  0  0  0
 22 21  1  0  0  0  0
 24 11  1  0  0  0  0
 25 24  1  0  0  0  0
 26 24  1  0  0  0  0
M  END
>  <minimizedAffinity>
-4.69101477

$$$$

 OpenBabel03252506323D

 26 27  0  0  1  0  0  0  0  0999 V2000
   38.9390   30.4130   37.6800 C   0  0  0  0  0  0  0  0  0  0  0  0
   38.2610   31.6180   37.5120 C   0  0  0  0  0  0  0  0  0  0  0  0
   37.4810   32.0660   38.5460 C   0  0  0  0  0  0  0  0  0  0  0  0
   37.4070   31.3110   39.6910 N   0  0  0  0  0  0  0  0  0  0  0  0
   38.0790   30.1580   39.8060 C   0  0  0  0  0  0  0  0  0  0  0  0
   38.8550   29.6890   38.8060 N   0  0  0  0  0  0  0  0  0  0  0  0
   37.9610   29.4320   41.0180 N   0  0  0  0  0  0  0  0  0  0  0  0
   38.8530   28.3610   41.4550 C   0  0  0  0  0  0  0  0  0  0  0  0
   37.8940   27.4330   42.1460 C   0  0  0  0  0  0  0  0  0  0  0  0
   36.5840   28.1610   42.2970 C   0  0  0  0  0  0  0  0  0  0  0  0
   36.9490   29.5930   42.0600 C   0  0  2  0  0  0  0  0  0  0  0  0
   39.5630   30.0170   36.9020 H   0  0  0  0  0  0  0  0  0  0  0  0
   36.9660   32.9870   38.4100 H   0  0  0  0  0  0  0  0  0  0  0  0
   39.2910   27.9010   40.5570 H   0  0  0  0  0  0  0  0  0  0  0  0
   39.6530   28.7500   42.1170 H   0  0  0  0  0  0  0  0  0  0  0  0
   38.3150   27.1270   43.1320 H   0  0  0  0  0  0  0  0  0  0  0  0
   37.7330   26.5250   41.5280 H   0  0  0  0  0  0  0  0  0  0  0  0
   35.8310   27.8250   41.5550 H   0  0  0  0  0  0  0  0  0  0  0  0
   36.2340   28.0140   43.3420 H   0  0  0  0  0  0  0  0  0  0  0  0
   37.3320   30.1080   42.9540 H   0  0  0  0  0  0  0  0  0  0  0  0
   38.4490   32.2860   36.2560 N   0  0  0  0  0  0  0  0  0  0  0  0
   38.2360   31.7850   35.3540 H   0  0  0  0  0  0  0  0  0  0  0  0
   38.7950   33.2550   36.3440 H   0  0  0  0  0  0  0  0  0  0  0  0
   35.8240   30.2650   41.4300 N   0  0  0  0  0  0  0  0  0  0  0  0
   36.2210   31.0500   40.8520 H   0  0  0  0  0  0  0  0  0  0  0  0
   35.3280   29.6300   40.7550 H   0  0  0  0  0  0  0  0  0  0  0  0
  1  6  1  0  0  0  0
  2  1  2  0  0  0  0
  2  3  1  0  0  0  0
  3  4  2  0  0  0  0
  4  5  1  0  0  0  0
  5  7  1  0  0  0  0
  6  5  2  0  0  0  0
  7  8  1  0  0  0  0
  7 11  1  0  0  0  0
  8 15  1  0  0  0  0
  8  9  1  0  0  0  0
  9 10  1  0  0  0  0
  9 16  1  0  0  0  0
 10 19  1  0  0  0  0
 11 10  1  0  0  0  0
 11 20  1  1  0  0  0
 12  1  1  0  0  0  0
 13  3  1  0  0  0  0
 14  8  1  0  0  0  0
 17  9  1  0  0  0  0
 18 10  1  0  0  0  0
 21 23  1  0  0  0  0
 21  2  1  0  0  0  0
 22 21  1  0  0  0  0
 24 11  1  0  0  0  0
 25 24  1  0  0  0  0
 26 24  1  0  0  0  0
M  END
>  <minimizedAffinity>
-4.60349274

$$$$

 OpenBabel03252506323D

 26 27  0  0  1  0  0  0  0  0999 V2000
   36.0860   28.5970   41.0760 C   0  0  0  0  0  0  0  0  0  0  0  0
   36.5840   29.8430   41.4490 C   0  0  0  0  0  0  0  0  0  0  0  0
   37.8630   29.9040   41.9380 C   0  0  0  0  0  0  0  0  0  0  0  0
   38.5880   28.7420   42.0350 N   0  0  0  0  0  0  0  0  0  0  0  0
   38.0660   27.5660   41.6630 C   0  0  0  0  0  0  0  0  0  0  0  0
   36.8090   27.4720   41.1780 N   0  0  0  0  0  0  0  0  0  0  0  0
   38.8720   26.4060   41.7850 N   0  0  0  0  0  0  0  0  0  0  0  0
   38.6160   25.1230   41.1350 C   0  0  0  0  0  0  0  0  0  0  0  0
   39.0780   24.1550   42.1880 C   0  0  0  0  0  0  0  0  0  0  0  0
   39.8150   24.9430   43.2390 C   0  0  0  0  0  0  0  0  0  0  0  0
   40.0970   26.2490   42.5660 C   0  0  2  0  0  0  0  0  0  0  0  0
   35.0920   28.4930   40.6870 H   0  0  0  0  0  0  0  0  0  0  0  0
   38.2360   30.8600   42.2200 H   0  0  0  0  0  0  0  0  0  0  0  0
   37.5330   25.0470   40.9580 H   0  0  0  0  0  0  0  0  0  0  0  0
   39.1690   25.0400   40.1780 H   0  0  0  0  0  0  0  0  0  0  0  0
   39.7270   23.3780   41.7210 H   0  0  0  0  0  0  0  0  0  0  0  0
   38.2040   23.6570   42.6560 H   0  0  0  0  0  0  0  0  0  0  0  0
   39.2010   25.1000   44.1490 H   0  0  0  0  0  0  0  0  0  0  0  0
   40.7620   24.4050   43.4640 H   0  0  0  0  0  0  0  0  0  0  0  0
   41.0050   26.2420   41.9440 H   0  0  0  0  0  0  0  0  0  0  0  0
   35.6990   30.9600   41.2800 N   0  0  0  0  0  0  0  0  0  0  0  0
   34.7490   30.9550   41.7370 H   0  0  0  0  0  0  0  0  0  0  0  0
   36.0860   31.7170   40.6940 H   0  0  0  0  0  0  0  0  0  0  0  0
   40.0760   27.3050   43.5650 N   0  0  0  0  0  0  0  0  0  0  0  0
   39.7890   28.1880   43.0710 H   0  0  0  0  0  0  0  0  0  0  0  0
   39.3400   27.1280   44.2950 H   0  0  0  0  0  0  0  0  0  0  0  0
  1  6  2  0  0  0  0
  1  2  1  0  0  0  0
  2  3  2  0  0  0  0
  3  4  1  0  0  0  0
  3 13  1  0  0  0  0
  5  7  1  0  0  0  0
  5  4  2  0  0  0  0
  6  5  1  0  0  0  0
  7 11  1  0  0  0  0
  8  7  1  0  0  0  0
  8  9  1  0  0  0  0
  9 17  1  0  0  0  0
  9 10  1  0  0  0  0
 10 19  1  0  0  0  0
 10 18  1  0  0  0  0
 11 20  1  6  0  0  0
 11 10  1  0  0  0  0
 11 24  1  0  0  0  0
 12  1  1  0  0  0  0
 14  8  1  0  0  0  0
 15  8  1  0  0  0  0
 16  9  1  0  0  0  0
 21  2  1  0  0  0  0
 21 22  1  0  0  0  0
 23 21  1  0  0  0  0
 24 26  1  0  0  0  0
 25 24  1  0  0  0  0
M  END
>  <minimizedAffinity>
-4.56104469

$$$$

 OpenBabel03252506323D

 26 27  0  0  1  0  0  0  0  0999 V2000
   38.0400   31.4890   41.2170 C   0  0  0  0  0  0  0  0  0  0  0  0
   36.9270   31.1470   40.4540 C   0  0  0  0  0  0  0  0  0  0  0  0
   37.0940   31.0040   39.1010 C   0  0  0  0  0  0  0  0  0  0  0  0
   38.3430   31.2030   38.5670 N   0  0  0  0  0  0  0  0  0  0  0  0
   39.3850   31.5310   39.3420 C   0  0  0  0  0  0  0  0  0  0  0  0
   39.2530   31.6800   40.6770 N   0  0  0  0  0  0  0  0  0  0  0  0
   40.6480   31.7180   38.7250 N   0  0  0  0  0  0  0  0  0  0  0  0
   41.9340   31.7420   39.4160 C   0  0  0  0  0  0  0  0  0  0  0  0
   42.6810   32.7790   38.6250 C   0  0  0  0  0  0  0  0  0  0  0  0
   41.8800   33.0700   37.3840 C   0  0  0  0  0  0  0  0  0  0  0  0
   40.9250   31.9200   37.3040 C   0  0  2  0  0  0  0  0  0  0  0  0
   37.9650   31.6130   42.2800 H   0  0  0  0  0  0  0  0  0  0  0  0
   36.2380   30.7420   38.5250 H   0  0  0  0  0  0  0  0  0  0  0  0
   41.7530   32.0690   40.4510 H   0  0  0  0  0  0  0  0  0  0  0  0
   42.4140   30.7430   39.4080 H   0  0  0  0  0  0  0  0  0  0  0  0
   43.7010   32.4000   38.3810 H   0  0  0  0  0  0  0  0  0  0  0  0
   42.7780   33.7120   39.2190 H   0  0  0  0  0  0  0  0  0  0  0  0
   41.3260   34.0280   37.4580 H   0  0  0  0  0  0  0  0  0  0  0  0
   42.5790   33.0590   36.5190 H   0  0  0  0  0  0  0  0  0  0  0  0
   41.3440   31.0270   36.8170 H   0  0  0  0  0  0  0  0  0  0  0  0
   35.6940   30.9700   41.1680 N   0  0  0  0  0  0  0  0  0  0  0  0
   35.3180   31.7470   41.7720 H   0  0  0  0  0  0  0  0  0  0  0  0
   35.2540   30.0470   41.0220 H   0  0  0  0  0  0  0  0  0  0  0  0
   39.6810   32.3830   36.7120 N   0  0  0  0  0  0  0  0  0  0  0  0
   38.9150   31.7720   37.0920 H   0  0  0  0  0  0  0  0  0  0  0  0
   39.4510   33.3620   37.0210 H   0  0  0  0  0  0  0  0  0  0  0  0
  1 12  1  0  0  0  0
  2 21  1  0  0  0  0
  2  1  2  0  0  0  0
  3  2  1  0  0  0  0
  4  3  2  0  0  0  0
  4  5  1  0  0  0  0
  5  6  2  0  0  0  0
  6  1  1  0  0  0  0
  7  5  1  0  0  0  0
  7  8  1  0  0  0  0
  8 14  1  0  0  0  0
  9 17  1  0  0  0  0
  9  8  1  0  0  0  0
 10 18  1  0  0  0  0
 10  9  1  0  0  0  0
 11 20  1  6  0  0  0
 11 10  1  0  0  0  0
 11  7  1  0  0  0  0
 13  3  1  0  0  0  0
 15  8  1  0  0  0  0
 16  9  1  0  0  0  0
 19 10  1  0  0  0  0
 21 22  1  0  0  0  0
 23 21  1  0  0  0  0
 24 26  1  0  0  0  0
 24 25  1  0  0  0  0
 24 11  1  0  0  0  0
M  END
>  <minimizedAffinity>
-4.54138327

$$$$

 OpenBabel03252506323D

 26 27  0  0  1  0  0  0  0  0999 V2000
   37.2430   30.5950   38.6930 C   0  0  0  0  0  0  0  0  0  0  0  0
   37.4400   31.8270   39.3120 C   0  0  0  0  0  0  0  0  0  0  0  0
   37.7520   31.8330   40.6470 C   0  0  0  0  0  0  0  0  0  0  0  0
   37.8540   30.6330   41.3050 N   0  0  0  0  0  0  0  0  0  0  0  0
   37.6560   29.4720   40.6670 C   0  0  0  0  0  0  0  0  0  0  0  0
   37.3480   29.4320   39.3530 N   0  0  0  0  0  0  0  0  0  0  0  0
   37.7820   28.2700   41.4070 N   0  0  0  0  0  0  0  0  0  0  0  0
   37.9360   26.9350   40.8360 C   0  0  0  0  0  0  0  0  0  0  0  0
   37.1510   26.0990   41.8070 C   0  0  0  0  0  0  0  0  0  0  0  0
   36.8400   26.9610   43.0020 C   0  0  0  0  0  0  0  0  0  0  0  0
   37.7850   28.1130   42.8600 C   0  0  2  0  0  0  0  0  0  0  0  0
   36.9980   30.5330   37.6500 H   0  0  0  0  0  0  0  0  0  0  0  0
   37.9010   32.7790   41.1120 H   0  0  0  0  0  0  0  0  0  0  0  0
   37.4750   26.9420   39.8370 H   0  0  0  0  0  0  0  0  0  0  0  0
   39.0050   26.6490   40.7640 H   0  0  0  0  0  0  0  0  0  0  0  0
   37.7430   25.1970   42.0890 H   0  0  0  0  0  0  0  0  0  0  0  0
   36.1980   25.7710   41.3410 H   0  0  0  0  0  0  0  0  0  0  0  0
   35.7900   27.3190   42.9980 H   0  0  0  0  0  0  0  0  0  0  0  0
   37.0750   26.3710   43.9150 H   0  0  0  0  0  0  0  0  0  0  0  0
   38.7870   27.9180   43.2690 H   0  0  0  0  0  0  0  0  0  0  0  0
   37.3010   32.9880   38.4800 N   0  0  0  0  0  0  0  0  0  0  0  0
   36.4080   33.1500   37.9450 H   0  0  0  0  0  0  0  0  0  0  0  0
   38.1300   33.6030   38.4750 H   0  0  0  0  0  0  0  0  0  0  0  0
   37.1520   29.3070   43.3960 N   0  0  0  0  0  0  0  0  0  0  0  0
   37.5620   30.1270   42.8810 H   0  0  0  0  0  0  0  0  0  0  0  0
   36.1210   29.3200   43.1900 H   0  0  0  0  0  0  0  0  0  0  0  0
  1  2  2  0  0  0  0
  1  6  1  0  0  0  0
  2  3  1  0  0  0  0
  3 13  1  0  0  0  0
  3  4  2  0  0  0  0
  5  4  1  0  0  0  0
  5  7  1  0  0  0  0
  6  5  2  0  0  0  0
  7 11  1  0  0  0  0
  8  7  1  0  0  0  0
  8  9  1  0  0  0  0
  9 16  1  0  0  0  0
  9 10  1  0  0  0  0
 10 19  1  0  0  0  0
 11 10  1  0  0  0  0
 11 20  1  1  0  0  0
 11 24  1  0  0  0  0
 12  1  1  0  0  0  0
 14  8  1  0  0  0  0
 15  8  1  0  0  0  0
 17  9  1  0  0  0  0
 18 10  1  0  0  0  0
 21  2  1  0  0  0  0
 22 21  1  0  0  0  0
 23 21  1  0  0  0  0
 25 24  1  0  0  0  0
 26 24  1  0  0  0  0
M  END
>  <minimizedAffinity>
-4.54059744

$$$$

 OpenBabel03252506323D

 26 27  0  0  1  0  0  0  0  0999 V2000
   39.8860   31.8660   38.8290 C   0  0  0  0  0  0  0  0  0  0  0  0
   39.7280   33.0700   39.5110 C   0  0  0  0  0  0  0  0  0  0  0  0
   38.8090   33.1180   40.5270 C   0  0  0  0  0  0  0  0  0  0  0  0
   38.0930   31.9840   40.8220 N   0  0  0  0  0  0  0  0  0  0  0  0
   38.2810   30.8470   40.1380 C   0  0  0  0  0  0  0  0  0  0  0  0
   39.1780   30.7680   39.1320 N   0  0  0  0  0  0  0  0  0  0  0  0
   37.5120   29.7130   40.4990 N   0  0  0  0  0  0  0  0  0  0  0  0
   37.8020   28.3340   40.1150 C   0  0  0  0  0  0  0  0  0  0  0  0
   36.4190   27.7780   39.9200 C   0  0  0  0  0  0  0  0  0  0  0  0
   35.4420   28.7840   40.4700 C   0  0  0  0  0  0  0  0  0  0  0  0
   36.2970   29.6800   41.3110 C   0  0  2  0  0  0  0  0  0  0  0  0
   40.5910   31.7740   38.0260 H   0  0  0  0  0  0  0  0  0  0  0  0
   38.6950   34.0420   41.0430 H   0  0  0  0  0  0  0  0  0  0  0  0
   38.3680   28.3610   39.1720 H   0  0  0  0  0  0  0  0  0  0  0  0
   38.3870   27.8130   40.8990 H   0  0  0  0  0  0  0  0  0  0  0  0
   36.3360   26.7940   40.4380 H   0  0  0  0  0  0  0  0  0  0  0  0
   36.2180   27.6330   38.8390 H   0  0  0  0  0  0  0  0  0  0  0  0
   34.9440   29.3650   39.6680 H   0  0  0  0  0  0  0  0  0  0  0  0
   34.7110   28.2350   41.1020 H   0  0  0  0  0  0  0  0  0  0  0  0
   36.4700   29.3020   42.3290 H   0  0  0  0  0  0  0  0  0  0  0  0
   40.5560   34.1600   39.0810 N   0  0  0  0  0  0  0  0  0  0  0  0
   40.5390   34.4720   38.0750 H   0  0  0  0  0  0  0  0  0  0  0  0
   41.1320   34.5720   39.8330 H   0  0  0  0  0  0  0  0  0  0  0  0
   35.7470   31.0260   41.2690 N   0  0  0  0  0  0  0  0  0  0  0  0
   36.5500   31.6890   41.4180 H   0  0  0  0  0  0  0  0  0  0  0  0
   35.3570   31.2510   40.3190 H   0  0  0  0  0  0  0  0  0  0  0  0
  1  6  2  0  0  0  0
  1  2  1  0  0  0  0
  2  3  2  0  0  0  0
  3  4  1  0  0  0  0
  3 13  1  0  0  0  0
  5  7  1  0  0  0  0
  5  4  2  0  0  0  0
  6  5  1  0  0  0  0
  7 11  1  0  0  0  0
  8  7  1  0  0  0  0
  8 15  1  0  0  0  0
  9  8  1  0  0  0  0
  9 16  1  0  0  0  0
  9 10  1  0  0  0  0
 10 19  1  0  0  0  0
 10 11  1  0  0  0  0
 11 20  1  1  0  0  0
 12  1  1  0  0  0  0
 14  8  1  0  0  0  0
 17  9  1  0  0  0  0
 18 10  1  0  0  0  0
 21  2  1  0  0  0  0
 21 23  1  0  0  0  0
 22 21  1  0  0  0  0
 24 11  1  0  0  0  0
 24 25  1  0  0  0  0
 26 24  1  0  0  0  0
M  END
>  <minimizedAffinity>
-4.53313112

$$$$

 OpenBabel03252506323D

 26 27  0  0  1  0  0  0  0  0999 V2000
   39.1340   32.1520   41.0700 C   0  0  0  0  0  0  0  0  0  0  0  0
   38.2100   32.7270   40.2010 C   0  0  0  0  0  0  0  0  0  0  0  0
   37.0140   32.0820   40.0180 C   0  0  0  0  0  0  0  0  0  0  0  0
   36.7860   30.9100   40.6950 N   0  0  0  0  0  0  0  0  0  0  0  0
   37.7060   30.3960   41.5220 C   0  0  0  0  0  0  0  0  0  0  0  0
   38.8940   31.0060   41.7240 N   0  0  0  0  0  0  0  0  0  0  0  0
   37.4030   29.1850   42.1930 N   0  0  0  0  0  0  0  0  0  0  0  0
   38.1120   28.6600   43.3570 C   0  0  0  0  0  0  0  0  0  0  0  0
   38.0750   27.1820   43.0910 C   0  0  0  0  0  0  0  0  0  0  0  0
   37.1170   26.9480   41.9520 C   0  0  0  0  0  0  0  0  0  0  0  0
   36.3460   28.2280   41.8730 C   0  0  2  0  0  0  0  0  0  0  0  0
   40.0850   32.6150   41.2500 H   0  0  0  0  0  0  0  0  0  0  0  0
   36.3130   32.5280   39.3520 H   0  0  0  0  0  0  0  0  0  0  0  0
   39.1390   29.0540   43.3300 H   0  0  0  0  0  0  0  0  0  0  0  0
   37.6110   28.9570   44.3000 H   0  0  0  0  0  0  0  0  0  0  0  0
   37.7580   26.6440   44.0160 H   0  0  0  0  0  0  0  0  0  0  0  0
   39.0820   26.8230   42.7960 H   0  0  0  0  0  0  0  0  0  0  0  0
   37.6450   26.7530   40.9960 H   0  0  0  0  0  0  0  0  0  0  0  0
   36.4500   26.1050   42.2380 H   0  0  0  0  0  0  0  0  0  0  0  0
   35.4960   28.2780   42.5690 H   0  0  0  0  0  0  0  0  0  0  0  0
   38.6010   33.9570   39.5750 N   0  0  0  0  0  0  0  0  0  0  0  0
   39.4910   34.0040   39.0140 H   0  0  0  0  0  0  0  0  0  0  0  0
   37.9440   34.7370   39.7350 H   0  0  0  0  0  0  0  0  0  0  0  0
   35.9870   28.4730   40.4850 N   0  0  0  0  0  0  0  0  0  0  0  0
   35.9070   29.5150   40.3700 H   0  0  0  0  0  0  0  0  0  0  0  0
   36.7510   28.1660   39.8320 H   0  0  0  0  0  0  0  0  0  0  0  0
  1 12  1  0  0  0  0
  1  6  1  0  0  0  0
  2  1  2  0  0  0  0
  3  2  1  0  0  0  0
  3  4  2  0  0  0  0
  4  5  1  0  0  0  0
  5  6  2  0  0  0  0
  5  7  1  0  0  0  0
  7  8  1  0  0  0  0
  8 15  1  0  0  0  0
  9  8  1  0  0  0  0
  9 16  1  0  0  0  0
 10 19  1  0  0  0  0
 10  9  1  0  0  0  0
 11 10  1  0  0  0  0
 11  7  1  0  0  0  0
 11 20  1  1  0  0  0
 13  3  1  0  0  0  0
 14  8  1  0  0  0  0
 17  9  1  0  0  0  0
 18 10  1  0  0  0  0
 21 23  1  0  0  0  0
 21  2  1  0  0  0  0
 22 21  1  0  0  0  0
 24 11  1  0  0  0  0
 25 24  1  0  0  0  0
 26 24  1  0  0  0  0
M  END
>  <minimizedAffinity>
-4.45454884

$$$$

 OpenBabel03252506323D

 26 27  0  0  1  0  0  0  0  0999 V2000
   36.9530   32.0420   40.3420 C   0  0  0  0  0  0  0  0  0  0  0  0
   38.2180   32.5730   40.1080 C   0  0  0  0  0  0  0  0  0  0  0  0
   39.3080   31.8150   40.4520 C   0  0  0  0  0  0  0  0  0  0  0  0
   39.1000   30.5770   41.0070 N   0  0  0  0  0  0  0  0  0  0  0  0
   37.8630   30.1070   41.2130 C   0  0  0  0  0  0  0  0  0  0  0  0
   36.7700   30.8290   40.8850 N   0  0  0  0  0  0  0  0  0  0  0  0
   37.7210   28.8180   41.7860 N   0  0  0  0  0  0  0  0  0  0  0  0
   36.5010   28.0150   41.7750 C   0  0  0  0  0  0  0  0  0  0  0  0
   36.5710   27.3440   43.1170 C   0  0  0  0  0  0  0  0  0  0  0  0
   37.9460   27.5910   43.6800 C   0  0  0  0  0  0  0  0  0  0  0  0
   38.7370   28.0390   42.4900 C   0  0  2  0  0  0  0  0  0  0  0  0
   36.0670   32.5920   40.0910 H   0  0  0  0  0  0  0  0  0  0  0  0
   40.2710   32.2290   40.2700 H   0  0  0  0  0  0  0  0  0  0  0  0
   35.6460   28.7030   41.7060 H   0  0  0  0  0  0  0  0  0  0  0  0
   36.4940   27.3070   40.9210 H   0  0  0  0  0  0  0  0  0  0  0  0
   36.3590   26.2550   43.0020 H   0  0  0  0  0  0  0  0  0  0  0  0
   35.8160   27.7850   43.8010 H   0  0  0  0  0  0  0  0  0  0  0  0
   37.9430   28.3770   44.4610 H   0  0  0  0  0  0  0  0  0  0  0  0
   38.3330   26.6220   44.0650 H   0  0  0  0  0  0  0  0  0  0  0  0
   39.1390   27.2120   41.8870 H   0  0  0  0  0  0  0  0  0  0  0  0
   38.2630   33.8800   39.5170 N   0  0  0  0  0  0  0  0  0  0  0  0
   37.7660   34.6860   39.9800 H   0  0  0  0  0  0  0  0  0  0  0  0
   38.8060   33.9260   38.6400 H   0  0  0  0  0  0  0  0  0  0  0  0
   39.7440   28.9910   42.9290 N   0  0  0  0  0  0  0  0  0  0  0  0
   39.9350   29.6300   42.1160 H   0  0  0  0  0  0  0  0  0  0  0  0
   39.3800   29.6050   43.7010 H   0  0  0  0  0  0  0  0  0  0  0  0
  1  6  1  0  0  0  0
  2  1  2  0  0  0  0
  2  3  1  0  0  0  0
  3  4  2  0  0  0  0
  4  5  1  0  0  0  0
  5  7  1  0  0  0  0
  6  5  2  0  0  0  0
  7 11  1  0  0  0  0
  8  7  1  0  0  0  0
  8  9  1  0  0  0  0
  9 10  1  0  0  0  0
  9 17  1  0  0  0  0
 10 19  1  0  0  0  0
 10 18  1  0  0  0  0
 11 20  1  6  0  0  0
 11 24  1  0  0  0  0
 11 10  1  0  0  0  0
 12  1  1  0  0  0  0
 13  3  1  0  0  0  0
 14  8  1  0  0  0  0
 15  8  1  0  0  0  0
 16  9  1  0  0  0  0
 21 22  1  0  0  0  0
 21  2  1  0  0  0  0
 23 21  1  0  0  0  0
 24 26  1  0  0  0  0
 25 24  1  0  0  0  0
M  END
>  <minimizedAffinity>
-4.39925146

$$$$

 OpenBabel03252506323D

 26 27  0  0  1  0  0  0  0  0999 V2000
   35.8030   29.5990   40.2100 C   0  0  0  0  0  0  0  0  0  0  0  0
   36.6830   30.4630   40.8590 C   0  0  0  0  0  0  0  0  0  0  0  0
   37.7600   29.9160   41.5060 C   0  0  0  0  0  0  0  0  0  0  0  0
   37.9200   28.5520   41.4840 N   0  0  0  0  0  0  0  0  0  0  0  0
   37.0480   27.7620   40.8460 C   0  0  0  0  0  0  0  0  0  0  0  0
   35.9760   28.2690   40.1990 N   0  0  0  0  0  0  0  0  0  0  0  0
   37.2760   26.3630   40.8590 N   0  0  0  0  0  0  0  0  0  0  0  0
   36.6500   25.3930   39.9640 C   0  0  0  0  0  0  0  0  0  0  0  0
   36.4740   24.2120   40.8760 C   0  0  0  0  0  0  0  0  0  0  0  0
   37.2540   24.4880   42.1350 C   0  0  0  0  0  0  0  0  0  0  0  0
   38.1620   25.6120   41.7460 C   0  0  2  0  0  0  0  0  0  0  0  0
   34.9440   29.9740   39.6880 H   0  0  0  0  0  0  0  0  0  0  0  0
   38.4270   30.5830   41.9990 H   0  0  0  0  0  0  0  0  0  0  0  0
   35.6840   25.8080   39.6420 H   0  0  0  0  0  0  0  0  0  0  0  0
   37.2920   25.1860   39.0840 H   0  0  0  0  0  0  0  0  0  0  0  0
   36.8280   23.2870   40.3630 H   0  0  0  0  0  0  0  0  0  0  0  0
   35.4020   24.0890   41.1350 H   0  0  0  0  0  0  0  0  0  0  0  0
   36.5970   24.7930   42.9750 H   0  0  0  0  0  0  0  0  0  0  0  0
   37.8410   23.5750   42.3760 H   0  0  0  0  0  0  0  0  0  0  0  0
   39.0880   25.2840   41.2510 H   0  0  0  0  0  0  0  0  0  0  0  0
   36.3750   31.8620   40.7830 N   0  0  0  0  0  0  0  0  0  0  0  0
   35.4370   32.2150   41.1100 H   0  0  0  0  0  0  0  0  0  0  0  0
   37.1380   32.4400   40.3950 H   0  0  0  0  0  0  0  0  0  0  0  0
   38.3830   26.4590   42.9070 N   0  0  0  0  0  0  0  0  0  0  0  0
   38.5760   27.4280   42.5470 H   0  0  0  0  0  0  0  0  0  0  0  0
   37.5150   26.5360   43.4960 H   0  0  0  0  0  0  0  0  0  0  0  0
  1  2  1  0  0  0  0
  2  3  2  0  0  0  0
  3 13  1  0  0  0  0
  4  3  1  0  0  0  0
  5  7  1  0  0  0  0
  5  4  2  0  0  0  0
  6  1  2  0  0  0  0
  6  5  1  0  0  0  0
  7 11  1  0  0  0  0
  8  7  1  0  0  0  0
  8  9  1  0  0  0  0
  9 17  1  0  0  0  0
  9 10  1  0  0  0  0
 10 19  1  0  0  0  0
 10 18  1  0  0  0  0
 11 20  1  6  0  0  0
 11 10  1  0  0  0  0
 11 24  1  0  0  0  0
 12  1  1  0  0  0  0
 14  8  1  0  0  0  0
 15  8  1  0  0  0  0
 16  9  1  0  0  0  0
 21  2  1  0  0  0  0
 21 22  1  0  0  0  0
 23 21  1  0  0  0  0
 24 26  1  0  0  0  0
 25 24  1  0  0  0  0
M  END
>  <minimizedAffinity>
-4.29814482

$$$$
