
 OpenBabel03242510443D

 12 12  0  0  0  0  0  0  0  0999 V2000
   45.0970   35.3590   44.1760 C   0  0  0  0  0  0  0  0  0  0  0  0
   46.1240   34.7910   43.3870 C   0  0  0  0  0  0  0  0  0  0  0  0
   46.8640   33.7110   43.9160 C   0  0  0  0  0  0  0  0  0  0  0  0
   46.5330   33.2870   45.1690 N   0  0  0  0  0  0  0  0  0  0  0  0
   45.5510   33.8500   45.8940 C   0  0  0  0  0  0  0  0  0  0  0  0
   44.8440   34.8760   45.3970 N   0  0  0  0  0  0  0  0  0  0  0  0
   46.3530   35.1570   42.3990 H   0  0  0  0  0  0  0  0  0  0  0  0
   47.6560   33.2560   43.3310 H   0  0  0  0  0  0  0  0  0  0  0  0
   45.3170   33.4830   46.8920 H   0  0  0  0  0  0  0  0  0  0  0  0
   44.3510   36.4480   43.6450 N   0  0  0  0  0  0  0  0  0  0  0  0
   43.5030   36.2930   43.0550 H   0  0  0  0  0  0  0  0  0  0  0  0
   44.6580   37.4250   43.8480 H   0  0  0  0  0  0  0  0  0  0  0  0
  1  6  1  0  0  0  0
  2  3  1  0  0  0  0
  2  1  2  0  0  0  0
  3  4  2  0  0  0  0
  4  5  1  0  0  0  0
  5  9  1  0  0  0  0
  6  5  2  0  0  0  0
  7  2  1  0  0  0  0
  8  3  1  0  0  0  0
 10 12  1  0  0  0  0
 10  1  1  0  0  0  0
 11 10  1  0  0  0  0
M  END
>  <minimizedAffinity>
-2.93673515

>  <minimizedRMSD>
0.891784728

$$$$
