
 OpenBabel03252503233D

 41 45  0  0  1  0  0  0  0  0999 V2000
   46.7810   33.3150   42.6680 C   0  0  1  0  0  0  0  0  0  0  0  0
   46.8850   34.6830   42.1670 C   0  0  0  0  0  0  0  0  0  0  0  0
   48.1130   33.8530   42.1680 C   0  0  2  0  0  0  0  0  0  0  0  0
   46.3220   32.5290   42.0460 H   0  0  0  0  0  0  0  0  0  0  0  0
   46.2650   34.9290   41.3150 H   0  0  0  0  0  0  0  0  0  0  0  0
   46.7830   35.4790   42.9770 H   0  0  0  0  0  0  0  0  0  0  0  0
   48.8760   34.0570   42.9440 H   0  0  0  0  0  0  0  0  0  0  0  0
   48.5510   33.2830   40.8690 C   0  0  0  0  0  0  0  0  0  0  0  0
   49.4700   32.2630   40.7310 C   0  0  0  0  0  0  0  0  0  0  0  0
   49.8280   31.7850   39.4800 C   0  0  0  0  0  0  0  0  0  0  0  0
   49.2700   32.3240   38.3490 C   0  0  0  0  0  0  0  0  0  0  0  0
   49.5980   31.8710   37.1150 N   0  0  0  0  0  0  0  0  0  0  0  0
   49.0300   32.4170   36.0070 C   0  0  0  0  0  0  0  0  0  0  0  0
   48.0820   33.4670   36.0460 C   0  0  0  0  0  0  0  0  0  0  0  0
   47.7400   33.9350   37.2960 C   0  0  0  0  0  0  0  0  0  0  0  0
   48.3330   33.3630   38.4260 C   0  0  0  0  0  0  0  0  0  0  0  0
   48.0090   33.8040   39.6920 C   0  0  0  0  0  0  0  0  0  0  0  0
   49.8910   31.8610   41.6450 H   0  0  0  0  0  0  0  0  0  0  0  0
   50.5570   30.9750   39.3900 H   0  0  0  0  0  0  0  0  0  0  0  0
   49.3320   32.0120   35.0470 H   0  0  0  0  0  0  0  0  0  0  0  0
   47.6760   33.8470   35.1190 H   0  0  0  0  0  0  0  0  0  0  0  0
   47.0200   34.7350   37.3870 H   0  0  0  0  0  0  0  0  0  0  0  0
   47.2870   34.6090   39.6740 H   0  0  0  0  0  0  0  0  0  0  0  0
   45.8120   33.8790   44.9240 C   0  0  0  0  0  0  0  0  0  0  0  0
   46.6790   33.0480   44.1340 C   0  0  0  0  0  0  0  0  0  0  0  0
   47.3790   32.0560   44.7700 C   0  0  0  0  0  0  0  0  0  0  0  0
   47.2070   31.9210   46.1140 N   0  0  0  0  0  0  0  0  0  0  0  0
   46.3840   32.7140   46.8480 C   0  0  0  0  0  0  0  0  0  0  0  0
   45.6880   33.6920   46.2490 N   0  0  0  0  0  0  0  0  0  0  0  0
   45.2460   34.6690   44.4580 H   0  0  0  0  0  0  0  0  0  0  0  0
   48.0300   31.4210   44.2150 H   0  0  0  0  0  0  0  0  0  0  0  0
   46.2890   32.4560   48.3090 C   0  0  2  0  0  0  0  0  0  0  0  0
   46.8230   31.2480   48.9110 C   0  0  0  0  0  0  0  0  0  0  0  0
   45.3310   31.2780   48.6710 C   0  0  1  0  0  0  0  0  0  0  0  0
   46.0600   33.3520   48.9410 H   0  0  0  0  0  0  0  0  0  0  0  0
   47.1080   31.2830   49.9890 H   0  0  0  0  0  0  0  0  0  0  0  0
   47.4710   30.5580   48.3400 H   0  0  0  0  0  0  0  0  0  0  0  0
   45.0200   30.6310   47.8330 H   0  0  0  0  0  0  0  0  0  0  0  0
   44.4550   31.4480   49.7900 N   0  0  0  0  0  0  0  0  0  0  0  0
   45.0320   31.9420   50.5340 H   0  0  0  0  0  0  0  0  0  0  0  0
   43.7320   32.1410   49.5090 H   0  0  0  0  0  0  0  0  0  0  0  0
  1  4  1  6  0  0  0
  1 25  1  0  0  0  0
  2  3  1  0  0  0  0
  2  1  1  0  0  0  0
  2  6  1  0  0  0  0
  3  1  1  0  0  0  0
  3  7  1  1  0  0  0
  5  2  1  0  0  0  0
  8  3  1  0  0  0  0
  9  8  1  0  0  0  0
  9 18  1  0  0  0  0
 10  9  2  0  0  0  0
 11 16  1  0  0  0  0
 11 10  1  0  0  0  0
 12 11  2  0  0  0  0
 13 14  2  0  0  0  0
 13 12  1  0  0  0  0
 14 15  1  0  0  0  0
 15 22  1  0  0  0  0
 15 16  2  0  0  0  0
 16 17  1  0  0  0  0
 17  8  2  0  0  0  0
 19 10  1  0  0  0  0
 20 13  1  0  0  0  0
 21 14  1  0  0  0  0
 23 17  1  0  0  0  0
 24 29  1  0  0  0  0
 25 26  1  0  0  0  0
 25 24  2  0  0  0  0
 26 27  2  0  0  0  0
 27 28  1  0  0  0  0
 28 32  1  0  0  0  0
 29 28  2  0  0  0  0
 30 24  1  0  0  0  0
 31 26  1  0  0  0  0
 32 34  1  0  0  0  0
 32 33  1  0  0  0  0
 32 35  1  1  0  0  0
 33 36  1  0  0  0  0
 34 38  1  6  0  0  0
 34 33  1  0  0  0  0
 34 39  1  0  0  0  0
 37 33  1  0  0  0  0
 39 40  1  0  0  0  0
 41 39  1  0  0  0  0
M  END
>  <minimizedAffinity>
-5.3832345

>  <minimizedRMSD>
0.53882879

$$$$
