
 OpenBabel03252500523D

 18 18  0  0  0  0  0  0  0  0999 V2000
   46.0090   34.7660   43.2830 C   0  0  0  0  0  0  0  0  0  0  0  0
   45.0870   35.6670   43.7960 C   0  0  0  0  0  0  0  0  0  0  0  0
   44.6140   35.5110   45.1110 C   0  0  0  0  0  0  0  0  0  0  0  0
   45.1100   34.4610   45.8020 N   0  0  0  0  0  0  0  0  0  0  0  0
   46.0040   33.5940   45.2940 C   0  0  0  0  0  0  0  0  0  0  0  0
   46.4440   33.7520   44.0480 N   0  0  0  0  0  0  0  0  0  0  0  0
   43.8940   36.1860   45.5590 H   0  0  0  0  0  0  0  0  0  0  0  0
   46.3860   32.7640   45.8650 H   0  0  0  0  0  0  0  0  0  0  0  0
   46.5290   34.8840   41.9220 C   0  0  0  0  0  0  0  0  0  0  0  0
   46.0220   35.7510   41.4330 H   0  0  0  0  0  0  0  0  0  0  0  0
   46.3520   33.9980   41.3290 H   0  0  0  0  0  0  0  0  0  0  0  0
   48.0030   35.2100   41.9920 C   0  0  0  0  0  0  0  0  0  0  0  0
   48.5630   34.4090   41.4690 H   0  0  0  0  0  0  0  0  0  0  0  0
   48.2310   36.2140   41.5340 H   0  0  0  0  0  0  0  0  0  0  0  0
   48.4050   35.2250   43.0270 H   0  0  0  0  0  0  0  0  0  0  0  0
   44.6050   36.7520   43.0110 N   0  0  0  0  0  0  0  0  0  0  0  0
   45.1350   37.6460   43.0820 H   0  0  0  0  0  0  0  0  0  0  0  0
   43.7840   36.7950   42.3600 H   0  0  0  0  0  0  0  0  0  0  0  0
  1  2  2  0  0  0  0
  1  6  1  0  0  0  0
  2  3  1  0  0  0  0
  3  7  1  0  0  0  0
  3  4  2  0  0  0  0
  5  4  1  0  0  0  0
  5  8  1  0  0  0  0
  6  5  2  0  0  0  0
  9 12  1  0  0  0  0
  9  1  1  0  0  0  0
 10  9  1  0  0  0  0
 11  9  1  0  0  0  0
 12 15  1  0  0  0  0
 13 12  1  0  0  0  0
 14 12  1  0  0  0  0
 16 17  1  0  0  0  0
 16  2  1  0  0  0  0
 18 16  1  0  0  0  0
M  END
>  <minimizedAffinity>
-3.66169

>  <minimizedRMSD>
1.95848548

$$$$
