
 OpenBabel03242519333D

 30 31  0  0  0  0  0  0  0  0999 V2000
   45.8500   33.9570   42.9740 C   0  0  0  0  0  0  0  0  0  0  0  0
   45.1620   35.1540   42.4200 C   0  0  0  0  0  0  0  0  0  0  0  0
   45.1280   36.2910   43.3840 C   0  0  0  0  0  0  0  0  0  0  0  0
   44.5000   35.9070   44.7100 C   0  0  0  0  0  0  0  0  0  0  0  0
   45.0060   34.6000   45.2480 C   0  0  0  0  0  0  0  0  0  0  0  0
   46.1680   34.0780   44.4480 C   0  0  0  0  0  0  0  0  0  0  0  0
   45.2070   33.0500   42.8490 H   0  0  0  0  0  0  0  0  0  0  0  0
   44.1260   34.9200   42.1100 H   0  0  0  0  0  0  0  0  0  0  0  0
   45.7110   35.4950   41.5190 H   0  0  0  0  0  0  0  0  0  0  0  0
   44.4770   37.1030   42.9690 H   0  0  0  0  0  0  0  0  0  0  0  0
   46.0990   36.7680   43.5730 H   0  0  0  0  0  0  0  0  0  0  0  0
   44.5980   36.7370   45.4200 H   0  0  0  0  0  0  0  0  0  0  0  0
   43.3960   35.7810   44.5100 H   0  0  0  0  0  0  0  0  0  0  0  0
   45.3800   34.7830   46.2780 H   0  0  0  0  0  0  0  0  0  0  0  0
   44.2080   33.8250   45.3010 H   0  0  0  0  0  0  0  0  0  0  0  0
   46.4600   33.0870   44.8220 H   0  0  0  0  0  0  0  0  0  0  0  0
   47.0280   34.7560   44.6420 H   0  0  0  0  0  0  0  0  0  0  0  0
   47.1220   33.6600   42.2860 C   0  0  0  0  0  0  0  0  0  0  0  0
   48.2700   34.2710   42.8390 C   0  0  0  0  0  0  0  0  0  0  0  0
   49.5090   34.0360   42.2410 C   0  0  0  0  0  0  0  0  0  0  0  0
   49.5340   33.2220   41.1470 N   0  0  0  0  0  0  0  0  0  0  0  0
   48.4040   32.6430   40.6320 C   0  0  0  0  0  0  0  0  0  0  0  0
   47.2060   32.8650   41.2030 N   0  0  0  0  0  0  0  0  0  0  0  0
   48.5700   31.8120   39.4960 N   0  0  0  0  0  0  0  0  0  0  0  0
   48.2930   34.9100   43.6870 H   0  0  0  0  0  0  0  0  0  0  0  0
   49.1410   30.9590   39.7630 H   0  0  0  0  0  0  0  0  0  0  0  0
   48.2020   31.9760   38.5310 H   0  0  0  0  0  0  0  0  0  0  0  0
   50.7130   34.6100   42.7310 N   0  0  0  0  0  0  0  0  0  0  0  0
   51.1590   35.5400   42.5410 H   0  0  0  0  0  0  0  0  0  0  0  0
   51.0020   33.8260   43.3260 H   0  0  0  0  0  0  0  0  0  0  0  0
  1  6  1  0  0  0  0
  2  1  1  0  0  0  0
  2  3  1  0  0  0  0
  3 11  1  0  0  0  0
  3  4  1  0  0  0  0
  4  5  1  0  0  0  0
  4 12  1  0  0  0  0
  5 15  1  0  0  0  0
  5 14  1  0  0  0  0
  6 17  1  0  0  0  0
  6 16  1  0  0  0  0
  6  5  1  0  0  0  0
  7  1  1  0  0  0  0
  8  2  1  0  0  0  0
  9  2  1  0  0  0  0
 10  3  1  0  0  0  0
 13  4  1  0  0  0  0
 18 19  1  0  0  0  0
 18  1  1  0  0  0  0
 19 25  1  0  0  0  0
 20 28  1  0  0  0  0
 20 19  2  0  0  0  0
 21 20  1  0  0  0  0
 22 21  2  0  0  0  0
 22 23  1  0  0  0  0
 23 18  2  0  0  0  0
 24 26  1  0  0  0  0
 24 22  1  0  0  0  0
 27 24  1  0  0  0  0
 28 30  1  0  0  0  0
 29 28  1  0  0  0  0
M  END
>  <minimizedAffinity>
-4.76245785

>  <minimizedRMSD>
1.10253525

$$$$
