
 OpenBabel03252500053D

 39 41  0  0  0  0  0  0  0  0999 V2000
   37.3840   29.4190   42.3090 C   0  0  0  0  0  0  0  0  0  0  0  0
   36.6830   29.7010   41.1450 C   0  0  0  0  0  0  0  0  0  0  0  0
   36.2470   28.6580   40.3400 C   0  0  0  0  0  0  0  0  0  0  0  0
   36.5700   27.4190   40.8070 N   0  0  0  0  0  0  0  0  0  0  0  0
   37.2340   27.1590   41.9100 C   0  0  0  0  0  0  0  0  0  0  0  0
   37.6340   28.1720   42.6520 N   0  0  0  0  0  0  0  0  0  0  0  0
   37.7140   30.2640   42.9210 H   0  0  0  0  0  0  0  0  0  0  0  0
   35.5160   28.7780   39.1220 C   0  0  0  0  0  0  0  0  0  0  0  0
   34.1440   28.9430   39.2300 C   0  0  0  0  0  0  0  0  0  0  0  0
   33.2840   29.0760   38.1580 C   0  0  0  0  0  0  0  0  0  0  0  0
   33.7640   29.0510   36.8970 C   0  0  0  0  0  0  0  0  0  0  0  0
   35.1220   28.8910   36.7090 C   0  0  0  0  0  0  0  0  0  0  0  0
   35.6770   28.8550   35.4670 C   0  0  0  0  0  0  0  0  0  0  0  0
   37.0170   28.6970   35.2350 C   0  0  0  0  0  0  0  0  0  0  0  0
   37.8290   28.5670   36.3640 C   0  0  0  0  0  0  0  0  0  0  0  0
   37.2420   28.6070   37.6240 C   0  0  0  0  0  0  0  0  0  0  0  0
   35.9280   28.7630   37.8190 C   0  0  0  0  0  0  0  0  0  0  0  0
   33.6450   28.9770   40.2040 H   0  0  0  0  0  0  0  0  0  0  0  0
   32.2180   29.2030   38.2870 H   0  0  0  0  0  0  0  0  0  0  0  0
   33.1100   29.1530   36.0510 H   0  0  0  0  0  0  0  0  0  0  0  0
   35.0240   28.9580   34.6080 H   0  0  0  0  0  0  0  0  0  0  0  0
   37.4130   28.6750   34.2310 H   0  0  0  0  0  0  0  0  0  0  0  0
   38.8810   28.4450   36.1560 H   0  0  0  0  0  0  0  0  0  0  0  0
   38.2220   28.4540   38.6470 N   0  0  0  0  0  0  0  0  0  0  0  0
   38.6000   29.4430   38.7630 H   0  0  0  0  0  0  0  0  0  0  0  0
   38.5840   27.6600   39.2120 H   0  0  0  0  0  0  0  0  0  0  0  0
   37.4450   25.6960   42.1780 C   0  0  0  0  0  0  0  0  0  0  0  0
   38.5750   25.4870   42.9160 F   0  0  0  0  0  0  0  0  0  0  0  0
   37.4970   24.9940   40.9880 F   0  0  0  0  0  0  0  0  0  0  0  0
   36.3030   25.1810   42.8270 F   0  0  0  0  0  0  0  0  0  0  0  0
   36.3480   31.0540   40.6760 C   0  0  0  0  0  0  0  0  0  0  0  0
   35.5500   30.9990   39.9040 H   0  0  0  0  0  0  0  0  0  0  0  0
   35.8680   31.6420   41.5140 H   0  0  0  0  0  0  0  0  0  0  0  0
   37.4950   31.8440   40.1520 C   0  0  0  0  0  0  0  0  0  0  0  0
   37.6190   31.5910   39.0710 H   0  0  0  0  0  0  0  0  0  0  0  0
   38.4180   31.8270   40.7140 H   0  0  0  0  0  0  0  0  0  0  0  0
   37.0540   33.2540   40.1610 N   0  0  0  0  0  0  0  0  0  0  0  0
   37.7730   33.7560   40.7370 H   0  0  0  0  0  0  0  0  0  0  0  0
   37.1090   33.6510   39.1940 H   0  0  0  0  0  0  0  0  0  0  0  0
  1  6  1  0  0  0  0
  1  7  1  0  0  0  0
  2  1  2  0  0  0  0
  3  4  2  0  0  0  0
  3  2  1  0  0  0  0
  4  5  1  0  0  0  0
  5 27  1  0  0  0  0
  5  6  2  0  0  0  0
  8  9  1  0  0  0  0
  8  3  1  0  0  0  0
  9 18  1  0  0  0  0
 10 19  1  0  0  0  0
 10  9  2  0  0  0  0
 11 10  1  0  0  0  0
 12 11  2  0  0  0  0
 12 17  1  0  0  0  0
 13 12  1  0  0  0  0
 14 13  2  0  0  0  0
 14 15  1  0  0  0  0
 15 16  2  0  0  0  0
 16 17  1  0  0  0  0
 16 24  1  0  0  0  0
 17  8  2  0  0  0  0
 20 11  1  0  0  0  0
 21 13  1  0  0  0  0
 22 14  1  0  0  0  0
 23 15  1  0  0  0  0
 24 25  1  0  0  0  0
 24 26  1  0  0  0  0
 27 30  1  0  0  0  0
 27 28  1  0  0  0  0
 29 27  1  0  0  0  0
 31  2  1  0  0  0  0
 31 33  1  0  0  0  0
 32 31  1  0  0  0  0
 34 37  1  0  0  0  0
 34 31  1  0  0  0  0
 34 36  1  0  0  0  0
 35 34  1  0  0  0  0
 37 38  1  0  0  0  0
 39 37  1  0  0  0  0
M  END
>  <minimizedAffinity>
-6.14288044

$$$$

 OpenBabel03252500053D

 39 41  0  0  0  0  0  0  0  0999 V2000
   37.3910   30.3850   41.8030 C   0  0  0  0  0  0  0  0  0  0  0  0
   37.1670   30.3650   40.4340 C   0  0  0  0  0  0  0  0  0  0  0  0
   36.9110   29.1570   39.8000 C   0  0  0  0  0  0  0  0  0  0  0  0
   36.9090   28.0780   40.6330 N   0  0  0  0  0  0  0  0  0  0  0  0
   37.1220   28.1040   41.9290 C   0  0  0  0  0  0  0  0  0  0  0  0
   37.3620   29.2670   42.5000 N   0  0  0  0  0  0  0  0  0  0  0  0
   37.5900   31.3530   42.2720 H   0  0  0  0  0  0  0  0  0  0  0  0
   36.6580   28.9680   38.4100 C   0  0  0  0  0  0  0  0  0  0  0  0
   37.7650   28.8150   37.5890 C   0  0  0  0  0  0  0  0  0  0  0  0
   37.7060   28.6220   36.2230 C   0  0  0  0  0  0  0  0  0  0  0  0
   36.5120   28.5710   35.5960 C   0  0  0  0  0  0  0  0  0  0  0  0
   35.3630   28.7140   36.3480 C   0  0  0  0  0  0  0  0  0  0  0  0
   34.1250   28.6740   35.7850 C   0  0  0  0  0  0  0  0  0  0  0  0
   32.9620   28.8130   36.4930 C   0  0  0  0  0  0  0  0  0  0  0  0
   33.0940   29.0060   37.8700 C   0  0  0  0  0  0  0  0  0  0  0  0
   34.3680   29.0430   38.4250 C   0  0  0  0  0  0  0  0  0  0  0  0
   35.4880   28.9040   37.7080 C   0  0  0  0  0  0  0  0  0  0  0  0
   38.7840   28.8400   37.9880 H   0  0  0  0  0  0  0  0  0  0  0  0
   38.5960   28.5070   35.6190 H   0  0  0  0  0  0  0  0  0  0  0  0
   36.4470   28.4210   34.5350 H   0  0  0  0  0  0  0  0  0  0  0  0
   34.0510   28.5230   34.7150 H   0  0  0  0  0  0  0  0  0  0  0  0
   32.0000   28.7740   36.0030 H   0  0  0  0  0  0  0  0  0  0  0  0
   32.1630   29.1120   38.4060 H   0  0  0  0  0  0  0  0  0  0  0  0
   34.3040   29.2530   39.8340 N   0  0  0  0  0  0  0  0  0  0  0  0
   34.1390   28.2710   40.2120 H   0  0  0  0  0  0  0  0  0  0  0  0
   34.3730   30.0770   40.4630 H   0  0  0  0  0  0  0  0  0  0  0  0
   37.0560   26.7600   42.5960 C   0  0  0  0  0  0  0  0  0  0  0  0
   36.2250   26.7850   43.6800 F   0  0  0  0  0  0  0  0  0  0  0  0
   38.3240   26.3430   42.9570 F   0  0  0  0  0  0  0  0  0  0  0  0
   36.6400   25.8000   41.6490 F   0  0  0  0  0  0  0  0  0  0  0  0
   37.1720   31.5530   39.5670 C   0  0  0  0  0  0  0  0  0  0  0  0
   37.7540   31.3430   38.6430 H   0  0  0  0  0  0  0  0  0  0  0  0
   36.1270   31.7530   39.1850 H   0  0  0  0  0  0  0  0  0  0  0  0
   37.6810   32.7980   40.2040 C   0  0  0  0  0  0  0  0  0  0  0  0
   38.7620   32.8990   39.9420 H   0  0  0  0  0  0  0  0  0  0  0  0
   37.4680   32.9520   41.2530 H   0  0  0  0  0  0  0  0  0  0  0  0
   37.0160   33.9150   39.5000 N   0  0  0  0  0  0  0  0  0  0  0  0
   36.5380   34.4620   40.2570 H   0  0  0  0  0  0  0  0  0  0  0  0
   37.7350   34.5470   39.0760 H   0  0  0  0  0  0  0  0  0  0  0  0
  1  7  1  0  0  0  0
  1  6  1  0  0  0  0
  2  1  2  0  0  0  0
  3  2  1  0  0  0  0
  3  4  2  0  0  0  0
  4  5  1  0  0  0  0
  5  6  2  0  0  0  0
  5 27  1  0  0  0  0
  8  3  1  0  0  0  0
  9 18  1  0  0  0  0
  9  8  2  0  0  0  0
 10  9  1  0  0  0  0
 11 10  2  0  0  0  0
 11 12  1  0  0  0  0
 12 17  1  0  0  0  0
 13 12  2  0  0  0  0
 13 14  1  0  0  0  0
 14 15  2  0  0  0  0
 15 23  1  0  0  0  0
 15 16  1  0  0  0  0
 16 24  1  0  0  0  0
 17  8  1  0  0  0  0
 17 16  2  0  0  0  0
 19 10  1  0  0  0  0
 20 11  1  0  0  0  0
 21 13  1  0  0  0  0
 22 14  1  0  0  0  0
 24 25  1  0  0  0  0
 24 26  1  0  0  0  0
 27 29  1  0  0  0  0
 27 28  1  0  0  0  0
 30 27  1  0  0  0  0
 31 34  1  0  0  0  0
 31  2  1  0  0  0  0
 32 31  1  0  0  0  0
 33 31  1  0  0  0  0
 34 36  1  0  0  0  0
 35 34  1  0  0  0  0
 37 34  1  0  0  0  0
 37 38  1  0  0  0  0
 39 37  1  0  0  0  0
M  END
>  <minimizedAffinity>
-6.09374809

$$$$

 OpenBabel03252500053D

 39 41  0  0  0  0  0  0  0  0999 V2000
   36.0180   28.7180   37.6170 C   0  0  0  0  0  0  0  0  0  0  0  0
   36.7050   29.6280   38.4090 C   0  0  0  0  0  0  0  0  0  0  0  0
   37.2370   30.7730   37.8300 C   0  0  0  0  0  0  0  0  0  0  0  0
   37.0140   30.8770   36.4900 N   0  0  0  0  0  0  0  0  0  0  0  0
   36.3630   30.0120   35.7460 C   0  0  0  0  0  0  0  0  0  0  0  0
   35.8700   28.9360   36.3260 N   0  0  0  0  0  0  0  0  0  0  0  0
   35.6120   27.8270   38.1030 H   0  0  0  0  0  0  0  0  0  0  0  0
   37.9610   31.8010   38.5010 C   0  0  0  0  0  0  0  0  0  0  0  0
   37.2120   32.7880   39.1230 C   0  0  0  0  0  0  0  0  0  0  0  0
   37.7470   33.8560   39.8180 C   0  0  0  0  0  0  0  0  0  0  0  0
   39.0850   33.9920   39.9270 C   0  0  0  0  0  0  0  0  0  0  0  0
   39.8970   33.0460   39.3340 C   0  0  0  0  0  0  0  0  0  0  0  0
   41.2540   33.1180   39.4030 C   0  0  0  0  0  0  0  0  0  0  0  0
   42.0960   32.2030   38.8290 C   0  0  0  0  0  0  0  0  0  0  0  0
   41.4890   31.1500   38.1420 C   0  0  0  0  0  0  0  0  0  0  0  0
   40.1010   31.0950   38.0840 C   0  0  0  0  0  0  0  0  0  0  0  0
   39.3040   32.0040   38.6550 C   0  0  0  0  0  0  0  0  0  0  0  0
   36.1180   32.7800   39.0990 H   0  0  0  0  0  0  0  0  0  0  0  0
   37.1250   34.6060   40.2880 H   0  0  0  0  0  0  0  0  0  0  0  0
   39.5180   34.8150   40.4640 H   0  0  0  0  0  0  0  0  0  0  0  0
   41.6990   33.9450   39.9420 H   0  0  0  0  0  0  0  0  0  0  0  0
   43.1680   32.3010   38.9100 H   0  0  0  0  0  0  0  0  0  0  0  0
   42.1730   30.4420   37.6990 H   0  0  0  0  0  0  0  0  0  0  0  0
   39.6670   29.9590   37.3400 N   0  0  0  0  0  0  0  0  0  0  0  0
   39.6950   29.1780   38.0630 H   0  0  0  0  0  0  0  0  0  0  0  0
   39.3780   29.7850   36.3570 H   0  0  0  0  0  0  0  0  0  0  0  0
   36.2680   30.3870   34.2950 C   0  0  0  0  0  0  0  0  0  0  0  0
   34.9660   30.4630   33.8880 F   0  0  0  0  0  0  0  0  0  0  0  0
   36.9750   29.4870   33.5210 F   0  0  0  0  0  0  0  0  0  0  0  0
   36.9430   31.6110   34.0950 F   0  0  0  0  0  0  0  0  0  0  0  0
   36.9210   29.4830   39.8560 C   0  0  0  0  0  0  0  0  0  0  0  0
   37.5110   28.5620   40.0580 H   0  0  0  0  0  0  0  0  0  0  0  0
   37.5900   30.3150   40.2280 H   0  0  0  0  0  0  0  0  0  0  0  0
   35.6850   29.4750   40.6820 C   0  0  0  0  0  0  0  0  0  0  0  0
   35.8260   28.7300   41.5020 H   0  0  0  0  0  0  0  0  0  0  0  0
   34.7360   29.3880   40.1710 H   0  0  0  0  0  0  0  0  0  0  0  0
   35.6450   30.7840   41.3660 N   0  0  0  0  0  0  0  0  0  0  0  0
   34.7190   31.1990   41.0970 H   0  0  0  0  0  0  0  0  0  0  0  0
   35.6250   30.6450   42.4030 H   0  0  0  0  0  0  0  0  0  0  0  0
  1  7  1  0  0  0  0
  1  2  1  0  0  0  0
  2 31  1  0  0  0  0
  3  2  2  0  0  0  0
  3  8  1  0  0  0  0
  4  3  1  0  0  0  0
  5  6  1  0  0  0  0
  5  4  2  0  0  0  0
  6  1  2  0  0  0  0
  8 17  2  0  0  0  0
  8  9  1  0  0  0  0
  9 10  2  0  0  0  0
 10 11  1  0  0  0  0
 10 19  1  0  0  0  0
 11 20  1  0  0  0  0
 12 13  1  0  0  0  0
 12 11  2  0  0  0  0
 13 21  1  0  0  0  0
 14 22  1  0  0  0  0
 14 13  2  0  0  0  0
 15 14  1  0  0  0  0
 16 15  2  0  0  0  0
 16 17  1  0  0  0  0
 17 12  1  0  0  0  0
 18  9  1  0  0  0  0
 23 15  1  0  0  0  0
 24 25  1  0  0  0  0
 24 16  1  0  0  0  0
 26 24  1  0  0  0  0
 27  5  1  0  0  0  0
 28 27  1  0  0  0  0
 29 27  1  0  0  0  0
 30 27  1  0  0  0  0
 31 32  1  0  0  0  0
 31 33  1  0  0  0  0
 31 34  1  0  0  0  0
 34 37  1  0  0  0  0
 34 35  1  0  0  0  0
 36 34  1  0  0  0  0
 37 39  1  0  0  0  0
 38 37  1  0  0  0  0
M  END
>  <minimizedAffinity>
-5.83659554

$$$$

 OpenBabel03252500053D

 39 41  0  0  0  0  0  0  0  0999 V2000
   40.6890   32.4670   39.1250 C   0  0  0  0  0  0  0  0  0  0  0  0
   39.5380   31.9780   39.7270 C   0  0  0  0  0  0  0  0  0  0  0  0
   39.1220   30.6820   39.4550 C   0  0  0  0  0  0  0  0  0  0  0  0
   39.9300   30.0050   38.5910 N   0  0  0  0  0  0  0  0  0  0  0  0
   41.0190   30.4730   38.0250 C   0  0  0  0  0  0  0  0  0  0  0  0
   41.3850   31.7080   38.3030 N   0  0  0  0  0  0  0  0  0  0  0  0
   40.9890   33.4920   39.3600 H   0  0  0  0  0  0  0  0  0  0  0  0
   37.9710   30.0330   39.9910 C   0  0  0  0  0  0  0  0  0  0  0  0
   36.7770   30.2200   39.3130 C   0  0  0  0  0  0  0  0  0  0  0  0
   35.5680   29.6680   39.6890 C   0  0  0  0  0  0  0  0  0  0  0  0
   35.4930   28.8840   40.7850 C   0  0  0  0  0  0  0  0  0  0  0  0
   36.6420   28.6500   41.5120 C   0  0  0  0  0  0  0  0  0  0  0  0
   36.6420   27.8710   42.6280 C   0  0  0  0  0  0  0  0  0  0  0  0
   37.7580   27.6150   43.3780 C   0  0  0  0  0  0  0  0  0  0  0  0
   38.9460   28.2050   42.9420 C   0  0  0  0  0  0  0  0  0  0  0  0
   38.9240   28.9970   41.8000 C   0  0  0  0  0  0  0  0  0  0  0  0
   37.8180   29.2300   41.0860 C   0  0  0  0  0  0  0  0  0  0  0  0
   36.7190   30.8370   38.4110 H   0  0  0  0  0  0  0  0  0  0  0  0
   34.6580   29.8400   39.1310 H   0  0  0  0  0  0  0  0  0  0  0  0
   34.5610   28.4460   41.0920 H   0  0  0  0  0  0  0  0  0  0  0  0
   35.7070   27.4250   42.9440 H   0  0  0  0  0  0  0  0  0  0  0  0
   37.7100   26.9900   44.2570 H   0  0  0  0  0  0  0  0  0  0  0  0
   39.8120   27.9880   43.5490 H   0  0  0  0  0  0  0  0  0  0  0  0
   40.2210   29.5150   41.5140 N   0  0  0  0  0  0  0  0  0  0  0  0
   40.6840   28.7160   40.9840 H   0  0  0  0  0  0  0  0  0  0  0  0
   40.7230   30.4040   41.7110 H   0  0  0  0  0  0  0  0  0  0  0  0
   41.7130   29.5020   37.1150 C   0  0  0  0  0  0  0  0  0  0  0  0
   42.6710   28.7940   37.7840 F   0  0  0  0  0  0  0  0  0  0  0  0
   42.2580   30.1660   36.0320 F   0  0  0  0  0  0  0  0  0  0  0  0
   40.7490   28.6470   36.5390 F   0  0  0  0  0  0  0  0  0  0  0  0
   38.6940   32.7380   40.6600 C   0  0  0  0  0  0  0  0  0  0  0  0
   37.7790   32.1540   40.9040 H   0  0  0  0  0  0  0  0  0  0  0  0
   39.2190   32.8390   41.6560 H   0  0  0  0  0  0  0  0  0  0  0  0
   38.3070   34.0990   40.1990 C   0  0  0  0  0  0  0  0  0  0  0  0
   39.0240   34.4060   39.4000 H   0  0  0  0  0  0  0  0  0  0  0  0
   38.1370   34.8570   40.9510 H   0  0  0  0  0  0  0  0  0  0  0  0
   37.0130   33.9390   39.5030 N   0  0  0  0  0  0  0  0  0  0  0  0
   36.3600   34.5960   39.9960 H   0  0  0  0  0  0  0  0  0  0  0  0
   37.0950   34.2770   38.5160 H   0  0  0  0  0  0  0  0  0  0  0  0
  1  7  1  0  0  0  0
  1  2  1  0  0  0  0
  2 31  1  0  0  0  0
  3  2  2  0  0  0  0
  3  8  1  0  0  0  0
  4  3  1  0  0  0  0
  5  6  1  0  0  0  0
  5  4  2  0  0  0  0
  6  1  2  0  0  0  0
  8 17  1  0  0  0  0
  9 10  1  0  0  0  0
  9  8  2  0  0  0  0
 10 11  2  0  0  0  0
 11 20  1  0  0  0  0
 11 12  1  0  0  0  0
 12 13  1  0  0  0  0
 13 21  1  0  0  0  0
 13 14  2  0  0  0  0
 14 22  1  0  0  0  0
 15 14  1  0  0  0  0
 15 23  1  0  0  0  0
 16 15  2  0  0  0  0
 17 12  2  0  0  0  0
 17 16  1  0  0  0  0
 18  9  1  0  0  0  0
 19 10  1  0  0  0  0
 24 26  1  0  0  0  0
 24 16  1  0  0  0  0
 25 24  1  0  0  0  0
 27 28  1  0  0  0  0
 27  5  1  0  0  0  0
 29 27  1  0  0  0  0
 30 27  1  0  0  0  0
 31 32  1  0  0  0  0
 31 33  1  0  0  0  0
 34 31  1  0  0  0  0
 34 36  1  0  0  0  0
 35 34  1  0  0  0  0
 37 38  1  0  0  0  0
 37 34  1  0  0  0  0
 39 37  1  0  0  0  0
M  END
>  <minimizedAffinity>
-5.78999376

$$$$

 OpenBabel03252500053D

 39 41  0  0  0  0  0  0  0  0999 V2000
   40.8550   32.9760   38.6220 C   0  0  0  0  0  0  0  0  0  0  0  0
   39.9900   32.4370   39.5630 C   0  0  0  0  0  0  0  0  0  0  0  0
   39.8020   31.0620   39.6110 C   0  0  0  0  0  0  0  0  0  0  0  0
   40.5230   30.3670   38.6870 N   0  0  0  0  0  0  0  0  0  0  0  0
   41.3410   30.8830   37.7990 C   0  0  0  0  0  0  0  0  0  0  0  0
   41.4960   32.1920   37.7790 N   0  0  0  0  0  0  0  0  0  0  0  0
   40.9810   34.0620   38.6100 H   0  0  0  0  0  0  0  0  0  0  0  0
   38.9550   30.3550   40.5150 C   0  0  0  0  0  0  0  0  0  0  0  0
   39.4770   30.0730   41.7680 C   0  0  0  0  0  0  0  0  0  0  0  0
   38.7990   29.4000   42.7650 C   0  0  0  0  0  0  0  0  0  0  0  0
   37.5380   28.9660   42.5540 C   0  0  0  0  0  0  0  0  0  0  0  0
   36.9510   29.2110   41.3290 C   0  0  0  0  0  0  0  0  0  0  0  0
   35.6840   28.8020   41.0440 C   0  0  0  0  0  0  0  0  0  0  0  0
   35.0640   29.0230   39.8440 C   0  0  0  0  0  0  0  0  0  0  0  0
   35.8070   29.7090   38.8810 C   0  0  0  0  0  0  0  0  0  0  0  0
   37.0990   30.1170   39.1920 C   0  0  0  0  0  0  0  0  0  0  0  0
   37.6790   29.8880   40.3750 C   0  0  0  0  0  0  0  0  0  0  0  0
   40.4900   30.3770   42.0500 H   0  0  0  0  0  0  0  0  0  0  0  0
   39.2440   29.2000   43.7300 H   0  0  0  0  0  0  0  0  0  0  0  0
   36.9960   28.4410   43.3170 H   0  0  0  0  0  0  0  0  0  0  0  0
   35.1300   28.2730   41.8090 H   0  0  0  0  0  0  0  0  0  0  0  0
   34.0570   28.6810   39.6620 H   0  0  0  0  0  0  0  0  0  0  0  0
   35.2970   29.8720   37.9430 H   0  0  0  0  0  0  0  0  0  0  0  0
   37.7000   30.7930   38.0900 N   0  0  0  0  0  0  0  0  0  0  0  0
   37.3320   31.7880   38.1930 H   0  0  0  0  0  0  0  0  0  0  0  0
   38.3340   30.5230   37.3130 H   0  0  0  0  0  0  0  0  0  0  0  0
   42.0050   29.8750   36.9060 C   0  0  0  0  0  0  0  0  0  0  0  0
   42.5580   30.4740   35.8090 F   0  0  0  0  0  0  0  0  0  0  0  0
   41.1010   28.8990   36.5310 F   0  0  0  0  0  0  0  0  0  0  0  0
   42.9740   29.1720   37.6530 F   0  0  0  0  0  0  0  0  0  0  0  0
   39.2320   33.2210   40.5500 C   0  0  0  0  0  0  0  0  0  0  0  0
   38.7320   32.5380   41.2710 H   0  0  0  0  0  0  0  0  0  0  0  0
   39.9440   33.8160   41.1950 H   0  0  0  0  0  0  0  0  0  0  0  0
   38.2290   34.1590   39.9760 C   0  0  0  0  0  0  0  0  0  0  0  0
   38.4860   34.3190   38.9010 H   0  0  0  0  0  0  0  0  0  0  0  0
   38.0250   35.0720   40.5180 H   0  0  0  0  0  0  0  0  0  0  0  0
   36.9490   33.4210   39.9520 N   0  0  0  0  0  0  0  0  0  0  0  0
   36.2830   34.0220   40.4970 H   0  0  0  0  0  0  0  0  0  0  0  0
   36.5830   33.3730   38.9730 H   0  0  0  0  0  0  0  0  0  0  0  0
  1  2  1  0  0  0  0
  2  3  2  0  0  0  0
  2 31  1  0  0  0  0
  3  8  1  0  0  0  0
  4  3  1  0  0  0  0
  5  4  2  0  0  0  0
  6  5  1  0  0  0  0
  6  1  2  0  0  0  0
  7  1  1  0  0  0  0
  8  9  1  0  0  0  0
  9 18  1  0  0  0  0
  9 10  2  0  0  0  0
 10 19  1  0  0  0  0
 11 10  1  0  0  0  0
 11 20  1  0  0  0  0
 12 11  2  0  0  0  0
 13 12  1  0  0  0  0
 13 21  1  0  0  0  0
 14 13  2  0  0  0  0
 15 16  2  0  0  0  0
 15 14  1  0  0  0  0
 16 17  1  0  0  0  0
 17  8  2  0  0  0  0
 17 12  1  0  0  0  0
 22 14  1  0  0  0  0
 23 15  1  0  0  0  0
 24 25  1  0  0  0  0
 24 16  1  0  0  0  0
 26 24  1  0  0  0  0
 27 30  1  0  0  0  0
 27  5  1  0  0  0  0
 28 27  1  0  0  0  0
 29 27  1  0  0  0  0
 31 33  1  0  0  0  0
 31 32  1  0  0  0  0
 34 36  1  0  0  0  0
 34 31  1  0  0  0  0
 35 34  1  0  0  0  0
 37 34  1  0  0  0  0
 37 38  1  0  0  0  0
 39 37  1  0  0  0  0
M  END
>  <minimizedAffinity>
-5.72542381

$$$$

 OpenBabel03252500053D

 39 41  0  0  0  0  0  0  0  0999 V2000
   36.7790   30.7540   38.0900 C   0  0  0  0  0  0  0  0  0  0  0  0
   37.0130   30.3850   39.4070 C   0  0  0  0  0  0  0  0  0  0  0  0
   37.3350   29.0670   39.7000 C   0  0  0  0  0  0  0  0  0  0  0  0
   37.3890   28.2490   38.6120 N   0  0  0  0  0  0  0  0  0  0  0  0
   37.1670   28.6050   37.3670 C   0  0  0  0  0  0  0  0  0  0  0  0
   36.8620   29.8630   37.1220 N   0  0  0  0  0  0  0  0  0  0  0  0
   36.5270   31.8000   37.8930 H   0  0  0  0  0  0  0  0  0  0  0  0
   37.6060   28.5300   40.9930 C   0  0  0  0  0  0  0  0  0  0  0  0
   36.5120   28.1380   41.7490 C   0  0  0  0  0  0  0  0  0  0  0  0
   36.5890   27.5980   43.0180 C   0  0  0  0  0  0  0  0  0  0  0  0
   37.7900   27.4200   43.6060 C   0  0  0  0  0  0  0  0  0  0  0  0
   38.9270   27.7870   42.9150 C   0  0  0  0  0  0  0  0  0  0  0  0
   40.1710   27.6370   43.4460 C   0  0  0  0  0  0  0  0  0  0  0  0
   41.3240   27.9880   42.7960 C   0  0  0  0  0  0  0  0  0  0  0  0
   41.1730   28.5280   41.5170 C   0  0  0  0  0  0  0  0  0  0  0  0
   39.8930   28.6720   40.9930 C   0  0  0  0  0  0  0  0  0  0  0  0
   38.7840   28.3200   41.6520 C   0  0  0  0  0  0  0  0  0  0  0  0
   35.4880   28.2370   41.3720 H   0  0  0  0  0  0  0  0  0  0  0  0
   35.7080   27.3060   43.5730 H   0  0  0  0  0  0  0  0  0  0  0  0
   37.8690   27.0020   44.5930 H   0  0  0  0  0  0  0  0  0  0  0  0
   40.2590   27.2150   44.4390 H   0  0  0  0  0  0  0  0  0  0  0  0
   42.2910   27.8500   43.2560 H   0  0  0  0  0  0  0  0  0  0  0  0
   42.0960   28.7960   41.0240 H   0  0  0  0  0  0  0  0  0  0  0  0
   39.9380   29.2420   39.6870 N   0  0  0  0  0  0  0  0  0  0  0  0
   40.1260   28.3970   39.0660 H   0  0  0  0  0  0  0  0  0  0  0  0
   39.8420   30.1990   39.2940 H   0  0  0  0  0  0  0  0  0  0  0  0
   37.2980   27.4910   36.3690 C   0  0  0  0  0  0  0  0  0  0  0  0
   38.5180   27.5180   35.7550 F   0  0  0  0  0  0  0  0  0  0  0  0
   36.2770   27.5570   35.4400 F   0  0  0  0  0  0  0  0  0  0  0  0
   37.0790   26.2610   37.0270 F   0  0  0  0  0  0  0  0  0  0  0  0
   36.9510   31.2990   40.5570 C   0  0  0  0  0  0  0  0  0  0  0  0
   35.9320   31.7390   40.6350 H   0  0  0  0  0  0  0  0  0  0  0  0
   37.0630   30.7150   41.5170 H   0  0  0  0  0  0  0  0  0  0  0  0
   37.9640   32.3890   40.5540 C   0  0  0  0  0  0  0  0  0  0  0  0
   38.6900   32.1790   39.7320 H   0  0  0  0  0  0  0  0  0  0  0  0
   38.4290   32.6470   41.4950 H   0  0  0  0  0  0  0  0  0  0  0  0
   37.2480   33.6080   40.1220 N   0  0  0  0  0  0  0  0  0  0  0  0
   37.4110   34.3010   40.8920 H   0  0  0  0  0  0  0  0  0  0  0  0
   37.6970   33.9990   39.2610 H   0  0  0  0  0  0  0  0  0  0  0  0
  1  2  1  0  0  0  0
  2  3  2  0  0  0  0
  2 31  1  0  0  0  0
  3  8  1  0  0  0  0
  4  3  1  0  0  0  0
  5  4  2  0  0  0  0
  6  5  1  0  0  0  0
  6  1  2  0  0  0  0
  7  1  1  0  0  0  0
  8 17  2  0  0  0  0
  8  9  1  0  0  0  0
  9 10  2  0  0  0  0
 10 19  1  0  0  0  0
 10 11  1  0  0  0  0
 11 20  1  0  0  0  0
 12 13  1  0  0  0  0
 12 11  2  0  0  0  0
 13 21  1  0  0  0  0
 14 22  1  0  0  0  0
 14 13  2  0  0  0  0
 15 14  1  0  0  0  0
 16 15  2  0  0  0  0
 16 17  1  0  0  0  0
 17 12  1  0  0  0  0
 18  9  1  0  0  0  0
 23 15  1  0  0  0  0
 24 16  1  0  0  0  0
 25 24  1  0  0  0  0
 26 24  1  0  0  0  0
 27 30  1  0  0  0  0
 27  5  1  0  0  0  0
 28 27  1  0  0  0  0
 29 27  1  0  0  0  0
 31 32  1  0  0  0  0
 31 33  1  0  0  0  0
 34 31  1  0  0  0  0
 34 36  1  0  0  0  0
 35 34  1  0  0  0  0
 37 34  1  0  0  0  0
 37 38  1  0  0  0  0
 39 37  1  0  0  0  0
M  END
>  <minimizedAffinity>
-5.60525513

$$$$

 OpenBabel03252500053D

 39 41  0  0  0  0  0  0  0  0999 V2000
   36.0530   28.3690   39.4370 C   0  0  0  0  0  0  0  0  0  0  0  0
   36.7040   29.5640   39.1630 C   0  0  0  0  0  0  0  0  0  0  0  0
   37.5070   30.1430   40.1350 C   0  0  0  0  0  0  0  0  0  0  0  0
   37.5690   29.4410   41.3010 N   0  0  0  0  0  0  0  0  0  0  0  0
   36.9510   28.3100   41.5540 C   0  0  0  0  0  0  0  0  0  0  0  0
   36.1950   27.7860   40.6110 N   0  0  0  0  0  0  0  0  0  0  0  0
   35.4270   27.9390   38.6500 H   0  0  0  0  0  0  0  0  0  0  0  0
   38.2420   31.3580   40.0110 C   0  0  0  0  0  0  0  0  0  0  0  0
   37.5470   32.5350   40.2420 C   0  0  0  0  0  0  0  0  0  0  0  0
   38.0990   33.7990   40.1660 C   0  0  0  0  0  0  0  0  0  0  0  0
   39.4020   33.9520   39.8500 C   0  0  0  0  0  0  0  0  0  0  0  0
   40.1600   32.8250   39.6060 C   0  0  0  0  0  0  0  0  0  0  0  0
   41.4790   32.9020   39.2810 C   0  0  0  0  0  0  0  0  0  0  0  0
   42.2670   31.8100   39.0310 C   0  0  0  0  0  0  0  0  0  0  0  0
   41.6450   30.5640   39.1240 C   0  0  0  0  0  0  0  0  0  0  0  0
   40.2970   30.5070   39.4580 C   0  0  0  0  0  0  0  0  0  0  0  0
   39.5520   31.5920   39.6970 C   0  0  0  0  0  0  0  0  0  0  0  0
   36.4840   32.5320   40.5050 H   0  0  0  0  0  0  0  0  0  0  0  0
   37.5190   34.6930   40.3540 H   0  0  0  0  0  0  0  0  0  0  0  0
   39.8480   34.9270   39.7870 H   0  0  0  0  0  0  0  0  0  0  0  0
   41.9370   33.8810   39.2160 H   0  0  0  0  0  0  0  0  0  0  0  0
   43.3110   31.9200   38.7770 H   0  0  0  0  0  0  0  0  0  0  0  0
   42.2870   29.7190   38.9240 H   0  0  0  0  0  0  0  0  0  0  0  0
   39.8380   29.1580   39.4990 N   0  0  0  0  0  0  0  0  0  0  0  0
   40.1210   28.8420   40.4760 H   0  0  0  0  0  0  0  0  0  0  0  0
   39.3540   28.5210   38.8370 H   0  0  0  0  0  0  0  0  0  0  0  0
   37.2040   27.7570   42.9270 C   0  0  0  0  0  0  0  0  0  0  0  0
   37.9480   28.6220   43.6800 F   0  0  0  0  0  0  0  0  0  0  0  0
   37.8210   26.5230   42.8410 F   0  0  0  0  0  0  0  0  0  0  0  0
   35.9650   27.4740   43.5410 F   0  0  0  0  0  0  0  0  0  0  0  0
   36.6160   30.2910   37.8880 C   0  0  0  0  0  0  0  0  0  0  0  0
   35.6090   30.7500   37.7840 H   0  0  0  0  0  0  0  0  0  0  0  0
   37.3140   31.1810   37.9060 H   0  0  0  0  0  0  0  0  0  0  0  0
   36.9240   29.4840   36.6770 C   0  0  0  0  0  0  0  0  0  0  0  0
   36.7240   30.1210   35.7810 H   0  0  0  0  0  0  0  0  0  0  0  0
   36.5010   28.4910   36.6120 H   0  0  0  0  0  0  0  0  0  0  0  0
   38.3890   29.2880   36.6800 N   0  0  0  0  0  0  0  0  0  0  0  0
   38.5200   28.2480   36.6490 H   0  0  0  0  0  0  0  0  0  0  0  0
   38.8020   29.6730   35.8000 H   0  0  0  0  0  0  0  0  0  0  0  0
  1  6  1  0  0  0  0
  2  1  2  0  0  0  0
  2  3  1  0  0  0  0
  3  4  2  0  0  0  0
  4  5  1  0  0  0  0
  5 27  1  0  0  0  0
  6  5  2  0  0  0  0
  7  1  1  0  0  0  0
  8  3  1  0  0  0  0
  8  9  1  0  0  0  0
  9 18  1  0  0  0  0
 10  9  2  0  0  0  0
 10 19  1  0  0  0  0
 11 10  1  0  0  0  0
 12 17  1  0  0  0  0
 12 11  2  0  0  0  0
 13 12  1  0  0  0  0
 14 15  1  0  0  0  0
 14 13  2  0  0  0  0
 15 16  2  0  0  0  0
 16 24  1  0  0  0  0
 16 17  1  0  0  0  0
 17  8  2  0  0  0  0
 20 11  1  0  0  0  0
 21 13  1  0  0  0  0
 22 14  1  0  0  0  0
 23 15  1  0  0  0  0
 24 25  1  0  0  0  0
 26 24  1  0  0  0  0
 27 30  1  0  0  0  0
 27 28  1  0  0  0  0
 29 27  1  0  0  0  0
 31 33  1  0  0  0  0
 31  2  1  0  0  0  0
 32 31  1  0  0  0  0
 34 37  1  0  0  0  0
 34 31  1  0  0  0  0
 35 34  1  0  0  0  0
 36 34  1  0  0  0  0
 38 37  1  0  0  0  0
 39 37  1  0  0  0  0
M  END
>  <minimizedAffinity>
-5.53034592

$$$$

 OpenBabel03252500053D

 39 41  0  0  0  0  0  0  0  0999 V2000
   37.2470   31.7010   38.1130 C   0  0  0  0  0  0  0  0  0  0  0  0
   37.8010   31.3010   39.3210 C   0  0  0  0  0  0  0  0  0  0  0  0
   38.2880   30.0070   39.4540 C   0  0  0  0  0  0  0  0  0  0  0  0
   38.1610   29.2440   38.3320 N   0  0  0  0  0  0  0  0  0  0  0  0
   37.6360   29.6290   37.1920 C   0  0  0  0  0  0  0  0  0  0  0  0
   37.1830   30.8630   37.0980 N   0  0  0  0  0  0  0  0  0  0  0  0
   36.8730   32.7260   38.0410 H   0  0  0  0  0  0  0  0  0  0  0  0
   38.8860   29.4450   40.6200 C   0  0  0  0  0  0  0  0  0  0  0  0
   40.2470   29.6500   40.7840 C   0  0  0  0  0  0  0  0  0  0  0  0
   40.9870   29.1800   41.8510 C   0  0  0  0  0  0  0  0  0  0  0  0
   40.3900   28.4650   42.8270 C   0  0  0  0  0  0  0  0  0  0  0  0
   39.0350   28.2190   42.7330 C   0  0  0  0  0  0  0  0  0  0  0  0
   38.3660   27.5060   43.6790 C   0  0  0  0  0  0  0  0  0  0  0  0
   37.0240   27.2380   43.6250 C   0  0  0  0  0  0  0  0  0  0  0  0
   36.3370   27.7430   42.5190 C   0  0  0  0  0  0  0  0  0  0  0  0
   37.0390   28.4700   41.5640 C   0  0  0  0  0  0  0  0  0  0  0  0
   38.3510   28.7160   41.6440 C   0  0  0  0  0  0  0  0  0  0  0  0
   40.8350   30.2160   40.0540 H   0  0  0  0  0  0  0  0  0  0  0  0
   42.0490   29.3630   41.9400 H   0  0  0  0  0  0  0  0  0  0  0  0
   40.9490   28.0910   43.6640 H   0  0  0  0  0  0  0  0  0  0  0  0
   38.9230   27.1250   44.5270 H   0  0  0  0  0  0  0  0  0  0  0  0
   36.5350   26.6670   44.3990 H   0  0  0  0  0  0  0  0  0  0  0  0
   35.2810   27.5210   42.4980 H   0  0  0  0  0  0  0  0  0  0  0  0
   36.1770   28.8970   40.5120 N   0  0  0  0  0  0  0  0  0  0  0  0
   35.7430   29.7860   40.9080 H   0  0  0  0  0  0  0  0  0  0  0  0
   35.9290   28.5410   39.5690 H   0  0  0  0  0  0  0  0  0  0  0  0
   37.6290   28.5750   36.1230 C   0  0  0  0  0  0  0  0  0  0  0  0
   38.8700   28.0270   35.9600 F   0  0  0  0  0  0  0  0  0  0  0  0
   37.1640   29.1020   34.9330 F   0  0  0  0  0  0  0  0  0  0  0  0
   36.6720   27.5930   36.4570 F   0  0  0  0  0  0  0  0  0  0  0  0
   37.9250   32.1560   40.5100 C   0  0  0  0  0  0  0  0  0  0  0  0
   36.9380   32.2480   41.0140 H   0  0  0  0  0  0  0  0  0  0  0  0
   38.5730   31.6460   41.2830 H   0  0  0  0  0  0  0  0  0  0  0  0
   38.4840   33.5120   40.2580 C   0  0  0  0  0  0  0  0  0  0  0  0
   37.7920   34.2580   40.7180 H   0  0  0  0  0  0  0  0  0  0  0  0
   38.7820   33.7550   39.2470 H   0  0  0  0  0  0  0  0  0  0  0  0
   39.7200   33.5980   41.0630 N   0  0  0  0  0  0  0  0  0  0  0  0
   40.4740   33.8370   40.3730 H   0  0  0  0  0  0  0  0  0  0  0  0
   39.6550   34.4000   41.7320 H   0  0  0  0  0  0  0  0  0  0  0  0
  1  2  1  0  0  0  0
  2  3  2  0  0  0  0
  2 31  1  0  0  0  0
  3  8  1  0  0  0  0
  4  3  1  0  0  0  0
  5  4  2  0  0  0  0
  6  5  1  0  0  0  0
  6  1  2  0  0  0  0
  7  1  1  0  0  0  0
  8  9  2  0  0  0  0
  8 17  1  0  0  0  0
  9 10  1  0  0  0  0
 10 19  1  0  0  0  0
 10 11  2  0  0  0  0
 11 20  1  0  0  0  0
 12 11  1  0  0  0  0
 12 13  1  0  0  0  0
 13 21  1  0  0  0  0
 14 13  2  0  0  0  0
 14 22  1  0  0  0  0
 15 14  1  0  0  0  0
 16 17  1  0  0  0  0
 16 15  2  0  0  0  0
 17 12  2  0  0  0  0
 18  9  1  0  0  0  0
 23 15  1  0  0  0  0
 24 25  1  0  0  0  0
 24 16  1  0  0  0  0
 26 24  1  0  0  0  0
 27 30  1  0  0  0  0
 27  5  1  0  0  0  0
 28 27  1  0  0  0  0
 29 27  1  0  0  0  0
 31 32  1  0  0  0  0
 31 33  1  0  0  0  0
 34 31  1  0  0  0  0
 34 35  1  0  0  0  0
 34 37  1  0  0  0  0
 36 34  1  0  0  0  0
 37 39  1  0  0  0  0
 38 37  1  0  0  0  0
M  END
>  <minimizedAffinity>
-5.49496841

$$$$

 OpenBabel03252500053D

 39 41  0  0  0  0  0  0  0  0999 V2000
   37.3260   31.3820   38.0500 C   0  0  0  0  0  0  0  0  0  0  0  0
   37.4290   30.8890   39.3430 C   0  0  0  0  0  0  0  0  0  0  0  0
   37.6330   29.5310   39.5430 C   0  0  0  0  0  0  0  0  0  0  0  0
   37.7140   28.8020   38.3940 N   0  0  0  0  0  0  0  0  0  0  0  0
   37.6160   29.2750   37.1730 C   0  0  0  0  0  0  0  0  0  0  0  0
   37.4220   30.5690   37.0170 N   0  0  0  0  0  0  0  0  0  0  0  0
   37.1650   32.4570   37.9270 H   0  0  0  0  0  0  0  0  0  0  0  0
   37.7630   28.8710   40.8000 C   0  0  0  0  0  0  0  0  0  0  0  0
   36.5910   28.4400   41.4030 C   0  0  0  0  0  0  0  0  0  0  0  0
   36.5300   27.7840   42.6170 C   0  0  0  0  0  0  0  0  0  0  0  0
   37.6620   27.5210   43.3030 C   0  0  0  0  0  0  0  0  0  0  0  0
   38.8700   27.9190   42.7650 C   0  0  0  0  0  0  0  0  0  0  0  0
   40.0510   27.6890   43.4000 C   0  0  0  0  0  0  0  0  0  0  0  0
   41.2690   28.0680   42.9040 C   0  0  0  0  0  0  0  0  0  0  0  0
   41.2580   28.7270   41.6730 C   0  0  0  0  0  0  0  0  0  0  0  0
   40.0400   28.9520   41.0410 C   0  0  0  0  0  0  0  0  0  0  0  0
   38.8640   28.5700   41.5500 C   0  0  0  0  0  0  0  0  0  0  0  0
   35.6130   28.5990   40.9380 H   0  0  0  0  0  0  0  0  0  0  0  0
   35.5930   27.4640   43.0530 H   0  0  0  0  0  0  0  0  0  0  0  0
   37.6340   27.0120   44.2480 H   0  0  0  0  0  0  0  0  0  0  0  0
   40.0310   27.1760   44.3540 H   0  0  0  0  0  0  0  0  0  0  0  0
   42.1820   27.8640   43.4430 H   0  0  0  0  0  0  0  0  0  0  0  0
   42.2300   29.0150   41.3020 H   0  0  0  0  0  0  0  0  0  0  0  0
   40.2270   29.6380   39.8050 N   0  0  0  0  0  0  0  0  0  0  0  0
   40.4620   28.8490   39.1290 H   0  0  0  0  0  0  0  0  0  0  0  0
   40.1860   30.6290   39.4960 H   0  0  0  0  0  0  0  0  0  0  0  0
   37.7460   28.2400   36.0930 C   0  0  0  0  0  0  0  0  0  0  0  0
   37.3430   28.7310   34.8840 F   0  0  0  0  0  0  0  0  0  0  0  0
   37.0290   27.1060   36.4280 F   0  0  0  0  0  0  0  0  0  0  0  0
   39.0840   27.7930   36.0480 F   0  0  0  0  0  0  0  0  0  0  0  0
   37.3410   31.7090   40.5610 C   0  0  0  0  0  0  0  0  0  0  0  0
   36.3040   32.0900   40.6850 H   0  0  0  0  0  0  0  0  0  0  0  0
   37.4970   31.0580   41.4720 H   0  0  0  0  0  0  0  0  0  0  0  0
   38.3010   32.8430   40.6300 C   0  0  0  0  0  0  0  0  0  0  0  0
   37.8170   33.6670   41.2090 H   0  0  0  0  0  0  0  0  0  0  0  0
   38.7650   33.1680   39.7100 H   0  0  0  0  0  0  0  0  0  0  0  0
   39.4130   32.3830   41.4890 N   0  0  0  0  0  0  0  0  0  0  0  0
   40.2730   32.5010   40.9010 H   0  0  0  0  0  0  0  0  0  0  0  0
   39.5170   33.0230   42.3110 H   0  0  0  0  0  0  0  0  0  0  0  0
  1  2  1  0  0  0  0
  2  3  2  0  0  0  0
  2 31  1  0  0  0  0
  3  8  1  0  0  0  0
  4  3  1  0  0  0  0
  5  4  2  0  0  0  0
  6  5  1  0  0  0  0
  6  1  2  0  0  0  0
  7  1  1  0  0  0  0
  8  9  2  0  0  0  0
  8 17  1  0  0  0  0
  9 10  1  0  0  0  0
 10 19  1  0  0  0  0
 10 11  2  0  0  0  0
 11 20  1  0  0  0  0
 12 11  1  0  0  0  0
 12 13  1  0  0  0  0
 13 21  1  0  0  0  0
 14 13  2  0  0  0  0
 14 22  1  0  0  0  0
 15 14  1  0  0  0  0
 16 17  1  0  0  0  0
 16 15  2  0  0  0  0
 17 12  2  0  0  0  0
 18  9  1  0  0  0  0
 23 15  1  0  0  0  0
 24 16  1  0  0  0  0
 25 24  1  0  0  0  0
 26 24  1  0  0  0  0
 27 29  1  0  0  0  0
 27  5  1  0  0  0  0
 28 27  1  0  0  0  0
 30 27  1  0  0  0  0
 31 34  1  0  0  0  0
 31 32  1  0  0  0  0
 31 33  1  0  0  0  0
 34 35  1  0  0  0  0
 34 37  1  0  0  0  0
 36 34  1  0  0  0  0
 37 39  1  0  0  0  0
 38 37  1  0  0  0  0
M  END
>  <minimizedAffinity>
-5.47867298

$$$$
