
 OpenBabel03252500593D

 32 33  0  0  0  0  0  0  0  0999 V2000
   36.5970   31.3840   40.8640 O   0  0  0  0  0  0  0  0  0  0  0  0
   36.0670   29.0960   40.9670 C   0  0  0  0  0  0  0  0  0  0  0  0
   36.8900   30.1250   41.3800 C   0  0  0  0  0  0  0  0  0  0  0  0
   37.9410   29.8430   42.2700 C   0  0  0  0  0  0  0  0  0  0  0  0
   38.0730   28.5640   42.6660 N   0  0  0  0  0  0  0  0  0  0  0  0
   37.2720   27.5760   42.2600 C   0  0  0  0  0  0  0  0  0  0  0  0
   36.2670   27.8380   41.4100 N   0  0  0  0  0  0  0  0  0  0  0  0
   38.5520   30.6790   42.5620 H   0  0  0  0  0  0  0  0  0  0  0  0
   37.4900   26.5930   42.6540 H   0  0  0  0  0  0  0  0  0  0  0  0
   34.9610   29.3250   40.0450 C   0  0  0  0  0  0  0  0  0  0  0  0
   33.9530   29.0780   40.4890 H   0  0  0  0  0  0  0  0  0  0  0  0
   34.8900   30.4060   39.7890 H   0  0  0  0  0  0  0  0  0  0  0  0
   35.2010   28.5490   38.7780 C   0  0  0  0  0  0  0  0  0  0  0  0
   35.6030   29.2120   37.9690 H   0  0  0  0  0  0  0  0  0  0  0  0
   34.2320   28.1340   38.4170 H   0  0  0  0  0  0  0  0  0  0  0  0
   35.8920   27.7160   38.9290 H   0  0  0  0  0  0  0  0  0  0  0  0
   37.2900   31.7860   38.3550 O   0  0  0  0  0  0  0  0  0  0  0  0
   37.5440   32.2790   39.7860 P   0  0  1  0  0  0  0  0  0  0  0  0
   37.0410   33.8910   39.8590 O   0  0  0  0  0  0  0  0  0  0  0  0
   37.4850   34.3510   40.6190 H   0  0  0  0  0  0  0  0  0  0  0  0
   39.1880   32.2290   40.1360 O   0  0  0  0  0  0  0  0  0  0  0  0
   40.0910   32.1200   39.0940 C   0  0  0  0  0  0  0  0  0  0  0  0
   40.3590   30.8300   38.6280 C   0  0  0  0  0  0  0  0  0  0  0  0
   41.2510   30.6170   37.5860 C   0  0  0  0  0  0  0  0  0  0  0  0
   41.8640   31.6960   37.0210 N   0  0  0  0  0  0  0  0  0  0  0  0
   41.5920   32.9290   37.4840 C   0  0  0  0  0  0  0  0  0  0  0  0
   40.7340   33.1260   38.4870 N   0  0  0  0  0  0  0  0  0  0  0  0
   39.9120   29.9260   39.0250 H   0  0  0  0  0  0  0  0  0  0  0  0
   41.4880   29.6370   37.1930 H   0  0  0  0  0  0  0  0  0  0  0  0
   42.2690   34.0040   36.8480 N   0  0  0  0  0  0  0  0  0  0  0  0
   42.3760   33.6750   35.8530 H   0  0  0  0  0  0  0  0  0  0  0  0
   42.3620   34.6600   37.6640 H   0  0  0  0  0  0  0  0  0  0  0  0
  1  3  1  0  0  0  0
  2  3  2  0  0  0  0
  2  7  1  0  0  0  0
  3  4  1  0  0  0  0
  4  8  1  0  0  0  0
  4  5  2  0  0  0  0
  6  9  1  0  0  0  0
  6  5  1  0  0  0  0
  7  6  2  0  0  0  0
 10 11  1  0  0  0  0
 10  2  1  0  0  0  0
 12 10  1  0  0  0  0
 13 16  1  0  0  0  0
 13 10  1  0  0  0  0
 14 13  1  0  0  0  0
 15 13  1  0  0  0  0
 18 17  2  6  0  0  0
 18 19  1  0  0  0  0
 18 21  1  0  0  0  0
 18  1  1  0  0  0  0
 19 20  1  0  0  0  0
 22 21  1  0  0  0  0
 23 28  1  0  0  0  0
 23 22  1  0  0  0  0
 24 23  2  0  0  0  0
 25 26  2  0  0  0  0
 25 24  1  0  0  0  0
 26 27  1  0  0  0  0
 27 22  2  0  0  0  0
 29 24  1  0  0  0  0
 30 26  1  0  0  0  0
 30 32  1  0  0  0  0
 31 30  1  0  0  0  0
M  END
>  <minimizedAffinity>
-5.57577515

$$$$

 OpenBabel03252500593D

 32 33  0  0  0  0  0  0  0  0999 V2000
   36.9550   28.4020   40.4770 O   0  0  0  0  0  0  0  0  0  0  0  0
   38.0150   27.5080   42.3750 C   0  0  0  0  0  0  0  0  0  0  0  0
   38.0740   28.3790   41.3050 C   0  0  0  0  0  0  0  0  0  0  0  0
   39.2260   29.1640   41.1260 C   0  0  0  0  0  0  0  0  0  0  0  0
   40.2110   29.0090   42.0290 N   0  0  0  0  0  0  0  0  0  0  0  0
   40.1450   28.1620   43.0600 C   0  0  0  0  0  0  0  0  0  0  0  0
   39.0480   27.4100   43.2370 N   0  0  0  0  0  0  0  0  0  0  0  0
   39.2220   29.8260   40.2790 H   0  0  0  0  0  0  0  0  0  0  0  0
   41.0080   28.1360   43.7110 H   0  0  0  0  0  0  0  0  0  0  0  0
   36.8480   26.6670   42.6130 C   0  0  0  0  0  0  0  0  0  0  0  0
   36.4840   26.7030   43.6820 H   0  0  0  0  0  0  0  0  0  0  0  0
   35.9820   27.0330   42.0170 H   0  0  0  0  0  0  0  0  0  0  0  0
   37.1570   25.2560   42.1920 C   0  0  0  0  0  0  0  0  0  0  0  0
   36.7240   25.0320   41.1840 H   0  0  0  0  0  0  0  0  0  0  0  0
   36.6920   24.5500   42.9180 H   0  0  0  0  0  0  0  0  0  0  0  0
   38.2310   25.0580   42.1680 H   0  0  0  0  0  0  0  0  0  0  0  0
   34.4800   29.1580   39.9870 O   0  0  0  0  0  0  0  0  0  0  0  0
   35.8910   29.6980   40.2530 P   0  0  1  0  0  0  0  0  0  0  0  0
   35.8290   30.5790   41.6940 O   0  0  0  0  0  0  0  0  0  0  0  0
   36.5870   31.2200   41.7330 H   0  0  0  0  0  0  0  0  0  0  0  0
   36.3570   30.7440   39.0210 O   0  0  0  0  0  0  0  0  0  0  0  0
   37.4460   31.5730   39.2240 C   0  0  0  0  0  0  0  0  0  0  0  0
   38.4890   31.4770   38.3000 C   0  0  0  0  0  0  0  0  0  0  0  0
   39.6240   32.2680   38.4170 C   0  0  0  0  0  0  0  0  0  0  0  0
   39.7010   33.1460   39.4580 N   0  0  0  0  0  0  0  0  0  0  0  0
   38.6870   33.2220   40.3360 C   0  0  0  0  0  0  0  0  0  0  0  0
   37.5990   32.4590   40.2170 N   0  0  0  0  0  0  0  0  0  0  0  0
   38.4990   30.8050   37.4500 H   0  0  0  0  0  0  0  0  0  0  0  0
   40.4550   32.2270   37.7250 H   0  0  0  0  0  0  0  0  0  0  0  0
   38.8390   34.1590   41.3940 N   0  0  0  0  0  0  0  0  0  0  0  0
   39.4040   34.9350   40.9580 H   0  0  0  0  0  0  0  0  0  0  0  0
   38.3120   33.6550   42.1510 H   0  0  0  0  0  0  0  0  0  0  0  0
  1  3  1  0  0  0  0
  2 10  1  0  0  0  0
  2  7  1  0  0  0  0
  3  2  2  0  0  0  0
  4  3  1  0  0  0  0
  4  5  2  0  0  0  0
  5  6  1  0  0  0  0
  6  7  2  0  0  0  0
  6  9  1  0  0  0  0
  8  4  1  0  0  0  0
 10 11  1  0  0  0  0
 12 10  1  0  0  0  0
 13 10  1  0  0  0  0
 13 15  1  0  0  0  0
 14 13  1  0  0  0  0
 16 13  1  0  0  0  0
 18 17  2  6  0  0  0
 18  1  1  0  0  0  0
 18 19  1  0  0  0  0
 19 20  1  0  0  0  0
 21 22  1  0  0  0  0
 21 18  1  0  0  0  0
 22 27  1  0  0  0  0
 23 24  1  0  0  0  0
 23 22  2  0  0  0  0
 24 25  2  0  0  0  0
 25 26  1  0  0  0  0
 26 30  1  0  0  0  0
 27 26  2  0  0  0  0
 28 23  1  0  0  0  0
 29 24  1  0  0  0  0
 30 32  1  0  0  0  0
 31 30  1  0  0  0  0
M  END
>  <minimizedAffinity>
-5.36772537

$$$$

 OpenBabel03252500593D

 32 33  0  0  0  0  0  0  0  0999 V2000
   37.9070   27.0350   41.4720 O   0  0  0  0  0  0  0  0  0  0  0  0
   38.9120   25.0830   42.3150 C   0  0  0  0  0  0  0  0  0  0  0  0
   39.0480   26.4140   41.9730 C   0  0  0  0  0  0  0  0  0  0  0  0
   40.2950   27.0400   42.1480 C   0  0  0  0  0  0  0  0  0  0  0  0
   41.2880   26.2820   42.6480 N   0  0  0  0  0  0  0  0  0  0  0  0
   41.1460   24.9950   42.9740 C   0  0  0  0  0  0  0  0  0  0  0  0
   39.9590   24.3920   42.8100 N   0  0  0  0  0  0  0  0  0  0  0  0
   40.3490   28.0770   41.8680 H   0  0  0  0  0  0  0  0  0  0  0  0
   42.0260   24.5030   43.3650 H   0  0  0  0  0  0  0  0  0  0  0  0
   37.6450   24.3790   42.1560 C   0  0  0  0  0  0  0  0  0  0  0  0
   37.2980   23.8670   43.1010 H   0  0  0  0  0  0  0  0  0  0  0  0
   36.8300   25.1010   41.9220 H   0  0  0  0  0  0  0  0  0  0  0  0
   37.7590   23.4010   41.0180 C   0  0  0  0  0  0  0  0  0  0  0  0
   37.2910   23.8100   40.0870 H   0  0  0  0  0  0  0  0  0  0  0  0
   37.2100   22.4690   41.2840 H   0  0  0  0  0  0  0  0  0  0  0  0
   38.7970   23.1350   40.8050 H   0  0  0  0  0  0  0  0  0  0  0  0
   36.1970   27.3870   43.4440 O   0  0  0  0  0  0  0  0  0  0  0  0
   36.9030   28.1190   42.2960 P   0  0  1  0  0  0  0  0  0  0  0  0
   37.8780   29.3150   42.9860 O   0  0  0  0  0  0  0  0  0  0  0  0
   38.0760   30.0200   42.3150 H   0  0  0  0  0  0  0  0  0  0  0  0
   35.7750   28.8740   41.3040 O   0  0  0  0  0  0  0  0  0  0  0  0
   36.1990   29.8770   40.4500 C   0  0  0  0  0  0  0  0  0  0  0  0
   36.3070   29.5470   39.0970 C   0  0  0  0  0  0  0  0  0  0  0  0
   36.7230   30.4850   38.1620 C   0  0  0  0  0  0  0  0  0  0  0  0
   37.0280   31.7430   38.5930 N   0  0  0  0  0  0  0  0  0  0  0  0
   36.9170   32.0400   39.8990 C   0  0  0  0  0  0  0  0  0  0  0  0
   36.5160   31.1330   40.7920 N   0  0  0  0  0  0  0  0  0  0  0  0
   36.0830   28.5710   38.6810 H   0  0  0  0  0  0  0  0  0  0  0  0
   36.8210   30.2730   37.1060 H   0  0  0  0  0  0  0  0  0  0  0  0
   37.2520   33.3700   40.2720 N   0  0  0  0  0  0  0  0  0  0  0  0
   36.9700   33.9410   39.4330 H   0  0  0  0  0  0  0  0  0  0  0  0
   37.6360   33.1910   41.2340 H   0  0  0  0  0  0  0  0  0  0  0  0
  1  3  1  0  0  0  0
  1 18  1  0  0  0  0
  2  7  1  0  0  0  0
  3  4  1  0  0  0  0
  3  2  2  0  0  0  0
  4  5  2  0  0  0  0
  5  6  1  0  0  0  0
  6  9  1  0  0  0  0
  7  6  2  0  0  0  0
  8  4  1  0  0  0  0
 10  2  1  0  0  0  0
 10 11  1  0  0  0  0
 12 10  1  0  0  0  0
 13 15  1  0  0  0  0
 13 10  1  0  0  0  0
 14 13  1  0  0  0  0
 16 13  1  0  0  0  0
 18 19  1  0  0  0  0
 18 17  2  1  0  0  0
 20 19  1  0  0  0  0
 21 18  1  0  0  0  0
 22 27  1  0  0  0  0
 22 21  1  0  0  0  0
 23 22  2  0  0  0  0
 24 25  2  0  0  0  0
 24 23  1  0  0  0  0
 25 26  1  0  0  0  0
 26 30  1  0  0  0  0
 26 27  2  0  0  0  0
 28 23  1  0  0  0  0
 29 24  1  0  0  0  0
 30 32  1  0  0  0  0
 31 30  1  0  0  0  0
M  END
>  <minimizedAffinity>
-5.20855093

$$$$

 OpenBabel03252500593D

 32 33  0  0  0  0  0  0  0  0999 V2000
   38.0870   30.4240   42.1550 O   0  0  0  0  0  0  0  0  0  0  0  0
   38.6920   28.3080   42.9820 C   0  0  0  0  0  0  0  0  0  0  0  0
   39.0340   29.4050   42.2160 C   0  0  0  0  0  0  0  0  0  0  0  0
   40.2810   29.4220   41.5660 C   0  0  0  0  0  0  0  0  0  0  0  0
   41.0690   28.3460   41.7410 N   0  0  0  0  0  0  0  0  0  0  0  0
   40.7290   27.2890   42.4830 C   0  0  0  0  0  0  0  0  0  0  0  0
   39.5400   27.2670   43.1060 N   0  0  0  0  0  0  0  0  0  0  0  0
   40.5000   30.2990   40.9830 H   0  0  0  0  0  0  0  0  0  0  0  0
   41.4560   26.4920   42.5380 H   0  0  0  0  0  0  0  0  0  0  0  0
   37.4140   28.2310   43.6790 C   0  0  0  0  0  0  0  0  0  0  0  0
   37.5230   28.1100   44.7970 H   0  0  0  0  0  0  0  0  0  0  0  0
   36.8530   29.1860   43.5610 H   0  0  0  0  0  0  0  0  0  0  0  0
   36.5920   27.1170   43.0900 C   0  0  0  0  0  0  0  0  0  0  0  0
   35.8250   27.5150   42.3780 H   0  0  0  0  0  0  0  0  0  0  0  0
   36.0460   26.5960   43.9090 H   0  0  0  0  0  0  0  0  0  0  0  0
   37.2080   26.3800   42.5700 H   0  0  0  0  0  0  0  0  0  0  0  0
   37.2060   29.6880   39.7840 O   0  0  0  0  0  0  0  0  0  0  0  0
   37.0820   30.7910   40.8450 P   0  0  1  0  0  0  0  0  0  0  0  0
   35.4840   30.7840   41.3930 O   0  0  0  0  0  0  0  0  0  0  0  0
   35.2610   31.6620   41.7990 H   0  0  0  0  0  0  0  0  0  0  0  0
   37.3930   32.2950   40.1610 O   0  0  0  0  0  0  0  0  0  0  0  0
   38.6630   32.5610   39.6780 C   0  0  0  0  0  0  0  0  0  0  0  0
   39.5240   33.2580   40.5290 C   0  0  0  0  0  0  0  0  0  0  0  0
   40.8180   33.5720   40.1370 C   0  0  0  0  0  0  0  0  0  0  0  0
   41.2350   33.1840   38.8970 N   0  0  0  0  0  0  0  0  0  0  0  0
   40.3900   32.5140   38.0940 C   0  0  0  0  0  0  0  0  0  0  0  0
   39.1480   32.2160   38.4780 N   0  0  0  0  0  0  0  0  0  0  0  0
   39.2650   33.5980   41.5250 H   0  0  0  0  0  0  0  0  0  0  0  0
   41.5190   34.1090   40.7610 H   0  0  0  0  0  0  0  0  0  0  0  0
   40.8950   32.1440   36.8180 N   0  0  0  0  0  0  0  0  0  0  0  0
   41.9190   31.9760   36.9960 H   0  0  0  0  0  0  0  0  0  0  0  0
   40.0090   32.2020   36.2550 H   0  0  0  0  0  0  0  0  0  0  0  0
  1  3  1  0  0  0  0
  2  7  1  0  0  0  0
  2 10  1  0  0  0  0
  3  2  2  0  0  0  0
  4  5  2  0  0  0  0
  4  3  1  0  0  0  0
  5  6  1  0  0  0  0
  6  9  1  0  0  0  0
  6  7  2  0  0  0  0
  8  4  1  0  0  0  0
 10 11  1  0  0  0  0
 12 10  1  0  0  0  0
 13 10  1  0  0  0  0
 13 15  1  0  0  0  0
 14 13  1  0  0  0  0
 16 13  1  0  0  0  0
 18 17  2  6  0  0  0
 18 19  1  0  0  0  0
 18  1  1  0  0  0  0
 19 20  1  0  0  0  0
 21 18  1  0  0  0  0
 22 21  1  0  0  0  0
 22 23  1  0  0  0  0
 23 28  1  0  0  0  0
 24 23  2  0  0  0  0
 24 29  1  0  0  0  0
 25 24  1  0  0  0  0
 26 27  1  0  0  0  0
 26 25  2  0  0  0  0
 27 22  2  0  0  0  0
 30 31  1  0  0  0  0
 30 26  1  0  0  0  0
 32 30  1  0  0  0  0
M  END
>  <minimizedAffinity>
-5.19874954

$$$$

 OpenBabel03252500593D

 32 33  0  0  0  0  0  0  0  0999 V2000
   36.1480   28.2230   41.2710 O   0  0  0  0  0  0  0  0  0  0  0  0
   38.2050   27.5090   42.1560 C   0  0  0  0  0  0  0  0  0  0  0  0
   37.2820   27.4270   41.1330 C   0  0  0  0  0  0  0  0  0  0  0  0
   37.5390   26.5710   40.0480 C   0  0  0  0  0  0  0  0  0  0  0  0
   38.6920   25.8780   40.0840 N   0  0  0  0  0  0  0  0  0  0  0  0
   39.5780   25.9630   41.0790 C   0  0  0  0  0  0  0  0  0  0  0  0
   39.3380   26.7790   42.1170 N   0  0  0  0  0  0  0  0  0  0  0  0
   36.7900   26.5430   39.2770 H   0  0  0  0  0  0  0  0  0  0  0  0
   40.4630   25.3500   40.9830 H   0  0  0  0  0  0  0  0  0  0  0  0
   37.9950   28.3790   43.3080 C   0  0  0  0  0  0  0  0  0  0  0  0
   36.9040   28.5640   43.5330 H   0  0  0  0  0  0  0  0  0  0  0  0
   38.3870   27.8960   44.2310 H   0  0  0  0  0  0  0  0  0  0  0  0
   38.7330   29.6730   43.0940 C   0  0  0  0  0  0  0  0  0  0  0  0
   39.7010   29.6820   43.6570 H   0  0  0  0  0  0  0  0  0  0  0  0
   38.1140   30.5130   43.4850 H   0  0  0  0  0  0  0  0  0  0  0  0
   38.9360   29.8630   42.0380 H   0  0  0  0  0  0  0  0  0  0  0  0
   34.4470   29.3990   39.6390 O   0  0  0  0  0  0  0  0  0  0  0  0
   35.7740   29.6110   40.3800 P   0  0  1  0  0  0  0  0  0  0  0  0
   35.5440   30.8850   41.4670 O   0  0  0  0  0  0  0  0  0  0  0  0
   36.4200   31.2860   41.7090 H   0  0  0  0  0  0  0  0  0  0  0  0
   36.9800   30.0600   39.2980 O   0  0  0  0  0  0  0  0  0  0  0  0
   37.9970   30.8890   39.7360 C   0  0  0  0  0  0  0  0  0  0  0  0
   39.3040   30.4280   39.5600 C   0  0  0  0  0  0  0  0  0  0  0  0
   40.3920   31.1880   39.9660 C   0  0  0  0  0  0  0  0  0  0  0  0
   40.1600   32.4020   40.5440 N   0  0  0  0  0  0  0  0  0  0  0  0
   38.8950   32.8270   40.7040 C   0  0  0  0  0  0  0  0  0  0  0  0
   37.8540   32.0910   40.3110 N   0  0  0  0  0  0  0  0  0  0  0  0
   39.5670   29.4780   39.1110 H   0  0  0  0  0  0  0  0  0  0  0  0
   41.4200   30.8720   39.8500 H   0  0  0  0  0  0  0  0  0  0  0  0
   38.7310   34.1000   41.3140 N   0  0  0  0  0  0  0  0  0  0  0  0
   39.5790   34.6380   40.9960 H   0  0  0  0  0  0  0  0  0  0  0  0
   37.8220   33.9390   41.8170 H   0  0  0  0  0  0  0  0  0  0  0  0
  2 10  1  0  0  0  0
  3  1  1  0  0  0  0
  3  2  2  0  0  0  0
  4  5  2  0  0  0  0
  4  3  1  0  0  0  0
  5  6  1  0  0  0  0
  6  7  2  0  0  0  0
  7  2  1  0  0  0  0
  8  4  1  0  0  0  0
  9  6  1  0  0  0  0
 10 11  1  0  0  0  0
 10 12  1  0  0  0  0
 13 10  1  0  0  0  0
 13 15  1  0  0  0  0
 13 14  1  0  0  0  0
 16 13  1  0  0  0  0
 18 17  2  6  0  0  0
 18  1  1  0  0  0  0
 18 19  1  0  0  0  0
 19 20  1  0  0  0  0
 21 22  1  0  0  0  0
 21 18  1  0  0  0  0
 22 27  1  0  0  0  0
 23 22  2  0  0  0  0
 23 24  1  0  0  0  0
 24 25  2  0  0  0  0
 25 26  1  0  0  0  0
 26 30  1  0  0  0  0
 27 26  2  0  0  0  0
 28 23  1  0  0  0  0
 29 24  1  0  0  0  0
 30 32  1  0  0  0  0
 31 30  1  0  0  0  0
M  END
>  <minimizedAffinity>
-5.16309881

$$$$

 OpenBabel03252500593D

 32 33  0  0  0  0  0  0  0  0999 V2000
   37.5220   29.2630   40.2160 O   0  0  0  0  0  0  0  0  0  0  0  0
   38.9680   28.9350   42.0410 C   0  0  0  0  0  0  0  0  0  0  0  0
   37.8160   28.5570   41.3800 C   0  0  0  0  0  0  0  0  0  0  0  0
   37.0360   27.5140   41.9090 C   0  0  0  0  0  0  0  0  0  0  0  0
   37.4770   26.9450   43.0460 N   0  0  0  0  0  0  0  0  0  0  0  0
   38.5920   27.3180   43.6780 C   0  0  0  0  0  0  0  0  0  0  0  0
   39.3410   28.3130   43.1780 N   0  0  0  0  0  0  0  0  0  0  0  0
   36.1490   27.2570   41.3570 H   0  0  0  0  0  0  0  0  0  0  0  0
   38.8300   26.7770   44.5830 H   0  0  0  0  0  0  0  0  0  0  0  0
   39.8180   30.0100   41.5420 C   0  0  0  0  0  0  0  0  0  0  0  0
   40.7590   29.6370   41.0430 H   0  0  0  0  0  0  0  0  0  0  0  0
   39.2910   30.5780   40.7430 H   0  0  0  0  0  0  0  0  0  0  0  0
   40.1380   30.9540   42.6690 C   0  0  0  0  0  0  0  0  0  0  0  0
   39.4910   31.8670   42.6260 H   0  0  0  0  0  0  0  0  0  0  0  0
   41.1950   31.2910   42.5720 H   0  0  0  0  0  0  0  0  0  0  0  0
   40.0200   30.4840   43.6480 H   0  0  0  0  0  0  0  0  0  0  0  0
   35.0270   29.4380   39.3900 O   0  0  0  0  0  0  0  0  0  0  0  0
   36.1880   30.2690   39.9550 P   0  0  1  0  0  0  0  0  0  0  0  0
   35.6890   30.8780   41.4500 O   0  0  0  0  0  0  0  0  0  0  0  0
   36.2320   31.6740   41.6900 H   0  0  0  0  0  0  0  0  0  0  0  0
   36.5170   31.5720   38.9440 O   0  0  0  0  0  0  0  0  0  0  0  0
   37.8100   32.0620   38.8850 C   0  0  0  0  0  0  0  0  0  0  0  0
   38.2250   32.8700   39.9450 C   0  0  0  0  0  0  0  0  0  0  0  0
   39.5040   33.4090   39.9770 C   0  0  0  0  0  0  0  0  0  0  0  0
   40.3530   33.1310   38.9460 N   0  0  0  0  0  0  0  0  0  0  0  0
   39.9340   32.3510   37.9350 C   0  0  0  0  0  0  0  0  0  0  0  0
   38.7030   31.8370   37.9110 N   0  0  0  0  0  0  0  0  0  0  0  0
   37.6090   33.1340   40.7970 H   0  0  0  0  0  0  0  0  0  0  0  0
   39.8680   34.0390   40.7770 H   0  0  0  0  0  0  0  0  0  0  0  0
   40.8740   32.1070   36.8970 N   0  0  0  0  0  0  0  0  0  0  0  0
   41.8010   32.1090   37.3970 H   0  0  0  0  0  0  0  0  0  0  0  0
   40.2170   32.0310   36.0800 H   0  0  0  0  0  0  0  0  0  0  0  0
  1  3  1  0  0  0  0
  2  7  1  0  0  0  0
  3  4  1  0  0  0  0
  3  2  2  0  0  0  0
  4  5  2  0  0  0  0
  5  6  1  0  0  0  0
  6  9  1  0  0  0  0
  7  6  2  0  0  0  0
  8  4  1  0  0  0  0
 10  2  1  0  0  0  0
 10 13  1  0  0  0  0
 11 10  1  0  0  0  0
 12 10  1  0  0  0  0
 13 16  1  0  0  0  0
 14 13  1  0  0  0  0
 15 13  1  0  0  0  0
 18 17  2  6  0  0  0
 18  1  1  0  0  0  0
 18 19  1  0  0  0  0
 19 20  1  0  0  0  0
 21 18  1  0  0  0  0
 22 21  1  0  0  0  0
 22 23  1  0  0  0  0
 23 24  2  0  0  0  0
 23 28  1  0  0  0  0
 24 29  1  0  0  0  0
 25 24  1  0  0  0  0
 26 25  2  0  0  0  0
 27 26  1  0  0  0  0
 27 22  2  0  0  0  0
 30 31  1  0  0  0  0
 30 26  1  0  0  0  0
 32 30  1  0  0  0  0
M  END
>  <minimizedAffinity>
-5.04343319

$$$$

 OpenBabel03252500593D

 32 33  0  0  0  0  0  0  0  0999 V2000
   37.4210   30.3470   41.8050 O   0  0  0  0  0  0  0  0  0  0  0  0
   38.5360   31.9260   40.4680 C   0  0  0  0  0  0  0  0  0  0  0  0
   38.6180   30.9670   41.4580 C   0  0  0  0  0  0  0  0  0  0  0  0
   39.8690   30.6870   42.0350 C   0  0  0  0  0  0  0  0  0  0  0  0
   40.9200   31.3870   41.5730 N   0  0  0  0  0  0  0  0  0  0  0  0
   40.8310   32.3130   40.6150 C   0  0  0  0  0  0  0  0  0  0  0  0
   39.6400   32.5850   40.0600 N   0  0  0  0  0  0  0  0  0  0  0  0
   39.8790   29.9320   42.8020 H   0  0  0  0  0  0  0  0  0  0  0  0
   41.7540   32.8020   40.3370 H   0  0  0  0  0  0  0  0  0  0  0  0
   37.2690   32.2620   39.8310 C   0  0  0  0  0  0  0  0  0  0  0  0
   37.0350   31.6140   38.9360 H   0  0  0  0  0  0  0  0  0  0  0  0
   36.4240   32.0740   40.5320 H   0  0  0  0  0  0  0  0  0  0  0  0
   37.2680   33.7200   39.4620 C   0  0  0  0  0  0  0  0  0  0  0  0
   36.6950   34.3260   40.2100 H   0  0  0  0  0  0  0  0  0  0  0  0
   36.7630   33.8460   38.4770 H   0  0  0  0  0  0  0  0  0  0  0  0
   38.2790   34.1260   39.3790 H   0  0  0  0  0  0  0  0  0  0  0  0
   35.5930   28.6090   41.0470 O   0  0  0  0  0  0  0  0  0  0  0  0
   37.0270   28.7170   41.5820 P   0  0  1  0  0  0  0  0  0  0  0  0
   38.0540   28.0870   40.3970 O   0  0  0  0  0  0  0  0  0  0  0  0
   38.9170   27.8130   40.8070 H   0  0  0  0  0  0  0  0  0  0  0  0
   37.2020   27.7880   42.9720 O   0  0  0  0  0  0  0  0  0  0  0  0
   38.0300   26.6800   42.9370 C   0  0  0  0  0  0  0  0  0  0  0  0
   39.2260   26.7670   43.6530 C   0  0  0  0  0  0  0  0  0  0  0  0
   40.1230   25.7080   43.6800 C   0  0  0  0  0  0  0  0  0  0  0  0
   39.8120   24.5730   42.9900 N   0  0  0  0  0  0  0  0  0  0  0  0
   38.6550   24.5100   42.3070 C   0  0  0  0  0  0  0  0  0  0  0  0
   37.7980   25.5320   42.2860 N   0  0  0  0  0  0  0  0  0  0  0  0
   39.5420   27.6330   44.2230 H   0  0  0  0  0  0  0  0  0  0  0  0
   41.0600   25.7310   44.2200 H   0  0  0  0  0  0  0  0  0  0  0  0
   38.4000   23.2970   41.6130 N   0  0  0  0  0  0  0  0  0  0  0  0
   38.8590   22.5650   42.2150 H   0  0  0  0  0  0  0  0  0  0  0  0
   37.8580   23.6740   40.7940 H   0  0  0  0  0  0  0  0  0  0  0  0
  2  3  1  0  0  0  0
  3  1  1  0  0  0  0
  3  4  2  0  0  0  0
  4  8  1  0  0  0  0
  5  4  1  0  0  0  0
  6  5  2  0  0  0  0
  7  2  2  0  0  0  0
  7  6  1  0  0  0  0
  9  6  1  0  0  0  0
 10  2  1  0  0  0  0
 10 12  1  0  0  0  0
 11 10  1  0  0  0  0
 13 10  1  0  0  0  0
 13 14  1  0  0  0  0
 15 13  1  0  0  0  0
 16 13  1  0  0  0  0
 18 17  2  6  0  0  0
 18  1  1  0  0  0  0
 18 21  1  0  0  0  0
 19 20  1  0  0  0  0
 19 18  1  0  0  0  0
 22 21  1  0  0  0  0
 22 23  1  0  0  0  0
 23 24  2  0  0  0  0
 23 28  1  0  0  0  0
 24 29  1  0  0  0  0
 25 24  1  0  0  0  0
 26 25  2  0  0  0  0
 27 26  1  0  0  0  0
 27 22  2  0  0  0  0
 30 31  1  0  0  0  0
 30 26  1  0  0  0  0
 32 30  1  0  0  0  0
M  END
>  <minimizedAffinity>
-4.93963766

$$$$

 OpenBabel03252500593D

 32 33  0  0  0  0  0  0  0  0999 V2000
   36.3620   28.4140   41.8350 O   0  0  0  0  0  0  0  0  0  0  0  0
   37.8210   26.7420   42.6120 C   0  0  0  0  0  0  0  0  0  0  0  0
   37.6160   28.0800   42.3400 C   0  0  0  0  0  0  0  0  0  0  0  0
   38.6570   28.9930   42.5830 C   0  0  0  0  0  0  0  0  0  0  0  0
   39.8030   28.4890   43.0750 N   0  0  0  0  0  0  0  0  0  0  0  0
   39.9910   27.1920   43.3340 C   0  0  0  0  0  0  0  0  0  0  0  0
   39.0010   26.3160   43.1040 N   0  0  0  0  0  0  0  0  0  0  0  0
   38.4470   30.0230   42.3550 H   0  0  0  0  0  0  0  0  0  0  0  0
   40.9610   26.9210   43.7260 H   0  0  0  0  0  0  0  0  0  0  0  0
   36.7800   25.7470   42.3800 C   0  0  0  0  0  0  0  0  0  0  0  0
   36.6150   25.0620   43.2630 H   0  0  0  0  0  0  0  0  0  0  0  0
   35.7960   26.2460   42.2340 H   0  0  0  0  0  0  0  0  0  0  0  0
   37.1090   24.9640   41.1380 C   0  0  0  0  0  0  0  0  0  0  0  0
   36.5170   25.3310   40.2620 H   0  0  0  0  0  0  0  0  0  0  0  0
   36.8350   23.8960   41.3000 H   0  0  0  0  0  0  0  0  0  0  0  0
   38.1720   25.0080   40.8910 H   0  0  0  0  0  0  0  0  0  0  0  0
   34.8310   29.0450   39.7870 O   0  0  0  0  0  0  0  0  0  0  0  0
   36.0320   29.5320   40.6090 P   0  0  1  0  0  0  0  0  0  0  0  0
   35.5850   30.9910   41.3360 O   0  0  0  0  0  0  0  0  0  0  0  0
   36.3960   31.5100   41.5790 H   0  0  0  0  0  0  0  0  0  0  0  0
   37.3450   29.8300   39.6020 O   0  0  0  0  0  0  0  0  0  0  0  0
   37.5620   28.9950   38.5200 C   0  0  0  0  0  0  0  0  0  0  0  0
   38.0230   27.7070   38.8040 C   0  0  0  0  0  0  0  0  0  0  0  0
   38.2700   26.7960   37.7860 C   0  0  0  0  0  0  0  0  0  0  0  0
   38.0520   27.1830   36.4970 N   0  0  0  0  0  0  0  0  0  0  0  0
   37.6080   28.4270   36.2460 C   0  0  0  0  0  0  0  0  0  0  0  0
   37.3730   29.2980   37.2290 N   0  0  0  0  0  0  0  0  0  0  0  0
   38.2200   27.3280   39.8000 H   0  0  0  0  0  0  0  0  0  0  0  0
   38.6280   25.7890   37.9590 H   0  0  0  0  0  0  0  0  0  0  0  0
   37.4040   28.7590   34.8790 N   0  0  0  0  0  0  0  0  0  0  0  0
   37.1110   27.8450   34.4440 H   0  0  0  0  0  0  0  0  0  0  0  0
   37.6400   29.7830   34.9100 H   0  0  0  0  0  0  0  0  0  0  0  0
  1  3  1  0  0  0  0
  2  7  1  0  0  0  0
  3  4  1  0  0  0  0
  3  2  2  0  0  0  0
  4  5  2  0  0  0  0
  5  6  1  0  0  0  0
  6  9  1  0  0  0  0
  7  6  2  0  0  0  0
  8  4  1  0  0  0  0
 10  2  1  0  0  0  0
 10 11  1  0  0  0  0
 12 10  1  0  0  0  0
 13 15  1  0  0  0  0
 13 10  1  0  0  0  0
 14 13  1  0  0  0  0
 16 13  1  0  0  0  0
 18 17  2  6  0  0  0
 18 19  1  0  0  0  0
 18  1  1  0  0  0  0
 19 20  1  0  0  0  0
 21 18  1  0  0  0  0
 22 23  1  0  0  0  0
 22 21  1  0  0  0  0
 23 28  1  0  0  0  0
 24 29  1  0  0  0  0
 24 23  2  0  0  0  0
 25 24  1  0  0  0  0
 26 25  2  0  0  0  0
 26 27  1  0  0  0  0
 27 22  2  0  0  0  0
 30 32  1  0  0  0  0
 30 26  1  0  0  0  0
 31 30  1  0  0  0  0
M  END
>  <minimizedAffinity>
-4.91199923

$$$$

 OpenBabel03252500593D

 32 33  0  0  0  0  0  0  0  0999 V2000
   39.5590   29.9740   43.0710 O   0  0  0  0  0  0  0  0  0  0  0  0
   38.9680   27.6990   43.0870 C   0  0  0  0  0  0  0  0  0  0  0  0
   38.6020   28.9990   42.8020 C   0  0  0  0  0  0  0  0  0  0  0  0
   37.3240   29.2490   42.2730 C   0  0  0  0  0  0  0  0  0  0  0  0
   36.5300   28.1810   42.0770 N   0  0  0  0  0  0  0  0  0  0  0  0
   36.8930   26.9260   42.3570 C   0  0  0  0  0  0  0  0  0  0  0  0
   38.1120   26.6810   42.8620 N   0  0  0  0  0  0  0  0  0  0  0  0
   37.0880   30.2780   42.0680 H   0  0  0  0  0  0  0  0  0  0  0  0
   36.1570   26.1610   42.1520 H   0  0  0  0  0  0  0  0  0  0  0  0
   40.2790   27.3760   43.6370 C   0  0  0  0  0  0  0  0  0  0  0  0
   41.1260   27.9010   43.1070 H   0  0  0  0  0  0  0  0  0  0  0  0
   40.3530   27.7320   44.6900 H   0  0  0  0  0  0  0  0  0  0  0  0
   40.4700   25.8840   43.6230 C   0  0  0  0  0  0  0  0  0  0  0  0
   40.2830   25.4430   44.6360 H   0  0  0  0  0  0  0  0  0  0  0  0
   41.5270   25.6560   43.3520 H   0  0  0  0  0  0  0  0  0  0  0  0
   39.8200   25.3910   42.8970 H   0  0  0  0  0  0  0  0  0  0  0  0
   39.2470   32.0580   41.4910 O   0  0  0  0  0  0  0  0  0  0  0  0
   40.2780   31.0190   41.9520 P   0  0  1  0  0  0  0  0  0  0  0  0
   41.5180   31.8560   42.7390 O   0  0  0  0  0  0  0  0  0  0  0  0
   42.3460   31.3080   42.7460 H   0  0  0  0  0  0  0  0  0  0  0  0
   40.9420   30.2280   40.6250 O   0  0  0  0  0  0  0  0  0  0  0  0
   41.1150   30.9300   39.4460 C   0  0  0  0  0  0  0  0  0  0  0  0
   42.4240   31.2890   39.1150 C   0  0  0  0  0  0  0  0  0  0  0  0
   42.7000   31.9940   37.9510 C   0  0  0  0  0  0  0  0  0  0  0  0
   41.6630   32.3310   37.1320 N   0  0  0  0  0  0  0  0  0  0  0  0
   40.4110   31.9760   37.4690 C   0  0  0  0  0  0  0  0  0  0  0  0
   40.1530   31.2990   38.5890 N   0  0  0  0  0  0  0  0  0  0  0  0
   43.2970   31.0570   39.7130 H   0  0  0  0  0  0  0  0  0  0  0  0
   43.6970   32.2920   37.6550 H   0  0  0  0  0  0  0  0  0  0  0  0
   39.3820   32.3630   36.5680 N   0  0  0  0  0  0  0  0  0  0  0  0
   39.8530   32.3310   35.6260 H   0  0  0  0  0  0  0  0  0  0  0  0
   38.5970   32.5110   37.2510 H   0  0  0  0  0  0  0  0  0  0  0  0
  2 10  1  0  0  0  0
  3  1  1  0  0  0  0
  3  2  2  0  0  0  0
  4  3  1  0  0  0  0
  5  4  2  0  0  0  0
  5  6  1  0  0  0  0
  6  7  2  0  0  0  0
  7  2  1  0  0  0  0
  8  4  1  0  0  0  0
  9  6  1  0  0  0  0
 10 12  1  0  0  0  0
 11 10  1  0  0  0  0
 13 10  1  0  0  0  0
 13 14  1  0  0  0  0
 15 13  1  0  0  0  0
 16 13  1  0  0  0  0
 18 17  2  6  0  0  0
 18 19  1  0  0  0  0
 18  1  1  0  0  0  0
 19 20  1  0  0  0  0
 21 18  1  0  0  0  0
 22 21  1  0  0  0  0
 23 22  1  0  0  0  0
 23 28  1  0  0  0  0
 24 23  2  0  0  0  0
 25 26  2  0  0  0  0
 25 24  1  0  0  0  0
 26 27  1  0  0  0  0
 27 22  2  0  0  0  0
 29 24  1  0  0  0  0
 30 32  1  0  0  0  0
 30 26  1  0  0  0  0
 31 30  1  0  0  0  0
M  END
>  <minimizedAffinity>
-4.81638241

$$$$
