
 OpenBabel03252502113D

 22 23  0  0  0  0  0  0  0  0999 V2000
   37.6910   31.1020   36.9160 Cl  0  0  0  0  0  0  0  0  0  0  0  0
   36.6480   30.4030   38.1130 C   0  0  0  0  0  0  0  0  0  0  0  0
   36.6830   30.8010   39.4140 C   0  0  0  0  0  0  0  0  0  0  0  0
   35.8030   30.1700   40.2740 C   0  0  0  0  0  0  0  0  0  0  0  0
   34.9380   29.2040   39.8740 C   0  0  0  0  0  0  0  0  0  0  0  0
   34.9050   28.8040   38.5550 C   0  0  0  0  0  0  0  0  0  0  0  0
   35.7820   29.4260   37.6790 C   0  0  0  0  0  0  0  0  0  0  0  0
   34.2690   28.7420   40.5890 H   0  0  0  0  0  0  0  0  0  0  0  0
   34.2280   28.0380   38.2110 H   0  0  0  0  0  0  0  0  0  0  0  0
   35.7410   29.0970   36.6420 H   0  0  0  0  0  0  0  0  0  0  0  0
   38.2930   34.1610   40.0340 C   0  0  0  0  0  0  0  0  0  0  0  0
   37.3630   33.1900   39.6430 C   0  0  0  0  0  0  0  0  0  0  0  0
   37.6190   31.8360   39.8060 C   0  0  0  0  0  0  0  0  0  0  0  0
   38.8160   31.5300   40.3630 N   0  0  0  0  0  0  0  0  0  0  0  0
   39.7060   32.4700   40.7380 C   0  0  0  0  0  0  0  0  0  0  0  0
   39.4530   33.7720   40.5770 N   0  0  0  0  0  0  0  0  0  0  0  0
   38.0980   35.2180   39.9090 H   0  0  0  0  0  0  0  0  0  0  0  0
   36.4300   33.4880   39.2070 H   0  0  0  0  0  0  0  0  0  0  0  0
   40.6330   32.1100   41.1720 H   0  0  0  0  0  0  0  0  0  0  0  0
   35.8070   30.5560   41.6410 N   0  0  0  0  0  0  0  0  0  0  0  0
   36.6050   30.7060   42.2960 H   0  0  0  0  0  0  0  0  0  0  0  0
   34.7930   30.6680   41.8800 H   0  0  0  0  0  0  0  0  0  0  0  0
  1  2  1  0  0  0  0
  2  3  1  0  0  0  0
  3 13  1  0  0  0  0
  3  4  2  0  0  0  0
  4 20  1  0  0  0  0
  5  4  1  0  0  0  0
  5  8  1  0  0  0  0
  6  5  2  0  0  0  0
  7  2  2  0  0  0  0
  7  6  1  0  0  0  0
  9  6  1  0  0  0  0
 10  7  1  0  0  0  0
 11 16  1  0  0  0  0
 12 13  1  0  0  0  0
 12 11  2  0  0  0  0
 13 14  2  0  0  0  0
 14 15  1  0  0  0  0
 15 19  1  0  0  0  0
 16 15  2  0  0  0  0
 17 11  1  0  0  0  0
 18 12  1  0  0  0  0
 20 22  1  0  0  0  0
 20 21  1  0  0  0  0
M  END
>  <minimizedAffinity>
-4.99184179

$$$$

 OpenBabel03252502113D

 22 23  0  0  0  0  0  0  0  0999 V2000
   40.7930   29.9770   40.8580 Cl  0  0  0  0  0  0  0  0  0  0  0  0
   39.3790   30.9500   40.6010 C   0  0  0  0  0  0  0  0  0  0  0  0
   38.1480   30.5500   41.0220 C   0  0  0  0  0  0  0  0  0  0  0  0
   37.0990   31.4120   40.7610 C   0  0  0  0  0  0  0  0  0  0  0  0
   37.2550   32.6000   40.1220 C   0  0  0  0  0  0  0  0  0  0  0  0
   38.5030   33.0020   39.6970 C   0  0  0  0  0  0  0  0  0  0  0  0
   39.5670   32.1480   39.9510 C   0  0  0  0  0  0  0  0  0  0  0  0
   36.3990   33.2370   39.9430 H   0  0  0  0  0  0  0  0  0  0  0  0
   38.6550   33.9400   39.1870 H   0  0  0  0  0  0  0  0  0  0  0  0
   40.5450   32.4840   39.6090 H   0  0  0  0  0  0  0  0  0  0  0  0
   38.1190   27.8670   43.6790 C   0  0  0  0  0  0  0  0  0  0  0  0
   38.2540   29.1140   43.0590 C   0  0  0  0  0  0  0  0  0  0  0  0
   38.0190   29.2760   41.7020 C   0  0  0  0  0  0  0  0  0  0  0  0
   37.6550   28.1550   41.0330 N   0  0  0  0  0  0  0  0  0  0  0  0
   37.5250   26.9570   41.6370 C   0  0  0  0  0  0  0  0  0  0  0  0
   37.7550   26.8080   42.9450 N   0  0  0  0  0  0  0  0  0  0  0  0
   38.3010   27.7360   44.7380 H   0  0  0  0  0  0  0  0  0  0  0  0
   38.5460   29.9700   43.6360 H   0  0  0  0  0  0  0  0  0  0  0  0
   37.2290   26.1270   41.0030 H   0  0  0  0  0  0  0  0  0  0  0  0
   35.7970   31.0330   41.1830 N   0  0  0  0  0  0  0  0  0  0  0  0
   35.2970   30.1220   41.0860 H   0  0  0  0  0  0  0  0  0  0  0  0
   35.4120   31.8940   41.6380 H   0  0  0  0  0  0  0  0  0  0  0  0
  2  1  1  0  0  0  0
  2  3  1  0  0  0  0
  3 13  1  0  0  0  0
  4  3  2  0  0  0  0
  4 20  1  0  0  0  0
  5  4  1  0  0  0  0
  6  7  1  0  0  0  0
  6  5  2  0  0  0  0
  7  2  2  0  0  0  0
  8  5  1  0  0  0  0
  9  6  1  0  0  0  0
 10  7  1  0  0  0  0
 11 17  1  0  0  0  0
 12 18  1  0  0  0  0
 12 11  1  0  0  0  0
 13 12  2  0  0  0  0
 14 15  2  0  0  0  0
 14 13  1  0  0  0  0
 15 16  1  0  0  0  0
 16 11  2  0  0  0  0
 19 15  1  0  0  0  0
 20 22  1  0  0  0  0
 21 20  1  0  0  0  0
M  END
>  <minimizedAffinity>
-4.56090021

$$$$

 OpenBabel03252502113D

 22 23  0  0  0  0  0  0  0  0999 V2000
   38.0710   28.3760   38.7110 Cl  0  0  0  0  0  0  0  0  0  0  0  0
   37.6550   27.8780   40.3210 C   0  0  0  0  0  0  0  0  0  0  0  0
   37.5650   28.7700   41.3450 C   0  0  0  0  0  0  0  0  0  0  0  0
   37.2250   28.2530   42.5820 C   0  0  0  0  0  0  0  0  0  0  0  0
   36.9870   26.9340   42.7960 C   0  0  0  0  0  0  0  0  0  0  0  0
   37.0790   26.0340   41.7560 C   0  0  0  0  0  0  0  0  0  0  0  0
   37.4190   26.5360   40.5080 C   0  0  0  0  0  0  0  0  0  0  0  0
   36.7240   26.5820   43.7850 H   0  0  0  0  0  0  0  0  0  0  0  0
   36.8960   24.9800   41.8980 H   0  0  0  0  0  0  0  0  0  0  0  0
   37.4860   25.8090   39.6990 H   0  0  0  0  0  0  0  0  0  0  0  0
   37.2040   32.3520   40.2050 C   0  0  0  0  0  0  0  0  0  0  0  0
   36.9160   31.0030   40.4430 C   0  0  0  0  0  0  0  0  0  0  0  0
   37.8250   30.1710   41.0800 C   0  0  0  0  0  0  0  0  0  0  0  0
   38.9920   30.7530   41.4490 N   0  0  0  0  0  0  0  0  0  0  0  0
   39.2630   32.0530   41.2170 C   0  0  0  0  0  0  0  0  0  0  0  0
   38.3820   32.8480   40.6020 N   0  0  0  0  0  0  0  0  0  0  0  0
   36.4980   33.0050   39.7090 H   0  0  0  0  0  0  0  0  0  0  0  0
   35.9750   30.5940   40.1310 H   0  0  0  0  0  0  0  0  0  0  0  0
   40.2300   32.4120   41.5550 H   0  0  0  0  0  0  0  0  0  0  0  0
   37.1200   29.1490   43.6790 N   0  0  0  0  0  0  0  0  0  0  0  0
   37.7590   29.9160   43.9850 H   0  0  0  0  0  0  0  0  0  0  0  0
   36.2250   28.8780   44.1500 H   0  0  0  0  0  0  0  0  0  0  0  0
  1  2  1  0  0  0  0
  2  7  2  0  0  0  0
  2  3  1  0  0  0  0
  3  4  2  0  0  0  0
  4  5  1  0  0  0  0
  4 20  1  0  0  0  0
  5  8  1  0  0  0  0
  6  9  1  0  0  0  0
  6  5  2  0  0  0  0
  7  6  1  0  0  0  0
 10  7  1  0  0  0  0
 11 12  2  0  0  0  0
 11 16  1  0  0  0  0
 12 13  1  0  0  0  0
 13  3  1  0  0  0  0
 13 14  2  0  0  0  0
 15 14  1  0  0  0  0
 15 19  1  0  0  0  0
 16 15  2  0  0  0  0
 17 11  1  0  0  0  0
 18 12  1  0  0  0  0
 20 21  1  0  0  0  0
 20 22  1  0  0  0  0
M  END
>  <minimizedAffinity>
-4.53601646

$$$$

 OpenBabel03252502113D

 22 23  0  0  0  0  0  0  0  0999 V2000
   40.7900   29.9570   40.8150 Cl  0  0  0  0  0  0  0  0  0  0  0  0
   39.3870   30.9440   40.5530 C   0  0  0  0  0  0  0  0  0  0  0  0
   38.1510   30.5590   40.9750 C   0  0  0  0  0  0  0  0  0  0  0  0
   37.1120   31.4310   40.7080 C   0  0  0  0  0  0  0  0  0  0  0  0
   37.2800   32.6130   40.0640 C   0  0  0  0  0  0  0  0  0  0  0  0
   38.5330   33.0000   39.6380 C   0  0  0  0  0  0  0  0  0  0  0  0
   39.5880   32.1370   39.8970 C   0  0  0  0  0  0  0  0  0  0  0  0
   36.4310   33.2590   39.8800 H   0  0  0  0  0  0  0  0  0  0  0  0
   38.6950   33.9340   39.1230 H   0  0  0  0  0  0  0  0  0  0  0  0
   40.5700   32.4600   39.5540 H   0  0  0  0  0  0  0  0  0  0  0  0
   37.8370   26.8660   41.6970 C   0  0  0  0  0  0  0  0  0  0  0  0
   37.9760   28.0710   41.0000 C   0  0  0  0  0  0  0  0  0  0  0  0
   38.0080   29.2900   41.6600 C   0  0  0  0  0  0  0  0  0  0  0  0
   37.8970   29.2270   43.0100 N   0  0  0  0  0  0  0  0  0  0  0  0
   37.7640   28.0620   43.6760 C   0  0  0  0  0  0  0  0  0  0  0  0
   37.7320   26.8920   43.0320 N   0  0  0  0  0  0  0  0  0  0  0  0
   37.8110   25.9120   41.1860 H   0  0  0  0  0  0  0  0  0  0  0  0
   38.0610   28.0630   39.9310 H   0  0  0  0  0  0  0  0  0  0  0  0
   37.6820   28.1320   44.7560 H   0  0  0  0  0  0  0  0  0  0  0  0
   35.8050   31.0670   41.1310 N   0  0  0  0  0  0  0  0  0  0  0  0
   35.2950   30.1610   41.0390 H   0  0  0  0  0  0  0  0  0  0  0  0
   35.4290   31.9350   41.5820 H   0  0  0  0  0  0  0  0  0  0  0  0
  2  1  1  0  0  0  0
  2  3  1  0  0  0  0
  3 13  1  0  0  0  0
  4  3  2  0  0  0  0
  4 20  1  0  0  0  0
  5  4  1  0  0  0  0
  6  7  1  0  0  0  0
  6  5  2  0  0  0  0
  7  2  2  0  0  0  0
  8  5  1  0  0  0  0
  9  6  1  0  0  0  0
 10  7  1  0  0  0  0
 11 16  1  0  0  0  0
 12 13  1  0  0  0  0
 12 11  2  0  0  0  0
 13 14  2  0  0  0  0
 14 15  1  0  0  0  0
 15 19  1  0  0  0  0
 16 15  2  0  0  0  0
 17 11  1  0  0  0  0
 18 12  1  0  0  0  0
 20 22  1  0  0  0  0
 21 20  1  0  0  0  0
M  END
>  <minimizedAffinity>
-4.51906395

$$$$

 OpenBabel03252502113D

 22 23  0  0  0  0  0  0  0  0999 V2000
   35.8960   29.9560   40.2050 Cl  0  0  0  0  0  0  0  0  0  0  0  0
   37.1470   31.1280   40.4790 C   0  0  0  0  0  0  0  0  0  0  0  0
   38.2270   30.8530   41.2590 C   0  0  0  0  0  0  0  0  0  0  0  0
   39.1570   31.8670   41.4010 C   0  0  0  0  0  0  0  0  0  0  0  0
   39.0290   33.0800   40.8070 C   0  0  0  0  0  0  0  0  0  0  0  0
   37.9330   33.3550   40.0170 C   0  0  0  0  0  0  0  0  0  0  0  0
   36.9910   32.3490   39.8650 C   0  0  0  0  0  0  0  0  0  0  0  0
   39.7870   33.8390   40.9510 H   0  0  0  0  0  0  0  0  0  0  0  0
   37.8070   34.3110   39.5340 H   0  0  0  0  0  0  0  0  0  0  0  0
   36.1330   32.5840   39.2360 H   0  0  0  0  0  0  0  0  0  0  0  0
   37.8030   27.9360   43.6200 C   0  0  0  0  0  0  0  0  0  0  0  0
   37.6770   29.2090   43.0530 C   0  0  0  0  0  0  0  0  0  0  0  0
   38.3320   29.5460   41.8780 C   0  0  0  0  0  0  0  0  0  0  0  0
   39.0890   28.5650   41.3280 N   0  0  0  0  0  0  0  0  0  0  0  0
   39.2050   27.3400   41.8790 C   0  0  0  0  0  0  0  0  0  0  0  0
   38.5730   27.0240   43.0120 N   0  0  0  0  0  0  0  0  0  0  0  0
   37.2940   27.6690   44.5370 H   0  0  0  0  0  0  0  0  0  0  0  0
   37.0640   29.9490   43.5300 H   0  0  0  0  0  0  0  0  0  0  0  0
   39.8390   26.6340   41.3530 H   0  0  0  0  0  0  0  0  0  0  0  0
   40.3000   31.6220   42.2080 N   0  0  0  0  0  0  0  0  0  0  0  0
   40.3760   31.1890   43.1550 H   0  0  0  0  0  0  0  0  0  0  0  0
   41.1010   31.9800   41.6370 H   0  0  0  0  0  0  0  0  0  0  0  0
  1  2  1  0  0  0  0
  2  3  1  0  0  0  0
  3  4  2  0  0  0  0
  3 13  1  0  0  0  0
  4 20  1  0  0  0  0
  5  8  1  0  0  0  0
  5  4  1  0  0  0  0
  6  5  2  0  0  0  0
  7  6  1  0  0  0  0
  7  2  2  0  0  0  0
  9  6  1  0  0  0  0
 10  7  1  0  0  0  0
 11 17  1  0  0  0  0
 12 18  1  0  0  0  0
 12 11  1  0  0  0  0
 13 12  2  0  0  0  0
 14 13  1  0  0  0  0
 14 15  2  0  0  0  0
 15 16  1  0  0  0  0
 16 11  2  0  0  0  0
 19 15  1  0  0  0  0
 20 21  1  0  0  0  0
 22 20  1  0  0  0  0
M  END
>  <minimizedAffinity>
-4.38435173

$$$$

 OpenBabel03252502113D

 22 23  0  0  0  0  0  0  0  0999 V2000
   40.0720   30.4240   41.9380 Cl  0  0  0  0  0  0  0  0  0  0  0  0
   38.6820   29.4230   42.2190 C   0  0  0  0  0  0  0  0  0  0  0  0
   37.5590   29.5260   41.4570 C   0  0  0  0  0  0  0  0  0  0  0  0
   36.5190   28.6740   41.7780 C   0  0  0  0  0  0  0  0  0  0  0  0
   36.5820   27.7730   42.7910 C   0  0  0  0  0  0  0  0  0  0  0  0
   37.7200   27.6720   43.5610 C   0  0  0  0  0  0  0  0  0  0  0  0
   38.7740   28.5200   43.2530 C   0  0  0  0  0  0  0  0  0  0  0  0
   35.7370   27.1290   43.0000 H   0  0  0  0  0  0  0  0  0  0  0  0
   37.7970   26.9650   44.3720 H   0  0  0  0  0  0  0  0  0  0  0  0
   39.6660   28.4250   43.8720 H   0  0  0  0  0  0  0  0  0  0  0  0
   37.1990   32.7460   39.5170 C   0  0  0  0  0  0  0  0  0  0  0  0
   37.2200   31.8370   40.5800 C   0  0  0  0  0  0  0  0  0  0  0  0
   37.5280   30.4980   40.3830 C   0  0  0  0  0  0  0  0  0  0  0  0
   37.8030   30.1450   39.1030 N   0  0  0  0  0  0  0  0  0  0  0  0
   37.7820   31.0260   38.0840 C   0  0  0  0  0  0  0  0  0  0  0  0
   37.4830   32.3130   38.2820 N   0  0  0  0  0  0  0  0  0  0  0  0
   36.9590   33.7900   39.6670 H   0  0  0  0  0  0  0  0  0  0  0  0
   36.9940   32.1700   41.5740 H   0  0  0  0  0  0  0  0  0  0  0  0
   38.0180   30.6310   37.1010 H   0  0  0  0  0  0  0  0  0  0  0  0
   35.3280   28.7480   41.0070 N   0  0  0  0  0  0  0  0  0  0  0  0
   34.7770   29.5780   40.6960 H   0  0  0  0  0  0  0  0  0  0  0  0
   35.0940   27.7490   40.7960 H   0  0  0  0  0  0  0  0  0  0  0  0
  1  2  1  0  0  0  0
  2  7  1  0  0  0  0
  3  4  1  0  0  0  0
  3  2  2  0  0  0  0
  4  5  2  0  0  0  0
  5  8  1  0  0  0  0
  5  6  1  0  0  0  0
  6  9  1  0  0  0  0
  7  6  2  0  0  0  0
  7 10  1  0  0  0  0
 11 17  1  0  0  0  0
 11 12  1  0  0  0  0
 12 18  1  0  0  0  0
 13 12  2  0  0  0  0
 13  3  1  0  0  0  0
 14 13  1  0  0  0  0
 15 16  1  0  0  0  0
 15 14  2  0  0  0  0
 16 11  2  0  0  0  0
 19 15  1  0  0  0  0
 20  4  1  0  0  0  0
 21 20  1  0  0  0  0
 22 20  1  0  0  0  0
M  END
>  <minimizedAffinity>
-4.36418295

$$$$

 OpenBabel03252502113D

 22 23  0  0  0  0  0  0  0  0999 V2000
   41.2830   29.0880   42.0550 Cl  0  0  0  0  0  0  0  0  0  0  0  0
   39.6120   28.8240   42.4430 C   0  0  0  0  0  0  0  0  0  0  0  0
   38.6240   29.6010   41.9230 C   0  0  0  0  0  0  0  0  0  0  0  0
   37.3320   29.2910   42.3070 C   0  0  0  0  0  0  0  0  0  0  0  0
   37.0330   28.2740   43.1540 C   0  0  0  0  0  0  0  0  0  0  0  0
   38.0360   27.4890   43.6790 C   0  0  0  0  0  0  0  0  0  0  0  0
   39.3390   27.7860   43.3040 C   0  0  0  0  0  0  0  0  0  0  0  0
   36.0030   28.0750   43.4220 H   0  0  0  0  0  0  0  0  0  0  0  0
   37.8260   26.6750   44.3540 H   0  0  0  0  0  0  0  0  0  0  0  0
   40.1180   27.1540   43.7290 H   0  0  0  0  0  0  0  0  0  0  0  0
   39.5190   31.5600   38.8210 C   0  0  0  0  0  0  0  0  0  0  0  0
   39.1750   30.4940   39.6600 C   0  0  0  0  0  0  0  0  0  0  0  0
   38.9810   30.6780   41.0210 C   0  0  0  0  0  0  0  0  0  0  0  0
   39.1460   31.9470   41.4690 N   0  0  0  0  0  0  0  0  0  0  0  0
   39.4770   32.9690   40.6550 C   0  0  0  0  0  0  0  0  0  0  0  0
   39.6630   32.7840   39.3450 N   0  0  0  0  0  0  0  0  0  0  0  0
   39.6710   31.4210   37.7590 H   0  0  0  0  0  0  0  0  0  0  0  0
   39.0560   29.5090   39.2530 H   0  0  0  0  0  0  0  0  0  0  0  0
   39.5840   33.9430   41.1230 H   0  0  0  0  0  0  0  0  0  0  0  0
   36.2700   30.0790   41.7870 N   0  0  0  0  0  0  0  0  0  0  0  0
   36.1790   31.1150   41.7030 H   0  0  0  0  0  0  0  0  0  0  0  0
   35.5540   29.3780   41.4840 H   0  0  0  0  0  0  0  0  0  0  0  0
  1  2  1  0  0  0  0
  2  7  1  0  0  0  0
  3  4  1  0  0  0  0
  3  2  2  0  0  0  0
  4  5  2  0  0  0  0
  5  8  1  0  0  0  0
  5  6  1  0  0  0  0
  6  9  1  0  0  0  0
  7  6  2  0  0  0  0
  7 10  1  0  0  0  0
 11 16  2  0  0  0  0
 11 12  1  0  0  0  0
 12 13  2  0  0  0  0
 13 14  1  0  0  0  0
 13  3  1  0  0  0  0
 15 19  1  0  0  0  0
 15 14  2  0  0  0  0
 16 15  1  0  0  0  0
 17 11  1  0  0  0  0
 18 12  1  0  0  0  0
 20  4  1  0  0  0  0
 21 20  1  0  0  0  0
 22 20  1  0  0  0  0
M  END
>  <minimizedAffinity>
-4.27568626

$$$$

 OpenBabel03252502113D

 22 23  0  0  0  0  0  0  0  0999 V2000
   36.1500   27.0950   39.4610 Cl  0  0  0  0  0  0  0  0  0  0  0  0
   36.7160   25.5400   39.9850 C   0  0  0  0  0  0  0  0  0  0  0  0
   37.4430   25.3890   41.1250 C   0  0  0  0  0  0  0  0  0  0  0  0
   37.8360   24.1000   41.4370 C   0  0  0  0  0  0  0  0  0  0  0  0
   37.5290   23.0240   40.6700 C   0  0  0  0  0  0  0  0  0  0  0  0
   36.7920   23.1810   39.5160 C   0  0  0  0  0  0  0  0  0  0  0  0
   36.3900   24.4670   39.1870 C   0  0  0  0  0  0  0  0  0  0  0  0
   37.8620   22.0360   40.9600 H   0  0  0  0  0  0  0  0  0  0  0  0
   36.5340   22.3420   38.8880 H   0  0  0  0  0  0  0  0  0  0  0  0
   35.8080   24.5710   38.2720 H   0  0  0  0  0  0  0  0  0  0  0  0
   37.2170   28.2200   43.6140 C   0  0  0  0  0  0  0  0  0  0  0  0
   36.8830   27.0860   42.8650 C   0  0  0  0  0  0  0  0  0  0  0  0
   37.7520   26.5610   41.9200 C   0  0  0  0  0  0  0  0  0  0  0  0
   38.9300   27.2170   41.7800 N   0  0  0  0  0  0  0  0  0  0  0  0
   39.2460   28.3090   42.5050 C   0  0  0  0  0  0  0  0  0  0  0  0
   38.4020   28.8090   43.4130 N   0  0  0  0  0  0  0  0  0  0  0  0
   36.5420   28.6330   44.3520 H   0  0  0  0  0  0  0  0  0  0  0  0
   35.9360   26.6050   43.0170 H   0  0  0  0  0  0  0  0  0  0  0  0
   40.2160   28.7530   42.3090 H   0  0  0  0  0  0  0  0  0  0  0  0
   38.5970   23.8980   42.6190 N   0  0  0  0  0  0  0  0  0  0  0  0
   39.4230   24.4200   42.9860 H   0  0  0  0  0  0  0  0  0  0  0  0
   38.1440   23.0750   43.0800 H   0  0  0  0  0  0  0  0  0  0  0  0
  1  2  1  0  0  0  0
  2  3  1  0  0  0  0
  3  4  2  0  0  0  0
  3 13  1  0  0  0  0
  4 20  1  0  0  0  0
  5  8  1  0  0  0  0
  5  4  1  0  0  0  0
  6  5  2  0  0  0  0
  7  6  1  0  0  0  0
  7  2  2  0  0  0  0
  9  6  1  0  0  0  0
 10  7  1  0  0  0  0
 11 17  1  0  0  0  0
 12 18  1  0  0  0  0
 12 11  2  0  0  0  0
 13 12  1  0  0  0  0
 14 13  2  0  0  0  0
 14 15  1  0  0  0  0
 15 16  2  0  0  0  0
 16 11  1  0  0  0  0
 19 15  1  0  0  0  0
 20 21  1  0  0  0  0
 20 22  1  0  0  0  0
M  END
>  <minimizedAffinity>
-4.27540016

$$$$

 OpenBabel03252502113D

 22 23  0  0  0  0  0  0  0  0999 V2000
   37.6760   27.3390   43.5420 Cl  0  0  0  0  0  0  0  0  0  0  0  0
   37.2160   26.4650   42.1140 C   0  0  0  0  0  0  0  0  0  0  0  0
   36.9760   27.0970   40.9340 C   0  0  0  0  0  0  0  0  0  0  0  0
   36.6170   26.2920   39.8680 C   0  0  0  0  0  0  0  0  0  0  0  0
   36.5040   24.9430   39.9610 C   0  0  0  0  0  0  0  0  0  0  0  0
   36.7480   24.3060   41.1580 C   0  0  0  0  0  0  0  0  0  0  0  0
   37.1080   25.0990   42.2380 C   0  0  0  0  0  0  0  0  0  0  0  0
   36.2200   24.3600   39.0940 H   0  0  0  0  0  0  0  0  0  0  0  0
   36.6640   23.2360   41.2600 H   0  0  0  0  0  0  0  0  0  0  0  0
   37.2980   24.5770   43.1760 H   0  0  0  0  0  0  0  0  0  0  0  0
   38.4100   30.5770   40.6310 C   0  0  0  0  0  0  0  0  0  0  0  0
   38.3230   29.1820   40.6860 C   0  0  0  0  0  0  0  0  0  0  0  0
   37.1080   28.5390   40.8710 C   0  0  0  0  0  0  0  0  0  0  0  0
   36.0290   29.3510   40.9900 N   0  0  0  0  0  0  0  0  0  0  0  0
   36.1200   30.6950   40.9350 C   0  0  0  0  0  0  0  0  0  0  0  0
   37.2950   31.3060   40.7580 N   0  0  0  0  0  0  0  0  0  0  0  0
   39.3560   31.0830   40.4870 H   0  0  0  0  0  0  0  0  0  0  0  0
   39.2090   28.5860   40.5860 H   0  0  0  0  0  0  0  0  0  0  0  0
   35.1910   31.2460   41.0440 H   0  0  0  0  0  0  0  0  0  0  0  0
   36.3570   26.9120   38.6160 N   0  0  0  0  0  0  0  0  0  0  0  0
   35.7900   27.7580   38.3890 H   0  0  0  0  0  0  0  0  0  0  0  0
   36.8760   26.3230   37.9230 H   0  0  0  0  0  0  0  0  0  0  0  0
  2  7  1  0  0  0  0
  2  1  1  0  0  0  0
  3  2  2  0  0  0  0
  4  5  2  0  0  0  0
  4  3  1  0  0  0  0
  5  6  1  0  0  0  0
  6  9  1  0  0  0  0
  6  7  2  0  0  0  0
  7 10  1  0  0  0  0
  8  5  1  0  0  0  0
 11 12  2  0  0  0  0
 11 16  1  0  0  0  0
 12 13  1  0  0  0  0
 13  3  1  0  0  0  0
 13 14  2  0  0  0  0
 15 14  1  0  0  0  0
 15 19  1  0  0  0  0
 16 15  2  0  0  0  0
 17 11  1  0  0  0  0
 18 12  1  0  0  0  0
 20  4  1  0  0  0  0
 21 20  1  0  0  0  0
 22 20  1  0  0  0  0
M  END
>  <minimizedAffinity>
-4.25452995

$$$$
