
 OpenBabel03252507483D

 37 38  0  0  0  0  0  0  0  0999 V2000
   47.5250   34.4400   40.7720 C   0  0  0  0  0  0  0  0  0  0  0  0
   47.8310   35.3570   40.1880 H   0  0  0  0  0  0  0  0  0  0  0  0
   46.8580   33.8160   40.1740 H   0  0  0  0  0  0  0  0  0  0  0  0
   48.7810   33.7640   41.1310 C   0  0  0  0  0  0  0  0  0  0  0  0
   49.1060   32.6250   40.4140 C   0  0  0  0  0  0  0  0  0  0  0  0
   50.2650   31.9240   40.6780 C   0  0  0  0  0  0  0  0  0  0  0  0
   51.0720   32.4220   41.6930 N   0  0  0  0  0  0  0  0  0  0  0  0
   50.7120   33.5440   42.3690 C   0  0  0  0  0  0  0  0  0  0  0  0
   49.5900   34.1900   42.0850 N   0  0  0  0  0  0  0  0  0  0  0  0
   50.5540   31.0420   40.1510 H   0  0  0  0  0  0  0  0  0  0  0  0
   51.4090   33.8390   43.1300 H   0  0  0  0  0  0  0  0  0  0  0  0
   48.0140   32.0440   39.1200 S   0  0  0  0  0  0  0  0  0  0  0  0
   48.8300   32.1680   37.5090 C   0  0  0  0  0  0  0  0  0  0  0  0
   49.9220   32.0740   37.6930 H   0  0  0  0  0  0  0  0  0  0  0  0
   48.5440   31.3130   36.8700 H   0  0  0  0  0  0  0  0  0  0  0  0
   48.4910   33.4970   36.8920 C   0  0  0  0  0  0  0  0  0  0  0  0
   49.1470   34.3080   37.1500 H   0  0  0  0  0  0  0  0  0  0  0  0
   47.5010   33.7810   37.3630 H   0  0  0  0  0  0  0  0  0  0  0  0
   48.1920   33.2930   35.5080 N   0  0  0  0  0  0  0  0  0  0  0  0
   49.0090   33.4180   34.8730 H   0  0  0  0  0  0  0  0  0  0  0  0
   47.8130   32.3290   35.3230 H   0  0  0  0  0  0  0  0  0  0  0  0
   46.7490   34.9530   41.9450 C   0  0  0  0  0  0  0  0  0  0  0  0
   47.0040   34.3400   42.8520 H   0  0  0  0  0  0  0  0  0  0  0  0
   47.0820   35.9860   42.2230 H   0  0  0  0  0  0  0  0  0  0  0  0
   45.2820   34.9400   41.7500 C   0  0  0  0  0  0  0  0  0  0  0  0
   44.4400   35.6080   42.6850 C   0  0  0  0  0  0  0  0  0  0  0  0
   42.7590   35.3120   42.0250 S   0  0  0  0  0  0  0  0  0  0  0  0
   43.4840   34.3160   40.5660 C   0  0  0  0  0  0  0  0  0  0  0  0
   44.6020   34.3750   40.7910 N   0  0  0  0  0  0  0  0  0  0  0  0
   44.7420   36.1570   43.5730 H   0  0  0  0  0  0  0  0  0  0  0  0
   42.6990   33.7360   39.5720 O   0  0  0  0  0  0  0  0  0  0  0  0
   40.7490   33.9820   37.7990 O   0  0  0  0  0  0  0  0  0  0  0  0
   41.7740   34.7800   38.6070 P   0  0  0  0  0  0  0  0  0  0  0  0
   40.9340   35.8420   39.6370 O   0  0  0  0  0  0  0  0  0  0  0  0
   41.2190   36.7870   39.5150 H   0  0  0  0  0  0  0  0  0  0  0  0
   42.7840   35.6960   37.6050 O   0  0  0  0  0  0  0  0  0  0  0  0
   43.3140   35.0980   37.0260 H   0  0  0  0  0  0  0  0  0  0  0  0
  1  4  1  0  0  0  0
  1 22  1  0  0  0  0
  2  1  1  0  0  0  0
  3  1  1  0  0  0  0
  4  9  1  0  0  0  0
  5  6  1  0  0  0  0
  5  4  2  0  0  0  0
  6  7  2  0  0  0  0
  7  8  1  0  0  0  0
  8 11  1  0  0  0  0
  9  8  2  0  0  0  0
 10  6  1  0  0  0  0
 12  5  1  0  0  0  0
 13 14  1  0  0  0  0
 13 12  1  0  0  0  0
 15 13  1  0  0  0  0
 16 17  1  0  0  0  0
 16 18  1  0  0  0  0
 16 13  1  0  0  0  0
 19 16  1  0  0  0  0
 20 19  1  0  0  0  0
 21 19  1  0  0  0  0
 22 24  1  0  0  0  0
 22 23  1  0  0  0  0
 25 22  1  0  0  0  0
 25 26  2  0  0  0  0
 26 30  1  0  0  0  0
 27 26  1  0  0  0  0
 28 29  2  0  0  0  0
 28 27  1  0  0  0  0
 29 25  1  0  0  0  0
 31 28  1  0  0  0  0
 32 33  2  0  0  0  0
 33 31  1  0  0  0  0
 33 34  1  0  0  0  0
 35 34  1  0  0  0  0
 36 33  1  0  0  0  0
 37 36  1  0  0  0  0
M  END
>  <minimizedAffinity>
-4.65087605

>  <minimizedRMSD>
0.514831841

$$$$
