
 OpenBabel03252502103D

 22 23  0  0  0  0  0  0  0  0999 V2000
   44.0570   33.3230   41.0090 Cl  0  0  0  0  0  0  0  0  0  0  0  0
   45.6970   33.8000   40.6970 C   0  0  0  0  0  0  0  0  0  0  0  0
   46.4460   34.4430   41.6340 C   0  0  0  0  0  0  0  0  0  0  0  0
   47.7390   34.7710   41.2680 C   0  0  0  0  0  0  0  0  0  0  0  0
   48.2620   34.4810   40.0490 C   0  0  0  0  0  0  0  0  0  0  0  0
   47.5000   33.8310   39.1030 C   0  0  0  0  0  0  0  0  0  0  0  0
   46.2000   33.4940   39.4540 C   0  0  0  0  0  0  0  0  0  0  0  0
   49.2800   34.7610   39.8140 H   0  0  0  0  0  0  0  0  0  0  0  0
   47.8900   33.5890   38.1270 H   0  0  0  0  0  0  0  0  0  0  0  0
   45.6140   32.9800   38.6940 H   0  0  0  0  0  0  0  0  0  0  0  0
   44.5590   36.1280   44.4380 C   0  0  0  0  0  0  0  0  0  0  0  0
   45.1140   35.8800   43.1770 C   0  0  0  0  0  0  0  0  0  0  0  0
   45.8560   34.7350   42.9250 C   0  0  0  0  0  0  0  0  0  0  0  0
   45.9990   33.8890   43.9740 N   0  0  0  0  0  0  0  0  0  0  0  0
   45.4610   34.1330   45.1850 C   0  0  0  0  0  0  0  0  0  0  0  0
   44.7500   35.2380   45.4210 N   0  0  0  0  0  0  0  0  0  0  0  0
   43.9800   37.0190   44.6400 H   0  0  0  0  0  0  0  0  0  0  0  0
   44.9690   36.5850   42.3820 H   0  0  0  0  0  0  0  0  0  0  0  0
   45.6410   33.3850   45.9520 H   0  0  0  0  0  0  0  0  0  0  0  0
   48.5560   35.4430   42.2160 N   0  0  0  0  0  0  0  0  0  0  0  0
   48.3410   36.2590   42.8310 H   0  0  0  0  0  0  0  0  0  0  0  0
   49.4690   34.9320   42.1780 H   0  0  0  0  0  0  0  0  0  0  0  0
  2  1  1  0  0  0  0
  2  3  1  0  0  0  0
  3 13  1  0  0  0  0
  4  3  2  0  0  0  0
  4 20  1  0  0  0  0
  5  4  1  0  0  0  0
  6  7  1  0  0  0  0
  6  5  2  0  0  0  0
  7  2  2  0  0  0  0
  8  5  1  0  0  0  0
  9  6  1  0  0  0  0
 10  7  1  0  0  0  0
 11 17  1  0  0  0  0
 11 16  1  0  0  0  0
 12 11  2  0  0  0  0
 13 12  1  0  0  0  0
 13 14  2  0  0  0  0
 14 15  1  0  0  0  0
 15 16  2  0  0  0  0
 15 19  1  0  0  0  0
 18 12  1  0  0  0  0
 20 21  1  0  0  0  0
 22 20  1  0  0  0  0
M  END
>  <minimizedAffinity>
-4.62359381

>  <minimizedRMSD>
0.698689878

$$$$
