
 OpenBabel03252507143D

 36 37  0  0  1  0  0  0  0  0999 V2000
   35.0490   29.1630   39.5800 O   0  0  0  0  0  0  0  0  0  0  0  0
   36.0430   29.4520   40.6400 P   0  0  1  0  0  0  0  0  0  0  0  0
   35.5290   30.8710   41.4300 O   0  0  0  0  0  0  0  0  0  0  0  0
   35.4990   31.5770   40.7450 H   0  0  0  0  0  0  0  0  0  0  0  0
   36.0410   28.1970   41.8210 O   0  0  0  0  0  0  0  0  0  0  0  0
   37.5060   26.3570   41.9930 C   0  0  0  0  0  0  0  0  0  0  0  0
   37.2160   27.6630   42.3100 C   0  0  0  0  0  0  0  0  0  0  0  0
   38.1310   28.3850   43.1180 C   0  0  0  0  0  0  0  0  0  0  0  0
   39.2430   27.7320   43.5260 N   0  0  0  0  0  0  0  0  0  0  0  0
   39.4890   26.4790   43.2020 C   0  0  0  0  0  0  0  0  0  0  0  0
   38.6060   25.7970   42.4290 N   0  0  0  0  0  0  0  0  0  0  0  0
   36.8920   25.3460   39.8000 C   0  0  0  0  0  0  0  0  0  0  0  0
   37.2780   26.3690   39.1200 O   0  0  0  0  0  0  0  0  0  0  0  0
   36.9650   25.2640   41.2680 N   0  0  0  0  0  0  0  0  0  0  0  0
   37.8810   29.4070   43.3540 H   0  0  0  0  0  0  0  0  0  0  0  0
   40.4010   25.9870   43.5530 H   0  0  0  0  0  0  0  0  0  0  0  0
   36.4980   24.5180   39.2290 H   0  0  0  0  0  0  0  0  0  0  0  0
   36.5890   24.3710   41.6510 H   0  0  0  0  0  0  0  0  0  0  0  0
   37.5690   29.6980   40.0630 O   0  0  0  0  0  0  0  0  0  0  0  0
   37.9080   30.8930   39.5790 C   0  0  2  0  0  0  0  0  0  0  0  0
   39.0950   30.9980   38.7120 C   0  0  0  0  0  0  0  0  0  0  0  0
   39.5500   32.4450   38.6790 C   0  0  0  0  0  0  0  0  0  0  0  0
   40.1510   32.7980   39.8830 O   0  0  0  0  0  0  0  0  0  0  0  0
   39.5350   32.1520   40.9440 C   0  0  0  0  0  0  0  0  0  0  0  0
   38.0560   31.9590   40.6820 C   0  0  1  0  0  0  0  0  0  0  0  0
   37.0140   31.2910   39.0260 H   0  0  0  0  0  0  0  0  0  0  0  0
   39.9480   30.3910   39.1120 H   0  0  0  0  0  0  0  0  0  0  0  0
   38.8920   30.6910   37.6610 H   0  0  0  0  0  0  0  0  0  0  0  0
   38.7600   33.1150   38.3490 H   0  0  0  0  0  0  0  0  0  0  0  0
   40.3840   32.4700   37.9220 H   0  0  0  0  0  0  0  0  0  0  0  0
   39.6770   32.7880   41.8390 H   0  0  0  0  0  0  0  0  0  0  0  0
   39.9800   31.1530   41.0950 H   0  0  0  0  0  0  0  0  0  0  0  0
   37.6140   31.5250   41.5940 H   0  0  0  0  0  0  0  0  0  0  0  0
   37.4180   33.1950   40.3610 N   0  0  0  0  0  0  0  0  0  0  0  0
   36.9560   33.1980   39.4470 H   0  0  0  0  0  0  0  0  0  0  0  0
   36.7790   33.4520   41.1240 H   0  0  0  0  0  0  0  0  0  0  0  0
  2  1  2  6  0  0  0
  2  3  1  0  0  0  0
  2  5  1  0  0  0  0
  4  3  1  0  0  0  0
  5  7  1  0  0  0  0
  6  7  2  0  0  0  0
  6 11  1  0  0  0  0
  7  8  1  0  0  0  0
  8 15  1  0  0  0  0
  8  9  2  0  0  0  0
 10  9  1  0  0  0  0
 10 16  1  0  0  0  0
 11 10  2  0  0  0  0
 12 14  1  0  0  0  0
 13 12  2  0  0  0  0
 14 18  1  0  0  0  0
 14  6  1  0  0  0  0
 17 12  1  0  0  0  0
 19  2  1  0  0  0  0
 20 26  1  6  0  0  0
 20 19  1  0  0  0  0
 20 25  1  0  0  0  0
 21 27  1  0  0  0  0
 21 20  1  0  0  0  0
 22 21  1  0  0  0  0
 22 23  1  0  0  0  0
 23 24  1  0  0  0  0
 24 32  1  0  0  0  0
 24 31  1  0  0  0  0
 25 24  1  0  0  0  0
 25 33  1  1  0  0  0
 28 21  1  0  0  0  0
 29 22  1  0  0  0  0
 30 22  1  0  0  0  0
 34 25  1  0  0  0  0
 34 36  1  0  0  0  0
 35 34  1  0  0  0  0
M  END
>  <minimizedAffinity>
-5.48875904

$$$$

 OpenBabel03252507143D

 36 37  0  0  1  0  0  0  0  0999 V2000
   39.1420   30.6190   38.3720 O   0  0  0  0  0  0  0  0  0  0  0  0
   38.7500   31.9850   38.7920 P   0  0  1  0  0  0  0  0  0  0  0  0
   37.7660   32.6210   37.5550 O   0  0  0  0  0  0  0  0  0  0  0  0
   38.3130   32.6250   36.7360 H   0  0  0  0  0  0  0  0  0  0  0  0
   37.7800   31.9190   40.2140 O   0  0  0  0  0  0  0  0  0  0  0  0
   36.9320   30.1360   41.5040 C   0  0  0  0  0  0  0  0  0  0  0  0
   37.9850   30.9590   41.1850 C   0  0  0  0  0  0  0  0  0  0  0  0
   39.2170   30.7790   41.8650 C   0  0  0  0  0  0  0  0  0  0  0  0
   39.2730   29.7980   42.7940 N   0  0  0  0  0  0  0  0  0  0  0  0
   38.2420   29.0270   43.0740 C   0  0  0  0  0  0  0  0  0  0  0  0
   37.0670   29.2080   42.4180 N   0  0  0  0  0  0  0  0  0  0  0  0
   35.2680   29.3760   39.8130 C   0  0  0  0  0  0  0  0  0  0  0  0
   36.1600   29.1120   38.9230 O   0  0  0  0  0  0  0  0  0  0  0  0
   35.5760   29.9110   41.1480 N   0  0  0  0  0  0  0  0  0  0  0  0
   40.0290   31.4370   41.5970 H   0  0  0  0  0  0  0  0  0  0  0  0
   38.3280   28.2440   43.8330 H   0  0  0  0  0  0  0  0  0  0  0  0
   34.2430   29.1820   39.5290 H   0  0  0  0  0  0  0  0  0  0  0  0
   34.7300   30.0850   41.7300 H   0  0  0  0  0  0  0  0  0  0  0  0
   40.0320   33.0000   39.0130 O   0  0  0  0  0  0  0  0  0  0  0  0
   41.1760   32.7710   38.3690 C   0  0  2  0  0  0  0  0  0  0  0  0
   42.1290   31.8000   38.9370 C   0  0  0  0  0  0  0  0  0  0  0  0
   43.4980   32.0500   38.3320 C   0  0  0  0  0  0  0  0  0  0  0  0
   44.0610   33.2100   38.8540 O   0  0  0  0  0  0  0  0  0  0  0  0
   43.0820   34.1610   39.0970 C   0  0  0  0  0  0  0  0  0  0  0  0
   41.9620   34.0640   38.0810 C   0  0  1  0  0  0  0  0  0  0  0  0
   40.9100   32.4540   37.3250 H   0  0  0  0  0  0  0  0  0  0  0  0
   42.2280   31.9260   40.0470 H   0  0  0  0  0  0  0  0  0  0  0  0
   41.8570   30.7440   38.7140 H   0  0  0  0  0  0  0  0  0  0  0  0
   43.4820   31.9980   37.2470 H   0  0  0  0  0  0  0  0  0  0  0  0
   44.1450   31.2140   38.7250 H   0  0  0  0  0  0  0  0  0  0  0  0
   43.5670   35.1540   39.0240 H   0  0  0  0  0  0  0  0  0  0  0  0
   42.6390   34.0100   40.0960 H   0  0  0  0  0  0  0  0  0  0  0  0
   41.2680   34.8980   38.2750 H   0  0  0  0  0  0  0  0  0  0  0  0
   42.4630   34.1340   36.7460 N   0  0  0  0  0  0  0  0  0  0  0  0
   42.2300   33.3180   36.1730 H   0  0  0  0  0  0  0  0  0  0  0  0
   42.1530   35.0150   36.3170 H   0  0  0  0  0  0  0  0  0  0  0  0
  2  1  2  6  0  0  0
  2 19  1  0  0  0  0
  2  5  1  0  0  0  0
  3  2  1  0  0  0  0
  4  3  1  0  0  0  0
  5  7  1  0  0  0  0
  6 11  1  0  0  0  0
  7  6  2  0  0  0  0
  7  8  1  0  0  0  0
  8  9  2  0  0  0  0
  9 10  1  0  0  0  0
 10 16  1  0  0  0  0
 11 10  2  0  0  0  0
 12 14  1  0  0  0  0
 13 12  2  0  0  0  0
 14  6  1  0  0  0  0
 14 18  1  0  0  0  0
 15  8  1  0  0  0  0
 17 12  1  0  0  0  0
 20 26  1  6  0  0  0
 20 21  1  0  0  0  0
 20 19  1  0  0  0  0
 21 27  1  0  0  0  0
 22 30  1  0  0  0  0
 22 23  1  0  0  0  0
 22 21  1  0  0  0  0
 23 24  1  0  0  0  0
 24 32  1  0  0  0  0
 25 33  1  1  0  0  0
 25 20  1  0  0  0  0
 25 24  1  0  0  0  0
 28 21  1  0  0  0  0
 29 22  1  0  0  0  0
 31 24  1  0  0  0  0
 34 25  1  0  0  0  0
 35 34  1  0  0  0  0
 36 34  1  0  0  0  0
M  END
>  <minimizedAffinity>
-5.37999296

$$$$

 OpenBabel03252507143D

 36 37  0  0  1  0  0  0  0  0999 V2000
   38.7700   29.1050   41.7900 O   0  0  0  0  0  0  0  0  0  0  0  0
   37.3050   29.0580   42.0080 P   0  0  1  0  0  0  0  0  0  0  0  0
   37.0460   29.2610   43.6790 O   0  0  0  0  0  0  0  0  0  0  0  0
   37.5130   28.5190   44.1270 H   0  0  0  0  0  0  0  0  0  0  0  0
   36.5410   30.3870   41.2220 O   0  0  0  0  0  0  0  0  0  0  0  0
   37.1540   31.9470   39.5620 C   0  0  0  0  0  0  0  0  0  0  0  0
   36.7710   30.6680   39.8900 C   0  0  0  0  0  0  0  0  0  0  0  0
   36.6340   29.7140   38.8490 C   0  0  0  0  0  0  0  0  0  0  0  0
   36.8920   30.1310   37.5890 N   0  0  0  0  0  0  0  0  0  0  0  0
   37.2570   31.3670   37.3120 C   0  0  0  0  0  0  0  0  0  0  0  0
   37.3850   32.2720   38.3160 N   0  0  0  0  0  0  0  0  0  0  0  0
   38.5990   33.3320   41.0460 C   0  0  0  0  0  0  0  0  0  0  0  0
   39.4120   32.3670   41.3030 O   0  0  0  0  0  0  0  0  0  0  0  0
   37.4180   33.1980   40.1780 N   0  0  0  0  0  0  0  0  0  0  0  0
   36.3320   28.7170   39.1310 H   0  0  0  0  0  0  0  0  0  0  0  0
   37.4570   31.6650   36.2790 H   0  0  0  0  0  0  0  0  0  0  0  0
   38.8270   34.2800   41.5110 H   0  0  0  0  0  0  0  0  0  0  0  0
   36.8620   34.0750   40.0990 H   0  0  0  0  0  0  0  0  0  0  0  0
   36.6140   27.6350   41.5410 O   0  0  0  0  0  0  0  0  0  0  0  0
   37.3800   26.6510   41.0710 C   0  0  2  0  0  0  0  0  0  0  0  0
   36.8670   25.8140   39.9720 C   0  0  0  0  0  0  0  0  0  0  0  0
   37.6590   24.5200   39.9330 C   0  0  0  0  0  0  0  0  0  0  0  0
   37.3020   23.6940   40.9940 O   0  0  0  0  0  0  0  0  0  0  0  0
   37.0090   24.4470   42.1210 C   0  0  0  0  0  0  0  0  0  0  0  0
   37.8630   25.6960   42.1800 C   0  0  1  0  0  0  0  0  0  0  0  0
   38.3550   27.1110   40.7560 H   0  0  0  0  0  0  0  0  0  0  0  0
   35.7920   25.5400   40.1340 H   0  0  0  0  0  0  0  0  0  0  0  0
   36.9730   26.2970   38.9740 H   0  0  0  0  0  0  0  0  0  0  0  0
   38.7260   24.6960   39.8290 H   0  0  0  0  0  0  0  0  0  0  0  0
   37.2900   23.9820   39.0130 H   0  0  0  0  0  0  0  0  0  0  0  0
   37.2180   23.8090   43.0010 H   0  0  0  0  0  0  0  0  0  0  0  0
   35.9530   24.7650   42.1050 H   0  0  0  0  0  0  0  0  0  0  0  0
   37.6460   26.1980   43.1380 H   0  0  0  0  0  0  0  0  0  0  0  0
   39.2530   25.3820   42.0880 N   0  0  0  0  0  0  0  0  0  0  0  0
   39.7280   25.8330   41.3010 H   0  0  0  0  0  0  0  0  0  0  0  0
   39.7040   25.5880   42.9890 H   0  0  0  0  0  0  0  0  0  0  0  0
  2  1  2  6  0  0  0
  2  3  1  0  0  0  0
  3  4  1  0  0  0  0
  5  2  1  0  0  0  0
  6  7  1  0  0  0  0
  6 14  1  0  0  0  0
  7  5  1  0  0  0  0
  8 15  1  0  0  0  0
  8  7  2  0  0  0  0
  9  8  1  0  0  0  0
 10  9  2  0  0  0  0
 10 11  1  0  0  0  0
 11  6  2  0  0  0  0
 12 13  2  0  0  0  0
 12 17  1  0  0  0  0
 14 12  1  0  0  0  0
 16 10  1  0  0  0  0
 18 14  1  0  0  0  0
 19  2  1  0  0  0  0
 20 26  1  6  0  0  0
 20 19  1  0  0  0  0
 20 25  1  0  0  0  0
 21 27  1  0  0  0  0
 21 20  1  0  0  0  0
 22 21  1  0  0  0  0
 22 23  1  0  0  0  0
 23 24  1  0  0  0  0
 24 25  1  0  0  0  0
 24 31  1  0  0  0  0
 25 33  1  1  0  0  0
 28 21  1  0  0  0  0
 29 22  1  0  0  0  0
 30 22  1  0  0  0  0
 32 24  1  0  0  0  0
 34 25  1  0  0  0  0
 34 36  1  0  0  0  0
 35 34  1  0  0  0  0
M  END
>  <minimizedAffinity>
-5.32195711

$$$$

 OpenBabel03252507143D

 36 37  0  0  1  0  0  0  0  0999 V2000
   39.0820   33.0850   40.2490 O   0  0  0  0  0  0  0  0  0  0  0  0
   39.4740   31.9830   39.3400 P   0  0  1  0  0  0  0  0  0  0  0  0
   39.1540   32.5120   37.7520 O   0  0  0  0  0  0  0  0  0  0  0  0
   38.1890   32.7050   37.7100 H   0  0  0  0  0  0  0  0  0  0  0  0
   41.1700   31.7010   39.4370 O   0  0  0  0  0  0  0  0  0  0  0  0
   42.2420   31.7770   37.3370 C   0  0  0  0  0  0  0  0  0  0  0  0
   41.8520   31.0440   38.4330 C   0  0  0  0  0  0  0  0  0  0  0  0
   42.1680   29.6610   38.4710 C   0  0  0  0  0  0  0  0  0  0  0  0
   42.8410   29.1510   37.4150 N   0  0  0  0  0  0  0  0  0  0  0  0
   43.1990   29.8850   36.3810 C   0  0  0  0  0  0  0  0  0  0  0  0
   42.8910   31.2070   36.3540 N   0  0  0  0  0  0  0  0  0  0  0  0
   42.9500   34.1590   37.5060 C   0  0  0  0  0  0  0  0  0  0  0  0
   43.6740   33.9630   38.5520 O   0  0  0  0  0  0  0  0  0  0  0  0
   42.1800   33.1020   36.8330 N   0  0  0  0  0  0  0  0  0  0  0  0
   41.8510   29.1070   39.3410 H   0  0  0  0  0  0  0  0  0  0  0  0
   43.7420   29.4340   35.5460 H   0  0  0  0  0  0  0  0  0  0  0  0
   42.9290   35.1720   37.1280 H   0  0  0  0  0  0  0  0  0  0  0  0
   41.6340   33.4450   36.0150 H   0  0  0  0  0  0  0  0  0  0  0  0
   38.6400   30.5840   39.6010 O   0  0  0  0  0  0  0  0  0  0  0  0
   37.9800   30.4120   40.7470 C   0  0  2  0  0  0  0  0  0  0  0  0
   38.4720   29.4070   41.7060 C   0  0  0  0  0  0  0  0  0  0  0  0
   37.3500   29.0550   42.6650 C   0  0  0  0  0  0  0  0  0  0  0  0
   36.3900   28.2720   42.0310 O   0  0  0  0  0  0  0  0  0  0  0  0
   36.2520   28.6480   40.7040 C   0  0  0  0  0  0  0  0  0  0  0  0
   36.4800   30.1360   40.5310 C   0  0  1  0  0  0  0  0  0  0  0  0
   37.9350   31.4120   41.2560 H   0  0  0  0  0  0  0  0  0  0  0  0
   38.7740   28.4600   41.1870 H   0  0  0  0  0  0  0  0  0  0  0  0
   39.3270   29.7740   42.3180 H   0  0  0  0  0  0  0  0  0  0  0  0
   36.9600   29.9310   43.1770 H   0  0  0  0  0  0  0  0  0  0  0  0
   37.8220   28.3720   43.4260 H   0  0  0  0  0  0  0  0  0  0  0  0
   35.2210   28.3900   40.3970 H   0  0  0  0  0  0  0  0  0  0  0  0
   36.9940   28.1230   40.0770 H   0  0  0  0  0  0  0  0  0  0  0  0
   36.2680   30.3810   39.4770 H   0  0  0  0  0  0  0  0  0  0  0  0
   35.6360   30.8960   41.3960 N   0  0  0  0  0  0  0  0  0  0  0  0
   36.1460   31.5120   42.0360 H   0  0  0  0  0  0  0  0  0  0  0  0
   34.9450   31.4040   40.8300 H   0  0  0  0  0  0  0  0  0  0  0  0
  2  5  1  0  0  0  0
  2 19  1  0  0  0  0
  2  1  2  1  0  0  0
  3  2  1  0  0  0  0
  4  3  1  0  0  0  0
  6  7  1  0  0  0  0
  7  8  2  0  0  0  0
  7  5  1  0  0  0  0
  8 15  1  0  0  0  0
  9  8  1  0  0  0  0
 10  9  2  0  0  0  0
 11 10  1  0  0  0  0
 11  6  2  0  0  0  0
 12 13  2  0  0  0  0
 14  6  1  0  0  0  0
 14 12  1  0  0  0  0
 16 10  1  0  0  0  0
 17 12  1  0  0  0  0
 18 14  1  0  0  0  0
 19 20  1  0  0  0  0
 20 26  1  1  0  0  0
 20 21  1  0  0  0  0
 21 28  1  0  0  0  0
 21 22  1  0  0  0  0
 22 29  1  0  0  0  0
 22 30  1  0  0  0  0
 23 22  1  0  0  0  0
 24 23  1  0  0  0  0
 25 33  1  6  0  0  0
 25 24  1  0  0  0  0
 25 20  1  0  0  0  0
 25 34  1  0  0  0  0
 27 21  1  0  0  0  0
 31 24  1  0  0  0  0
 32 24  1  0  0  0  0
 34 35  1  0  0  0  0
 36 34  1  0  0  0  0
M  END
>  <minimizedAffinity>
-5.21664095

$$$$

 OpenBabel03252507143D

 36 37  0  0  1  0  0  0  0  0999 V2000
   39.3640   28.5410   43.1930 O   0  0  0  0  0  0  0  0  0  0  0  0
   38.2110   28.4460   42.2670 P   0  0  1  0  0  0  0  0  0  0  0  0
   36.9440   29.3520   42.9590 O   0  0  0  0  0  0  0  0  0  0  0  0
   36.7540   28.9440   43.8350 H   0  0  0  0  0  0  0  0  0  0  0  0
   38.5890   29.1910   40.7610 O   0  0  0  0  0  0  0  0  0  0  0  0
   37.2650   30.7560   39.5960 C   0  0  0  0  0  0  0  0  0  0  0  0
   38.2650   30.5080   40.5050 C   0  0  0  0  0  0  0  0  0  0  0  0
   38.9070   31.6110   41.1250 C   0  0  0  0  0  0  0  0  0  0  0  0
   38.4850   32.8480   40.7770 N   0  0  0  0  0  0  0  0  0  0  0  0
   37.5220   33.0480   39.9010 C   0  0  0  0  0  0  0  0  0  0  0  0
   36.9150   31.9860   39.3120 N   0  0  0  0  0  0  0  0  0  0  0  0
   35.2810   29.2690   39.3520 C   0  0  0  0  0  0  0  0  0  0  0  0
   35.1040   29.1490   40.6220 O   0  0  0  0  0  0  0  0  0  0  0  0
   36.3640   30.0610   38.7480 N   0  0  0  0  0  0  0  0  0  0  0  0
   39.6890   31.3910   41.8350 H   0  0  0  0  0  0  0  0  0  0  0  0
   37.2100   34.0650   39.6460 H   0  0  0  0  0  0  0  0  0  0  0  0
   34.5740   28.7460   38.7240 H   0  0  0  0  0  0  0  0  0  0  0  0
   36.3680   30.0290   37.7070 H   0  0  0  0  0  0  0  0  0  0  0  0
   37.6800   26.9020   42.0310 O   0  0  0  0  0  0  0  0  0  0  0  0
   38.5540   25.9410   41.7320 C   0  0  2  0  0  0  0  0  0  0  0  0
   38.8780   25.6910   40.3160 C   0  0  0  0  0  0  0  0  0  0  0  0
   39.4850   24.3050   40.1910 C   0  0  0  0  0  0  0  0  0  0  0  0
   38.5090   23.3260   40.3490 O   0  0  0  0  0  0  0  0  0  0  0  0
   37.5590   23.7290   41.2740 C   0  0  0  0  0  0  0  0  0  0  0  0
   38.1800   24.5840   42.3580 C   0  0  1  0  0  0  0  0  0  0  0  0
   39.5030   26.1710   42.2890 H   0  0  0  0  0  0  0  0  0  0  0  0
   37.9570   25.7080   39.6770 H   0  0  0  0  0  0  0  0  0  0  0  0
   39.6180   26.4140   39.9060 H   0  0  0  0  0  0  0  0  0  0  0  0
   40.3610   24.1840   40.8230 H   0  0  0  0  0  0  0  0  0  0  0  0
   39.8030   24.2250   39.1130 H   0  0  0  0  0  0  0  0  0  0  0  0
   37.1300   22.8110   41.7210 H   0  0  0  0  0  0  0  0  0  0  0  0
   36.7760   24.3310   40.7820 H   0  0  0  0  0  0  0  0  0  0  0  0
   37.3940   24.7930   43.1040 H   0  0  0  0  0  0  0  0  0  0  0  0
   39.2850   23.9230   42.9750 N   0  0  0  0  0  0  0  0  0  0  0  0
   40.1660   24.4420   42.9110 H   0  0  0  0  0  0  0  0  0  0  0  0
   39.0380   23.6880   43.9440 H   0  0  0  0  0  0  0  0  0  0  0  0
  2  3  1  0  0  0  0
  2  1  2  1  0  0  0
  3  4  1  0  0  0  0
  5  2  1  0  0  0  0
  6  7  1  0  0  0  0
  7  5  1  0  0  0  0
  7  8  2  0  0  0  0
  8 15  1  0  0  0  0
  9  8  1  0  0  0  0
 10  9  2  0  0  0  0
 11  6  2  0  0  0  0
 11 10  1  0  0  0  0
 12 13  2  0  0  0  0
 14 12  1  0  0  0  0
 14  6  1  0  0  0  0
 16 10  1  0  0  0  0
 17 12  1  0  0  0  0
 18 14  1  0  0  0  0
 19  2  1  0  0  0  0
 20 19  1  0  0  0  0
 20 26  1  1  0  0  0
 20 25  1  0  0  0  0
 21 20  1  0  0  0  0
 22 21  1  0  0  0  0
 22 23  1  0  0  0  0
 22 29  1  0  0  0  0
 23 24  1  0  0  0  0
 24 31  1  0  0  0  0
 24 25  1  0  0  0  0
 25 34  1  0  0  0  0
 25 33  1  1  0  0  0
 27 21  1  0  0  0  0
 28 21  1  0  0  0  0
 30 22  1  0  0  0  0
 32 24  1  0  0  0  0
 34 36  1  0  0  0  0
 35 34  1  0  0  0  0
M  END
>  <minimizedAffinity>
-5.13295841

$$$$

 OpenBabel03252507143D

 36 37  0  0  1  0  0  0  0  0999 V2000
   36.7560   31.3110   38.4670 O   0  0  0  0  0  0  0  0  0  0  0  0
   37.3030   31.3130   39.8440 P   0  0  1  0  0  0  0  0  0  0  0  0
   36.9550   32.8410   40.5140 O   0  0  0  0  0  0  0  0  0  0  0  0
   37.3940   33.5070   39.9370 H   0  0  0  0  0  0  0  0  0  0  0  0
   36.4880   30.1470   40.8140 O   0  0  0  0  0  0  0  0  0  0  0  0
   37.0670   27.8870   41.1570 C   0  0  0  0  0  0  0  0  0  0  0  0
   37.1810   29.2010   41.5430 C   0  0  0  0  0  0  0  0  0  0  0  0
   37.9970   29.5120   42.6600 C   0  0  0  0  0  0  0  0  0  0  0  0
   38.6170   28.4820   43.2790 N   0  0  0  0  0  0  0  0  0  0  0  0
   38.4850   27.2330   42.8810 C   0  0  0  0  0  0  0  0  0  0  0  0
   37.7010   26.9460   41.8110 N   0  0  0  0  0  0  0  0  0  0  0  0
   36.8400   27.2080   38.7710 C   0  0  0  0  0  0  0  0  0  0  0  0
   37.7560   28.0160   38.3620 O   0  0  0  0  0  0  0  0  0  0  0  0
   36.4220   27.0890   40.1760 N   0  0  0  0  0  0  0  0  0  0  0  0
   38.0700   30.5510   42.9440 H   0  0  0  0  0  0  0  0  0  0  0  0
   39.0030   26.4280   43.4090 H   0  0  0  0  0  0  0  0  0  0  0  0
   36.3730   26.5980   38.0110 H   0  0  0  0  0  0  0  0  0  0  0  0
   35.6530   26.4020   40.3220 H   0  0  0  0  0  0  0  0  0  0  0  0
   38.9350   31.0770   39.9050 O   0  0  0  0  0  0  0  0  0  0  0  0
   39.6230   30.9160   38.7750 C   0  0  2  0  0  0  0  0  0  0  0  0
   40.7580   29.9770   38.7620 C   0  0  0  0  0  0  0  0  0  0  0  0
   41.6490   30.3040   37.5770 C   0  0  0  0  0  0  0  0  0  0  0  0
   42.3620   31.4760   37.8080 O   0  0  0  0  0  0  0  0  0  0  0  0
   41.6010   32.3740   38.5390 C   0  0  0  0  0  0  0  0  0  0  0  0
   40.1310   32.2500   38.1960 C   0  0  1  0  0  0  0  0  0  0  0  0
   38.8880   30.6130   37.9810 H   0  0  0  0  0  0  0  0  0  0  0  0
   41.3850   30.0800   39.6860 H   0  0  0  0  0  0  0  0  0  0  0  0
   40.4420   28.9150   38.6550 H   0  0  0  0  0  0  0  0  0  0  0  0
   41.1050   30.2770   36.6370 H   0  0  0  0  0  0  0  0  0  0  0  0
   42.4280   29.4890   37.5670 H   0  0  0  0  0  0  0  0  0  0  0  0
   41.9600   33.3890   38.2820 H   0  0  0  0  0  0  0  0  0  0  0  0
   41.7090   32.1780   39.6190 H   0  0  0  0  0  0  0  0  0  0  0  0
   39.5970   33.0470   38.7400 H   0  0  0  0  0  0  0  0  0  0  0  0
   39.9110   32.3760   36.7910 N   0  0  0  0  0  0  0  0  0  0  0  0
   39.4500   31.5640   36.3700 H   0  0  0  0  0  0  0  0  0  0  0  0
   39.4060   33.2520   36.6070 H   0  0  0  0  0  0  0  0  0  0  0  0
  2  1  2  6  0  0  0
  2 19  1  0  0  0  0
  2  3  1  0  0  0  0
  2  5  1  0  0  0  0
  4  3  1  0  0  0  0
  5  7  1  0  0  0  0
  6  7  2  0  0  0  0
  6 11  1  0  0  0  0
  7  8  1  0  0  0  0
  8 15  1  0  0  0  0
  8  9  2  0  0  0  0
 10  9  1  0  0  0  0
 10 16  1  0  0  0  0
 11 10  2  0  0  0  0
 12 14  1  0  0  0  0
 13 12  2  0  0  0  0
 14 18  1  0  0  0  0
 14  6  1  0  0  0  0
 17 12  1  0  0  0  0
 20 26  1  6  0  0  0
 20 19  1  0  0  0  0
 21 20  1  0  0  0  0
 21 27  1  0  0  0  0
 22 23  1  0  0  0  0
 22 21  1  0  0  0  0
 23 24  1  0  0  0  0
 24 32  1  0  0  0  0
 25 24  1  0  0  0  0
 25 33  1  1  0  0  0
 25 20  1  0  0  0  0
 28 21  1  0  0  0  0
 29 22  1  0  0  0  0
 30 22  1  0  0  0  0
 31 24  1  0  0  0  0
 34 25  1  0  0  0  0
 35 34  1  0  0  0  0
 36 34  1  0  0  0  0
M  END
>  <minimizedAffinity>
-5.10754013

$$$$

 OpenBabel03252507143D

 36 37  0  0  1  0  0  0  0  0999 V2000
   36.7470   30.3230   39.2480 O   0  0  0  0  0  0  0  0  0  0  0  0
   37.0290   30.9960   40.5370 P   0  0  1  0  0  0  0  0  0  0  0  0
   35.5540   31.0810   41.3860 O   0  0  0  0  0  0  0  0  0  0  0  0
   34.9360   31.6000   40.8220 H   0  0  0  0  0  0  0  0  0  0  0  0
   38.0970   30.0390   41.4910 O   0  0  0  0  0  0  0  0  0  0  0  0
   38.0560   27.7680   40.8560 C   0  0  0  0  0  0  0  0  0  0  0  0
   37.8040   28.7270   41.8070 C   0  0  0  0  0  0  0  0  0  0  0  0
   37.2600   28.3210   43.0530 C   0  0  0  0  0  0  0  0  0  0  0  0
   37.0230   27.0010   43.2230 N   0  0  0  0  0  0  0  0  0  0  0  0
   37.2770   26.1080   42.2870 C   0  0  0  0  0  0  0  0  0  0  0  0
   37.7970   26.5080   41.0990 N   0  0  0  0  0  0  0  0  0  0  0  0
   39.9860   27.9150   39.2870 C   0  0  0  0  0  0  0  0  0  0  0  0
   40.8170   28.2750   40.2020 O   0  0  0  0  0  0  0  0  0  0  0  0
   38.5600   27.6470   39.5340 N   0  0  0  0  0  0  0  0  0  0  0  0
   37.0710   29.0920   43.7830 H   0  0  0  0  0  0  0  0  0  0  0  0
   37.0710   25.0490   42.4640 H   0  0  0  0  0  0  0  0  0  0  0  0
   40.3930   27.8130   38.2910 H   0  0  0  0  0  0  0  0  0  0  0  0
   38.0330   27.3880   38.6750 H   0  0  0  0  0  0  0  0  0  0  0  0
   37.6220   32.5260   40.3670 O   0  0  0  0  0  0  0  0  0  0  0  0
   38.9090   32.7690   40.6150 C   0  0  2  0  0  0  0  0  0  0  0  0
   39.3940   34.1590   40.5620 C   0  0  0  0  0  0  0  0  0  0  0  0
   40.9030   34.1450   40.4020 C   0  0  0  0  0  0  0  0  0  0  0  0
   41.2560   33.7620   39.1120 O   0  0  0  0  0  0  0  0  0  0  0  0
   40.3670   32.8180   38.6230 C   0  0  0  0  0  0  0  0  0  0  0  0
   39.8510   31.9260   39.7330 C   0  0  1  0  0  0  0  0  0  0  0  0
   39.1370   32.3400   41.6280 H   0  0  0  0  0  0  0  0  0  0  0  0
   38.9710   34.7060   39.6790 H   0  0  0  0  0  0  0  0  0  0  0  0
   39.1650   34.7340   41.4880 H   0  0  0  0  0  0  0  0  0  0  0  0
   41.3930   33.5870   41.1950 H   0  0  0  0  0  0  0  0  0  0  0  0
   41.2120   35.2270   40.4760 H   0  0  0  0  0  0  0  0  0  0  0  0
   40.9150   32.2090   37.8790 H   0  0  0  0  0  0  0  0  0  0  0  0
   39.4950   33.3140   38.1620 H   0  0  0  0  0  0  0  0  0  0  0  0
   39.2250   31.1480   39.2670 H   0  0  0  0  0  0  0  0  0  0  0  0
   40.9230   31.3290   40.4630 N   0  0  0  0  0  0  0  0  0  0  0  0
   40.9140   31.5470   41.4640 H   0  0  0  0  0  0  0  0  0  0  0  0
   40.9310   30.3180   40.2810 H   0  0  0  0  0  0  0  0  0  0  0  0
  2  1  2  6  0  0  0
  2  3  1  0  0  0  0
  2  5  1  0  0  0  0
  4  3  1  0  0  0  0
  5  7  1  0  0  0  0
  6 11  2  0  0  0  0
  6  7  1  0  0  0  0
  7  8  2  0  0  0  0
  8  9  1  0  0  0  0
  8 15  1  0  0  0  0
 10 16  1  0  0  0  0
 10  9  2  0  0  0  0
 11 10  1  0  0  0  0
 12 14  1  0  0  0  0
 12 13  2  0  0  0  0
 14  6  1  0  0  0  0
 17 12  1  0  0  0  0
 18 14  1  0  0  0  0
 19  2  1  0  0  0  0
 19 20  1  0  0  0  0
 20 26  1  1  0  0  0
 21 20  1  0  0  0  0
 21 28  1  0  0  0  0
 22 30  1  0  0  0  0
 22 21  1  0  0  0  0
 22 29  1  0  0  0  0
 23 22  1  0  0  0  0
 24 23  1  0  0  0  0
 24 25  1  0  0  0  0
 25 33  1  6  0  0  0
 25 34  1  0  0  0  0
 25 20  1  0  0  0  0
 27 21  1  0  0  0  0
 31 24  1  0  0  0  0
 32 24  1  0  0  0  0
 34 35  1  0  0  0  0
 36 34  1  0  0  0  0
M  END
>  <minimizedAffinity>
-4.96278143

$$$$

 OpenBabel03252507143D

 36 37  0  0  1  0  0  0  0  0999 V2000
   38.4580   29.3650   43.3320 O   0  0  0  0  0  0  0  0  0  0  0  0
   37.9120   28.6990   42.1250 P   0  0  1  0  0  0  0  0  0  0  0  0
   36.2270   28.9460   42.1420 O   0  0  0  0  0  0  0  0  0  0  0  0
   35.8920   28.5410   42.9740 H   0  0  0  0  0  0  0  0  0  0  0  0
   38.5120   29.4590   40.7000 O   0  0  0  0  0  0  0  0  0  0  0  0
   38.8830   31.7570   41.0830 C   0  0  0  0  0  0  0  0  0  0  0  0
   38.2090   30.7720   40.4000 C   0  0  0  0  0  0  0  0  0  0  0  0
   37.2470   31.1560   39.4320 C   0  0  0  0  0  0  0  0  0  0  0  0
   37.0540   32.4810   39.2420 N   0  0  0  0  0  0  0  0  0  0  0  0
   37.7180   33.3970   39.9160 C   0  0  0  0  0  0  0  0  0  0  0  0
   38.6370   33.0200   40.8410 N   0  0  0  0  0  0  0  0  0  0  0  0
   41.2610   31.5100   41.7850 C   0  0  0  0  0  0  0  0  0  0  0  0
   41.6350   31.0130   40.6580 O   0  0  0  0  0  0  0  0  0  0  0  0
   39.8760   31.9050   42.0870 N   0  0  0  0  0  0  0  0  0  0  0  0
   36.7310   30.3650   38.9090 H   0  0  0  0  0  0  0  0  0  0  0  0
   37.5330   34.4600   39.7330 H   0  0  0  0  0  0  0  0  0  0  0  0
   42.0340   31.6310   42.5300 H   0  0  0  0  0  0  0  0  0  0  0  0
   39.7510   32.2680   43.0550 H   0  0  0  0  0  0  0  0  0  0  0  0
   38.2020   27.0760   42.0800 O   0  0  0  0  0  0  0  0  0  0  0  0
   37.3190   26.2630   41.4980 C   0  0  2  0  0  0  0  0  0  0  0  0
   37.1630   24.8940   42.0210 C   0  0  0  0  0  0  0  0  0  0  0  0
   36.4990   24.0380   40.9580 C   0  0  0  0  0  0  0  0  0  0  0  0
   37.3910   23.7570   39.9270 O   0  0  0  0  0  0  0  0  0  0  0  0
   38.2390   24.8320   39.7080 C   0  0  0  0  0  0  0  0  0  0  0  0
   37.5350   26.1460   39.9770 C   0  0  1  0  0  0  0  0  0  0  0  0
   36.3230   26.7820   41.5260 H   0  0  0  0  0  0  0  0  0  0  0  0
   38.1570   24.4270   42.2490 H   0  0  0  0  0  0  0  0  0  0  0  0
   36.5220   24.8480   42.9300 H   0  0  0  0  0  0  0  0  0  0  0  0
   35.5460   24.4500   40.6380 H   0  0  0  0  0  0  0  0  0  0  0  0
   36.3160   23.0450   41.4580 H   0  0  0  0  0  0  0  0  0  0  0  0
   38.5550   24.7870   38.6480 H   0  0  0  0  0  0  0  0  0  0  0  0
   39.1100   24.7760   40.3830 H   0  0  0  0  0  0  0  0  0  0  0  0
   38.2310   26.9550   39.7000 H   0  0  0  0  0  0  0  0  0  0  0  0
   36.3260   26.2530   39.2260 N   0  0  0  0  0  0  0  0  0  0  0  0
   35.4910   26.3900   39.8030 H   0  0  0  0  0  0  0  0  0  0  0  0
   36.4350   26.9870   38.5150 H   0  0  0  0  0  0  0  0  0  0  0  0
  2  3  1  0  0  0  0
  2  1  2  1  0  0  0
  3  4  1  0  0  0  0
  5  2  1  0  0  0  0
  6 14  1  0  0  0  0
  7  5  1  0  0  0  0
  7  6  2  0  0  0  0
  8  7  1  0  0  0  0
  9  8  2  0  0  0  0
  9 10  1  0  0  0  0
 10 11  2  0  0  0  0
 11  6  1  0  0  0  0
 12 14  1  0  0  0  0
 12 17  1  0  0  0  0
 13 12  2  0  0  0  0
 14 18  1  0  0  0  0
 15  8  1  0  0  0  0
 16 10  1  0  0  0  0
 19  2  1  0  0  0  0
 20 26  1  1  0  0  0
 20 21  1  0  0  0  0
 20 19  1  0  0  0  0
 21 27  1  0  0  0  0
 21 28  1  0  0  0  0
 22 30  1  0  0  0  0
 22 21  1  0  0  0  0
 23 22  1  0  0  0  0
 24 23  1  0  0  0  0
 24 25  1  0  0  0  0
 24 32  1  0  0  0  0
 25 33  1  6  0  0  0
 25 20  1  0  0  0  0
 29 22  1  0  0  0  0
 31 24  1  0  0  0  0
 34 35  1  0  0  0  0
 34 25  1  0  0  0  0
 36 34  1  0  0  0  0
M  END
>  <minimizedAffinity>
-4.92208099

$$$$

 OpenBabel03252507143D

 36 37  0  0  1  0  0  0  0  0999 V2000
   35.3510   29.5250   38.6090 O   0  0  0  0  0  0  0  0  0  0  0  0
   36.3910   29.7700   39.6350 P   0  0  1  0  0  0  0  0  0  0  0  0
   35.5910   30.3560   41.0210 O   0  0  0  0  0  0  0  0  0  0  0  0
   35.1320   31.1840   40.7510 H   0  0  0  0  0  0  0  0  0  0  0  0
   37.1470   28.2900   40.0860 O   0  0  0  0  0  0  0  0  0  0  0  0
   38.6180   28.6660   41.8910 C   0  0  0  0  0  0  0  0  0  0  0  0
   38.4320   28.2590   40.5920 C   0  0  0  0  0  0  0  0  0  0  0  0
   39.5610   27.8340   39.8450 C   0  0  0  0  0  0  0  0  0  0  0  0
   40.7590   27.8580   40.4700 N   0  0  0  0  0  0  0  0  0  0  0  0
   40.9010   28.2540   41.7190 C   0  0  0  0  0  0  0  0  0  0  0  0
   39.8140   28.6590   42.4240 N   0  0  0  0  0  0  0  0  0  0  0  0
   36.9300   28.2530   43.6770 C   0  0  0  0  0  0  0  0  0  0  0  0
   36.7120   27.0380   43.3130 O   0  0  0  0  0  0  0  0  0  0  0  0
   37.8770   29.1530   43.0000 N   0  0  0  0  0  0  0  0  0  0  0  0
   39.3890   27.5210   38.8270 H   0  0  0  0  0  0  0  0  0  0  0  0
   41.8890   28.2580   42.1880 H   0  0  0  0  0  0  0  0  0  0  0  0
   36.3680   28.6000   44.5320 H   0  0  0  0  0  0  0  0  0  0  0  0
   37.9100   30.1080   43.4150 H   0  0  0  0  0  0  0  0  0  0  0  0
   37.5220   30.8800   39.1770 O   0  0  0  0  0  0  0  0  0  0  0  0
   37.8750   31.8510   40.0200 C   0  0  2  0  0  0  0  0  0  0  0  0
   37.6040   33.2500   39.6450 C   0  0  0  0  0  0  0  0  0  0  0  0
   38.4850   34.1590   40.4830 C   0  0  0  0  0  0  0  0  0  0  0  0
   39.8070   34.0910   40.0560 O   0  0  0  0  0  0  0  0  0  0  0  0
   40.1170   32.8090   39.6300 C   0  0  0  0  0  0  0  0  0  0  0  0
   39.3590   31.7700   40.4280 C   0  0  1  0  0  0  0  0  0  0  0  0
   37.3780   31.6330   41.0030 H   0  0  0  0  0  0  0  0  0  0  0  0
   37.8580   33.4420   38.5700 H   0  0  0  0  0  0  0  0  0  0  0  0
   36.5490   33.5520   39.8290 H   0  0  0  0  0  0  0  0  0  0  0  0
   38.3400   34.0010   41.5480 H   0  0  0  0  0  0  0  0  0  0  0  0
   38.1520   35.2040   40.2240 H   0  0  0  0  0  0  0  0  0  0  0  0
   41.2060   32.6720   39.7750 H   0  0  0  0  0  0  0  0  0  0  0  0
   39.8410   32.6810   38.5690 H   0  0  0  0  0  0  0  0  0  0  0  0
   39.7160   30.7780   40.1020 H   0  0  0  0  0  0  0  0  0  0  0  0
   39.5670   31.9360   41.8310 N   0  0  0  0  0  0  0  0  0  0  0  0
   38.7050   32.0860   42.3630 H   0  0  0  0  0  0  0  0  0  0  0  0
   40.1130   31.1400   42.1860 H   0  0  0  0  0  0  0  0  0  0  0  0
  2  1  2  6  0  0  0
  2  5  1  0  0  0  0
  2  3  1  0  0  0  0
  4  3  1  0  0  0  0
  5  7  1  0  0  0  0
  6 11  1  0  0  0  0
  6 14  1  0  0  0  0
  7  6  2  0  0  0  0
  8  9  2  0  0  0  0
  8  7  1  0  0  0  0
  9 10  1  0  0  0  0
 10 16  1  0  0  0  0
 10 11  2  0  0  0  0
 12 17  1  0  0  0  0
 13 12  2  0  0  0  0
 14 18  1  0  0  0  0
 14 12  1  0  0  0  0
 15  8  1  0  0  0  0
 19  2  1  0  0  0  0
 19 20  1  0  0  0  0
 20 25  1  0  0  0  0
 20 26  1  1  0  0  0
 21 28  1  0  0  0  0
 21 20  1  0  0  0  0
 21 22  1  0  0  0  0
 22 29  1  0  0  0  0
 23 22  1  0  0  0  0
 24 31  1  0  0  0  0
 24 23  1  0  0  0  0
 24 25  1  0  0  0  0
 25 33  1  6  0  0  0
 25 34  1  0  0  0  0
 27 21  1  0  0  0  0
 30 22  1  0  0  0  0
 32 24  1  0  0  0  0
 34 36  1  0  0  0  0
 34 35  1  0  0  0  0
M  END
>  <minimizedAffinity>
-4.86427355

$$$$
