
 OpenBabel03252500563D

 32 33  0  0  0  0  0  0  0  0999 V2000
   44.4430   35.2970   42.5370 O   0  0  0  0  0  0  0  0  0  0  0  0
   46.5520   34.3140   42.8740 C   0  0  0  0  0  0  0  0  0  0  0  0
   45.3140   34.6330   43.3960 C   0  0  0  0  0  0  0  0  0  0  0  0
   45.0220   34.2780   44.7250 C   0  0  0  0  0  0  0  0  0  0  0  0
   45.9880   33.6370   45.4070 N   0  0  0  0  0  0  0  0  0  0  0  0
   47.1820   33.3330   44.8930 C   0  0  0  0  0  0  0  0  0  0  0  0
   47.4680   33.6690   43.6250 N   0  0  0  0  0  0  0  0  0  0  0  0
   44.0450   34.5490   45.0840 H   0  0  0  0  0  0  0  0  0  0  0  0
   47.8670   32.8170   45.5510 H   0  0  0  0  0  0  0  0  0  0  0  0
   46.9150   34.6550   41.5030 C   0  0  0  0  0  0  0  0  0  0  0  0
   46.8410   33.7810   40.7920 H   0  0  0  0  0  0  0  0  0  0  0  0
   46.2010   35.4040   41.0910 H   0  0  0  0  0  0  0  0  0  0  0  0
   48.2960   35.2530   41.4890 C   0  0  0  0  0  0  0  0  0  0  0  0
   48.2500   36.3700   41.4250 H   0  0  0  0  0  0  0  0  0  0  0  0
   48.8390   34.8900   40.5860 H   0  0  0  0  0  0  0  0  0  0  0  0
   48.8760   34.9720   42.3700 H   0  0  0  0  0  0  0  0  0  0  0  0
   43.6470   34.6200   40.1190 O   0  0  0  0  0  0  0  0  0  0  0  0
   43.2260   34.5970   41.5940 P   0  0  1  0  0  0  0  0  0  0  0  0
   43.0780   32.9760   42.0490 O   0  0  0  0  0  0  0  0  0  0  0  0
   42.4930   32.8990   42.8480 H   0  0  0  0  0  0  0  0  0  0  0  0
   41.7250   35.3310   41.7840 O   0  0  0  0  0  0  0  0  0  0  0  0
   40.6250   34.7790   41.1500 C   0  0  0  0  0  0  0  0  0  0  0  0
   40.1930   35.4080   39.9800 C   0  0  0  0  0  0  0  0  0  0  0  0
   39.0990   34.9280   39.2720 C   0  0  0  0  0  0  0  0  0  0  0  0
   38.4510   33.8250   39.7440 N   0  0  0  0  0  0  0  0  0  0  0  0
   38.8830   33.2350   40.8720 C   0  0  0  0  0  0  0  0  0  0  0  0
   39.9350   33.7010   41.5470 N   0  0  0  0  0  0  0  0  0  0  0  0
   40.6560   36.2850   39.5450 H   0  0  0  0  0  0  0  0  0  0  0  0
   38.7300   35.3830   38.3630 H   0  0  0  0  0  0  0  0  0  0  0  0
   38.1570   32.0910   41.3020 N   0  0  0  0  0  0  0  0  0  0  0  0
   37.8330   31.6510   40.4020 H   0  0  0  0  0  0  0  0  0  0  0  0
   38.2680   32.1940   42.3420 H   0  0  0  0  0  0  0  0  0  0  0  0
  1  3  1  0  0  0  0
  2  3  2  0  0  0  0
  2  7  1  0  0  0  0
  3  4  1  0  0  0  0
  4  8  1  0  0  0  0
  4  5  2  0  0  0  0
  6  5  1  0  0  0  0
  6  9  1  0  0  0  0
  7  6  2  0  0  0  0
 10  2  1  0  0  0  0
 11 10  1  0  0  0  0
 12 10  1  0  0  0  0
 13 10  1  0  0  0  0
 13 16  1  0  0  0  0
 14 13  1  0  0  0  0
 15 13  1  0  0  0  0
 18 17  2  6  0  0  0
 18 21  1  0  0  0  0
 18 19  1  0  0  0  0
 18  1  1  0  0  0  0
 19 20  1  0  0  0  0
 22 27  1  0  0  0  0
 22 21  1  0  0  0  0
 23 22  2  0  0  0  0
 24 25  2  0  0  0  0
 24 23  1  0  0  0  0
 25 26  1  0  0  0  0
 26 30  1  0  0  0  0
 26 27  2  0  0  0  0
 28 23  1  0  0  0  0
 29 24  1  0  0  0  0
 30 32  1  0  0  0  0
 31 30  1  0  0  0  0
M  END
>  <minimizedAffinity>
-5.40578556

>  <minimizedRMSD>
0.267622262

$$$$
