
 OpenBabel03252504033D

 30 32  0  0  0  0  0  0  0  0999 V2000
   39.6170   28.7700   40.5760 C   0  0  0  0  0  0  0  0  0  0  0  0
   39.5570   29.9770   41.2300 C   0  0  0  0  0  0  0  0  0  0  0  0
   38.6940   30.1180   42.3080 C   0  0  0  0  0  0  0  0  0  0  0  0
   37.9230   29.0300   42.6870 C   0  0  0  0  0  0  0  0  0  0  0  0
   37.0140   28.8800   43.6790 N   0  0  0  0  0  0  0  0  0  0  0  0
   36.5220   27.6130   43.6430 C   0  0  0  0  0  0  0  0  0  0  0  0
   37.1210   26.9430   42.6180 C   0  0  0  0  0  0  0  0  0  0  0  0
   37.9940   27.8180   42.0180 C   0  0  0  0  0  0  0  0  0  0  0  0
   38.8490   27.6950   40.9570 C   0  0  0  0  0  0  0  0  0  0  0  0
   40.2780   28.6070   39.7240 H   0  0  0  0  0  0  0  0  0  0  0  0
   38.6340   31.0620   42.8350 H   0  0  0  0  0  0  0  0  0  0  0  0
   36.7570   29.6360   44.3440 H   0  0  0  0  0  0  0  0  0  0  0  0
   35.7740   27.2860   44.3600 H   0  0  0  0  0  0  0  0  0  0  0  0
   36.9000   25.9130   42.3790 H   0  0  0  0  0  0  0  0  0  0  0  0
   38.9120   26.7480   40.4260 H   0  0  0  0  0  0  0  0  0  0  0  0
   41.2060   32.3390   39.0000 C   0  0  0  0  0  0  0  0  0  0  0  0
   41.9700   33.1240   39.8260 C   0  0  0  0  0  0  0  0  0  0  0  0
   41.9160   32.8320   41.1850 C   0  0  0  0  0  0  0  0  0  0  0  0
   41.1380   31.8220   41.6150 N   0  0  0  0  0  0  0  0  0  0  0  0
   40.4020   31.0730   40.7700 C   0  0  0  0  0  0  0  0  0  0  0  0
   40.4460   31.3450   39.4580 N   0  0  0  0  0  0  0  0  0  0  0  0
   42.6090   33.9450   39.5210 H   0  0  0  0  0  0  0  0  0  0  0  0
   41.2850   32.6670   37.5920 C   0  0  0  0  0  0  0  0  0  0  0  0
   42.3020   33.1430   36.9940 O   0  0  0  0  0  0  0  0  0  0  0  0
   40.0240   32.3590   37.0250 N   0  0  0  0  0  0  0  0  0  0  0  0
   39.2240   33.0080   37.0460 H   0  0  0  0  0  0  0  0  0  0  0  0
   40.0500   31.4070   36.6060 H   0  0  0  0  0  0  0  0  0  0  0  0
   42.6530   33.5600   42.1600 N   0  0  0  0  0  0  0  0  0  0  0  0
   43.4550   33.0800   42.6550 H   0  0  0  0  0  0  0  0  0  0  0  0
   42.5940   34.5280   42.5380 H   0  0  0  0  0  0  0  0  0  0  0  0
  1  9  2  0  0  0  0
  1  2  1  0  0  0  0
  2  3  2  0  0  0  0
  3  4  1  0  0  0  0
  3 11  1  0  0  0  0
  4  5  1  0  0  0  0
  5 12  1  0  0  0  0
  6  5  1  0  0  0  0
  6 13  1  0  0  0  0
  7  6  2  0  0  0  0
  8  7  1  0  0  0  0
  8  4  2  0  0  0  0
  9  8  1  0  0  0  0
 10  1  1  0  0  0  0
 14  7  1  0  0  0  0
 15  9  1  0  0  0  0
 16 21  2  0  0  0  0
 16 17  1  0  0  0  0
 17 18  2  0  0  0  0
 18 19  1  0  0  0  0
 18 28  1  0  0  0  0
 20  2  1  0  0  0  0
 20 19  2  0  0  0  0
 21 20  1  0  0  0  0
 22 17  1  0  0  0  0
 23 16  1  0  0  0  0
 24 23  2  0  0  0  0
 25 26  1  0  0  0  0
 25 23  1  0  0  0  0
 27 25  1  0  0  0  0
 28 30  1  0  0  0  0
 28 29  1  0  0  0  0
M  END
>  <minimizedAffinity>
-5.8353467

$$$$

 OpenBabel03252504033D

 30 32  0  0  0  0  0  0  0  0999 V2000
   37.6710   29.3560   42.3130 C   0  0  0  0  0  0  0  0  0  0  0  0
   38.2210   29.3880   41.0550 C   0  0  0  0  0  0  0  0  0  0  0  0
   38.3140   28.2090   40.3280 C   0  0  0  0  0  0  0  0  0  0  0  0
   37.8440   27.0390   40.9020 C   0  0  0  0  0  0  0  0  0  0  0  0
   37.8050   25.7680   40.4360 N   0  0  0  0  0  0  0  0  0  0  0  0
   37.2440   24.9660   41.3800 C   0  0  0  0  0  0  0  0  0  0  0  0
   36.9200   25.7280   42.4620 C   0  0  0  0  0  0  0  0  0  0  0  0
   37.2900   27.0200   42.1720 C   0  0  0  0  0  0  0  0  0  0  0  0
   37.2060   28.1900   42.8770 C   0  0  0  0  0  0  0  0  0  0  0  0
   37.5750   30.2530   42.9260 H   0  0  0  0  0  0  0  0  0  0  0  0
   38.7450   28.2170   39.3350 H   0  0  0  0  0  0  0  0  0  0  0  0
   38.1570   25.4860   39.5000 H   0  0  0  0  0  0  0  0  0  0  0  0
   37.1200   23.9010   41.2040 H   0  0  0  0  0  0  0  0  0  0  0  0
   36.4590   25.3240   43.3510 H   0  0  0  0  0  0  0  0  0  0  0  0
   36.7740   28.1860   43.8750 H   0  0  0  0  0  0  0  0  0  0  0  0
   39.7320   31.8190   38.8010 C   0  0  0  0  0  0  0  0  0  0  0  0
   39.6070   33.0220   39.4500 C   0  0  0  0  0  0  0  0  0  0  0  0
   38.9890   32.9940   40.6950 C   0  0  0  0  0  0  0  0  0  0  0  0
   38.5520   31.8220   41.1920 N   0  0  0  0  0  0  0  0  0  0  0  0
   38.6930   30.6610   40.5220 C   0  0  0  0  0  0  0  0  0  0  0  0
   39.2880   30.6760   39.3210 N   0  0  0  0  0  0  0  0  0  0  0  0
   39.9450   33.9860   39.0860 H   0  0  0  0  0  0  0  0  0  0  0  0
   40.3800   31.8820   37.5080 C   0  0  0  0  0  0  0  0  0  0  0  0
   41.5990   31.6020   37.2720 O   0  0  0  0  0  0  0  0  0  0  0  0
   39.4030   32.3100   36.5760 N   0  0  0  0  0  0  0  0  0  0  0  0
   39.1750   33.3020   36.4160 H   0  0  0  0  0  0  0  0  0  0  0  0
   38.9780   31.4840   36.1070 H   0  0  0  0  0  0  0  0  0  0  0  0
   38.7900   34.1610   41.4840 N   0  0  0  0  0  0  0  0  0  0  0  0
   39.3420   34.2710   42.3790 H   0  0  0  0  0  0  0  0  0  0  0  0
   38.1850   35.0040   41.3910 H   0  0  0  0  0  0  0  0  0  0  0  0
  1  9  1  0  0  0  0
  1 10  1  0  0  0  0
  2  1  2  0  0  0  0
  3  4  2  0  0  0  0
  3  2  1  0  0  0  0
  4  8  1  0  0  0  0
  5  4  1  0  0  0  0
  5  6  1  0  0  0  0
  6  7  2  0  0  0  0
  7 14  1  0  0  0  0
  8  7  1  0  0  0  0
  8  9  2  0  0  0  0
  9 15  1  0  0  0  0
 11  3  1  0  0  0  0
 12  5  1  0  0  0  0
 13  6  1  0  0  0  0
 16 21  2  0  0  0  0
 16 17  1  0  0  0  0
 17 18  2  0  0  0  0
 18 19  1  0  0  0  0
 18 28  1  0  0  0  0
 20  2  1  0  0  0  0
 20 19  2  0  0  0  0
 21 20  1  0  0  0  0
 22 17  1  0  0  0  0
 23 16  1  0  0  0  0
 24 23  2  0  0  0  0
 25 23  1  0  0  0  0
 26 25  1  0  0  0  0
 27 25  1  0  0  0  0
 28 29  1  0  0  0  0
 30 28  1  0  0  0  0
M  END
>  <minimizedAffinity>
-5.80259752

$$$$

 OpenBabel03252504033D

 30 32  0  0  0  0  0  0  0  0999 V2000
   37.5800   28.5840   42.9300 C   0  0  0  0  0  0  0  0  0  0  0  0
   37.9240   28.8910   41.6360 C   0  0  0  0  0  0  0  0  0  0  0  0
   37.8490   27.9030   40.6640 C   0  0  0  0  0  0  0  0  0  0  0  0
   37.4280   26.6370   41.0380 C   0  0  0  0  0  0  0  0  0  0  0  0
   37.2620   25.5010   40.3190 N   0  0  0  0  0  0  0  0  0  0  0  0
   36.8260   24.5130   41.1450 C   0  0  0  0  0  0  0  0  0  0  0  0
   36.7110   25.0180   42.4060 C   0  0  0  0  0  0  0  0  0  0  0  0
   37.0840   26.3400   42.3470 C   0  0  0  0  0  0  0  0  0  0  0  0
   37.1630   27.3250   43.2940 C   0  0  0  0  0  0  0  0  0  0  0  0
   37.6210   29.3240   43.7310 H   0  0  0  0  0  0  0  0  0  0  0  0
   38.1160   28.1290   39.6400 H   0  0  0  0  0  0  0  0  0  0  0  0
   37.4490   25.4320   39.3000 H   0  0  0  0  0  0  0  0  0  0  0  0
   36.6310   23.5140   40.7640 H   0  0  0  0  0  0  0  0  0  0  0  0
   36.3810   24.4300   43.2490 H   0  0  0  0  0  0  0  0  0  0  0  0
   36.8950   27.1020   44.3250 H   0  0  0  0  0  0  0  0  0  0  0  0
   40.0720   31.8100   41.2610 C   0  0  0  0  0  0  0  0  0  0  0  0
   39.2500   32.7870   40.7590 C   0  0  0  0  0  0  0  0  0  0  0  0
   37.9220   32.4310   40.5450 C   0  0  0  0  0  0  0  0  0  0  0  0
   37.5170   31.1810   40.8310 N   0  0  0  0  0  0  0  0  0  0  0  0
   38.3570   30.2490   41.3230 C   0  0  0  0  0  0  0  0  0  0  0  0
   39.6390   30.5810   41.5340 N   0  0  0  0  0  0  0  0  0  0  0  0
   39.5360   33.8040   40.5160 H   0  0  0  0  0  0  0  0  0  0  0  0
   41.4470   32.2120   41.4740 C   0  0  0  0  0  0  0  0  0  0  0  0
   42.2140   32.7290   40.6010 O   0  0  0  0  0  0  0  0  0  0  0  0
   41.7590   31.9180   42.8240 N   0  0  0  0  0  0  0  0  0  0  0  0
   42.0710   30.9880   43.1390 H   0  0  0  0  0  0  0  0  0  0  0  0
   41.6240   32.7670   43.4090 H   0  0  0  0  0  0  0  0  0  0  0  0
   36.9550   33.3380   40.0290 N   0  0  0  0  0  0  0  0  0  0  0  0
   36.1820   33.6750   40.6660 H   0  0  0  0  0  0  0  0  0  0  0  0
   36.8070   33.7890   39.1020 H   0  0  0  0  0  0  0  0  0  0  0  0
  1  9  1  0  0  0  0
  1 10  1  0  0  0  0
  2  1  2  0  0  0  0
  3  4  2  0  0  0  0
  3  2  1  0  0  0  0
  4  8  1  0  0  0  0
  5  4  1  0  0  0  0
  5  6  1  0  0  0  0
  6  7  2  0  0  0  0
  7 14  1  0  0  0  0
  8  7  1  0  0  0  0
  8  9  2  0  0  0  0
  9 15  1  0  0  0  0
 11  3  1  0  0  0  0
 12  5  1  0  0  0  0
 13  6  1  0  0  0  0
 16 23  1  0  0  0  0
 16 21  1  0  0  0  0
 17 16  2  0  0  0  0
 18 17  1  0  0  0  0
 18 19  2  0  0  0  0
 19 20  1  0  0  0  0
 20 21  2  0  0  0  0
 20  2  1  0  0  0  0
 22 17  1  0  0  0  0
 23 25  1  0  0  0  0
 24 23  2  0  0  0  0
 25 26  1  0  0  0  0
 25 27  1  0  0  0  0
 28 18  1  0  0  0  0
 28 29  1  0  0  0  0
 30 28  1  0  0  0  0
M  END
>  <minimizedAffinity>
-5.75393581

$$$$

 OpenBabel03252504033D

 30 32  0  0  0  0  0  0  0  0999 V2000
   36.9700   28.3220   41.5090 C   0  0  0  0  0  0  0  0  0  0  0  0
   37.2650   28.2610   40.1680 C   0  0  0  0  0  0  0  0  0  0  0  0
   37.4610   27.0220   39.5760 C   0  0  0  0  0  0  0  0  0  0  0  0
   37.3520   25.8870   40.3630 C   0  0  0  0  0  0  0  0  0  0  0  0
   37.4890   24.5730   40.0620 N   0  0  0  0  0  0  0  0  0  0  0  0
   37.2840   23.8360   41.1860 C   0  0  0  0  0  0  0  0  0  0  0  0
   37.0140   24.6840   42.2190 C   0  0  0  0  0  0  0  0  0  0  0  0
   37.0540   25.9620   41.7140 C   0  0  0  0  0  0  0  0  0  0  0  0
   36.8630   27.1910   42.2840 C   0  0  0  0  0  0  0  0  0  0  0  0
   36.8060   29.2710   42.0230 H   0  0  0  0  0  0  0  0  0  0  0  0
   37.6940   26.9560   38.5200 H   0  0  0  0  0  0  0  0  0  0  0  0
   37.7150   24.2210   39.1110 H   0  0  0  0  0  0  0  0  0  0  0  0
   37.3490   22.7520   41.1600 H   0  0  0  0  0  0  0  0  0  0  0  0
   36.8130   24.3430   43.2240 H   0  0  0  0  0  0  0  0  0  0  0  0
   36.6290   27.2610   43.3440 H   0  0  0  0  0  0  0  0  0  0  0  0
   37.6610   31.8040   39.4150 C   0  0  0  0  0  0  0  0  0  0  0  0
   37.5560   31.8840   38.0490 C   0  0  0  0  0  0  0  0  0  0  0  0
   37.3430   30.6890   37.3710 C   0  0  0  0  0  0  0  0  0  0  0  0
   37.2530   29.5400   38.0660 N   0  0  0  0  0  0  0  0  0  0  0  0
   37.3620   29.5030   39.4090 C   0  0  0  0  0  0  0  0  0  0  0  0
   37.5670   30.6500   40.0730 N   0  0  0  0  0  0  0  0  0  0  0  0
   37.6230   32.7870   37.4530 H   0  0  0  0  0  0  0  0  0  0  0  0
   37.8820   33.0650   40.0910 C   0  0  0  0  0  0  0  0  0  0  0  0
   38.7040   33.2660   41.0410 O   0  0  0  0  0  0  0  0  0  0  0  0
   37.0150   34.0120   39.4920 N   0  0  0  0  0  0  0  0  0  0  0  0
   36.0310   34.1300   39.7730 H   0  0  0  0  0  0  0  0  0  0  0  0
   37.5250   34.5390   38.7540 H   0  0  0  0  0  0  0  0  0  0  0  0
   37.2140   30.6170   35.9570 N   0  0  0  0  0  0  0  0  0  0  0  0
   36.2720   30.3760   35.5420 H   0  0  0  0  0  0  0  0  0  0  0  0
   37.8730   30.7540   35.1610 H   0  0  0  0  0  0  0  0  0  0  0  0
  1 10  1  0  0  0  0
  1  9  1  0  0  0  0
  2  1  2  0  0  0  0
  3  2  1  0  0  0  0
  3  4  2  0  0  0  0
  4  8  1  0  0  0  0
  5  4  1  0  0  0  0
  5  6  1  0  0  0  0
  6  7  2  0  0  0  0
  7 14  1  0  0  0  0
  8  7  1  0  0  0  0
  8  9  2  0  0  0  0
  9 15  1  0  0  0  0
 11  3  1  0  0  0  0
 12  5  1  0  0  0  0
 13  6  1  0  0  0  0
 16 21  1  0  0  0  0
 16 23  1  0  0  0  0
 17 16  2  0  0  0  0
 18 17  1  0  0  0  0
 18 19  2  0  0  0  0
 19 20  1  0  0  0  0
 20 21  2  0  0  0  0
 20  2  1  0  0  0  0
 22 17  1  0  0  0  0
 23 24  2  0  0  0  0
 25 26  1  0  0  0  0
 25 23  1  0  0  0  0
 27 25  1  0  0  0  0
 28 18  1  0  0  0  0
 29 28  1  0  0  0  0
 30 28  1  0  0  0  0
M  END
>  <minimizedAffinity>
-5.68207359

$$$$

 OpenBabel03252504033D

 30 32  0  0  0  0  0  0  0  0999 V2000
   36.5520   26.9530   39.5750 C   0  0  0  0  0  0  0  0  0  0  0  0
   35.9260   28.1690   39.4450 C   0  0  0  0  0  0  0  0  0  0  0  0
   35.9520   29.0590   40.5100 C   0  0  0  0  0  0  0  0  0  0  0  0
   36.6130   28.6870   41.6690 C   0  0  0  0  0  0  0  0  0  0  0  0
   36.7970   29.3380   42.8420 N   0  0  0  0  0  0  0  0  0  0  0  0
   37.5190   28.5470   43.6800 C   0  0  0  0  0  0  0  0  0  0  0  0
   37.8020   27.3780   43.0390 C   0  0  0  0  0  0  0  0  0  0  0  0
   37.2410   27.4570   41.7870 C   0  0  0  0  0  0  0  0  0  0  0  0
   37.2070   26.5900   40.7290 C   0  0  0  0  0  0  0  0  0  0  0  0
   36.5620   26.2180   38.7690 H   0  0  0  0  0  0  0  0  0  0  0  0
   35.4630   30.0220   40.4230 H   0  0  0  0  0  0  0  0  0  0  0  0
   36.4290   30.2900   43.0360 H   0  0  0  0  0  0  0  0  0  0  0  0
   37.7780   28.8860   44.6800 H   0  0  0  0  0  0  0  0  0  0  0  0
   38.3690   26.5790   43.4940 H   0  0  0  0  0  0  0  0  0  0  0  0
   37.6970   25.6220   40.8120 H   0  0  0  0  0  0  0  0  0  0  0  0
   35.4170   29.1220   35.9650 C   0  0  0  0  0  0  0  0  0  0  0  0
   34.0560   29.0980   35.7920 C   0  0  0  0  0  0  0  0  0  0  0  0
   33.2950   28.7450   36.9010 C   0  0  0  0  0  0  0  0  0  0  0  0
   33.9110   28.4510   38.0610 N   0  0  0  0  0  0  0  0  0  0  0  0
   35.2520   28.4870   38.1910 C   0  0  0  0  0  0  0  0  0  0  0  0
   35.9960   28.8250   37.1280 N   0  0  0  0  0  0  0  0  0  0  0  0
   33.5220   29.3270   34.8770 H   0  0  0  0  0  0  0  0  0  0  0  0
   36.1810   29.4930   34.7920 C   0  0  0  0  0  0  0  0  0  0  0  0
   35.8470   30.3700   33.9330 O   0  0  0  0  0  0  0  0  0  0  0  0
   37.3530   28.6970   34.7940 N   0  0  0  0  0  0  0  0  0  0  0  0
   37.3840   27.7420   34.4090 H   0  0  0  0  0  0  0  0  0  0  0  0
   38.1360   29.2240   35.2320 H   0  0  0  0  0  0  0  0  0  0  0  0
   31.8750   28.6780   36.8720 N   0  0  0  0  0  0  0  0  0  0  0  0
   31.3190   29.3970   37.4130 H   0  0  0  0  0  0  0  0  0  0  0  0
   31.1890   28.0430   36.4120 H   0  0  0  0  0  0  0  0  0  0  0  0
  1  9  1  0  0  0  0
  2  1  2  0  0  0  0
  2  3  1  0  0  0  0
  3  4  2  0  0  0  0
  4  8  1  0  0  0  0
  4  5  1  0  0  0  0
  5 12  1  0  0  0  0
  5  6  1  0  0  0  0
  6 13  1  0  0  0  0
  7 14  1  0  0  0  0
  7  6  2  0  0  0  0
  8  7  1  0  0  0  0
  9 15  1  0  0  0  0
  9  8  2  0  0  0  0
 10  1  1  0  0  0  0
 11  3  1  0  0  0  0
 16 21  1  0  0  0  0
 17 16  2  0  0  0  0
 17 18  1  0  0  0  0
 18 19  2  0  0  0  0
 19 20  1  0  0  0  0
 20  2  1  0  0  0  0
 21 20  2  0  0  0  0
 22 17  1  0  0  0  0
 23 25  1  0  0  0  0
 23 16  1  0  0  0  0
 24 23  2  0  0  0  0
 25 27  1  0  0  0  0
 26 25  1  0  0  0  0
 28 18  1  0  0  0  0
 28 29  1  0  0  0  0
 30 28  1  0  0  0  0
M  END
>  <minimizedAffinity>
-5.63899136

$$$$

 OpenBabel03252504033D

 30 32  0  0  0  0  0  0  0  0999 V2000
   37.2920   28.0610   42.6740 C   0  0  0  0  0  0  0  0  0  0  0  0
   38.0470   28.3250   41.5570 C   0  0  0  0  0  0  0  0  0  0  0  0
   38.3610   27.2860   40.6920 C   0  0  0  0  0  0  0  0  0  0  0  0
   37.8960   26.0150   40.9880 C   0  0  0  0  0  0  0  0  0  0  0  0
   38.0430   24.8360   40.3390 N   0  0  0  0  0  0  0  0  0  0  0  0
   37.3950   23.8630   41.0330 C   0  0  0  0  0  0  0  0  0  0  0  0
   36.8270   24.4220   42.1390 C   0  0  0  0  0  0  0  0  0  0  0  0
   37.1350   25.7610   42.1180 C   0  0  0  0  0  0  0  0  0  0  0  0
   36.8340   26.7960   42.9620 C   0  0  0  0  0  0  0  0  0  0  0  0
   37.0180   28.8410   43.3860 H   0  0  0  0  0  0  0  0  0  0  0  0
   38.9550   27.4780   39.8070 H   0  0  0  0  0  0  0  0  0  0  0  0
   38.5740   24.7280   39.4520 H   0  0  0  0  0  0  0  0  0  0  0  0
   37.3910   22.8350   40.6800 H   0  0  0  0  0  0  0  0  0  0  0  0
   36.2530   23.8550   42.8580 H   0  0  0  0  0  0  0  0  0  0  0  0
   36.2370   26.6070   43.8510 H   0  0  0  0  0  0  0  0  0  0  0  0
   38.2050   31.6980   40.1880 C   0  0  0  0  0  0  0  0  0  0  0  0
   39.2840   32.2760   40.8090 C   0  0  0  0  0  0  0  0  0  0  0  0
   39.9740   31.4850   41.7200 C   0  0  0  0  0  0  0  0  0  0  0  0
   39.5640   30.2240   41.9460 N   0  0  0  0  0  0  0  0  0  0  0  0
   38.4980   29.6920   41.3160 C   0  0  0  0  0  0  0  0  0  0  0  0
   37.8240   30.4460   40.4350 N   0  0  0  0  0  0  0  0  0  0  0  0
   39.6470   33.2860   40.6550 H   0  0  0  0  0  0  0  0  0  0  0  0
   37.5090   32.5480   39.2460 C   0  0  0  0  0  0  0  0  0  0  0  0
   37.2830   32.2750   38.0230 O   0  0  0  0  0  0  0  0  0  0  0  0
   37.1350   33.7210   39.9460 N   0  0  0  0  0  0  0  0  0  0  0  0
   37.7670   34.5250   40.0740 H   0  0  0  0  0  0  0  0  0  0  0  0
   36.1570   33.6300   40.2890 H   0  0  0  0  0  0  0  0  0  0  0  0
   41.1120   31.9480   42.4380 N   0  0  0  0  0  0  0  0  0  0  0  0
   42.0600   31.5400   42.2090 H   0  0  0  0  0  0  0  0  0  0  0  0
   41.2540   32.6480   43.1960 H   0  0  0  0  0  0  0  0  0  0  0  0
  1  9  1  0  0  0  0
  1 10  1  0  0  0  0
  2  1  2  0  0  0  0
  3  4  2  0  0  0  0
  3  2  1  0  0  0  0
  4  8  1  0  0  0  0
  5  4  1  0  0  0  0
  5  6  1  0  0  0  0
  6  7  2  0  0  0  0
  7 14  1  0  0  0  0
  8  7  1  0  0  0  0
  8  9  2  0  0  0  0
  9 15  1  0  0  0  0
 11  3  1  0  0  0  0
 12  5  1  0  0  0  0
 13  6  1  0  0  0  0
 16 21  2  0  0  0  0
 16 17  1  0  0  0  0
 17 18  2  0  0  0  0
 18 19  1  0  0  0  0
 18 28  1  0  0  0  0
 20  2  1  0  0  0  0
 20 19  2  0  0  0  0
 21 20  1  0  0  0  0
 22 17  1  0  0  0  0
 23 25  1  0  0  0  0
 23 16  1  0  0  0  0
 24 23  2  0  0  0  0
 25 26  1  0  0  0  0
 25 27  1  0  0  0  0
 28 30  1  0  0  0  0
 29 28  1  0  0  0  0
M  END
>  <minimizedAffinity>
-5.62093019

$$$$

 OpenBabel03252504033D

 30 32  0  0  0  0  0  0  0  0999 V2000
   38.4580   30.9270   37.9360 C   0  0  0  0  0  0  0  0  0  0  0  0
   38.8690   31.4800   39.1250 C   0  0  0  0  0  0  0  0  0  0  0  0
   38.0840   31.3090   40.2560 C   0  0  0  0  0  0  0  0  0  0  0  0
   36.9100   30.5820   40.1440 C   0  0  0  0  0  0  0  0  0  0  0  0
   35.9670   30.2600   41.0610 N   0  0  0  0  0  0  0  0  0  0  0  0
   34.9940   29.5260   40.4590 C   0  0  0  0  0  0  0  0  0  0  0  0
   35.3160   29.3740   39.1430 C   0  0  0  0  0  0  0  0  0  0  0  0
   36.5070   30.0290   38.9390 C   0  0  0  0  0  0  0  0  0  0  0  0
   37.2910   30.2060   37.8320 C   0  0  0  0  0  0  0  0  0  0  0  0
   39.0380   31.0310   37.0180 H   0  0  0  0  0  0  0  0  0  0  0  0
   38.3940   31.7380   41.2010 H   0  0  0  0  0  0  0  0  0  0  0  0
   36.0110   30.5470   42.0590 H   0  0  0  0  0  0  0  0  0  0  0  0
   34.1390   29.1650   41.0230 H   0  0  0  0  0  0  0  0  0  0  0  0
   34.7000   28.8260   38.4450 H   0  0  0  0  0  0  0  0  0  0  0  0
   36.9840   29.7760   36.8820 H   0  0  0  0  0  0  0  0  0  0  0  0
   41.9010   33.0450   40.4030 C   0  0  0  0  0  0  0  0  0  0  0  0
   42.4800   33.6320   39.3060 C   0  0  0  0  0  0  0  0  0  0  0  0
   41.8090   33.4860   38.0970 C   0  0  0  0  0  0  0  0  0  0  0  0
   40.6560   32.7940   38.0580 N   0  0  0  0  0  0  0  0  0  0  0  0
   40.1190   32.2310   39.1590 C   0  0  0  0  0  0  0  0  0  0  0  0
   40.7580   32.3660   40.3310 N   0  0  0  0  0  0  0  0  0  0  0  0
   43.4060   34.1970   39.2940 H   0  0  0  0  0  0  0  0  0  0  0  0
   42.6240   33.2150   41.6460 C   0  0  0  0  0  0  0  0  0  0  0  0
   43.5600   34.0510   41.8540 O   0  0  0  0  0  0  0  0  0  0  0  0
   42.0880   32.2810   42.5660 N   0  0  0  0  0  0  0  0  0  0  0  0
   42.3990   31.3000   42.6170 H   0  0  0  0  0  0  0  0  0  0  0  0
   41.3600   32.7410   43.1510 H   0  0  0  0  0  0  0  0  0  0  0  0
   42.2880   34.0400   36.8770 N   0  0  0  0  0  0  0  0  0  0  0  0
   41.7580   34.8420   36.4390 H   0  0  0  0  0  0  0  0  0  0  0  0
   43.1000   33.8330   36.2580 H   0  0  0  0  0  0  0  0  0  0  0  0
  1  2  1  0  0  0  0
  2 20  1  0  0  0  0
  2  3  2  0  0  0  0
  3 11  1  0  0  0  0
  4  3  1  0  0  0  0
  4  5  1  0  0  0  0
  5 12  1  0  0  0  0
  6 13  1  0  0  0  0
  6  5  1  0  0  0  0
  7  6  2  0  0  0  0
  8  7  1  0  0  0  0
  8  4  2  0  0  0  0
  9  1  2  0  0  0  0
  9  8  1  0  0  0  0
 10  1  1  0  0  0  0
 14  7  1  0  0  0  0
 15  9  1  0  0  0  0
 16 23  1  0  0  0  0
 17 16  2  0  0  0  0
 18 17  1  0  0  0  0
 19 18  2  0  0  0  0
 19 20  1  0  0  0  0
 20 21  2  0  0  0  0
 21 16  1  0  0  0  0
 22 17  1  0  0  0  0
 23 24  2  0  0  0  0
 23 25  1  0  0  0  0
 25 26  1  0  0  0  0
 25 27  1  0  0  0  0
 28 18  1  0  0  0  0
 29 28  1  0  0  0  0
 30 28  1  0  0  0  0
M  END
>  <minimizedAffinity>
-5.44552088

$$$$

 OpenBabel03252504033D

 30 32  0  0  0  0  0  0  0  0999 V2000
   40.1290   29.0840   37.6970 C   0  0  0  0  0  0  0  0  0  0  0  0
   40.0590   30.3820   38.1400 C   0  0  0  0  0  0  0  0  0  0  0  0
   41.0550   31.2760   37.7730 C   0  0  0  0  0  0  0  0  0  0  0  0
   42.0880   30.8230   36.9670 C   0  0  0  0  0  0  0  0  0  0  0  0
   43.1720   31.4570   36.4630 N   0  0  0  0  0  0  0  0  0  0  0  0
   43.8980   30.5760   35.7240 C   0  0  0  0  0  0  0  0  0  0  0  0
   43.2750   29.3650   35.7550 C   0  0  0  0  0  0  0  0  0  0  0  0
   42.1470   29.5100   36.5270 C   0  0  0  0  0  0  0  0  0  0  0  0
   41.1570   28.6400   36.8970 C   0  0  0  0  0  0  0  0  0  0  0  0
   39.3720   28.3420   37.9560 H   0  0  0  0  0  0  0  0  0  0  0  0
   41.0140   32.3030   38.1130 H   0  0  0  0  0  0  0  0  0  0  0  0
   43.3850   32.4600   36.6340 H   0  0  0  0  0  0  0  0  0  0  0  0
   44.8150   30.8870   35.2290 H   0  0  0  0  0  0  0  0  0  0  0  0
   43.6540   28.4930   35.2420 H   0  0  0  0  0  0  0  0  0  0  0  0
   41.1940   27.6080   36.5560 H   0  0  0  0  0  0  0  0  0  0  0  0
   37.3370   30.1830   40.5540 C   0  0  0  0  0  0  0  0  0  0  0  0
   36.8220   31.4540   40.6040 C   0  0  0  0  0  0  0  0  0  0  0  0
   37.4260   32.4020   39.7860 C   0  0  0  0  0  0  0  0  0  0  0  0
   38.4600   32.0410   39.0050 N   0  0  0  0  0  0  0  0  0  0  0  0
   38.9380   30.7810   38.9840 C   0  0  0  0  0  0  0  0  0  0  0  0
   38.3630   29.8580   39.7690 N   0  0  0  0  0  0  0  0  0  0  0  0
   35.9910   31.7860   41.2170 H   0  0  0  0  0  0  0  0  0  0  0  0
   36.6860   29.2200   41.4160 C   0  0  0  0  0  0  0  0  0  0  0  0
   35.9360   28.2660   41.0340 O   0  0  0  0  0  0  0  0  0  0  0  0
   37.0450   29.5480   42.7470 N   0  0  0  0  0  0  0  0  0  0  0  0
   36.5480   30.2580   43.3040 H   0  0  0  0  0  0  0  0  0  0  0  0
   37.8590   28.9730   43.0430 H   0  0  0  0  0  0  0  0  0  0  0  0
   37.0000   33.7580   39.7320 N   0  0  0  0  0  0  0  0  0  0  0  0
   36.5310   34.1110   38.8530 H   0  0  0  0  0  0  0  0  0  0  0  0
   37.0390   34.5570   40.4000 H   0  0  0  0  0  0  0  0  0  0  0  0
  1 10  1  0  0  0  0
  1  2  1  0  0  0  0
  2 20  1  0  0  0  0
  3 11  1  0  0  0  0
  3  2  2  0  0  0  0
  4  3  1  0  0  0  0
  5 12  1  0  0  0  0
  5  4  1  0  0  0  0
  6  7  2  0  0  0  0
  6  5  1  0  0  0  0
  7  8  1  0  0  0  0
  8  9  1  0  0  0  0
  8  4  2  0  0  0  0
  9  1  2  0  0  0  0
 13  6  1  0  0  0  0
 14  7  1  0  0  0  0
 15  9  1  0  0  0  0
 16 17  1  0  0  0  0
 16 23  1  0  0  0  0
 17 22  1  0  0  0  0
 18 17  2  0  0  0  0
 19 18  1  0  0  0  0
 20 19  2  0  0  0  0
 20 21  1  0  0  0  0
 21 16  2  0  0  0  0
 23 25  1  0  0  0  0
 24 23  2  0  0  0  0
 25 27  1  0  0  0  0
 25 26  1  0  0  0  0
 28 18  1  0  0  0  0
 28 30  1  0  0  0  0
 29 28  1  0  0  0  0
M  END
>  <minimizedAffinity>
-5.43941975

$$$$

 OpenBabel03252504033D

 30 32  0  0  0  0  0  0  0  0999 V2000
   36.5580   26.7530   39.5880 C   0  0  0  0  0  0  0  0  0  0  0  0
   36.2500   28.0590   39.2910 C   0  0  0  0  0  0  0  0  0  0  0  0
   36.3490   29.0190   40.2880 C   0  0  0  0  0  0  0  0  0  0  0  0
   36.7590   28.6240   41.5510 C   0  0  0  0  0  0  0  0  0  0  0  0
   36.9430   29.3290   42.6930 N   0  0  0  0  0  0  0  0  0  0  0  0
   37.3550   28.4840   43.6750 C   0  0  0  0  0  0  0  0  0  0  0  0
   37.4370   27.2240   43.1590 C   0  0  0  0  0  0  0  0  0  0  0  0
   37.0670   27.3040   41.8380 C   0  0  0  0  0  0  0  0  0  0  0  0
   36.9640   26.3670   40.8450 C   0  0  0  0  0  0  0  0  0  0  0  0
   36.4970   25.9600   38.8420 H   0  0  0  0  0  0  0  0  0  0  0  0
   36.1100   30.0530   40.0700 H   0  0  0  0  0  0  0  0  0  0  0  0
   36.7840   30.3520   42.7700 H   0  0  0  0  0  0  0  0  0  0  0  0
   37.5600   28.8520   44.6770 H   0  0  0  0  0  0  0  0  0  0  0  0
   37.7440   26.3680   43.7410 H   0  0  0  0  0  0  0  0  0  0  0  0
   37.2040   25.3290   41.0600 H   0  0  0  0  0  0  0  0  0  0  0  0
   34.1070   28.9710   36.4900 C   0  0  0  0  0  0  0  0  0  0  0  0
   34.9510   29.0340   35.4100 C   0  0  0  0  0  0  0  0  0  0  0  0
   36.2920   28.7540   35.6530 C   0  0  0  0  0  0  0  0  0  0  0  0
   36.6880   28.4440   36.9010 N   0  0  0  0  0  0  0  0  0  0  0  0
   35.8260   28.3940   37.9360 C   0  0  0  0  0  0  0  0  0  0  0  0
   34.5310   28.6610   37.7140 N   0  0  0  0  0  0  0  0  0  0  0  0
   34.6730   29.2780   34.3910 H   0  0  0  0  0  0  0  0  0  0  0  0
   32.7190   29.2670   36.2040 C   0  0  0  0  0  0  0  0  0  0  0  0
   32.2510   29.6270   35.0760 O   0  0  0  0  0  0  0  0  0  0  0  0
   31.9990   29.0780   37.4100 N   0  0  0  0  0  0  0  0  0  0  0  0
   31.9170   29.8050   38.1350 H   0  0  0  0  0  0  0  0  0  0  0  0
   31.5900   28.1220   37.4290 H   0  0  0  0  0  0  0  0  0  0  0  0
   37.2820   28.7790   34.6330 N   0  0  0  0  0  0  0  0  0  0  0  0
   37.7210   27.8680   34.3260 H   0  0  0  0  0  0  0  0  0  0  0  0
   37.7180   29.5360   34.0650 H   0  0  0  0  0  0  0  0  0  0  0  0
  1  9  1  0  0  0  0
  2  1  2  0  0  0  0
  2  3  1  0  0  0  0
  3  4  2  0  0  0  0
  4  8  1  0  0  0  0
  4  5  1  0  0  0  0
  5 12  1  0  0  0  0
  5  6  1  0  0  0  0
  6 13  1  0  0  0  0
  7  6  2  0  0  0  0
  7 14  1  0  0  0  0
  8  7  1  0  0  0  0
  9 15  1  0  0  0  0
  9  8  2  0  0  0  0
 10  1  1  0  0  0  0
 11  3  1  0  0  0  0
 16 21  1  0  0  0  0
 17 18  1  0  0  0  0
 17 16  2  0  0  0  0
 18 19  2  0  0  0  0
 19 20  1  0  0  0  0
 20  2  1  0  0  0  0
 21 20  2  0  0  0  0
 22 17  1  0  0  0  0
 23 16  1  0  0  0  0
 23 25  1  0  0  0  0
 24 23  2  0  0  0  0
 25 27  1  0  0  0  0
 25 26  1  0  0  0  0
 28 18  1  0  0  0  0
 29 28  1  0  0  0  0
 30 28  1  0  0  0  0
M  END
>  <minimizedAffinity>
-5.41455221

$$$$
