
 OpenBabel03242519443D

 25 26  0  0  1  0  0  0  0  0999 V2000
   45.8250   33.0610   47.7980 C   0  0  2  0  0  0  0  0  0  0  0  0
   46.4370   32.5260   46.5310 C   0  0  1  0  0  0  0  0  0  0  0  0
   45.7470   31.2830   46.3380 O   0  0  0  0  0  0  0  0  0  0  0  0
   46.0300   30.7180   47.6130 C   0  0  0  0  0  0  0  0  0  0  0  0
   45.3910   31.7690   48.5030 C   0  0  2  0  0  0  0  0  0  0  0  0
   46.4960   33.6590   48.4220 H   0  0  0  0  0  0  0  0  0  0  0  0
   47.5140   32.2820   46.7240 H   0  0  0  0  0  0  0  0  0  0  0  0
   47.1250   30.7050   47.7800 H   0  0  0  0  0  0  0  0  0  0  0  0
   45.5780   29.7260   47.7130 H   0  0  0  0  0  0  0  0  0  0  0  0
   45.7370   31.7170   49.5420 H   0  0  0  0  0  0  0  0  0  0  0  0
   44.9100   35.0110   44.3190 C   0  0  0  0  0  0  0  0  0  0  0  0
   45.8250   35.0990   43.2530 C   0  0  0  0  0  0  0  0  0  0  0  0
   46.9880   34.2840   43.2870 C   0  0  0  0  0  0  0  0  0  0  0  0
   47.1680   33.4540   44.3460 N   0  0  0  0  0  0  0  0  0  0  0  0
   46.2560   33.3950   45.3640 C   0  0  0  0  0  0  0  0  0  0  0  0
   45.1570   34.1550   45.3460 N   0  0  0  0  0  0  0  0  0  0  0  0
   45.7150   35.7400   42.4080 H   0  0  0  0  0  0  0  0  0  0  0  0
   47.7290   34.3050   42.4990 H   0  0  0  0  0  0  0  0  0  0  0  0
   43.7570   35.8410   44.2540 N   0  0  0  0  0  0  0  0  0  0  0  0
   43.6410   36.1720   45.2420 H   0  0  0  0  0  0  0  0  0  0  0  0
   43.3830   35.8690   43.2620 H   0  0  0  0  0  0  0  0  0  0  0  0
   44.6790   33.8470   47.4950 O   0  0  0  0  0  0  0  0  0  0  0  0
   44.4910   34.5110   48.2040 H   0  0  0  0  0  0  0  0  0  0  0  0
   44.0100   31.6200   48.3930 O   0  0  0  0  0  0  0  0  0  0  0  0
   43.5060   32.4160   48.6680 H   0  0  0  0  0  0  0  0  0  0  0  0
  1  6  1  1  0  0  0
  1  5  1  0  0  0  0
  2  7  1  1  0  0  0
  2  1  1  0  0  0  0
  3  2  1  0  0  0  0
  3  4  1  0  0  0  0
  4  9  1  0  0  0  0
  4  8  1  0  0  0  0
  4  5  1  0  0  0  0
  5 10  1  1  0  0  0
 11 16  1  0  0  0  0
 12 13  1  0  0  0  0
 12 11  2  0  0  0  0
 13 14  2  0  0  0  0
 14 15  1  0  0  0  0
 15  2  1  0  0  0  0
 16 15  2  0  0  0  0
 17 12  1  0  0  0  0
 18 13  1  0  0  0  0
 19 11  1  0  0  0  0
 19 20  1  0  0  0  0
 21 19  1  0  0  0  0
 22  1  1  0  0  0  0
 22 23  1  0  0  0  0
 24  5  1  0  0  0  0
 24 25  1  0  0  0  0
M  END
>  <minimizedAffinity>
-5.46435595

>  <minimizedRMSD>
0.81916374

$$$$
