
 OpenBabel03242514393D

 36 38  0  0  0  0  0  0  0  0999 V2000
   47.5010   34.1170   39.6800 C   0  0  0  0  0  0  0  0  0  0  0  0
   46.2730   33.8570   40.0020 O   0  0  0  0  0  0  0  0  0  0  0  0
   47.6660   33.6020   38.3010 C   0  0  0  0  0  0  0  0  0  0  0  0
   48.6460   33.9990   37.3680 C   0  0  0  0  0  0  0  0  0  0  0  0
   48.5620   33.3540   36.1630 C   0  0  0  0  0  0  0  0  0  0  0  0
   47.6310   32.4340   35.9050 C   0  0  0  0  0  0  0  0  0  0  0  0
   46.6690   32.3820   37.5310 S   0  0  0  0  0  0  0  0  0  0  0  0
   49.3970   34.7460   37.5840 H   0  0  0  0  0  0  0  0  0  0  0  0
   49.2220   33.5210   35.3230 H   0  0  0  0  0  0  0  0  0  0  0  0
   47.2320   31.5750   34.8200 C   0  0  0  0  0  0  0  0  0  0  0  0
   45.9740   31.0540   34.7480 C   0  0  0  0  0  0  0  0  0  0  0  0
   45.7660   30.2470   33.6300 C   0  0  0  0  0  0  0  0  0  0  0  0
   46.7570   30.0250   32.7140 C   0  0  0  0  0  0  0  0  0  0  0  0
   48.0080   30.5750   32.8310 C   0  0  0  0  0  0  0  0  0  0  0  0
   48.2070   31.3620   33.9250 N   0  0  0  0  0  0  0  0  0  0  0  0
   45.2130   31.2430   35.4830 H   0  0  0  0  0  0  0  0  0  0  0  0
   44.7960   29.7820   33.4800 H   0  0  0  0  0  0  0  0  0  0  0  0
   46.5890   29.3980   31.8480 H   0  0  0  0  0  0  0  0  0  0  0  0
   48.8020   30.4080   32.1130 H   0  0  0  0  0  0  0  0  0  0  0  0
   48.1410   34.7310   40.6750 O   0  0  0  0  0  0  0  0  0  0  0  0
   49.4670   35.1030   42.8580 O   0  0  0  0  0  0  0  0  0  0  0  0
   48.9570   34.0190   41.9490 P   0  0  2  0  0  0  0  0  0  0  0  0
   50.2690   33.1970   41.3510 O   0  0  0  0  0  0  0  0  0  0  0  0
   50.7580   33.7830   40.7480 H   0  0  0  0  0  0  0  0  0  0  0  0
   47.8750   32.9720   42.8020 O   0  0  0  0  0  0  0  0  0  0  0  0
   46.1540   34.5160   43.3550 C   0  0  0  0  0  0  0  0  0  0  0  0
   46.9870   33.4820   43.7340 C   0  0  0  0  0  0  0  0  0  0  0  0
   46.8830   33.0090   45.0480 C   0  0  0  0  0  0  0  0  0  0  0  0
   45.9780   33.5830   45.8790 N   0  0  0  0  0  0  0  0  0  0  0  0
   45.1850   34.5880   45.4710 C   0  0  0  0  0  0  0  0  0  0  0  0
   45.2700   35.0520   44.2230 N   0  0  0  0  0  0  0  0  0  0  0  0
   46.1300   34.9720   42.3850 H   0  0  0  0  0  0  0  0  0  0  0  0
   47.5300   32.2040   45.3460 H   0  0  0  0  0  0  0  0  0  0  0  0
   44.2430   35.1670   46.3780 N   0  0  0  0  0  0  0  0  0  0  0  0
   43.4240   34.7320   46.8710 H   0  0  0  0  0  0  0  0  0  0  0  0
   44.4910   36.1580   46.4980 H   0  0  0  0  0  0  0  0  0  0  0  0
  1  2  2  0  0  0  0
  1 20  1  0  0  0  0
  3  1  1  0  0  0  0
  4  8  1  0  0  0  0
  4  3  2  0  0  0  0
  5  4  1  0  0  0  0
  6  5  2  0  0  0  0
  6  7  1  0  0  0  0
  7  3  1  0  0  0  0
  9  5  1  0  0  0  0
 10  6  1  0  0  0  0
 11 10  1  0  0  0  0
 11 16  1  0  0  0  0
 12 11  2  0  0  0  0
 13 14  2  0  0  0  0
 13 12  1  0  0  0  0
 14 15  1  0  0  0  0
 15 10  2  0  0  0  0
 17 12  1  0  0  0  0
 18 13  1  0  0  0  0
 19 14  1  0  0  0  0
 20 22  1  0  0  0  0
 22 25  1  0  0  0  0
 22 21  2  1  0  0  0
 23 22  1  0  0  0  0
 24 23  1  0  0  0  0
 25 27  1  0  0  0  0
 26 27  2  0  0  0  0
 26 31  1  0  0  0  0
 27 28  1  0  0  0  0
 28 33  1  0  0  0  0
 28 29  2  0  0  0  0
 30 29  1  0  0  0  0
 30 34  1  0  0  0  0
 31 30  2  0  0  0  0
 32 26  1  0  0  0  0
 34 36  1  0  0  0  0
 34 35  1  0  0  0  0
M  END
>  <minimizedAffinity>
-5.78290224

>  <minimizedRMSD>
0.783412218

$$$$
