
 OpenBabel03242516533D

 45 48  0  0  1  0  0  0  0  0999 V2000
   47.7960   32.7550   41.6580 C   0  0  1  0  0  0  0  0  0  0  0  0
   47.4180   32.1280   40.3880 C   0  0  0  0  0  0  0  0  0  0  0  0
   48.4330   32.6290   39.3590 C   0  0  0  0  0  0  0  0  0  0  0  0
   48.1320   34.0930   39.1360 C   0  0  0  0  0  0  0  0  0  0  0  0
   48.1190   34.9130   40.3830 C   0  0  0  0  0  0  0  0  0  0  0  0
   47.6350   34.2800   41.6090 C   0  0  1  0  0  0  0  0  0  0  0  0
   48.9130   32.6420   41.7970 H   0  0  0  0  0  0  0  0  0  0  0  0
   47.4640   31.0270   40.5040 H   0  0  0  0  0  0  0  0  0  0  0  0
   46.3910   32.3470   40.0450 H   0  0  0  0  0  0  0  0  0  0  0  0
   49.4400   32.4720   39.7730 H   0  0  0  0  0  0  0  0  0  0  0  0
   48.2520   32.1290   38.3920 H   0  0  0  0  0  0  0  0  0  0  0  0
   47.1140   34.1460   38.6660 H   0  0  0  0  0  0  0  0  0  0  0  0
   48.8460   34.5320   38.4220 H   0  0  0  0  0  0  0  0  0  0  0  0
   47.5110   35.8180   40.1750 H   0  0  0  0  0  0  0  0  0  0  0  0
   49.1610   35.3210   40.5060 H   0  0  0  0  0  0  0  0  0  0  0  0
   48.2590   34.6500   42.4740 H   0  0  0  0  0  0  0  0  0  0  0  0
   45.3460   30.9170   43.8580 C   0  0  0  0  0  0  0  0  0  0  0  0
   46.0070   31.4470   42.7560 C   0  0  0  0  0  0  0  0  0  0  0  0
   47.1590   32.2330   42.8500 C   0  0  0  0  0  0  0  0  0  0  0  0
   47.5890   32.4430   44.0890 N   0  0  0  0  0  0  0  0  0  0  0  0
   46.9640   31.9390   45.1830 C   0  0  0  0  0  0  0  0  0  0  0  0
   45.8580   31.1870   45.0710 N   0  0  0  0  0  0  0  0  0  0  0  0
   44.4570   30.3120   43.7530 H   0  0  0  0  0  0  0  0  0  0  0  0
   45.5670   31.2030   41.8090 H   0  0  0  0  0  0  0  0  0  0  0  0
   47.3190   32.1170   46.1930 H   0  0  0  0  0  0  0  0  0  0  0  0
   46.2610   34.6880   41.9750 C   0  0  0  0  0  0  0  0  0  0  0  0
   45.8590   35.2500   43.1740 C   0  0  0  0  0  0  0  0  0  0  0  0
   44.5000   35.5760   43.2760 C   0  0  0  0  0  0  0  0  0  0  0  0
   43.6900   35.3140   42.1950 C   0  0  0  0  0  0  0  0  0  0  0  0
   44.1060   34.7580   41.0180 C   0  0  0  0  0  0  0  0  0  0  0  0
   45.4260   34.4420   40.9180 N   0  0  0  0  0  0  0  0  0  0  0  0
   46.6110   35.3930   43.9060 H   0  0  0  0  0  0  0  0  0  0  0  0
   44.1750   36.0080   44.1870 H   0  0  0  0  0  0  0  0  0  0  0  0
   42.6330   35.5820   42.3130 H   0  0  0  0  0  0  0  0  0  0  0  0
   43.1730   34.5210   39.8930 C   0  0  0  0  0  0  0  0  0  0  0  0
   42.2230   35.3510   39.7670 O   0  0  0  0  0  0  0  0  0  0  0  0
   43.2630   33.4150   38.9180 C   0  0  0  0  0  0  0  0  0  0  0  0
   42.2790   32.5290   38.5460 C   0  0  0  0  0  0  0  0  0  0  0  0
   41.3540   32.7970   39.0800 H   0  0  0  0  0  0  0  0  0  0  0  0
   42.4750   31.5130   37.6460 C   0  0  0  0  0  3  0  0  0  0  0  0
   43.7320   31.3900   37.0940 C   0  0  0  0  0  0  0  0  0  0  0  0
   43.8330   30.5650   36.3820 H   0  0  0  0  0  0  0  0  0  0  0  0
   44.7830   32.2240   37.3970 C   0  0  0  0  0  0  0  0  0  0  0  0
   45.7530   32.0820   36.9340 H   0  0  0  0  0  0  0  0  0  0  0  0
   44.5190   33.2390   38.3220 C   0  0  0  0  0  3  0  0  0  0  0  0
  1  7  1  1  0  0  0
  1 19  1  0  0  0  0
  2  8  1  0  0  0  0
  2  1  1  0  0  0  0
  3 10  1  0  0  0  0
  3  2  1  0  0  0  0
  4  3  1  0  0  0  0
  4  5  1  0  0  0  0
  5 15  1  0  0  0  0
  5  6  1  0  0  0  0
  6  1  1  0  0  0  0
  6 26  1  0  0  0  0
  6 16  1  1  0  0  0
  9  2  1  0  0  0  0
 11  3  1  0  0  0  0
 12  4  1  0  0  0  0
 13  4  1  0  0  0  0
 14  5  1  0  0  0  0
 17 22  1  0  0  0  0
 18 19  1  0  0  0  0
 18 17  2  0  0  0  0
 19 20  2  0  0  0  0
 20 21  1  0  0  0  0
 21 25  1  0  0  0  0
 22 21  2  0  0  0  0
 23 17  1  0  0  0  0
 24 18  1  0  0  0  0
 26 27  1  0  0  0  0
 27 28  2  0  0  0  0
 27 32  1  0  0  0  0
 28 33  1  0  0  0  0
 29 34  1  0  0  0  0
 29 28  1  0  0  0  0
 30 29  2  0  0  0  0
 31 30  1  0  0  0  0
 31 26  2  0  0  0  0
 35 30  1  0  0  0  0
 36 35  2  0  0  0  0
 37 35  1  0  0  0  0
 38 37  1  0  0  0  0
 38 39  1  0  0  0  0
 40 38  2  0  0  0  0
 41 43  2  0  0  0  0
 41 40  1  0  0  0  0
 42 41  1  0  0  0  0
 43 45  1  0  0  0  0
 44 43  1  0  0  0  0
 45 37  2  0  0  0  0
M  END
>  <minimizedAffinity>
-5.41423178

>  <minimizedRMSD>
0.487902462

$$$$
