
 OpenBabel03242516533D

 45 48  0  0  1  0  0  0  0  0999 V2000
   47.8350   32.8910   41.7890 C   0  0  1  0  0  0  0  0  0  0  0  0
   47.5210   32.2810   40.4940 C   0  0  0  0  0  0  0  0  0  0  0  0
   48.5600   32.8280   39.5140 C   0  0  0  0  0  0  0  0  0  0  0  0
   48.2320   34.2880   39.3090 C   0  0  0  0  0  0  0  0  0  0  0  0
   48.1520   35.0810   40.5710 C   0  0  0  0  0  0  0  0  0  0  0  0
   47.6380   34.4120   41.7650 C   0  0  1  0  0  0  0  0  0  0  0  0
   48.9480   32.8010   41.9680 H   0  0  0  0  0  0  0  0  0  0  0  0
   47.5900   31.1790   40.5890 H   0  0  0  0  0  0  0  0  0  0  0  0
   46.5010   32.4820   40.1170 H   0  0  0  0  0  0  0  0  0  0  0  0
   49.5550   32.6870   39.9630 H   0  0  0  0  0  0  0  0  0  0  0  0
   48.4280   32.3440   38.5310 H   0  0  0  0  0  0  0  0  0  0  0  0
   47.2310   34.3260   38.8020 H   0  0  0  0  0  0  0  0  0  0  0  0
   48.9610   34.7590   38.6320 H   0  0  0  0  0  0  0  0  0  0  0  0
   47.5290   35.9750   40.3590 H   0  0  0  0  0  0  0  0  0  0  0  0
   49.1780   35.5120   40.7420 H   0  0  0  0  0  0  0  0  0  0  0  0
   48.2200   34.7790   42.6600 H   0  0  0  0  0  0  0  0  0  0  0  0
   45.3790   30.9100   43.8550 C   0  0  0  0  0  0  0  0  0  0  0  0
   46.0660   31.4810   42.7910 C   0  0  0  0  0  0  0  0  0  0  0  0
   47.1670   32.3280   42.9450 C   0  0  0  0  0  0  0  0  0  0  0  0
   47.5210   32.5550   44.2050 N   0  0  0  0  0  0  0  0  0  0  0  0
   46.8680   32.0110   45.2640 C   0  0  0  0  0  0  0  0  0  0  0  0
   45.8130   31.2020   45.0940 N   0  0  0  0  0  0  0  0  0  0  0  0
   44.5310   30.2570   43.7030 H   0  0  0  0  0  0  0  0  0  0  0  0
   45.6900   31.2180   41.8220 H   0  0  0  0  0  0  0  0  0  0  0  0
   47.1610   32.2040   46.2920 H   0  0  0  0  0  0  0  0  0  0  0  0
   46.2420   34.7790   42.0870 C   0  0  0  0  0  0  0  0  0  0  0  0
   45.7880   35.3440   43.2650 C   0  0  0  0  0  0  0  0  0  0  0  0
   44.4160   35.6260   43.3240 C   0  0  0  0  0  0  0  0  0  0  0  0
   43.6460   35.3210   42.2260 C   0  0  0  0  0  0  0  0  0  0  0  0
   44.1130   34.7620   41.0700 C   0  0  0  0  0  0  0  0  0  0  0  0
   45.4450   34.4890   41.0110 N   0  0  0  0  0  0  0  0  0  0  0  0
   46.5140   35.5230   44.0150 H   0  0  0  0  0  0  0  0  0  0  0  0
   44.0520   36.0600   44.2190 H   0  0  0  0  0  0  0  0  0  0  0  0
   42.5790   35.5550   42.3110 H   0  0  0  0  0  0  0  0  0  0  0  0
   43.2200   34.4770   39.9240 C   0  0  0  0  0  0  0  0  0  0  0  0
   42.3300   35.3450   39.6770 O   0  0  0  0  0  0  0  0  0  0  0  0
   43.2870   33.2840   39.0550 C   0  0  0  0  0  0  0  0  0  0  0  0
   42.4180   32.2190   39.0080 C   0  0  0  0  0  0  0  0  0  0  0  0
   41.6020   32.4080   39.7220 H   0  0  0  0  0  0  0  0  0  0  0  0
   42.5870   31.1390   38.1790 C   0  0  0  0  0  3  0  0  0  0  0  0
   43.6940   31.1400   37.3560 C   0  0  0  0  0  0  0  0  0  0  0  0
   43.7780   30.2570   36.7150 H   0  0  0  0  0  0  0  0  0  0  0  0
   44.6200   32.1560   37.3260 C   0  0  0  0  0  0  0  0  0  0  0  0
   45.4740   32.1070   36.6590 H   0  0  0  0  0  0  0  0  0  0  0  0
   44.3920   33.2270   38.1940 C   0  0  0  0  0  3  0  0  0  0  0  0
  1  7  1  1  0  0  0
  1 19  1  0  0  0  0
  2  8  1  0  0  0  0
  2  1  1  0  0  0  0
  3 10  1  0  0  0  0
  3  2  1  0  0  0  0
  4  3  1  0  0  0  0
  4  5  1  0  0  0  0
  5 15  1  0  0  0  0
  5  6  1  0  0  0  0
  6  1  1  0  0  0  0
  6 26  1  0  0  0  0
  6 16  1  1  0  0  0
  9  2  1  0  0  0  0
 11  3  1  0  0  0  0
 12  4  1  0  0  0  0
 13  4  1  0  0  0  0
 14  5  1  0  0  0  0
 17 22  1  0  0  0  0
 18 19  1  0  0  0  0
 18 17  2  0  0  0  0
 19 20  2  0  0  0  0
 20 21  1  0  0  0  0
 21 25  1  0  0  0  0
 22 21  2  0  0  0  0
 23 17  1  0  0  0  0
 24 18  1  0  0  0  0
 26 27  1  0  0  0  0
 27 28  2  0  0  0  0
 27 32  1  0  0  0  0
 28 33  1  0  0  0  0
 29 34  1  0  0  0  0
 29 28  1  0  0  0  0
 30 29  2  0  0  0  0
 31 30  1  0  0  0  0
 31 26  2  0  0  0  0
 35 30  1  0  0  0  0
 36 35  2  0  0  0  0
 37 35  1  0  0  0  0
 38 37  1  0  0  0  0
 38 39  1  0  0  0  0
 40 38  2  0  0  0  0
 41 40  1  0  0  0  0
 42 41  1  0  0  0  0
 43 41  2  0  0  0  0
 43 45  1  0  0  0  0
 44 43  1  0  0  0  0
 45 37  2  0  0  0  0
M  END
>  <minimizedAffinity>
-5.33127785

>  <minimizedRMSD>
0.364456266

$$$$
