
 OpenBabel03252509193D

 43 46  0  0  1  0  0  0  0  0999 V2000
   38.0880   31.3740   39.6570 C   0  0  1  0  0  0  0  0  0  0  0  0
   37.3010   32.4200   38.9500 C   0  0  0  0  0  0  0  0  0  0  0  0
   37.3910   33.7860   39.5780 C   0  0  0  0  0  0  0  0  0  0  0  0
   38.7920   34.1560   39.9850 C   0  0  0  0  0  0  0  0  0  0  0  0
   39.4940   33.0400   40.6890 C   0  0  0  0  0  0  0  0  0  0  0  0
   38.5010   31.9100   41.0480 C   0  0  2  0  0  0  0  0  0  0  0  0
   39.0250   31.2100   39.1280 H   0  0  0  0  0  0  0  0  0  0  0  0
   37.6130   32.5040   37.8840 H   0  0  0  0  0  0  0  0  0  0  0  0
   36.2280   32.1260   38.9560 H   0  0  0  0  0  0  0  0  0  0  0  0
   37.0420   34.5230   38.8370 H   0  0  0  0  0  0  0  0  0  0  0  0
   36.7290   33.8870   40.4720 H   0  0  0  0  0  0  0  0  0  0  0  0
   38.7290   35.0410   40.6520 H   0  0  0  0  0  0  0  0  0  0  0  0
   39.4140   34.3950   39.0760 H   0  0  0  0  0  0  0  0  0  0  0  0
   40.3490   32.6120   40.1610 H   0  0  0  0  0  0  0  0  0  0  0  0
   39.8730   33.3810   41.6860 H   0  0  0  0  0  0  0  0  0  0  0  0
   37.6220   32.3540   41.5550 H   0  0  0  0  0  0  0  0  0  0  0  0
   36.7030   27.5190   39.6400 C   0  0  0  0  0  0  0  0  0  0  0  0
   35.7700   28.4260   40.1290 C   0  0  0  0  0  0  0  0  0  0  0  0
   36.1120   29.7070   40.1850 C   0  0  0  0  0  0  0  0  0  0  0  0
   37.3850   30.1320   39.7580 C   0  0  0  0  0  0  0  0  0  0  0  0
   38.1630   28.5700   39.2390 S   0  0  0  0  0  0  0  0  0  0  0  0
   34.7970   28.0920   40.4510 H   0  0  0  0  0  0  0  0  0  0  0  0
   35.5270   30.5400   40.5330 H   0  0  0  0  0  0  0  0  0  0  0  0
   35.8940   24.0950   38.4160 C   0  0  0  0  0  0  0  0  0  0  0  0
   36.1610   23.3420   39.5600 C   0  0  0  0  0  0  0  0  0  0  0  0
   36.6090   24.0330   40.6910 C   0  0  0  0  0  0  0  0  0  0  0  0
   36.7610   25.3960   40.6210 N   0  0  0  0  0  0  0  0  0  0  0  0
   36.4900   26.0680   39.4950 C   0  0  0  0  0  0  0  0  0  0  0  0
   36.0570   25.4080   38.3960 N   0  0  0  0  0  0  0  0  0  0  0  0
   35.5530   23.5720   37.5490 H   0  0  0  0  0  0  0  0  0  0  0  0
   36.0510   22.2670   39.6470 H   0  0  0  0  0  0  0  0  0  0  0  0
   36.8480   23.5360   41.6430 H   0  0  0  0  0  0  0  0  0  0  0  0
   39.1880   30.8900   41.8150 C   0  0  0  0  0  0  0  0  0  0  0  0
   40.4070   30.9420   42.0130 O   0  0  0  0  0  0  0  0  0  0  0  0
   39.0090   29.6770   42.5410 C   0  0  0  0  0  0  0  0  0  0  0  0
   37.8830   29.1210   43.1120 C   0  0  0  0  0  0  0  0  0  0  0  0
   37.0490   29.8490   43.1670 H   0  0  0  0  0  0  0  0  0  0  0  0
   37.5810   27.9250   43.6770 C   0  0  0  0  0  3  0  0  0  0  0  0
   38.6540   27.0940   43.6700 C   0  0  0  0  0  0  0  0  0  0  0  0
   38.5570   26.0910   44.0910 H   0  0  0  0  0  0  0  0  0  0  0  0
   39.8980   27.3880   43.1710 C   0  0  0  0  0  0  0  0  0  0  0  0
   40.7280   26.7160   43.1780 H   0  0  0  0  0  0  0  0  0  0  0  0
   40.0030   28.6580   42.6370 C   0  0  0  0  0  3  0  0  0  0  0  0
  1  7  1  6  0  0  0
  1 20  1  0  0  0  0
  1  6  1  0  0  0  0
  2  9  1  0  0  0  0
  2  3  1  0  0  0  0
  2  1  1  0  0  0  0
  3  4  1  0  0  0  0
  3 11  1  0  0  0  0
  4 12  1  0  0  0  0
  4  5  1  0  0  0  0
  5  6  1  0  0  0  0
  5 15  1  0  0  0  0
  6 16  1  1  0  0  0
  6 33  1  0  0  0  0
  8  2  1  0  0  0  0
 10  3  1  0  0  0  0
 13  4  1  0  0  0  0
 14  5  1  0  0  0  0
 17 18  2  0  0  0  0
 18 19  1  0  0  0  0
 18 22  1  0  0  0  0
 19 23  1  0  0  0  0
 20 19  2  0  0  0  0
 21 17  1  0  0  0  0
 21 20  1  0  0  0  0
 24 25  1  0  0  0  0
 25 31  1  0  0  0  0
 25 26  2  0  0  0  0
 26 32  1  0  0  0  0
 27 26  1  0  0  0  0
 28 17  1  0  0  0  0
 28 27  2  0  0  0  0
 29 24  2  0  0  0  0
 29 28  1  0  0  0  0
 30 24  1  0  0  0  0
 33 34  2  0  0  0  0
 33 35  1  0  0  0  0
 35 43  2  0  0  0  0
 35 36  1  0  0  0  0
 36 37  1  0  0  0  0
 36 38  2  0  0  0  0
 39 38  1  0  0  0  0
 39 40  1  0  0  0  0
 41 42  1  0  0  0  0
 41 39  2  0  0  0  0
 43 41  1  0  0  0  0
M  END
>  <minimizedAffinity>
-6.29929018

$$$$

 OpenBabel03252509193D

 43 46  0  0  1  0  0  0  0  0999 V2000
   36.5410   30.4770   37.9730 C   0  0  1  0  0  0  0  0  0  0  0  0
   36.9820   30.4160   36.5530 C   0  0  0  0  0  0  0  0  0  0  0  0
   36.8810   29.0470   35.9370 C   0  0  0  0  0  0  0  0  0  0  0  0
   35.5950   28.3420   36.2740 C   0  0  0  0  0  0  0  0  0  0  0  0
   35.2430   28.4600   37.7220 C   0  0  0  0  0  0  0  0  0  0  0  0
   36.4290   29.0370   38.5270 C   0  0  2  0  0  0  0  0  0  0  0  0
   35.5280   30.8760   38.0180 H   0  0  0  0  0  0  0  0  0  0  0  0
   36.4010   31.1270   35.9220 H   0  0  0  0  0  0  0  0  0  0  0  0
   38.0490   30.7240   36.4970 H   0  0  0  0  0  0  0  0  0  0  0  0
   36.9340   29.1620   34.8430 H   0  0  0  0  0  0  0  0  0  0  0  0
   37.7300   28.3840   36.2330 H   0  0  0  0  0  0  0  0  0  0  0  0
   35.7110   27.2720   36.0010 H   0  0  0  0  0  0  0  0  0  0  0  0
   34.7360   28.7980   35.7030 H   0  0  0  0  0  0  0  0  0  0  0  0
   34.3430   29.0390   37.9440 H   0  0  0  0  0  0  0  0  0  0  0  0
   35.0890   27.4470   38.1730 H   0  0  0  0  0  0  0  0  0  0  0  0
   37.3440   28.4670   38.2740 H   0  0  0  0  0  0  0  0  0  0  0  0
   39.5360   32.3170   40.0770 C   0  0  0  0  0  0  0  0  0  0  0  0
   38.3010   32.9320   40.2450 C   0  0  0  0  0  0  0  0  0  0  0  0
   37.2550   32.4230   39.6050 C   0  0  0  0  0  0  0  0  0  0  0  0
   37.3980   31.2890   38.7810 C   0  0  0  0  0  0  0  0  0  0  0  0
   39.1740   30.9230   38.9260 S   0  0  0  0  0  0  0  0  0  0  0  0
   38.2000   33.7970   40.8800 H   0  0  0  0  0  0  0  0  0  0  0  0
   36.2350   32.7640   39.6140 H   0  0  0  0  0  0  0  0  0  0  0  0
   42.5670   34.1610   41.2110 C   0  0  0  0  0  0  0  0  0  0  0  0
   43.1630   33.2000   42.0290 C   0  0  0  0  0  0  0  0  0  0  0  0
   42.5020   31.9740   42.1620 C   0  0  0  0  0  0  0  0  0  0  0  0
   41.3200   31.7790   41.4910 N   0  0  0  0  0  0  0  0  0  0  0  0
   40.7940   32.7370   40.7180 C   0  0  0  0  0  0  0  0  0  0  0  0
   41.4260   33.9270   40.5840 N   0  0  0  0  0  0  0  0  0  0  0  0
   43.0670   35.0990   41.1070 H   0  0  0  0  0  0  0  0  0  0  0  0
   44.0940   33.3230   42.5710 H   0  0  0  0  0  0  0  0  0  0  0  0
   42.8850   31.1500   42.7820 H   0  0  0  0  0  0  0  0  0  0  0  0
   36.0960   29.0480   39.9370 C   0  0  0  0  0  0  0  0  0  0  0  0
   35.0180   29.4980   40.3430 O   0  0  0  0  0  0  0  0  0  0  0  0
   36.5670   28.6990   41.2370 C   0  0  0  0  0  0  0  0  0  0  0  0
   36.5450   27.5000   41.9170 C   0  0  0  0  0  0  0  0  0  0  0  0
   35.8750   26.7640   41.4280 H   0  0  0  0  0  0  0  0  0  0  0  0
   37.0940   27.0360   43.0670 C   0  0  0  0  0  3  0  0  0  0  0  0
   37.8330   27.9940   43.6800 C   0  0  0  0  0  0  0  0  0  0  0  0
   38.3400   27.7610   44.6190 H   0  0  0  0  0  0  0  0  0  0  0  0
   38.0230   29.2760   43.2290 C   0  0  0  0  0  0  0  0  0  0  0  0
   38.6110   30.0140   43.7310 H   0  0  0  0  0  0  0  0  0  0  0  0
   37.3820   29.5540   42.0380 C   0  0  0  0  0  3  0  0  0  0  0  0
  1  7  1  1  0  0  0
  1  6  1  0  0  0  0
  1 20  1  0  0  0  0
  2  1  1  0  0  0  0
  3 11  1  0  0  0  0
  3  4  1  0  0  0  0
  3  2  1  0  0  0  0
  4  5  1  0  0  0  0
  5 14  1  0  0  0  0
  5 15  1  0  0  0  0
  5  6  1  0  0  0  0
  6 16  1  6  0  0  0
  6 33  1  0  0  0  0
  8  2  1  0  0  0  0
  9  2  1  0  0  0  0
 10  3  1  0  0  0  0
 12  4  1  0  0  0  0
 13  4  1  0  0  0  0
 17 18  2  0  0  0  0
 17 28  1  0  0  0  0
 18 22  1  0  0  0  0
 19 23  1  0  0  0  0
 19 18  1  0  0  0  0
 20 21  1  0  0  0  0
 20 19  2  0  0  0  0
 21 17  1  0  0  0  0
 24 25  1  0  0  0  0
 25 26  2  0  0  0  0
 25 31  1  0  0  0  0
 26 32  1  0  0  0  0
 27 26  1  0  0  0  0
 28 27  2  0  0  0  0
 29 28  1  0  0  0  0
 29 24  2  0  0  0  0
 30 24  1  0  0  0  0
 33 34  2  0  0  0  0
 33 35  1  0  0  0  0
 35 36  2  0  0  0  0
 35 43  1  0  0  0  0
 36 38  1  0  0  0  0
 37 36  1  0  0  0  0
 38 39  2  0  0  0  0
 39 40  1  0  0  0  0
 41 39  1  0  0  0  0
 41 42  1  0  0  0  0
 43 41  2  0  0  0  0
M  END
>  <minimizedAffinity>
-6.13046026

$$$$

 OpenBabel03252509193D

 43 46  0  0  1  0  0  0  0  0999 V2000
   36.0460   29.8750   37.8100 C   0  0  1  0  0  0  0  0  0  0  0  0
   35.7890   29.3180   36.4550 C   0  0  0  0  0  0  0  0  0  0  0  0
   34.8510   28.1400   36.4430 C   0  0  0  0  0  0  0  0  0  0  0  0
   33.6520   28.3330   37.3320 C   0  0  0  0  0  0  0  0  0  0  0  0
   34.0180   28.8930   38.6690 C   0  0  0  0  0  0  0  0  0  0  0  0
   35.5500   28.8650   38.8720 C   0  0  2  0  0  0  0  0  0  0  0  0
   35.4330   30.7630   37.9560 H   0  0  0  0  0  0  0  0  0  0  0  0
   35.3800   30.0970   35.7720 H   0  0  0  0  0  0  0  0  0  0  0  0
   36.7530   28.9740   36.0200 H   0  0  0  0  0  0  0  0  0  0  0  0
   34.4950   28.0000   35.4100 H   0  0  0  0  0  0  0  0  0  0  0  0
   35.3580   27.1900   36.7420 H   0  0  0  0  0  0  0  0  0  0  0  0
   33.1610   27.3460   37.4600 H   0  0  0  0  0  0  0  0  0  0  0  0
   32.9340   29.0680   36.8680 H   0  0  0  0  0  0  0  0  0  0  0  0
   33.6460   29.9000   38.8760 H   0  0  0  0  0  0  0  0  0  0  0  0
   33.6330   28.2360   39.4890 H   0  0  0  0  0  0  0  0  0  0  0  0
   35.9250   27.8520   38.6290 H   0  0  0  0  0  0  0  0  0  0  0  0
   39.7220   31.5710   38.4390 C   0  0  0  0  0  0  0  0  0  0  0  0
   39.7870   30.1960   38.2500 C   0  0  0  0  0  0  0  0  0  0  0  0
   38.6530   29.5380   38.0410 C   0  0  0  0  0  0  0  0  0  0  0  0
   37.4200   30.2200   38.0110 C   0  0  0  0  0  0  0  0  0  0  0  0
   37.9200   31.9430   38.3130 S   0  0  0  0  0  0  0  0  0  0  0  0
   40.7350   29.6830   38.2720 H   0  0  0  0  0  0  0  0  0  0  0  0
   38.5120   28.4850   37.8790 H   0  0  0  0  0  0  0  0  0  0  0  0
   42.4240   33.6680   39.9160 C   0  0  0  0  0  0  0  0  0  0  0  0
   43.0300   34.1610   38.7600 C   0  0  0  0  0  0  0  0  0  0  0  0
   42.4940   33.7520   37.5330 C   0  0  0  0  0  0  0  0  0  0  0  0
   41.4180   32.9000   37.5280 N   0  0  0  0  0  0  0  0  0  0  0  0
   40.8760   32.4580   38.6690 C   0  0  0  0  0  0  0  0  0  0  0  0
   41.3870   32.8480   39.8600 N   0  0  0  0  0  0  0  0  0  0  0  0
   42.8290   33.9760   40.8550 H   0  0  0  0  0  0  0  0  0  0  0  0
   43.8790   34.8330   38.7310 H   0  0  0  0  0  0  0  0  0  0  0  0
   42.8970   34.0810   36.5630 H   0  0  0  0  0  0  0  0  0  0  0  0
   35.8670   29.3210   40.2100 C   0  0  0  0  0  0  0  0  0  0  0  0
   35.4590   30.4080   40.6370 O   0  0  0  0  0  0  0  0  0  0  0  0
   36.5540   28.9810   41.4120 C   0  0  0  0  0  0  0  0  0  0  0  0
   36.4280   27.8930   42.2500 C   0  0  0  0  0  0  0  0  0  0  0  0
   35.5080   27.3140   42.0340 H   0  0  0  0  0  0  0  0  0  0  0  0
   37.1240   27.4080   43.3090 C   0  0  0  0  0  3  0  0  0  0  0  0
   38.1920   28.1950   43.5960 C   0  0  0  0  0  0  0  0  0  0  0  0
   38.8480   27.9240   44.4250 H   0  0  0  0  0  0  0  0  0  0  0  0
   38.5520   29.3390   42.9300 C   0  0  0  0  0  0  0  0  0  0  0  0
   39.3980   29.9430   43.1770 H   0  0  0  0  0  0  0  0  0  0  0  0
   37.7150   29.6660   41.8810 C   0  0  0  0  0  3  0  0  0  0  0  0
  1  7  1  1  0  0  0
  1 20  1  0  0  0  0
  1  6  1  0  0  0  0
  2  1  1  0  0  0  0
  3  2  1  0  0  0  0
  3 11  1  0  0  0  0
  3  4  1  0  0  0  0
  4 12  1  0  0  0  0
  4  5  1  0  0  0  0
  5  6  1  0  0  0  0
  5 14  1  0  0  0  0
  5 15  1  0  0  0  0
  6 16  1  6  0  0  0
  6 33  1  0  0  0  0
  8  2  1  0  0  0  0
  9  2  1  0  0  0  0
 10  3  1  0  0  0  0
 13  4  1  0  0  0  0
 17 28  1  0  0  0  0
 18 22  1  0  0  0  0
 18 17  2  0  0  0  0
 19 18  1  0  0  0  0
 20 19  2  0  0  0  0
 20 21  1  0  0  0  0
 21 17  1  0  0  0  0
 23 19  1  0  0  0  0
 24 30  1  0  0  0  0
 25 24  2  0  0  0  0
 26 25  1  0  0  0  0
 27 26  2  0  0  0  0
 27 28  1  0  0  0  0
 28 29  2  0  0  0  0
 29 24  1  0  0  0  0
 31 25  1  0  0  0  0
 32 26  1  0  0  0  0
 33 34  2  0  0  0  0
 33 35  1  0  0  0  0
 35 43  2  0  0  0  0
 35 36  1  0  0  0  0
 36 38  2  0  0  0  0
 37 36  1  0  0  0  0
 38 39  1  0  0  0  0
 39 40  1  0  0  0  0
 41 42  1  0  0  0  0
 41 39  2  0  0  0  0
 43 41  1  0  0  0  0
M  END
>  <minimizedAffinity>
-6.08958673

$$$$

 OpenBabel03252509193D

 43 46  0  0  1  0  0  0  0  0999 V2000
   39.7840   31.4600   41.6830 C   0  0  1  0  0  0  0  0  0  0  0  0
   41.2650   31.5090   41.8100 C   0  0  0  0  0  0  0  0  0  0  0  0
   41.9470   32.3140   40.7360 C   0  0  0  0  0  0  0  0  0  0  0  0
   41.2520   33.6160   40.4450 C   0  0  0  0  0  0  0  0  0  0  0  0
   39.7690   33.4580   40.3330 C   0  0  0  0  0  0  0  0  0  0  0  0
   39.3820   31.9630   40.2760 C   0  0  2  0  0  0  0  0  0  0  0  0
   39.3400   32.1730   42.3750 H   0  0  0  0  0  0  0  0  0  0  0  0
   41.5690   31.9190   42.8010 H   0  0  0  0  0  0  0  0  0  0  0  0
   41.6640   30.4730   41.7480 H   0  0  0  0  0  0  0  0  0  0  0  0
   42.9700   32.5390   41.0790 H   0  0  0  0  0  0  0  0  0  0  0  0
   42.0440   31.7480   39.7780 H   0  0  0  0  0  0  0  0  0  0  0  0
   41.6600   34.0140   39.4920 H   0  0  0  0  0  0  0  0  0  0  0  0
   41.4280   34.3510   41.2810 H   0  0  0  0  0  0  0  0  0  0  0  0
   39.1820   33.9510   41.1110 H   0  0  0  0  0  0  0  0  0  0  0  0
   39.4040   33.8600   39.3550 H   0  0  0  0  0  0  0  0  0  0  0  0
   40.0030   31.4610   39.5080 H   0  0  0  0  0  0  0  0  0  0  0  0
   38.6210   27.5330   41.8140 C   0  0  0  0  0  0  0  0  0  0  0  0
   38.0990   28.2860   42.8590 C   0  0  0  0  0  0  0  0  0  0  0  0
   38.4140   29.5750   42.9200 C   0  0  0  0  0  0  0  0  0  0  0  0
   39.2520   30.1580   41.9500 C   0  0  0  0  0  0  0  0  0  0  0  0
   39.6290   28.7490   40.8630 S   0  0  0  0  0  0  0  0  0  0  0  0
   37.4560   27.8320   43.5950 H   0  0  0  0  0  0  0  0  0  0  0  0
   38.1080   30.3030   43.6500 H   0  0  0  0  0  0  0  0  0  0  0  0
   37.2650   24.0640   41.8080 C   0  0  0  0  0  0  0  0  0  0  0  0
   38.1950   23.4250   40.9870 C   0  0  0  0  0  0  0  0  0  0  0  0
   39.2350   24.2050   40.4710 C   0  0  0  0  0  0  0  0  0  0  0  0
   39.2890   25.5390   40.7910 N   0  0  0  0  0  0  0  0  0  0  0  0
   38.3680   26.1000   41.5840 C   0  0  0  0  0  0  0  0  0  0  0  0
   37.3580   25.3540   42.0880 N   0  0  0  0  0  0  0  0  0  0  0  0
   36.4680   23.4730   42.2040 H   0  0  0  0  0  0  0  0  0  0  0  0
   38.1800   22.3750   40.7160 H   0  0  0  0  0  0  0  0  0  0  0  0
   40.0200   23.8000   39.8140 H   0  0  0  0  0  0  0  0  0  0  0  0
   37.9530   31.8420   40.0700 C   0  0  0  0  0  0  0  0  0  0  0  0
   37.1720   32.7360   40.4150 O   0  0  0  0  0  0  0  0  0  0  0  0
   36.9300   30.9940   39.5540 C   0  0  0  0  0  0  0  0  0  0  0  0
   36.7400   30.4650   38.2950 C   0  0  0  0  0  0  0  0  0  0  0  0
   37.3920   30.9540   37.5430 H   0  0  0  0  0  0  0  0  0  0  0  0
   35.9050   29.5430   37.7540 C   0  0  0  0  0  3  0  0  0  0  0  0
   35.0650   29.0340   38.6880 C   0  0  0  0  0  0  0  0  0  0  0  0
   34.3360   28.2740   38.3970 H   0  0  0  0  0  0  0  0  0  0  0  0
   35.0300   29.3810   40.0150 C   0  0  0  0  0  0  0  0  0  0  0  0
   34.3560   28.9650   40.7330 H   0  0  0  0  0  0  0  0  0  0  0  0
   35.9610   30.3370   40.3710 C   0  0  0  0  0  3  0  0  0  0  0  0
  1  2  1  0  0  0  0
  1 20  1  0  0  0  0
  1  7  1  1  0  0  0
  2  8  1  0  0  0  0
  3 10  1  0  0  0  0
  3  2  1  0  0  0  0
  4  3  1  0  0  0  0
  4 13  1  0  0  0  0
  5  4  1  0  0  0  0
  5 14  1  0  0  0  0
  6 16  1  6  0  0  0
  6  5  1  0  0  0  0
  6  1  1  0  0  0  0
  9  2  1  0  0  0  0
 11  3  1  0  0  0  0
 12  4  1  0  0  0  0
 15  5  1  0  0  0  0
 17 18  2  0  0  0  0
 18 19  1  0  0  0  0
 18 22  1  0  0  0  0
 19 23  1  0  0  0  0
 20 19  2  0  0  0  0
 21 17  1  0  0  0  0
 21 20  1  0  0  0  0
 24 29  1  0  0  0  0
 24 30  1  0  0  0  0
 25 24  2  0  0  0  0
 26 27  2  0  0  0  0
 26 25  1  0  0  0  0
 27 28  1  0  0  0  0
 28 17  1  0  0  0  0
 28 29  2  0  0  0  0
 31 25  1  0  0  0  0
 32 26  1  0  0  0  0
 33  6  1  0  0  0  0
 33 34  2  0  0  0  0
 35 33  1  0  0  0  0
 35 43  1  0  0  0  0
 36 35  2  0  0  0  0
 37 36  1  0  0  0  0
 38 36  1  0  0  0  0
 38 39  2  0  0  0  0
 39 41  1  0  0  0  0
 40 39  1  0  0  0  0
 41 43  2  0  0  0  0
 41 42  1  0  0  0  0
M  END
>  <minimizedAffinity>
-5.99129725

$$$$

 OpenBabel03252509193D

 43 46  0  0  1  0  0  0  0  0999 V2000
   34.5670   28.2970   38.4050 C   0  0  1  0  0  0  0  0  0  0  0  0
   33.5770   28.9100   37.4780 C   0  0  0  0  0  0  0  0  0  0  0  0
   33.4390   28.1890   36.1640 C   0  0  0  0  0  0  0  0  0  0  0  0
   33.3840   26.6930   36.3150 C   0  0  0  0  0  0  0  0  0  0  0  0
   34.4190   26.1780   37.2630 C   0  0  0  0  0  0  0  0  0  0  0  0
   35.4360   27.2880   37.6180 C   0  0  2  0  0  0  0  0  0  0  0  0
   34.0420   27.6990   39.1470 H   0  0  0  0  0  0  0  0  0  0  0  0
   32.5710   28.9710   37.9520 H   0  0  0  0  0  0  0  0  0  0  0  0
   33.8970   29.9510   37.2500 H   0  0  0  0  0  0  0  0  0  0  0  0
   32.5000   28.5220   35.6920 H   0  0  0  0  0  0  0  0  0  0  0  0
   34.2640   28.4390   35.4540 H   0  0  0  0  0  0  0  0  0  0  0  0
   33.5370   26.2440   35.3120 H   0  0  0  0  0  0  0  0  0  0  0  0
   32.3880   26.3770   36.7360 H   0  0  0  0  0  0  0  0  0  0  0  0
   34.0370   25.7350   38.1850 H   0  0  0  0  0  0  0  0  0  0  0  0
   35.0490   25.3950   36.7700 H   0  0  0  0  0  0  0  0  0  0  0  0
   35.7960   27.7550   36.6810 H   0  0  0  0  0  0  0  0  0  0  0  0
   37.1760   31.2020   39.6460 C   0  0  0  0  0  0  0  0  0  0  0  0
   36.4040   30.6910   40.6820 C   0  0  0  0  0  0  0  0  0  0  0  0
   35.5190   29.7440   40.3950 C   0  0  0  0  0  0  0  0  0  0  0  0
   35.3700   29.2730   39.0760 C   0  0  0  0  0  0  0  0  0  0  0  0
   36.5910   30.2700   38.1670 S   0  0  0  0  0  0  0  0  0  0  0  0
   36.5270   31.0540   41.6900 H   0  0  0  0  0  0  0  0  0  0  0  0
   34.8420   29.2390   41.0610 H   0  0  0  0  0  0  0  0  0  0  0  0
   39.2090   34.1610   40.6420 C   0  0  0  0  0  0  0  0  0  0  0  0
   40.2890   34.0380   39.7670 C   0  0  0  0  0  0  0  0  0  0  0  0
   40.2780   32.9520   38.8850 C   0  0  0  0  0  0  0  0  0  0  0  0
   39.2220   32.0750   38.9230 N   0  0  0  0  0  0  0  0  0  0  0  0
   38.2110   32.2420   39.7840 C   0  0  0  0  0  0  0  0  0  0  0  0
   38.2130   33.2890   40.6410 N   0  0  0  0  0  0  0  0  0  0  0  0
   39.2130   34.9870   41.3180 H   0  0  0  0  0  0  0  0  0  0  0  0
   41.1360   34.7120   39.7130 H   0  0  0  0  0  0  0  0  0  0  0  0
   41.0800   32.7620   38.1560 H   0  0  0  0  0  0  0  0  0  0  0  0
   36.4800   26.7360   38.4570 C   0  0  0  0  0  0  0  0  0  0  0  0
   37.6730   26.8240   38.1460 O   0  0  0  0  0  0  0  0  0  0  0  0
   36.7330   26.0340   39.6720 C   0  0  0  0  0  0  0  0  0  0  0  0
   37.0720   26.4900   40.9280 C   0  0  0  0  0  0  0  0  0  0  0  0
   37.3810   27.5540   40.9070 H   0  0  0  0  0  0  0  0  0  0  0  0
   37.1800   25.9300   42.1590 C   0  0  0  0  0  3  0  0  0  0  0  0
   36.8800   24.6080   42.1240 C   0  0  0  0  0  0  0  0  0  0  0  0
   36.9200   24.0250   43.0470 H   0  0  0  0  0  0  0  0  0  0  0  0
   36.5140   23.8930   41.0110 C   0  0  0  0  0  0  0  0  0  0  0  0
   36.2830   22.8500   41.0100 H   0  0  0  0  0  0  0  0  0  0  0  0
   36.4620   24.6440   39.8530 C   0  0  0  0  0  3  0  0  0  0  0  0
  1 20  1  0  0  0  0
  1  7  1  1  0  0  0
  2  8  1  0  0  0  0
  2  1  1  0  0  0  0
  3  4  1  0  0  0  0
  3  2  1  0  0  0  0
  4 13  1  0  0  0  0
  4  5  1  0  0  0  0
  5  6  1  0  0  0  0
  5 14  1  0  0  0  0
  6 16  1  6  0  0  0
  6  1  1  0  0  0  0
  6 33  1  0  0  0  0
  9  2  1  0  0  0  0
 10  3  1  0  0  0  0
 11  3  1  0  0  0  0
 12  4  1  0  0  0  0
 15  5  1  0  0  0  0
 17 28  1  0  0  0  0
 17 18  2  0  0  0  0
 18 22  1  0  0  0  0
 19 18  1  0  0  0  0
 19 23  1  0  0  0  0
 20 19  2  0  0  0  0
 21 20  1  0  0  0  0
 21 17  1  0  0  0  0
 24 30  1  0  0  0  0
 25 24  2  0  0  0  0
 26 27  2  0  0  0  0
 26 25  1  0  0  0  0
 27 28  1  0  0  0  0
 28 29  2  0  0  0  0
 29 24  1  0  0  0  0
 31 25  1  0  0  0  0
 32 26  1  0  0  0  0
 33 35  1  0  0  0  0
 34 33  2  0  0  0  0
 35 43  2  0  0  0  0
 35 36  1  0  0  0  0
 36 38  2  0  0  0  0
 37 36  1  0  0  0  0
 39 38  1  0  0  0  0
 39 40  1  0  0  0  0
 41 39  2  0  0  0  0
 42 41  1  0  0  0  0
 43 41  1  0  0  0  0
M  END
>  <minimizedAffinity>
-5.94778728

$$$$

 OpenBabel03252509193D

 43 46  0  0  1  0  0  0  0  0999 V2000
   37.2080   27.8450   42.1040 C   0  0  1  0  0  0  0  0  0  0  0  0
   37.2230   26.3920   42.4260 C   0  0  0  0  0  0  0  0  0  0  0  0
   38.5930   25.8440   42.7240 C   0  0  0  0  0  0  0  0  0  0  0  0
   39.4050   26.7410   43.6190 C   0  0  0  0  0  0  0  0  0  0  0  0
   39.3250   28.1770   43.2090 C   0  0  0  0  0  0  0  0  0  0  0  0
   38.6550   28.3130   41.8230 C   0  0  2  0  0  0  0  0  0  0  0  0
   36.8960   28.4050   42.9840 H   0  0  0  0  0  0  0  0  0  0  0  0
   36.5600   26.1670   43.2920 H   0  0  0  0  0  0  0  0  0  0  0  0
   36.8260   25.8280   41.5530 H   0  0  0  0  0  0  0  0  0  0  0  0
   38.4670   24.8740   43.2320 H   0  0  0  0  0  0  0  0  0  0  0  0
   39.1840   25.6480   41.7970 H   0  0  0  0  0  0  0  0  0  0  0  0
   40.4590   26.3970   43.5790 H   0  0  0  0  0  0  0  0  0  0  0  0
   39.0190   26.6940   44.6770 H   0  0  0  0  0  0  0  0  0  0  0  0
   38.8250   28.8430   43.9160 H   0  0  0  0  0  0  0  0  0  0  0  0
   40.3500   28.5960   43.0460 H   0  0  0  0  0  0  0  0  0  0  0  0
   39.1450   27.6130   41.1180 H   0  0  0  0  0  0  0  0  0  0  0  0
   35.0840   28.2100   38.6200 C   0  0  0  0  0  0  0  0  0  0  0  0
   34.6690   29.1020   39.6010 C   0  0  0  0  0  0  0  0  0  0  0  0
   35.2850   29.0710   40.7770 C   0  0  0  0  0  0  0  0  0  0  0  0
   36.3310   28.1580   41.0170 C   0  0  0  0  0  0  0  0  0  0  0  0
   36.4400   27.2650   39.4360 S   0  0  0  0  0  0  0  0  0  0  0  0
   33.8690   29.7980   39.4080 H   0  0  0  0  0  0  0  0  0  0  0  0
   35.0990   29.6770   41.6450 H   0  0  0  0  0  0  0  0  0  0  0  0
   33.1710   27.2770   35.5620 C   0  0  0  0  0  0  0  0  0  0  0  0
   33.7190   28.1640   34.6340 C   0  0  0  0  0  0  0  0  0  0  0  0
   34.7080   29.0410   35.0940 C   0  0  0  0  0  0  0  0  0  0  0  0
   35.0850   28.9860   36.4130 N   0  0  0  0  0  0  0  0  0  0  0  0
   34.5240   28.1140   37.2600 C   0  0  0  0  0  0  0  0  0  0  0  0
   33.5670   27.2620   36.8250 N   0  0  0  0  0  0  0  0  0  0  0  0
   32.4150   26.6060   35.2170 H   0  0  0  0  0  0  0  0  0  0  0  0
   33.4440   28.2310   33.5880 H   0  0  0  0  0  0  0  0  0  0  0  0
   35.2040   29.7790   34.4460 H   0  0  0  0  0  0  0  0  0  0  0  0
   38.6810   29.7020   41.4090 C   0  0  0  0  0  0  0  0  0  0  0  0
   39.1130   30.5900   42.1530 O   0  0  0  0  0  0  0  0  0  0  0  0
   38.3690   30.5930   40.3410 C   0  0  0  0  0  0  0  0  0  0  0  0
   38.4250   30.4220   38.9740 C   0  0  0  0  0  0  0  0  0  0  0  0
   38.9910   29.5100   38.6970 H   0  0  0  0  0  0  0  0  0  0  0  0
   38.0130   31.1370   37.8970 C   0  0  0  0  0  3  0  0  0  0  0  0
   37.4050   32.2890   38.2760 C   0  0  0  0  0  0  0  0  0  0  0  0
   37.0160   32.9660   37.5120 H   0  0  0  0  0  0  0  0  0  0  0  0
   37.2160   32.7130   39.5670 C   0  0  0  0  0  0  0  0  0  0  0  0
   36.7340   33.6270   39.8410 H   0  0  0  0  0  0  0  0  0  0  0  0
   37.7070   31.8440   40.5220 C   0  0  0  0  0  3  0  0  0  0  0  0
  1  2  1  0  0  0  0
  1  7  1  1  0  0  0
  2  3  1  0  0  0  0
  2  8  1  0  0  0  0
  3 10  1  0  0  0  0
  3  4  1  0  0  0  0
  4 13  1  0  0  0  0
  5  4  1  0  0  0  0
  5 14  1  0  0  0  0
  6 16  1  6  0  0  0
  6  1  1  0  0  0  0
  6  5  1  0  0  0  0
  9  2  1  0  0  0  0
 11  3  1  0  0  0  0
 12  4  1  0  0  0  0
 15  5  1  0  0  0  0
 17 21  1  0  0  0  0
 17 18  2  0  0  0  0
 18 19  1  0  0  0  0
 19 20  2  0  0  0  0
 19 23  1  0  0  0  0
 20  1  1  0  0  0  0
 21 20  1  0  0  0  0
 22 18  1  0  0  0  0
 24 29  1  0  0  0  0
 25 26  1  0  0  0  0
 25 24  2  0  0  0  0
 26 27  2  0  0  0  0
 27 28  1  0  0  0  0
 28 17  1  0  0  0  0
 29 28  2  0  0  0  0
 30 24  1  0  0  0  0
 31 25  1  0  0  0  0
 32 26  1  0  0  0  0
 33  6  1  0  0  0  0
 33 34  2  0  0  0  0
 35 43  1  0  0  0  0
 35 33  1  0  0  0  0
 36 35  2  0  0  0  0
 37 36  1  0  0  0  0
 38 39  2  0  0  0  0
 38 36  1  0  0  0  0
 39 41  1  0  0  0  0
 40 39  1  0  0  0  0
 41 42  1  0  0  0  0
 41 43  2  0  0  0  0
M  END
>  <minimizedAffinity>
-5.88097382

$$$$

 OpenBabel03252509193D

 43 46  0  0  1  0  0  0  0  0999 V2000
   35.6490   27.1860   38.6020 C   0  0  1  0  0  0  0  0  0  0  0  0
   35.4640   27.1880   37.1250 C   0  0  0  0  0  0  0  0  0  0  0  0
   36.0170   25.9690   36.4360 C   0  0  0  0  0  0  0  0  0  0  0  0
   35.6930   24.6880   37.1540 C   0  0  0  0  0  0  0  0  0  0  0  0
   35.9140   24.7890   38.6290 C   0  0  0  0  0  0  0  0  0  0  0  0
   36.6730   26.0890   38.9790 C   0  0  2  0  0  0  0  0  0  0  0  0
   34.7190   26.8800   39.0800 H   0  0  0  0  0  0  0  0  0  0  0  0
   34.3870   27.2830   36.8570 H   0  0  0  0  0  0  0  0  0  0  0  0
   35.9880   28.0720   36.7010 H   0  0  0  0  0  0  0  0  0  0  0  0
   35.5760   25.9210   35.4270 H   0  0  0  0  0  0  0  0  0  0  0  0
   37.1250   26.0240   36.3010 H   0  0  0  0  0  0  0  0  0  0  0  0
   36.3360   23.8880   36.7310 H   0  0  0  0  0  0  0  0  0  0  0  0
   34.6050   24.4250   37.0160 H   0  0  0  0  0  0  0  0  0  0  0  0
   35.0160   24.7200   39.2470 H   0  0  0  0  0  0  0  0  0  0  0  0
   36.6050   23.9810   38.9790 H   0  0  0  0  0  0  0  0  0  0  0  0
   37.5650   26.1700   38.3280 H   0  0  0  0  0  0  0  0  0  0  0  0
   37.3400   30.7860   39.5810 C   0  0  0  0  0  0  0  0  0  0  0  0
   36.1910   30.5120   40.3140 C   0  0  0  0  0  0  0  0  0  0  0  0
   35.5550   29.3710   40.0760 C   0  0  0  0  0  0  0  0  0  0  0  0
   36.0350   28.4660   39.1100 C   0  0  0  0  0  0  0  0  0  0  0  0
   37.5160   29.3170   38.4810 S   0  0  0  0  0  0  0  0  0  0  0  0
   35.8320   31.2090   41.0530 H   0  0  0  0  0  0  0  0  0  0  0  0
   34.6590   28.9970   40.5400 H   0  0  0  0  0  0  0  0  0  0  0  0
   38.7020   34.1600   40.3820 C   0  0  0  0  0  0  0  0  0  0  0  0
   39.9570   34.0820   39.7760 C   0  0  0  0  0  0  0  0  0  0  0  0
   40.2820   32.8850   39.1300 C   0  0  0  0  0  0  0  0  0  0  0  0
   39.3670   31.8620   39.1240 N   0  0  0  0  0  0  0  0  0  0  0  0
   38.1760   31.9920   39.7210 C   0  0  0  0  0  0  0  0  0  0  0  0
   37.8520   33.1460   40.3490 N   0  0  0  0  0  0  0  0  0  0  0  0
   38.4480   35.0720   40.8770 H   0  0  0  0  0  0  0  0  0  0  0  0
   40.7000   34.8710   39.7640 H   0  0  0  0  0  0  0  0  0  0  0  0
   41.2450   32.7190   38.6220 H   0  0  0  0  0  0  0  0  0  0  0  0
   36.9590   26.1130   40.3990 C   0  0  0  0  0  0  0  0  0  0  0  0
   36.6950   25.1490   41.1280 O   0  0  0  0  0  0  0  0  0  0  0  0
   37.5010   26.9040   41.4540 C   0  0  0  0  0  0  0  0  0  0  0  0
   38.6330   27.6890   41.5070 C   0  0  0  0  0  0  0  0  0  0  0  0
   39.3070   27.4950   40.6480 H   0  0  0  0  0  0  0  0  0  0  0  0
   39.1430   28.5850   42.3890 C   0  0  0  0  0  3  0  0  0  0  0  0
   38.3330   28.7270   43.4680 C   0  0  0  0  0  0  0  0  0  0  0  0
   38.6160   29.4210   44.2620 H   0  0  0  0  0  0  0  0  0  0  0  0
   37.1490   28.0670   43.6780 C   0  0  0  0  0  0  0  0  0  0  0  0
   36.5280   28.1960   44.5390 H   0  0  0  0  0  0  0  0  0  0  0  0
   36.8020   27.1970   42.6630 C   0  0  0  0  0  3  0  0  0  0  0  0
  1  6  1  0  0  0  0
  1  7  1  1  0  0  0
  1 20  1  0  0  0  0
  2  1  1  0  0  0  0
  3  2  1  0  0  0  0
  3  4  1  0  0  0  0
  4  5  1  0  0  0  0
  5  6  1  0  0  0  0
  5 15  1  0  0  0  0
  5 14  1  0  0  0  0
  6 16  1  6  0  0  0
  6 33  1  0  0  0  0
  8  2  1  0  0  0  0
  9  2  1  0  0  0  0
 10  3  1  0  0  0  0
 11  3  1  0  0  0  0
 12  4  1  0  0  0  0
 13  4  1  0  0  0  0
 17 28  1  0  0  0  0
 17 18  2  0  0  0  0
 18 22  1  0  0  0  0
 19 18  1  0  0  0  0
 19 23  1  0  0  0  0
 20 19  2  0  0  0  0
 21 20  1  0  0  0  0
 21 17  1  0  0  0  0
 24 30  1  0  0  0  0
 25 24  2  0  0  0  0
 26 25  1  0  0  0  0
 27 26  2  0  0  0  0
 27 28  1  0  0  0  0
 28 29  2  0  0  0  0
 29 24  1  0  0  0  0
 31 25  1  0  0  0  0
 32 26  1  0  0  0  0
 33 34  2  0  0  0  0
 33 35  1  0  0  0  0
 35 36  2  0  0  0  0
 35 43  1  0  0  0  0
 36 38  1  0  0  0  0
 37 36  1  0  0  0  0
 38 39  2  0  0  0  0
 39 41  1  0  0  0  0
 39 40  1  0  0  0  0
 41 42  1  0  0  0  0
 43 41  2  0  0  0  0
M  END
>  <minimizedAffinity>
-5.80274916

$$$$

 OpenBabel03252509193D

 43 46  0  0  1  0  0  0  0  0999 V2000
   39.2380   26.6860   41.6440 C   0  0  1  0  0  0  0  0  0  0  0  0
   40.2730   25.6610   41.9510 C   0  0  0  0  0  0  0  0  0  0  0  0
   39.7670   24.5060   42.7730 C   0  0  0  0  0  0  0  0  0  0  0  0
   38.4290   23.9960   42.3120 C   0  0  0  0  0  0  0  0  0  0  0  0
   37.4620   25.1020   42.0330 C   0  0  0  0  0  0  0  0  0  0  0  0
   38.0100   26.4500   42.5540 C   0  0  2  0  0  0  0  0  0  0  0  0
   38.8720   26.5330   40.6300 H   0  0  0  0  0  0  0  0  0  0  0  0
   40.7240   25.2550   41.0170 H   0  0  0  0  0  0  0  0  0  0  0  0
   41.0920   26.1420   42.5290 H   0  0  0  0  0  0  0  0  0  0  0  0
   40.4960   23.6850   42.6890 H   0  0  0  0  0  0  0  0  0  0  0  0
   39.6890   24.7590   43.8580 H   0  0  0  0  0  0  0  0  0  0  0  0
   38.0240   23.3350   43.1070 H   0  0  0  0  0  0  0  0  0  0  0  0
   38.5380   23.4230   41.3470 H   0  0  0  0  0  0  0  0  0  0  0  0
   37.1630   25.2160   40.9890 H   0  0  0  0  0  0  0  0  0  0  0  0
   36.5210   24.9580   42.6210 H   0  0  0  0  0  0  0  0  0  0  0  0
   38.3410   26.3210   43.6030 H   0  0  0  0  0  0  0  0  0  0  0  0
   40.6210   30.5200   41.2300 C   0  0  0  0  0  0  0  0  0  0  0  0
   40.5790   30.1010   42.5540 C   0  0  0  0  0  0  0  0  0  0  0  0
   40.1420   28.8730   42.8090 C   0  0  0  0  0  0  0  0  0  0  0  0
   39.7350   28.0220   41.7630 C   0  0  0  0  0  0  0  0  0  0  0  0
   39.9900   29.0630   40.2930 S   0  0  0  0  0  0  0  0  0  0  0  0
   40.8950   30.7580   43.3490 H   0  0  0  0  0  0  0  0  0  0  0  0
   40.0400   28.3850   43.7620 H   0  0  0  0  0  0  0  0  0  0  0  0
   40.8850   34.0230   39.9910 C   0  0  0  0  0  0  0  0  0  0  0  0
   42.2710   34.1610   39.9010 C   0  0  0  0  0  0  0  0  0  0  0  0
   43.0490   33.0590   40.2720 C   0  0  0  0  0  0  0  0  0  0  0  0
   42.4220   31.9150   40.6990 N   0  0  0  0  0  0  0  0  0  0  0  0
   41.0870   31.8380   40.7650 C   0  0  0  0  0  0  0  0  0  0  0  0
   40.3260   32.8990   40.4090 N   0  0  0  0  0  0  0  0  0  0  0  0
   40.2870   34.8620   39.7100 H   0  0  0  0  0  0  0  0  0  0  0  0
   42.7960   35.0500   39.5680 H   0  0  0  0  0  0  0  0  0  0  0  0
   44.1500   33.0630   40.2390 H   0  0  0  0  0  0  0  0  0  0  0  0
   37.0130   27.4830   42.3590 C   0  0  0  0  0  0  0  0  0  0  0  0
   36.2020   27.7740   43.2460 O   0  0  0  0  0  0  0  0  0  0  0  0
   36.5140   28.4440   41.4320 C   0  0  0  0  0  0  0  0  0  0  0  0
   36.4990   29.8220   41.4760 C   0  0  0  0  0  0  0  0  0  0  0  0
   36.7410   30.2030   42.4890 H   0  0  0  0  0  0  0  0  0  0  0  0
   36.1970   30.8100   40.5970 C   0  0  0  0  0  3  0  0  0  0  0  0
   35.8200   30.3010   39.3970 C   0  0  0  0  0  0  0  0  0  0  0  0
   35.5500   30.9820   38.5870 H   0  0  0  0  0  0  0  0  0  0  0  0
   35.7390   28.9690   39.0770 C   0  0  0  0  0  0  0  0  0  0  0  0
   35.4390   28.5920   38.1230 H   0  0  0  0  0  0  0  0  0  0  0  0
   36.0900   28.1210   40.1090 C   0  0  0  0  0  3  0  0  0  0  0  0
  1  7  1  6  0  0  0
  1 20  1  0  0  0  0
  1  2  1  0  0  0  0
  1  6  1  0  0  0  0
  2  9  1  0  0  0  0
  2  3  1  0  0  0  0
  3 11  1  0  0  0  0
  4  3  1  0  0  0  0
  4 12  1  0  0  0  0
  5  4  1  0  0  0  0
  5  6  1  0  0  0  0
  5 15  1  0  0  0  0
  6 16  1  1  0  0  0
  8  2  1  0  0  0  0
 10  3  1  0  0  0  0
 13  4  1  0  0  0  0
 14  5  1  0  0  0  0
 17 18  2  0  0  0  0
 18 19  1  0  0  0  0
 18 22  1  0  0  0  0
 19 23  1  0  0  0  0
 20 19  2  0  0  0  0
 21 17  1  0  0  0  0
 21 20  1  0  0  0  0
 24 29  1  0  0  0  0
 25 24  2  0  0  0  0
 25 26  1  0  0  0  0
 26 27  2  0  0  0  0
 27 28  1  0  0  0  0
 28 17  1  0  0  0  0
 29 28  2  0  0  0  0
 30 24  1  0  0  0  0
 31 25  1  0  0  0  0
 32 26  1  0  0  0  0
 33  6  1  0  0  0  0
 33 34  2  0  0  0  0
 35 36  1  0  0  0  0
 35 33  1  0  0  0  0
 36 37  1  0  0  0  0
 38 36  2  0  0  0  0
 39 38  1  0  0  0  0
 40 39  1  0  0  0  0
 41 39  2  0  0  0  0
 41 43  1  0  0  0  0
 42 41  1  0  0  0  0
 43 35  2  0  0  0  0
M  END
>  <minimizedAffinity>
-5.64727497

$$$$

 OpenBabel03252509193D

 43 46  0  0  1  0  0  0  0  0999 V2000
   36.2940   25.8670   39.3390 C   0  0  1  0  0  0  0  0  0  0  0  0
   36.0050   25.4140   37.9520 C   0  0  0  0  0  0  0  0  0  0  0  0
   36.2060   23.9380   37.7340 C   0  0  0  0  0  0  0  0  0  0  0  0
   35.6450   23.0960   38.8480 C   0  0  0  0  0  0  0  0  0  0  0  0
   35.9930   23.6340   40.1990 C   0  0  0  0  0  0  0  0  0  0  0  0
   37.0590   24.7480   40.0860 C   0  0  2  0  0  0  0  0  0  0  0  0
   35.3570   25.9790   39.8830 H   0  0  0  0  0  0  0  0  0  0  0  0
   34.9640   25.6730   37.6550 H   0  0  0  0  0  0  0  0  0  0  0  0
   36.6890   25.9450   37.2530 H   0  0  0  0  0  0  0  0  0  0  0  0
   35.6910   23.6600   36.8000 H   0  0  0  0  0  0  0  0  0  0  0  0
   37.2820   23.6700   37.6020 H   0  0  0  0  0  0  0  0  0  0  0  0
   36.0510   22.0690   38.7360 H   0  0  0  0  0  0  0  0  0  0  0  0
   34.5190   23.0780   38.7980 H   0  0  0  0  0  0  0  0  0  0  0  0
   35.1520   24.0000   40.7920 H   0  0  0  0  0  0  0  0  0  0  0  0
   36.5000   22.8490   40.8150 H   0  0  0  0  0  0  0  0  0  0  0  0
   37.8940   24.3820   39.4570 H   0  0  0  0  0  0  0  0  0  0  0  0
   37.6600   29.7190   39.6260 C   0  0  0  0  0  0  0  0  0  0  0  0
   38.6530   28.8190   39.2570 C   0  0  0  0  0  0  0  0  0  0  0  0
   38.3250   27.5380   39.1370 C   0  0  0  0  0  0  0  0  0  0  0  0
   37.0060   27.1080   39.3770 C   0  0  0  0  0  0  0  0  0  0  0  0
   36.1630   28.6590   39.8160 S   0  0  0  0  0  0  0  0  0  0  0  0
   39.6600   29.1580   39.0730 H   0  0  0  0  0  0  0  0  0  0  0  0
   38.9550   26.7100   38.8660 H   0  0  0  0  0  0  0  0  0  0  0  0
   37.3270   33.4280   39.5550 C   0  0  0  0  0  0  0  0  0  0  0  0
   38.4840   33.8040   40.2390 C   0  0  0  0  0  0  0  0  0  0  0  0
   39.3180   32.7790   40.6960 C   0  0  0  0  0  0  0  0  0  0  0  0
   38.9650   31.4750   40.4550 N   0  0  0  0  0  0  0  0  0  0  0  0
   37.8410   31.1720   39.7920 C   0  0  0  0  0  0  0  0  0  0  0  0
   37.0280   32.1560   39.3460 N   0  0  0  0  0  0  0  0  0  0  0  0
   36.6860   34.2070   39.2040 H   0  0  0  0  0  0  0  0  0  0  0  0
   38.7910   34.8240   40.4450 H   0  0  0  0  0  0  0  0  0  0  0  0
   40.2530   32.9660   41.2460 H   0  0  0  0  0  0  0  0  0  0  0  0
   37.4480   25.1810   41.4130 C   0  0  0  0  0  0  0  0  0  0  0  0
   36.6070   25.4130   42.2890 O   0  0  0  0  0  0  0  0  0  0  0  0
   38.5630   25.4900   42.2440 C   0  0  0  0  0  0  0  0  0  0  0  0
   39.7820   24.8640   42.3940 C   0  0  0  0  0  0  0  0  0  0  0  0
   39.7860   23.8570   41.9290 H   0  0  0  0  0  0  0  0  0  0  0  0
   40.9450   25.1590   43.0280 C   0  0  0  0  0  3  0  0  0  0  0  0
   40.8690   26.3570   43.6590 C   0  0  0  0  0  0  0  0  0  0  0  0
   41.7360   26.7290   44.2090 H   0  0  0  0  0  0  0  0  0  0  0  0
   39.7780   27.1890   43.6800 C   0  0  0  0  0  0  0  0  0  0  0  0
   39.7430   28.1300   44.1850 H   0  0  0  0  0  0  0  0  0  0  0  0
   38.6920   26.7100   42.9740 C   0  0  0  0  0  3  0  0  0  0  0  0
  1 20  1  0  0  0  0
  1  7  1  1  0  0  0
  1  6  1  0  0  0  0
  2  1  1  0  0  0  0
  3  2  1  0  0  0  0
  3  4  1  0  0  0  0
  4  5  1  0  0  0  0
  5 14  1  0  0  0  0
  5 15  1  0  0  0  0
  6 16  1  6  0  0  0
  6  5  1  0  0  0  0
  6 33  1  0  0  0  0
  8  2  1  0  0  0  0
  9  2  1  0  0  0  0
 10  3  1  0  0  0  0
 11  3  1  0  0  0  0
 12  4  1  0  0  0  0
 13  4  1  0  0  0  0
 17 28  1  0  0  0  0
 17 21  1  0  0  0  0
 18 17  2  0  0  0  0
 19 18  1  0  0  0  0
 19 20  2  0  0  0  0
 20 21  1  0  0  0  0
 22 18  1  0  0  0  0
 23 19  1  0  0  0  0
 24 25  1  0  0  0  0
 25 31  1  0  0  0  0
 25 26  2  0  0  0  0
 26 32  1  0  0  0  0
 27 26  1  0  0  0  0
 28 27  2  0  0  0  0
 29 24  2  0  0  0  0
 29 28  1  0  0  0  0
 30 24  1  0  0  0  0
 33 35  1  0  0  0  0
 33 34  2  0  0  0  0
 35 36  2  0  0  0  0
 35 43  1  0  0  0  0
 36 38  1  0  0  0  0
 37 36  1  0  0  0  0
 38 39  2  0  0  0  0
 39 41  1  0  0  0  0
 39 40  1  0  0  0  0
 41 42  1  0  0  0  0
 43 41  2  0  0  0  0
M  END
>  <minimizedAffinity>
-5.52630377

$$$$
