
 OpenBabel03242516533D

 45 48  0  0  1  0  0  0  0  0999 V2000
   47.8640   32.8940   41.7180 C   0  0  1  0  0  0  0  0  0  0  0  0
   47.5100   32.2180   40.4670 C   0  0  0  0  0  0  0  0  0  0  0  0
   48.5320   32.6940   39.4330 C   0  0  0  0  0  0  0  0  0  0  0  0
   48.2170   34.1450   39.1550 C   0  0  0  0  0  0  0  0  0  0  0  0
   48.1790   35.0080   40.3710 C   0  0  0  0  0  0  0  0  0  0  0  0
   47.6860   34.4140   41.6130 C   0  0  1  0  0  0  0  0  0  0  0  0
   48.9800   32.7990   41.8750 H   0  0  0  0  0  0  0  0  0  0  0  0
   47.5670   31.1220   40.6220 H   0  0  0  0  0  0  0  0  0  0  0  0
   46.4840   32.4130   40.1040 H   0  0  0  0  0  0  0  0  0  0  0  0
   49.5350   32.5640   39.8650 H   0  0  0  0  0  0  0  0  0  0  0  0
   48.3690   32.1580   38.4830 H   0  0  0  0  0  0  0  0  0  0  0  0
   47.2050   34.1700   38.6700 H   0  0  0  0  0  0  0  0  0  0  0  0
   48.9360   34.5670   38.4350 H   0  0  0  0  0  0  0  0  0  0  0  0
   47.5630   35.8980   40.1250 H   0  0  0  0  0  0  0  0  0  0  0  0
   49.2150   35.4330   40.4930 H   0  0  0  0  0  0  0  0  0  0  0  0
   48.2950   34.8220   42.4720 H   0  0  0  0  0  0  0  0  0  0  0  0
   45.4560   31.0380   43.9500 C   0  0  0  0  0  0  0  0  0  0  0  0
   46.1230   31.5400   42.8390 C   0  0  0  0  0  0  0  0  0  0  0  0
   47.2170   32.4060   42.9200 C   0  0  0  0  0  0  0  0  0  0  0  0
   47.5860   32.7230   44.1560 N   0  0  0  0  0  0  0  0  0  0  0  0
   46.9530   32.2480   45.2590 C   0  0  0  0  0  0  0  0  0  0  0  0
   45.9040   31.4180   45.1590 N   0  0  0  0  0  0  0  0  0  0  0  0
   44.6130   30.3690   43.8550 H   0  0  0  0  0  0  0  0  0  0  0  0
   45.7360   31.2080   41.8960 H   0  0  0  0  0  0  0  0  0  0  0  0
   47.2580   32.5130   46.2660 H   0  0  0  0  0  0  0  0  0  0  0  0
   46.3030   34.8180   41.9470 C   0  0  0  0  0  0  0  0  0  0  0  0
   45.8920   35.4920   43.0840 C   0  0  0  0  0  0  0  0  0  0  0  0
   44.5250   35.7880   43.1640 C   0  0  0  0  0  0  0  0  0  0  0  0
   43.7160   35.3900   42.1250 C   0  0  0  0  0  0  0  0  0  0  0  0
   44.1410   34.7250   41.0090 C   0  0  0  0  0  0  0  0  0  0  0  0
   45.4690   34.4380   40.9300 N   0  0  0  0  0  0  0  0  0  0  0  0
   46.6450   35.7330   43.7900 H   0  0  0  0  0  0  0  0  0  0  0  0
   44.1930   36.3040   44.0280 H   0  0  0  0  0  0  0  0  0  0  0  0
   42.6530   35.6370   42.2240 H   0  0  0  0  0  0  0  0  0  0  0  0
   43.2080   34.3430   39.9240 C   0  0  0  0  0  0  0  0  0  0  0  0
   42.5920   35.2940   39.3540 O   0  0  0  0  0  0  0  0  0  0  0  0
   42.9480   32.9670   39.4560 C   0  0  0  0  0  0  0  0  0  0  0  0
   42.4650   32.5630   38.2330 C   0  0  0  0  0  0  0  0  0  0  0  0
   42.3260   33.4560   37.6050 H   0  0  0  0  0  0  0  0  0  0  0  0
   42.2310   31.2520   37.9060 C   0  0  0  0  0  3  0  0  0  0  0  0
   42.5010   30.3020   38.8680 C   0  0  0  0  0  0  0  0  0  0  0  0
   42.3000   29.2720   38.5550 H   0  0  0  0  0  0  0  0  0  0  0  0
   42.9880   30.6010   40.1190 C   0  0  0  0  0  0  0  0  0  0  0  0
   43.1820   29.8140   40.8400 H   0  0  0  0  0  0  0  0  0  0  0  0
   43.2040   31.9550   40.3910 C   0  0  0  0  0  3  0  0  0  0  0  0
  1  7  1  1  0  0  0
  1 19  1  0  0  0  0
  2  8  1  0  0  0  0
  2  1  1  0  0  0  0
  3 10  1  0  0  0  0
  3  2  1  0  0  0  0
  4  3  1  0  0  0  0
  4  5  1  0  0  0  0
  5 15  1  0  0  0  0
  5  6  1  0  0  0  0
  6  1  1  0  0  0  0
  6 26  1  0  0  0  0
  6 16  1  1  0  0  0
  9  2  1  0  0  0  0
 11  3  1  0  0  0  0
 12  4  1  0  0  0  0
 13  4  1  0  0  0  0
 14  5  1  0  0  0  0
 17 22  1  0  0  0  0
 18 19  1  0  0  0  0
 18 17  2  0  0  0  0
 19 20  2  0  0  0  0
 20 21  1  0  0  0  0
 21 25  1  0  0  0  0
 22 21  2  0  0  0  0
 23 17  1  0  0  0  0
 24 18  1  0  0  0  0
 26 27  1  0  0  0  0
 27 28  2  0  0  0  0
 27 32  1  0  0  0  0
 28 33  1  0  0  0  0
 29 34  1  0  0  0  0
 29 28  1  0  0  0  0
 30 29  2  0  0  0  0
 31 30  1  0  0  0  0
 31 26  2  0  0  0  0
 35 30  1  0  0  0  0
 36 35  2  0  0  0  0
 37 35  1  0  0  0  0
 37 45  1  0  0  0  0
 38 37  2  0  0  0  0
 39 38  1  0  0  0  0
 40 38  1  0  0  0  0
 40 41  2  0  0  0  0
 41 43  1  0  0  0  0
 42 41  1  0  0  0  0
 43 45  2  0  0  0  0
 43 44  1  0  0  0  0
M  END
>  <minimizedAffinity>
-5.19999456

>  <minimizedRMSD>
0.45331648

$$$$
