
 OpenBabel03242523543D

 45 48  0  0  1  0  0  0  0  0999 V2000
   42.8090   34.5030   38.7530 C   0  0  1  0  0  0  0  0  0  0  0  0
   42.9670   35.1870   40.1010 C   0  0  1  0  0  0  0  0  0  0  0  0
   41.6790   35.4380   40.6220 O   0  0  0  0  0  0  0  0  0  0  0  0
   40.7530   35.7750   39.6330 C   0  0  0  0  0  0  0  0  0  0  0  0
   40.4300   34.5960   38.7360 C   0  0  2  0  0  0  0  0  0  0  0  0
   41.6300   33.5970   38.8760 C   0  0  1  0  0  0  0  0  0  0  0  0
   43.7400   33.9760   38.4530 H   0  0  0  0  0  0  0  0  0  0  0  0
   43.5680   36.0960   40.0600 H   0  0  0  0  0  0  0  0  0  0  0  0
   41.0570   36.6690   39.0530 H   0  0  0  0  0  0  0  0  0  0  0  0
   39.8290   36.0150   40.1710 H   0  0  0  0  0  0  0  0  0  0  0  0
   39.4980   34.0780   39.0400 H   0  0  0  0  0  0  0  0  0  0  0  0
   41.4210   33.3560   39.9730 H   0  0  0  0  0  0  0  0  0  0  0  0
   42.5990   35.4490   37.7390 O   0  0  0  0  0  0  0  0  0  0  0  0
   43.4580   35.7910   37.4060 H   0  0  0  0  0  0  0  0  0  0  0  0
   40.4440   34.9970   37.4100 O   0  0  0  0  0  0  0  0  0  0  0  0
   39.7720   34.5330   36.8480 H   0  0  0  0  0  0  0  0  0  0  0  0
   43.4830   34.1990   40.9610 O   0  0  0  0  0  0  0  0  0  0  0  0
   44.5910   34.3360   41.6990 C   0  0  0  0  0  0  0  0  0  0  0  0
   45.8520   34.4430   41.0950 C   0  0  0  0  0  0  0  0  0  0  0  0
   46.9670   34.5840   41.9020 C   0  0  0  0  0  0  0  0  0  0  0  0
   46.8070   34.6160   43.2770 N   0  0  0  0  0  0  0  0  0  0  0  0
   45.5740   34.5090   43.8230 C   0  0  0  0  0  0  0  0  0  0  0  0
   44.4750   34.3700   43.0380 N   0  0  0  0  0  0  0  0  0  0  0  0
   45.9820   34.4190   40.0330 H   0  0  0  0  0  0  0  0  0  0  0  0
   45.4380   34.5330   44.9040 H   0  0  0  0  0  0  0  0  0  0  0  0
   48.3460   34.6830   41.3360 C   0  0  0  0  0  0  0  0  0  0  0  0
   49.0720   36.0150   41.5070 C   0  0  0  0  0  0  0  0  0  0  0  0
   49.4940   34.6970   42.1850 C   0  0  0  0  0  0  0  0  0  0  0  0
   48.3910   34.2330   40.3100 H   0  0  0  0  0  0  0  0  0  0  0  0
   48.6200   36.7890   42.1230 H   0  0  0  0  0  0  0  0  0  0  0  0
   49.7380   36.2910   40.6640 H   0  0  0  0  0  0  0  0  0  0  0  0
   50.4280   34.2040   41.8270 H   0  0  0  0  0  0  0  0  0  0  0  0
   49.4350   34.6920   43.2930 H   0  0  0  0  0  0  0  0  0  0  0  0
   41.4730   32.6450   37.9470 O   0  0  0  0  0  0  0  0  0  0  0  0
   40.7900   31.4930   37.9600 C   0  0  0  0  0  0  0  0  0  0  0  0
   39.5850   31.4020   37.4110 O   0  0  0  0  0  0  0  0  0  0  0  0
   41.0740   30.1130   38.4940 C   0  0  0  0  0  0  0  0  0  0  0  0
   40.9500   29.0300   37.7080 C   0  0  0  0  0  0  0  0  0  0  0  0
   40.6490   29.0200   36.6920 H   0  0  0  0  0  0  0  0  0  0  0  0
   41.2290   27.7460   38.2050 C   0  0  0  0  0  3  0  0  0  0  0  0
   41.6340   27.5580   39.5060 C   0  0  0  0  0  0  0  0  0  0  0  0
   41.8430   26.5650   39.8700 H   0  0  0  0  0  0  0  0  0  0  0  0
   41.7770   28.6290   40.3560 C   0  0  0  0  0  0  0  0  0  0  0  0
   42.0890   28.5720   41.3860 H   0  0  0  0  0  0  0  0  0  0  0  0
   41.4890   29.8400   39.8020 C   0  0  0  0  0  3  0  0  0  0  0  0
  1  7  1  6  0  0  0
  1  6  1  0  0  0  0
  1  2  1  0  0  0  0
  2  8  1  6  0  0  0
  2  3  1  0  0  0  0
  2 17  1  0  0  0  0
  4 10  1  0  0  0  0
  4  3  1  0  0  0  0
  5  6  1  0  0  0  0
  5 11  1  1  0  0  0
  5  4  1  0  0  0  0
  6 12  1  1  0  0  0
  9  4  1  0  0  0  0
 13  1  1  0  0  0  0
 14 13  1  0  0  0  0
 15  5  1  0  0  0  0
 16 15  1  0  0  0  0
 17 18  1  0  0  0  0
 18 23  1  0  0  0  0
 19 18  2  0  0  0  0
 19 20  1  0  0  0  0
 20 21  2  0  0  0  0
 21 22  1  0  0  0  0
 22 25  1  0  0  0  0
 23 22  2  0  0  0  0
 24 19  1  0  0  0  0
 26 27  1  0  0  0  0
 26 20  1  0  0  0  0
 26 28  1  0  0  0  0
 27 30  1  0  0  0  0
 27 28  1  0  0  0  0
 28 33  1  0  0  0  0
 29 26  1  0  0  0  0
 31 27  1  0  0  0  0
 32 28  1  0  0  0  0
 34 35  1  0  0  0  0
 34  6  1  0  0  0  0
 35 37  1  0  0  0  0
 36 35  2  0  0  0  0
 37 45  1  0  0  0  0
 38 40  1  0  0  0  0
 38 37  2  0  0  0  0
 39 38  1  0  0  0  0
 40 41  2  0  0  0  0
 41 42  1  0  0  0  0
 41 43  1  0  0  0  0
 43 44  1  0  0  0  0
 45 43  2  0  0  0  0
M  END
>  <minimizedAffinity>
-5.64789486

>  <minimizedRMSD>
0.286881596

$$$$
