
 OpenBabel03242523543D

 45 48  0  0  1  0  0  0  0  0999 V2000
   42.8150   34.5230   38.7360 C   0  0  1  0  0  0  0  0  0  0  0  0
   42.9600   35.1810   40.0980 C   0  0  1  0  0  0  0  0  0  0  0  0
   41.6670   35.4040   40.6200 O   0  0  0  0  0  0  0  0  0  0  0  0
   40.7400   35.7480   39.6340 C   0  0  0  0  0  0  0  0  0  0  0  0
   40.4350   34.5840   38.7120 C   0  0  2  0  0  0  0  0  0  0  0  0
   41.6480   33.5980   38.8370 C   0  0  1  0  0  0  0  0  0  0  0  0
   43.7540   34.0140   38.4290 H   0  0  0  0  0  0  0  0  0  0  0  0
   43.5490   36.0990   40.0780 H   0  0  0  0  0  0  0  0  0  0  0  0
   41.0340   36.6580   39.0740 H   0  0  0  0  0  0  0  0  0  0  0  0
   39.8110   35.9650   40.1740 H   0  0  0  0  0  0  0  0  0  0  0  0
   39.5100   34.0480   39.0030 H   0  0  0  0  0  0  0  0  0  0  0  0
   41.4390   33.3320   39.9280 H   0  0  0  0  0  0  0  0  0  0  0  0
   42.5960   35.4860   37.7400 O   0  0  0  0  0  0  0  0  0  0  0  0
   43.4510   35.8460   37.4170 H   0  0  0  0  0  0  0  0  0  0  0  0
   40.4480   35.0120   37.3960 O   0  0  0  0  0  0  0  0  0  0  0  0
   39.7840   34.5510   36.8220 H   0  0  0  0  0  0  0  0  0  0  0  0
   43.4860   34.1820   40.9390 O   0  0  0  0  0  0  0  0  0  0  0  0
   44.5900   34.3190   41.6840 C   0  0  0  0  0  0  0  0  0  0  0  0
   45.8540   34.4320   41.0860 C   0  0  0  0  0  0  0  0  0  0  0  0
   46.9650   34.5720   41.8990 C   0  0  0  0  0  0  0  0  0  0  0  0
   46.7980   34.5990   43.2740 N   0  0  0  0  0  0  0  0  0  0  0  0
   45.5630   34.4870   43.8140 C   0  0  0  0  0  0  0  0  0  0  0  0
   44.4670   34.3480   43.0220 N   0  0  0  0  0  0  0  0  0  0  0  0
   45.9900   34.4120   40.0250 H   0  0  0  0  0  0  0  0  0  0  0  0
   45.4210   34.5050   44.8940 H   0  0  0  0  0  0  0  0  0  0  0  0
   48.3460   34.6760   41.3410 C   0  0  0  0  0  0  0  0  0  0  0  0
   49.0640   36.0130   41.5100 C   0  0  0  0  0  0  0  0  0  0  0  0
   49.4890   34.7010   42.1960 C   0  0  0  0  0  0  0  0  0  0  0  0
   48.4000   34.2220   40.3170 H   0  0  0  0  0  0  0  0  0  0  0  0
   48.6040   36.7880   42.1200 H   0  0  0  0  0  0  0  0  0  0  0  0
   49.7330   36.2890   40.6690 H   0  0  0  0  0  0  0  0  0  0  0  0
   50.4290   34.2120   41.8460 H   0  0  0  0  0  0  0  0  0  0  0  0
   49.4250   34.7000   43.3030 H   0  0  0  0  0  0  0  0  0  0  0  0
   41.5070   32.6630   37.8880 O   0  0  0  0  0  0  0  0  0  0  0  0
   40.8740   31.4830   37.8890 C   0  0  0  0  0  0  0  0  0  0  0  0
   39.6180   31.3760   37.4740 O   0  0  0  0  0  0  0  0  0  0  0  0
   41.2700   30.0830   38.2800 C   0  0  0  0  0  0  0  0  0  0  0  0
   41.9340   29.8480   39.4250 C   0  0  0  0  0  0  0  0  0  0  0  0
   42.2470   30.5710   40.1330 H   0  0  0  0  0  0  0  0  0  0  0  0
   42.2890   28.5400   39.7930 C   0  0  0  0  0  3  0  0  0  0  0  0
   41.9700   27.4640   38.9980 C   0  0  0  0  0  0  0  0  0  0  0  0
   42.2500   26.4670   39.2980 H   0  0  0  0  0  0  0  0  0  0  0  0
   41.2910   27.6450   37.8180 C   0  0  0  0  0  0  0  0  0  0  0  0
   41.0010   26.8600   37.1370 H   0  0  0  0  0  0  0  0  0  0  0  0
   40.9810   28.9400   37.5290 C   0  0  0  0  0  3  0  0  0  0  0  0
  1  7  1  6  0  0  0
  1  6  1  0  0  0  0
  1  2  1  0  0  0  0
  2  8  1  6  0  0  0
  2  3  1  0  0  0  0
  2 17  1  0  0  0  0
  4 10  1  0  0  0  0
  4  3  1  0  0  0  0
  5  6  1  0  0  0  0
  5 11  1  1  0  0  0
  5  4  1  0  0  0  0
  6 12  1  1  0  0  0
  9  4  1  0  0  0  0
 13  1  1  0  0  0  0
 14 13  1  0  0  0  0
 15  5  1  0  0  0  0
 16 15  1  0  0  0  0
 17 18  1  0  0  0  0
 18 23  1  0  0  0  0
 19 18  2  0  0  0  0
 19 20  1  0  0  0  0
 20 21  2  0  0  0  0
 21 22  1  0  0  0  0
 22 25  1  0  0  0  0
 23 22  2  0  0  0  0
 24 19  1  0  0  0  0
 26 27  1  0  0  0  0
 26 20  1  0  0  0  0
 26 28  1  0  0  0  0
 27 30  1  0  0  0  0
 27 28  1  0  0  0  0
 28 33  1  0  0  0  0
 29 26  1  0  0  0  0
 31 27  1  0  0  0  0
 32 28  1  0  0  0  0
 34 35  1  0  0  0  0
 34  6  1  0  0  0  0
 35 37  1  0  0  0  0
 36 35  2  0  0  0  0
 37 38  1  0  0  0  0
 38 40  2  0  0  0  0
 38 39  1  0  0  0  0
 41 42  1  0  0  0  0
 41 40  1  0  0  0  0
 43 41  2  0  0  0  0
 44 43  1  0  0  0  0
 45 43  1  0  0  0  0
 45 37  2  0  0  0  0
M  END
>  <minimizedAffinity>
-5.60907078

>  <minimizedRMSD>
0.0919015259

$$$$
