
 OpenBabel03242523543D

 45 48  0  0  1  0  0  0  0  0999 V2000
   42.8100   34.3190   38.9800 C   0  0  1  0  0  0  0  0  0  0  0  0
   43.0380   35.1660   40.2210 C   0  0  1  0  0  0  0  0  0  0  0  0
   41.7830   35.6250   40.6780 O   0  0  0  0  0  0  0  0  0  0  0  0
   40.9020   35.9160   39.6350 C   0  0  0  0  0  0  0  0  0  0  0  0
   40.4540   34.6640   38.9070 C   0  0  2  0  0  0  0  0  0  0  0  0
   41.5380   33.5720   39.2080 C   0  0  1  0  0  0  0  0  0  0  0  0
   43.6780   33.6580   38.7750 H   0  0  0  0  0  0  0  0  0  0  0  0
   43.7340   35.9910   40.0640 H   0  0  0  0  0  0  0  0  0  0  0  0
   41.3030   36.6810   38.9410 H   0  0  0  0  0  0  0  0  0  0  0  0
   40.0090   36.3280   40.1170 H   0  0  0  0  0  0  0  0  0  0  0  0
   39.4720   34.2980   39.2640 H   0  0  0  0  0  0  0  0  0  0  0  0
   41.3020   33.5120   40.3240 H   0  0  0  0  0  0  0  0  0  0  0  0
   42.7070   35.1290   37.8390 O   0  0  0  0  0  0  0  0  0  0  0  0
   43.5990   35.3250   37.4770 H   0  0  0  0  0  0  0  0  0  0  0  0
   40.5160   34.8690   37.5390 O   0  0  0  0  0  0  0  0  0  0  0  0
   39.7990   34.4050   37.0360 H   0  0  0  0  0  0  0  0  0  0  0  0
   43.4400   34.2600   41.2200 O   0  0  0  0  0  0  0  0  0  0  0  0
   44.5910   34.3390   41.9000 C   0  0  0  0  0  0  0  0  0  0  0  0
   45.8140   34.4860   41.2310 C   0  0  0  0  0  0  0  0  0  0  0  0
   46.9770   34.5630   41.9780 C   0  0  0  0  0  0  0  0  0  0  0  0
   46.8990   34.4950   43.3590 N   0  0  0  0  0  0  0  0  0  0  0  0
   45.7000   34.3530   43.9690 C   0  0  0  0  0  0  0  0  0  0  0  0
   44.5540   34.2750   43.2420 N   0  0  0  0  0  0  0  0  0  0  0  0
   45.8820   34.5390   40.1640 H   0  0  0  0  0  0  0  0  0  0  0  0
   45.6270   34.2970   45.0540 H   0  0  0  0  0  0  0  0  0  0  0  0
   48.3200   34.6980   41.3400 C   0  0  0  0  0  0  0  0  0  0  0  0
   49.0510   36.0240   41.5340 C   0  0  0  0  0  0  0  0  0  0  0  0
   49.5150   34.6770   42.1210 C   0  0  0  0  0  0  0  0  0  0  0  0
   48.3080   34.2990   40.2920 H   0  0  0  0  0  0  0  0  0  0  0  0
   48.6320   36.7640   42.2130 H   0  0  0  0  0  0  0  0  0  0  0  0
   49.6660   36.3460   40.6700 H   0  0  0  0  0  0  0  0  0  0  0  0
   50.4290   34.2080   41.6860 H   0  0  0  0  0  0  0  0  0  0  0  0
   49.5210   34.6170   43.2290 H   0  0  0  0  0  0  0  0  0  0  0  0
   41.2810   32.5200   38.4190 O   0  0  0  0  0  0  0  0  0  0  0  0
   40.3100   31.5990   38.4540 C   0  0  0  0  0  0  0  0  0  0  0  0
   39.8540   31.0370   37.3400 O   0  0  0  0  0  0  0  0  0  0  0  0
   39.5140   30.9560   39.5610 C   0  0  0  0  0  0  0  0  0  0  0  0
   38.4410   31.5730   40.0860 C   0  0  0  0  0  0  0  0  0  0  0  0
   38.0610   32.5210   39.8090 H   0  0  0  0  0  0  0  0  0  0  0  0
   37.6930   30.9650   41.1080 C   0  0  0  0  0  3  0  0  0  0  0  0
   38.0340   29.7270   41.6010 C   0  0  0  0  0  0  0  0  0  0  0  0
   37.4480   29.2770   42.3860 H   0  0  0  0  0  0  0  0  0  0  0  0
   39.1220   29.0520   41.1020 C   0  0  0  0  0  0  0  0  0  0  0  0
   39.4600   28.0810   41.4310 H   0  0  0  0  0  0  0  0  0  0  0  0
   39.7960   29.7040   40.1150 C   0  0  0  0  0  3  0  0  0  0  0  0
  1  7  1  6  0  0  0
  1  6  1  0  0  0  0
  1  2  1  0  0  0  0
  2  8  1  6  0  0  0
  2  3  1  0  0  0  0
  2 17  1  0  0  0  0
  4 10  1  0  0  0  0
  4  3  1  0  0  0  0
  5  6  1  0  0  0  0
  5 11  1  1  0  0  0
  5  4  1  0  0  0  0
  6 12  1  1  0  0  0
  9  4  1  0  0  0  0
 13  1  1  0  0  0  0
 14 13  1  0  0  0  0
 15  5  1  0  0  0  0
 16 15  1  0  0  0  0
 17 18  1  0  0  0  0
 18 23  1  0  0  0  0
 19 18  2  0  0  0  0
 19 20  1  0  0  0  0
 20 21  2  0  0  0  0
 21 22  1  0  0  0  0
 22 25  1  0  0  0  0
 23 22  2  0  0  0  0
 24 19  1  0  0  0  0
 26 27  1  0  0  0  0
 26 20  1  0  0  0  0
 26 28  1  0  0  0  0
 27 28  1  0  0  0  0
 27 30  1  0  0  0  0
 28 33  1  0  0  0  0
 29 26  1  0  0  0  0
 31 27  1  0  0  0  0
 32 28  1  0  0  0  0
 34 35  1  0  0  0  0
 34  6  1  0  0  0  0
 35 37  1  0  0  0  0
 36 35  2  0  0  0  0
 37 38  2  0  0  0  0
 37 45  1  0  0  0  0
 38 40  1  0  0  0  0
 39 38  1  0  0  0  0
 40 41  2  0  0  0  0
 41 42  1  0  0  0  0
 43 44  1  0  0  0  0
 43 41  1  0  0  0  0
 45 43  2  0  0  0  0
M  END
>  <minimizedAffinity>
-6.38700724

>  <minimizedRMSD>
2.00031233

$$$$
