
 OpenBabel03252506213D

 35 37  0  0  0  0  0  0  0  0999 V2000
   44.6570   35.0080   41.9640 C   0  0  0  0  0  0  0  0  0  0  0  0
   43.5560   35.0740   41.0990 C   0  0  0  0  0  0  0  0  0  0  0  0
   43.6060   34.3200   39.9190 C   0  0  0  0  0  0  0  0  0  0  0  0
   44.7090   33.5690   39.6750 N   0  0  0  0  0  0  0  0  0  0  0  0
   45.7420   33.5340   40.5330 C   0  0  0  0  0  0  0  0  0  0  0  0
   45.7240   34.2480   41.6750 N   0  0  0  0  0  0  0  0  0  0  0  0
   42.6970   35.6780   41.3190 H   0  0  0  0  0  0  0  0  0  0  0  0
   42.7880   34.3290   39.2110 H   0  0  0  0  0  0  0  0  0  0  0  0
   48.3470   35.0300   40.1270 Cl  0  0  0  0  0  0  0  0  0  0  0  0
   48.1320   33.3140   39.9880 C   0  0  0  0  0  0  0  0  0  0  0  0
   46.9070   32.6870   40.1870 C   0  0  0  0  0  0  0  0  0  0  0  0
   46.7170   31.3400   40.0820 C   0  0  0  0  0  0  0  0  0  0  0  0
   47.8050   30.5790   39.7630 C   0  0  0  0  0  0  0  0  0  0  0  0
   49.0650   31.0890   39.5430 C   0  0  0  0  0  0  0  0  0  0  0  0
   49.1710   32.4610   39.6690 C   0  0  0  0  0  0  0  0  0  0  0  0
   45.7560   30.9160   40.2460 H   0  0  0  0  0  0  0  0  0  0  0  0
   47.6810   29.5010   39.6740 H   0  0  0  0  0  0  0  0  0  0  0  0
   49.9420   30.4960   39.2890 H   0  0  0  0  0  0  0  0  0  0  0  0
   50.1440   32.9270   39.5080 H   0  0  0  0  0  0  0  0  0  0  0  0
   44.6100   35.7950   43.2000 C   0  0  0  0  0  3  0  0  0  0  0  0
   45.1450   36.9840   43.2040 C   0  0  0  0  0  3  0  0  0  0  0  0
   45.1250   37.8270   44.4310 C   0  0  0  0  0  0  0  0  0  0  0  0
   46.0290   37.5490   45.0410 H   0  0  0  0  0  0  0  0  0  0  0  0
   44.2120   37.6670   45.0340 H   0  0  0  0  0  0  0  0  0  0  0  0
   45.3280   39.2010   44.0430 N   0  0  0  0  0  0  0  0  0  0  0  0
   45.7210   39.4720   43.1140 H   0  0  0  0  0  0  0  0  0  0  0  0
   44.9850   40.2390   44.9530 C   0  0  0  0  0  0  0  0  0  0  0  0
   44.6000   41.4880   44.5170 C   0  0  0  0  0  0  0  0  0  0  0  0
   44.5440   41.7260   43.4610 H   0  0  0  0  0  0  0  0  0  0  0  0
   44.2580   42.5280   45.3700 C   0  0  0  0  0  3  0  0  0  0  0  0
   44.3050   42.3010   46.7300 C   0  0  0  0  0  0  0  0  0  0  0  0
   44.0390   43.1090   47.4070 H   0  0  0  0  0  0  0  0  0  0  0  0
   44.6890   41.0580   47.1730 C   0  0  0  0  0  0  0  0  0  0  0  0
   44.7200   40.8970   48.2610 H   0  0  0  0  0  0  0  0  0  0  0  0
   45.0210   40.0480   46.3190 C   0  0  0  0  0  3  0  0  0  0  0  0
  1 20  1  0  0  0  0
  2  7  1  0  0  0  0
  2  1  2  0  0  0  0
  3  2  1  0  0  0  0
  4  3  2  0  0  0  0
  4  5  1  0  0  0  0
  5  6  2  0  0  0  0
  6  1  1  0  0  0  0
  8  3  1  0  0  0  0
 10  9  1  0  0  0  0
 10 11  1  0  0  0  0
 11  5  1  0  0  0  0
 12 11  2  0  0  0  0
 12 16  1  0  0  0  0
 13 12  1  0  0  0  0
 14 15  1  0  0  0  0
 14 13  2  0  0  0  0
 15 10  2  0  0  0  0
 17 13  1  0  0  0  0
 18 14  1  0  0  0  0
 19 15  1  0  0  0  0
 20 21  2  0  0  0  0
 21 22  1  0  0  0  0
 22 24  1  0  0  0  0
 22 23  1  0  0  0  0
 25 22  1  0  0  0  0
 25 27  1  0  0  0  0
 26 25  1  0  0  0  0
 27 35  1  0  0  0  0
 28 27  2  0  0  0  0
 28 30  1  0  0  0  0
 29 28  1  0  0  0  0
 30 31  2  0  0  0  0
 31 33  1  0  0  0  0
 31 32  1  0  0  0  0
 33 34  1  0  0  0  0
 35 33  2  0  0  0  0
M  END
>  <minimizedAffinity>
-3.86052656

>  <minimizedRMSD>
1.99677968

$$$$
