
 OpenBabel03252506213D

 35 37  0  0  0  0  0  0  0  0999 V2000
   44.7610   35.1580   42.1060 C   0  0  0  0  0  0  0  0  0  0  0  0
   43.6200   35.2410   41.2960 C   0  0  0  0  0  0  0  0  0  0  0  0
   43.5900   34.4670   40.1290 C   0  0  0  0  0  0  0  0  0  0  0  0
   44.6580   33.6820   39.8430 N   0  0  0  0  0  0  0  0  0  0  0  0
   45.7320   33.6320   40.6480 C   0  0  0  0  0  0  0  0  0  0  0  0
   45.7900   34.3640   41.7770 N   0  0  0  0  0  0  0  0  0  0  0  0
   42.7890   35.8730   41.5480 H   0  0  0  0  0  0  0  0  0  0  0  0
   42.7370   34.4870   39.4620 H   0  0  0  0  0  0  0  0  0  0  0  0
   48.3640   35.0430   40.1310 Cl  0  0  0  0  0  0  0  0  0  0  0  0
   48.0890   33.3340   40.0090 C   0  0  0  0  0  0  0  0  0  0  0  0
   46.8540   32.7470   40.2600 C   0  0  0  0  0  0  0  0  0  0  0  0
   46.6180   31.4070   40.1700 C   0  0  0  0  0  0  0  0  0  0  0  0
   47.6680   30.6100   39.8100 C   0  0  0  0  0  0  0  0  0  0  0  0
   48.9330   31.0790   39.5380 C   0  0  0  0  0  0  0  0  0  0  0  0
   49.0870   32.4480   39.6520 C   0  0  0  0  0  0  0  0  0  0  0  0
   45.6520   31.0140   40.3740 H   0  0  0  0  0  0  0  0  0  0  0  0
   47.5060   29.5360   39.7310 H   0  0  0  0  0  0  0  0  0  0  0  0
   49.7800   30.4570   39.2500 H   0  0  0  0  0  0  0  0  0  0  0  0
   50.0680   32.8820   39.4500 H   0  0  0  0  0  0  0  0  0  0  0  0
   44.7970   35.9670   43.3280 C   0  0  0  0  0  3  0  0  0  0  0  0
   45.1580   37.2160   43.2400 C   0  0  0  0  0  3  0  0  0  0  0  0
   45.2120   38.0830   44.4500 C   0  0  0  0  0  0  0  0  0  0  0  0
   46.2080   37.9060   44.9430 H   0  0  0  0  0  0  0  0  0  0  0  0
   44.4010   37.8540   45.1660 H   0  0  0  0  0  0  0  0  0  0  0  0
   45.2340   39.4600   44.0220 N   0  0  0  0  0  0  0  0  0  0  0  0
   45.4790   39.7450   43.0480 H   0  0  0  0  0  0  0  0  0  0  0  0
   44.9100   40.4840   44.9550 C   0  0  0  0  0  0  0  0  0  0  0  0
   44.5410   41.7470   44.5480 C   0  0  0  0  0  0  0  0  0  0  0  0
   44.4840   42.0090   43.4980 H   0  0  0  0  0  0  0  0  0  0  0  0
   44.2190   42.7740   45.4240 C   0  0  0  0  0  3  0  0  0  0  0  0
   44.2680   42.5180   46.7790 C   0  0  0  0  0  0  0  0  0  0  0  0
   44.0160   43.3150   47.4740 H   0  0  0  0  0  0  0  0  0  0  0  0
   44.6350   41.2610   47.1930 C   0  0  0  0  0  0  0  0  0  0  0  0
   44.6680   41.0760   48.2770 H   0  0  0  0  0  0  0  0  0  0  0  0
   44.9490   40.2640   46.3160 C   0  0  0  0  0  3  0  0  0  0  0  0
  1 20  1  0  0  0  0
  2  7  1  0  0  0  0
  2  1  2  0  0  0  0
  3  2  1  0  0  0  0
  4  3  2  0  0  0  0
  4  5  1  0  0  0  0
  5  6  2  0  0  0  0
  6  1  1  0  0  0  0
  8  3  1  0  0  0  0
 10  9  1  0  0  0  0
 10 11  1  0  0  0  0
 11  5  1  0  0  0  0
 12 11  2  0  0  0  0
 12 16  1  0  0  0  0
 13 12  1  0  0  0  0
 14 15  1  0  0  0  0
 14 13  2  0  0  0  0
 15 10  2  0  0  0  0
 17 13  1  0  0  0  0
 18 14  1  0  0  0  0
 19 15  1  0  0  0  0
 21 20  2  0  0  0  0
 21 22  1  0  0  0  0
 22 23  1  0  0  0  0
 22 24  1  0  0  0  0
 25 22  1  0  0  0  0
 25 27  1  0  0  0  0
 26 25  1  0  0  0  0
 27 35  1  0  0  0  0
 28 27  2  0  0  0  0
 28 30  1  0  0  0  0
 29 28  1  0  0  0  0
 30 31  2  0  0  0  0
 31 33  1  0  0  0  0
 31 32  1  0  0  0  0
 33 34  1  0  0  0  0
 35 33  2  0  0  0  0
M  END
>  <minimizedAffinity>
-3.86119843

>  <minimizedRMSD>
1.79580092

$$$$
