
 OpenBabel03252506213D

 35 37  0  0  0  0  0  0  0  0999 V2000
   44.8220   34.9920   42.1580 C   0  0  0  0  0  0  0  0  0  0  0  0
   43.7640   35.0600   41.2410 C   0  0  0  0  0  0  0  0  0  0  0  0
   43.8520   34.2750   40.0840 C   0  0  0  0  0  0  0  0  0  0  0  0
   44.9480   33.4950   39.9100 N   0  0  0  0  0  0  0  0  0  0  0  0
   45.9390   33.4600   40.8160 C   0  0  0  0  0  0  0  0  0  0  0  0
   45.8840   34.2030   41.9380 N   0  0  0  0  0  0  0  0  0  0  0  0
   42.9090   35.6870   41.4050 H   0  0  0  0  0  0  0  0  0  0  0  0
   43.0680   34.2830   39.3370 H   0  0  0  0  0  0  0  0  0  0  0  0
   48.3280   34.8310   39.5480 Cl  0  0  0  0  0  0  0  0  0  0  0  0
   48.2280   33.1490   39.9650 C   0  0  0  0  0  0  0  0  0  0  0  0
   47.1000   32.5810   40.5460 C   0  0  0  0  0  0  0  0  0  0  0  0
   47.0010   31.2620   40.8810 C   0  0  0  0  0  0  0  0  0  0  0  0
   48.0840   30.4700   40.6240 C   0  0  0  0  0  0  0  0  0  0  0  0
   49.2520   30.9220   40.0520 C   0  0  0  0  0  0  0  0  0  0  0  0
   49.2680   32.2690   39.7440 C   0  0  0  0  0  0  0  0  0  0  0  0
   46.1130   30.8820   41.3240 H   0  0  0  0  0  0  0  0  0  0  0  0
   48.0310   29.4130   40.8820 H   0  0  0  0  0  0  0  0  0  0  0  0
   50.1230   30.3030   39.8410 H   0  0  0  0  0  0  0  0  0  0  0  0
   50.1670   32.6900   39.2890 H   0  0  0  0  0  0  0  0  0  0  0  0
   44.7350   35.8120   43.3710 C   0  0  0  0  0  3  0  0  0  0  0  0
   45.1800   37.0360   43.3290 C   0  0  0  0  0  3  0  0  0  0  0  0
   45.1160   37.9130   44.5320 C   0  0  0  0  0  0  0  0  0  0  0  0
   46.0010   37.6580   45.1780 H   0  0  0  0  0  0  0  0  0  0  0  0
   44.1840   37.7640   45.1090 H   0  0  0  0  0  0  0  0  0  0  0  0
   45.3240   39.2770   44.1120 N   0  0  0  0  0  0  0  0  0  0  0  0
   45.7310   39.5250   43.1820 H   0  0  0  0  0  0  0  0  0  0  0  0
   44.9670   40.3380   44.9900 C   0  0  0  0  0  0  0  0  0  0  0  0
   44.9830   40.1830   46.3590 C   0  0  0  0  0  0  0  0  0  0  0  0
   45.2690   39.2440   46.8180 H   0  0  0  0  0  0  0  0  0  0  0  0
   44.6430   41.1910   47.2500 C   0  0  0  0  0  3  0  0  0  0  0  0
   44.2670   42.4170   46.7400 C   0  0  0  0  0  0  0  0  0  0  0  0
   43.9980   43.2120   47.4300 H   0  0  0  0  0  0  0  0  0  0  0  0
   44.2490   42.5790   45.3760 C   0  0  0  0  0  0  0  0  0  0  0  0
   43.9470   43.5630   44.9890 H   0  0  0  0  0  0  0  0  0  0  0  0
   44.5870   41.5760   44.5150 C   0  0  0  0  0  3  0  0  0  0  0  0
  1 20  1  0  0  0  0
  2  7  1  0  0  0  0
  2  1  2  0  0  0  0
  3  2  1  0  0  0  0
  4  3  2  0  0  0  0
  4  5  1  0  0  0  0
  5  6  2  0  0  0  0
  6  1  1  0  0  0  0
  8  3  1  0  0  0  0
  9 10  1  0  0  0  0
 10 11  1  0  0  0  0
 11  5  1  0  0  0  0
 11 12  2  0  0  0  0
 12 16  1  0  0  0  0
 13 12  1  0  0  0  0
 13 17  1  0  0  0  0
 14 13  2  0  0  0  0
 15 10  2  0  0  0  0
 15 14  1  0  0  0  0
 18 14  1  0  0  0  0
 19 15  1  0  0  0  0
 21 20  2  0  0  0  0
 21 22  1  0  0  0  0
 22 24  1  0  0  0  0
 22 23  1  0  0  0  0
 25 22  1  0  0  0  0
 25 27  1  0  0  0  0
 26 25  1  0  0  0  0
 27 28  1  0  0  0  0
 28 29  1  0  0  0  0
 28 30  2  0  0  0  0
 31 30  1  0  0  0  0
 31 32  1  0  0  0  0
 33 31  2  0  0  0  0
 34 33  1  0  0  0  0
 35 27  2  0  0  0  0
 35 33  1  0  0  0  0
M  END
>  <minimizedAffinity>
-3.68480778

>  <minimizedRMSD>
1.6908865

$$$$
