
 OpenBabel03252506213D

 35 37  0  0  0  0  0  0  0  0999 V2000
   44.7540   35.0610   42.1560 C   0  0  0  0  0  0  0  0  0  0  0  0
   43.6850   35.1130   41.2510 C   0  0  0  0  0  0  0  0  0  0  0  0
   43.7730   34.3300   40.0920 C   0  0  0  0  0  0  0  0  0  0  0  0
   44.8780   33.5670   39.9060 N   0  0  0  0  0  0  0  0  0  0  0  0
   45.8800   33.5470   40.8010 C   0  0  0  0  0  0  0  0  0  0  0  0
   45.8260   34.2890   41.9240 N   0  0  0  0  0  0  0  0  0  0  0  0
   42.8230   35.7270   41.4260 H   0  0  0  0  0  0  0  0  0  0  0  0
   42.9800   34.3270   39.3550 H   0  0  0  0  0  0  0  0  0  0  0  0
   48.4350   35.0290   40.1160 Cl  0  0  0  0  0  0  0  0  0  0  0  0
   48.2530   33.3050   40.1970 C   0  0  0  0  0  0  0  0  0  0  0  0
   47.0510   32.6850   40.5180 C   0  0  0  0  0  0  0  0  0  0  0  0
   46.8880   31.3330   40.5860 C   0  0  0  0  0  0  0  0  0  0  0  0
   47.9810   30.5580   40.3220 C   0  0  0  0  0  0  0  0  0  0  0  0
   49.2210   31.0600   39.9940 C   0  0  0  0  0  0  0  0  0  0  0  0
   49.2990   32.4390   39.9460 C   0  0  0  0  0  0  0  0  0  0  0  0
   45.9430   30.9140   40.8370 H   0  0  0  0  0  0  0  0  0  0  0  0
   47.8780   29.4750   40.3700 H   0  0  0  0  0  0  0  0  0  0  0  0
   50.1010   30.4550   39.7810 H   0  0  0  0  0  0  0  0  0  0  0  0
   50.2560   32.8990   39.6920 H   0  0  0  0  0  0  0  0  0  0  0  0
   44.6690   35.8790   43.3700 C   0  0  0  0  0  3  0  0  0  0  0  0
   45.1830   37.0760   43.3540 C   0  0  0  0  0  3  0  0  0  0  0  0
   45.1240   37.9500   44.5590 C   0  0  0  0  0  0  0  0  0  0  0  0
   46.0160   37.6990   45.1980 H   0  0  0  0  0  0  0  0  0  0  0  0
   44.1980   37.7940   45.1430 H   0  0  0  0  0  0  0  0  0  0  0  0
   45.3200   39.3160   44.1410 N   0  0  0  0  0  0  0  0  0  0  0  0
   45.7190   39.5690   43.2090 H   0  0  0  0  0  0  0  0  0  0  0  0
   44.9630   40.3730   45.0240 C   0  0  0  0  0  0  0  0  0  0  0  0
   44.5870   41.6130   44.5560 C   0  0  0  0  0  0  0  0  0  0  0  0
   44.5510   41.8300   43.4950 H   0  0  0  0  0  0  0  0  0  0  0  0
   44.2310   42.6690   45.3820 C   0  0  0  0  0  3  0  0  0  0  0  0
   44.2530   42.4700   46.7470 C   0  0  0  0  0  0  0  0  0  0  0  0
   43.9750   43.2920   47.4020 H   0  0  0  0  0  0  0  0  0  0  0  0
   44.6260   41.2360   47.2210 C   0  0  0  0  0  0  0  0  0  0  0  0
   44.6370   41.0970   48.3130 H   0  0  0  0  0  0  0  0  0  0  0  0
   44.9740   40.2080   46.3930 C   0  0  0  0  0  3  0  0  0  0  0  0
  1 20  1  0  0  0  0
  2  7  1  0  0  0  0
  2  1  2  0  0  0  0
  3  2  1  0  0  0  0
  4  3  2  0  0  0  0
  4  5  1  0  0  0  0
  5  6  2  0  0  0  0
  6  1  1  0  0  0  0
  8  3  1  0  0  0  0
  9 10  1  0  0  0  0
 10 11  1  0  0  0  0
 11 12  2  0  0  0  0
 11  5  1  0  0  0  0
 12 16  1  0  0  0  0
 13 17  1  0  0  0  0
 13 12  1  0  0  0  0
 14 13  2  0  0  0  0
 15 14  1  0  0  0  0
 15 10  2  0  0  0  0
 18 14  1  0  0  0  0
 19 15  1  0  0  0  0
 21 20  2  0  0  0  0
 21 22  1  0  0  0  0
 22 24  1  0  0  0  0
 22 23  1  0  0  0  0
 25 22  1  0  0  0  0
 25 27  1  0  0  0  0
 26 25  1  0  0  0  0
 27 35  1  0  0  0  0
 28 27  2  0  0  0  0
 28 30  1  0  0  0  0
 29 28  1  0  0  0  0
 30 31  2  0  0  0  0
 31 33  1  0  0  0  0
 31 32  1  0  0  0  0
 33 34  1  0  0  0  0
 35 33  2  0  0  0  0
M  END
>  <minimizedAffinity>
-3.79734397

>  <minimizedRMSD>
1.65947592

$$$$
