
 OpenBabel03252506213D

 35 37  0  0  0  0  0  0  0  0999 V2000
   44.6430   34.9760   41.9820 C   0  0  0  0  0  0  0  0  0  0  0  0
   43.5790   35.0470   41.0730 C   0  0  0  0  0  0  0  0  0  0  0  0
   43.6630   34.2760   39.9070 C   0  0  0  0  0  0  0  0  0  0  0  0
   44.7620   33.5030   39.7180 N   0  0  0  0  0  0  0  0  0  0  0  0
   45.7590   33.4640   40.6160 C   0  0  0  0  0  0  0  0  0  0  0  0
   45.7080   34.1950   41.7460 N   0  0  0  0  0  0  0  0  0  0  0  0
   42.7210   35.6680   41.2500 H   0  0  0  0  0  0  0  0  0  0  0  0
   42.8730   34.2870   39.1660 H   0  0  0  0  0  0  0  0  0  0  0  0
   48.3270   34.9270   39.9390 Cl  0  0  0  0  0  0  0  0  0  0  0  0
   48.1310   33.2040   40.0110 C   0  0  0  0  0  0  0  0  0  0  0  0
   46.9230   32.5940   40.3290 C   0  0  0  0  0  0  0  0  0  0  0  0
   46.7480   31.2420   40.3910 C   0  0  0  0  0  0  0  0  0  0  0  0
   47.8350   30.4590   40.1230 C   0  0  0  0  0  0  0  0  0  0  0  0
   49.0780   30.9520   39.7970 C   0  0  0  0  0  0  0  0  0  0  0  0
   49.1690   32.3300   39.7560 C   0  0  0  0  0  0  0  0  0  0  0  0
   45.8000   30.8310   40.6400 H   0  0  0  0  0  0  0  0  0  0  0  0
   47.7220   29.3770   40.1660 H   0  0  0  0  0  0  0  0  0  0  0  0
   49.9530   30.3410   39.5810 H   0  0  0  0  0  0  0  0  0  0  0  0
   50.1300   32.7830   39.5040 H   0  0  0  0  0  0  0  0  0  0  0  0
   44.5610   35.7820   43.2040 C   0  0  0  0  0  3  0  0  0  0  0  0
   45.1590   36.9400   43.2290 C   0  0  0  0  0  3  0  0  0  0  0  0
   45.1070   37.8000   44.4440 C   0  0  0  0  0  0  0  0  0  0  0  0
   45.9910   37.5270   45.0840 H   0  0  0  0  0  0  0  0  0  0  0  0
   44.1750   37.6530   45.0220 H   0  0  0  0  0  0  0  0  0  0  0  0
   45.3290   39.1680   44.0430 N   0  0  0  0  0  0  0  0  0  0  0  0
   45.7340   39.4250   43.1160 H   0  0  0  0  0  0  0  0  0  0  0  0
   44.9870   40.2190   44.9380 C   0  0  0  0  0  0  0  0  0  0  0  0
   45.0150   40.0470   46.3040 C   0  0  0  0  0  0  0  0  0  0  0  0
   45.3000   39.1010   46.7490 H   0  0  0  0  0  0  0  0  0  0  0  0
   44.6900   41.0450   47.2110 C   0  0  0  0  0  3  0  0  0  0  0  0
   44.3170   42.2800   46.7210 C   0  0  0  0  0  0  0  0  0  0  0  0
   44.0610   43.0680   47.4240 H   0  0  0  0  0  0  0  0  0  0  0  0
   44.2870   42.4600   45.3590 C   0  0  0  0  0  0  0  0  0  0  0  0
   43.9870   43.4510   44.9880 H   0  0  0  0  0  0  0  0  0  0  0  0
   44.6100   41.4650   44.4830 C   0  0  0  0  0  3  0  0  0  0  0  0
  1 20  1  0  0  0  0
  2  7  1  0  0  0  0
  2  1  2  0  0  0  0
  3  2  1  0  0  0  0
  4  3  2  0  0  0  0
  4  5  1  0  0  0  0
  5  6  2  0  0  0  0
  6  1  1  0  0  0  0
  8  3  1  0  0  0  0
  9 10  1  0  0  0  0
 10 11  1  0  0  0  0
 11 12  2  0  0  0  0
 11  5  1  0  0  0  0
 12 16  1  0  0  0  0
 13 17  1  0  0  0  0
 13 12  1  0  0  0  0
 14 13  2  0  0  0  0
 15 14  1  0  0  0  0
 15 10  2  0  0  0  0
 18 14  1  0  0  0  0
 19 15  1  0  0  0  0
 20 21  2  0  0  0  0
 21 22  1  0  0  0  0
 22 24  1  0  0  0  0
 22 23  1  0  0  0  0
 25 22  1  0  0  0  0
 25 27  1  0  0  0  0
 26 25  1  0  0  0  0
 27 28  1  0  0  0  0
 28 29  1  0  0  0  0
 28 30  2  0  0  0  0
 31 30  1  0  0  0  0
 31 32  1  0  0  0  0
 33 31  2  0  0  0  0
 34 33  1  0  0  0  0
 35 27  2  0  0  0  0
 35 33  1  0  0  0  0
M  END
>  <minimizedAffinity>
-3.74112177

>  <minimizedRMSD>
1.96171236

$$$$
