
 OpenBabel03252506223D

 35 37  0  0  0  0  0  0  0  0999 V2000
   44.7270   35.0870   42.1050 C   0  0  0  0  0  0  0  0  0  0  0  0
   43.6050   35.1760   41.2700 C   0  0  0  0  0  0  0  0  0  0  0  0
   43.6060   34.4210   40.0900 C   0  0  0  0  0  0  0  0  0  0  0  0
   44.6860   33.6450   39.8180 N   0  0  0  0  0  0  0  0  0  0  0  0
   45.7400   33.5880   40.6470 C   0  0  0  0  0  0  0  0  0  0  0  0
   45.7680   34.3040   41.7880 N   0  0  0  0  0  0  0  0  0  0  0  0
   42.7650   35.8000   41.5120 H   0  0  0  0  0  0  0  0  0  0  0  0
   42.7700   34.4460   39.4040 H   0  0  0  0  0  0  0  0  0  0  0  0
   48.3570   35.0300   40.1360 Cl  0  0  0  0  0  0  0  0  0  0  0  0
   48.1050   33.3170   40.0240 C   0  0  0  0  0  0  0  0  0  0  0  0
   46.8760   32.7160   40.2720 C   0  0  0  0  0  0  0  0  0  0  0  0
   46.6580   31.3720   40.1890 C   0  0  0  0  0  0  0  0  0  0  0  0
   47.7200   30.5860   39.8420 C   0  0  0  0  0  0  0  0  0  0  0  0
   48.9810   31.0700   39.5740 C   0  0  0  0  0  0  0  0  0  0  0  0
   49.1160   32.4410   39.6800 C   0  0  0  0  0  0  0  0  0  0  0  0
   45.6960   30.9680   40.3910 H   0  0  0  0  0  0  0  0  0  0  0  0
   47.5730   29.5100   39.7700 H   0  0  0  0  0  0  0  0  0  0  0  0
   49.8370   30.4570   39.2960 H   0  0  0  0  0  0  0  0  0  0  0  0
   50.0930   32.8870   39.4800 H   0  0  0  0  0  0  0  0  0  0  0  0
   44.7300   35.8770   43.3400 C   0  0  0  0  0  3  0  0  0  0  0  0
   45.1370   37.1140   43.2890 C   0  0  0  0  0  3  0  0  0  0  0  0
   45.1610   37.9610   44.5130 C   0  0  0  0  0  0  0  0  0  0  0  0
   46.0930   37.6940   45.0860 H   0  0  0  0  0  0  0  0  0  0  0  0
   44.2750   37.7960   45.1540 H   0  0  0  0  0  0  0  0  0  0  0  0
   45.3360   39.3360   44.1120 N   0  0  0  0  0  0  0  0  0  0  0  0
   45.7240   39.6060   43.1810 H   0  0  0  0  0  0  0  0  0  0  0  0
   44.9700   40.3750   45.0120 C   0  0  0  0  0  0  0  0  0  0  0  0
   44.5840   41.6190   44.5630 C   0  0  0  0  0  0  0  0  0  0  0  0
   44.5440   41.8530   43.5060 H   0  0  0  0  0  0  0  0  0  0  0  0
   44.2200   42.6600   45.4060 C   0  0  0  0  0  3  0  0  0  0  0  0
   44.2450   42.4400   46.7690 C   0  0  0  0  0  0  0  0  0  0  0  0
   43.9610   43.2490   47.4360 H   0  0  0  0  0  0  0  0  0  0  0  0
   44.6300   41.2020   47.2220 C   0  0  0  0  0  0  0  0  0  0  0  0
   44.6420   41.0460   48.3120 H   0  0  0  0  0  0  0  0  0  0  0  0
   44.9840   40.1910   46.3770 C   0  0  0  0  0  3  0  0  0  0  0  0
  1 20  1  0  0  0  0
  2  7  1  0  0  0  0
  2  1  2  0  0  0  0
  3  2  1  0  0  0  0
  4  3  2  0  0  0  0
  4  5  1  0  0  0  0
  5  6  2  0  0  0  0
  6  1  1  0  0  0  0
  8  3  1  0  0  0  0
 10  9  1  0  0  0  0
 10 11  1  0  0  0  0
 11  5  1  0  0  0  0
 12 11  2  0  0  0  0
 12 16  1  0  0  0  0
 13 12  1  0  0  0  0
 14 15  1  0  0  0  0
 14 13  2  0  0  0  0
 15 10  2  0  0  0  0
 17 13  1  0  0  0  0
 18 14  1  0  0  0  0
 19 15  1  0  0  0  0
 21 20  2  0  0  0  0
 21 22  1  0  0  0  0
 22 23  1  0  0  0  0
 22 24  1  0  0  0  0
 25 22  1  0  0  0  0
 25 27  1  0  0  0  0
 26 25  1  0  0  0  0
 27 35  1  0  0  0  0
 28 27  2  0  0  0  0
 28 30  1  0  0  0  0
 29 28  1  0  0  0  0
 30 31  2  0  0  0  0
 31 33  1  0  0  0  0
 31 32  1  0  0  0  0
 33 34  1  0  0  0  0
 35 33  2  0  0  0  0
M  END
>  <minimizedAffinity>
-3.86010742

>  <minimizedRMSD>
1.80737007

$$$$
