
 OpenBabel03252506213D

 35 37  0  0  0  0  0  0  0  0999 V2000
   44.6460   34.9750   41.9840 C   0  0  0  0  0  0  0  0  0  0  0  0
   43.5810   35.0470   41.0760 C   0  0  0  0  0  0  0  0  0  0  0  0
   43.6640   34.2760   39.9090 C   0  0  0  0  0  0  0  0  0  0  0  0
   44.7630   33.5040   39.7190 N   0  0  0  0  0  0  0  0  0  0  0  0
   45.7610   33.4640   40.6160 C   0  0  0  0  0  0  0  0  0  0  0  0
   45.7100   34.1940   41.7470 N   0  0  0  0  0  0  0  0  0  0  0  0
   42.7240   35.6680   41.2540 H   0  0  0  0  0  0  0  0  0  0  0  0
   42.8740   34.2880   39.1690 H   0  0  0  0  0  0  0  0  0  0  0  0
   48.3280   34.9260   39.9360 Cl  0  0  0  0  0  0  0  0  0  0  0  0
   48.1310   33.2030   40.0090 C   0  0  0  0  0  0  0  0  0  0  0  0
   46.9240   32.5930   40.3280 C   0  0  0  0  0  0  0  0  0  0  0  0
   46.7490   31.2420   40.3900 C   0  0  0  0  0  0  0  0  0  0  0  0
   47.8350   30.4580   40.1210 C   0  0  0  0  0  0  0  0  0  0  0  0
   49.0790   30.9510   39.7940 C   0  0  0  0  0  0  0  0  0  0  0  0
   49.1690   32.3290   39.7530 C   0  0  0  0  0  0  0  0  0  0  0  0
   45.8010   30.8310   40.6400 H   0  0  0  0  0  0  0  0  0  0  0  0
   47.7220   29.3760   40.1640 H   0  0  0  0  0  0  0  0  0  0  0  0
   49.9530   30.3400   39.5770 H   0  0  0  0  0  0  0  0  0  0  0  0
   50.1300   32.7820   39.5000 H   0  0  0  0  0  0  0  0  0  0  0  0
   44.5650   35.7810   43.2060 C   0  0  0  0  0  3  0  0  0  0  0  0
   45.1570   36.9420   43.2290 C   0  0  0  0  0  3  0  0  0  0  0  0
   45.1060   37.8010   44.4440 C   0  0  0  0  0  0  0  0  0  0  0  0
   45.9900   37.5270   45.0840 H   0  0  0  0  0  0  0  0  0  0  0  0
   44.1740   37.6540   45.0220 H   0  0  0  0  0  0  0  0  0  0  0  0
   45.3290   39.1690   44.0440 N   0  0  0  0  0  0  0  0  0  0  0  0
   45.7350   39.4260   43.1170 H   0  0  0  0  0  0  0  0  0  0  0  0
   44.9870   40.2210   44.9390 C   0  0  0  0  0  0  0  0  0  0  0  0
   45.0150   40.0480   46.3040 C   0  0  0  0  0  0  0  0  0  0  0  0
   45.2990   39.1010   46.7500 H   0  0  0  0  0  0  0  0  0  0  0  0
   44.6900   41.0460   47.2120 C   0  0  0  0  0  3  0  0  0  0  0  0
   44.3170   42.2810   46.7220 C   0  0  0  0  0  0  0  0  0  0  0  0
   44.0600   43.0690   47.4240 H   0  0  0  0  0  0  0  0  0  0  0  0
   44.2860   42.4610   45.3600 C   0  0  0  0  0  0  0  0  0  0  0  0
   43.9870   43.4530   44.9900 H   0  0  0  0  0  0  0  0  0  0  0  0
   44.6100   41.4670   44.4830 C   0  0  0  0  0  3  0  0  0  0  0  0
  1 20  1  0  0  0  0
  2  7  1  0  0  0  0
  2  1  2  0  0  0  0
  3  2  1  0  0  0  0
  4  3  2  0  0  0  0
  4  5  1  0  0  0  0
  5  6  2  0  0  0  0
  6  1  1  0  0  0  0
  8  3  1  0  0  0  0
  9 10  1  0  0  0  0
 10 11  1  0  0  0  0
 11 12  2  0  0  0  0
 11  5  1  0  0  0  0
 12 16  1  0  0  0  0
 13 17  1  0  0  0  0
 13 12  1  0  0  0  0
 14 13  2  0  0  0  0
 15 14  1  0  0  0  0
 15 10  2  0  0  0  0
 18 14  1  0  0  0  0
 19 15  1  0  0  0  0
 20 21  2  0  0  0  0
 21 22  1  0  0  0  0
 22 24  1  0  0  0  0
 22 23  1  0  0  0  0
 25 22  1  0  0  0  0
 25 27  1  0  0  0  0
 26 25  1  0  0  0  0
 27 28  1  0  0  0  0
 28 29  1  0  0  0  0
 28 30  2  0  0  0  0
 31 30  1  0  0  0  0
 31 32  1  0  0  0  0
 33 31  2  0  0  0  0
 34 33  1  0  0  0  0
 35 27  2  0  0  0  0
 35 33  1  0  0  0  0
M  END
>  <minimizedAffinity>
-3.74445033

>  <minimizedRMSD>
1.99370766

$$$$
