
 OpenBabel03252506213D

 35 37  0  0  0  0  0  0  0  0999 V2000
   44.6780   35.0750   41.9740 C   0  0  0  0  0  0  0  0  0  0  0  0
   43.4810   35.1710   41.2500 C   0  0  0  0  0  0  0  0  0  0  0  0
   43.3820   34.4500   40.0530 C   0  0  0  0  0  0  0  0  0  0  0  0
   44.4410   33.7010   39.6570 N   0  0  0  0  0  0  0  0  0  0  0  0
   45.5700   33.6370   40.3820 C   0  0  0  0  0  0  0  0  0  0  0  0
   45.6950   34.3180   41.5370 N   0  0  0  0  0  0  0  0  0  0  0  0
   42.6600   35.7730   41.5880 H   0  0  0  0  0  0  0  0  0  0  0  0
   42.4850   34.4830   39.4480 H   0  0  0  0  0  0  0  0  0  0  0  0
   48.2680   35.0090   40.2330 Cl  0  0  0  0  0  0  0  0  0  0  0  0
   47.9410   33.3650   39.7830 C   0  0  0  0  0  0  0  0  0  0  0  0
   46.6770   32.7940   39.8760 C   0  0  0  0  0  0  0  0  0  0  0  0
   46.3990   31.5040   39.5270 C   0  0  0  0  0  0  0  0  0  0  0  0
   47.4370   30.7460   39.0630 C   0  0  0  0  0  0  0  0  0  0  0  0
   48.7280   31.2050   38.9290 C   0  0  0  0  0  0  0  0  0  0  0  0
   48.9230   32.5200   39.3030 C   0  0  0  0  0  0  0  0  0  0  0  0
   45.4130   31.1210   39.6200 H   0  0  0  0  0  0  0  0  0  0  0  0
   47.2420   29.7130   38.7790 H   0  0  0  0  0  0  0  0  0  0  0  0
   49.5640   30.6120   38.5610 H   0  0  0  0  0  0  0  0  0  0  0  0
   49.9250   32.9440   39.2210 H   0  0  0  0  0  0  0  0  0  0  0  0
   44.7870   35.8280   43.2270 C   0  0  0  0  0  3  0  0  0  0  0  0
   45.0810   37.0960   43.1700 C   0  0  0  0  0  3  0  0  0  0  0  0
   45.2040   37.9090   44.4110 C   0  0  0  0  0  0  0  0  0  0  0  0
   46.1780   37.6270   44.9000 H   0  0  0  0  0  0  0  0  0  0  0  0
   44.3720   37.7240   45.1170 H   0  0  0  0  0  0  0  0  0  0  0  0
   45.3470   39.2940   44.0370 N   0  0  0  0  0  0  0  0  0  0  0  0
   45.7080   39.5910   43.1030 H   0  0  0  0  0  0  0  0  0  0  0  0
   44.9860   40.3080   44.9670 C   0  0  0  0  0  0  0  0  0  0  0  0
   44.5860   41.5600   44.5570 C   0  0  0  0  0  0  0  0  0  0  0  0
   44.5300   41.8200   43.5060 H   0  0  0  0  0  0  0  0  0  0  0  0
   44.2260   42.5760   45.4310 C   0  0  0  0  0  3  0  0  0  0  0  0
   44.2710   42.3220   46.7860 C   0  0  0  0  0  0  0  0  0  0  0  0
   43.9900   43.1110   47.4780 H   0  0  0  0  0  0  0  0  0  0  0  0
   44.6700   41.0750   47.2030 C   0  0  0  0  0  0  0  0  0  0  0  0
   44.6990   40.8920   48.2880 H   0  0  0  0  0  0  0  0  0  0  0  0
   45.0210   40.0880   46.3280 C   0  0  0  0  0  3  0  0  0  0  0  0
  1 20  1  0  0  0  0
  2  7  1  0  0  0  0
  2  1  2  0  0  0  0
  3  2  1  0  0  0  0
  4  3  2  0  0  0  0
  4  5  1  0  0  0  0
  5  6  2  0  0  0  0
  6  1  1  0  0  0  0
  8  3  1  0  0  0  0
 10 11  1  0  0  0  0
 10  9  1  0  0  0  0
 11  5  1  0  0  0  0
 12 16  1  0  0  0  0
 12 11  2  0  0  0  0
 13 12  1  0  0  0  0
 14 13  2  0  0  0  0
 14 15  1  0  0  0  0
 15 10  2  0  0  0  0
 17 13  1  0  0  0  0
 18 14  1  0  0  0  0
 19 15  1  0  0  0  0
 21 20  2  0  0  0  0
 21 22  1  0  0  0  0
 22 23  1  0  0  0  0
 22 24  1  0  0  0  0
 25 22  1  0  0  0  0
 25 27  1  0  0  0  0
 26 25  1  0  0  0  0
 27 35  1  0  0  0  0
 28 27  2  0  0  0  0
 28 30  1  0  0  0  0
 29 28  1  0  0  0  0
 30 31  2  0  0  0  0
 31 33  1  0  0  0  0
 31 32  1  0  0  0  0
 33 34  1  0  0  0  0
 35 33  2  0  0  0  0
M  END
>  <minimizedAffinity>
-3.9586978

>  <minimizedRMSD>
2.06920934

$$$$
