
 OpenBabel03252506213D

 35 37  0  0  0  0  0  0  0  0999 V2000
   44.6520   35.0080   41.9600 C   0  0  0  0  0  0  0  0  0  0  0  0
   43.5520   35.0740   41.0940 C   0  0  0  0  0  0  0  0  0  0  0  0
   43.6050   34.3200   39.9140 C   0  0  0  0  0  0  0  0  0  0  0  0
   44.7080   33.5690   39.6720 N   0  0  0  0  0  0  0  0  0  0  0  0
   45.7400   33.5340   40.5310 C   0  0  0  0  0  0  0  0  0  0  0  0
   45.7190   34.2490   41.6730 N   0  0  0  0  0  0  0  0  0  0  0  0
   42.6930   35.6780   41.3120 H   0  0  0  0  0  0  0  0  0  0  0  0
   42.7870   34.3280   39.2040 H   0  0  0  0  0  0  0  0  0  0  0  0
   48.3450   35.0310   40.1280 Cl  0  0  0  0  0  0  0  0  0  0  0  0
   48.1300   33.3140   39.9900 C   0  0  0  0  0  0  0  0  0  0  0  0
   46.9050   32.6870   40.1880 C   0  0  0  0  0  0  0  0  0  0  0  0
   46.7150   31.3400   40.0840 C   0  0  0  0  0  0  0  0  0  0  0  0
   47.8040   30.5790   39.7660 C   0  0  0  0  0  0  0  0  0  0  0  0
   49.0640   31.0890   39.5480 C   0  0  0  0  0  0  0  0  0  0  0  0
   49.1690   32.4620   39.6730 C   0  0  0  0  0  0  0  0  0  0  0  0
   45.7550   30.9160   40.2460 H   0  0  0  0  0  0  0  0  0  0  0  0
   47.6800   29.5010   39.6770 H   0  0  0  0  0  0  0  0  0  0  0  0
   49.9410   30.4960   39.2950 H   0  0  0  0  0  0  0  0  0  0  0  0
   50.1430   32.9280   39.5130 H   0  0  0  0  0  0  0  0  0  0  0  0
   44.6030   35.7960   43.1960 C   0  0  0  0  0  3  0  0  0  0  0  0
   45.1470   36.9810   43.2020 C   0  0  0  0  0  3  0  0  0  0  0  0
   45.1260   37.8240   44.4300 C   0  0  0  0  0  0  0  0  0  0  0  0
   46.0300   37.5480   45.0410 H   0  0  0  0  0  0  0  0  0  0  0  0
   44.2120   37.6640   45.0320 H   0  0  0  0  0  0  0  0  0  0  0  0
   45.3280   39.1990   44.0410 N   0  0  0  0  0  0  0  0  0  0  0  0
   45.7200   39.4700   43.1120 H   0  0  0  0  0  0  0  0  0  0  0  0
   44.9860   40.2370   44.9520 C   0  0  0  0  0  0  0  0  0  0  0  0
   44.6010   41.4860   44.5160 C   0  0  0  0  0  0  0  0  0  0  0  0
   44.5430   41.7240   43.4600 H   0  0  0  0  0  0  0  0  0  0  0  0
   44.2580   42.5240   45.3690 C   0  0  0  0  0  3  0  0  0  0  0  0
   44.3060   42.2990   46.7290 C   0  0  0  0  0  0  0  0  0  0  0  0
   44.0400   43.1070   47.4060 H   0  0  0  0  0  0  0  0  0  0  0  0
   44.6900   41.0550   47.1710 C   0  0  0  0  0  0  0  0  0  0  0  0
   44.7210   40.8950   48.2590 H   0  0  0  0  0  0  0  0  0  0  0  0
   45.0230   40.0460   46.3160 C   0  0  0  0  0  3  0  0  0  0  0  0
  1 20  1  0  0  0  0
  2  7  1  0  0  0  0
  2  1  2  0  0  0  0
  3  2  1  0  0  0  0
  4  3  2  0  0  0  0
  4  5  1  0  0  0  0
  5  6  2  0  0  0  0
  6  1  1  0  0  0  0
  8  3  1  0  0  0  0
 10  9  1  0  0  0  0
 10 11  1  0  0  0  0
 11  5  1  0  0  0  0
 12 11  2  0  0  0  0
 12 16  1  0  0  0  0
 13 12  1  0  0  0  0
 14 15  1  0  0  0  0
 14 13  2  0  0  0  0
 15 10  2  0  0  0  0
 17 13  1  0  0  0  0
 18 14  1  0  0  0  0
 19 15  1  0  0  0  0
 20 21  2  0  0  0  0
 21 22  1  0  0  0  0
 22 24  1  0  0  0  0
 22 23  1  0  0  0  0
 25 22  1  0  0  0  0
 25 27  1  0  0  0  0
 26 25  1  0  0  0  0
 27 35  1  0  0  0  0
 28 27  2  0  0  0  0
 28 30  1  0  0  0  0
 29 28  1  0  0  0  0
 30 31  2  0  0  0  0
 31 33  1  0  0  0  0
 31 32  1  0  0  0  0
 33 34  1  0  0  0  0
 35 33  2  0  0  0  0
M  END
>  <minimizedAffinity>
-3.86087513

>  <minimizedRMSD>
1.94087243

$$$$
