
 OpenBabel03242520463D

 22 23  0  0  0  0  0  0  0  0999 V2000
   37.5910   31.6840   38.1640 C   0  0  0  0  0  0  0  0  0  0  0  0
   36.7520   30.5850   38.4530 C   0  0  0  0  0  0  0  0  0  0  0  0
   36.3110   30.4560   39.7910 C   0  0  0  0  0  0  0  0  0  0  0  0
   36.7000   31.3660   40.7140 N   0  0  0  0  0  0  0  0  0  0  0  0
   37.5090   32.4060   40.3780 C   0  0  0  0  0  0  0  0  0  0  0  0
   37.9430   32.5520   39.1120 N   0  0  0  0  0  0  0  0  0  0  0  0
   38.0540   31.8530   36.8440 N   0  0  0  0  0  0  0  0  0  0  0  0
   36.4660   29.8830   37.6880 H   0  0  0  0  0  0  0  0  0  0  0  0
   37.7340   33.0480   41.2180 H   0  0  0  0  0  0  0  0  0  0  0  0
   39.0250   32.1720   36.5480 H   0  0  0  0  0  0  0  0  0  0  0  0
   37.4330   31.6630   36.0140 H   0  0  0  0  0  0  0  0  0  0  0  0
   35.4550   29.3190   40.0250 C   0  0  0  0  0  0  0  0  0  0  0  0
   34.2540   29.2420   39.6910 O   0  0  0  0  0  0  0  0  0  0  0  0
   36.1300   28.2230   40.7100 C   0  0  0  0  0  0  0  0  0  0  0  0
   36.4730   27.1690   39.8680 C   0  0  0  0  0  0  0  0  0  0  0  0
   36.2640   27.1530   38.8030 H   0  0  0  0  0  0  0  0  0  0  0  0
   37.1210   26.0760   40.4420 C   0  0  0  0  0  3  0  0  0  0  0  0
   37.4140   26.0460   41.8090 C   0  0  0  0  0  0  0  0  0  0  0  0
   37.9160   25.1920   42.2330 H   0  0  0  0  0  0  0  0  0  0  0  0
   37.0620   27.1090   42.6220 C   0  0  0  0  0  0  0  0  0  0  0  0
   37.2690   27.1310   43.7010 H   0  0  0  0  0  0  0  0  0  0  0  0
   36.4140   28.2040   42.0600 C   0  0  0  0  0  3  0  0  0  0  0  0
  1  2  2  0  0  0  0
  1  6  1  0  0  0  0
  2  3  1  0  0  0  0
  3 12  1  0  0  0  0
  3  4  2  0  0  0  0
  5  4  1  0  0  0  0
  5  9  1  0  0  0  0
  6  5  2  0  0  0  0
  7  1  1  0  0  0  0
  8  2  1  0  0  0  0
 10  7  1  0  0  0  0
 11  7  1  0  0  0  0
 12 14  1  0  0  0  0
 13 12  2  0  0  0  0
 14 22  1  0  0  0  0
 15 17  1  0  0  0  0
 15 14  2  0  0  0  0
 16 15  1  0  0  0  0
 17 18  2  0  0  0  0
 18 19  1  0  0  0  0
 18 20  1  0  0  0  0
 20 21  1  0  0  0  0
 22 20  2  0  0  0  0
M  END
>  <minimizedAffinity>
-4.94749975

$$$$

 OpenBabel03242520463D

 22 23  0  0  0  0  0  0  0  0999 V2000
   37.3140   32.5000   39.3170 C   0  0  0  0  0  0  0  0  0  0  0  0
   36.5720   31.5550   40.0610 C   0  0  0  0  0  0  0  0  0  0  0  0
   36.8130   30.1910   39.7780 C   0  0  0  0  0  0  0  0  0  0  0  0
   37.7210   29.8540   38.8310 N   0  0  0  0  0  0  0  0  0  0  0  0
   38.4070   30.8070   38.1450 C   0  0  0  0  0  0  0  0  0  0  0  0
   38.1960   32.1130   38.3950 N   0  0  0  0  0  0  0  0  0  0  0  0
   37.1070   33.8710   39.5660 N   0  0  0  0  0  0  0  0  0  0  0  0
   35.8590   31.8660   40.8060 H   0  0  0  0  0  0  0  0  0  0  0  0
   39.0950   30.3880   37.4240 H   0  0  0  0  0  0  0  0  0  0  0  0
   37.0750   34.6500   38.8420 H   0  0  0  0  0  0  0  0  0  0  0  0
   36.9610   34.2370   40.5430 H   0  0  0  0  0  0  0  0  0  0  0  0
   36.0310   29.2740   40.5700 C   0  0  0  0  0  0  0  0  0  0  0  0
   34.8010   29.0870   40.4480 O   0  0  0  0  0  0  0  0  0  0  0  0
   36.8180   28.5560   41.5630 C   0  0  0  0  0  0  0  0  0  0  0  0
   36.8750   27.1830   41.3400 C   0  0  0  0  0  0  0  0  0  0  0  0
   36.3860   26.6850   40.5090 H   0  0  0  0  0  0  0  0  0  0  0  0
   37.6080   26.4170   42.2450 C   0  0  0  0  0  3  0  0  0  0  0  0
   38.2580   27.0090   43.3320 C   0  0  0  0  0  0  0  0  0  0  0  0
   38.8190   26.3990   44.0210 H   0  0  0  0  0  0  0  0  0  0  0  0
   38.1850   28.3760   43.5300 C   0  0  0  0  0  0  0  0  0  0  0  0
   38.6770   28.8870   44.3690 H   0  0  0  0  0  0  0  0  0  0  0  0
   37.4560   29.1500   42.6330 C   0  0  0  0  0  3  0  0  0  0  0  0
  1  7  1  0  0  0  0
  1  2  1  0  0  0  0
  2  8  1  0  0  0  0
  3  2  2  0  0  0  0
  3 12  1  0  0  0  0
  4  3  1  0  0  0  0
  5  6  1  0  0  0  0
  5  4  2  0  0  0  0
  6  1  2  0  0  0  0
  7 11  1  0  0  0  0
  9  5  1  0  0  0  0
 10  7  1  0  0  0  0
 12 14  1  0  0  0  0
 13 12  2  0  0  0  0
 14 22  1  0  0  0  0
 15 14  2  0  0  0  0
 15 17  1  0  0  0  0
 16 15  1  0  0  0  0
 17 18  2  0  0  0  0
 18 20  1  0  0  0  0
 18 19  1  0  0  0  0
 20 21  1  0  0  0  0
 22 20  2  0  0  0  0
M  END
>  <minimizedAffinity>
-4.89087868

$$$$

 OpenBabel03242520463D

 22 23  0  0  0  0  0  0  0  0999 V2000
   37.4890   32.7850   39.5020 C   0  0  0  0  0  0  0  0  0  0  0  0
   38.2000   32.4130   40.6650 C   0  0  0  0  0  0  0  0  0  0  0  0
   38.7340   31.1050   40.6940 C   0  0  0  0  0  0  0  0  0  0  0  0
   38.5480   30.2820   39.6340 N   0  0  0  0  0  0  0  0  0  0  0  0
   37.8550   30.6940   38.5390 C   0  0  0  0  0  0  0  0  0  0  0  0
   37.3360   31.9350   38.4860 N   0  0  0  0  0  0  0  0  0  0  0  0
   36.9390   34.0800   39.4290 N   0  0  0  0  0  0  0  0  0  0  0  0
   38.3240   33.0990   41.4860 H   0  0  0  0  0  0  0  0  0  0  0  0
   37.7900   29.9310   37.7760 H   0  0  0  0  0  0  0  0  0  0  0  0
   35.9960   34.3470   39.0140 H   0  0  0  0  0  0  0  0  0  0  0  0
   37.4560   34.9190   39.8010 H   0  0  0  0  0  0  0  0  0  0  0  0
   39.4510   30.7840   41.9030 C   0  0  0  0  0  0  0  0  0  0  0  0
   40.3650   31.4750   42.4020 O   0  0  0  0  0  0  0  0  0  0  0  0
   39.0080   29.5410   42.5220 C   0  0  0  0  0  0  0  0  0  0  0  0
   40.0290   28.6110   42.6920 C   0  0  0  0  0  0  0  0  0  0  0  0
   41.0590   28.7830   42.3980 H   0  0  0  0  0  0  0  0  0  0  0  0
   39.6920   27.3900   43.2760 C   0  0  0  0  0  3  0  0  0  0  0  0
   38.3800   27.1180   43.6740 C   0  0  0  0  0  0  0  0  0  0  0  0
   38.1400   26.1680   44.1230 H   0  0  0  0  0  0  0  0  0  0  0  0
   37.3850   28.0620   43.4930 C   0  0  0  0  0  0  0  0  0  0  0  0
   36.3400   27.8930   43.7880 H   0  0  0  0  0  0  0  0  0  0  0  0
   37.7090   29.2820   42.9110 C   0  0  0  0  0  3  0  0  0  0  0  0
  1  2  1  0  0  0  0
  2  3  2  0  0  0  0
  2  8  1  0  0  0  0
  3 12  1  0  0  0  0
  4  3  1  0  0  0  0
  5  4  2  0  0  0  0
  6  5  1  0  0  0  0
  6  1  2  0  0  0  0
  7  1  1  0  0  0  0
  7 11  1  0  0  0  0
  9  5  1  0  0  0  0
 10  7  1  0  0  0  0
 12 13  2  0  0  0  0
 12 14  1  0  0  0  0
 14 15  2  0  0  0  0
 14 22  1  0  0  0  0
 15 17  1  0  0  0  0
 16 15  1  0  0  0  0
 17 18  2  0  0  0  0
 18 19  1  0  0  0  0
 20 18  1  0  0  0  0
 20 21  1  0  0  0  0
 22 20  2  0  0  0  0
M  END
>  <minimizedAffinity>
-4.87772655

$$$$

 OpenBabel03242520463D

 22 23  0  0  0  0  0  0  0  0999 V2000
   35.4000   29.0540   40.0030 C   0  0  0  0  0  0  0  0  0  0  0  0
   35.9150   28.7270   41.2770 C   0  0  0  0  0  0  0  0  0  0  0  0
   37.3100   28.5180   41.3640 C   0  0  0  0  0  0  0  0  0  0  0  0
   38.0760   28.6370   40.2540 N   0  0  0  0  0  0  0  0  0  0  0  0
   37.5250   28.9550   39.0520 C   0  0  0  0  0  0  0  0  0  0  0  0
   36.1990   29.1590   38.9410 N   0  0  0  0  0  0  0  0  0  0  0  0
   34.0140   29.2720   39.8680 N   0  0  0  0  0  0  0  0  0  0  0  0
   35.2700   28.6420   42.1350 H   0  0  0  0  0  0  0  0  0  0  0  0
   38.2590   29.0150   38.2600 H   0  0  0  0  0  0  0  0  0  0  0  0
   33.3990   28.9660   39.0560 H   0  0  0  0  0  0  0  0  0  0  0  0
   33.4630   29.7840   40.6070 H   0  0  0  0  0  0  0  0  0  0  0  0
   37.7780   28.1900   42.6890 C   0  0  0  0  0  0  0  0  0  0  0  0
   37.7220   28.9490   43.6790 O   0  0  0  0  0  0  0  0  0  0  0  0
   38.3440   26.8500   42.7830 C   0  0  0  0  0  0  0  0  0  0  0  0
   39.5290   26.7970   43.5120 C   0  0  0  0  0  0  0  0  0  0  0  0
   39.9950   27.6640   43.9720 H   0  0  0  0  0  0  0  0  0  0  0  0
   40.1410   25.5530   43.6510 C   0  0  0  0  0  3  0  0  0  0  0  0
   39.5820   24.4050   43.0800 C   0  0  0  0  0  0  0  0  0  0  0  0
   40.0710   23.4520   43.1990 H   0  0  0  0  0  0  0  0  0  0  0  0
   38.4030   24.4870   42.3600 C   0  0  0  0  0  0  0  0  0  0  0  0
   37.9260   23.6150   41.8920 H   0  0  0  0  0  0  0  0  0  0  0  0
   37.7840   25.7240   42.2150 C   0  0  0  0  0  3  0  0  0  0  0  0
  1  2  1  0  0  0  0
  2  3  2  0  0  0  0
  2  8  1  0  0  0  0
  3 12  1  0  0  0  0
  4  3  1  0  0  0  0
  5  4  2  0  0  0  0
  6  5  1  0  0  0  0
  6  1  2  0  0  0  0
  7  1  1  0  0  0  0
  7 11  1  0  0  0  0
  9  5  1  0  0  0  0
 10  7  1  0  0  0  0
 12 14  1  0  0  0  0
 12 13  2  0  0  0  0
 14 15  1  0  0  0  0
 15 17  2  0  0  0  0
 15 16  1  0  0  0  0
 18 19  1  0  0  0  0
 18 17  1  0  0  0  0
 20 18  2  0  0  0  0
 21 20  1  0  0  0  0
 22 20  1  0  0  0  0
 22 14  2  0  0  0  0
M  END
>  <minimizedAffinity>
-4.75816774

$$$$

 OpenBabel03242520463D

 22 23  0  0  0  0  0  0  0  0999 V2000
   38.8740   31.6050   37.6940 C   0  0  0  0  0  0  0  0  0  0  0  0
   37.8600   31.3810   38.6510 C   0  0  0  0  0  0  0  0  0  0  0  0
   38.2470   30.7360   39.8490 C   0  0  0  0  0  0  0  0  0  0  0  0
   39.5390   30.3700   40.0240 N   0  0  0  0  0  0  0  0  0  0  0  0
   40.4740   30.6130   39.0670 C   0  0  0  0  0  0  0  0  0  0  0  0
   40.1320   31.2250   37.9180 N   0  0  0  0  0  0  0  0  0  0  0  0
   38.5340   32.2450   36.4850 N   0  0  0  0  0  0  0  0  0  0  0  0
   36.8440   31.6880   38.4720 H   0  0  0  0  0  0  0  0  0  0  0  0
   41.4580   30.2660   39.3480 H   0  0  0  0  0  0  0  0  0  0  0  0
   38.9050   32.0100   35.5160 H   0  0  0  0  0  0  0  0  0  0  0  0
   37.8500   33.0470   36.4600 H   0  0  0  0  0  0  0  0  0  0  0  0
   37.1720   30.5370   40.7890 C   0  0  0  0  0  0  0  0  0  0  0  0
   36.2140   31.3210   40.9620 O   0  0  0  0  0  0  0  0  0  0  0  0
   37.2960   29.3010   41.5510 C   0  0  0  0  0  0  0  0  0  0  0  0
   36.9100   28.1690   40.8400 C   0  0  0  0  0  0  0  0  0  0  0  0
   36.5510   28.1920   39.8150 H   0  0  0  0  0  0  0  0  0  0  0  0
   36.9950   26.9410   41.4950 C   0  0  0  0  0  3  0  0  0  0  0  0
   37.4510   26.8560   42.8140 C   0  0  0  0  0  0  0  0  0  0  0  0
   37.5090   25.8970   43.3020 H   0  0  0  0  0  0  0  0  0  0  0  0
   37.8290   27.9990   43.4970 C   0  0  0  0  0  0  0  0  0  0  0  0
   38.1930   27.9830   44.5330 H   0  0  0  0  0  0  0  0  0  0  0  0
   37.7480   29.2290   42.8530 C   0  0  0  0  0  3  0  0  0  0  0  0
  1  6  2  0  0  0  0
  1  2  1  0  0  0  0
  2  3  2  0  0  0  0
  3  4  1  0  0  0  0
  3 12  1  0  0  0  0
  5  9  1  0  0  0  0
  5  4  2  0  0  0  0
  6  5  1  0  0  0  0
  7  1  1  0  0  0  0
  8  2  1  0  0  0  0
 10  7  1  0  0  0  0
 11  7  1  0  0  0  0
 12 13  2  0  0  0  0
 12 14  1  0  0  0  0
 14 22  1  0  0  0  0
 15 17  1  0  0  0  0
 15 14  2  0  0  0  0
 16 15  1  0  0  0  0
 17 18  2  0  0  0  0
 18 19  1  0  0  0  0
 18 20  1  0  0  0  0
 20 21  1  0  0  0  0
 22 20  2  0  0  0  0
M  END
>  <minimizedAffinity>
-4.73539019

$$$$

 OpenBabel03242520463D

 22 23  0  0  0  0  0  0  0  0999 V2000
   39.6330   32.2770   38.3800 C   0  0  0  0  0  0  0  0  0  0  0  0
   38.6800   31.4730   39.0440 C   0  0  0  0  0  0  0  0  0  0  0  0
   38.6330   31.5740   40.4530 C   0  0  0  0  0  0  0  0  0  0  0  0
   39.4810   32.4140   41.0930 N   0  0  0  0  0  0  0  0  0  0  0  0
   40.3790   33.1660   40.4020 C   0  0  0  0  0  0  0  0  0  0  0  0
   40.4440   33.0890   39.0600 N   0  0  0  0  0  0  0  0  0  0  0  0
   39.7160   32.2110   36.9750 N   0  0  0  0  0  0  0  0  0  0  0  0
   38.0240   30.8170   38.4960 H   0  0  0  0  0  0  0  0  0  0  0  0
   40.9850   33.7870   41.0460 H   0  0  0  0  0  0  0  0  0  0  0  0
   40.6040   32.2310   36.3890 H   0  0  0  0  0  0  0  0  0  0  0  0
   38.8520   32.1320   36.3770 H   0  0  0  0  0  0  0  0  0  0  0  0
   37.6390   30.7330   41.0740 C   0  0  0  0  0  0  0  0  0  0  0  0
   36.4040   30.9010   40.9940 O   0  0  0  0  0  0  0  0  0  0  0  0
   38.2130   29.6280   41.8320 C   0  0  0  0  0  0  0  0  0  0  0  0
   37.3670   29.1330   42.8190 C   0  0  0  0  0  0  0  0  0  0  0  0
   36.3720   29.5220   43.0140 H   0  0  0  0  0  0  0  0  0  0  0  0
   37.8370   28.0740   43.5950 C   0  0  0  0  0  3  0  0  0  0  0  0
   39.1100   27.5350   43.3840 C   0  0  0  0  0  0  0  0  0  0  0  0
   39.4560   26.7170   43.9950 H   0  0  0  0  0  0  0  0  0  0  0  0
   39.9310   28.0480   42.3960 C   0  0  0  0  0  0  0  0  0  0  0  0
   40.9380   27.6580   42.1930 H   0  0  0  0  0  0  0  0  0  0  0  0
   39.4710   29.1030   41.6160 C   0  0  0  0  0  3  0  0  0  0  0  0
  1  2  2  0  0  0  0
  1  6  1  0  0  0  0
  2  3  1  0  0  0  0
  3 12  1  0  0  0  0
  3  4  2  0  0  0  0
  5  9  1  0  0  0  0
  5  4  1  0  0  0  0
  6  5  2  0  0  0  0
  7  1  1  0  0  0  0
  8  2  1  0  0  0  0
 10  7  1  0  0  0  0
 11  7  1  0  0  0  0
 12 14  1  0  0  0  0
 13 12  2  0  0  0  0
 14 15  1  0  0  0  0
 15 16  1  0  0  0  0
 15 17  2  0  0  0  0
 18 17  1  0  0  0  0
 18 19  1  0  0  0  0
 20 18  2  0  0  0  0
 21 20  1  0  0  0  0
 22 14  2  0  0  0  0
 22 20  1  0  0  0  0
M  END
>  <minimizedAffinity>
-4.71174335

$$$$

 OpenBabel03242520463D

 22 23  0  0  0  0  0  0  0  0999 V2000
   37.7410   30.8710   37.3890 C   0  0  0  0  0  0  0  0  0  0  0  0
   37.3880   31.0570   38.7440 C   0  0  0  0  0  0  0  0  0  0  0  0
   37.0480   29.8970   39.4780 C   0  0  0  0  0  0  0  0  0  0  0  0
   37.0750   28.6880   38.8690 N   0  0  0  0  0  0  0  0  0  0  0  0
   37.4240   28.5680   37.5600 C   0  0  0  0  0  0  0  0  0  0  0  0
   37.7510   29.6570   36.8380 N   0  0  0  0  0  0  0  0  0  0  0  0
   38.0870   31.9990   36.6180 N   0  0  0  0  0  0  0  0  0  0  0  0
   37.3790   32.0370   39.1890 H   0  0  0  0  0  0  0  0  0  0  0  0
   37.4000   27.5450   37.2140 H   0  0  0  0  0  0  0  0  0  0  0  0
   37.8260   32.1780   35.6020 H   0  0  0  0  0  0  0  0  0  0  0  0
   38.6610   32.7850   37.0210 H   0  0  0  0  0  0  0  0  0  0  0  0
   36.7010   30.1480   40.8550 C   0  0  0  0  0  0  0  0  0  0  0  0
   36.0330   31.1230   41.2610 O   0  0  0  0  0  0  0  0  0  0  0  0
   37.2100   29.1350   41.7700 C   0  0  0  0  0  0  0  0  0  0  0  0
   38.5180   29.3680   42.1840 C   0  0  0  0  0  0  0  0  0  0  0  0
   39.1120   30.2190   41.8630 H   0  0  0  0  0  0  0  0  0  0  0  0
   39.0860   28.4450   43.0610 C   0  0  0  0  0  3  0  0  0  0  0  0
   38.3660   27.3330   43.5060 C   0  0  0  0  0  0  0  0  0  0  0  0
   38.8230   26.6310   44.1830 H   0  0  0  0  0  0  0  0  0  0  0  0
   37.0660   27.1260   43.0780 C   0  0  0  0  0  0  0  0  0  0  0  0
   36.4600   26.2670   43.3980 H   0  0  0  0  0  0  0  0  0  0  0  0
   36.4900   28.0400   42.2030 C   0  0  0  0  0  3  0  0  0  0  0  0
  1  2  1  0  0  0  0
  2  8  1  0  0  0  0
  2  3  2  0  0  0  0
  3 12  1  0  0  0  0
  4  3  1  0  0  0  0
  5  4  2  0  0  0  0
  6  1  2  0  0  0  0
  6  5  1  0  0  0  0
  7 11  1  0  0  0  0
  7  1  1  0  0  0  0
  9  5  1  0  0  0  0
 10  7  1  0  0  0  0
 12 13  2  0  0  0  0
 12 14  1  0  0  0  0
 14 15  2  0  0  0  0
 14 22  1  0  0  0  0
 15 17  1  0  0  0  0
 16 15  1  0  0  0  0
 17 18  2  0  0  0  0
 18 19  1  0  0  0  0
 20 21  1  0  0  0  0
 20 18  1  0  0  0  0
 22 20  2  0  0  0  0
M  END
>  <minimizedAffinity>
-4.70684719

$$$$

 OpenBabel03242520463D

 22 23  0  0  0  0  0  0  0  0999 V2000
   37.5640   26.5840   42.2260 C   0  0  0  0  0  0  0  0  0  0  0  0
   36.7170   27.2710   41.3280 C   0  0  0  0  0  0  0  0  0  0  0  0
   36.5990   28.6690   41.5070 C   0  0  0  0  0  0  0  0  0  0  0  0
   37.2840   29.2750   42.5060 N   0  0  0  0  0  0  0  0  0  0  0  0
   38.0860   28.5620   43.3410 C   0  0  0  0  0  0  0  0  0  0  0  0
   38.2160   27.2310   43.1920 N   0  0  0  0  0  0  0  0  0  0  0  0
   37.7120   25.1900   42.0840 N   0  0  0  0  0  0  0  0  0  0  0  0
   36.1900   26.7500   40.5470 H   0  0  0  0  0  0  0  0  0  0  0  0
   38.5670   29.1810   44.0860 H   0  0  0  0  0  0  0  0  0  0  0  0
   37.7760   24.4750   42.8700 H   0  0  0  0  0  0  0  0  0  0  0  0
   37.7730   24.7360   41.1350 H   0  0  0  0  0  0  0  0  0  0  0  0
   35.7250   29.3160   40.5600 C   0  0  0  0  0  0  0  0  0  0  0  0
   34.5170   29.0440   40.3950 O   0  0  0  0  0  0  0  0  0  0  0  0
   36.3900   30.3530   39.7800 C   0  0  0  0  0  0  0  0  0  0  0  0
   36.7110   29.9540   38.4860 C   0  0  0  0  0  0  0  0  0  0  0  0
   36.4920   28.9690   38.0850 H   0  0  0  0  0  0  0  0  0  0  0  0
   37.3520   30.8850   37.6700 C   0  0  0  0  0  3  0  0  0  0  0  0
   37.6560   32.1670   38.1370 C   0  0  0  0  0  0  0  0  0  0  0  0
   38.1520   32.8720   37.4900 H   0  0  0  0  0  0  0  0  0  0  0  0
   37.3250   32.5360   39.4290 C   0  0  0  0  0  0  0  0  0  0  0  0
   37.5440   33.5310   39.8410 H   0  0  0  0  0  0  0  0  0  0  0  0
   36.6860   31.6150   40.2520 C   0  0  0  0  0  3  0  0  0  0  0  0
  1  6  1  0  0  0  0
  2  3  1  0  0  0  0
  2  1  2  0  0  0  0
  3  4  2  0  0  0  0
  4  5  1  0  0  0  0
  5  9  1  0  0  0  0
  6  5  2  0  0  0  0
  7  1  1  0  0  0  0
  7 10  1  0  0  0  0
  8  2  1  0  0  0  0
 11  7  1  0  0  0  0
 12  3  1  0  0  0  0
 13 12  2  0  0  0  0
 14 22  1  0  0  0  0
 14 12  1  0  0  0  0
 15 14  2  0  0  0  0
 16 15  1  0  0  0  0
 17 18  2  0  0  0  0
 17 15  1  0  0  0  0
 18 20  1  0  0  0  0
 19 18  1  0  0  0  0
 20 21  1  0  0  0  0
 20 22  2  0  0  0  0
M  END
>  <minimizedAffinity>
-4.70589828

$$$$

 OpenBabel03242520463D

 22 23  0  0  0  0  0  0  0  0999 V2000
   38.4100   24.2690   41.5160 C   0  0  0  0  0  0  0  0  0  0  0  0
   37.4490   25.2010   41.9660 C   0  0  0  0  0  0  0  0  0  0  0  0
   37.8900   26.5320   42.1520 C   0  0  0  0  0  0  0  0  0  0  0  0
   39.1820   26.8500   41.8960 N   0  0  0  0  0  0  0  0  0  0  0  0
   40.0640   25.9100   41.4640 C   0  0  0  0  0  0  0  0  0  0  0  0
   39.6700   24.6360   41.2790 N   0  0  0  0  0  0  0  0  0  0  0  0
   38.0140   22.9320   41.3170 N   0  0  0  0  0  0  0  0  0  0  0  0
   36.4310   24.9060   42.1580 H   0  0  0  0  0  0  0  0  0  0  0  0
   41.0550   26.3120   41.3020 H   0  0  0  0  0  0  0  0  0  0  0  0
   38.5810   22.0610   41.5490 H   0  0  0  0  0  0  0  0  0  0  0  0
   37.0770   22.6910   40.9000 H   0  0  0  0  0  0  0  0  0  0  0  0
   36.8650   27.4380   42.6090 C   0  0  0  0  0  0  0  0  0  0  0  0
   36.1820   27.2870   43.6440 O   0  0  0  0  0  0  0  0  0  0  0  0
   36.6830   28.5880   41.7330 C   0  0  0  0  0  0  0  0  0  0  0  0
   35.8940   28.3180   40.6180 C   0  0  0  0  0  0  0  0  0  0  0  0
   35.4510   27.3480   40.4120 H   0  0  0  0  0  0  0  0  0  0  0  0
   35.6680   29.3630   39.7240 C   0  0  0  0  0  3  0  0  0  0  0  0
   36.2150   30.6320   39.9440 C   0  0  0  0  0  0  0  0  0  0  0  0
   36.0290   31.4270   39.2400 H   0  0  0  0  0  0  0  0  0  0  0  0
   36.9950   30.8720   41.0600 C   0  0  0  0  0  0  0  0  0  0  0  0
   37.4470   31.8500   41.2750 H   0  0  0  0  0  0  0  0  0  0  0  0
   37.2270   29.8360   41.9590 C   0  0  0  0  0  3  0  0  0  0  0  0
  1  2  1  0  0  0  0
  2  3  2  0  0  0  0
  2  8  1  0  0  0  0
  3 12  1  0  0  0  0
  4  3  1  0  0  0  0
  5  4  2  0  0  0  0
  6  5  1  0  0  0  0
  6  1  2  0  0  0  0
  7  1  1  0  0  0  0
  7 10  1  0  0  0  0
  9  5  1  0  0  0  0
 11  7  1  0  0  0  0
 12 13  2  0  0  0  0
 14 22  1  0  0  0  0
 14 12  1  0  0  0  0
 15 14  2  0  0  0  0
 16 15  1  0  0  0  0
 17 18  2  0  0  0  0
 17 15  1  0  0  0  0
 18 20  1  0  0  0  0
 19 18  1  0  0  0  0
 20 21  1  0  0  0  0
 20 22  2  0  0  0  0
M  END
>  <minimizedAffinity>
-4.55011654

$$$$
