
 OpenBabel03242516163D

 43 46  0  0  1  0  0  0  0  0999 V2000
   47.1960   34.0470   41.6320 C   0  0  0  0  0  0  0  0  0  0  0  0
   48.0430   35.2040   41.1120 C   0  0  0  0  0  0  0  0  0  0  0  0
   48.6260   33.9930   41.6910 C   0  0  0  0  0  0  0  0  0  0  0  0
   47.9470   36.1790   41.6580 H   0  0  0  0  0  0  0  0  0  0  0  0
   48.1230   35.3820   40.0210 H   0  0  0  0  0  0  0  0  0  0  0  0
   49.3460   34.3080   42.4480 H   0  0  0  0  0  0  0  0  0  0  0  0
   49.1240   33.3040   40.9450 H   0  0  0  0  0  0  0  0  0  0  0  0
   46.4770   33.3230   40.5430 C   0  0  0  0  0  0  0  0  0  0  0  0
   47.0730   33.4930   39.1580 C   0  0  0  0  0  0  0  0  0  0  0  0
   46.2570   32.5800   38.2430 C   0  0  0  0  0  0  0  0  0  0  0  0
   45.0290   33.2160   38.0390 O   0  0  0  0  0  0  0  0  0  0  0  0
   44.3710   33.0060   39.2810 C   0  0  0  0  0  0  0  0  0  0  0  0
   45.0510   33.8620   40.3470 C   0  0  0  0  0  0  0  0  0  0  0  0
   46.4510   32.2490   40.7720 H   0  0  0  0  0  0  0  0  0  0  0  0
   46.9980   34.5270   38.7860 H   0  0  0  0  0  0  0  0  0  0  0  0
   48.0990   33.0930   39.1330 H   0  0  0  0  0  0  0  0  0  0  0  0
   46.8090   32.5570   37.2690 H   0  0  0  0  0  0  0  0  0  0  0  0
   46.1540   31.5720   38.6910 H   0  0  0  0  0  0  0  0  0  0  0  0
   43.3150   33.2880   39.2070 H   0  0  0  0  0  0  0  0  0  0  0  0
   44.4800   31.9270   39.5210 H   0  0  0  0  0  0  0  0  0  0  0  0
   44.4450   33.8100   41.2540 H   0  0  0  0  0  0  0  0  0  0  0  0
   45.1710   34.9010   39.9350 H   0  0  0  0  0  0  0  0  0  0  0  0
   45.8910   35.6130   43.1120 C   0  0  0  0  0  0  0  0  0  0  0  0
   46.3980   34.3440   42.8640 C   0  0  0  0  0  0  0  0  0  0  0  0
   46.1390   33.3500   43.8190 C   0  0  0  0  0  0  0  0  0  0  0  0
   45.4110   33.6620   44.9330 N   0  0  0  0  0  0  0  0  0  0  0  0
   44.9520   34.9060   45.1110 C   0  0  0  0  0  0  0  0  0  0  0  0
   45.1760   35.8660   44.2360 N   0  0  0  0  0  0  0  0  0  0  0  0
   44.1850   35.2860   46.2450 N   0  0  0  0  0  0  0  0  0  0  0  0
   46.1000   36.3720   42.3640 H   0  0  0  0  0  0  0  0  0  0  0  0
   43.1560   35.0510   46.2720 H   0  0  0  0  0  0  0  0  0  0  0  0
   44.8420   35.7710   46.8970 H   0  0  0  0  0  0  0  0  0  0  0  0
   46.6430   32.0110   43.7190 C   0  0  2  0  0  0  0  0  0  0  0  0
   46.0670   30.9990   43.1460 O   0  0  0  0  0  0  0  0  0  0  0  0
   47.7460   31.1410   44.0700 C   0  0  0  0  0  0  0  0  0  0  0  0
   48.8170   30.7860   43.3010 C   0  0  0  0  0  0  0  0  0  0  0  0
   48.8950   31.2710   42.3220 H   0  0  0  0  0  0  0  0  0  0  0  0
   49.7550   29.8450   43.7680 C   0  0  0  0  0  0  0  0  0  0  0  0
   49.6150   29.2640   45.0040 C   0  0  0  0  0  0  0  0  0  0  0  0
   50.3580   28.5640   45.2910 H   0  0  0  0  0  0  0  0  0  0  0  0
   48.5630   29.5710   45.8320 C   0  0  0  0  0  0  0  0  0  0  0  0
   48.4220   29.1350   46.8080 H   0  0  0  0  0  0  0  0  0  0  0  0
   47.6980   30.4970   45.2960 C   0  0  0  0  0  0  0  0  0  0  0  0
  1  3  1  0  0  0  0
  1 24  1  0  0  0  0
  2  1  1  0  0  0  0
  2  4  1  0  0  0  0
  2  3  1  0  0  0  0
  3  6  1  0  0  0  0
  5  2  1  0  0  0  0
  7  3  1  0  0  0  0
  8 14  1  0  0  0  0
  8  1  1  0  0  0  0
  9  8  1  0  0  0  0
 10 18  1  0  0  0  0
 10  9  1  0  0  0  0
 11 10  1  0  0  0  0
 11 12  1  0  0  0  0
 12 20  1  0  0  0  0
 12 13  1  0  0  0  0
 13  8  1  0  0  0  0
 13 21  1  0  0  0  0
 15  9  1  0  0  0  0
 16  9  1  0  0  0  0
 17 10  1  0  0  0  0
 19 12  1  0  0  0  0
 22 13  1  0  0  0  0
 23 28  1  0  0  0  0
 24 23  2  0  0  0  0
 24 25  1  0  0  0  0
 25 26  2  0  0  0  0
 26 27  1  0  0  0  0
 27 29  1  0  0  0  0
 28 27  2  0  0  0  0
 29 31  1  0  0  0  0
 29 32  1  0  0  0  0
 30 23  1  0  0  0  0
 33 34  1  1  0  0  0
 33 25  1  0  0  0  0
 33 35  1  0  0  0  0
 35 43  1  0  0  0  0
 36 38  1  0  0  0  0
 36 35  2  0  0  0  0
 37 36  1  0  0  0  0
 38 39  2  0  0  0  0
 39 40  1  0  0  0  0
 39 41  1  0  0  0  0
 41 42  1  0  0  0  0
 43 41  2  0  0  0  0
M  END
>  <minimizedAffinity>
-5.28653574

>  <minimizedRMSD>
1.82846987

$$$$
