
 OpenBabel03252506223D

 35 37  0  0  0  0  0  0  0  0999 V2000
   39.1510   33.2700   40.4400 C   0  0  0  0  0  0  0  0  0  0  0  0
   38.4700   34.4890   40.3160 C   0  0  0  0  0  0  0  0  0  0  0  0
   39.2320   35.6450   40.1050 C   0  0  0  0  0  0  0  0  0  0  0  0
   40.5810   35.5280   40.0300 N   0  0  0  0  0  0  0  0  0  0  0  0
   41.1940   34.3390   40.1530 C   0  0  0  0  0  0  0  0  0  0  0  0
   40.4880   33.2100   40.3570 N   0  0  0  0  0  0  0  0  0  0  0  0
   37.4000   34.5500   40.3800 H   0  0  0  0  0  0  0  0  0  0  0  0
   38.7650   36.6160   40.0010 H   0  0  0  0  0  0  0  0  0  0  0  0
   42.2950   33.8650   37.3690 Cl  0  0  0  0  0  0  0  0  0  0  0  0
   43.2390   34.0880   38.8080 C   0  0  0  0  0  0  0  0  0  0  0  0
   42.6710   34.3020   40.0590 C   0  0  0  0  0  0  0  0  0  0  0  0
   43.3960   34.4800   41.2010 C   0  0  0  0  0  0  0  0  0  0  0  0
   44.7570   34.4420   41.0900 C   0  0  0  0  0  0  0  0  0  0  0  0
   45.4280   34.2370   39.9050 C   0  0  0  0  0  0  0  0  0  0  0  0
   44.6200   34.0660   38.7970 C   0  0  0  0  0  0  0  0  0  0  0  0
   42.9070   34.6400   42.1310 H   0  0  0  0  0  0  0  0  0  0  0  0
   45.3580   34.5810   41.9870 H   0  0  0  0  0  0  0  0  0  0  0  0
   46.5110   34.2050   39.8010 H   0  0  0  0  0  0  0  0  0  0  0  0
   45.0920   33.9000   37.8270 H   0  0  0  0  0  0  0  0  0  0  0  0
   38.3580   32.0570   40.6620 C   0  0  0  0  0  3  0  0  0  0  0  0
   37.1480   32.0050   40.1800 C   0  0  0  0  0  3  0  0  0  0  0  0
   36.2990   30.7980   40.3750 C   0  0  0  0  0  0  0  0  0  0  0  0
   36.7700   29.9590   39.7910 H   0  0  0  0  0  0  0  0  0  0  0  0
   35.2620   30.9540   40.0230 H   0  0  0  0  0  0  0  0  0  0  0  0
   36.3850   30.3990   41.7590 N   0  0  0  0  0  0  0  0  0  0  0  0
   36.0780   31.0170   42.5430 H   0  0  0  0  0  0  0  0  0  0  0  0
   36.9080   29.1170   42.0830 C   0  0  0  0  0  0  0  0  0  0  0  0
   37.7780   28.9330   43.1340 C   0  0  0  0  0  0  0  0  0  0  0  0
   38.0980   29.7610   43.7560 H   0  0  0  0  0  0  0  0  0  0  0  0
   38.3110   27.7000   43.4830 C   0  0  0  0  0  3  0  0  0  0  0  0
   37.9510   26.5950   42.7380 C   0  0  0  0  0  0  0  0  0  0  0  0
   38.3630   25.6260   43.0050 H   0  0  0  0  0  0  0  0  0  0  0  0
   37.0830   26.7720   41.6880 C   0  0  0  0  0  0  0  0  0  0  0  0
   36.8090   25.8790   41.1060 H   0  0  0  0  0  0  0  0  0  0  0  0
   36.5700   27.9920   41.3590 C   0  0  0  0  0  3  0  0  0  0  0  0
  1 20  1  0  0  0  0
  2  7  1  0  0  0  0
  2  1  2  0  0  0  0
  3  2  1  0  0  0  0
  4  3  2  0  0  0  0
  4  5  1  0  0  0  0
  5  6  2  0  0  0  0
  6  1  1  0  0  0  0
  8  3  1  0  0  0  0
  9 10  1  0  0  0  0
 10 11  1  0  0  0  0
 11  5  1  0  0  0  0
 11 12  2  0  0  0  0
 12 16  1  0  0  0  0
 13 12  1  0  0  0  0
 13 17  1  0  0  0  0
 14 13  2  0  0  0  0
 15 10  2  0  0  0  0
 15 14  1  0  0  0  0
 18 14  1  0  0  0  0
 19 15  1  0  0  0  0
 21 22  1  0  0  0  0
 21 20  2  0  0  0  0
 22 25  1  0  0  0  0
 23 22  1  0  0  0  0
 24 22  1  0  0  0  0
 25 27  1  0  0  0  0
 25 26  1  0  0  0  0
 27 28  1  0  0  0  0
 28 30  2  0  0  0  0
 28 29  1  0  0  0  0
 31 32  1  0  0  0  0
 31 30  1  0  0  0  0
 33 31  2  0  0  0  0
 34 33  1  0  0  0  0
 35 33  1  0  0  0  0
 35 27  2  0  0  0  0
M  END
>  <minimizedAffinity>
-6.34505272

$$$$

 OpenBabel03252506223D

 35 37  0  0  0  0  0  0  0  0999 V2000
   39.1990   33.0470   39.9580 C   0  0  0  0  0  0  0  0  0  0  0  0
   38.5820   34.2830   40.1930 C   0  0  0  0  0  0  0  0  0  0  0  0
   39.3720   35.4360   40.0980 C   0  0  0  0  0  0  0  0  0  0  0  0
   40.6850   35.2990   39.7840 N   0  0  0  0  0  0  0  0  0  0  0  0
   41.2360   34.0940   39.5660 C   0  0  0  0  0  0  0  0  0  0  0  0
   40.5020   32.9680   39.6500 N   0  0  0  0  0  0  0  0  0  0  0  0
   37.5410   34.3600   40.4400 H   0  0  0  0  0  0  0  0  0  0  0  0
   38.9550   36.4200   40.2690 H   0  0  0  0  0  0  0  0  0  0  0  0
   43.1210   34.3160   41.9290 Cl  0  0  0  0  0  0  0  0  0  0  0  0
   43.5940   34.1340   40.2690 C   0  0  0  0  0  0  0  0  0  0  0  0
   42.6760   34.0370   39.2290 C   0  0  0  0  0  0  0  0  0  0  0  0
   43.0270   33.8930   37.9180 C   0  0  0  0  0  0  0  0  0  0  0  0
   44.3620   33.8420   37.6310 C   0  0  0  0  0  0  0  0  0  0  0  0
   45.3580   33.9280   38.5770 C   0  0  0  0  0  0  0  0  0  0  0  0
   44.9170   34.0720   39.8790 C   0  0  0  0  0  0  0  0  0  0  0  0
   42.2820   33.8240   37.1640 H   0  0  0  0  0  0  0  0  0  0  0  0
   44.6690   33.7270   36.5920 H   0  0  0  0  0  0  0  0  0  0  0  0
   46.4250   33.8890   38.3640 H   0  0  0  0  0  0  0  0  0  0  0  0
   45.6580   34.1450   40.6770 H   0  0  0  0  0  0  0  0  0  0  0  0
   38.3770   31.8370   40.0570 C   0  0  0  0  0  3  0  0  0  0  0  0
   37.1750   31.9380   40.5490 C   0  0  0  0  0  3  0  0  0  0  0  0
   36.2970   30.7410   40.6730 C   0  0  0  0  0  0  0  0  0  0  0  0
   36.7710   29.9160   40.0730 H   0  0  0  0  0  0  0  0  0  0  0  0
   35.2750   30.9310   40.2930 H   0  0  0  0  0  0  0  0  0  0  0  0
   36.3300   30.2910   42.0420 N   0  0  0  0  0  0  0  0  0  0  0  0
   35.7970   30.7660   42.8050 H   0  0  0  0  0  0  0  0  0  0  0  0
   37.1160   29.1560   42.3830 C   0  0  0  0  0  0  0  0  0  0  0  0
   38.4240   29.2770   42.7970 C   0  0  0  0  0  0  0  0  0  0  0  0
   38.9050   30.2450   42.8780 H   0  0  0  0  0  0  0  0  0  0  0  0
   39.2260   28.1970   43.1380 C   0  0  0  0  0  3  0  0  0  0  0  0
   38.6850   26.9290   43.0600 C   0  0  0  0  0  0  0  0  0  0  0  0
   39.3050   26.0780   43.3260 H   0  0  0  0  0  0  0  0  0  0  0  0
   37.3810   26.8010   42.6480 C   0  0  0  0  0  0  0  0  0  0  0  0
   36.9690   25.7820   42.5920 H   0  0  0  0  0  0  0  0  0  0  0  0
   36.6090   27.8760   42.3160 C   0  0  0  0  0  3  0  0  0  0  0  0
  1 20  1  0  0  0  0
  1  2  1  0  0  0  0
  2  7  1  0  0  0  0
  3  2  2  0  0  0  0
  3  8  1  0  0  0  0
  4  3  1  0  0  0  0
  5  6  1  0  0  0  0
  5  4  2  0  0  0  0
  6  1  2  0  0  0  0
 10  9  1  0  0  0  0
 11  5  1  0  0  0  0
 11 10  2  0  0  0  0
 12 11  1  0  0  0  0
 13 12  2  0  0  0  0
 13 14  1  0  0  0  0
 14 15  2  0  0  0  0
 15 10  1  0  0  0  0
 15 19  1  0  0  0  0
 16 12  1  0  0  0  0
 17 13  1  0  0  0  0
 18 14  1  0  0  0  0
 20 21  2  0  0  0  0
 21 22  1  0  0  0  0
 22 25  1  0  0  0  0
 23 22  1  0  0  0  0
 24 22  1  0  0  0  0
 25 27  1  0  0  0  0
 25 26  1  0  0  0  0
 27 28  1  0  0  0  0
 28 29  1  0  0  0  0
 28 30  2  0  0  0  0
 31 30  1  0  0  0  0
 31 32  1  0  0  0  0
 33 31  2  0  0  0  0
 34 33  1  0  0  0  0
 35 27  2  0  0  0  0
 35 33  1  0  0  0  0
M  END
>  <minimizedAffinity>
-6.16760445

$$$$

 OpenBabel03252506223D

 35 37  0  0  0  0  0  0  0  0999 V2000
   36.0790   29.0350   39.6220 C   0  0  0  0  0  0  0  0  0  0  0  0
   35.7560   30.3620   39.9370 C   0  0  0  0  0  0  0  0  0  0  0  0
   36.4060   30.9510   41.0290 C   0  0  0  0  0  0  0  0  0  0  0  0
   37.3100   30.2140   41.7210 N   0  0  0  0  0  0  0  0  0  0  0  0
   37.5910   28.9450   41.3830 C   0  0  0  0  0  0  0  0  0  0  0  0
   36.9820   28.3510   40.3390 N   0  0  0  0  0  0  0  0  0  0  0  0
   35.0350   30.9210   39.3710 H   0  0  0  0  0  0  0  0  0  0  0  0
   36.2000   31.9730   41.3230 H   0  0  0  0  0  0  0  0  0  0  0  0
   36.4550   27.3380   43.6890 Cl  0  0  0  0  0  0  0  0  0  0  0  0
   38.1340   27.4570   43.2670 C   0  0  0  0  0  0  0  0  0  0  0  0
   38.5920   28.2130   42.1930 C   0  0  0  0  0  0  0  0  0  0  0  0
   39.9070   28.3190   41.8450 C   0  0  0  0  0  0  0  0  0  0  0  0
   40.8120   27.6350   42.6070 C   0  0  0  0  0  0  0  0  0  0  0  0
   40.4750   26.8560   43.6910 C   0  0  0  0  0  0  0  0  0  0  0  0
   39.1230   26.8030   43.9750 C   0  0  0  0  0  0  0  0  0  0  0  0
   40.1990   28.9130   41.0130 H   0  0  0  0  0  0  0  0  0  0  0  0
   41.8670   27.7030   42.3500 H   0  0  0  0  0  0  0  0  0  0  0  0
   41.1840   26.3060   44.3070 H   0  0  0  0  0  0  0  0  0  0  0  0
   38.7910   26.2010   44.8230 H   0  0  0  0  0  0  0  0  0  0  0  0
   35.4010   28.4140   38.4800 C   0  0  0  0  0  3  0  0  0  0  0  0
   34.2760   28.9260   38.0680 C   0  0  0  0  0  3  0  0  0  0  0  0
   33.5440   28.3360   36.9130 C   0  0  0  0  0  0  0  0  0  0  0  0
   33.7890   27.2370   36.8890 H   0  0  0  0  0  0  0  0  0  0  0  0
   33.8360   28.7990   35.9520 H   0  0  0  0  0  0  0  0  0  0  0  0
   32.1300   28.4090   37.1840 N   0  0  0  0  0  0  0  0  0  0  0  0
   31.5720   27.5840   37.4990 H   0  0  0  0  0  0  0  0  0  0  0  0
   31.4530   29.6500   37.0200 C   0  0  0  0  0  0  0  0  0  0  0  0
   30.6610   30.1810   38.0140 C   0  0  0  0  0  0  0  0  0  0  0  0
   30.5230   29.6720   38.9600 H   0  0  0  0  0  0  0  0  0  0  0  0
   29.9840   31.3860   37.8950 C   0  0  0  0  0  3  0  0  0  0  0  0
   30.1090   32.0950   36.7170 C   0  0  0  0  0  0  0  0  0  0  0  0
   29.5840   33.0400   36.6150 H   0  0  0  0  0  0  0  0  0  0  0  0
   30.8980   31.5710   35.7210 C   0  0  0  0  0  0  0  0  0  0  0  0
   30.9850   32.1510   34.7900 H   0  0  0  0  0  0  0  0  0  0  0  0
   31.5550   30.3830   35.8570 C   0  0  0  0  0  3  0  0  0  0  0  0
  1  2  2  0  0  0  0
  1  6  1  0  0  0  0
  2  3  1  0  0  0  0
  3  8  1  0  0  0  0
  3  4  2  0  0  0  0
  5  4  1  0  0  0  0
  5 11  1  0  0  0  0
  6  5  2  0  0  0  0
  7  2  1  0  0  0  0
 10  9  1  0  0  0  0
 10 15  1  0  0  0  0
 11 10  2  0  0  0  0
 12 11  1  0  0  0  0
 12 13  2  0  0  0  0
 13 14  1  0  0  0  0
 14 15  2  0  0  0  0
 14 18  1  0  0  0  0
 15 19  1  0  0  0  0
 16 12  1  0  0  0  0
 17 13  1  0  0  0  0
 20  1  1  0  0  0  0
 21 20  2  0  0  0  0
 22 25  1  0  0  0  0
 22 21  1  0  0  0  0
 23 22  1  0  0  0  0
 24 22  1  0  0  0  0
 25 26  1  0  0  0  0
 27 25  1  0  0  0  0
 27 28  1  0  0  0  0
 28 29  1  0  0  0  0
 30 28  2  0  0  0  0
 31 30  1  0  0  0  0
 32 31  1  0  0  0  0
 33 35  1  0  0  0  0
 33 31  2  0  0  0  0
 34 33  1  0  0  0  0
 35 27  2  0  0  0  0
M  END
>  <minimizedAffinity>
-6.14934063

$$$$

 OpenBabel03252506223D

 35 37  0  0  0  0  0  0  0  0999 V2000
   37.8090   29.0430   41.6710 C   0  0  0  0  0  0  0  0  0  0  0  0
   37.6720   29.2290   43.0540 C   0  0  0  0  0  0  0  0  0  0  0  0
   37.5390   28.0880   43.8560 C   0  0  0  0  0  0  0  0  0  0  0  0
   37.5500   26.8700   43.2590 N   0  0  0  0  0  0  0  0  0  0  0  0
   37.6840   26.7380   41.9300 C   0  0  0  0  0  0  0  0  0  0  0  0
   37.8140   27.8150   41.1320 N   0  0  0  0  0  0  0  0  0  0  0  0
   37.6660   30.2060   43.4980 H   0  0  0  0  0  0  0  0  0  0  0  0
   37.4290   28.1650   44.9300 H   0  0  0  0  0  0  0  0  0  0  0  0
   40.3210   25.2570   42.1460 Cl  0  0  0  0  0  0  0  0  0  0  0  0
   38.8660   24.6380   41.4290 C   0  0  0  0  0  0  0  0  0  0  0  0
   37.6860   25.3700   41.3620 C   0  0  0  0  0  0  0  0  0  0  0  0
   36.5330   24.9020   40.8030 C   0  0  0  0  0  0  0  0  0  0  0  0
   36.5580   23.6380   40.2850 C   0  0  0  0  0  0  0  0  0  0  0  0
   37.6680   22.8220   40.2960 C   0  0  0  0  0  0  0  0  0  0  0  0
   38.7930   23.3730   40.8800 C   0  0  0  0  0  0  0  0  0  0  0  0
   35.6600   25.5070   40.7800 H   0  0  0  0  0  0  0  0  0  0  0  0
   35.6510   23.2400   39.8340 H   0  0  0  0  0  0  0  0  0  0  0  0
   37.7030   21.8140   39.8880 H   0  0  0  0  0  0  0  0  0  0  0  0
   39.7060   22.7760   40.9200 H   0  0  0  0  0  0  0  0  0  0  0  0
   37.9470   30.2330   40.8270 C   0  0  0  0  0  3  0  0  0  0  0  0
   36.8690   30.7970   40.3600 C   0  0  0  0  0  3  0  0  0  0  0  0
   36.9510   32.0080   39.4980 C   0  0  0  0  0  0  0  0  0  0  0  0
   35.9060   32.2460   39.1550 H   0  0  0  0  0  0  0  0  0  0  0  0
   37.6010   31.8510   38.6170 H   0  0  0  0  0  0  0  0  0  0  0  0
   37.3510   33.1250   40.3190 N   0  0  0  0  0  0  0  0  0  0  0  0
   36.7620   33.4880   41.1020 H   0  0  0  0  0  0  0  0  0  0  0  0
   38.5930   33.7680   40.0630 C   0  0  0  0  0  0  0  0  0  0  0  0
   39.6170   33.1300   39.3980 C   0  0  0  0  0  0  0  0  0  0  0  0
   39.5130   32.1110   39.0440 H   0  0  0  0  0  0  0  0  0  0  0  0
   40.8430   33.7200   39.1270 C   0  0  0  0  0  3  0  0  0  0  0  0
   41.0530   35.0180   39.5470 C   0  0  0  0  0  0  0  0  0  0  0  0
   42.0100   35.4890   39.3390 H   0  0  0  0  0  0  0  0  0  0  0  0
   40.0360   35.6610   40.2110 C   0  0  0  0  0  0  0  0  0  0  0  0
   40.2230   36.6960   40.5370 H   0  0  0  0  0  0  0  0  0  0  0  0
   38.8370   35.0630   40.4680 C   0  0  0  0  0  3  0  0  0  0  0  0
  1  2  1  0  0  0  0
  2  7  1  0  0  0  0
  2  3  2  0  0  0  0
  3  8  1  0  0  0  0
  4  3  1  0  0  0  0
  5  4  2  0  0  0  0
  6  1  2  0  0  0  0
  6  5  1  0  0  0  0
 10  9  1  0  0  0  0
 11 10  1  0  0  0  0
 11  5  1  0  0  0  0
 12 11  2  0  0  0  0
 13 14  2  0  0  0  0
 13 12  1  0  0  0  0
 14 15  1  0  0  0  0
 15 19  1  0  0  0  0
 15 10  2  0  0  0  0
 16 12  1  0  0  0  0
 17 13  1  0  0  0  0
 18 14  1  0  0  0  0
 20  1  1  0  0  0  0
 21 20  2  0  0  0  0
 22 25  1  0  0  0  0
 22 21  1  0  0  0  0
 23 22  1  0  0  0  0
 24 22  1  0  0  0  0
 25 26  1  0  0  0  0
 27 25  1  0  0  0  0
 27 35  1  0  0  0  0
 28 27  2  0  0  0  0
 29 28  1  0  0  0  0
 30 28  1  0  0  0  0
 30 31  2  0  0  0  0
 31 33  1  0  0  0  0
 32 31  1  0  0  0  0
 33 35  2  0  0  0  0
 33 34  1  0  0  0  0
M  END
>  <minimizedAffinity>
-6.08974838

$$$$

 OpenBabel03252506223D

 35 37  0  0  0  0  0  0  0  0999 V2000
   40.1960   29.7000   42.4260 C   0  0  0  0  0  0  0  0  0  0  0  0
   41.4830   29.5250   42.9540 C   0  0  0  0  0  0  0  0  0  0  0  0
   41.9250   28.2140   43.1760 C   0  0  0  0  0  0  0  0  0  0  0  0
   41.0930   27.1880   42.8710 N   0  0  0  0  0  0  0  0  0  0  0  0
   39.8670   27.4010   42.3660 C   0  0  0  0  0  0  0  0  0  0  0  0
   39.4130   28.6490   42.1410 N   0  0  0  0  0  0  0  0  0  0  0  0
   42.1190   30.3570   43.1860 H   0  0  0  0  0  0  0  0  0  0  0  0
   42.9090   28.0140   43.5810 H   0  0  0  0  0  0  0  0  0  0  0  0
   37.0460   27.5160   43.4680 Cl  0  0  0  0  0  0  0  0  0  0  0  0
   37.7180   26.2140   42.5400 C   0  0  0  0  0  0  0  0  0  0  0  0
   39.0240   26.2220   42.0610 C   0  0  0  0  0  0  0  0  0  0  0  0
   39.5710   25.2080   41.3310 C   0  0  0  0  0  0  0  0  0  0  0  0
   38.7750   24.1310   41.0620 C   0  0  0  0  0  0  0  0  0  0  0  0
   37.4690   24.0140   41.4830 C   0  0  0  0  0  0  0  0  0  0  0  0
   36.9930   25.0830   42.2170 C   0  0  0  0  0  0  0  0  0  0  0  0
   40.5760   25.2690   40.9910 H   0  0  0  0  0  0  0  0  0  0  0  0
   39.1870   23.3090   40.4800 H   0  0  0  0  0  0  0  0  0  0  0  0
   36.8220   23.1620   41.2770 H   0  0  0  0  0  0  0  0  0  0  0  0
   35.9640   25.0510   42.5800 H   0  0  0  0  0  0  0  0  0  0  0  0
   39.7280   31.0690   42.1920 C   0  0  0  0  0  3  0  0  0  0  0  0
   39.2180   31.3640   41.0300 C   0  0  0  0  0  3  0  0  0  0  0  0
   38.7260   32.7390   40.7380 C   0  0  0  0  0  0  0  0  0  0  0  0
   39.1540   33.0430   39.7420 H   0  0  0  0  0  0  0  0  0  0  0  0
   39.0390   33.4680   41.5090 H   0  0  0  0  0  0  0  0  0  0  0  0
   37.2990   32.6810   40.5430 N   0  0  0  0  0  0  0  0  0  0  0  0
   36.6660   33.4830   40.7610 H   0  0  0  0  0  0  0  0  0  0  0  0
   36.7140   31.4880   40.0340 C   0  0  0  0  0  0  0  0  0  0  0  0
   36.0210   30.6170   40.8440 C   0  0  0  0  0  0  0  0  0  0  0  0
   35.8960   30.8070   41.9040 H   0  0  0  0  0  0  0  0  0  0  0  0
   35.4360   29.4440   40.3890 C   0  0  0  0  0  3  0  0  0  0  0  0
   35.5530   29.1300   39.0490 C   0  0  0  0  0  0  0  0  0  0  0  0
   35.0970   28.2150   38.6830 H   0  0  0  0  0  0  0  0  0  0  0  0
   36.2420   29.9960   38.2350 C   0  0  0  0  0  0  0  0  0  0  0  0
   36.3240   29.7280   37.1700 H   0  0  0  0  0  0  0  0  0  0  0  0
   36.8110   31.1440   38.7020 C   0  0  0  0  0  3  0  0  0  0  0  0
  1  2  1  0  0  0  0
  2  3  2  0  0  0  0
  2  7  1  0  0  0  0
  3  8  1  0  0  0  0
  4  3  1  0  0  0  0
  5  4  2  0  0  0  0
  6  5  1  0  0  0  0
  6  1  2  0  0  0  0
 10  9  1  0  0  0  0
 11  5  1  0  0  0  0
 11 10  2  0  0  0  0
 12 11  1  0  0  0  0
 13 12  2  0  0  0  0
 13 14  1  0  0  0  0
 14 15  2  0  0  0  0
 15 10  1  0  0  0  0
 15 19  1  0  0  0  0
 16 12  1  0  0  0  0
 17 13  1  0  0  0  0
 18 14  1  0  0  0  0
 20  1  1  0  0  0  0
 21 20  2  0  0  0  0
 22 21  1  0  0  0  0
 22 24  1  0  0  0  0
 23 22  1  0  0  0  0
 25 22  1  0  0  0  0
 25 26  1  0  0  0  0
 27 25  1  0  0  0  0
 27 28  1  0  0  0  0
 28 29  1  0  0  0  0
 30 28  2  0  0  0  0
 31 30  1  0  0  0  0
 32 31  1  0  0  0  0
 33 35  1  0  0  0  0
 33 31  2  0  0  0  0
 34 33  1  0  0  0  0
 35 27  2  0  0  0  0
M  END
>  <minimizedAffinity>
-5.97425032

$$$$

 OpenBabel03252506223D

 35 37  0  0  0  0  0  0  0  0999 V2000
   37.3880   30.4320   40.9360 C   0  0  0  0  0  0  0  0  0  0  0  0
   36.5650   30.1460   39.8390 C   0  0  0  0  0  0  0  0  0  0  0  0
   36.6560   30.9830   38.7190 C   0  0  0  0  0  0  0  0  0  0  0  0
   37.5310   32.0190   38.7520 N   0  0  0  0  0  0  0  0  0  0  0  0
   38.3020   32.2560   39.8250 C   0  0  0  0  0  0  0  0  0  0  0  0
   38.2370   31.4700   40.9170 N   0  0  0  0  0  0  0  0  0  0  0  0
   35.8810   29.3190   39.8420 H   0  0  0  0  0  0  0  0  0  0  0  0
   36.0470   30.8150   37.8400 H   0  0  0  0  0  0  0  0  0  0  0  0
   41.0230   31.6710   38.6230 Cl  0  0  0  0  0  0  0  0  0  0  0  0
   40.4950   33.2060   39.2360 C   0  0  0  0  0  0  0  0  0  0  0  0
   39.2300   33.4100   39.7760 C   0  0  0  0  0  0  0  0  0  0  0  0
   38.7960   34.6080   40.2630 C   0  0  0  0  0  0  0  0  0  0  0  0
   39.6690   35.6580   40.2070 C   0  0  0  0  0  0  0  0  0  0  0  0
   40.9440   35.5740   39.6950 C   0  0  0  0  0  0  0  0  0  0  0  0
   41.3040   34.3250   39.2240 C   0  0  0  0  0  0  0  0  0  0  0  0
   37.8170   34.7050   40.6650 H   0  0  0  0  0  0  0  0  0  0  0  0
   39.3470   36.6250   40.5890 H   0  0  0  0  0  0  0  0  0  0  0  0
   41.6500   36.4010   39.6440 H   0  0  0  0  0  0  0  0  0  0  0  0
   42.3030   34.1930   38.8040 H   0  0  0  0  0  0  0  0  0  0  0  0
   37.2960   29.5610   42.1110 C   0  0  0  0  0  3  0  0  0  0  0  0
   36.8250   28.3550   41.9590 C   0  0  0  0  0  3  0  0  0  0  0  0
   36.7100   27.4270   43.1180 C   0  0  0  0  0  0  0  0  0  0  0  0
   36.6870   26.3800   42.7070 H   0  0  0  0  0  0  0  0  0  0  0  0
   35.7930   27.6090   43.7100 H   0  0  0  0  0  0  0  0  0  0  0  0
   37.9240   27.5120   43.8920 N   0  0  0  0  0  0  0  0  0  0  0  0
   38.0270   28.1510   44.7110 H   0  0  0  0  0  0  0  0  0  0  0  0
   39.0350   26.6980   43.5350 C   0  0  0  0  0  0  0  0  0  0  0  0
   38.8810   25.5380   42.8100 C   0  0  0  0  0  0  0  0  0  0  0  0
   37.9040   25.2010   42.4820 H   0  0  0  0  0  0  0  0  0  0  0  0
   39.9370   24.7160   42.4410 C   0  0  0  0  0  3  0  0  0  0  0  0
   41.2130   25.0790   42.8210 C   0  0  0  0  0  0  0  0  0  0  0  0
   42.0460   24.4420   42.5370 H   0  0  0  0  0  0  0  0  0  0  0  0
   41.3740   26.2350   43.5460 C   0  0  0  0  0  0  0  0  0  0  0  0
   42.4000   26.5070   43.8390 H   0  0  0  0  0  0  0  0  0  0  0  0
   40.3230   27.0300   43.8990 C   0  0  0  0  0  3  0  0  0  0  0  0
  1 20  1  0  0  0  0
  2  7  1  0  0  0  0
  2  1  2  0  0  0  0
  3  4  2  0  0  0  0
  3  2  1  0  0  0  0
  4  5  1  0  0  0  0
  5  6  2  0  0  0  0
  6  1  1  0  0  0  0
  8  3  1  0  0  0  0
  9 10  1  0  0  0  0
 10 11  1  0  0  0  0
 11  5  1  0  0  0  0
 11 12  2  0  0  0  0
 12 16  1  0  0  0  0
 13 12  1  0  0  0  0
 13 17  1  0  0  0  0
 14 13  2  0  0  0  0
 15 10  2  0  0  0  0
 15 14  1  0  0  0  0
 18 14  1  0  0  0  0
 19 15  1  0  0  0  0
 21 20  2  0  0  0  0
 21 22  1  0  0  0  0
 22 24  1  0  0  0  0
 22 25  1  0  0  0  0
 23 22  1  0  0  0  0
 25 26  1  0  0  0  0
 27 25  1  0  0  0  0
 27 35  1  0  0  0  0
 28 27  2  0  0  0  0
 29 28  1  0  0  0  0
 30 28  1  0  0  0  0
 30 31  2  0  0  0  0
 31 33  1  0  0  0  0
 32 31  1  0  0  0  0
 33 34  1  0  0  0  0
 33 35  2  0  0  0  0
M  END
>  <minimizedAffinity>
-5.92477894

$$$$

 OpenBabel03252506223D

 35 37  0  0  0  0  0  0  0  0999 V2000
   37.2150   30.3770   40.5270 C   0  0  0  0  0  0  0  0  0  0  0  0
   36.6210   30.2110   39.2680 C   0  0  0  0  0  0  0  0  0  0  0  0
   36.9360   31.1410   38.2700 C   0  0  0  0  0  0  0  0  0  0  0  0
   37.7940   32.1480   38.5680 N   0  0  0  0  0  0  0  0  0  0  0  0
   38.3420   32.2690   39.7880 C   0  0  0  0  0  0  0  0  0  0  0  0
   38.0590   31.3910   40.7690 N   0  0  0  0  0  0  0  0  0  0  0  0
   35.9440   29.4040   39.0620 H   0  0  0  0  0  0  0  0  0  0  0  0
   36.5090   31.0680   37.2770 H   0  0  0  0  0  0  0  0  0  0  0  0
   41.2870   31.5560   39.7130 Cl  0  0  0  0  0  0  0  0  0  0  0  0
   40.6340   33.1370   40.0070 C   0  0  0  0  0  0  0  0  0  0  0  0
   39.2690   33.3990   40.0280 C   0  0  0  0  0  0  0  0  0  0  0  0
   38.7360   34.6340   40.2570 C   0  0  0  0  0  0  0  0  0  0  0  0
   39.6110   35.6610   40.4750 C   0  0  0  0  0  0  0  0  0  0  0  0
   40.9800   35.5200   40.4770 C   0  0  0  0  0  0  0  0  0  0  0  0
   41.4360   34.2370   40.2380 C   0  0  0  0  0  0  0  0  0  0  0  0
   37.6830   34.7750   40.2610 H   0  0  0  0  0  0  0  0  0  0  0  0
   39.2110   36.6570   40.6590 H   0  0  0  0  0  0  0  0  0  0  0  0
   41.6890   36.3280   40.6490 H   0  0  0  0  0  0  0  0  0  0  0  0
   42.5130   34.0590   40.2260 H   0  0  0  0  0  0  0  0  0  0  0  0
   36.8880   29.4060   41.5760 C   0  0  0  0  0  3  0  0  0  0  0  0
   37.7200   29.2560   42.5690 C   0  0  0  0  0  3  0  0  0  0  0  0
   37.4380   28.2850   43.6620 C   0  0  0  0  0  0  0  0  0  0  0  0
   36.4740   27.7640   43.4050 H   0  0  0  0  0  0  0  0  0  0  0  0
   37.3380   28.7800   44.6460 H   0  0  0  0  0  0  0  0  0  0  0  0
   38.4510   27.2580   43.6310 N   0  0  0  0  0  0  0  0  0  0  0  0
   39.3150   27.3010   44.2160 H   0  0  0  0  0  0  0  0  0  0  0  0
   38.2790   26.1360   42.7730 C   0  0  0  0  0  0  0  0  0  0  0  0
   39.3520   25.4900   42.2000 C   0  0  0  0  0  0  0  0  0  0  0  0
   40.3700   25.8140   42.3810 H   0  0  0  0  0  0  0  0  0  0  0  0
   39.2280   24.3940   41.3590 C   0  0  0  0  0  3  0  0  0  0  0  0
   37.9620   23.9210   41.0790 C   0  0  0  0  0  0  0  0  0  0  0  0
   37.8560   23.0630   40.4220 H   0  0  0  0  0  0  0  0  0  0  0  0
   36.8870   24.5610   41.6470 C   0  0  0  0  0  0  0  0  0  0  0  0
   35.8860   24.1690   41.4120 H   0  0  0  0  0  0  0  0  0  0  0  0
   37.0290   25.6390   42.4720 C   0  0  0  0  0  3  0  0  0  0  0  0
  1  6  1  0  0  0  0
  1 20  1  0  0  0  0
  2  1  2  0  0  0  0
  3  4  2  0  0  0  0
  3  2  1  0  0  0  0
  4  5  1  0  0  0  0
  5 11  1  0  0  0  0
  5  6  2  0  0  0  0
  7  2  1  0  0  0  0
  8  3  1  0  0  0  0
  9 10  1  0  0  0  0
 10 11  2  0  0  0  0
 10 15  1  0  0  0  0
 11 12  1  0  0  0  0
 12 16  1  0  0  0  0
 12 13  2  0  0  0  0
 13 14  1  0  0  0  0
 13 17  1  0  0  0  0
 14 18  1  0  0  0  0
 15 14  2  0  0  0  0
 19 15  1  0  0  0  0
 20 21  2  0  0  0  0
 21 22  1  0  0  0  0
 22 24  1  0  0  0  0
 23 22  1  0  0  0  0
 25 22  1  0  0  0  0
 25 26  1  0  0  0  0
 27 25  1  0  0  0  0
 28 29  1  0  0  0  0
 28 27  2  0  0  0  0
 30 28  1  0  0  0  0
 31 30  2  0  0  0  0
 31 33  1  0  0  0  0
 32 31  1  0  0  0  0
 33 35  2  0  0  0  0
 34 33  1  0  0  0  0
 35 27  1  0  0  0  0
M  END
>  <minimizedAffinity>
-5.87509012

$$$$

 OpenBabel03252506223D

 35 37  0  0  0  0  0  0  0  0999 V2000
   37.0770   30.8110   40.7280 C   0  0  0  0  0  0  0  0  0  0  0  0
   35.8230   30.3370   40.3170 C   0  0  0  0  0  0  0  0  0  0  0  0
   35.5280   28.9870   40.5480 C   0  0  0  0  0  0  0  0  0  0  0  0
   36.4630   28.2130   41.1530 N   0  0  0  0  0  0  0  0  0  0  0  0
   37.6520   28.7090   41.5300 C   0  0  0  0  0  0  0  0  0  0  0  0
   37.9660   30.0020   41.3220 N   0  0  0  0  0  0  0  0  0  0  0  0
   35.1030   30.9740   39.8400 H   0  0  0  0  0  0  0  0  0  0  0  0
   34.5770   28.5610   40.2540 H   0  0  0  0  0  0  0  0  0  0  0  0
   37.0840   28.1120   44.4480 Cl  0  0  0  0  0  0  0  0  0  0  0  0
   38.4090   27.4790   43.5230 C   0  0  0  0  0  0  0  0  0  0  0  0
   38.6140   27.7920   42.1840 C   0  0  0  0  0  0  0  0  0  0  0  0
   39.6500   27.3050   41.4410 C   0  0  0  0  0  0  0  0  0  0  0  0
   40.5240   26.4620   42.0650 C   0  0  0  0  0  0  0  0  0  0  0  0
   40.4210   26.0820   43.3840 C   0  0  0  0  0  0  0  0  0  0  0  0
   39.3450   26.6200   44.0650 C   0  0  0  0  0  0  0  0  0  0  0  0
   39.7570   27.5800   40.4200 H   0  0  0  0  0  0  0  0  0  0  0  0
   41.3590   26.0590   41.4940 H   0  0  0  0  0  0  0  0  0  0  0  0
   41.1090   25.4110   43.8950 H   0  0  0  0  0  0  0  0  0  0  0  0
   39.2070   26.3570   45.1150 H   0  0  0  0  0  0  0  0  0  0  0  0
   37.3910   32.2230   40.4880 C   0  0  0  0  0  3  0  0  0  0  0  0
   38.5610   32.6720   40.8460 C   0  0  0  0  0  3  0  0  0  0  0  0
   38.9330   34.0970   40.6270 C   0  0  0  0  0  0  0  0  0  0  0  0
   39.7130   34.3610   41.3940 H   0  0  0  0  0  0  0  0  0  0  0  0
   38.0670   34.7770   40.7340 H   0  0  0  0  0  0  0  0  0  0  0  0
   39.5970   34.2030   39.3510 N   0  0  0  0  0  0  0  0  0  0  0  0
   39.0780   34.3480   38.4560 H   0  0  0  0  0  0  0  0  0  0  0  0
   41.0150   34.1060   39.2930 C   0  0  0  0  0  0  0  0  0  0  0  0
   41.8000   34.2910   40.4090 C   0  0  0  0  0  0  0  0  0  0  0  0
   41.3660   34.5180   41.3760 H   0  0  0  0  0  0  0  0  0  0  0  0
   43.1850   34.2050   40.3970 C   0  0  0  0  0  3  0  0  0  0  0  0
   43.8140   33.9190   39.2020 C   0  0  0  0  0  0  0  0  0  0  0  0
   44.8980   33.8490   39.1830 H   0  0  0  0  0  0  0  0  0  0  0  0
   43.0360   33.7340   38.0840 C   0  0  0  0  0  0  0  0  0  0  0  0
   43.5560   33.5070   37.1410 H   0  0  0  0  0  0  0  0  0  0  0  0
   41.6750   33.8230   38.1160 C   0  0  0  0  0  3  0  0  0  0  0  0
  1  6  1  0  0  0  0
  2  3  1  0  0  0  0
  2  1  2  0  0  0  0
  3  4  2  0  0  0  0
  4  5  1  0  0  0  0
  5 11  1  0  0  0  0
  6  5  2  0  0  0  0
  7  2  1  0  0  0  0
  8  3  1  0  0  0  0
 10 15  1  0  0  0  0
 10  9  1  0  0  0  0
 11 10  2  0  0  0  0
 12 13  2  0  0  0  0
 12 11  1  0  0  0  0
 13 14  1  0  0  0  0
 14 18  1  0  0  0  0
 14 15  2  0  0  0  0
 15 19  1  0  0  0  0
 16 12  1  0  0  0  0
 17 13  1  0  0  0  0
 20  1  1  0  0  0  0
 20 21  2  0  0  0  0
 22 24  1  0  0  0  0
 22 21  1  0  0  0  0
 22 23  1  0  0  0  0
 25 22  1  0  0  0  0
 26 25  1  0  0  0  0
 27 25  1  0  0  0  0
 27 28  1  0  0  0  0
 28 29  1  0  0  0  0
 30 28  2  0  0  0  0
 31 30  1  0  0  0  0
 32 31  1  0  0  0  0
 33 35  1  0  0  0  0
 33 31  2  0  0  0  0
 34 33  1  0  0  0  0
 35 27  2  0  0  0  0
M  END
>  <minimizedAffinity>
-5.85304117

$$$$

 OpenBabel03252506223D

 35 37  0  0  0  0  0  0  0  0999 V2000
   36.4370   29.7010   38.1550 C   0  0  0  0  0  0  0  0  0  0  0  0
   37.1270   30.8830   37.8490 C   0  0  0  0  0  0  0  0  0  0  0  0
   38.1060   31.3190   38.7520 C   0  0  0  0  0  0  0  0  0  0  0  0
   38.3360   30.5820   39.8670 N   0  0  0  0  0  0  0  0  0  0  0  0
   37.6510   29.4540   40.1200 C   0  0  0  0  0  0  0  0  0  0  0  0
   36.7040   29.0090   39.2720 N   0  0  0  0  0  0  0  0  0  0  0  0
   36.9230   31.4460   36.9590 H   0  0  0  0  0  0  0  0  0  0  0  0
   38.6730   32.2240   38.5730 H   0  0  0  0  0  0  0  0  0  0  0  0
   39.8190   27.3530   39.8470 Cl  0  0  0  0  0  0  0  0  0  0  0  0
   38.9520   27.7320   41.3020 C   0  0  0  0  0  0  0  0  0  0  0  0
   37.9660   28.7110   41.3610 C   0  0  0  0  0  0  0  0  0  0  0  0
   37.2740   29.0240   42.4950 C   0  0  0  0  0  0  0  0  0  0  0  0
   37.5820   28.3250   43.6270 C   0  0  0  0  0  0  0  0  0  0  0  0
   38.5380   27.3360   43.6870 C   0  0  0  0  0  0  0  0  0  0  0  0
   39.1910   27.0820   42.4970 C   0  0  0  0  0  0  0  0  0  0  0  0
   36.5300   29.7830   42.4810 H   0  0  0  0  0  0  0  0  0  0  0  0
   37.0440   28.5560   44.5460 H   0  0  0  0  0  0  0  0  0  0  0  0
   38.7940   26.7710   44.5820 H   0  0  0  0  0  0  0  0  0  0  0  0
   39.9610   26.3080   42.4780 H   0  0  0  0  0  0  0  0  0  0  0  0
   35.4120   29.2410   37.2140 C   0  0  0  0  0  3  0  0  0  0  0  0
   34.2470   28.8900   37.6830 C   0  0  0  0  0  3  0  0  0  0  0  0
   33.1680   28.4140   36.7730 C   0  0  0  0  0  0  0  0  0  0  0  0
   33.2000   27.2890   36.7760 H   0  0  0  0  0  0  0  0  0  0  0  0
   33.3010   28.7830   35.7380 H   0  0  0  0  0  0  0  0  0  0  0  0
   31.8950   28.7660   37.3520 N   0  0  0  0  0  0  0  0  0  0  0  0
   31.4020   28.1550   38.0410 H   0  0  0  0  0  0  0  0  0  0  0  0
   31.2750   29.9910   36.9800 C   0  0  0  0  0  0  0  0  0  0  0  0
   30.4800   30.6960   37.8550 C   0  0  0  0  0  0  0  0  0  0  0  0
   30.2960   30.3440   38.8640 H   0  0  0  0  0  0  0  0  0  0  0  0
   29.8570   31.8940   37.5330 C   0  0  0  0  0  3  0  0  0  0  0  0
   30.0430   32.4090   36.2660 C   0  0  0  0  0  0  0  0  0  0  0  0
   29.5600   33.3470   36.0050 H   0  0  0  0  0  0  0  0  0  0  0  0
   30.8350   31.7100   35.3880 C   0  0  0  0  0  0  0  0  0  0  0  0
   30.9700   32.1370   34.3820 H   0  0  0  0  0  0  0  0  0  0  0  0
   31.4390   30.5340   35.7230 C   0  0  0  0  0  3  0  0  0  0  0  0
  1  6  1  0  0  0  0
  2  1  2  0  0  0  0
  2  3  1  0  0  0  0
  3  4  2  0  0  0  0
  4  5  1  0  0  0  0
  5 11  1  0  0  0  0
  6  5  2  0  0  0  0
  7  2  1  0  0  0  0
  8  3  1  0  0  0  0
  9 10  1  0  0  0  0
 10 11  2  0  0  0  0
 10 15  1  0  0  0  0
 11 12  1  0  0  0  0
 12 13  2  0  0  0  0
 13 14  1  0  0  0  0
 13 17  1  0  0  0  0
 14 18  1  0  0  0  0
 15 14  2  0  0  0  0
 16 12  1  0  0  0  0
 19 15  1  0  0  0  0
 20 21  2  0  0  0  0
 20  1  1  0  0  0  0
 22 23  1  0  0  0  0
 22 25  1  0  0  0  0
 22 21  1  0  0  0  0
 24 22  1  0  0  0  0
 25 26  1  0  0  0  0
 27 25  1  0  0  0  0
 27 28  1  0  0  0  0
 28 29  1  0  0  0  0
 30 28  2  0  0  0  0
 31 30  1  0  0  0  0
 32 31  1  0  0  0  0
 33 35  1  0  0  0  0
 33 31  2  0  0  0  0
 34 33  1  0  0  0  0
 35 27  2  0  0  0  0
M  END
>  <minimizedAffinity>
-5.79494762

$$$$
