
 OpenBabel03252506213D

 35 37  0  0  0  0  0  0  0  0999 V2000
   44.6610   35.0550   41.9460 C   0  0  0  0  0  0  0  0  0  0  0  0
   43.5080   35.1390   41.1530 C   0  0  0  0  0  0  0  0  0  0  0  0
   43.4820   34.4070   39.9590 C   0  0  0  0  0  0  0  0  0  0  0  0
   44.5640   33.6570   39.6330 N   0  0  0  0  0  0  0  0  0  0  0  0
   45.6490   33.6050   40.4230 C   0  0  0  0  0  0  0  0  0  0  0  0
   45.7050   34.2980   41.5770 N   0  0  0  0  0  0  0  0  0  0  0  0
   42.6660   35.7420   41.4370 H   0  0  0  0  0  0  0  0  0  0  0  0
   42.6200   34.4300   39.3030 H   0  0  0  0  0  0  0  0  0  0  0  0
   48.3030   35.0480   40.1820 Cl  0  0  0  0  0  0  0  0  0  0  0  0
   48.0320   33.3640   39.8610 C   0  0  0  0  0  0  0  0  0  0  0  0
   46.7870   32.7610   39.9910 C   0  0  0  0  0  0  0  0  0  0  0  0
   46.5530   31.4400   39.7430 C   0  0  0  0  0  0  0  0  0  0  0  0
   47.6170   30.6810   39.3450 C   0  0  0  0  0  0  0  0  0  0  0  0
   48.8940   31.1700   39.1820 C   0  0  0  0  0  0  0  0  0  0  0  0
   49.0440   32.5170   39.4540 C   0  0  0  0  0  0  0  0  0  0  0  0
   45.5780   31.0330   39.8600 H   0  0  0  0  0  0  0  0  0  0  0  0
   47.4580   29.6240   39.1410 H   0  0  0  0  0  0  0  0  0  0  0  0
   49.7520   30.5780   38.8670 H   0  0  0  0  0  0  0  0  0  0  0  0
   50.0330   32.9650   39.3440 H   0  0  0  0  0  0  0  0  0  0  0  0
   44.6940   35.8200   43.1960 C   0  0  0  0  0  3  0  0  0  0  0  0
   45.1140   37.0540   43.1610 C   0  0  0  0  0  3  0  0  0  0  0  0
   45.1680   37.8770   44.4010 C   0  0  0  0  0  0  0  0  0  0  0  0
   46.1080   37.5920   44.9510 H   0  0  0  0  0  0  0  0  0  0  0  0
   44.2930   37.7060   45.0560 H   0  0  0  0  0  0  0  0  0  0  0  0
   45.3450   39.2580   44.0240 N   0  0  0  0  0  0  0  0  0  0  0  0
   45.7300   39.5430   43.0950 H   0  0  0  0  0  0  0  0  0  0  0  0
   44.9880   40.2830   44.9430 C   0  0  0  0  0  0  0  0  0  0  0  0
   45.0210   40.0790   46.3040 C   0  0  0  0  0  0  0  0  0  0  0  0
   45.3220   39.1270   46.7270 H   0  0  0  0  0  0  0  0  0  0  0  0
   44.6810   41.0500   47.2350 C   0  0  0  0  0  3  0  0  0  0  0  0
   44.2860   42.2900   46.7750 C   0  0  0  0  0  0  0  0  0  0  0  0
   44.0180   43.0570   47.4960 H   0  0  0  0  0  0  0  0  0  0  0  0
   44.2510   42.5010   45.4180 C   0  0  0  0  0  0  0  0  0  0  0  0
   43.9340   43.4950   45.0700 H   0  0  0  0  0  0  0  0  0  0  0  0
   44.5900   41.5320   44.5170 C   0  0  0  0  0  3  0  0  0  0  0  0
  1 20  1  0  0  0  0
  2  7  1  0  0  0  0
  2  1  2  0  0  0  0
  3  2  1  0  0  0  0
  4  3  2  0  0  0  0
  4  5  1  0  0  0  0
  5  6  2  0  0  0  0
  6  1  1  0  0  0  0
  8  3  1  0  0  0  0
 10 11  1  0  0  0  0
 10  9  1  0  0  0  0
 11  5  1  0  0  0  0
 12 16  1  0  0  0  0
 12 11  2  0  0  0  0
 13 12  1  0  0  0  0
 14 13  2  0  0  0  0
 14 15  1  0  0  0  0
 15 10  2  0  0  0  0
 17 13  1  0  0  0  0
 18 14  1  0  0  0  0
 19 15  1  0  0  0  0
 21 20  2  0  0  0  0
 21 22  1  0  0  0  0
 22 23  1  0  0  0  0
 22 24  1  0  0  0  0
 25 22  1  0  0  0  0
 25 27  1  0  0  0  0
 26 25  1  0  0  0  0
 27 28  1  0  0  0  0
 28 29  1  0  0  0  0
 28 30  2  0  0  0  0
 31 30  1  0  0  0  0
 31 32  1  0  0  0  0
 33 31  2  0  0  0  0
 34 33  1  0  0  0  0
 35 27  2  0  0  0  0
 35 33  1  0  0  0  0
M  END
>  <minimizedAffinity>
-3.86355543

>  <minimizedRMSD>
1.99360943

$$$$
