
 OpenBabel03252508503D

 28 30  0  0  0  0  0  0  0  0999 V2000
   45.8660   34.2490   41.0450 C   0  0  0  0  0  0  0  0  0  0  0  0
   46.4790   34.7970   42.1660 C   0  0  0  0  0  0  0  0  0  0  0  0
   47.8500   35.0670   42.0460 C   0  0  0  0  0  0  0  0  0  0  0  0
   48.4850   34.7860   40.8710 N   0  0  0  0  0  0  0  0  0  0  0  0
   47.8400   34.2630   39.8330 C   0  0  0  0  0  0  0  0  0  0  0  0
   46.5280   33.9890   39.9070 N   0  0  0  0  0  0  0  0  0  0  0  0
   48.3460   35.4920   42.9080 H   0  0  0  0  0  0  0  0  0  0  0  0
   48.4000   34.0620   38.9250 H   0  0  0  0  0  0  0  0  0  0  0  0
   45.7140   35.0570   43.3660 C   0  0  0  0  0  0  0  0  0  0  0  0
   45.1140   36.2760   43.6230 C   0  0  0  0  0  0  0  0  0  0  0  0
   44.5080   36.0770   44.8500 C   0  0  0  0  0  0  0  0  0  0  0  0
   44.7240   34.8280   45.3020 N   0  0  0  0  0  0  0  0  0  0  0  0
   45.4560   34.2280   44.3880 N   0  0  0  0  0  0  0  0  0  0  0  0
   45.0870   37.1970   43.0510 H   0  0  0  0  0  0  0  0  0  0  0  0
   43.9320   36.8280   45.3780 H   0  0  0  0  0  0  0  0  0  0  0  0
   44.3550   34.4620   46.2130 H   0  0  0  0  0  0  0  0  0  0  0  0
   44.5140   33.9680   41.1200 O   0  0  0  0  0  0  0  0  0  0  0  0
   43.4780   34.7330   40.6740 C   0  0  0  0  0  0  0  0  0  0  0  0
   43.2420   35.9630   40.9600 O   0  0  0  0  0  0  0  0  0  0  0  0
   42.4220   34.2230   39.7520 C   0  0  0  0  0  0  0  0  0  0  0  0
   42.2540   32.8660   39.4730 C   0  0  0  0  0  0  0  0  0  0  0  0
   42.9350   32.1650   39.9630 H   0  0  0  0  0  0  0  0  0  0  0  0
   41.3140   32.3120   38.6400 C   0  0  0  0  0  3  0  0  0  0  0  0
   40.4580   33.1990   38.0250 C   0  0  0  0  0  0  0  0  0  0  0  0
   39.6940   32.8270   37.3570 H   0  0  0  0  0  0  0  0  0  0  0  0
   40.5460   34.5550   38.2390 C   0  0  0  0  0  0  0  0  0  0  0  0
   39.8690   35.2400   37.7510 H   0  0  0  0  0  0  0  0  0  0  0  0
   41.5210   35.0210   39.0910 C   0  0  0  0  0  3  0  0  0  0  0  0
  1 17  1  0  0  0  0
  1  2  1  0  0  0  0
  2  9  1  0  0  0  0
  3  2  2  0  0  0  0
  3  7  1  0  0  0  0
  4  3  1  0  0  0  0
  5  6  1  0  0  0  0
  5  4  2  0  0  0  0
  6  1  2  0  0  0  0
  8  5  1  0  0  0  0
  9 10  1  0  0  0  0
  9 13  2  0  0  0  0
 10 11  2  0  0  0  0
 11 12  1  0  0  0  0
 11 15  1  0  0  0  0
 12 16  1  0  0  0  0
 13 12  1  0  0  0  0
 14 10  1  0  0  0  0
 18 19  2  0  0  0  0
 18 17  1  0  0  0  0
 20 18  1  0  0  0  0
 21 20  1  0  0  0  0
 21 22  1  0  0  0  0
 23 21  2  0  0  0  0
 24 26  2  0  0  0  0
 24 23  1  0  0  0  0
 25 24  1  0  0  0  0
 26 28  1  0  0  0  0
 27 26  1  0  0  0  0
 28 20  2  0  0  0  0
M  END
>  <minimizedAffinity>
-5.48927069

>  <minimizedRMSD>
0.824982464

$$$$
