
 OpenBabel03252508503D

 28 30  0  0  0  0  0  0  0  0999 V2000
   45.9760   34.1700   41.0490 C   0  0  0  0  0  0  0  0  0  0  0  0
   46.5440   34.8100   42.1450 C   0  0  0  0  0  0  0  0  0  0  0  0
   47.8840   35.1970   42.0040 C   0  0  0  0  0  0  0  0  0  0  0  0
   48.5360   34.9330   40.8350 N   0  0  0  0  0  0  0  0  0  0  0  0
   47.9360   34.3160   39.8210 C   0  0  0  0  0  0  0  0  0  0  0  0
   46.6540   33.9290   39.9160 N   0  0  0  0  0  0  0  0  0  0  0  0
   48.3440   35.6960   42.8470 H   0  0  0  0  0  0  0  0  0  0  0  0
   48.5070   34.1340   38.9170 H   0  0  0  0  0  0  0  0  0  0  0  0
   45.7640   35.0430   43.3410 C   0  0  0  0  0  0  0  0  0  0  0  0
   45.0630   36.2140   43.5630 C   0  0  0  0  0  0  0  0  0  0  0  0
   44.4810   36.0050   44.7990 C   0  0  0  0  0  0  0  0  0  0  0  0
   44.8060   34.7950   45.2910 N   0  0  0  0  0  0  0  0  0  0  0  0
   45.5830   34.2300   44.3920 N   0  0  0  0  0  0  0  0  0  0  0  0
   44.9540   37.1100   42.9600 H   0  0  0  0  0  0  0  0  0  0  0  0
   43.8450   36.7210   45.3070 H   0  0  0  0  0  0  0  0  0  0  0  0
   44.4730   34.4290   46.2160 H   0  0  0  0  0  0  0  0  0  0  0  0
   44.6560   33.7710   41.1450 O   0  0  0  0  0  0  0  0  0  0  0  0
   43.5570   34.3990   40.6390 C   0  0  0  0  0  0  0  0  0  0  0  0
   43.3550   35.6650   40.5560 O   0  0  0  0  0  0  0  0  0  0  0  0
   42.3800   33.6680   40.0870 C   0  0  0  0  0  0  0  0  0  0  0  0
   42.0100   33.7360   38.7430 C   0  0  0  0  0  0  0  0  0  0  0  0
   42.6240   34.3560   38.0830 H   0  0  0  0  0  0  0  0  0  0  0  0
   40.9460   33.0990   38.1530 C   0  0  0  0  0  3  0  0  0  0  0  0
   40.1760   32.3180   38.9870 C   0  0  0  0  0  0  0  0  0  0  0  0
   39.3220   31.7900   38.5850 H   0  0  0  0  0  0  0  0  0  0  0  0
   40.4620   32.1900   40.3260 C   0  0  0  0  0  0  0  0  0  0  0  0
   39.8510   31.5750   40.9690 H   0  0  0  0  0  0  0  0  0  0  0  0
   41.5490   32.8660   40.8300 C   0  0  0  0  0  3  0  0  0  0  0  0
  1 17  1  0  0  0  0
  1  2  1  0  0  0  0
  2  9  1  0  0  0  0
  3  2  2  0  0  0  0
  3  7  1  0  0  0  0
  4  3  1  0  0  0  0
  5  6  1  0  0  0  0
  5  4  2  0  0  0  0
  6  1  2  0  0  0  0
  8  5  1  0  0  0  0
  9 10  1  0  0  0  0
  9 13  2  0  0  0  0
 10 11  2  0  0  0  0
 11 12  1  0  0  0  0
 11 15  1  0  0  0  0
 12 16  1  0  0  0  0
 13 12  1  0  0  0  0
 14 10  1  0  0  0  0
 18 17  1  0  0  0  0
 19 18  2  0  0  0  0
 20 18  1  0  0  0  0
 20 28  1  0  0  0  0
 21 20  2  0  0  0  0
 22 21  1  0  0  0  0
 23 21  1  0  0  0  0
 23 24  2  0  0  0  0
 24 26  1  0  0  0  0
 25 24  1  0  0  0  0
 26 28  2  0  0  0  0
 26 27  1  0  0  0  0
M  END
>  <minimizedAffinity>
-5.25355387

>  <minimizedRMSD>
0.67865181

$$$$
