
 OpenBabel03252508513D

 28 30  0  0  0  0  0  0  0  0999 V2000
   45.8300   34.2530   41.0530 C   0  0  0  0  0  0  0  0  0  0  0  0
   46.4560   34.7910   42.1710 C   0  0  0  0  0  0  0  0  0  0  0  0
   47.8290   35.0460   42.0440 C   0  0  0  0  0  0  0  0  0  0  0  0
   48.4540   34.7610   40.8650 N   0  0  0  0  0  0  0  0  0  0  0  0
   47.7980   34.2470   39.8290 C   0  0  0  0  0  0  0  0  0  0  0  0
   46.4830   33.9880   39.9110 N   0  0  0  0  0  0  0  0  0  0  0  0
   48.3340   35.4650   42.9040 H   0  0  0  0  0  0  0  0  0  0  0  0
   48.3510   34.0420   38.9180 H   0  0  0  0  0  0  0  0  0  0  0  0
   45.7000   35.0570   43.3760 C   0  0  0  0  0  0  0  0  0  0  0  0
   45.1240   36.2860   43.6430 C   0  0  0  0  0  0  0  0  0  0  0  0
   44.5180   36.0900   44.8710 C   0  0  0  0  0  0  0  0  0  0  0  0
   44.7140   34.8350   45.3150 N   0  0  0  0  0  0  0  0  0  0  0  0
   45.4320   34.2270   44.3940 N   0  0  0  0  0  0  0  0  0  0  0  0
   45.1110   37.2110   43.0770 H   0  0  0  0  0  0  0  0  0  0  0  0
   43.9590   36.8470   45.4070 H   0  0  0  0  0  0  0  0  0  0  0  0
   44.3420   34.4690   46.2250 H   0  0  0  0  0  0  0  0  0  0  0  0
   44.4760   33.9860   41.1350 O   0  0  0  0  0  0  0  0  0  0  0  0
   43.4450   34.7760   40.7210 C   0  0  0  0  0  0  0  0  0  0  0  0
   43.2090   35.9890   41.0690 O   0  0  0  0  0  0  0  0  0  0  0  0
   42.3960   34.3170   39.7650 C   0  0  0  0  0  0  0  0  0  0  0  0
   41.3760   35.1500   39.3040 C   0  0  0  0  0  0  0  0  0  0  0  0
   41.3650   36.1800   39.6710 H   0  0  0  0  0  0  0  0  0  0  0  0
   40.3750   34.8110   38.4280 C   0  0  0  0  0  3  0  0  0  0  0  0
   40.3930   33.5120   37.9680 C   0  0  0  0  0  0  0  0  0  0  0  0
   39.6320   33.1810   37.2750 H   0  0  0  0  0  0  0  0  0  0  0  0
   41.3600   32.6180   38.3660 C   0  0  0  0  0  0  0  0  0  0  0  0
   41.3630   31.6030   37.9980 H   0  0  0  0  0  0  0  0  0  0  0  0
   42.3250   33.0470   39.2480 C   0  0  0  0  0  3  0  0  0  0  0  0
  1 17  1  0  0  0  0
  1  2  1  0  0  0  0
  2  9  1  0  0  0  0
  3  2  2  0  0  0  0
  3  7  1  0  0  0  0
  4  3  1  0  0  0  0
  5  6  1  0  0  0  0
  5  4  2  0  0  0  0
  6  1  2  0  0  0  0
  8  5  1  0  0  0  0
  9 10  1  0  0  0  0
  9 13  2  0  0  0  0
 10 11  2  0  0  0  0
 11 12  1  0  0  0  0
 11 15  1  0  0  0  0
 12 16  1  0  0  0  0
 13 12  1  0  0  0  0
 14 10  1  0  0  0  0
 18 19  2  0  0  0  0
 18 17  1  0  0  0  0
 20 18  1  0  0  0  0
 21 22  1  0  0  0  0
 21 20  1  0  0  0  0
 23 21  2  0  0  0  0
 24 26  2  0  0  0  0
 24 23  1  0  0  0  0
 25 24  1  0  0  0  0
 26 28  1  0  0  0  0
 27 26  1  0  0  0  0
 28 20  2  0  0  0  0
M  END
>  <minimizedAffinity>
-5.54350662

>  <minimizedRMSD>
0.910605729

$$$$
