
 OpenBabel03252508513D

 28 30  0  0  0  0  0  0  0  0999 V2000
   45.9660   34.1790   41.0470 C   0  0  0  0  0  0  0  0  0  0  0  0
   46.5400   34.8080   42.1460 C   0  0  0  0  0  0  0  0  0  0  0  0
   47.8840   35.1820   42.0080 C   0  0  0  0  0  0  0  0  0  0  0  0
   48.5340   34.9170   40.8380 N   0  0  0  0  0  0  0  0  0  0  0  0
   47.9290   34.3110   39.8210 C   0  0  0  0  0  0  0  0  0  0  0  0
   46.6420   33.9360   39.9130 N   0  0  0  0  0  0  0  0  0  0  0  0
   48.3480   35.6730   42.8530 H   0  0  0  0  0  0  0  0  0  0  0  0
   48.4990   34.1270   38.9160 H   0  0  0  0  0  0  0  0  0  0  0  0
   45.7610   35.0440   43.3430 C   0  0  0  0  0  0  0  0  0  0  0  0
   45.0740   36.2230   43.5700 C   0  0  0  0  0  0  0  0  0  0  0  0
   44.4880   36.0140   44.8040 C   0  0  0  0  0  0  0  0  0  0  0  0
   44.7980   34.7970   45.2900 N   0  0  0  0  0  0  0  0  0  0  0  0
   45.5690   34.2280   44.3880 N   0  0  0  0  0  0  0  0  0  0  0  0
   44.9770   37.1230   42.9720 H   0  0  0  0  0  0  0  0  0  0  0  0
   43.8610   36.7340   45.3160 H   0  0  0  0  0  0  0  0  0  0  0  0
   44.4600   34.4300   46.2120 H   0  0  0  0  0  0  0  0  0  0  0  0
   44.6420   33.7930   41.1400 O   0  0  0  0  0  0  0  0  0  0  0  0
   43.5500   34.4380   40.6410 C   0  0  0  0  0  0  0  0  0  0  0  0
   43.3470   35.7050   40.6000 O   0  0  0  0  0  0  0  0  0  0  0  0
   42.3810   33.7260   40.0470 C   0  0  0  0  0  0  0  0  0  0  0  0
   42.3550   33.2880   38.7220 C   0  0  0  0  0  0  0  0  0  0  0  0
   43.2410   33.4860   38.1110 H   0  0  0  0  0  0  0  0  0  0  0  0
   41.3260   32.6290   38.0970 C   0  0  0  0  0  3  0  0  0  0  0  0
   40.2130   32.3820   38.8700 C   0  0  0  0  0  0  0  0  0  0  0  0
   39.3670   31.8670   38.4370 H   0  0  0  0  0  0  0  0  0  0  0  0
   40.1460   32.7760   40.1860 C   0  0  0  0  0  0  0  0  0  0  0  0
   39.2680   32.5760   40.7820 H   0  0  0  0  0  0  0  0  0  0  0  0
   41.2260   33.4310   40.7290 C   0  0  0  0  0  3  0  0  0  0  0  0
  1 17  1  0  0  0  0
  1  2  1  0  0  0  0
  2  9  1  0  0  0  0
  3  2  2  0  0  0  0
  3  7  1  0  0  0  0
  4  3  1  0  0  0  0
  5  6  1  0  0  0  0
  5  4  2  0  0  0  0
  6  1  2  0  0  0  0
  8  5  1  0  0  0  0
  9 10  1  0  0  0  0
  9 13  2  0  0  0  0
 10 11  2  0  0  0  0
 11 12  1  0  0  0  0
 11 15  1  0  0  0  0
 12 16  1  0  0  0  0
 13 12  1  0  0  0  0
 14 10  1  0  0  0  0
 18 17  1  0  0  0  0
 19 18  2  0  0  0  0
 20 18  1  0  0  0  0
 20 28  1  0  0  0  0
 21 20  2  0  0  0  0
 22 21  1  0  0  0  0
 23 21  1  0  0  0  0
 23 24  2  0  0  0  0
 24 26  1  0  0  0  0
 25 24  1  0  0  0  0
 26 28  2  0  0  0  0
 26 27  1  0  0  0  0
M  END
>  <minimizedAffinity>
-5.25176811

>  <minimizedRMSD>
0.67436558

$$$$
