
 OpenBabel03252508503D

 28 30  0  0  0  0  0  0  0  0999 V2000
   45.8250   34.2600   41.0470 C   0  0  0  0  0  0  0  0  0  0  0  0
   46.4540   34.7850   42.1700 C   0  0  0  0  0  0  0  0  0  0  0  0
   47.8300   35.0210   42.0510 C   0  0  0  0  0  0  0  0  0  0  0  0
   48.4570   34.7320   40.8740 N   0  0  0  0  0  0  0  0  0  0  0  0
   47.7990   34.2310   39.8330 C   0  0  0  0  0  0  0  0  0  0  0  0
   46.4800   33.9900   39.9070 N   0  0  0  0  0  0  0  0  0  0  0  0
   48.3370   35.4290   42.9150 H   0  0  0  0  0  0  0  0  0  0  0  0
   48.3530   34.0220   38.9230 H   0  0  0  0  0  0  0  0  0  0  0  0
   45.6960   35.0560   43.3720 C   0  0  0  0  0  0  0  0  0  0  0  0
   45.1320   36.2910   43.6410 C   0  0  0  0  0  0  0  0  0  0  0  0
   44.5200   36.0990   44.8650 C   0  0  0  0  0  0  0  0  0  0  0  0
   44.6990   34.8410   45.3070 N   0  0  0  0  0  0  0  0  0  0  0  0
   45.4140   34.2270   44.3870 N   0  0  0  0  0  0  0  0  0  0  0  0
   45.1330   37.2180   43.0760 H   0  0  0  0  0  0  0  0  0  0  0  0
   43.9670   36.8620   45.4010 H   0  0  0  0  0  0  0  0  0  0  0  0
   44.3190   34.4770   46.2140 H   0  0  0  0  0  0  0  0  0  0  0  0
   44.4680   34.0120   41.1210 O   0  0  0  0  0  0  0  0  0  0  0  0
   43.4490   34.8210   40.7120 C   0  0  0  0  0  0  0  0  0  0  0  0
   43.2410   36.0410   41.0550 O   0  0  0  0  0  0  0  0  0  0  0  0
   42.3840   34.3790   39.7660 C   0  0  0  0  0  0  0  0  0  0  0  0
   41.5600   35.2750   39.0830 C   0  0  0  0  0  0  0  0  0  0  0  0
   41.7190   36.3410   39.2640 H   0  0  0  0  0  0  0  0  0  0  0  0
   40.5590   34.9550   38.1980 C   0  0  0  0  0  3  0  0  0  0  0  0
   40.3610   33.6100   37.9740 C   0  0  0  0  0  0  0  0  0  0  0  0
   39.5890   33.2930   37.2880 H   0  0  0  0  0  0  0  0  0  0  0  0
   41.1250   32.6530   38.6020 C   0  0  0  0  0  0  0  0  0  0  0  0
   40.9600   31.6030   38.4170 H   0  0  0  0  0  0  0  0  0  0  0  0
   42.1060   33.0660   39.4730 C   0  0  0  0  0  3  0  0  0  0  0  0
  1 17  1  0  0  0  0
  1  2  1  0  0  0  0
  2  9  1  0  0  0  0
  3  2  2  0  0  0  0
  3  7  1  0  0  0  0
  4  3  1  0  0  0  0
  5  6  1  0  0  0  0
  5  4  2  0  0  0  0
  6  1  2  0  0  0  0
  8  5  1  0  0  0  0
  9 10  1  0  0  0  0
  9 13  2  0  0  0  0
 10 11  2  0  0  0  0
 11 12  1  0  0  0  0
 11 15  1  0  0  0  0
 12 16  1  0  0  0  0
 13 12  1  0  0  0  0
 14 10  1  0  0  0  0
 18 19  2  0  0  0  0
 18 17  1  0  0  0  0
 20 18  1  0  0  0  0
 21 22  1  0  0  0  0
 21 20  2  0  0  0  0
 23 21  1  0  0  0  0
 24 23  2  0  0  0  0
 24 26  1  0  0  0  0
 25 24  1  0  0  0  0
 26 28  2  0  0  0  0
 27 26  1  0  0  0  0
 28 20  1  0  0  0  0
M  END
>  <minimizedAffinity>
-5.56389999

>  <minimizedRMSD>
1.01043475

$$$$
