
 OpenBabel03252501123D

 20 21  0  0  0  0  0  0  0  0999 V2000
   36.9760   27.6660   42.8280 C   0  0  0  0  0  0  0  0  0  0  0  0
   36.0630   27.4130   43.6800 O   0  0  0  0  0  0  0  0  0  0  0  0
   35.7030   29.8480   40.1450 C   0  0  0  0  0  0  0  0  0  0  0  0
   35.8530   28.7740   41.0490 C   0  0  0  0  0  0  0  0  0  0  0  0
   36.9220   28.8110   41.9630 C   0  0  0  0  0  0  0  0  0  0  0  0
   37.7550   29.8900   41.9180 N   0  0  0  0  0  0  0  0  0  0  0  0
   37.5770   30.8890   41.0430 C   0  0  0  0  0  0  0  0  0  0  0  0
   36.5510   30.8780   40.1490 N   0  0  0  0  0  0  0  0  0  0  0  0
   34.9080   29.9020   39.4090 H   0  0  0  0  0  0  0  0  0  0  0  0
   35.1260   27.9560   40.9980 H   0  0  0  0  0  0  0  0  0  0  0  0
   38.3510   31.6360   41.1850 H   0  0  0  0  0  0  0  0  0  0  0  0
   38.0430   26.6530   42.8620 C   0  0  0  0  0  0  0  0  0  0  0  0
   39.1930   26.8940   43.5910 C   0  0  0  0  0  0  0  0  0  0  0  0
   39.3200   27.8310   44.1470 H   0  0  0  0  0  0  0  0  0  0  0  0
   40.2600   25.9920   43.6800 C   0  0  0  0  0  3  0  0  0  0  0  0
   40.1460   24.7830   42.9890 C   0  0  0  0  0  0  0  0  0  0  0  0
   40.9840   24.1120   43.0790 H   0  0  0  0  0  0  0  0  0  0  0  0
   38.9970   24.5190   42.2490 C   0  0  0  0  0  0  0  0  0  0  0  0
   38.9410   23.5710   41.7270 H   0  0  0  0  0  0  0  0  0  0  0  0
   37.9750   25.4420   42.1960 C   0  0  0  0  0  3  0  0  0  0  0  0
  1 12  1  0  0  0  0
  1  2  2  0  0  0  0
  3  8  2  0  0  0  0
  3  4  1  0  0  0  0
  4  5  2  0  0  0  0
  5  1  1  0  0  0  0
  6  5  1  0  0  0  0
  7 11  1  0  0  0  0
  7  6  2  0  0  0  0
  8  7  1  0  0  0  0
  9  3  1  0  0  0  0
 10  4  1  0  0  0  0
 12 13  1  0  0  0  0
 13 15  2  0  0  0  0
 13 14  1  0  0  0  0
 16 17  1  0  0  0  0
 16 15  1  0  0  0  0
 18 16  2  0  0  0  0
 19 18  1  0  0  0  0
 20 18  1  0  0  0  0
 20 12  2  0  0  0  0
M  END
>  <minimizedAffinity>
-4.67126465

$$$$

 OpenBabel03252501123D

 20 21  0  0  0  0  0  0  0  0999 V2000
   35.6770   29.2960   40.2360 C   0  0  0  0  0  0  0  0  0  0  0  0
   34.4290   29.1750   40.0110 O   0  0  0  0  0  0  0  0  0  0  0  0
   37.4440   31.7150   38.0900 C   0  0  0  0  0  0  0  0  0  0  0  0
   36.7250   30.5840   38.5350 C   0  0  0  0  0  0  0  0  0  0  0  0
   36.4040   30.4880   39.9010 C   0  0  0  0  0  0  0  0  0  0  0  0
   36.8120   31.5000   40.7190 N   0  0  0  0  0  0  0  0  0  0  0  0
   37.4940   32.5560   40.2570 C   0  0  0  0  0  0  0  0  0  0  0  0
   37.8160   32.6750   38.9390 N   0  0  0  0  0  0  0  0  0  0  0  0
   37.7310   31.8710   37.0570 H   0  0  0  0  0  0  0  0  0  0  0  0
   36.4470   29.8290   37.7910 H   0  0  0  0  0  0  0  0  0  0  0  0
   37.7130   33.2320   41.0760 H   0  0  0  0  0  0  0  0  0  0  0  0
   36.2330   28.0850   40.8610 C   0  0  0  0  0  0  0  0  0  0  0  0
   36.4340   28.0500   42.2280 C   0  0  0  0  0  0  0  0  0  0  0  0
   36.1820   28.9140   42.8550 H   0  0  0  0  0  0  0  0  0  0  0  0
   36.9600   26.9460   42.9080 C   0  0  0  0  0  3  0  0  0  0  0  0
   37.2980   25.8190   42.1530 C   0  0  0  0  0  0  0  0  0  0  0  0
   37.6990   24.9870   42.7070 H   0  0  0  0  0  0  0  0  0  0  0  0
   37.1030   25.8320   40.7750 C   0  0  0  0  0  0  0  0  0  0  0  0
   37.3740   24.9420   40.2190 H   0  0  0  0  0  0  0  0  0  0  0  0
   36.5810   26.9460   40.1540 C   0  0  0  0  0  3  0  0  0  0  0  0
  1 12  1  0  0  0  0
  2  1  2  0  0  0  0
  3  4  2  0  0  0  0
  3  8  1  0  0  0  0
  4  5  1  0  0  0  0
  5  1  1  0  0  0  0
  5  6  2  0  0  0  0
  7  6  1  0  0  0  0
  7 11  1  0  0  0  0
  8  7  2  0  0  0  0
  9  3  1  0  0  0  0
 10  4  1  0  0  0  0
 12 13  1  0  0  0  0
 13 14  1  0  0  0  0
 13 15  2  0  0  0  0
 16 17  1  0  0  0  0
 16 15  1  0  0  0  0
 18 16  2  0  0  0  0
 19 18  1  0  0  0  0
 20 18  1  0  0  0  0
 20 12  2  0  0  0  0
M  END
>  <minimizedAffinity>
-4.53059292

$$$$

 OpenBabel03252501123D

 20 21  0  0  0  0  0  0  0  0999 V2000
   35.9750   29.3130   40.2970 C   0  0  0  0  0  0  0  0  0  0  0  0
   34.7190   29.1300   40.4020 O   0  0  0  0  0  0  0  0  0  0  0  0
   37.3930   32.1830   38.4720 C   0  0  0  0  0  0  0  0  0  0  0  0
   36.8230   31.3800   39.4840 C   0  0  0  0  0  0  0  0  0  0  0  0
   36.5570   30.0290   39.1970 C   0  0  0  0  0  0  0  0  0  0  0  0
   36.8660   29.5740   37.9480 N   0  0  0  0  0  0  0  0  0  0  0  0
   37.4060   30.3710   37.0160 C   0  0  0  0  0  0  0  0  0  0  0  0
   37.6750   31.6810   37.2680 N   0  0  0  0  0  0  0  0  0  0  0  0
   37.6320   33.2320   38.6060 H   0  0  0  0  0  0  0  0  0  0  0  0
   36.6140   31.8480   40.4520 H   0  0  0  0  0  0  0  0  0  0  0  0
   37.5670   29.8040   36.1060 H   0  0  0  0  0  0  0  0  0  0  0  0
   36.7050   28.7050   41.4220 C   0  0  0  0  0  0  0  0  0  0  0  0
   36.7720   27.3290   41.5300 C   0  0  0  0  0  0  0  0  0  0  0  0
   36.2900   26.6830   40.7870 H   0  0  0  0  0  0  0  0  0  0  0  0
   37.4390   26.6620   42.5650 C   0  0  0  0  0  3  0  0  0  0  0  0
   38.0700   27.4420   43.5380 C   0  0  0  0  0  0  0  0  0  0  0  0
   38.5740   26.8980   44.3190 H   0  0  0  0  0  0  0  0  0  0  0  0
   38.0150   28.8300   43.4480 C   0  0  0  0  0  0  0  0  0  0  0  0
   38.5160   29.4050   44.2190 H   0  0  0  0  0  0  0  0  0  0  0  0
   37.3450   29.4360   42.4070 C   0  0  0  0  0  3  0  0  0  0  0  0
  1  2  2  0  0  0  0
  1 12  1  0  0  0  0
  3  9  1  0  0  0  0
  3  4  1  0  0  0  0
  4 10  1  0  0  0  0
  5  4  2  0  0  0  0
  5  1  1  0  0  0  0
  6  5  1  0  0  0  0
  7  8  1  0  0  0  0
  7  6  2  0  0  0  0
  8  3  2  0  0  0  0
 11  7  1  0  0  0  0
 12 13  2  0  0  0  0
 12 20  1  0  0  0  0
 13 15  1  0  0  0  0
 14 13  1  0  0  0  0
 15 16  2  0  0  0  0
 16 17  1  0  0  0  0
 18 16  1  0  0  0  0
 18 19  1  0  0  0  0
 20 18  2  0  0  0  0
M  END
>  <minimizedAffinity>
-4.44247293

$$$$

 OpenBabel03252501123D

 20 21  0  0  0  0  0  0  0  0999 V2000
   36.3000   29.9960   40.9010 C   0  0  0  0  0  0  0  0  0  0  0  0
   36.1870   31.2430   41.1380 O   0  0  0  0  0  0  0  0  0  0  0  0
   38.9850   28.6970   43.0650 C   0  0  0  0  0  0  0  0  0  0  0  0
   38.2480   29.5070   42.1730 C   0  0  0  0  0  0  0  0  0  0  0  0
   36.9510   29.0990   41.8140 C   0  0  0  0  0  0  0  0  0  0  0  0
   36.4820   27.9360   42.3510 N   0  0  0  0  0  0  0  0  0  0  0  0
   37.2150   27.1960   43.1930 C   0  0  0  0  0  0  0  0  0  0  0  0
   38.4720   27.5690   43.5590 N   0  0  0  0  0  0  0  0  0  0  0  0
   39.9890   28.9350   43.3970 H   0  0  0  0  0  0  0  0  0  0  0  0
   38.7220   30.4220   41.8010 H   0  0  0  0  0  0  0  0  0  0  0  0
   36.6480   26.3220   43.4930 H   0  0  0  0  0  0  0  0  0  0  0  0
   35.6940   29.6350   39.6100 C   0  0  0  0  0  0  0  0  0  0  0  0
   36.4140   29.8080   38.4430 C   0  0  0  0  0  0  0  0  0  0  0  0
   37.4340   30.2100   38.4670 H   0  0  0  0  0  0  0  0  0  0  0  0
   35.9190   29.4970   37.1710 C   0  0  0  0  0  3  0  0  0  0  0  0
   34.6230   28.9820   37.0870 C   0  0  0  0  0  0  0  0  0  0  0  0
   34.2740   28.7530   36.0940 H   0  0  0  0  0  0  0  0  0  0  0  0
   33.8800   28.7990   38.2500 C   0  0  0  0  0  0  0  0  0  0  0  0
   32.8790   28.3960   38.1490 H   0  0  0  0  0  0  0  0  0  0  0  0
   34.4150   29.1210   39.4780 C   0  0  0  0  0  3  0  0  0  0  0  0
  1  2  2  0  0  0  0
  1  5  1  0  0  0  0
  3  9  1  0  0  0  0
  3  8  1  0  0  0  0
  4  3  2  0  0  0  0
  5  4  1  0  0  0  0
  5  6  2  0  0  0  0
  6  7  1  0  0  0  0
  7 11  1  0  0  0  0
  7  8  2  0  0  0  0
 10  4  1  0  0  0  0
 12  1  1  0  0  0  0
 13 14  1  0  0  0  0
 13 12  2  0  0  0  0
 15 13  1  0  0  0  0
 16 15  2  0  0  0  0
 16 18  1  0  0  0  0
 17 16  1  0  0  0  0
 18 20  2  0  0  0  0
 19 18  1  0  0  0  0
 20 12  1  0  0  0  0
M  END
>  <minimizedAffinity>
-4.42506742

$$$$

 OpenBabel03252501123D

 20 21  0  0  0  0  0  0  0  0999 V2000
   37.1050   28.2460   42.4170 C   0  0  0  0  0  0  0  0  0  0  0  0
   37.0110   28.1020   43.6800 O   0  0  0  0  0  0  0  0  0  0  0  0
   38.9680   31.2300   41.3190 C   0  0  0  0  0  0  0  0  0  0  0  0
   38.6460   29.9770   41.8850 C   0  0  0  0  0  0  0  0  0  0  0  0
   37.3150   29.5280   41.8060 C   0  0  0  0  0  0  0  0  0  0  0  0
   36.4100   30.3380   41.1840 N   0  0  0  0  0  0  0  0  0  0  0  0
   36.7580   31.5210   40.6610 C   0  0  0  0  0  0  0  0  0  0  0  0
   38.0380   31.9780   40.7220 N   0  0  0  0  0  0  0  0  0  0  0  0
   39.9660   31.6520   41.3320 H   0  0  0  0  0  0  0  0  0  0  0  0
   39.4510   29.4080   42.3610 H   0  0  0  0  0  0  0  0  0  0  0  0
   35.8850   31.9910   40.2200 H   0  0  0  0  0  0  0  0  0  0  0  0
   36.9700   26.9600   41.7150 C   0  0  0  0  0  0  0  0  0  0  0  0
   37.0240   25.7790   42.4320 C   0  0  0  0  0  0  0  0  0  0  0  0
   37.1650   25.7890   43.5200 H   0  0  0  0  0  0  0  0  0  0  0  0
   36.9100   24.5110   41.8510 C   0  0  0  0  0  3  0  0  0  0  0  0
   36.7290   24.4460   40.4670 C   0  0  0  0  0  0  0  0  0  0  0  0
   36.6440   23.4550   40.0530 H   0  0  0  0  0  0  0  0  0  0  0  0
   36.6710   25.6220   39.7250 C   0  0  0  0  0  0  0  0  0  0  0  0
   36.5290   25.5350   38.6540 H   0  0  0  0  0  0  0  0  0  0  0  0
   36.7890   26.8460   40.3470 C   0  0  0  0  0  3  0  0  0  0  0  0
  1  2  2  0  0  0  0
  3  9  1  0  0  0  0
  3  4  1  0  0  0  0
  4 10  1  0  0  0  0
  5  4  2  0  0  0  0
  5  1  1  0  0  0  0
  6  5  1  0  0  0  0
  7  8  1  0  0  0  0
  7  6  2  0  0  0  0
  8  3  2  0  0  0  0
 11  7  1  0  0  0  0
 12  1  1  0  0  0  0
 12 13  1  0  0  0  0
 13 14  1  0  0  0  0
 15 13  2  0  0  0  0
 16 15  1  0  0  0  0
 17 16  1  0  0  0  0
 18 20  1  0  0  0  0
 18 16  2  0  0  0  0
 19 18  1  0  0  0  0
 20 12  2  0  0  0  0
M  END
>  <minimizedAffinity>
-4.42396736

$$$$

 OpenBabel03252501123D

 20 21  0  0  0  0  0  0  0  0999 V2000
   37.0510   27.5000   42.9040 C   0  0  0  0  0  0  0  0  0  0  0  0
   36.0530   27.3310   43.6780 O   0  0  0  0  0  0  0  0  0  0  0  0
   39.2490   24.6160   42.2480 C   0  0  0  0  0  0  0  0  0  0  0  0
   38.1460   25.4970   42.2390 C   0  0  0  0  0  0  0  0  0  0  0  0
   38.2310   26.6860   42.9860 C   0  0  0  0  0  0  0  0  0  0  0  0
   39.3830   26.9160   43.6790 N   0  0  0  0  0  0  0  0  0  0  0  0
   40.4070   26.0530   43.6620 C   0  0  0  0  0  0  0  0  0  0  0  0
   40.3510   24.8960   42.9470 N   0  0  0  0  0  0  0  0  0  0  0  0
   39.2710   23.6800   41.7020 H   0  0  0  0  0  0  0  0  0  0  0  0
   37.2690   25.2130   41.6470 H   0  0  0  0  0  0  0  0  0  0  0  0
   41.2130   26.4360   44.2790 H   0  0  0  0  0  0  0  0  0  0  0  0
   36.8210   28.6050   41.9600 C   0  0  0  0  0  0  0  0  0  0  0  0
   37.6810   29.6870   41.9510 C   0  0  0  0  0  0  0  0  0  0  0  0
   38.5350   29.7330   42.6370 H   0  0  0  0  0  0  0  0  0  0  0  0
   37.5390   30.7850   41.0930 C   0  0  0  0  0  3  0  0  0  0  0  0
   36.4650   30.7750   40.1990 C   0  0  0  0  0  0  0  0  0  0  0  0
   36.3860   31.6340   39.5530 H   0  0  0  0  0  0  0  0  0  0  0  0
   35.5870   29.6950   40.1910 C   0  0  0  0  0  0  0  0  0  0  0  0
   34.7660   29.7190   39.4840 H   0  0  0  0  0  0  0  0  0  0  0  0
   35.7720   28.6390   41.0570 C   0  0  0  0  0  3  0  0  0  0  0  0
  1  5  1  0  0  0  0
  1  2  2  0  0  0  0
  3  8  1  0  0  0  0
  4  3  2  0  0  0  0
  4  5  1  0  0  0  0
  5  6  2  0  0  0  0
  7  6  1  0  0  0  0
  7 11  1  0  0  0  0
  8  7  2  0  0  0  0
  9  3  1  0  0  0  0
 10  4  1  0  0  0  0
 12  1  1  0  0  0  0
 13 12  1  0  0  0  0
 13 14  1  0  0  0  0
 15 13  2  0  0  0  0
 16 15  1  0  0  0  0
 17 16  1  0  0  0  0
 18 16  2  0  0  0  0
 18 20  1  0  0  0  0
 19 18  1  0  0  0  0
 20 12  2  0  0  0  0
M  END
>  <minimizedAffinity>
-4.41801882

$$$$

 OpenBabel03252501123D

 20 21  0  0  0  0  0  0  0  0999 V2000
   37.4550   28.2470   42.5910 C   0  0  0  0  0  0  0  0  0  0  0  0
   37.4080   28.9100   43.6780 O   0  0  0  0  0  0  0  0  0  0  0  0
   37.3080   29.6290   39.1780 C   0  0  0  0  0  0  0  0  0  0  0  0
   37.7880   29.1380   40.4120 C   0  0  0  0  0  0  0  0  0  0  0  0
   36.8530   28.7220   41.3770 C   0  0  0  0  0  0  0  0  0  0  0  0
   35.5300   28.8200   41.0600 N   0  0  0  0  0  0  0  0  0  0  0  0
   35.1160   29.2920   39.8760 C   0  0  0  0  0  0  0  0  0  0  0  0
   36.0000   29.7000   38.9240 N   0  0  0  0  0  0  0  0  0  0  0  0
   37.9560   29.9690   38.3780 H   0  0  0  0  0  0  0  0  0  0  0  0
   38.8730   29.1030   40.5620 H   0  0  0  0  0  0  0  0  0  0  0  0
   34.0330   29.2810   39.8410 H   0  0  0  0  0  0  0  0  0  0  0  0
   38.1830   26.9800   42.7620 C   0  0  0  0  0  0  0  0  0  0  0  0
   37.7320   25.8390   42.1230 C   0  0  0  0  0  0  0  0  0  0  0  0
   36.8390   25.8670   41.4890 H   0  0  0  0  0  0  0  0  0  0  0  0
   38.3570   24.5910   42.2300 C   0  0  0  0  0  3  0  0  0  0  0  0
   39.5000   24.5030   43.0290 C   0  0  0  0  0  0  0  0  0  0  0  0
   39.9560   23.5290   43.0880 H   0  0  0  0  0  0  0  0  0  0  0  0
   39.9720   25.6390   43.6800 C   0  0  0  0  0  0  0  0  0  0  0  0
   40.8620   25.5370   44.2900 H   0  0  0  0  0  0  0  0  0  0  0  0
   39.3200   26.8450   43.5410 C   0  0  0  0  0  3  0  0  0  0  0  0
  1 12  1  0  0  0  0
  1  2  2  0  0  0  0
  3  4  1  0  0  0  0
  4 10  1  0  0  0  0
  4  5  2  0  0  0  0
  5  1  1  0  0  0  0
  6  5  1  0  0  0  0
  7  6  2  0  0  0  0
  8  3  2  0  0  0  0
  8  7  1  0  0  0  0
  9  3  1  0  0  0  0
 11  7  1  0  0  0  0
 12 20  1  0  0  0  0
 13 15  1  0  0  0  0
 13 12  2  0  0  0  0
 14 13  1  0  0  0  0
 15 16  2  0  0  0  0
 16 17  1  0  0  0  0
 16 18  1  0  0  0  0
 18 19  1  0  0  0  0
 20 18  2  0  0  0  0
M  END
>  <minimizedAffinity>
-4.32107973

$$$$

 OpenBabel03252501123D

 20 21  0  0  0  0  0  0  0  0999 V2000
   37.3970   30.7570   41.0540 C   0  0  0  0  0  0  0  0  0  0  0  0
   36.1710   31.1030   41.0850 O   0  0  0  0  0  0  0  0  0  0  0  0
   39.4980   33.6370   40.1210 C   0  0  0  0  0  0  0  0  0  0  0  0
   38.5540   32.8150   40.7750 C   0  0  0  0  0  0  0  0  0  0  0  0
   38.3840   31.4950   40.3170 C   0  0  0  0  0  0  0  0  0  0  0  0
   39.1470   31.0890   39.2620 N   0  0  0  0  0  0  0  0  0  0  0  0
   40.0310   31.9010   38.6700 C   0  0  0  0  0  0  0  0  0  0  0  0
   40.2160   33.1820   39.0930 N   0  0  0  0  0  0  0  0  0  0  0  0
   39.6950   34.6640   40.4080 H   0  0  0  0  0  0  0  0  0  0  0  0
   37.9940   33.2440   41.6130 H   0  0  0  0  0  0  0  0  0  0  0  0
   40.5220   31.3730   37.8600 H   0  0  0  0  0  0  0  0  0  0  0  0
   37.6350   29.5400   41.8470 C   0  0  0  0  0  0  0  0  0  0  0  0
   36.6490   28.5750   41.9320 C   0  0  0  0  0  0  0  0  0  0  0  0
   35.6910   28.7030   41.4140 H   0  0  0  0  0  0  0  0  0  0  0  0
   36.7830   27.3900   42.6650 C   0  0  0  0  0  3  0  0  0  0  0  0
   37.9860   27.1800   43.3450 C   0  0  0  0  0  0  0  0  0  0  0  0
   38.0560   26.2580   43.8980 H   0  0  0  0  0  0  0  0  0  0  0  0
   38.9920   28.1390   43.2720 C   0  0  0  0  0  0  0  0  0  0  0  0
   39.9130   27.9440   43.8100 H   0  0  0  0  0  0  0  0  0  0  0  0
   38.8090   29.2890   42.5360 C   0  0  0  0  0  3  0  0  0  0  0  0
  1  2  2  0  0  0  0
  1 12  1  0  0  0  0
  3  9  1  0  0  0  0
  3  4  1  0  0  0  0
  4 10  1  0  0  0  0
  5  4  2  0  0  0  0
  5  1  1  0  0  0  0
  6  5  1  0  0  0  0
  7  8  1  0  0  0  0
  7  6  2  0  0  0  0
  8  3  2  0  0  0  0
 11  7  1  0  0  0  0
 12 13  2  0  0  0  0
 12 20  1  0  0  0  0
 13 15  1  0  0  0  0
 14 13  1  0  0  0  0
 15 16  2  0  0  0  0
 16 17  1  0  0  0  0
 18 16  1  0  0  0  0
 18 19  1  0  0  0  0
 20 18  2  0  0  0  0
M  END
>  <minimizedAffinity>
-4.29549074

$$$$

 OpenBabel03252501123D

 20 21  0  0  0  0  0  0  0  0999 V2000
   39.0890   29.8500   40.7340 C   0  0  0  0  0  0  0  0  0  0  0  0
   40.0780   29.2720   40.1760 O   0  0  0  0  0  0  0  0  0  0  0  0
   37.3130   32.7990   39.4190 C   0  0  0  0  0  0  0  0  0  0  0  0
   37.6890   31.4660   39.6940 C   0  0  0  0  0  0  0  0  0  0  0  0
   38.7990   31.2410   40.5280 C   0  0  0  0  0  0  0  0  0  0  0  0
   39.4510   32.3330   41.0230 N   0  0  0  0  0  0  0  0  0  0  0  0
   39.0610   33.5820   40.7360 C   0  0  0  0  0  0  0  0  0  0  0  0
   37.9900   33.8280   39.9330 N   0  0  0  0  0  0  0  0  0  0  0  0
   36.4710   33.0650   38.7900 H   0  0  0  0  0  0  0  0  0  0  0  0
   37.0950   30.6640   39.2440 H   0  0  0  0  0  0  0  0  0  0  0  0
   39.7180   34.2880   41.2330 H   0  0  0  0  0  0  0  0  0  0  0  0
   38.3270   28.9190   41.5810 C   0  0  0  0  0  0  0  0  0  0  0  0
   37.8390   27.7440   41.0410 C   0  0  0  0  0  0  0  0  0  0  0  0
   38.0150   27.4950   39.9870 H   0  0  0  0  0  0  0  0  0  0  0  0
   37.1020   26.8020   41.7670 C   0  0  0  0  0  3  0  0  0  0  0  0
   36.8510   27.0730   43.1150 C   0  0  0  0  0  0  0  0  0  0  0  0
   36.2820   26.3280   43.6440 H   0  0  0  0  0  0  0  0  0  0  0  0
   37.3330   28.2510   43.6800 C   0  0  0  0  0  0  0  0  0  0  0  0
   37.1210   28.4300   44.7280 H   0  0  0  0  0  0  0  0  0  0  0  0
   38.0540   29.1450   42.9190 C   0  0  0  0  0  3  0  0  0  0  0  0
  1 12  1  0  0  0  0
  2  1  2  0  0  0  0
  3  4  2  0  0  0  0
  3  8  1  0  0  0  0
  4  5  1  0  0  0  0
  5  1  1  0  0  0  0
  5  6  2  0  0  0  0
  7  6  1  0  0  0  0
  7 11  1  0  0  0  0
  8  7  2  0  0  0  0
  9  3  1  0  0  0  0
 10  4  1  0  0  0  0
 12 20  1  0  0  0  0
 13 12  2  0  0  0  0
 13 15  1  0  0  0  0
 14 13  1  0  0  0  0
 15 16  2  0  0  0  0
 16 17  1  0  0  0  0
 16 18  1  0  0  0  0
 18 19  1  0  0  0  0
 20 18  2  0  0  0  0
M  END
>  <minimizedAffinity>
-4.23422432

$$$$
