
 OpenBabel03252508503D

 28 30  0  0  0  0  0  0  0  0999 V2000
   45.8470   34.2390   41.0460 C   0  0  0  0  0  0  0  0  0  0  0  0
   46.4660   34.7900   42.1620 C   0  0  0  0  0  0  0  0  0  0  0  0
   47.8360   35.0580   42.0360 C   0  0  0  0  0  0  0  0  0  0  0  0
   48.4660   34.7720   40.8600 N   0  0  0  0  0  0  0  0  0  0  0  0
   47.8170   34.2440   39.8260 C   0  0  0  0  0  0  0  0  0  0  0  0
   46.5050   33.9720   39.9070 N   0  0  0  0  0  0  0  0  0  0  0  0
   48.3350   35.4870   42.8940 H   0  0  0  0  0  0  0  0  0  0  0  0
   48.3740   34.0390   38.9170 H   0  0  0  0  0  0  0  0  0  0  0  0
   45.7050   35.0560   43.3640 C   0  0  0  0  0  0  0  0  0  0  0  0
   45.1120   36.2800   43.6200 C   0  0  0  0  0  0  0  0  0  0  0  0
   44.5080   36.0860   44.8490 C   0  0  0  0  0  0  0  0  0  0  0  0
   44.7200   34.8370   45.3040 N   0  0  0  0  0  0  0  0  0  0  0  0
   45.4460   34.2320   44.3880 N   0  0  0  0  0  0  0  0  0  0  0  0
   45.0880   37.2000   43.0460 H   0  0  0  0  0  0  0  0  0  0  0  0
   43.9380   36.8410   45.3780 H   0  0  0  0  0  0  0  0  0  0  0  0
   44.3510   34.4750   46.2160 H   0  0  0  0  0  0  0  0  0  0  0  0
   44.4960   33.9590   41.1280 O   0  0  0  0  0  0  0  0  0  0  0  0
   43.4580   34.7230   40.6820 C   0  0  0  0  0  0  0  0  0  0  0  0
   43.2520   35.9680   40.9220 O   0  0  0  0  0  0  0  0  0  0  0  0
   42.3660   34.1940   39.8160 C   0  0  0  0  0  0  0  0  0  0  0  0
   42.5400   33.1040   38.9600 C   0  0  0  0  0  0  0  0  0  0  0  0
   43.5270   32.6350   38.9410 H   0  0  0  0  0  0  0  0  0  0  0  0
   41.5930   32.5550   38.1320 C   0  0  0  0  0  3  0  0  0  0  0  0
   40.3510   33.1500   38.1600 C   0  0  0  0  0  0  0  0  0  0  0  0
   39.5610   32.7640   37.5320 H   0  0  0  0  0  0  0  0  0  0  0  0
   40.0850   34.2280   38.9720 C   0  0  0  0  0  0  0  0  0  0  0  0
   39.1060   34.6850   38.9850 H   0  0  0  0  0  0  0  0  0  0  0  0
   41.0950   34.7130   39.7690 C   0  0  0  0  0  3  0  0  0  0  0  0
  1 17  1  0  0  0  0
  1  2  1  0  0  0  0
  2  9  1  0  0  0  0
  3  2  2  0  0  0  0
  3  7  1  0  0  0  0
  4  3  1  0  0  0  0
  5  6  1  0  0  0  0
  5  4  2  0  0  0  0
  6  1  2  0  0  0  0
  8  5  1  0  0  0  0
  9 10  1  0  0  0  0
  9 13  2  0  0  0  0
 10 11  2  0  0  0  0
 11 12  1  0  0  0  0
 11 15  1  0  0  0  0
 12 16  1  0  0  0  0
 13 12  1  0  0  0  0
 14 10  1  0  0  0  0
 18 19  2  0  0  0  0
 18 17  1  0  0  0  0
 20 18  1  0  0  0  0
 21 20  2  0  0  0  0
 22 21  1  0  0  0  0
 23 24  2  0  0  0  0
 23 21  1  0  0  0  0
 24 26  1  0  0  0  0
 25 24  1  0  0  0  0
 26 27  1  0  0  0  0
 26 28  2  0  0  0  0
 28 20  1  0  0  0  0
M  END
>  <minimizedAffinity>
-5.44050598

>  <minimizedRMSD>
0.833356977

$$$$
