
 OpenBabel03252502283D

 35 37  0  0  0  0  0  0  0  0999 V2000
   45.2280   34.4090   41.0450 C   0  0  0  0  0  0  0  0  0  0  0  0
   45.5050   35.0560   42.2450 C   0  0  0  0  0  0  0  0  0  0  0  0
   46.8290   35.3290   42.5660 C   0  0  0  0  0  0  0  0  0  0  0  0
   47.8250   34.9480   41.6840 C   0  0  0  0  0  0  0  0  0  0  0  0
   47.5670   34.3120   40.5030 C   0  0  0  0  0  0  0  0  0  0  0  0
   46.2320   34.0500   40.2050 C   0  0  0  0  0  0  0  0  0  0  0  0
   44.7070   35.3420   42.9160 H   0  0  0  0  0  0  0  0  0  0  0  0
   46.9890   35.8330   43.5090 H   0  0  0  0  0  0  0  0  0  0  0  0
   48.8170   35.2060   42.0270 H   0  0  0  0  0  0  0  0  0  0  0  0
   48.3660   34.0260   39.8350 H   0  0  0  0  0  0  0  0  0  0  0  0
   41.5530   34.7400   40.2480 C   0  0  0  0  0  0  0  0  0  0  0  0
   42.8850   35.1160   40.4930 C   0  0  0  0  0  0  0  0  0  0  0  0
   43.8200   34.1570   40.7720 C   0  0  0  0  0  0  0  0  0  0  0  0
   43.3850   32.8720   40.7930 N   0  0  0  0  0  0  0  0  0  0  0  0
   42.1050   32.5100   40.5590 C   0  0  0  0  0  0  0  0  0  0  0  0
   41.1850   33.4550   40.2840 N   0  0  0  0  0  0  0  0  0  0  0  0
   43.2050   36.1480   40.4690 H   0  0  0  0  0  0  0  0  0  0  0  0
   41.8720   31.4340   40.6030 H   0  0  0  0  0  0  0  0  0  0  0  0
   40.5360   35.7730   39.9440 C   0  0  0  0  0  0  0  0  0  0  0  0
   39.3240   35.1240   39.7170 F   0  0  0  0  0  0  0  0  0  0  0  0
   40.8830   36.3370   38.7240 F   0  0  0  0  0  0  0  0  0  0  0  0
   40.3970   36.7090   40.9370 F   0  0  0  0  0  0  0  0  0  0  0  0
   46.2760   32.2540   38.2960 C   0  0  0  0  0  0  0  0  0  0  0  0
   47.2200   31.5170   38.6400 O   0  0  0  0  0  0  0  0  0  0  0  0
   45.8460   33.4140   39.0110 N   0  0  0  0  0  0  0  0  0  0  0  0
   45.0690   34.0220   38.6650 H   0  0  0  0  0  0  0  0  0  0  0  0
   45.5620   31.9030   37.0750 C   0  0  0  0  0  0  0  0  0  0  0  0
   44.3980   31.1410   36.9400 C   0  0  0  0  0  0  0  0  0  0  0  0
   43.9890   30.7690   37.8610 H   0  0  0  0  0  0  0  0  0  0  0  0
   43.7600   30.8400   35.7790 C   0  0  0  0  0  0  0  0  0  0  0  0
   44.3410   31.3490   34.6420 C   0  0  0  0  0  0  0  0  0  0  0  0
   43.8610   31.1320   33.6780 H   0  0  0  0  0  0  0  0  0  0  0  0
   45.4810   32.1110   34.6260 C   0  0  0  0  0  0  0  0  0  0  0  0
   45.9180   32.4990   33.7190 H   0  0  0  0  0  0  0  0  0  0  0  0
   46.0440   32.3560   35.8550 C   0  0  0  0  0  0  0  0  0  0  0  0
  1  2  1  0  0  0  0
  2  3  2  0  0  0  0
  2  7  1  0  0  0  0
  3  8  1  0  0  0  0
  4  9  1  0  0  0  0
  4  3  1  0  0  0  0
  5  4  2  0  0  0  0
  6  5  1  0  0  0  0
  6  1  2  0  0  0  0
 10  5  1  0  0  0  0
 11 16  2  0  0  0  0
 11 12  1  0  0  0  0
 12 13  2  0  0  0  0
 13 14  1  0  0  0  0
 13  1  1  0  0  0  0
 15 18  1  0  0  0  0
 15 14  2  0  0  0  0
 16 15  1  0  0  0  0
 17 12  1  0  0  0  0
 19 11  1  0  0  0  0
 19 22  1  0  0  0  0
 20 19  1  0  0  0  0
 21 19  1  0  0  0  0
 23 24  2  0  0  0  0
 23 25  1  0  0  0  0
 25  6  1  0  0  0  0
 26 25  1  0  0  0  0
 27 23  1  0  0  0  0
 28 27  1  0  0  0  0
 28 29  1  0  0  0  0
 30 28  2  0  0  0  0
 31 30  1  0  0  0  0
 32 31  1  0  0  0  0
 33 31  2  0  0  0  0
 33 35  1  0  0  0  0
 34 33  1  0  0  0  0
 35 27  2  0  0  0  0
M  END
>  <minimizedAffinity>
-6.06208467

>  <minimizedRMSD>
0.870468199

$$$$
