
 OpenBabel03242522513D

 26 27  0  0  0  0  0  0  0  0999 V2000
   45.6800   30.6110   47.7410 O   0  0  0  0  0  0  0  0  0  0  0  0
   45.9790   31.9800   48.4050 P   0  0  2  0  0  0  0  0  0  0  0  0
   45.3740   31.8510   49.9670 O   0  0  0  0  0  0  0  0  0  0  0  0
   45.4940   32.7250   50.4210 H   0  0  0  0  0  0  0  0  0  0  0  0
   45.1390   33.1600   47.5390 O   0  0  0  0  0  0  0  0  0  0  0  0
   47.0300   33.1900   44.4330 C   0  0  0  0  0  0  0  0  0  0  0  0
   46.5790   32.8320   45.7250 C   0  0  0  0  0  0  0  0  0  0  0  0
   45.5430   33.5460   46.2790 C   0  0  0  0  0  0  0  0  0  0  0  0
   45.0050   34.5560   45.5600 N   0  0  0  0  0  0  0  0  0  0  0  0
   45.4300   34.8960   44.3390 C   0  0  0  0  0  0  0  0  0  0  0  0
   46.4490   34.2100   43.7700 N   0  0  0  0  0  0  0  0  0  0  0  0
   47.8360   32.6890   43.9180 H   0  0  0  0  0  0  0  0  0  0  0  0
   47.1390   32.0030   46.1140 H   0  0  0  0  0  0  0  0  0  0  0  0
   44.8750   35.7290   43.9290 H   0  0  0  0  0  0  0  0  0  0  0  0
   47.6130   32.2480   48.3880 O   0  0  0  0  0  0  0  0  0  0  0  0
   48.6640   31.6090   48.9330 C   0  0  0  0  0  0  0  0  0  0  0  0
   49.5860   32.4520   49.3660 O   0  0  0  0  0  0  0  0  0  0  0  0
   49.2680   30.2720   49.2740 C   0  0  0  0  0  0  0  0  0  0  0  0
   49.1790   29.2460   48.4120 C   0  0  0  0  0  0  0  0  0  0  0  0
   48.7260   29.2360   47.4560 H   0  0  0  0  0  0  0  0  0  0  0  0
   49.7470   28.0190   48.7960 C   0  0  0  0  0  0  0  0  0  0  0  0
   50.3720   27.8790   50.0110 C   0  0  0  0  0  0  0  0  0  0  0  0
   50.7850   26.9050   50.2360 H   0  0  0  0  0  0  0  0  0  0  0  0
   50.4950   28.8910   50.9310 C   0  0  0  0  0  0  0  0  0  0  0  0
   50.9740   28.8140   51.8820 H   0  0  0  0  0  0  0  0  0  0  0  0
   49.9260   30.0380   50.4940 C   0  0  0  0  0  0  0  0  0  0  0  0
  2  1  2  6  0  0  0
  2  3  1  0  0  0  0
  3  4  1  0  0  0  0
  5  2  1  0  0  0  0
  6  7  1  0  0  0  0
  7 13  1  0  0  0  0
  7  8  2  0  0  0  0
  8  5  1  0  0  0  0
  9  8  1  0  0  0  0
 10  9  2  0  0  0  0
 11 10  1  0  0  0  0
 11  6  2  0  0  0  0
 12  6  1  0  0  0  0
 14 10  1  0  0  0  0
 15  2  1  0  0  0  0
 15 16  1  0  0  0  0
 16 18  1  0  0  0  0
 16 17  2  0  0  0  0
 18 26  1  0  0  0  0
 19 21  1  0  0  0  0
 19 18  2  0  0  0  0
 20 19  1  0  0  0  0
 21 22  2  0  0  0  0
 22 23  1  0  0  0  0
 22 24  1  0  0  0  0
 24 25  1  0  0  0  0
 26 24  2  0  0  0  0
M  END
>  <minimizedAffinity>
-4.97109222

>  <minimizedRMSD>
1.25863957

$$$$
