
 OpenBabel03242517013D

 32 34  0  0  0  0  0  0  0  0999 V2000
   37.3870   31.3150   39.9500 C   0  0  0  0  0  0  0  0  0  0  0  0
   37.3010   32.6480   39.5440 C   0  0  0  0  0  0  0  0  0  0  0  0
   38.2190   33.5480   40.0550 C   0  0  0  0  0  0  0  0  0  0  0  0
   39.1870   33.1090   40.9440 C   0  0  0  0  0  0  0  0  0  0  0  0
   39.2910   31.8140   41.3540 C   0  0  0  0  0  0  0  0  0  0  0  0
   38.3420   30.9260   40.8160 C   0  0  0  0  0  0  0  0  0  0  0  0
   36.5390   32.9710   38.8500 H   0  0  0  0  0  0  0  0  0  0  0  0
   38.1170   34.5710   39.7150 H   0  0  0  0  0  0  0  0  0  0  0  0
   39.8950   33.8430   41.3270 H   0  0  0  0  0  0  0  0  0  0  0  0
   40.0460   31.4620   42.0500 H   0  0  0  0  0  0  0  0  0  0  0  0
   35.3260   29.1660   37.6160 C   0  0  0  0  0  0  0  0  0  0  0  0
   36.3380   30.0500   38.0530 C   0  0  0  0  0  0  0  0  0  0  0  0
   36.3950   30.4150   39.3780 C   0  0  0  0  0  0  0  0  0  0  0  0
   35.4490   29.8830   40.1860 N   0  0  0  0  0  0  0  0  0  0  0  0
   34.4760   29.0420   39.7970 C   0  0  0  0  0  0  0  0  0  0  0  0
   34.4270   28.6830   38.4740 N   0  0  0  0  0  0  0  0  0  0  0  0
   35.3250   28.9070   36.5510 H   0  0  0  0  0  0  0  0  0  0  0  0
   37.0890   30.4700   37.4070 H   0  0  0  0  0  0  0  0  0  0  0  0
   33.7620   28.6690   40.5200 H   0  0  0  0  0  0  0  0  0  0  0  0
   38.1680   28.8080   42.3570 C   0  0  0  0  0  0  0  0  0  0  0  0
   37.9370   29.2900   43.4900 O   0  0  0  0  0  0  0  0  0  0  0  0
   38.3390   29.5570   41.1670 N   0  0  0  0  0  0  0  0  0  0  0  0
   38.5140   29.1320   40.2270 H   0  0  0  0  0  0  0  0  0  0  0  0
   38.2630   27.3550   42.2900 C   0  0  0  0  0  0  0  0  0  0  0  0
   37.0870   26.6370   42.2340 C   0  0  0  0  0  0  0  0  0  0  0  0
   36.0860   27.0880   42.2370 H   0  0  0  0  0  0  0  0  0  0  0  0
   37.0910   25.2370   42.1690 C   0  0  0  0  0  3  0  0  0  0  0  0
   38.2580   24.5210   42.1570 C   0  0  0  0  0  0  0  0  0  0  0  0
   38.2240   23.4510   42.1070 H   0  0  0  0  0  0  0  0  0  0  0  0
   39.4360   25.2310   42.2140 C   0  0  0  0  0  0  0  0  0  0  0  0
   40.3920   24.7240   42.2080 H   0  0  0  0  0  0  0  0  0  0  0  0
   39.4180   26.6040   42.2770 C   0  0  0  0  0  3  0  0  0  0  0  0
  1  6  1  0  0  0  0
  2  1  2  0  0  0  0
  2  3  1  0  0  0  0
  3  4  2  0  0  0  0
  4  9  1  0  0  0  0
  4  5  1  0  0  0  0
  5 10  1  0  0  0  0
  6 22  1  0  0  0  0
  6  5  2  0  0  0  0
  7  2  1  0  0  0  0
  8  3  1  0  0  0  0
 11 12  2  0  0  0  0
 11 16  1  0  0  0  0
 12 13  1  0  0  0  0
 13  1  1  0  0  0  0
 13 14  2  0  0  0  0
 15 14  1  0  0  0  0
 15 19  1  0  0  0  0
 16 15  2  0  0  0  0
 17 11  1  0  0  0  0
 18 12  1  0  0  0  0
 20 21  2  0  0  0  0
 22 20  1  0  0  0  0
 23 22  1  0  0  0  0
 24 20  1  0  0  0  0
 25 26  1  0  0  0  0
 25 24  2  0  0  0  0
 27 25  1  0  0  0  0
 28 27  2  0  0  0  0
 28 30  1  0  0  0  0
 29 28  1  0  0  0  0
 30 32  2  0  0  0  0
 31 30  1  0  0  0  0
 32 24  1  0  0  0  0
M  END
>  <minimizedAffinity>
-5.75375223

$$$$

 OpenBabel03242517013D

 32 34  0  0  0  0  0  0  0  0999 V2000
   36.9210   25.7390   40.5200 C   0  0  0  0  0  0  0  0  0  0  0  0
   36.7600   24.3640   40.7010 C   0  0  0  0  0  0  0  0  0  0  0  0
   36.0780   23.6520   39.7310 C   0  0  0  0  0  0  0  0  0  0  0  0
   35.5800   24.3130   38.6180 C   0  0  0  0  0  0  0  0  0  0  0  0
   35.7260   25.6530   38.4200 C   0  0  0  0  0  0  0  0  0  0  0  0
   36.4230   26.3460   39.4260 C   0  0  0  0  0  0  0  0  0  0  0  0
   37.1540   23.8680   41.5740 H   0  0  0  0  0  0  0  0  0  0  0  0
   35.9750   22.5900   39.9100 H   0  0  0  0  0  0  0  0  0  0  0  0
   35.0480   23.7230   37.8730 H   0  0  0  0  0  0  0  0  0  0  0  0
   35.3390   26.1780   37.5520 H   0  0  0  0  0  0  0  0  0  0  0  0
   37.8920   27.5810   43.6780 C   0  0  0  0  0  0  0  0  0  0  0  0
   37.0820   26.9220   42.7280 C   0  0  0  0  0  0  0  0  0  0  0  0
   37.6480   26.4350   41.5730 C   0  0  0  0  0  0  0  0  0  0  0  0
   38.9800   26.6300   41.4320 N   0  0  0  0  0  0  0  0  0  0  0  0
   39.7740   27.2540   42.3190 C   0  0  0  0  0  0  0  0  0  0  0  0
   39.2000   27.7350   43.4680 N   0  0  0  0  0  0  0  0  0  0  0  0
   37.3920   27.9500   44.5810 H   0  0  0  0  0  0  0  0  0  0  0  0
   36.0230   26.7680   42.8440 H   0  0  0  0  0  0  0  0  0  0  0  0
   40.8310   27.3620   42.1160 H   0  0  0  0  0  0  0  0  0  0  0  0
   35.9210   28.9080   39.7050 C   0  0  0  0  0  0  0  0  0  0  0  0
   34.8030   28.9260   40.2700 O   0  0  0  0  0  0  0  0  0  0  0  0
   36.6360   27.7410   39.3400 N   0  0  0  0  0  0  0  0  0  0  0  0
   37.5780   27.7490   38.8840 H   0  0  0  0  0  0  0  0  0  0  0  0
   36.5070   30.2100   39.4100 C   0  0  0  0  0  0  0  0  0  0  0  0
   36.6350   31.1050   40.4510 C   0  0  0  0  0  0  0  0  0  0  0  0
   36.3250   30.9020   41.4850 H   0  0  0  0  0  0  0  0  0  0  0  0
   37.1870   32.3780   40.2520 C   0  0  0  0  0  3  0  0  0  0  0  0
   37.6220   32.7890   39.0210 C   0  0  0  0  0  0  0  0  0  0  0  0
   38.0390   33.7700   38.9050 H   0  0  0  0  0  0  0  0  0  0  0  0
   37.4960   31.9000   37.9770 C   0  0  0  0  0  0  0  0  0  0  0  0
   37.8220   32.1640   36.9790 H   0  0  0  0  0  0  0  0  0  0  0  0
   36.9540   30.6550   38.1860 C   0  0  0  0  0  3  0  0  0  0  0  0
  1  2  1  0  0  0  0
  1 13  1  0  0  0  0
  2  7  1  0  0  0  0
  3  8  1  0  0  0  0
  3  2  2  0  0  0  0
  4  3  1  0  0  0  0
  5  4  2  0  0  0  0
  5  6  1  0  0  0  0
  6  1  2  0  0  0  0
  9  4  1  0  0  0  0
 10  5  1  0  0  0  0
 11 17  1  0  0  0  0
 12 18  1  0  0  0  0
 12 11  2  0  0  0  0
 13 12  1  0  0  0  0
 14 13  2  0  0  0  0
 14 15  1  0  0  0  0
 15 16  2  0  0  0  0
 16 11  1  0  0  0  0
 19 15  1  0  0  0  0
 20 21  2  0  0  0  0
 22  6  1  0  0  0  0
 22 20  1  0  0  0  0
 23 22  1  0  0  0  0
 24 20  1  0  0  0  0
 24 25  1  0  0  0  0
 25 26  1  0  0  0  0
 27 25  2  0  0  0  0
 28 27  1  0  0  0  0
 29 28  1  0  0  0  0
 30 32  1  0  0  0  0
 30 28  2  0  0  0  0
 31 30  1  0  0  0  0
 32 24  2  0  0  0  0
M  END
>  <minimizedAffinity>
-5.64299297

$$$$

 OpenBabel03242517013D

 32 34  0  0  0  0  0  0  0  0999 V2000
   37.8030   29.4860   41.6330 C   0  0  0  0  0  0  0  0  0  0  0  0
   38.2960   29.3740   42.9340 C   0  0  0  0  0  0  0  0  0  0  0  0
   37.9310   28.2670   43.6800 C   0  0  0  0  0  0  0  0  0  0  0  0
   37.0980   27.3100   43.1220 C   0  0  0  0  0  0  0  0  0  0  0  0
   36.6060   27.3970   41.8550 C   0  0  0  0  0  0  0  0  0  0  0  0
   36.9950   28.5350   41.1260 C   0  0  0  0  0  0  0  0  0  0  0  0
   38.9430   30.1310   43.3510 H   0  0  0  0  0  0  0  0  0  0  0  0
   38.3340   28.2200   44.6830 H   0  0  0  0  0  0  0  0  0  0  0  0
   36.8300   26.4500   43.7360 H   0  0  0  0  0  0  0  0  0  0  0  0
   35.9530   26.6510   41.4110 H   0  0  0  0  0  0  0  0  0  0  0  0
   39.7680   32.0640   39.6840 C   0  0  0  0  0  0  0  0  0  0  0  0
   39.4810   30.8700   40.3810 C   0  0  0  0  0  0  0  0  0  0  0  0
   38.2220   30.6710   40.8970 C   0  0  0  0  0  0  0  0  0  0  0  0
   37.3260   31.6650   40.6900 N   0  0  0  0  0  0  0  0  0  0  0  0
   37.5730   32.8100   40.0320 C   0  0  0  0  0  0  0  0  0  0  0  0
   38.8310   32.9990   39.5200 N   0  0  0  0  0  0  0  0  0  0  0  0
   40.7870   32.1740   39.2930 H   0  0  0  0  0  0  0  0  0  0  0  0
   40.1950   30.0820   40.5430 H   0  0  0  0  0  0  0  0  0  0  0  0
   36.7900   33.5480   39.9180 H   0  0  0  0  0  0  0  0  0  0  0  0
   35.3110   29.0380   39.1760 C   0  0  0  0  0  0  0  0  0  0  0  0
   34.2200   29.2080   39.7700 O   0  0  0  0  0  0  0  0  0  0  0  0
   36.5470   28.7440   39.8010 N   0  0  0  0  0  0  0  0  0  0  0  0
   37.4500   28.6240   39.2870 H   0  0  0  0  0  0  0  0  0  0  0  0
   35.2710   29.1580   37.7240 C   0  0  0  0  0  0  0  0  0  0  0  0
   36.3970   29.6400   37.0890 C   0  0  0  0  0  0  0  0  0  0  0  0
   37.3190   29.9380   37.6060 H   0  0  0  0  0  0  0  0  0  0  0  0
   36.4410   29.7870   35.6960 C   0  0  0  0  0  3  0  0  0  0  0  0
   35.3720   29.4600   34.9050 C   0  0  0  0  0  0  0  0  0  0  0  0
   35.4410   29.5850   33.8430 H   0  0  0  0  0  0  0  0  0  0  0  0
   34.2450   28.9780   35.5320 C   0  0  0  0  0  0  0  0  0  0  0  0
   33.3680   28.7020   34.9620 H   0  0  0  0  0  0  0  0  0  0  0  0
   34.2160   28.8390   36.8990 C   0  0  0  0  0  3  0  0  0  0  0  0
  1  2  1  0  0  0  0
  2  7  1  0  0  0  0
  2  3  2  0  0  0  0
  3  8  1  0  0  0  0
  4  3  1  0  0  0  0
  4  9  1  0  0  0  0
  5  4  2  0  0  0  0
  6  1  2  0  0  0  0
  6  5  1  0  0  0  0
 10  5  1  0  0  0  0
 11 12  1  0  0  0  0
 12 18  1  0  0  0  0
 12 13  2  0  0  0  0
 13  1  1  0  0  0  0
 14 13  1  0  0  0  0
 15 14  2  0  0  0  0
 16 11  2  0  0  0  0
 16 15  1  0  0  0  0
 17 11  1  0  0  0  0
 19 15  1  0  0  0  0
 20 21  2  0  0  0  0
 20 22  1  0  0  0  0
 22  6  1  0  0  0  0
 23 22  1  0  0  0  0
 24 20  1  0  0  0  0
 25 26  1  0  0  0  0
 25 24  1  0  0  0  0
 27 25  2  0  0  0  0
 28 30  2  0  0  0  0
 28 27  1  0  0  0  0
 29 28  1  0  0  0  0
 30 32  1  0  0  0  0
 31 30  1  0  0  0  0
 32 24  2  0  0  0  0
M  END
>  <minimizedAffinity>
-5.57048798

$$$$

 OpenBabel03242517013D

 32 34  0  0  0  0  0  0  0  0999 V2000
   40.4790   30.4680   42.1200 C   0  0  0  0  0  0  0  0  0  0  0  0
   41.6440   30.8070   42.8110 C   0  0  0  0  0  0  0  0  0  0  0  0
   42.3850   31.8830   42.3560 C   0  0  0  0  0  0  0  0  0  0  0  0
   41.9580   32.5870   41.2410 C   0  0  0  0  0  0  0  0  0  0  0  0
   40.8260   32.2760   40.5520 C   0  0  0  0  0  0  0  0  0  0  0  0
   40.0960   31.1760   41.0400 C   0  0  0  0  0  0  0  0  0  0  0  0
   41.9600   30.2450   43.6760 H   0  0  0  0  0  0  0  0  0  0  0  0
   43.2800   32.1110   42.9200 H   0  0  0  0  0  0  0  0  0  0  0  0
   42.5640   33.4300   40.9100 H   0  0  0  0  0  0  0  0  0  0  0  0
   40.4840   32.8230   39.6780 H   0  0  0  0  0  0  0  0  0  0  0  0
   39.4260   27.0270   43.2840 C   0  0  0  0  0  0  0  0  0  0  0  0
   40.2410   28.0520   42.7570 C   0  0  0  0  0  0  0  0  0  0  0  0
   39.7400   29.3280   42.6450 C   0  0  0  0  0  0  0  0  0  0  0  0
   38.4650   29.5090   43.0630 N   0  0  0  0  0  0  0  0  0  0  0  0
   37.6690   28.5520   43.5670 C   0  0  0  0  0  0  0  0  0  0  0  0
   38.1770   27.2830   43.6750 N   0  0  0  0  0  0  0  0  0  0  0  0
   39.8730   26.0280   43.3520 H   0  0  0  0  0  0  0  0  0  0  0  0
   41.2550   27.9050   42.4270 H   0  0  0  0  0  0  0  0  0  0  0  0
   36.6590   28.7940   43.8730 H   0  0  0  0  0  0  0  0  0  0  0  0
   37.6480   31.3240   40.1060 C   0  0  0  0  0  0  0  0  0  0  0  0
   37.3080   32.5030   40.3640 O   0  0  0  0  0  0  0  0  0  0  0  0
   38.9050   30.7490   40.4090 N   0  0  0  0  0  0  0  0  0  0  0  0
   39.1750   29.7670   40.1690 H   0  0  0  0  0  0  0  0  0  0  0  0
   36.6440   30.5040   39.4380 C   0  0  0  0  0  0  0  0  0  0  0  0
   35.6520   29.9460   40.2160 C   0  0  0  0  0  0  0  0  0  0  0  0
   35.5690   30.0790   41.3040 H   0  0  0  0  0  0  0  0  0  0  0  0
   34.6500   29.1430   39.6530 C   0  0  0  0  0  3  0  0  0  0  0  0
   34.6110   28.8790   38.3110 C   0  0  0  0  0  0  0  0  0  0  0  0
   33.8300   28.2600   37.9140 H   0  0  0  0  0  0  0  0  0  0  0  0
   35.5990   29.4320   37.5280 C   0  0  0  0  0  0  0  0  0  0  0  0
   35.6240   29.2600   36.4600 H   0  0  0  0  0  0  0  0  0  0  0  0
   36.5750   30.2170   38.0930 C   0  0  0  0  0  3  0  0  0  0  0  0
  1 13  1  0  0  0  0
  1  2  1  0  0  0  0
  2  7  1  0  0  0  0
  3  2  2  0  0  0  0
  3  8  1  0  0  0  0
  4  3  1  0  0  0  0
  5  6  1  0  0  0  0
  5  4  2  0  0  0  0
  6  1  2  0  0  0  0
  9  4  1  0  0  0  0
 10  5  1  0  0  0  0
 11 17  1  0  0  0  0
 11 16  1  0  0  0  0
 12 11  2  0  0  0  0
 13 12  1  0  0  0  0
 13 14  2  0  0  0  0
 14 15  1  0  0  0  0
 15 16  2  0  0  0  0
 15 19  1  0  0  0  0
 18 12  1  0  0  0  0
 20 21  2  0  0  0  0
 20 22  1  0  0  0  0
 22  6  1  0  0  0  0
 23 22  1  0  0  0  0
 24 20  1  0  0  0  0
 24 25  1  0  0  0  0
 25 26  1  0  0  0  0
 27 25  2  0  0  0  0
 28 27  1  0  0  0  0
 29 28  1  0  0  0  0
 30 32  1  0  0  0  0
 30 28  2  0  0  0  0
 31 30  1  0  0  0  0
 32 24  2  0  0  0  0
M  END
>  <minimizedAffinity>
-5.55929947

$$$$

 OpenBabel03242517013D

 32 34  0  0  0  0  0  0  0  0999 V2000
   36.9020   30.1540   37.0380 C   0  0  0  0  0  0  0  0  0  0  0  0
   36.6770   30.5160   35.7090 C   0  0  0  0  0  0  0  0  0  0  0  0
   35.9620   29.6460   34.9060 C   0  0  0  0  0  0  0  0  0  0  0  0
   35.4930   28.4540   35.4350 C   0  0  0  0  0  0  0  0  0  0  0  0
   35.6990   28.0800   36.7280 C   0  0  0  0  0  0  0  0  0  0  0  0
   36.4310   28.9860   37.5160 C   0  0  0  0  0  0  0  0  0  0  0  0
   37.0510   31.4490   35.3160 H   0  0  0  0  0  0  0  0  0  0  0  0
   35.8100   29.9650   33.8830 H   0  0  0  0  0  0  0  0  0  0  0  0
   34.9320   27.7920   34.7750 H   0  0  0  0  0  0  0  0  0  0  0  0
   35.3350   27.1480   37.1500 H   0  0  0  0  0  0  0  0  0  0  0  0
   39.6440   32.2510   38.5860 C   0  0  0  0  0  0  0  0  0  0  0  0
   39.0210   31.2900   37.7590 C   0  0  0  0  0  0  0  0  0  0  0  0
   37.6600   31.1100   37.8350 C   0  0  0  0  0  0  0  0  0  0  0  0
   37.0010   31.8910   38.7230 N   0  0  0  0  0  0  0  0  0  0  0  0
   37.5690   32.8110   39.5210 C   0  0  0  0  0  0  0  0  0  0  0  0
   38.9270   32.9840   39.4380 N   0  0  0  0  0  0  0  0  0  0  0  0
   40.7310   32.3550   38.4870 H   0  0  0  0  0  0  0  0  0  0  0  0
   39.5480   30.6710   37.0540 H   0  0  0  0  0  0  0  0  0  0  0  0
   36.9570   33.3880   40.2010 H   0  0  0  0  0  0  0  0  0  0  0  0
   36.0070   28.7640   40.0970 C   0  0  0  0  0  0  0  0  0  0  0  0
   34.8060   29.0990   40.2250 O   0  0  0  0  0  0  0  0  0  0  0  0
   36.7170   28.7120   38.8730 N   0  0  0  0  0  0  0  0  0  0  0  0
   37.7150   28.4120   38.7870 H   0  0  0  0  0  0  0  0  0  0  0  0
   36.7030   28.4050   41.3270 C   0  0  0  0  0  0  0  0  0  0  0  0
   36.8470   27.0640   41.6130 C   0  0  0  0  0  0  0  0  0  0  0  0
   36.4730   26.2510   40.9770 H   0  0  0  0  0  0  0  0  0  0  0  0
   37.5020   26.6340   42.7750 C   0  0  0  0  0  3  0  0  0  0  0  0
   38.0270   27.5230   43.6750 C   0  0  0  0  0  0  0  0  0  0  0  0
   38.5210   27.1590   44.5540 H   0  0  0  0  0  0  0  0  0  0  0  0
   37.8850   28.8640   43.3960 C   0  0  0  0  0  0  0  0  0  0  0  0
   38.2770   29.6160   44.0680 H   0  0  0  0  0  0  0  0  0  0  0  0
   37.2410   29.2710   42.2530 C   0  0  0  0  0  3  0  0  0  0  0  0
  1  6  1  0  0  0  0
  1 13  1  0  0  0  0
  2  1  2  0  0  0  0
  3  4  2  0  0  0  0
  3  2  1  0  0  0  0
  4  5  1  0  0  0  0
  5 10  1  0  0  0  0
  5  6  2  0  0  0  0
  6 22  1  0  0  0  0
  7  2  1  0  0  0  0
  8  3  1  0  0  0  0
  9  4  1  0  0  0  0
 11 16  1  0  0  0  0
 12 13  1  0  0  0  0
 12 11  2  0  0  0  0
 13 14  2  0  0  0  0
 14 15  1  0  0  0  0
 15 19  1  0  0  0  0
 16 15  2  0  0  0  0
 17 11  1  0  0  0  0
 18 12  1  0  0  0  0
 20 21  2  0  0  0  0
 20 24  1  0  0  0  0
 22 20  1  0  0  0  0
 23 22  1  0  0  0  0
 24 25  2  0  0  0  0
 24 32  1  0  0  0  0
 25 27  1  0  0  0  0
 26 25  1  0  0  0  0
 27 28  2  0  0  0  0
 28 29  1  0  0  0  0
 30 28  1  0  0  0  0
 30 31  1  0  0  0  0
 32 30  2  0  0  0  0
M  END
>  <minimizedAffinity>
-5.25757599

$$$$

 OpenBabel03242517013D

 32 34  0  0  0  0  0  0  0  0999 V2000
   37.1810   28.8000   40.9870 C   0  0  0  0  0  0  0  0  0  0  0  0
   36.4180   27.8890   41.7190 C   0  0  0  0  0  0  0  0  0  0  0  0
   36.6760   27.7550   43.0710 C   0  0  0  0  0  0  0  0  0  0  0  0
   37.6720   28.5210   43.6570 C   0  0  0  0  0  0  0  0  0  0  0  0
   38.4290   29.4160   42.9650 C   0  0  0  0  0  0  0  0  0  0  0  0
   38.1410   29.5260   41.5920 C   0  0  0  0  0  0  0  0  0  0  0  0
   35.6470   27.3010   41.2440 H   0  0  0  0  0  0  0  0  0  0  0  0
   36.0620   27.0380   43.6000 H   0  0  0  0  0  0  0  0  0  0  0  0
   37.8490   28.3920   44.7250 H   0  0  0  0  0  0  0  0  0  0  0  0
   39.2110   30.0200   43.4160 H   0  0  0  0  0  0  0  0  0  0  0  0
   35.4510   29.3290   37.6650 C   0  0  0  0  0  0  0  0  0  0  0  0
   35.6390   29.2700   39.0630 C   0  0  0  0  0  0  0  0  0  0  0  0
   36.8630   28.8980   39.5690 C   0  0  0  0  0  0  0  0  0  0  0  0
   37.8230   28.6070   38.6600 N   0  0  0  0  0  0  0  0  0  0  0  0
   37.6710   28.6540   37.3260 C   0  0  0  0  0  0  0  0  0  0  0  0
   36.4480   29.0270   36.8310 N   0  0  0  0  0  0  0  0  0  0  0  0
   34.4580   29.6310   37.3130 H   0  0  0  0  0  0  0  0  0  0  0  0
   34.8740   29.5030   39.7830 H   0  0  0  0  0  0  0  0  0  0  0  0
   38.5000   28.4010   36.6780 H   0  0  0  0  0  0  0  0  0  0  0  0
   38.7070   31.7570   40.3290 C   0  0  0  0  0  0  0  0  0  0  0  0
   37.7750   32.5250   40.6620 O   0  0  0  0  0  0  0  0  0  0  0  0
   38.8590   30.4170   40.7620 N   0  0  0  0  0  0  0  0  0  0  0  0
   39.6550   29.7980   40.4850 H   0  0  0  0  0  0  0  0  0  0  0  0
   39.7000   32.3160   39.4190 C   0  0  0  0  0  0  0  0  0  0  0  0
   40.2970   33.5060   39.7770 C   0  0  0  0  0  0  0  0  0  0  0  0
   40.0750   34.0590   40.7000 H   0  0  0  0  0  0  0  0  0  0  0  0
   41.2610   34.1110   38.9580 C   0  0  0  0  0  3  0  0  0  0  0  0
   41.6510   33.5510   37.7720 C   0  0  0  0  0  0  0  0  0  0  0  0
   42.3900   34.0420   37.1700 H   0  0  0  0  0  0  0  0  0  0  0  0
   41.0580   32.3630   37.4080 C   0  0  0  0  0  0  0  0  0  0  0  0
   41.3230   31.8690   36.4830 H   0  0  0  0  0  0  0  0  0  0  0  0
   40.1150   31.7800   38.2210 C   0  0  0  0  0  3  0  0  0  0  0  0
  1  6  2  0  0  0  0
  1  2  1  0  0  0  0
  2  3  2  0  0  0  0
  3  8  1  0  0  0  0
  3  4  1  0  0  0  0
  4  9  1  0  0  0  0
  5 10  1  0  0  0  0
  5  4  2  0  0  0  0
  6  5  1  0  0  0  0
  7  2  1  0  0  0  0
 11 12  1  0  0  0  0
 12 13  2  0  0  0  0
 12 18  1  0  0  0  0
 13  1  1  0  0  0  0
 14 13  1  0  0  0  0
 15 14  2  0  0  0  0
 16 15  1  0  0  0  0
 16 11  2  0  0  0  0
 17 11  1  0  0  0  0
 19 15  1  0  0  0  0
 20 21  2  0  0  0  0
 20 22  1  0  0  0  0
 22  6  1  0  0  0  0
 23 22  1  0  0  0  0
 24 25  1  0  0  0  0
 24 20  1  0  0  0  0
 25 26  1  0  0  0  0
 27 25  2  0  0  0  0
 28 27  1  0  0  0  0
 29 28  1  0  0  0  0
 30 28  2  0  0  0  0
 30 32  1  0  0  0  0
 31 30  1  0  0  0  0
 32 24  2  0  0  0  0
M  END
>  <minimizedAffinity>
-5.24539042

$$$$

 OpenBabel03242517013D

 32 34  0  0  0  0  0  0  0  0999 V2000
   37.5930   27.2040   41.4160 C   0  0  0  0  0  0  0  0  0  0  0  0
   37.5620   25.8650   41.8070 C   0  0  0  0  0  0  0  0  0  0  0  0
   38.4790   25.4370   42.7510 C   0  0  0  0  0  0  0  0  0  0  0  0
   39.3910   26.3380   43.2770 C   0  0  0  0  0  0  0  0  0  0  0  0
   39.4400   27.6490   42.9120 C   0  0  0  0  0  0  0  0  0  0  0  0
   38.4950   28.0500   41.9500 C   0  0  0  0  0  0  0  0  0  0  0  0
   36.8440   25.1780   41.3850 H   0  0  0  0  0  0  0  0  0  0  0  0
   38.4210   24.3920   43.0250 H   0  0  0  0  0  0  0  0  0  0  0  0
   40.0990   25.9690   44.0190 H   0  0  0  0  0  0  0  0  0  0  0  0
   40.1510   28.3610   43.3200 H   0  0  0  0  0  0  0  0  0  0  0  0
   35.4520   27.4720   38.3090 C   0  0  0  0  0  0  0  0  0  0  0  0
   36.4510   27.0020   39.1900 C   0  0  0  0  0  0  0  0  0  0  0  0
   36.6040   27.5960   40.4220 C   0  0  0  0  0  0  0  0  0  0  0  0
   35.7590   28.6160   40.7030 N   0  0  0  0  0  0  0  0  0  0  0  0
   34.8020   29.0830   39.8830 C   0  0  0  0  0  0  0  0  0  0  0  0
   34.6570   28.4840   38.6580 N   0  0  0  0  0  0  0  0  0  0  0  0
   35.3720   26.9650   37.3400 H   0  0  0  0  0  0  0  0  0  0  0  0
   37.1190   26.1900   38.9640 H   0  0  0  0  0  0  0  0  0  0  0  0
   34.1750   29.9070   40.1980 H   0  0  0  0  0  0  0  0  0  0  0  0
   39.3730   30.3200   40.9660 C   0  0  0  0  0  0  0  0  0  0  0  0
   40.5940   30.1040   40.7820 O   0  0  0  0  0  0  0  0  0  0  0  0
   38.4450   29.3840   41.4840 N   0  0  0  0  0  0  0  0  0  0  0  0
   37.4260   29.5790   41.6140 H   0  0  0  0  0  0  0  0  0  0  0  0
   38.9010   31.6520   40.6100 C   0  0  0  0  0  0  0  0  0  0  0  0
   37.7600   31.7420   39.8410 C   0  0  0  0  0  0  0  0  0  0  0  0
   37.1850   30.8790   39.4810 H   0  0  0  0  0  0  0  0  0  0  0  0
   37.2400   32.9850   39.4540 C   0  0  0  0  0  3  0  0  0  0  0  0
   37.8380   34.1610   39.8200 C   0  0  0  0  0  0  0  0  0  0  0  0
   37.4130   35.0930   39.5060 H   0  0  0  0  0  0  0  0  0  0  0  0
   38.9780   34.0770   40.5870 C   0  0  0  0  0  0  0  0  0  0  0  0
   39.4980   34.9700   40.9090 H   0  0  0  0  0  0  0  0  0  0  0  0
   39.4770   32.8520   40.9600 C   0  0  0  0  0  3  0  0  0  0  0  0
  1  2  2  0  0  0  0
  1  6  1  0  0  0  0
  2  3  1  0  0  0  0
  3  8  1  0  0  0  0
  3  4  2  0  0  0  0
  4  9  1  0  0  0  0
  5  4  1  0  0  0  0
  5 10  1  0  0  0  0
  6  5  2  0  0  0  0
  7  2  1  0  0  0  0
 11 16  2  0  0  0  0
 11 12  1  0  0  0  0
 12 13  2  0  0  0  0
 13 14  1  0  0  0  0
 13  1  1  0  0  0  0
 15 19  1  0  0  0  0
 15 14  2  0  0  0  0
 16 15  1  0  0  0  0
 17 11  1  0  0  0  0
 18 12  1  0  0  0  0
 20 22  1  0  0  0  0
 21 20  2  0  0  0  0
 22 23  1  0  0  0  0
 22  6  1  0  0  0  0
 24 32  1  0  0  0  0
 24 20  1  0  0  0  0
 25 24  2  0  0  0  0
 26 25  1  0  0  0  0
 27 28  2  0  0  0  0
 27 25  1  0  0  0  0
 28 30  1  0  0  0  0
 29 28  1  0  0  0  0
 30 31  1  0  0  0  0
 30 32  2  0  0  0  0
M  END
>  <minimizedAffinity>
-5.19678688

$$$$

 OpenBabel03242517013D

 32 34  0  0  0  0  0  0  0  0999 V2000
   36.8260   26.1360   39.8200 C   0  0  0  0  0  0  0  0  0  0  0  0
   36.5620   24.7660   39.8060 C   0  0  0  0  0  0  0  0  0  0  0  0
   36.6120   24.0760   41.0040 C   0  0  0  0  0  0  0  0  0  0  0  0
   36.9190   24.7560   42.1730 C   0  0  0  0  0  0  0  0  0  0  0  0
   37.1800   26.0920   42.2120 C   0  0  0  0  0  0  0  0  0  0  0  0
   37.1210   26.7620   40.9760 C   0  0  0  0  0  0  0  0  0  0  0  0
   36.3260   24.2540   38.8850 H   0  0  0  0  0  0  0  0  0  0  0  0
   36.4020   23.0170   40.9480 H   0  0  0  0  0  0  0  0  0  0  0  0
   36.9500   24.1840   43.1000 H   0  0  0  0  0  0  0  0  0  0  0  0
   37.4200   26.6320   43.1230 H   0  0  0  0  0  0  0  0  0  0  0  0
   35.6540   27.7530   36.6080 C   0  0  0  0  0  0  0  0  0  0  0  0
   35.5930   27.0960   37.8560 C   0  0  0  0  0  0  0  0  0  0  0  0
   36.7570   26.8080   38.5290 C   0  0  0  0  0  0  0  0  0  0  0  0
   37.9070   27.1880   37.9250 N   0  0  0  0  0  0  0  0  0  0  0  0
   37.9930   27.8120   36.7390 C   0  0  0  0  0  0  0  0  0  0  0  0
   36.8280   28.0960   36.0750 N   0  0  0  0  0  0  0  0  0  0  0  0
   34.6980   27.9600   36.1120 H   0  0  0  0  0  0  0  0  0  0  0  0
   34.6760   26.7970   38.3340 H   0  0  0  0  0  0  0  0  0  0  0  0
   38.9630   28.0760   36.3360 H   0  0  0  0  0  0  0  0  0  0  0  0
   36.5960   29.3280   40.7980 C   0  0  0  0  0  0  0  0  0  0  0  0
   35.3430   29.3700   40.8090 O   0  0  0  0  0  0  0  0  0  0  0  0
   37.3760   28.1490   40.8820 N   0  0  0  0  0  0  0  0  0  0  0  0
   38.4220   28.1380   40.8880 H   0  0  0  0  0  0  0  0  0  0  0  0
   37.2760   30.6130   40.6890 C   0  0  0  0  0  0  0  0  0  0  0  0
   38.4890   30.7520   41.3300 C   0  0  0  0  0  0  0  0  0  0  0  0
   38.9750   29.9600   41.9160 H   0  0  0  0  0  0  0  0  0  0  0  0
   39.2070   31.9540   41.2750 C   0  0  0  0  0  3  0  0  0  0  0  0
   38.7390   33.0410   40.5850 C   0  0  0  0  0  0  0  0  0  0  0  0
   39.3140   33.9450   40.5650 H   0  0  0  0  0  0  0  0  0  0  0  0
   37.5280   32.9090   39.9440 C   0  0  0  0  0  0  0  0  0  0  0  0
   37.1040   33.7300   39.3820 H   0  0  0  0  0  0  0  0  0  0  0  0
   36.8350   31.7230   40.0050 C   0  0  0  0  0  3  0  0  0  0  0  0
  1  6  1  0  0  0  0
  2  1  2  0  0  0  0
  2  3  1  0  0  0  0
  3  4  2  0  0  0  0
  4  5  1  0  0  0  0
  4  9  1  0  0  0  0
  5 10  1  0  0  0  0
  6  5  2  0  0  0  0
  7  2  1  0  0  0  0
  8  3  1  0  0  0  0
 11 12  1  0  0  0  0
 12 18  1  0  0  0  0
 12 13  2  0  0  0  0
 13  1  1  0  0  0  0
 14 13  1  0  0  0  0
 15 14  2  0  0  0  0
 16 11  2  0  0  0  0
 16 15  1  0  0  0  0
 17 11  1  0  0  0  0
 19 15  1  0  0  0  0
 20 21  2  0  0  0  0
 20 22  1  0  0  0  0
 22 23  1  0  0  0  0
 22  6  1  0  0  0  0
 24 20  1  0  0  0  0
 24 25  1  0  0  0  0
 25 26  1  0  0  0  0
 27 25  2  0  0  0  0
 28 27  1  0  0  0  0
 29 28  1  0  0  0  0
 30 32  1  0  0  0  0
 30 28  2  0  0  0  0
 31 30  1  0  0  0  0
 32 24  2  0  0  0  0
M  END
>  <minimizedAffinity>
-5.18337059

$$$$

 OpenBabel03242517013D

 32 34  0  0  0  0  0  0  0  0999 V2000
   39.2030   31.5870   40.6560 C   0  0  0  0  0  0  0  0  0  0  0  0
   39.5790   32.9250   40.5280 C   0  0  0  0  0  0  0  0  0  0  0  0
   38.6540   33.8190   40.0200 C   0  0  0  0  0  0  0  0  0  0  0  0
   37.3940   33.3690   39.6570 C   0  0  0  0  0  0  0  0  0  0  0  0
   37.0050   32.0690   39.7720 C   0  0  0  0  0  0  0  0  0  0  0  0
   37.9700   31.1870   40.2920 C   0  0  0  0  0  0  0  0  0  0  0  0
   40.5650   33.2560   40.8160 H   0  0  0  0  0  0  0  0  0  0  0  0
   38.9860   34.8460   39.9370 H   0  0  0  0  0  0  0  0  0  0  0  0
   36.6890   34.0990   39.2600 H   0  0  0  0  0  0  0  0  0  0  0  0
   36.0200   31.7080   39.4900 H   0  0  0  0  0  0  0  0  0  0  0  0
   41.7190   29.8470   42.8820 C   0  0  0  0  0  0  0  0  0  0  0  0
   40.7360   30.7730   42.4700 C   0  0  0  0  0  0  0  0  0  0  0  0
   40.2180   30.6930   41.1980 C   0  0  0  0  0  0  0  0  0  0  0  0
   40.7050   29.7030   40.4150 N   0  0  0  0  0  0  0  0  0  0  0  0
   41.6400   28.8100   40.7810 C   0  0  0  0  0  0  0  0  0  0  0  0
   42.1500   28.8960   42.0510 N   0  0  0  0  0  0  0  0  0  0  0  0
   42.0990   29.9540   43.9050 H   0  0  0  0  0  0  0  0  0  0  0  0
   40.3500   31.5590   43.0960 H   0  0  0  0  0  0  0  0  0  0  0  0
   41.9680   28.0520   40.0810 H   0  0  0  0  0  0  0  0  0  0  0  0
   36.5380   29.0240   40.6940 C   0  0  0  0  0  0  0  0  0  0  0  0
   35.3690   29.4650   40.8030 O   0  0  0  0  0  0  0  0  0  0  0  0
   37.6910   29.8110   40.4560 N   0  0  0  0  0  0  0  0  0  0  0  0
   38.6560   29.4200   40.3510 H   0  0  0  0  0  0  0  0  0  0  0  0
   36.6890   27.5800   40.8270 C   0  0  0  0  0  0  0  0  0  0  0  0
   36.9920   27.0800   42.0750 C   0  0  0  0  0  0  0  0  0  0  0  0
   37.1250   27.6970   42.9740 H   0  0  0  0  0  0  0  0  0  0  0  0
   37.1550   25.7040   42.2880 C   0  0  0  0  0  3  0  0  0  0  0  0
   37.0220   24.7990   41.2700 C   0  0  0  0  0  0  0  0  0  0  0  0
   37.1540   23.7530   41.4690 H   0  0  0  0  0  0  0  0  0  0  0  0
   36.7210   25.2910   40.0200 C   0  0  0  0  0  0  0  0  0  0  0  0
   36.6030   24.6270   39.1740 H   0  0  0  0  0  0  0  0  0  0  0  0
   36.5630   26.6430   39.8260 C   0  0  0  0  0  3  0  0  0  0  0  0
  1 13  1  0  0  0  0
  2  1  1  0  0  0  0
  2  7  1  0  0  0  0
  3  2  2  0  0  0  0
  4  5  2  0  0  0  0
  4  3  1  0  0  0  0
  5  6  1  0  0  0  0
  6 22  1  0  0  0  0
  6  1  2  0  0  0  0
  8  3  1  0  0  0  0
  9  4  1  0  0  0  0
 10  5  1  0  0  0  0
 11 17  1  0  0  0  0
 12 11  1  0  0  0  0
 12 18  1  0  0  0  0
 13 12  2  0  0  0  0
 14 15  2  0  0  0  0
 14 13  1  0  0  0  0
 15 16  1  0  0  0  0
 16 11  2  0  0  0  0
 19 15  1  0  0  0  0
 20 21  2  0  0  0  0
 20 24  1  0  0  0  0
 22 20  1  0  0  0  0
 23 22  1  0  0  0  0
 24 25  1  0  0  0  0
 25 27  2  0  0  0  0
 25 26  1  0  0  0  0
 28 29  1  0  0  0  0
 28 27  1  0  0  0  0
 30 28  2  0  0  0  0
 31 30  1  0  0  0  0
 32 30  1  0  0  0  0
 32 24  2  0  0  0  0
M  END
>  <minimizedAffinity>
-5.17542887

$$$$
