
 OpenBabel03252508503D

 28 30  0  0  0  0  0  0  0  0999 V2000
   45.9500   34.1920   41.0410 C   0  0  0  0  0  0  0  0  0  0  0  0
   46.5320   34.8050   42.1450 C   0  0  0  0  0  0  0  0  0  0  0  0
   47.8810   35.1600   42.0100 C   0  0  0  0  0  0  0  0  0  0  0  0
   48.5280   34.8920   40.8390 N   0  0  0  0  0  0  0  0  0  0  0  0
   47.9140   34.3030   39.8170 C   0  0  0  0  0  0  0  0  0  0  0  0
   46.6220   33.9470   39.9060 N   0  0  0  0  0  0  0  0  0  0  0  0
   48.3520   35.6370   42.8600 H   0  0  0  0  0  0  0  0  0  0  0  0
   48.4820   34.1170   38.9110 H   0  0  0  0  0  0  0  0  0  0  0  0
   45.7560   35.0440   43.3430 C   0  0  0  0  0  0  0  0  0  0  0  0
   45.0820   36.2290   43.5760 C   0  0  0  0  0  0  0  0  0  0  0  0
   44.4940   36.0210   44.8100 C   0  0  0  0  0  0  0  0  0  0  0  0
   44.7900   34.7990   45.2900 N   0  0  0  0  0  0  0  0  0  0  0  0
   45.5560   34.2250   44.3850 N   0  0  0  0  0  0  0  0  0  0  0  0
   44.9950   37.1330   42.9830 H   0  0  0  0  0  0  0  0  0  0  0  0
   43.8750   36.7460   45.3250 H   0  0  0  0  0  0  0  0  0  0  0  0
   44.4490   34.4310   46.2110 H   0  0  0  0  0  0  0  0  0  0  0  0
   44.6200   33.8250   41.1310 O   0  0  0  0  0  0  0  0  0  0  0  0
   43.5360   34.4970   40.6490 C   0  0  0  0  0  0  0  0  0  0  0  0
   43.3510   35.7680   40.6400 O   0  0  0  0  0  0  0  0  0  0  0  0
   42.3570   33.8170   40.0390 C   0  0  0  0  0  0  0  0  0  0  0  0
   41.2230   33.4660   40.7720 C   0  0  0  0  0  0  0  0  0  0  0  0
   41.2190   33.7120   41.8380 H   0  0  0  0  0  0  0  0  0  0  0  0
   40.0990   32.8390   40.2920 C   0  0  0  0  0  3  0  0  0  0  0  0
   40.1090   32.5320   38.9490 C   0  0  0  0  0  0  0  0  0  0  0  0
   39.2540   32.0380   38.5100 H   0  0  0  0  0  0  0  0  0  0  0  0
   41.1830   32.8390   38.1460 C   0  0  0  0  0  0  0  0  0  0  0  0
   41.1770   32.5930   37.0940 H   0  0  0  0  0  0  0  0  0  0  0  0
   42.2670   33.4670   38.7140 C   0  0  0  0  0  3  0  0  0  0  0  0
  1 17  1  0  0  0  0
  1  2  1  0  0  0  0
  2  9  1  0  0  0  0
  3  2  2  0  0  0  0
  3  7  1  0  0  0  0
  4  3  1  0  0  0  0
  5  6  1  0  0  0  0
  5  4  2  0  0  0  0
  6  1  2  0  0  0  0
  8  5  1  0  0  0  0
  9 10  1  0  0  0  0
  9 13  2  0  0  0  0
 10 11  2  0  0  0  0
 11 12  1  0  0  0  0
 11 15  1  0  0  0  0
 12 16  1  0  0  0  0
 13 12  1  0  0  0  0
 14 10  1  0  0  0  0
 18 17  1  0  0  0  0
 19 18  2  0  0  0  0
 20 18  1  0  0  0  0
 20 21  1  0  0  0  0
 21 22  1  0  0  0  0
 23 21  2  0  0  0  0
 24 23  1  0  0  0  0
 25 24  1  0  0  0  0
 26 28  1  0  0  0  0
 26 24  2  0  0  0  0
 27 26  1  0  0  0  0
 28 20  2  0  0  0  0
M  END
>  <minimizedAffinity>
-5.28424168

>  <minimizedRMSD>
0.714749217

$$$$
