
 OpenBabel03252508513D

 28 30  0  0  0  0  0  0  0  0999 V2000
   45.9680   34.1750   41.0500 C   0  0  0  0  0  0  0  0  0  0  0  0
   46.5400   34.8090   42.1480 C   0  0  0  0  0  0  0  0  0  0  0  0
   47.8820   35.1880   42.0080 C   0  0  0  0  0  0  0  0  0  0  0  0
   48.5320   34.9230   40.8380 N   0  0  0  0  0  0  0  0  0  0  0  0
   47.9290   34.3130   39.8230 C   0  0  0  0  0  0  0  0  0  0  0  0
   46.6440   33.9340   39.9160 N   0  0  0  0  0  0  0  0  0  0  0  0
   48.3450   35.6830   42.8520 H   0  0  0  0  0  0  0  0  0  0  0  0
   48.4990   34.1300   38.9180 H   0  0  0  0  0  0  0  0  0  0  0  0
   45.7610   35.0440   43.3450 C   0  0  0  0  0  0  0  0  0  0  0  0
   45.0640   36.2180   43.5670 C   0  0  0  0  0  0  0  0  0  0  0  0
   44.4820   36.0090   44.8040 C   0  0  0  0  0  0  0  0  0  0  0  0
   44.8030   34.7980   45.2950 N   0  0  0  0  0  0  0  0  0  0  0  0
   45.5780   34.2310   44.3940 N   0  0  0  0  0  0  0  0  0  0  0  0
   44.9590   37.1140   42.9660 H   0  0  0  0  0  0  0  0  0  0  0  0
   43.8500   36.7270   45.3130 H   0  0  0  0  0  0  0  0  0  0  0  0
   44.4700   34.4320   46.2190 H   0  0  0  0  0  0  0  0  0  0  0  0
   44.6460   33.7840   41.1450 O   0  0  0  0  0  0  0  0  0  0  0  0
   43.5510   34.4170   40.6360 C   0  0  0  0  0  0  0  0  0  0  0  0
   43.3440   35.6840   40.5780 O   0  0  0  0  0  0  0  0  0  0  0  0
   42.3870   33.6930   40.0500 C   0  0  0  0  0  0  0  0  0  0  0  0
   41.5430   32.8780   40.8070 C   0  0  0  0  0  0  0  0  0  0  0  0
   41.7640   32.7830   41.8740 H   0  0  0  0  0  0  0  0  0  0  0  0
   40.4550   32.1770   40.3500 C   0  0  0  0  0  3  0  0  0  0  0  0
   40.1820   32.3010   39.0060 C   0  0  0  0  0  0  0  0  0  0  0  0
   39.3370   31.7740   38.5830 H   0  0  0  0  0  0  0  0  0  0  0  0
   40.9560   33.0800   38.1790 C   0  0  0  0  0  0  0  0  0  0  0  0
   40.7320   33.1680   37.1270 H   0  0  0  0  0  0  0  0  0  0  0  0
   42.0290   33.7480   38.7250 C   0  0  0  0  0  3  0  0  0  0  0  0
  1 17  1  0  0  0  0
  1  2  1  0  0  0  0
  2  9  1  0  0  0  0
  3  2  2  0  0  0  0
  3  7  1  0  0  0  0
  4  3  1  0  0  0  0
  5  6  1  0  0  0  0
  5  4  2  0  0  0  0
  6  1  2  0  0  0  0
  8  5  1  0  0  0  0
  9 10  1  0  0  0  0
  9 13  2  0  0  0  0
 10 11  2  0  0  0  0
 11 12  1  0  0  0  0
 11 15  1  0  0  0  0
 12 16  1  0  0  0  0
 13 12  1  0  0  0  0
 14 10  1  0  0  0  0
 18 17  1  0  0  0  0
 19 18  2  0  0  0  0
 20 18  1  0  0  0  0
 20 21  1  0  0  0  0
 21 22  1  0  0  0  0
 23 21  2  0  0  0  0
 24 23  1  0  0  0  0
 25 24  1  0  0  0  0
 26 28  1  0  0  0  0
 26 24  2  0  0  0  0
 27 26  1  0  0  0  0
 28 20  2  0  0  0  0
M  END
>  <minimizedAffinity>
-5.25531006

>  <minimizedRMSD>
0.659780562

$$$$
