
 OpenBabel03252504003D

 34 37  0  0  0  0  0  0  0  0999 V2000
   46.8280   34.9470   42.6580 C   0  0  0  0  0  0  0  0  0  0  0  0
   45.9060   36.0020   42.6090 C   0  0  0  0  0  0  0  0  0  0  0  0
   44.9240   36.0360   43.5850 C   0  0  0  0  0  0  0  0  0  0  0  0
   44.9000   35.0650   44.5240 N   0  0  0  0  0  0  0  0  0  0  0  0
   45.8110   34.0610   44.5350 C   0  0  0  0  0  0  0  0  0  0  0  0
   46.7710   34.0000   43.6090 N   0  0  0  0  0  0  0  0  0  0  0  0
   45.9330   36.7790   41.8500 H   0  0  0  0  0  0  0  0  0  0  0  0
   44.1980   36.8510   43.5600 H   0  0  0  0  0  0  0  0  0  0  0  0
   46.0360   31.7080   45.1640 C   0  0  0  0  0  0  0  0  0  0  0  0
   45.7720   33.0170   45.5630 C   0  0  0  0  0  0  0  0  0  0  0  0
   45.4880   33.2780   46.8880 C   0  0  0  0  0  0  0  0  0  0  0  0
   45.4750   32.2280   47.7910 C   0  0  0  0  0  0  0  0  0  0  0  0
   45.2380   32.1790   49.1140 N   0  0  0  0  0  0  0  0  0  0  0  0
   45.3410   30.9070   49.5610 C   0  0  0  0  0  0  0  0  0  0  0  0
   45.6580   30.0900   48.4830 C   0  0  0  0  0  0  0  0  0  0  0  0
   45.7440   30.9110   47.3760 C   0  0  0  0  0  0  0  0  0  0  0  0
   46.0230   30.6640   46.0590 C   0  0  0  0  0  0  0  0  0  0  0  0
   46.2610   31.4830   44.1280 H   0  0  0  0  0  0  0  0  0  0  0  0
   45.2870   34.2900   47.1780 H   0  0  0  0  0  0  0  0  0  0  0  0
   45.0060   33.0150   49.7110 H   0  0  0  0  0  0  0  0  0  0  0  0
   45.1930   30.6100   50.5960 H   0  0  0  0  0  0  0  0  0  0  0  0
   45.8080   29.0080   48.5290 H   0  0  0  0  0  0  0  0  0  0  0  0
   46.2250   29.6510   45.7670 H   0  0  0  0  0  0  0  0  0  0  0  0
   47.8200   34.9710   41.6180 C   0  0  0  0  0  0  0  0  0  0  0  0
   48.9850   35.4530   41.7100 O   0  0  0  0  0  0  0  0  0  0  0  0
   47.5550   34.4100   40.3010 C   0  0  0  0  0  0  0  0  0  0  0  0
   46.5050   33.5650   40.0020 C   0  0  0  0  0  0  0  0  0  0  0  0
   45.8190   33.2970   40.8150 H   0  0  0  0  0  0  0  0  0  0  0  0
   46.2970   33.0600   38.7390 C   0  0  0  0  0  0  0  0  0  0  0  0
   47.1670   33.4100   37.7340 C   0  0  0  0  0  0  0  0  0  0  0  0
   47.0310   33.0270   36.7230 H   0  0  0  0  0  0  0  0  0  0  0  0
   48.2310   34.2440   37.9570 C   0  0  0  0  0  0  0  0  0  0  0  0
   48.9530   34.5530   37.1920 H   0  0  0  0  0  0  0  0  0  0  0  0
   48.4040   34.7310   39.2470 C   0  0  0  0  0  0  0  0  0  0  0  0
  1  6  1  0  0  0  0
  2  1  2  0  0  0  0
  2  3  1  0  0  0  0
  3  4  2  0  0  0  0
  4  5  1  0  0  0  0
  5 10  1  0  0  0  0
  6  5  2  0  0  0  0
  7  2  1  0  0  0  0
  8  3  1  0  0  0  0
  9 10  2  0  0  0  0
  9 17  1  0  0  0  0
 10 11  1  0  0  0  0
 11 19  1  0  0  0  0
 11 12  2  0  0  0  0
 12 13  1  0  0  0  0
 13 14  1  0  0  0  0
 13 20  1  0  0  0  0
 14 21  1  0  0  0  0
 15 22  1  0  0  0  0
 15 14  2  0  0  0  0
 16 12  1  0  0  0  0
 16 15  1  0  0  0  0
 17 16  2  0  0  0  0
 18  9  1  0  0  0  0
 23 17  1  0  0  0  0
 24 25  2  0  0  0  0
 24  1  1  0  0  0  0
 26 24  1  0  0  0  0
 27 26  1  0  0  0  0
 27 28  1  0  0  0  0
 29 27  2  0  0  0  0
 30 32  2  0  0  0  0
 30 29  1  0  0  0  0
 31 30  1  0  0  0  0
 32 34  1  0  0  0  0
 33 32  1  0  0  0  0
 34 26  2  0  0  0  0
M  END
>  <minimizedAffinity>
-6.5362134

>  <minimizedRMSD>
0.757678211

$$$$
