
 OpenBabel03242520013D

 30 32  0  0  1  0  0  0  0  0999 V2000
   39.1890   30.1720   42.5570 Br  0  0  0  0  0  0  0  0  0  0  0  0
   37.7880   29.8820   41.3040 C   0  0  0  0  0  0  0  0  0  0  0  0
   37.5530   30.7300   40.2390 C   0  0  0  0  0  0  0  0  0  0  0  0
   36.4920   30.4440   39.3760 C   0  0  0  0  0  0  0  0  0  0  0  0
   35.6770   29.3430   39.5600 C   0  0  0  0  0  0  0  0  0  0  0  0
   35.9200   28.4860   40.6420 C   0  0  0  0  0  0  0  0  0  0  0  0
   36.9650   28.8030   41.4570 C   0  0  0  0  0  0  0  0  0  0  0  0
   36.3470   31.1250   38.5680 H   0  0  0  0  0  0  0  0  0  0  0  0
   34.8860   29.2040   38.8430 H   0  0  0  0  0  0  0  0  0  0  0  0
   35.2660   27.6290   40.7680 H   0  0  0  0  0  0  0  0  0  0  0  0
   40.4220   32.9720   39.2380 C   0  0  0  0  0  0  0  0  0  0  0  0
   39.5940   31.8420   39.3570 C   0  0  0  0  0  0  0  0  0  0  0  0
   38.4370   31.8770   40.0920 C   0  0  0  0  0  0  0  0  0  0  0  0
   38.1880   33.0690   40.6690 N   0  0  0  0  0  0  0  0  0  0  0  0
   38.9580   34.1520   40.5690 C   0  0  0  0  0  0  0  0  0  0  0  0
   40.0690   34.1110   39.8600 N   0  0  0  0  0  0  0  0  0  0  0  0
   41.3040   32.8440   38.6420 H   0  0  0  0  0  0  0  0  0  0  0  0
   39.8750   30.9270   38.8580 H   0  0  0  0  0  0  0  0  0  0  0  0
   38.6450   35.0570   41.0820 H   0  0  0  0  0  0  0  0  0  0  0  0
   37.2090   27.9000   42.5310 C   0  0  1  0  0  3  0  0  0  0  0  0
   36.5970   28.0150   43.6790 O   0  0  0  0  0  1  0  0  0  0  0  0
   38.0580   26.7350   42.7210 C   0  0  0  0  0  0  0  0  0  0  0  0
   37.8140   25.5300   42.0410 C   0  0  0  0  0  0  0  0  0  0  0  0
   36.9370   25.4010   41.3840 H   0  0  0  0  0  0  0  0  0  0  0  0
   38.5830   24.3910   42.1220 C   0  0  0  0  0  3  0  0  0  0  0  0
   39.6860   24.4130   42.9310 C   0  0  0  0  0  0  0  0  0  0  0  0
   40.3590   23.5890   43.0730 H   0  0  0  0  0  0  0  0  0  0  0  0
   39.9910   25.5530   43.6290 C   0  0  0  0  0  0  0  0  0  0  0  0
   40.8660   25.6260   44.2940 H   0  0  0  0  0  0  0  0  0  0  0  0
   39.1810   26.6510   43.5020 C   0  0  0  0  0  3  0  0  0  0  0  0
  2  7  1  0  0  0  0
  2  1  1  0  0  0  0
  3  2  2  0  0  0  0
  4  5  2  0  0  0  0
  4  3  1  0  0  0  0
  5  6  1  0  0  0  0
  6 10  1  0  0  0  0
  6  7  2  0  0  0  0
  7 20  1  0  0  0  0
  8  4  1  0  0  0  0
  9  5  1  0  0  0  0
 11 12  2  0  0  0  0
 11 16  1  0  0  0  0
 12 13  1  0  0  0  0
 13  3  1  0  0  0  0
 13 14  2  0  0  0  0
 15 14  1  0  0  0  0
 15 19  1  0  0  0  0
 16 15  2  0  0  0  0
 17 11  1  0  0  0  0
 18 12  1  0  0  0  0
 20 22  1  0  0  0  0
 20 21  1  6  0  0  0
 22 30  1  0  0  0  0
 23 25  1  0  0  0  0
 23 22  2  0  0  0  0
 24 23  1  0  0  0  0
 25 26  2  0  0  0  0
 26 27  1  0  0  0  0
 26 28  1  0  0  0  0
 28 29  1  0  0  0  0
 30 28  2  0  0  0  0
M  END
>  <minimizedAffinity>
-6.05283737

$$$$

 OpenBabel03242520013D

 30 32  0  0  1  0  0  0  0  0999 V2000
   36.3940   26.7540   38.6030 Br  0  0  0  0  0  0  0  0  0  0  0  0
   36.7250   26.8380   40.4740 C   0  0  0  0  0  0  0  0  0  0  0  0
   37.2690   25.7840   41.1820 C   0  0  0  0  0  0  0  0  0  0  0  0
   37.4660   25.9320   42.5580 C   0  0  0  0  0  0  0  0  0  0  0  0
   37.1320   27.0970   43.2230 C   0  0  0  0  0  0  0  0  0  0  0  0
   36.5800   28.1630   42.4990 C   0  0  0  0  0  0  0  0  0  0  0  0
   36.4070   27.9750   41.1600 C   0  0  0  0  0  0  0  0  0  0  0  0
   37.8880   25.0940   43.0640 H   0  0  0  0  0  0  0  0  0  0  0  0
   37.3200   27.1180   44.2820 H   0  0  0  0  0  0  0  0  0  0  0  0
   36.3230   29.0660   43.0410 H   0  0  0  0  0  0  0  0  0  0  0  0
   37.0930   22.3780   39.5620 C   0  0  0  0  0  0  0  0  0  0  0  0
   36.7350   23.5250   40.2920 C   0  0  0  0  0  0  0  0  0  0  0  0
   37.6000   24.5790   40.4360 C   0  0  0  0  0  0  0  0  0  0  0  0
   38.7880   24.4030   39.8240 N   0  0  0  0  0  0  0  0  0  0  0  0
   39.1460   23.3260   39.1270 C   0  0  0  0  0  0  0  0  0  0  0  0
   38.3100   22.3160   38.9940 N   0  0  0  0  0  0  0  0  0  0  0  0
   36.3470   21.6080   39.5080 H   0  0  0  0  0  0  0  0  0  0  0  0
   35.7590   23.5770   40.7490 H   0  0  0  0  0  0  0  0  0  0  0  0
   40.1360   23.3060   38.6800 H   0  0  0  0  0  0  0  0  0  0  0  0
   35.8740   29.0830   40.4420 C   0  0  1  0  0  3  0  0  0  0  0  0
   34.5970   29.1880   40.1880 O   0  0  0  0  0  1  0  0  0  0  0  0
   36.4320   30.2850   39.8440 C   0  0  0  0  0  0  0  0  0  0  0  0
   36.7540   31.4110   40.6210 C   0  0  0  0  0  0  0  0  0  0  0  0
   36.5410   31.4500   41.7030 H   0  0  0  0  0  0  0  0  0  0  0  0
   37.3240   32.5740   40.1540 C   0  0  0  0  0  3  0  0  0  0  0  0
   37.6100   32.6610   38.8190 C   0  0  0  0  0  0  0  0  0  0  0  0
   38.0540   33.5140   38.3410 H   0  0  0  0  0  0  0  0  0  0  0  0
   37.3240   31.6040   37.9940 C   0  0  0  0  0  0  0  0  0  0  0  0
   37.5330   31.6210   36.9120 H   0  0  0  0  0  0  0  0  0  0  0  0
   36.7560   30.4760   38.5260 C   0  0  0  0  0  3  0  0  0  0  0  0
  1  2  1  0  0  0  0
  2  7  2  0  0  0  0
  2  3  1  0  0  0  0
  3  4  2  0  0  0  0
  4  8  1  0  0  0  0
  4  5  1  0  0  0  0
  5  9  1  0  0  0  0
  6 10  1  0  0  0  0
  6  5  2  0  0  0  0
  7  6  1  0  0  0  0
 11 12  1  0  0  0  0
 12 13  2  0  0  0  0
 12 18  1  0  0  0  0
 13  3  1  0  0  0  0
 14 13  1  0  0  0  0
 15 14  2  0  0  0  0
 16 15  1  0  0  0  0
 16 11  2  0  0  0  0
 17 11  1  0  0  0  0
 19 15  1  0  0  0  0
 20 21  1  1  0  0  0
 20  7  1  0  0  0  0
 22 20  1  0  0  0  0
 22 23  1  0  0  0  0
 23 24  1  0  0  0  0
 25 23  2  0  0  0  0
 26 25  1  0  0  0  0
 27 26  1  0  0  0  0
 28 30  1  0  0  0  0
 28 26  2  0  0  0  0
 29 28  1  0  0  0  0
 30 22  2  0  0  0  0
M  END
>  <minimizedAffinity>
-5.67938232

$$$$

 OpenBabel03242520013D

 30 32  0  0  1  0  0  0  0  0999 V2000
   38.5310   28.3760   39.2520 Br  0  0  0  0  0  0  0  0  0  0  0  0
   37.9500   28.1810   41.0520 C   0  0  0  0  0  0  0  0  0  0  0  0
   37.8630   29.2470   41.9260 C   0  0  0  0  0  0  0  0  0  0  0  0
   37.4370   29.0070   43.2350 C   0  0  0  0  0  0  0  0  0  0  0  0
   37.1030   27.7390   43.6740 C   0  0  0  0  0  0  0  0  0  0  0  0
   37.1940   26.6620   42.7830 C   0  0  0  0  0  0  0  0  0  0  0  0
   37.6130   26.9420   41.5170 C   0  0  0  0  0  0  0  0  0  0  0  0
   37.3850   29.8580   43.8750 H   0  0  0  0  0  0  0  0  0  0  0  0
   36.7860   27.6530   44.6990 H   0  0  0  0  0  0  0  0  0  0  0  0
   36.9300   25.6750   43.1500 H   0  0  0  0  0  0  0  0  0  0  0  0
   37.7320   32.6540   40.3040 C   0  0  0  0  0  0  0  0  0  0  0  0
   37.3400   31.3920   40.7840 C   0  0  0  0  0  0  0  0  0  0  0  0
   38.2280   30.5600   41.4150 C   0  0  0  0  0  0  0  0  0  0  0  0
   39.4730   31.0650   41.5240 N   0  0  0  0  0  0  0  0  0  0  0  0
   39.8650   32.2580   41.0780 C   0  0  0  0  0  0  0  0  0  0  0  0
   39.0060   33.0520   40.4710 N   0  0  0  0  0  0  0  0  0  0  0  0
   36.9650   33.2300   39.8250 H   0  0  0  0  0  0  0  0  0  0  0  0
   36.3180   31.0710   40.6510 H   0  0  0  0  0  0  0  0  0  0  0  0
   40.9000   32.5500   41.2290 H   0  0  0  0  0  0  0  0  0  0  0  0
   37.6670   25.8350   40.6230 C   0  0  1  0  0  3  0  0  0  0  0  0
   38.7810   25.1970   40.3840 O   0  0  0  0  0  1  0  0  0  0  0  0
   36.6960   25.1290   39.8020 C   0  0  0  0  0  0  0  0  0  0  0  0
   36.1470   23.9000   40.2080 C   0  0  0  0  0  0  0  0  0  0  0  0
   36.4730   23.3950   41.1330 H   0  0  0  0  0  0  0  0  0  0  0  0
   35.1930   23.1810   39.5230 C   0  0  0  0  0  3  0  0  0  0  0  0
   34.7280   23.6880   38.3420 C   0  0  0  0  0  0  0  0  0  0  0  0
   33.9870   23.2180   37.7220 H   0  0  0  0  0  0  0  0  0  0  0  0
   35.2150   24.8820   37.8770 C   0  0  0  0  0  0  0  0  0  0  0  0
   34.8760   25.3350   36.9320 H   0  0  0  0  0  0  0  0  0  0  0  0
   36.1650   25.5460   38.6100 C   0  0  0  0  0  3  0  0  0  0  0  0
  1  2  1  0  0  0  0
  2  7  2  0  0  0  0
  2  3  1  0  0  0  0
  3  4  2  0  0  0  0
  4  5  1  0  0  0  0
  4  8  1  0  0  0  0
  5  9  1  0  0  0  0
  6 10  1  0  0  0  0
  6  5  2  0  0  0  0
  7  6  1  0  0  0  0
 11 16  2  0  0  0  0
 11 12  1  0  0  0  0
 12 13  2  0  0  0  0
 13 14  1  0  0  0  0
 13  3  1  0  0  0  0
 15 19  1  0  0  0  0
 15 14  2  0  0  0  0
 16 15  1  0  0  0  0
 17 11  1  0  0  0  0
 18 12  1  0  0  0  0
 20 21  1  1  0  0  0
 20  7  1  0  0  0  0
 22 23  1  0  0  0  0
 22 20  1  0  0  0  0
 23 24  1  0  0  0  0
 25 23  2  0  0  0  0
 26 25  1  0  0  0  0
 27 26  1  0  0  0  0
 28 26  2  0  0  0  0
 28 30  1  0  0  0  0
 29 28  1  0  0  0  0
 30 22  2  0  0  0  0
M  END
>  <minimizedAffinity>
-5.39401817

$$$$

 OpenBabel03242520013D

 30 32  0  0  1  0  0  0  0  0999 V2000
   36.5750   26.7050   39.4700 Br  0  0  0  0  0  0  0  0  0  0  0  0
   36.6410   28.5490   39.9280 C   0  0  0  0  0  0  0  0  0  0  0  0
   36.3980   29.5540   39.0120 C   0  0  0  0  0  0  0  0  0  0  0  0
   36.4800   30.8830   39.4380 C   0  0  0  0  0  0  0  0  0  0  0  0
   36.7970   31.2140   40.7420 C   0  0  0  0  0  0  0  0  0  0  0  0
   37.0420   30.1900   41.6670 C   0  0  0  0  0  0  0  0  0  0  0  0
   36.9500   28.9100   41.2090 C   0  0  0  0  0  0  0  0  0  0  0  0
   36.2860   31.6250   38.6980 H   0  0  0  0  0  0  0  0  0  0  0  0
   36.8360   32.2640   40.9760 H   0  0  0  0  0  0  0  0  0  0  0  0
   37.2910   30.4740   42.6840 H   0  0  0  0  0  0  0  0  0  0  0  0
   34.5150   28.5480   35.8980 C   0  0  0  0  0  0  0  0  0  0  0  0
   34.7890   28.9350   37.2220 C   0  0  0  0  0  0  0  0  0  0  0  0
   36.0720   29.1520   37.6520 C   0  0  0  0  0  0  0  0  0  0  0  0
   37.0100   28.9610   36.7030 N   0  0  0  0  0  0  0  0  0  0  0  0
   36.7730   28.5950   35.4450 C   0  0  0  0  0  0  0  0  0  0  0  0
   35.5360   28.3880   35.0380 N   0  0  0  0  0  0  0  0  0  0  0  0
   33.4800   28.4030   35.6590 H   0  0  0  0  0  0  0  0  0  0  0  0
   33.9710   29.0640   37.9140 H   0  0  0  0  0  0  0  0  0  0  0  0
   37.6190   28.4740   34.7730 H   0  0  0  0  0  0  0  0  0  0  0  0
   37.1730   27.8880   42.1750 C   0  0  1  0  0  3  0  0  0  0  0  0
   36.2070   27.4220   42.9190 O   0  0  0  0  0  1  0  0  0  0  0  0
   38.3290   27.1220   42.6120 C   0  0  0  0  0  0  0  0  0  0  0  0
   39.4470   27.7450   43.1920 C   0  0  0  0  0  0  0  0  0  0  0  0
   39.5180   28.8420   43.2830 H   0  0  0  0  0  0  0  0  0  0  0  0
   40.5660   27.1030   43.6740 C   0  0  0  0  0  3  0  0  0  0  0  0
   40.6130   25.7380   43.5900 C   0  0  0  0  0  0  0  0  0  0  0  0
   41.4290   25.1300   43.9310 H   0  0  0  0  0  0  0  0  0  0  0  0
   39.5600   25.0570   43.0350 C   0  0  0  0  0  0  0  0  0  0  0  0
   39.5450   23.9590   42.9430 H   0  0  0  0  0  0  0  0  0  0  0  0
   38.4770   25.7600   42.5750 C   0  0  0  0  0  3  0  0  0  0  0  0
  1  2  1  0  0  0  0
  2  7  1  0  0  0  0
  3  4  1  0  0  0  0
  3  2  2  0  0  0  0
  4  5  2  0  0  0  0
  5  9  1  0  0  0  0
  5  6  1  0  0  0  0
  6 10  1  0  0  0  0
  7  6  2  0  0  0  0
  7 20  1  0  0  0  0
  8  4  1  0  0  0  0
 11 12  1  0  0  0  0
 12 13  2  0  0  0  0
 12 18  1  0  0  0  0
 13  3  1  0  0  0  0
 14 13  1  0  0  0  0
 15 14  2  0  0  0  0
 16 15  1  0  0  0  0
 16 11  2  0  0  0  0
 17 11  1  0  0  0  0
 19 15  1  0  0  0  0
 20 22  1  0  0  0  0
 20 21  1  6  0  0  0
 22 23  1  0  0  0  0
 23 24  1  0  0  0  0
 23 25  2  0  0  0  0
 26 25  1  0  0  0  0
 26 27  1  0  0  0  0
 28 26  2  0  0  0  0
 29 28  1  0  0  0  0
 30 22  2  0  0  0  0
 30 28  1  0  0  0  0
M  END
>  <minimizedAffinity>
-5.36347437

$$$$

 OpenBabel03242520013D

 30 32  0  0  1  0  0  0  0  0999 V2000
   40.7710   30.3330   39.4860 Br  0  0  0  0  0  0  0  0  0  0  0  0
   39.4610   31.7060   39.6120 C   0  0  0  0  0  0  0  0  0  0  0  0
   39.7600   33.0420   39.4270 C   0  0  0  0  0  0  0  0  0  0  0  0
   38.7330   33.9820   39.5510 C   0  0  0  0  0  0  0  0  0  0  0  0
   37.4360   33.6120   39.8520 C   0  0  0  0  0  0  0  0  0  0  0  0
   37.1380   32.2550   40.0380 C   0  0  0  0  0  0  0  0  0  0  0  0
   38.1690   31.3730   39.9070 C   0  0  0  0  0  0  0  0  0  0  0  0
   39.0100   35.0000   39.4010 H   0  0  0  0  0  0  0  0  0  0  0  0
   36.7140   34.4060   39.9260 H   0  0  0  0  0  0  0  0  0  0  0  0
   36.1130   31.9880   40.2750 H   0  0  0  0  0  0  0  0  0  0  0  0
   43.4140   33.9420   39.7360 C   0  0  0  0  0  0  0  0  0  0  0  0
   42.0890   33.6200   40.0780 C   0  0  0  0  0  0  0  0  0  0  0  0
   41.1420   33.3790   39.1160 C   0  0  0  0  0  0  0  0  0  0  0  0
   41.6010   33.4800   37.8530 N   0  0  0  0  0  0  0  0  0  0  0  0
   42.8510   33.7820   37.5080 C   0  0  0  0  0  0  0  0  0  0  0  0
   43.7570   34.0140   38.4380 N   0  0  0  0  0  0  0  0  0  0  0  0
   44.0790   34.1140   40.5590 H   0  0  0  0  0  0  0  0  0  0  0  0
   41.8110   33.5620   41.1190 H   0  0  0  0  0  0  0  0  0  0  0  0
   43.0980   33.8320   36.4510 H   0  0  0  0  0  0  0  0  0  0  0  0
   37.8340   29.9990   40.0700 C   0  0  1  0  0  3  0  0  0  0  0  0
   37.6540   29.2090   39.0460 O   0  0  0  0  0  1  0  0  0  0  0  0
   37.6150   29.1230   41.2100 C   0  0  0  0  0  0  0  0  0  0  0  0
   37.2730   27.7700   41.0410 C   0  0  0  0  0  0  0  0  0  0  0  0
   37.1000   27.3350   40.0420 H   0  0  0  0  0  0  0  0  0  0  0  0
   37.0890   26.8560   42.0540 C   0  0  0  0  0  3  0  0  0  0  0  0
   37.2460   27.2810   43.3440 C   0  0  0  0  0  0  0  0  0  0  0  0
   37.1290   26.6610   44.2130 H   0  0  0  0  0  0  0  0  0  0  0  0
   37.5780   28.5880   43.5910 C   0  0  0  0  0  0  0  0  0  0  0  0
   37.7160   28.9840   44.6100 H   0  0  0  0  0  0  0  0  0  0  0  0
   37.7460   29.4460   42.5350 C   0  0  0  0  0  3  0  0  0  0  0  0
  1  2  1  0  0  0  0
  2  7  1  0  0  0  0
  3  4  1  0  0  0  0
  3  2  2  0  0  0  0
  4  5  2  0  0  0  0
  5  9  1  0  0  0  0
  5  6  1  0  0  0  0
  6 10  1  0  0  0  0
  7  6  2  0  0  0  0
  7 20  1  0  0  0  0
  8  4  1  0  0  0  0
 11 12  1  0  0  0  0
 11 17  1  0  0  0  0
 12 18  1  0  0  0  0
 13  3  1  0  0  0  0
 13 12  2  0  0  0  0
 14 13  1  0  0  0  0
 15 14  2  0  0  0  0
 15 16  1  0  0  0  0
 16 11  2  0  0  0  0
 19 15  1  0  0  0  0
 20 21  1  1  0  0  0
 20 22  1  0  0  0  0
 22 30  1  0  0  0  0
 23 22  2  0  0  0  0
 23 25  1  0  0  0  0
 24 23  1  0  0  0  0
 25 26  2  0  0  0  0
 26 28  1  0  0  0  0
 26 27  1  0  0  0  0
 28 29  1  0  0  0  0
 30 28  2  0  0  0  0
M  END
>  <minimizedAffinity>
-5.35357857

$$$$

 OpenBabel03242520013D

 30 32  0  0  1  0  0  0  0  0999 V2000
   40.2360   29.0770   41.8320 Br  0  0  0  0  0  0  0  0  0  0  0  0
   38.8110   30.1860   41.2340 C   0  0  0  0  0  0  0  0  0  0  0  0
   39.0220   31.3640   40.5450 C   0  0  0  0  0  0  0  0  0  0  0  0
   37.9140   32.1210   40.1550 C   0  0  0  0  0  0  0  0  0  0  0  0
   36.6210   31.7230   40.4400 C   0  0  0  0  0  0  0  0  0  0  0  0
   36.4120   30.5270   41.1390 C   0  0  0  0  0  0  0  0  0  0  0  0
   37.5220   29.8210   41.4990 C   0  0  0  0  0  0  0  0  0  0  0  0
   38.1230   33.0220   39.6260 H   0  0  0  0  0  0  0  0  0  0  0  0
   35.8320   32.3710   40.0990 H   0  0  0  0  0  0  0  0  0  0  0  0
   35.3890   30.2350   41.3540 H   0  0  0  0  0  0  0  0  0  0  0  0
   42.4560   32.9170   40.7860 C   0  0  0  0  0  0  0  0  0  0  0  0
   41.1240   32.5780   41.0830 C   0  0  0  0  0  0  0  0  0  0  0  0
   40.4020   31.7400   40.2730 C   0  0  0  0  0  0  0  0  0  0  0  0
   41.0830   31.2900   39.2000 N   0  0  0  0  0  0  0  0  0  0  0  0
   42.3440   31.5970   38.9010 C   0  0  0  0  0  0  0  0  0  0  0  0
   43.0320   32.4050   39.6840 N   0  0  0  0  0  0  0  0  0  0  0  0
   42.9340   33.5790   41.4800 H   0  0  0  0  0  0  0  0  0  0  0  0
   40.6590   32.9880   41.9670 H   0  0  0  0  0  0  0  0  0  0  0  0
   42.7810   31.1670   38.0040 H   0  0  0  0  0  0  0  0  0  0  0  0
   37.2820   28.5940   42.1810 C   0  0  1  0  0  3  0  0  0  0  0  0
   37.1980   28.5360   43.4830 O   0  0  0  0  0  1  0  0  0  0  0  0
   37.0730   27.2140   41.7720 C   0  0  0  0  0  0  0  0  0  0  0  0
   36.8560   26.8720   40.4270 C   0  0  0  0  0  0  0  0  0  0  0  0
   36.7770   27.6390   39.6370 H   0  0  0  0  0  0  0  0  0  0  0  0
   36.6930   25.5950   39.9380 C   0  0  0  0  0  3  0  0  0  0  0  0
   36.7410   24.5550   40.8250 C   0  0  0  0  0  0  0  0  0  0  0  0
   36.6270   23.5190   40.5620 H   0  0  0  0  0  0  0  0  0  0  0  0
   36.9470   24.8070   42.1560 C   0  0  0  0  0  0  0  0  0  0  0  0
   36.9950   24.0080   42.9130 H   0  0  0  0  0  0  0  0  0  0  0  0
   37.1020   26.1040   42.5740 C   0  0  0  0  0  3  0  0  0  0  0  0
  2  7  1  0  0  0  0
  2  1  1  0  0  0  0
  3  2  2  0  0  0  0
  4  5  2  0  0  0  0
  4  3  1  0  0  0  0
  5  6  1  0  0  0  0
  6 10  1  0  0  0  0
  6  7  2  0  0  0  0
  7 20  1  0  0  0  0
  8  4  1  0  0  0  0
  9  5  1  0  0  0  0
 11 12  1  0  0  0  0
 11 17  1  0  0  0  0
 12 18  1  0  0  0  0
 13  3  1  0  0  0  0
 13 12  2  0  0  0  0
 14 13  1  0  0  0  0
 15 14  2  0  0  0  0
 15 16  1  0  0  0  0
 16 11  2  0  0  0  0
 19 15  1  0  0  0  0
 20 21  1  6  0  0  0
 22 20  1  0  0  0  0
 22 30  1  0  0  0  0
 23 22  2  0  0  0  0
 24 23  1  0  0  0  0
 25 23  1  0  0  0  0
 25 26  2  0  0  0  0
 26 28  1  0  0  0  0
 27 26  1  0  0  0  0
 28 30  2  0  0  0  0
 28 29  1  0  0  0  0
M  END
>  <minimizedAffinity>
-5.31736898

$$$$

 OpenBabel03242520013D

 30 32  0  0  1  0  0  0  0  0999 V2000
   39.4070   27.6880   39.9360 Br  0  0  0  0  0  0  0  0  0  0  0  0
   38.2540   27.5230   41.4400 C   0  0  0  0  0  0  0  0  0  0  0  0
   37.5250   26.3790   41.6980 C   0  0  0  0  0  0  0  0  0  0  0  0
   36.6940   26.3530   42.8220 C   0  0  0  0  0  0  0  0  0  0  0  0
   36.5840   27.4360   43.6740 C   0  0  0  0  0  0  0  0  0  0  0  0
   37.3270   28.5940   43.4080 C   0  0  0  0  0  0  0  0  0  0  0  0
   38.1240   28.5750   42.3020 C   0  0  0  0  0  0  0  0  0  0  0  0
   36.1500   25.4510   42.9820 H   0  0  0  0  0  0  0  0  0  0  0  0
   35.9200   27.3220   44.5130 H   0  0  0  0  0  0  0  0  0  0  0  0
   37.2230   29.4320   44.0890 H   0  0  0  0  0  0  0  0  0  0  0  0
   38.6440   23.1660   40.0610 C   0  0  0  0  0  0  0  0  0  0  0  0
   38.5290   24.2200   40.9850 C   0  0  0  0  0  0  0  0  0  0  0  0
   37.6730   25.2690   40.7680 C   0  0  0  0  0  0  0  0  0  0  0  0
   36.9790   25.1840   39.6160 N   0  0  0  0  0  0  0  0  0  0  0  0
   37.0720   24.1950   38.7290 C   0  0  0  0  0  0  0  0  0  0  0  0
   37.8970   23.1890   38.9440 N   0  0  0  0  0  0  0  0  0  0  0  0
   39.3400   22.3920   40.3210 H   0  0  0  0  0  0  0  0  0  0  0  0
   39.1270   24.2030   41.8830 H   0  0  0  0  0  0  0  0  0  0  0  0
   36.4550   24.2430   37.8360 H   0  0  0  0  0  0  0  0  0  0  0  0
   38.8910   29.7520   42.0710 C   0  0  1  0  0  3  0  0  0  0  0  0
   40.1030   29.8850   42.5370 O   0  0  0  0  0  1  0  0  0  0  0  0
   38.6660   31.0020   41.3630 C   0  0  0  0  0  0  0  0  0  0  0  0
   37.4750   31.2430   40.6580 C   0  0  0  0  0  0  0  0  0  0  0  0
   36.6900   30.4740   40.5640 H   0  0  0  0  0  0  0  0  0  0  0  0
   37.1540   32.4070   39.9970 C   0  0  0  0  0  3  0  0  0  0  0  0
   38.0610   33.4300   40.0140 C   0  0  0  0  0  0  0  0  0  0  0  0
   37.9230   34.3820   39.5350 H   0  0  0  0  0  0  0  0  0  0  0  0
   39.2490   33.2720   40.6790 C   0  0  0  0  0  0  0  0  0  0  0  0
   40.0150   34.0620   40.7250 H   0  0  0  0  0  0  0  0  0  0  0  0
   39.5040   32.0850   41.3180 C   0  0  0  0  0  3  0  0  0  0  0  0
  1  2  1  0  0  0  0
  2  3  2  0  0  0  0
  2  7  1  0  0  0  0
  3  4  1  0  0  0  0
  4  8  1  0  0  0  0
  4  5  2  0  0  0  0
  5  9  1  0  0  0  0
  6  5  1  0  0  0  0
  6 10  1  0  0  0  0
  7  6  2  0  0  0  0
 11 17  1  0  0  0  0
 11 12  1  0  0  0  0
 12 18  1  0  0  0  0
 13 12  2  0  0  0  0
 13  3  1  0  0  0  0
 14 13  1  0  0  0  0
 15 16  1  0  0  0  0
 15 14  2  0  0  0  0
 16 11  2  0  0  0  0
 19 15  1  0  0  0  0
 20  7  1  0  0  0  0
 20 21  1  6  0  0  0
 22 20  1  0  0  0  0
 23 22  2  0  0  0  0
 24 23  1  0  0  0  0
 25 26  2  0  0  0  0
 25 23  1  0  0  0  0
 26 28  1  0  0  0  0
 27 26  1  0  0  0  0
 28 29  1  0  0  0  0
 28 30  2  0  0  0  0
 30 22  1  0  0  0  0
M  END
>  <minimizedAffinity>
-5.23549318

$$$$

 OpenBabel03242520013D

 30 32  0  0  1  0  0  0  0  0999 V2000
   38.3700   29.0860   38.4580 Br  0  0  0  0  0  0  0  0  0  0  0  0
   38.8750   29.7190   40.1790 C   0  0  0  0  0  0  0  0  0  0  0  0
   39.9160   30.6070   40.3700 C   0  0  0  0  0  0  0  0  0  0  0  0
   40.2230   31.0090   41.6730 C   0  0  0  0  0  0  0  0  0  0  0  0
   39.5170   30.5430   42.7670 C   0  0  0  0  0  0  0  0  0  0  0  0
   38.4620   29.6430   42.5670 C   0  0  0  0  0  0  0  0  0  0  0  0
   38.1970   29.2790   41.2800 C   0  0  0  0  0  0  0  0  0  0  0  0
   41.0340   31.6940   41.7740 H   0  0  0  0  0  0  0  0  0  0  0  0
   39.8270   30.9090   43.7310 H   0  0  0  0  0  0  0  0  0  0  0  0
   37.9240   29.2890   43.4390 H   0  0  0  0  0  0  0  0  0  0  0  0
   41.0560   32.6500   37.4060 C   0  0  0  0  0  0  0  0  0  0  0  0
   40.3430   32.2430   38.5480 C   0  0  0  0  0  0  0  0  0  0  0  0
   40.6290   31.0640   39.1860 C   0  0  0  0  0  0  0  0  0  0  0  0
   41.6320   30.3620   38.6220 N   0  0  0  0  0  0  0  0  0  0  0  0
   42.3200   30.7290   37.5430 C   0  0  0  0  0  0  0  0  0  0  0  0
   42.0390   31.8640   36.9330 N   0  0  0  0  0  0  0  0  0  0  0  0
   40.7570   33.5870   36.9790 H   0  0  0  0  0  0  0  0  0  0  0  0
   39.5530   32.8720   38.9300 H   0  0  0  0  0  0  0  0  0  0  0  0
   43.1090   30.0730   37.1850 H   0  0  0  0  0  0  0  0  0  0  0  0
   37.1010   28.3880   41.1010 C   0  0  1  0  0  3  0  0  0  0  0  0
   35.8790   28.8230   40.9520 O   0  0  0  0  0  1  0  0  0  0  0  0
   36.9530   26.9440   41.0240 C   0  0  0  0  0  0  0  0  0  0  0  0
   37.1100   26.1280   42.1570 C   0  0  0  0  0  0  0  0  0  0  0  0
   37.4090   26.5420   43.1340 H   0  0  0  0  0  0  0  0  0  0  0  0
   36.9470   24.7610   42.1920 C   0  0  0  0  0  3  0  0  0  0  0  0
   36.6040   24.1220   41.0320 C   0  0  0  0  0  0  0  0  0  0  0  0
   36.4500   23.0630   40.9370 H   0  0  0  0  0  0  0  0  0  0  0  0
   36.4340   24.8490   39.8820 C   0  0  0  0  0  0  0  0  0  0  0  0
   36.1580   24.3860   38.9220 H   0  0  0  0  0  0  0  0  0  0  0  0
   36.6120   26.2080   39.9190 C   0  0  0  0  0  3  0  0  0  0  0  0
  1  2  1  0  0  0  0
  2  3  2  0  0  0  0
  2  7  1  0  0  0  0
  3  4  1  0  0  0  0
  4  8  1  0  0  0  0
  4  5  2  0  0  0  0
  5  9  1  0  0  0  0
  6  5  1  0  0  0  0
  6 10  1  0  0  0  0
  7  6  2  0  0  0  0
 11 12  1  0  0  0  0
 12 18  1  0  0  0  0
 12 13  2  0  0  0  0
 13  3  1  0  0  0  0
 14 13  1  0  0  0  0
 15 14  2  0  0  0  0
 16 11  2  0  0  0  0
 16 15  1  0  0  0  0
 17 11  1  0  0  0  0
 19 15  1  0  0  0  0
 20 21  1  6  0  0  0
 20  7  1  0  0  0  0
 22 20  1  0  0  0  0
 22 23  1  0  0  0  0
 23 25  2  0  0  0  0
 23 24  1  0  0  0  0
 26 25  1  0  0  0  0
 27 26  1  0  0  0  0
 28 30  1  0  0  0  0
 28 26  2  0  0  0  0
 29 28  1  0  0  0  0
 30 22  2  0  0  0  0
M  END
>  <minimizedAffinity>
-5.11661816

$$$$

 OpenBabel03242520013D

 30 32  0  0  1  0  0  0  0  0999 V2000
   37.5300   29.9990   40.1260 Br  0  0  0  0  0  0  0  0  0  0  0  0
   38.9190   29.4340   41.2960 C   0  0  0  0  0  0  0  0  0  0  0  0
   40.1040   30.1300   41.4360 C   0  0  0  0  0  0  0  0  0  0  0  0
   41.0740   29.6330   42.3120 C   0  0  0  0  0  0  0  0  0  0  0  0
   40.8780   28.4710   43.0350 C   0  0  0  0  0  0  0  0  0  0  0  0
   39.6730   27.7700   42.8890 C   0  0  0  0  0  0  0  0  0  0  0  0
   38.7560   28.2910   42.0260 C   0  0  0  0  0  0  0  0  0  0  0  0
   41.9720   30.2010   42.3880 H   0  0  0  0  0  0  0  0  0  0  0  0
   41.6810   28.1670   43.6840 H   0  0  0  0  0  0  0  0  0  0  0  0
   39.5420   26.8600   43.4650 H   0  0  0  0  0  0  0  0  0  0  0  0
   41.0470   32.5720   38.7140 C   0  0  0  0  0  0  0  0  0  0  0  0
   40.9160   31.3770   39.4450 C   0  0  0  0  0  0  0  0  0  0  0  0
   40.2620   31.3440   40.6490 C   0  0  0  0  0  0  0  0  0  0  0  0
   39.7750   32.5370   41.0440 N   0  0  0  0  0  0  0  0  0  0  0  0
   39.8860   33.6790   40.3670 C   0  0  0  0  0  0  0  0  0  0  0  0
   40.5170   33.7040   39.2100 N   0  0  0  0  0  0  0  0  0  0  0  0
   41.5750   32.4940   37.7850 H   0  0  0  0  0  0  0  0  0  0  0  0
   41.3400   30.4670   39.0490 H   0  0  0  0  0  0  0  0  0  0  0  0
   39.4480   34.5770   40.7940 H   0  0  0  0  0  0  0  0  0  0  0  0
   37.5290   27.5770   41.9190 C   0  0  1  0  0  3  0  0  0  0  0  0
   36.4390   27.9910   42.5070 O   0  0  0  0  0  1  0  0  0  0  0  0
   37.1030   26.3610   41.2450 C   0  0  0  0  0  0  0  0  0  0  0  0
   36.6550   26.3790   39.9130 C   0  0  0  0  0  0  0  0  0  0  0  0
   36.5520   27.3210   39.3470 H   0  0  0  0  0  0  0  0  0  0  0  0
   36.2730   25.2790   39.1790 C   0  0  0  0  0  3  0  0  0  0  0  0
   36.3270   24.0520   39.7800 C   0  0  0  0  0  0  0  0  0  0  0  0
   36.0560   23.1250   39.3090 H   0  0  0  0  0  0  0  0  0  0  0  0
   36.7530   23.9510   41.0790 C   0  0  0  0  0  0  0  0  0  0  0  0
   36.8150   22.9890   41.6120 H   0  0  0  0  0  0  0  0  0  0  0  0
   37.1180   25.0890   41.7520 C   0  0  0  0  0  3  0  0  0  0  0  0
  1  2  1  0  0  0  0
  2  3  2  0  0  0  0
  2  7  1  0  0  0  0
  3  4  1  0  0  0  0
  4  8  1  0  0  0  0
  4  5  2  0  0  0  0
  5  9  1  0  0  0  0
  6  5  1  0  0  0  0
  6 10  1  0  0  0  0
  7  6  2  0  0  0  0
 11 16  2  0  0  0  0
 11 12  1  0  0  0  0
 12 13  2  0  0  0  0
 13 14  1  0  0  0  0
 13  3  1  0  0  0  0
 15 19  1  0  0  0  0
 15 14  2  0  0  0  0
 16 15  1  0  0  0  0
 17 11  1  0  0  0  0
 18 12  1  0  0  0  0
 20  7  1  0  0  0  0
 20 21  1  6  0  0  0
 22 30  1  0  0  0  0
 22 20  1  0  0  0  0
 23 22  2  0  0  0  0
 24 23  1  0  0  0  0
 25 26  2  0  0  0  0
 25 23  1  0  0  0  0
 26 28  1  0  0  0  0
 27 26  1  0  0  0  0
 28 29  1  0  0  0  0
 28 30  2  0  0  0  0
M  END
>  <minimizedAffinity>
-5.0644908

$$$$
