
 OpenBabel03252507173D

 29 31  0  0  0  0  0  0  0  0999 V2000
   39.6260   31.8490   40.9810 C   0  0  0  0  0  0  0  0  0  0  0  0
   38.7050   30.9130   40.4990 C   0  0  0  0  0  0  0  0  0  0  0  0
   37.5350   31.3960   39.9060 C   0  0  0  0  0  0  0  0  0  0  0  0
   37.3600   32.7200   39.8330 N   0  0  0  0  0  0  0  0  0  0  0  0
   38.2590   33.6200   40.3030 C   0  0  0  0  0  0  0  0  0  0  0  0
   39.3700   33.1640   40.8660 N   0  0  0  0  0  0  0  0  0  0  0  0
   40.5550   31.5600   41.4560 H   0  0  0  0  0  0  0  0  0  0  0  0
   37.9790   34.6550   40.1700 H   0  0  0  0  0  0  0  0  0  0  0  0
   36.5680   30.4410   39.4010 C   0  0  0  0  0  0  0  0  0  0  0  0
   35.5100   30.0560   40.2020 C   0  0  0  0  0  0  0  0  0  0  0  0
   34.6050   29.1560   39.6980 C   0  0  0  0  0  0  0  0  0  0  0  0
   34.6960   28.6050   38.4130 C   0  0  0  0  0  0  0  0  0  0  0  0
   35.7880   29.0400   37.6650 C   0  0  0  0  0  0  0  0  0  0  0  0
   36.6550   29.9200   38.1830 N   0  0  0  0  0  0  0  0  0  0  0  0
   35.3890   30.4530   41.2150 H   0  0  0  0  0  0  0  0  0  0  0  0
   33.7470   28.8190   40.3040 H   0  0  0  0  0  0  0  0  0  0  0  0
   34.0010   27.9040   38.0070 H   0  0  0  0  0  0  0  0  0  0  0  0
   35.9060   28.6480   36.6640 H   0  0  0  0  0  0  0  0  0  0  0  0
   38.9640   29.5020   40.6100 C   0  0  0  0  0  0  0  0  0  0  0  0
   39.8250   29.0230   39.8270 O   0  0  0  0  0  0  0  0  0  0  0  0
   38.2140   28.7260   41.6220 C   0  0  0  0  0  0  0  0  0  0  0  0
   38.0420   29.2940   42.8880 C   0  0  0  0  0  0  0  0  0  0  0  0
   38.3950   30.2450   43.1810 H   0  0  0  0  0  0  0  0  0  0  0  0
   37.3290   28.3850   43.6800 C   0  0  0  0  0  3  0  0  0  0  0  0
   36.8440   27.1570   43.3770 C   0  0  0  0  0  0  0  0  0  0  0  0
   36.3090   26.5920   44.1220 H   0  0  0  0  0  0  0  0  0  0  0  0
   37.0910   26.7310   42.0880 C   0  0  0  0  0  0  0  0  0  0  0  0
   36.7360   25.7620   41.7810 H   0  0  0  0  0  0  0  0  0  0  0  0
   37.7800   27.5020   41.1820 C   0  0  0  0  0  3  0  0  0  0  0  0
  1  7  1  0  0  0  0
  2 19  1  0  0  0  0
  2  1  2  0  0  0  0
  3  2  1  0  0  0  0
  4  3  2  0  0  0  0
  4  5  1  0  0  0  0
  5  6  2  0  0  0  0
  6  1  1  0  0  0  0
  8  5  1  0  0  0  0
  9  3  1  0  0  0  0
  9 10  1  0  0  0  0
 10 15  1  0  0  0  0
 11 10  2  0  0  0  0
 11 16  1  0  0  0  0
 12 11  1  0  0  0  0
 13 14  1  0  0  0  0
 13 12  2  0  0  0  0
 14  9  2  0  0  0  0
 17 12  1  0  0  0  0
 18 13  1  0  0  0  0
 19 21  1  0  0  0  0
 20 19  2  0  0  0  0
 21 22  1  0  0  0  0
 22 23  1  0  0  0  0
 22 24  2  0  0  0  0
 25 24  1  0  0  0  0
 25 26  1  0  0  0  0
 27 25  2  0  0  0  0
 28 27  1  0  0  0  0
 29 21  2  0  0  0  0
 29 27  1  0  0  0  0
M  END
>  <minimizedAffinity>
-5.48502016

$$$$

 OpenBabel03252507173D

 29 31  0  0  0  0  0  0  0  0999 V2000
   36.3480   28.5810   38.8240 C   0  0  0  0  0  0  0  0  0  0  0  0
   36.8430   29.7310   39.4490 C   0  0  0  0  0  0  0  0  0  0  0  0
   37.5380   30.6530   38.6610 C   0  0  0  0  0  0  0  0  0  0  0  0
   37.6920   30.3860   37.3590 N   0  0  0  0  0  0  0  0  0  0  0  0
   37.2100   29.2690   36.7630 C   0  0  0  0  0  0  0  0  0  0  0  0
   36.5500   28.3920   37.5090 N   0  0  0  0  0  0  0  0  0  0  0  0
   35.8020   27.8160   39.3620 H   0  0  0  0  0  0  0  0  0  0  0  0
   37.4120   29.1930   35.7050 H   0  0  0  0  0  0  0  0  0  0  0  0
   38.0580   31.8500   39.2910 C   0  0  0  0  0  0  0  0  0  0  0  0
   37.3150   33.0160   39.2530 C   0  0  0  0  0  0  0  0  0  0  0  0
   37.8260   34.1340   39.8630 C   0  0  0  0  0  0  0  0  0  0  0  0
   39.0630   34.1570   40.5230 C   0  0  0  0  0  0  0  0  0  0  0  0
   39.7530   32.9480   40.5200 C   0  0  0  0  0  0  0  0  0  0  0  0
   39.2290   31.8730   39.9160 N   0  0  0  0  0  0  0  0  0  0  0  0
   36.3430   33.0550   38.7510 H   0  0  0  0  0  0  0  0  0  0  0  0
   37.2690   35.0850   39.8560 H   0  0  0  0  0  0  0  0  0  0  0  0
   39.4730   35.0190   41.0020 H   0  0  0  0  0  0  0  0  0  0  0  0
   40.7120   32.9090   41.0160 H   0  0  0  0  0  0  0  0  0  0  0  0
   36.6330   29.9520   40.8550 C   0  0  0  0  0  0  0  0  0  0  0  0
   35.8610   30.8950   41.1700 O   0  0  0  0  0  0  0  0  0  0  0  0
   37.3260   29.0670   41.8170 C   0  0  0  0  0  0  0  0  0  0  0  0
   38.6740   29.3210   42.0870 C   0  0  0  0  0  0  0  0  0  0  0  0
   39.2410   30.1080   41.6680 H   0  0  0  0  0  0  0  0  0  0  0  0
   39.1250   28.3590   42.9990 C   0  0  0  0  0  3  0  0  0  0  0  0
   38.4630   27.3290   43.5800 C   0  0  0  0  0  0  0  0  0  0  0  0
   38.9780   26.6810   44.2700 H   0  0  0  0  0  0  0  0  0  0  0  0
   37.1380   27.2050   43.2160 C   0  0  0  0  0  0  0  0  0  0  0  0
   36.5540   26.4060   43.6380 H   0  0  0  0  0  0  0  0  0  0  0  0
   36.5390   28.0680   42.3290 C   0  0  0  0  0  3  0  0  0  0  0  0
  1  7  1  0  0  0  0
  1  2  1  0  0  0  0
  2 19  1  0  0  0  0
  3  9  1  0  0  0  0
  3  2  2  0  0  0  0
  4  3  1  0  0  0  0
  5  4  2  0  0  0  0
  5  6  1  0  0  0  0
  6  1  2  0  0  0  0
  8  5  1  0  0  0  0
  9 14  1  0  0  0  0
 10  9  2  0  0  0  0
 10 11  1  0  0  0  0
 11 12  2  0  0  0  0
 12 17  1  0  0  0  0
 13 12  1  0  0  0  0
 13 18  1  0  0  0  0
 14 13  2  0  0  0  0
 15 10  1  0  0  0  0
 16 11  1  0  0  0  0
 19 20  2  0  0  0  0
 19 21  1  0  0  0  0
 21 22  2  0  0  0  0
 21 29  1  0  0  0  0
 22 24  1  0  0  0  0
 23 22  1  0  0  0  0
 24 25  2  0  0  0  0
 25 26  1  0  0  0  0
 27 25  1  0  0  0  0
 27 28  1  0  0  0  0
 29 27  2  0  0  0  0
M  END
>  <minimizedAffinity>
-5.44782352

$$$$

 OpenBabel03252507173D

 29 31  0  0  0  0  0  0  0  0999 V2000
   37.1780   24.8910   42.2080 C   0  0  0  0  0  0  0  0  0  0  0  0
   37.1040   26.2400   41.8480 C   0  0  0  0  0  0  0  0  0  0  0  0
   36.8080   26.5440   40.5170 C   0  0  0  0  0  0  0  0  0  0  0  0
   36.6130   25.5330   39.6630 N   0  0  0  0  0  0  0  0  0  0  0  0
   36.6870   24.2280   40.0210 C   0  0  0  0  0  0  0  0  0  0  0  0
   36.9680   23.9370   41.2850 N   0  0  0  0  0  0  0  0  0  0  0  0
   37.4050   24.5690   43.2170 H   0  0  0  0  0  0  0  0  0  0  0  0
   36.5040   23.5250   39.2210 H   0  0  0  0  0  0  0  0  0  0  0  0
   36.7270   27.9380   40.1250 C   0  0  0  0  0  0  0  0  0  0  0  0
   35.6120   28.6780   40.4710 C   0  0  0  0  0  0  0  0  0  0  0  0
   35.5630   29.9970   40.0950 C   0  0  0  0  0  0  0  0  0  0  0  0
   36.5850   30.6340   39.3780 C   0  0  0  0  0  0  0  0  0  0  0  0
   37.6750   29.8260   39.0650 C   0  0  0  0  0  0  0  0  0  0  0  0
   37.6950   28.5420   39.4460 N   0  0  0  0  0  0  0  0  0  0  0  0
   34.7840   28.2320   41.0310 H   0  0  0  0  0  0  0  0  0  0  0  0
   34.6920   30.6240   40.3480 H   0  0  0  0  0  0  0  0  0  0  0  0
   36.5600   31.6590   39.0780 H   0  0  0  0  0  0  0  0  0  0  0  0
   38.4930   30.2670   38.5140 H   0  0  0  0  0  0  0  0  0  0  0  0
   37.3210   27.2740   42.8250 C   0  0  0  0  0  0  0  0  0  0  0  0
   36.4130   27.4450   43.6800 O   0  0  0  0  0  0  0  0  0  0  0  0
   38.5790   28.0520   42.7580 C   0  0  0  0  0  0  0  0  0  0  0  0
   39.7810   27.3460   42.6500 C   0  0  0  0  0  0  0  0  0  0  0  0
   39.8660   26.2940   42.5970 H   0  0  0  0  0  0  0  0  0  0  0  0
   40.8300   28.2730   42.6230 C   0  0  0  0  0  3  0  0  0  0  0  0
   40.8000   29.6260   42.6830 C   0  0  0  0  0  0  0  0  0  0  0  0
   41.7200   30.1860   42.6470 H   0  0  0  0  0  0  0  0  0  0  0  0
   39.5410   30.1810   42.7890 C   0  0  0  0  0  0  0  0  0  0  0  0
   39.4450   31.2510   42.8440 H   0  0  0  0  0  0  0  0  0  0  0  0
   38.4030   29.4090   42.8290 C   0  0  0  0  0  3  0  0  0  0  0  0
  1  7  1  0  0  0  0
  2  1  1  0  0  0  0
  2 19  1  0  0  0  0
  3  2  2  0  0  0  0
  4  5  2  0  0  0  0
  4  3  1  0  0  0  0
  5  6  1  0  0  0  0
  6  1  2  0  0  0  0
  8  5  1  0  0  0  0
  9 10  1  0  0  0  0
  9  3  1  0  0  0  0
 10 15  1  0  0  0  0
 11 16  1  0  0  0  0
 11 10  2  0  0  0  0
 12 11  1  0  0  0  0
 13 12  2  0  0  0  0
 13 14  1  0  0  0  0
 14  9  2  0  0  0  0
 17 12  1  0  0  0  0
 18 13  1  0  0  0  0
 19 20  2  0  0  0  0
 21 19  1  0  0  0  0
 21 29  1  0  0  0  0
 22 21  2  0  0  0  0
 23 22  1  0  0  0  0
 24 22  1  0  0  0  0
 24 25  2  0  0  0  0
 25 27  1  0  0  0  0
 26 25  1  0  0  0  0
 27 29  2  0  0  0  0
 27 28  1  0  0  0  0
M  END
>  <minimizedAffinity>
-5.32670927

$$$$

 OpenBabel03252507173D

 29 31  0  0  0  0  0  0  0  0999 V2000
   38.5720   29.1250   42.5910 C   0  0  0  0  0  0  0  0  0  0  0  0
   37.8680   29.0620   41.3830 C   0  0  0  0  0  0  0  0  0  0  0  0
   36.6730   28.3370   41.3620 C   0  0  0  0  0  0  0  0  0  0  0  0
   36.2700   27.7450   42.4910 N   0  0  0  0  0  0  0  0  0  0  0  0
   36.9590   27.8110   43.6570 C   0  0  0  0  0  0  0  0  0  0  0  0
   38.0930   28.4990   43.6800 N   0  0  0  0  0  0  0  0  0  0  0  0
   39.5060   29.6620   42.6930 H   0  0  0  0  0  0  0  0  0  0  0  0
   36.5070   27.2830   44.4840 H   0  0  0  0  0  0  0  0  0  0  0  0
   35.9310   28.2620   40.1190 C   0  0  0  0  0  0  0  0  0  0  0  0
   34.8950   29.1470   39.8910 C   0  0  0  0  0  0  0  0  0  0  0  0
   34.2120   29.0590   38.7040 C   0  0  0  0  0  0  0  0  0  0  0  0
   34.5090   28.1180   37.7090 C   0  0  0  0  0  0  0  0  0  0  0  0
   35.5640   27.2600   38.0090 C   0  0  0  0  0  0  0  0  0  0  0  0
   36.2130   27.3700   39.1770 N   0  0  0  0  0  0  0  0  0  0  0  0
   34.6180   29.9030   40.6330 H   0  0  0  0  0  0  0  0  0  0  0  0
   33.3770   29.7440   38.4810 H   0  0  0  0  0  0  0  0  0  0  0  0
   33.9870   28.0380   36.7810 H   0  0  0  0  0  0  0  0  0  0  0  0
   35.8380   26.5150   37.2760 H   0  0  0  0  0  0  0  0  0  0  0  0
   38.3630   29.7300   40.2090 C   0  0  0  0  0  0  0  0  0  0  0  0
   38.8800   29.0040   39.3210 O   0  0  0  0  0  0  0  0  0  0  0  0
   38.2300   31.2020   40.1280 C   0  0  0  0  0  0  0  0  0  0  0  0
   39.0930   31.9820   40.9040 C   0  0  0  0  0  0  0  0  0  0  0  0
   39.8480   31.6050   41.5390 H   0  0  0  0  0  0  0  0  0  0  0  0
   38.7770   33.3290   40.6870 C   0  0  0  0  0  3  0  0  0  0  0  0
   37.8320   33.8860   39.8920 C   0  0  0  0  0  0  0  0  0  0  0  0
   37.7320   34.9580   39.8470 H   0  0  0  0  0  0  0  0  0  0  0  0
   37.0560   32.9900   39.1870 C   0  0  0  0  0  0  0  0  0  0  0  0
   36.2840   33.3650   38.5380 H   0  0  0  0  0  0  0  0  0  0  0  0
   37.2360   31.6300   39.2870 C   0  0  0  0  0  3  0  0  0  0  0  0
  1  7  1  0  0  0  0
  1  6  1  0  0  0  0
  2  1  2  0  0  0  0
  3  2  1  0  0  0  0
  3  4  2  0  0  0  0
  4  5  1  0  0  0  0
  5  6  2  0  0  0  0
  5  8  1  0  0  0  0
  9  3  1  0  0  0  0
 10  9  1  0  0  0  0
 10 15  1  0  0  0  0
 11 10  2  0  0  0  0
 12 13  2  0  0  0  0
 12 11  1  0  0  0  0
 13 14  1  0  0  0  0
 14  9  2  0  0  0  0
 16 11  1  0  0  0  0
 17 12  1  0  0  0  0
 18 13  1  0  0  0  0
 19  2  1  0  0  0  0
 20 19  2  0  0  0  0
 21 19  1  0  0  0  0
 21 22  1  0  0  0  0
 22 23  1  0  0  0  0
 24 22  2  0  0  0  0
 25 24  1  0  0  0  0
 26 25  1  0  0  0  0
 27 29  1  0  0  0  0
 27 25  2  0  0  0  0
 28 27  1  0  0  0  0
 29 21  2  0  0  0  0
M  END
>  <minimizedAffinity>
-5.28493929

$$$$

 OpenBabel03252507173D

 29 31  0  0  0  0  0  0  0  0999 V2000
   35.3750   27.3930   38.0170 C   0  0  0  0  0  0  0  0  0  0  0  0
   35.8340   27.9020   39.2360 C   0  0  0  0  0  0  0  0  0  0  0  0
   36.7440   27.1300   39.9630 C   0  0  0  0  0  0  0  0  0  0  0  0
   37.1250   25.9520   39.4570 N   0  0  0  0  0  0  0  0  0  0  0  0
   36.6750   25.4660   38.2740 C   0  0  0  0  0  0  0  0  0  0  0  0
   35.8110   26.1970   37.5820 N   0  0  0  0  0  0  0  0  0  0  0  0
   34.6680   27.9240   37.3930 H   0  0  0  0  0  0  0  0  0  0  0  0
   37.0740   24.5020   37.9960 H   0  0  0  0  0  0  0  0  0  0  0  0
   37.2300   27.6420   41.2300 C   0  0  0  0  0  0  0  0  0  0  0  0
   36.4880   27.4350   42.3770 C   0  0  0  0  0  0  0  0  0  0  0  0
   36.9730   27.9230   43.5640 C   0  0  0  0  0  0  0  0  0  0  0  0
   38.1840   28.6210   43.6760 C   0  0  0  0  0  0  0  0  0  0  0  0
   38.8760   28.7910   42.4790 C   0  0  0  0  0  0  0  0  0  0  0  0
   38.3770   28.3020   41.3350 N   0  0  0  0  0  0  0  0  0  0  0  0
   35.5350   26.8970   42.3490 H   0  0  0  0  0  0  0  0  0  0  0  0
   36.4130   27.7830   44.5030 H   0  0  0  0  0  0  0  0  0  0  0  0
   38.5740   29.0070   44.5920 H   0  0  0  0  0  0  0  0  0  0  0  0
   39.8170   29.3210   42.5070 H   0  0  0  0  0  0  0  0  0  0  0  0
   35.3820   29.1810   39.7150 C   0  0  0  0  0  0  0  0  0  0  0  0
   34.2580   29.2080   40.2810 O   0  0  0  0  0  0  0  0  0  0  0  0
   36.2570   30.3570   39.5130 C   0  0  0  0  0  0  0  0  0  0  0  0
   36.4890   31.1970   40.6060 C   0  0  0  0  0  0  0  0  0  0  0  0
   36.0980   31.0540   41.5770 H   0  0  0  0  0  0  0  0  0  0  0  0
   37.3190   32.2430   40.1840 C   0  0  0  0  0  3  0  0  0  0  0  0
   37.8580   32.4920   38.9670 C   0  0  0  0  0  0  0  0  0  0  0  0
   38.4850   33.3570   38.8230 H   0  0  0  0  0  0  0  0  0  0  0  0
   37.5400   31.5750   37.9860 C   0  0  0  0  0  0  0  0  0  0  0  0
   37.9330   31.7140   36.9940 H   0  0  0  0  0  0  0  0  0  0  0  0
   36.7350   30.4880   38.2340 C   0  0  0  0  0  3  0  0  0  0  0  0
  1  2  1  0  0  0  0
  2 19  1  0  0  0  0
  2  3  2  0  0  0  0
  3  9  1  0  0  0  0
  4  3  1  0  0  0  0
  5  4  2  0  0  0  0
  6  1  2  0  0  0  0
  6  5  1  0  0  0  0
  7  1  1  0  0  0  0
  8  5  1  0  0  0  0
  9 14  2  0  0  0  0
  9 10  1  0  0  0  0
 10 11  2  0  0  0  0
 11 12  1  0  0  0  0
 11 16  1  0  0  0  0
 12 17  1  0  0  0  0
 13 18  1  0  0  0  0
 13 12  2  0  0  0  0
 14 13  1  0  0  0  0
 15 10  1  0  0  0  0
 19 20  2  0  0  0  0
 21 19  1  0  0  0  0
 21 22  1  0  0  0  0
 22 23  1  0  0  0  0
 24 22  2  0  0  0  0
 25 24  1  0  0  0  0
 26 25  1  0  0  0  0
 27 29  1  0  0  0  0
 27 25  2  0  0  0  0
 28 27  1  0  0  0  0
 29 21  2  0  0  0  0
M  END
>  <minimizedAffinity>
-5.27218533

$$$$

 OpenBabel03252507173D

 29 31  0  0  0  0  0  0  0  0999 V2000
   35.3940   27.3430   37.9120 C   0  0  0  0  0  0  0  0  0  0  0  0
   35.8650   27.8560   39.1250 C   0  0  0  0  0  0  0  0  0  0  0  0
   36.7870   27.0880   39.8430 C   0  0  0  0  0  0  0  0  0  0  0  0
   37.1660   25.9110   39.3330 N   0  0  0  0  0  0  0  0  0  0  0  0
   36.7040   25.4220   38.1570 C   0  0  0  0  0  0  0  0  0  0  0  0
   35.8290   26.1490   37.4740 N   0  0  0  0  0  0  0  0  0  0  0  0
   34.6770   27.8710   37.2960 H   0  0  0  0  0  0  0  0  0  0  0  0
   37.1030   24.4590   37.8750 H   0  0  0  0  0  0  0  0  0  0  0  0
   37.2870   27.6040   41.1020 C   0  0  0  0  0  0  0  0  0  0  0  0
   36.5740   27.3700   42.2630 C   0  0  0  0  0  0  0  0  0  0  0  0
   37.0710   27.8620   43.4440 C   0  0  0  0  0  0  0  0  0  0  0  0
   38.2650   28.5900   43.5350 C   0  0  0  0  0  0  0  0  0  0  0  0
   38.9280   28.7860   42.3260 C   0  0  0  0  0  0  0  0  0  0  0  0
   38.4180   28.2930   41.1890 N   0  0  0  0  0  0  0  0  0  0  0  0
   35.6340   26.8080   42.2510 H   0  0  0  0  0  0  0  0  0  0  0  0
   36.5340   27.7020   44.3930 H   0  0  0  0  0  0  0  0  0  0  0  0
   38.6650   28.9800   44.4460 H   0  0  0  0  0  0  0  0  0  0  0  0
   39.8560   29.3390   42.3380 H   0  0  0  0  0  0  0  0  0  0  0  0
   35.4140   29.1340   39.6070 C   0  0  0  0  0  0  0  0  0  0  0  0
   34.3140   29.1520   40.2190 O   0  0  0  0  0  0  0  0  0  0  0  0
   36.2630   30.3200   39.3560 C   0  0  0  0  0  0  0  0  0  0  0  0
   36.7790   30.4960   38.0690 C   0  0  0  0  0  0  0  0  0  0  0  0
   36.6010   29.8540   37.2490 H   0  0  0  0  0  0  0  0  0  0  0  0
   37.5600   31.6580   38.0670 C   0  0  0  0  0  3  0  0  0  0  0  0
   37.8320   32.5280   39.0700 C   0  0  0  0  0  0  0  0  0  0  0  0
   38.4610   33.3830   38.8830 H   0  0  0  0  0  0  0  0  0  0  0  0
   37.2520   32.2230   40.2840 C   0  0  0  0  0  0  0  0  0  0  0  0
   37.4290   32.8710   41.1250 H   0  0  0  0  0  0  0  0  0  0  0  0
   36.4560   31.1150   40.4560 C   0  0  0  0  0  3  0  0  0  0  0  0
  1  2  1  0  0  0  0
  2 19  1  0  0  0  0
  2  3  2  0  0  0  0
  3  9  1  0  0  0  0
  4  3  1  0  0  0  0
  5  4  2  0  0  0  0
  6  1  2  0  0  0  0
  6  5  1  0  0  0  0
  7  1  1  0  0  0  0
  8  5  1  0  0  0  0
  9 14  2  0  0  0  0
  9 10  1  0  0  0  0
 10 11  2  0  0  0  0
 11 12  1  0  0  0  0
 11 16  1  0  0  0  0
 12 17  1  0  0  0  0
 13 18  1  0  0  0  0
 13 12  2  0  0  0  0
 14 13  1  0  0  0  0
 15 10  1  0  0  0  0
 19 20  2  0  0  0  0
 21 19  1  0  0  0  0
 21 29  1  0  0  0  0
 22 21  2  0  0  0  0
 23 22  1  0  0  0  0
 24 22  1  0  0  0  0
 24 25  2  0  0  0  0
 25 27  1  0  0  0  0
 26 25  1  0  0  0  0
 27 29  2  0  0  0  0
 27 28  1  0  0  0  0
M  END
>  <minimizedAffinity>
-5.25551796

$$$$

 OpenBabel03252507173D

 29 31  0  0  0  0  0  0  0  0999 V2000
   35.8170   29.1890   41.0650 C   0  0  0  0  0  0  0  0  0  0  0  0
   36.5240   28.0090   41.3220 C   0  0  0  0  0  0  0  0  0  0  0  0
   36.6790   27.1010   40.2710 C   0  0  0  0  0  0  0  0  0  0  0  0
   36.1450   27.4070   39.0830 N   0  0  0  0  0  0  0  0  0  0  0  0
   35.4620   28.5530   38.8440 C   0  0  0  0  0  0  0  0  0  0  0  0
   35.3130   29.4170   39.8400 N   0  0  0  0  0  0  0  0  0  0  0  0
   35.6490   29.9430   41.8240 H   0  0  0  0  0  0  0  0  0  0  0  0
   35.0910   28.6600   37.8350 H   0  0  0  0  0  0  0  0  0  0  0  0
   37.4080   25.8730   40.5180 C   0  0  0  0  0  0  0  0  0  0  0  0
   36.7810   24.8290   41.1710 C   0  0  0  0  0  0  0  0  0  0  0  0
   37.4910   23.6740   41.3870 C   0  0  0  0  0  0  0  0  0  0  0  0
   38.8200   23.4970   40.9790 C   0  0  0  0  0  0  0  0  0  0  0  0
   39.3850   24.5900   40.3280 C   0  0  0  0  0  0  0  0  0  0  0  0
   38.6670   25.7040   40.1310 N   0  0  0  0  0  0  0  0  0  0  0  0
   35.7440   24.9120   41.5130 H   0  0  0  0  0  0  0  0  0  0  0  0
   37.0300   22.8180   41.9060 H   0  0  0  0  0  0  0  0  0  0  0  0
   39.3850   22.6050   41.1400 H   0  0  0  0  0  0  0  0  0  0  0  0
   40.4080   24.5070   39.9900 H   0  0  0  0  0  0  0  0  0  0  0  0
   37.0740   27.7510   42.6260 C   0  0  0  0  0  0  0  0  0  0  0  0
   36.2640   27.3980   43.5220 O   0  0  0  0  0  0  0  0  0  0  0  0
   38.5320   27.9140   42.8190 C   0  0  0  0  0  0  0  0  0  0  0  0
   39.1370   29.0640   42.3030 C   0  0  0  0  0  0  0  0  0  0  0  0
   38.6330   29.8410   41.7940 H   0  0  0  0  0  0  0  0  0  0  0  0
   40.5080   28.9980   42.5820 C   0  0  0  0  0  3  0  0  0  0  0  0
   41.2220   28.0440   43.2270 C   0  0  0  0  0  0  0  0  0  0  0  0
   42.2860   28.1630   43.3530 H   0  0  0  0  0  0  0  0  0  0  0  0
   40.4880   26.9680   43.6800 C   0  0  0  0  0  0  0  0  0  0  0  0
   40.9930   26.1720   44.1990 H   0  0  0  0  0  0  0  0  0  0  0  0
   39.1290   26.8760   43.4880 C   0  0  0  0  0  3  0  0  0  0  0  0
  1  2  1  0  0  0  0
  1  7  1  0  0  0  0
  2 19  1  0  0  0  0
  3  9  1  0  0  0  0
  3  2  2  0  0  0  0
  4  3  1  0  0  0  0
  5  4  2  0  0  0  0
  5  6  1  0  0  0  0
  6  1  2  0  0  0  0
  8  5  1  0  0  0  0
  9 10  1  0  0  0  0
 10 11  2  0  0  0  0
 10 15  1  0  0  0  0
 11 16  1  0  0  0  0
 12 17  1  0  0  0  0
 12 11  1  0  0  0  0
 13 12  2  0  0  0  0
 14 13  1  0  0  0  0
 14  9  2  0  0  0  0
 18 13  1  0  0  0  0
 19 21  1  0  0  0  0
 19 20  2  0  0  0  0
 21 29  1  0  0  0  0
 22 24  1  0  0  0  0
 22 21  2  0  0  0  0
 23 22  1  0  0  0  0
 24 25  2  0  0  0  0
 25 26  1  0  0  0  0
 25 27  1  0  0  0  0
 27 28  1  0  0  0  0
 29 27  2  0  0  0  0
M  END
>  <minimizedAffinity>
-5.23352814

$$$$

 OpenBabel03252507173D

 29 31  0  0  0  0  0  0  0  0999 V2000
   36.5990   30.1570   38.0040 C   0  0  0  0  0  0  0  0  0  0  0  0
   36.8950   29.8630   39.3390 C   0  0  0  0  0  0  0  0  0  0  0  0
   37.3170   28.5650   39.6420 C   0  0  0  0  0  0  0  0  0  0  0  0
   37.4140   27.6800   38.6440 N   0  0  0  0  0  0  0  0  0  0  0  0
   37.1250   27.9740   37.3530 C   0  0  0  0  0  0  0  0  0  0  0  0
   36.7240   29.2060   37.0630 N   0  0  0  0  0  0  0  0  0  0  0  0
   36.2640   31.1360   37.6840 H   0  0  0  0  0  0  0  0  0  0  0  0
   37.2520   27.1560   36.6590 H   0  0  0  0  0  0  0  0  0  0  0  0
   37.6280   28.2410   41.0200 C   0  0  0  0  0  0  0  0  0  0  0  0
   36.6320   27.7570   41.8460 C   0  0  0  0  0  0  0  0  0  0  0  0
   36.9530   27.4510   43.1450 C   0  0  0  0  0  0  0  0  0  0  0  0
   38.2400   27.6040   43.6790 C   0  0  0  0  0  0  0  0  0  0  0  0
   39.1900   28.0970   42.7890 C   0  0  0  0  0  0  0  0  0  0  0  0
   38.8470   28.3860   41.5260 N   0  0  0  0  0  0  0  0  0  0  0  0
   35.6080   27.6180   41.4830 H   0  0  0  0  0  0  0  0  0  0  0  0
   36.1890   27.0640   43.8400 H   0  0  0  0  0  0  0  0  0  0  0  0
   38.5050   27.3710   44.6870 H   0  0  0  0  0  0  0  0  0  0  0  0
   40.2010   28.2330   43.1470 H   0  0  0  0  0  0  0  0  0  0  0  0
   36.7710   30.8700   40.3590 C   0  0  0  0  0  0  0  0  0  0  0  0
   35.7950   30.7610   41.1460 O   0  0  0  0  0  0  0  0  0  0  0  0
   37.7860   31.9470   40.4110 C   0  0  0  0  0  0  0  0  0  0  0  0
   39.0000   31.6720   41.0470 C   0  0  0  0  0  0  0  0  0  0  0  0
   39.2620   30.7480   41.4860 H   0  0  0  0  0  0  0  0  0  0  0  0
   39.7900   32.8270   40.9950 C   0  0  0  0  0  3  0  0  0  0  0  0
   39.5270   34.0410   40.4520 C   0  0  0  0  0  0  0  0  0  0  0  0
   40.2650   34.8240   40.5040 H   0  0  0  0  0  0  0  0  0  0  0  0
   38.2880   34.1610   39.8580 C   0  0  0  0  0  0  0  0  0  0  0  0
   38.0120   35.1000   39.4090 H   0  0  0  0  0  0  0  0  0  0  0  0
   37.3890   33.1200   39.8230 C   0  0  0  0  0  3  0  0  0  0  0  0
  1  2  1  0  0  0  0
  2  3  2  0  0  0  0
  2 19  1  0  0  0  0
  3  9  1  0  0  0  0
  4  3  1  0  0  0  0
  5  4  2  0  0  0  0
  6  5  1  0  0  0  0
  6  1  2  0  0  0  0
  7  1  1  0  0  0  0
  8  5  1  0  0  0  0
  9 14  2  0  0  0  0
  9 10  1  0  0  0  0
 10 11  2  0  0  0  0
 11 12  1  0  0  0  0
 11 16  1  0  0  0  0
 12 17  1  0  0  0  0
 13 18  1  0  0  0  0
 13 12  2  0  0  0  0
 14 13  1  0  0  0  0
 15 10  1  0  0  0  0
 19 21  1  0  0  0  0
 19 20  2  0  0  0  0
 21 22  1  0  0  0  0
 22 23  1  0  0  0  0
 24 22  2  0  0  0  0
 25 26  1  0  0  0  0
 25 24  1  0  0  0  0
 27 25  2  0  0  0  0
 28 27  1  0  0  0  0
 29 27  1  0  0  0  0
 29 21  2  0  0  0  0
M  END
>  <minimizedAffinity>
-5.21781778

$$$$

 OpenBabel03252507173D

 29 31  0  0  0  0  0  0  0  0999 V2000
   39.6090   31.2440   38.9450 C   0  0  0  0  0  0  0  0  0  0  0  0
   38.7800   30.5620   39.8420 C   0  0  0  0  0  0  0  0  0  0  0  0
   39.3270   29.4820   40.5420 C   0  0  0  0  0  0  0  0  0  0  0  0
   40.6060   29.1620   40.3170 N   0  0  0  0  0  0  0  0  0  0  0  0
   41.4020   29.8290   39.4460 C   0  0  0  0  0  0  0  0  0  0  0  0
   40.8850   30.8540   38.7800 N   0  0  0  0  0  0  0  0  0  0  0  0
   39.2650   32.0880   38.3610 H   0  0  0  0  0  0  0  0  0  0  0  0
   42.4120   29.4540   39.3730 H   0  0  0  0  0  0  0  0  0  0  0  0
   38.4830   28.7630   41.4760 C   0  0  0  0  0  0  0  0  0  0  0  0
   37.9580   27.5370   41.1130 C   0  0  0  0  0  0  0  0  0  0  0  0
   37.1680   26.8730   42.0180 C   0  0  0  0  0  0  0  0  0  0  0  0
   36.8640   27.3730   43.2920 C   0  0  0  0  0  0  0  0  0  0  0  0
   37.4270   28.6120   43.5860 C   0  0  0  0  0  0  0  0  0  0  0  0
   38.1950   29.2360   42.6830 N   0  0  0  0  0  0  0  0  0  0  0  0
   38.1620   27.0990   40.1310 H   0  0  0  0  0  0  0  0  0  0  0  0
   36.7270   25.8940   41.7700 H   0  0  0  0  0  0  0  0  0  0  0  0
   36.2510   26.8680   44.0050 H   0  0  0  0  0  0  0  0  0  0  0  0
   37.2270   29.0440   44.5560 H   0  0  0  0  0  0  0  0  0  0  0  0
   37.4140   30.9680   40.0340 C   0  0  0  0  0  0  0  0  0  0  0  0
   37.2210   31.9690   40.7740 O   0  0  0  0  0  0  0  0  0  0  0  0
   36.3480   30.1950   39.3590 C   0  0  0  0  0  0  0  0  0  0  0  0
   36.4610   29.9890   37.9810 C   0  0  0  0  0  0  0  0  0  0  0  0
   37.2580   30.3310   37.3780 H   0  0  0  0  0  0  0  0  0  0  0  0
   35.3440   29.2590   37.5560 C   0  0  0  0  0  3  0  0  0  0  0  0
   34.2890   28.7870   38.2650 C   0  0  0  0  0  0  0  0  0  0  0  0
   33.5110   28.2350   37.7650 H   0  0  0  0  0  0  0  0  0  0  0  0
   34.3170   29.0690   39.6150 C   0  0  0  0  0  0  0  0  0  0  0  0
   33.5080   28.7250   40.2370 H   0  0  0  0  0  0  0  0  0  0  0  0
   35.3440   29.7770   40.1940 C   0  0  0  0  0  3  0  0  0  0  0  0
  1  2  1  0  0  0  0
  2 19  1  0  0  0  0
  2  3  2  0  0  0  0
  3  9  1  0  0  0  0
  4  3  1  0  0  0  0
  5  4  2  0  0  0  0
  6  1  2  0  0  0  0
  6  5  1  0  0  0  0
  7  1  1  0  0  0  0
  8  5  1  0  0  0  0
  9 14  1  0  0  0  0
 10  9  2  0  0  0  0
 10 11  1  0  0  0  0
 11 12  2  0  0  0  0
 12 13  1  0  0  0  0
 12 17  1  0  0  0  0
 13 18  1  0  0  0  0
 14 13  2  0  0  0  0
 15 10  1  0  0  0  0
 16 11  1  0  0  0  0
 19 20  2  0  0  0  0
 21 19  1  0  0  0  0
 21 29  1  0  0  0  0
 22 21  2  0  0  0  0
 23 22  1  0  0  0  0
 24 22  1  0  0  0  0
 24 25  2  0  0  0  0
 25 27  1  0  0  0  0
 26 25  1  0  0  0  0
 27 29  2  0  0  0  0
 27 28  1  0  0  0  0
M  END
>  <minimizedAffinity>
-5.13410234

$$$$
