
 OpenBabel03252507163D

 29 31  0  0  0  0  0  0  0  0999 V2000
   45.1730   36.1800   43.4950 C   0  0  0  0  0  0  0  0  0  0  0  0
   45.7950   34.9870   43.1130 C   0  0  0  0  0  0  0  0  0  0  0  0
   45.8080   33.9360   44.0340 C   0  0  0  0  0  0  0  0  0  0  0  0
   45.2290   34.1270   45.2240 N   0  0  0  0  0  0  0  0  0  0  0  0
   44.6280   35.2870   45.5860 C   0  0  0  0  0  0  0  0  0  0  0  0
   44.6150   36.2870   44.7130 N   0  0  0  0  0  0  0  0  0  0  0  0
   45.1200   37.0440   42.8430 H   0  0  0  0  0  0  0  0  0  0  0  0
   44.2040   35.2910   46.5790 H   0  0  0  0  0  0  0  0  0  0  0  0
   46.4490   32.6910   43.6560 C   0  0  0  0  0  0  0  0  0  0  0  0
   45.6740   31.6300   43.2300 C   0  0  0  0  0  0  0  0  0  0  0  0
   46.3050   30.4650   42.8710 C   0  0  0  0  0  0  0  0  0  0  0  0
   47.6960   30.2940   42.9140 C   0  0  0  0  0  0  0  0  0  0  0  0
   48.4100   31.4060   43.3530 C   0  0  0  0  0  0  0  0  0  0  0  0
   47.7660   32.5300   43.6960 N   0  0  0  0  0  0  0  0  0  0  0  0
   44.5830   31.7060   43.1770 H   0  0  0  0  0  0  0  0  0  0  0  0
   45.7260   29.5920   42.5270 H   0  0  0  0  0  0  0  0  0  0  0  0
   48.2000   29.3950   42.6380 H   0  0  0  0  0  0  0  0  0  0  0  0
   49.4870   31.3310   43.4040 H   0  0  0  0  0  0  0  0  0  0  0  0
   46.3940   34.8540   41.8120 C   0  0  0  0  0  0  0  0  0  0  0  0
   47.5670   35.2890   41.6820 O   0  0  0  0  0  0  0  0  0  0  0  0
   45.6000   34.2230   40.7330 C   0  0  0  0  0  0  0  0  0  0  0  0
   46.2720   33.4100   39.8150 C   0  0  0  0  0  0  0  0  0  0  0  0
   47.3050   33.1940   39.8360 H   0  0  0  0  0  0  0  0  0  0  0  0
   45.3380   32.9420   38.8840 C   0  0  0  0  0  3  0  0  0  0  0  0
   44.0040   33.1690   38.7950 C   0  0  0  0  0  0  0  0  0  0  0  0
   43.4350   32.7160   38.0000 H   0  0  0  0  0  0  0  0  0  0  0  0
   43.4830   33.9920   39.7710 C   0  0  0  0  0  0  0  0  0  0  0  0
   42.4310   34.2160   39.7580 H   0  0  0  0  0  0  0  0  0  0  0  0
   44.2650   34.5370   40.7620 C   0  0  0  0  0  3  0  0  0  0  0  0
  1  6  1  0  0  0  0
  2  1  2  0  0  0  0
  2  3  1  0  0  0  0
  3  4  2  0  0  0  0
  4  5  1  0  0  0  0
  5  8  1  0  0  0  0
  6  5  2  0  0  0  0
  7  1  1  0  0  0  0
  9 14  1  0  0  0  0
  9  3  1  0  0  0  0
 10  9  2  0  0  0  0
 11 12  2  0  0  0  0
 11 10  1  0  0  0  0
 12 13  1  0  0  0  0
 13 18  1  0  0  0  0
 13 14  2  0  0  0  0
 15 10  1  0  0  0  0
 16 11  1  0  0  0  0
 17 12  1  0  0  0  0
 19  2  1  0  0  0  0
 20 19  2  0  0  0  0
 21 29  1  0  0  0  0
 21 19  1  0  0  0  0
 22 23  1  0  0  0  0
 22 21  2  0  0  0  0
 24 22  1  0  0  0  0
 25 24  2  0  0  0  0
 25 27  1  0  0  0  0
 26 25  1  0  0  0  0
 27 29  2  0  0  0  0
 28 27  1  0  0  0  0
M  END
>  <minimizedAffinity>
-4.64868021

>  <minimizedRMSD>
0.426846474

$$$$
