
 OpenBabel03242512283D

 22 23  0  0  0  0  0  0  0  0999 V2000
   37.5000   31.7200   38.1000 C   0  0  0  0  0  0  0  0  0  0  0  0
   37.8780   32.6930   39.0250 C   0  0  0  0  0  0  0  0  0  0  0  0
   37.4980   32.5310   40.3690 C   0  0  0  0  0  0  0  0  0  0  0  0
   36.7830   31.4290   40.6710 N   0  0  0  0  0  0  0  0  0  0  0  0
   36.4250   30.5010   39.7780 C   0  0  0  0  0  0  0  0  0  0  0  0
   36.7890   30.6500   38.4770 N   0  0  0  0  0  0  0  0  0  0  0  0
   37.8980   31.9000   36.7420 N   0  0  0  0  0  0  0  0  0  0  0  0
   38.4530   33.5830   38.7860 H   0  0  0  0  0  0  0  0  0  0  0  0
   37.7200   33.1940   41.1670 H   0  0  0  0  0  0  0  0  0  0  0  0
   38.9240   31.7670   36.5610 H   0  0  0  0  0  0  0  0  0  0  0  0
   37.1860   32.1430   36.0240 H   0  0  0  0  0  0  0  0  0  0  0  0
   35.6620   29.3160   40.1130 C   0  0  0  0  0  0  0  0  0  0  0  0
   34.4240   29.2080   39.8460 O   0  0  0  0  0  0  0  0  0  0  0  0
   36.2200   28.1420   40.7790 C   0  0  0  0  0  0  0  0  0  0  0  0
   36.5820   26.9830   40.1270 C   0  0  0  0  0  0  0  0  0  0  0  0
   36.4780   26.8990   39.0700 H   0  0  0  0  0  0  0  0  0  0  0  0
   37.0990   25.8640   40.7410 C   0  0  0  0  0  3  0  0  0  0  0  0
   37.2760   25.8800   42.1170 C   0  0  0  0  0  0  0  0  0  0  0  0
   37.6780   25.0090   42.6090 H   0  0  0  0  0  0  0  0  0  0  0  0
   36.9350   27.0070   42.8260 C   0  0  0  0  0  0  0  0  0  0  0  0
   37.0830   26.9910   43.8930 H   0  0  0  0  0  0  0  0  0  0  0  0
   36.4250   28.0860   42.1420 C   0  0  0  0  0  3  0  0  0  0  0  0
  1  6  2  0  0  0  0
  1  2  1  0  0  0  0
  2  3  2  0  0  0  0
  3  4  1  0  0  0  0
  3  9  1  0  0  0  0
  5 12  1  0  0  0  0
  5  4  2  0  0  0  0
  6  5  1  0  0  0  0
  7  1  1  0  0  0  0
  8  2  1  0  0  0  0
 10  7  1  0  0  0  0
 11  7  1  0  0  0  0
 12 14  1  0  0  0  0
 13 12  2  0  0  0  0
 14 22  1  0  0  0  0
 15 17  1  0  0  0  0
 15 14  2  0  0  0  0
 16 15  1  0  0  0  0
 17 18  2  0  0  0  0
 18 19  1  0  0  0  0
 18 20  1  0  0  0  0
 20 21  1  0  0  0  0
 22 20  2  0  0  0  0
M  END
>  <minimizedAffinity>
-5.01046991

$$$$

 OpenBabel03242512283D

 22 23  0  0  0  0  0  0  0  0999 V2000
   36.3920   30.4870   40.6680 C   0  0  0  0  0  0  0  0  0  0  0  0
   35.9860   29.9610   39.4420 C   0  0  0  0  0  0  0  0  0  0  0  0
   35.8890   28.5650   39.3040 C   0  0  0  0  0  0  0  0  0  0  0  0
   36.2020   27.8240   40.3850 N   0  0  0  0  0  0  0  0  0  0  0  0
   36.5910   28.3360   41.5570 C   0  0  0  0  0  0  0  0  0  0  0  0
   36.6860   29.6840   41.6990 N   0  0  0  0  0  0  0  0  0  0  0  0
   36.4800   31.9060   40.7890 N   0  0  0  0  0  0  0  0  0  0  0  0
   35.7340   30.5560   38.5680 H   0  0  0  0  0  0  0  0  0  0  0  0
   35.5950   28.0420   38.4300 H   0  0  0  0  0  0  0  0  0  0  0  0
   35.5570   32.4060   40.8060 H   0  0  0  0  0  0  0  0  0  0  0  0
   37.4140   32.3600   40.8540 H   0  0  0  0  0  0  0  0  0  0  0  0
   36.9190   27.5310   42.7160 C   0  0  0  0  0  0  0  0  0  0  0  0
   36.1040   27.3620   43.6780 O   0  0  0  0  0  0  0  0  0  0  0  0
   38.1920   26.8400   42.9010 C   0  0  0  0  0  0  0  0  0  0  0  0
   38.4180   25.5280   42.5450 C   0  0  0  0  0  0  0  0  0  0  0  0
   37.6480   24.9470   42.0910 H   0  0  0  0  0  0  0  0  0  0  0  0
   39.6080   24.8580   42.7230 C   0  0  0  0  0  3  0  0  0  0  0  0
   40.6730   25.5350   43.3020 C   0  0  0  0  0  0  0  0  0  0  0  0
   41.6090   25.0200   43.4470 H   0  0  0  0  0  0  0  0  0  0  0  0
   40.5130   26.8460   43.6790 C   0  0  0  0  0  0  0  0  0  0  0  0
   41.3560   27.3450   44.1260 H   0  0  0  0  0  0  0  0  0  0  0  0
   39.2930   27.4470   43.4680 C   0  0  0  0  0  3  0  0  0  0  0  0
  1  7  1  0  0  0  0
  1  6  1  0  0  0  0
  2  1  2  0  0  0  0
  3  2  1  0  0  0  0
  3  4  2  0  0  0  0
  4  5  1  0  0  0  0
  5  6  2  0  0  0  0
  5 12  1  0  0  0  0
  7 10  1  0  0  0  0
  7 11  1  0  0  0  0
  8  2  1  0  0  0  0
  9  3  1  0  0  0  0
 12 14  1  0  0  0  0
 12 13  2  0  0  0  0
 14 22  1  0  0  0  0
 15 17  1  0  0  0  0
 15 14  2  0  0  0  0
 16 15  1  0  0  0  0
 17 18  2  0  0  0  0
 18 19  1  0  0  0  0
 18 20  1  0  0  0  0
 20 21  1  0  0  0  0
 22 20  2  0  0  0  0
M  END
>  <minimizedAffinity>
-5.00335598

$$$$

 OpenBabel03242512283D

 22 23  0  0  0  0  0  0  0  0999 V2000
   37.6470   32.9300   40.1960 C   0  0  0  0  0  0  0  0  0  0  0  0
   38.9020   32.8740   40.8030 C   0  0  0  0  0  0  0  0  0  0  0  0
   39.2930   31.6790   41.4340 C   0  0  0  0  0  0  0  0  0  0  0  0
   38.4130   30.6590   41.4060 N   0  0  0  0  0  0  0  0  0  0  0  0
   37.2120   30.7220   40.8210 C   0  0  0  0  0  0  0  0  0  0  0  0
   36.8260   31.8720   40.2100 N   0  0  0  0  0  0  0  0  0  0  0  0
   37.2690   34.1490   39.5590 N   0  0  0  0  0  0  0  0  0  0  0  0
   39.6140   33.6940   40.8290 H   0  0  0  0  0  0  0  0  0  0  0  0
   40.2150   31.5070   41.9300 H   0  0  0  0  0  0  0  0  0  0  0  0
   37.7830   34.3590   38.6670 H   0  0  0  0  0  0  0  0  0  0  0  0
   36.5340   34.7480   39.9860 H   0  0  0  0  0  0  0  0  0  0  0  0
   36.2760   29.6170   40.7910 C   0  0  0  0  0  0  0  0  0  0  0  0
   35.0980   29.7380   40.3250 O   0  0  0  0  0  0  0  0  0  0  0  0
   36.5750   28.2750   41.2800 C   0  0  0  0  0  0  0  0  0  0  0  0
   36.5740   27.9180   42.6110 C   0  0  0  0  0  0  0  0  0  0  0  0
   36.3320   28.6320   43.3650 H   0  0  0  0  0  0  0  0  0  0  0  0
   36.8640   26.6600   43.0890 C   0  0  0  0  0  3  0  0  0  0  0  0
   37.1860   25.6600   42.1820 C   0  0  0  0  0  0  0  0  0  0  0  0
   37.4170   24.6720   42.5440 H   0  0  0  0  0  0  0  0  0  0  0  0
   37.2040   25.9500   40.8390 C   0  0  0  0  0  0  0  0  0  0  0  0
   37.4580   25.1550   40.1580 H   0  0  0  0  0  0  0  0  0  0  0  0
   36.9020   27.2310   40.4380 C   0  0  0  0  0  3  0  0  0  0  0  0
  1  6  2  0  0  0  0
  1  2  1  0  0  0  0
  2  8  1  0  0  0  0
  2  3  2  0  0  0  0
  3  9  1  0  0  0  0
  4  3  1  0  0  0  0
  5  4  2  0  0  0  0
  6  5  1  0  0  0  0
  7 11  1  0  0  0  0
  7  1  1  0  0  0  0
 10  7  1  0  0  0  0
 12  5  1  0  0  0  0
 12 14  1  0  0  0  0
 13 12  2  0  0  0  0
 14 15  1  0  0  0  0
 15 17  2  0  0  0  0
 15 16  1  0  0  0  0
 18 19  1  0  0  0  0
 18 17  1  0  0  0  0
 20 18  2  0  0  0  0
 21 20  1  0  0  0  0
 22 20  1  0  0  0  0
 22 14  2  0  0  0  0
M  END
>  <minimizedAffinity>
-4.99960566

$$$$

 OpenBabel03242512283D

 22 23  0  0  0  0  0  0  0  0999 V2000
   38.9850   31.7050   37.8820 C   0  0  0  0  0  0  0  0  0  0  0  0
   37.7090   31.3390   37.4510 C   0  0  0  0  0  0  0  0  0  0  0  0
   36.8220   30.7650   38.3790 C   0  0  0  0  0  0  0  0  0  0  0  0
   37.2750   30.6070   39.6380 N   0  0  0  0  0  0  0  0  0  0  0  0
   38.5000   30.9610   40.0430 C   0  0  0  0  0  0  0  0  0  0  0  0
   39.3630   31.5170   39.1530 N   0  0  0  0  0  0  0  0  0  0  0  0
   39.8690   32.2890   36.9270 N   0  0  0  0  0  0  0  0  0  0  0  0
   37.3400   31.4640   36.4370 H   0  0  0  0  0  0  0  0  0  0  0  0
   35.8310   30.4440   38.1810 H   0  0  0  0  0  0  0  0  0  0  0  0
   39.6180   33.2650   36.6310 H   0  0  0  0  0  0  0  0  0  0  0  0
   40.6880   31.7460   36.5840 H   0  0  0  0  0  0  0  0  0  0  0  0
   38.9760   30.7940   41.4010 C   0  0  0  0  0  0  0  0  0  0  0  0
   39.5730   31.7230   42.0300 O   0  0  0  0  0  0  0  0  0  0  0  0
   38.8240   29.5670   42.1770 C   0  0  0  0  0  0  0  0  0  0  0  0
   39.7720   28.5690   42.2390 C   0  0  0  0  0  0  0  0  0  0  0  0
   40.6950   28.6620   41.7130 H   0  0  0  0  0  0  0  0  0  0  0  0
   39.6400   27.4010   42.9570 C   0  0  0  0  0  3  0  0  0  0  0  0
   38.4740   27.1910   43.6800 C   0  0  0  0  0  0  0  0  0  0  0  0
   38.3590   26.2800   44.2440 H   0  0  0  0  0  0  0  0  0  0  0  0
   37.4890   28.1490   43.6600 C   0  0  0  0  0  0  0  0  0  0  0  0
   36.5950   27.9590   44.2290 H   0  0  0  0  0  0  0  0  0  0  0  0
   37.6950   29.2900   42.9190 C   0  0  0  0  0  3  0  0  0  0  0  0
  1  6  1  0  0  0  0
  2  1  2  0  0  0  0
  2  3  1  0  0  0  0
  3  4  2  0  0  0  0
  4  5  1  0  0  0  0
  5 12  1  0  0  0  0
  6  5  2  0  0  0  0
  7  1  1  0  0  0  0
  8  2  1  0  0  0  0
  9  3  1  0  0  0  0
 10  7  1  0  0  0  0
 11  7  1  0  0  0  0
 12 13  2  0  0  0  0
 12 14  1  0  0  0  0
 14 15  2  0  0  0  0
 14 22  1  0  0  0  0
 15 17  1  0  0  0  0
 16 15  1  0  0  0  0
 17 18  2  0  0  0  0
 18 19  1  0  0  0  0
 20 18  1  0  0  0  0
 20 21  1  0  0  0  0
 22 20  2  0  0  0  0
M  END
>  <minimizedAffinity>
-4.93562937

$$$$

 OpenBabel03242512283D

 22 23  0  0  0  0  0  0  0  0999 V2000
   39.5310   32.0880   38.3580 C   0  0  0  0  0  0  0  0  0  0  0  0
   40.6620   32.4850   39.0720 C   0  0  0  0  0  0  0  0  0  0  0  0
   40.6810   32.2960   40.4660 C   0  0  0  0  0  0  0  0  0  0  0  0
   39.5870   31.7380   41.0200 N   0  0  0  0  0  0  0  0  0  0  0  0
   38.5070   31.3610   40.3280 C   0  0  0  0  0  0  0  0  0  0  0  0
   38.4800   31.5390   38.9810 N   0  0  0  0  0  0  0  0  0  0  0  0
   39.5320   32.2840   36.9450 N   0  0  0  0  0  0  0  0  0  0  0  0
   41.5460   32.9350   38.6300 H   0  0  0  0  0  0  0  0  0  0  0  0
   41.4740   32.5530   41.1210 H   0  0  0  0  0  0  0  0  0  0  0  0
   40.1730   31.6460   36.4110 H   0  0  0  0  0  0  0  0  0  0  0  0
   38.9230   33.0160   36.5260 H   0  0  0  0  0  0  0  0  0  0  0  0
   37.3370   30.7560   40.9320 C   0  0  0  0  0  0  0  0  0  0  0  0
   36.2010   31.3270   40.9310 O   0  0  0  0  0  0  0  0  0  0  0  0
   37.3360   29.4540   41.5920 C   0  0  0  0  0  0  0  0  0  0  0  0
   36.9670   28.2770   40.9780 C   0  0  0  0  0  0  0  0  0  0  0  0
   36.6690   28.2670   39.9550 H   0  0  0  0  0  0  0  0  0  0  0  0
   36.9490   27.0420   41.5890 C   0  0  0  0  0  3  0  0  0  0  0  0
   37.3260   26.9530   42.9210 C   0  0  0  0  0  0  0  0  0  0  0  0
   37.3150   25.9920   43.4110 H   0  0  0  0  0  0  0  0  0  0  0  0
   37.7060   28.0910   43.5910 C   0  0  0  0  0  0  0  0  0  0  0  0
   37.9930   27.9910   44.6240 H   0  0  0  0  0  0  0  0  0  0  0  0
   37.6990   29.2870   42.9130 C   0  0  0  0  0  3  0  0  0  0  0  0
  1  6  2  0  0  0  0
  1  2  1  0  0  0  0
  2  3  2  0  0  0  0
  3  4  1  0  0  0  0
  3  9  1  0  0  0  0
  5 12  1  0  0  0  0
  5  4  2  0  0  0  0
  6  5  1  0  0  0  0
  7  1  1  0  0  0  0
  8  2  1  0  0  0  0
 10  7  1  0  0  0  0
 11  7  1  0  0  0  0
 12 14  1  0  0  0  0
 13 12  2  0  0  0  0
 14 22  1  0  0  0  0
 15 17  1  0  0  0  0
 15 14  2  0  0  0  0
 16 15  1  0  0  0  0
 17 18  2  0  0  0  0
 18 19  1  0  0  0  0
 18 20  1  0  0  0  0
 20 21  1  0  0  0  0
 22 20  2  0  0  0  0
M  END
>  <minimizedAffinity>
-4.87859488

$$$$

 OpenBabel03242512283D

 22 23  0  0  0  0  0  0  0  0999 V2000
   37.0980   31.4600   40.1940 C   0  0  0  0  0  0  0  0  0  0  0  0
   37.0430   30.9320   38.9030 C   0  0  0  0  0  0  0  0  0  0  0  0
   37.2720   29.5560   38.7260 C   0  0  0  0  0  0  0  0  0  0  0  0
   37.5330   28.8340   39.8340 N   0  0  0  0  0  0  0  0  0  0  0  0
   37.5840   29.3480   41.0670 C   0  0  0  0  0  0  0  0  0  0  0  0
   37.3640   30.6770   41.2470 N   0  0  0  0  0  0  0  0  0  0  0  0
   36.8590   32.8570   40.3530 N   0  0  0  0  0  0  0  0  0  0  0  0
   36.8330   31.5100   38.0080 H   0  0  0  0  0  0  0  0  0  0  0  0
   37.2590   29.0330   37.8040 H   0  0  0  0  0  0  0  0  0  0  0  0
   35.8630   33.1550   40.2040 H   0  0  0  0  0  0  0  0  0  0  0  0
   37.6470   33.4890   40.6020 H   0  0  0  0  0  0  0  0  0  0  0  0
   37.8600   28.5640   42.2530 C   0  0  0  0  0  0  0  0  0  0  0  0
   37.9820   29.0920   43.4040 O   0  0  0  0  0  0  0  0  0  0  0  0
   38.0240   27.1130   42.2570 C   0  0  0  0  0  0  0  0  0  0  0  0
   39.2430   26.4720   42.2480 C   0  0  0  0  0  0  0  0  0  0  0  0
   40.1510   27.0310   42.2520 H   0  0  0  0  0  0  0  0  0  0  0  0
   39.4150   25.1050   42.2400 C   0  0  0  0  0  3  0  0  0  0  0  0
   38.2890   24.2930   42.2400 C   0  0  0  0  0  0  0  0  0  0  0  0
   38.4110   23.2220   42.2320 H   0  0  0  0  0  0  0  0  0  0  0  0
   37.0420   24.8700   42.2490 C   0  0  0  0  0  0  0  0  0  0  0  0
   36.1880   24.2150   42.2480 H   0  0  0  0  0  0  0  0  0  0  0  0
   36.9530   26.2430   42.2570 C   0  0  0  0  0  3  0  0  0  0  0  0
  1  7  1  0  0  0  0
  1  6  1  0  0  0  0
  2  1  2  0  0  0  0
  3  2  1  0  0  0  0
  3  4  2  0  0  0  0
  4  5  1  0  0  0  0
  5  6  2  0  0  0  0
  5 12  1  0  0  0  0
  7 11  1  0  0  0  0
  8  2  1  0  0  0  0
  9  3  1  0  0  0  0
 10  7  1  0  0  0  0
 12 14  1  0  0  0  0
 12 13  2  0  0  0  0
 14 22  1  0  0  0  0
 15 16  1  0  0  0  0
 15 14  2  0  0  0  0
 17 18  2  0  0  0  0
 17 15  1  0  0  0  0
 18 20  1  0  0  0  0
 19 18  1  0  0  0  0
 20 22  2  0  0  0  0
 21 20  1  0  0  0  0
M  END
>  <minimizedAffinity>
-4.8223176

$$$$

 OpenBabel03242512283D

 22 23  0  0  0  0  0  0  0  0999 V2000
   37.3200   26.6960   42.3840 C   0  0  0  0  0  0  0  0  0  0  0  0
   37.9400   27.3830   43.4280 C   0  0  0  0  0  0  0  0  0  0  0  0
   37.8550   28.7870   43.4560 C   0  0  0  0  0  0  0  0  0  0  0  0
   37.1690   29.3760   42.4570 N   0  0  0  0  0  0  0  0  0  0  0  0
   36.5780   28.7090   41.4600 C   0  0  0  0  0  0  0  0  0  0  0  0
   36.6560   27.3520   41.4260 N   0  0  0  0  0  0  0  0  0  0  0  0
   37.4150   25.2720   42.3750 N   0  0  0  0  0  0  0  0  0  0  0  0
   38.4940   26.9130   44.2350 H   0  0  0  0  0  0  0  0  0  0  0  0
   38.2800   29.4250   44.1890 H   0  0  0  0  0  0  0  0  0  0  0  0
   36.8510   24.7870   43.1170 H   0  0  0  0  0  0  0  0  0  0  0  0
   38.0100   24.8000   41.6640 H   0  0  0  0  0  0  0  0  0  0  0  0
   35.8380   29.3500   40.3930 C   0  0  0  0  0  0  0  0  0  0  0  0
   34.5780   29.2270   40.2720 O   0  0  0  0  0  0  0  0  0  0  0  0
   36.4440   30.1900   39.3640 C   0  0  0  0  0  0  0  0  0  0  0  0
   36.7120   29.7680   38.0800 C   0  0  0  0  0  0  0  0  0  0  0  0
   36.4660   28.7780   37.7710 H   0  0  0  0  0  0  0  0  0  0  0  0
   37.2940   30.5430   37.1020 C   0  0  0  0  0  3  0  0  0  0  0  0
   37.6440   31.8510   37.4090 C   0  0  0  0  0  0  0  0  0  0  0  0
   38.1020   32.4670   36.6520 H   0  0  0  0  0  0  0  0  0  0  0  0
   37.4030   32.3340   38.6730 C   0  0  0  0  0  0  0  0  0  0  0  0
   37.6870   33.3510   38.8820 H   0  0  0  0  0  0  0  0  0  0  0  0
   36.8180   31.4980   39.5960 C   0  0  0  0  0  3  0  0  0  0  0  0
  1  2  1  0  0  0  0
  2  3  2  0  0  0  0
  2  8  1  0  0  0  0
  3  9  1  0  0  0  0
  4  3  1  0  0  0  0
  5  4  2  0  0  0  0
  6  5  1  0  0  0  0
  6  1  2  0  0  0  0
  7  1  1  0  0  0  0
  7 10  1  0  0  0  0
 11  7  1  0  0  0  0
 12  5  1  0  0  0  0
 13 12  2  0  0  0  0
 14 22  1  0  0  0  0
 14 12  1  0  0  0  0
 15 14  2  0  0  0  0
 16 15  1  0  0  0  0
 17 18  2  0  0  0  0
 17 15  1  0  0  0  0
 18 20  1  0  0  0  0
 19 18  1  0  0  0  0
 20 21  1  0  0  0  0
 20 22  2  0  0  0  0
M  END
>  <minimizedAffinity>
-4.74233484

$$$$

 OpenBabel03242512283D

 22 23  0  0  0  0  0  0  0  0999 V2000
   38.8380   24.3560   42.2740 C   0  0  0  0  0  0  0  0  0  0  0  0
   38.4960   23.7920   41.0450 C   0  0  0  0  0  0  0  0  0  0  0  0
   37.5210   24.4290   40.2580 C   0  0  0  0  0  0  0  0  0  0  0  0
   36.9780   25.5570   40.7560 N   0  0  0  0  0  0  0  0  0  0  0  0
   37.3110   26.0910   41.9350 C   0  0  0  0  0  0  0  0  0  0  0  0
   38.2530   25.4820   42.7020 N   0  0  0  0  0  0  0  0  0  0  0  0
   39.8320   23.6970   43.0570 N   0  0  0  0  0  0  0  0  0  0  0  0
   38.9310   22.8820   40.6400 H   0  0  0  0  0  0  0  0  0  0  0  0
   37.1720   24.1050   39.3100 H   0  0  0  0  0  0  0  0  0  0  0  0
   40.8100   23.7660   42.6790 H   0  0  0  0  0  0  0  0  0  0  0  0
   39.5560   23.2010   43.9290 H   0  0  0  0  0  0  0  0  0  0  0  0
   36.7260   27.3080   42.4600 C   0  0  0  0  0  0  0  0  0  0  0  0
   36.2240   27.3720   43.6260 O   0  0  0  0  0  0  0  0  0  0  0  0
   36.6520   28.5660   41.7230 C   0  0  0  0  0  0  0  0  0  0  0  0
   37.5720   29.5860   41.8390 C   0  0  0  0  0  0  0  0  0  0  0  0
   38.4130   29.4880   42.4860 H   0  0  0  0  0  0  0  0  0  0  0  0
   37.5100   30.7830   41.1610 C   0  0  0  0  0  3  0  0  0  0  0  0
   36.4520   31.0010   40.2890 C   0  0  0  0  0  0  0  0  0  0  0  0
   36.3920   31.9350   39.7540 H   0  0  0  0  0  0  0  0  0  0  0  0
   35.5000   30.0230   40.1280 C   0  0  0  0  0  0  0  0  0  0  0  0
   34.6910   30.2200   39.4460 H   0  0  0  0  0  0  0  0  0  0  0  0
   35.6310   28.8540   40.8400 C   0  0  0  0  0  3  0  0  0  0  0  0
  1  6  1  0  0  0  0
  1  7  1  0  0  0  0
  2  1  2  0  0  0  0
  3  4  2  0  0  0  0
  3  2  1  0  0  0  0
  4  5  1  0  0  0  0
  5 12  1  0  0  0  0
  5  6  2  0  0  0  0
  7 11  1  0  0  0  0
  8  2  1  0  0  0  0
  9  3  1  0  0  0  0
 10  7  1  0  0  0  0
 12 13  2  0  0  0  0
 14 15  1  0  0  0  0
 14 12  1  0  0  0  0
 15 16  1  0  0  0  0
 17 15  2  0  0  0  0
 18 17  1  0  0  0  0
 19 18  1  0  0  0  0
 20 18  2  0  0  0  0
 20 22  1  0  0  0  0
 21 20  1  0  0  0  0
 22 14  2  0  0  0  0
M  END
>  <minimizedAffinity>
-4.68071795

$$$$

 OpenBabel03242512283D

 22 23  0  0  0  0  0  0  0  0999 V2000
   36.3880   29.4810   37.1580 C   0  0  0  0  0  0  0  0  0  0  0  0
   35.1550   28.8850   36.8910 C   0  0  0  0  0  0  0  0  0  0  0  0
   34.2680   28.6630   37.9590 C   0  0  0  0  0  0  0  0  0  0  0  0
   34.6800   29.0460   39.1830 N   0  0  0  0  0  0  0  0  0  0  0  0
   35.8640   29.6160   39.4300 C   0  0  0  0  0  0  0  0  0  0  0  0
   36.7270   29.8350   38.4040 N   0  0  0  0  0  0  0  0  0  0  0  0
   37.2730   29.7020   36.0610 N   0  0  0  0  0  0  0  0  0  0  0  0
   34.8190   28.5740   35.9060 H   0  0  0  0  0  0  0  0  0  0  0  0
   33.3060   28.2210   37.8910 H   0  0  0  0  0  0  0  0  0  0  0  0
   36.9760   30.4620   35.3990 H   0  0  0  0  0  0  0  0  0  0  0  0
   38.1350   29.1270   35.9710 H   0  0  0  0  0  0  0  0  0  0  0  0
   36.2950   30.0310   40.7490 C   0  0  0  0  0  0  0  0  0  0  0  0
   36.1180   31.2140   41.1810 O   0  0  0  0  0  0  0  0  0  0  0  0
   36.9650   29.1550   41.7060 C   0  0  0  0  0  0  0  0  0  0  0  0
   38.2100   29.4030   42.2420 C   0  0  0  0  0  0  0  0  0  0  0  0
   38.7490   30.2840   41.9800 H   0  0  0  0  0  0  0  0  0  0  0  0
   38.8600   28.5820   43.1360 C   0  0  0  0  0  3  0  0  0  0  0  0
   38.2340   27.4110   43.5420 C   0  0  0  0  0  0  0  0  0  0  0  0
   38.7340   26.7600   44.2410 H   0  0  0  0  0  0  0  0  0  0  0  0
   36.9900   27.1050   43.0450 C   0  0  0  0  0  0  0  0  0  0  0  0
   36.5300   26.1910   43.3770 H   0  0  0  0  0  0  0  0  0  0  0  0
   36.4050   27.9760   42.1560 C   0  0  0  0  0  3  0  0  0  0  0  0
  1  6  1  0  0  0  0
  2  1  2  0  0  0  0
  2  3  1  0  0  0  0
  3  4  2  0  0  0  0
  4  5  1  0  0  0  0
  5 12  1  0  0  0  0
  6  5  2  0  0  0  0
  7  1  1  0  0  0  0
  8  2  1  0  0  0  0
  9  3  1  0  0  0  0
 10  7  1  0  0  0  0
 11  7  1  0  0  0  0
 12 13  2  0  0  0  0
 12 14  1  0  0  0  0
 14 22  2  0  0  0  0
 14 15  1  0  0  0  0
 15 17  2  0  0  0  0
 16 15  1  0  0  0  0
 17 18  1  0  0  0  0
 18 19  1  0  0  0  0
 20 21  1  0  0  0  0
 20 18  2  0  0  0  0
 22 20  1  0  0  0  0
M  END
>  <minimizedAffinity>
-4.64908791

$$$$
