
 OpenBabel03252507163D

 29 31  0  0  0  0  0  0  0  0999 V2000
   45.1620   36.1710   43.5180 C   0  0  0  0  0  0  0  0  0  0  0  0
   45.7880   34.9820   43.1300 C   0  0  0  0  0  0  0  0  0  0  0  0
   45.8100   33.9270   44.0460 C   0  0  0  0  0  0  0  0  0  0  0  0
   45.2340   34.1110   45.2390 N   0  0  0  0  0  0  0  0  0  0  0  0
   44.6290   35.2680   45.6070 C   0  0  0  0  0  0  0  0  0  0  0  0
   44.6080   36.2700   44.7380 N   0  0  0  0  0  0  0  0  0  0  0  0
   45.1040   37.0370   42.8700 H   0  0  0  0  0  0  0  0  0  0  0  0
   44.2080   35.2650   46.6020 H   0  0  0  0  0  0  0  0  0  0  0  0
   46.4540   32.6870   43.6610 C   0  0  0  0  0  0  0  0  0  0  0  0
   45.6820   31.6210   43.2420 C   0  0  0  0  0  0  0  0  0  0  0  0
   46.3170   30.4600   42.8760 C   0  0  0  0  0  0  0  0  0  0  0  0
   47.7090   30.2990   42.9050 C   0  0  0  0  0  0  0  0  0  0  0  0
   48.4200   31.4150   43.3380 C   0  0  0  0  0  0  0  0  0  0  0  0
   47.7730   32.5340   43.6880 N   0  0  0  0  0  0  0  0  0  0  0  0
   44.5900   31.6900   43.2000 H   0  0  0  0  0  0  0  0  0  0  0  0
   45.7400   29.5840   42.5370 H   0  0  0  0  0  0  0  0  0  0  0  0
   48.2160   29.4030   42.6240 H   0  0  0  0  0  0  0  0  0  0  0  0
   49.4980   31.3460   43.3780 H   0  0  0  0  0  0  0  0  0  0  0  0
   46.3830   34.8570   41.8250 C   0  0  0  0  0  0  0  0  0  0  0  0
   47.5520   35.3050   41.6910 O   0  0  0  0  0  0  0  0  0  0  0  0
   45.5920   34.2180   40.7500 C   0  0  0  0  0  0  0  0  0  0  0  0
   46.2630   33.3790   39.8540 C   0  0  0  0  0  0  0  0  0  0  0  0
   47.2920   33.1500   39.8890 H   0  0  0  0  0  0  0  0  0  0  0  0
   45.3320   32.9070   38.9220 C   0  0  0  0  0  3  0  0  0  0  0  0
   44.0030   33.1510   38.8130 C   0  0  0  0  0  0  0  0  0  0  0  0
   43.4350   32.6920   38.0200 H   0  0  0  0  0  0  0  0  0  0  0  0
   43.4830   33.9970   39.7690 C   0  0  0  0  0  0  0  0  0  0  0  0
   42.4340   34.2370   39.7410 H   0  0  0  0  0  0  0  0  0  0  0  0
   44.2630   34.5500   40.7590 C   0  0  0  0  0  3  0  0  0  0  0  0
  1  6  1  0  0  0  0
  2  1  2  0  0  0  0
  2  3  1  0  0  0  0
  3  4  2  0  0  0  0
  4  5  1  0  0  0  0
  5  8  1  0  0  0  0
  6  5  2  0  0  0  0
  7  1  1  0  0  0  0
  9 14  1  0  0  0  0
  9  3  1  0  0  0  0
 10  9  2  0  0  0  0
 11 12  2  0  0  0  0
 11 10  1  0  0  0  0
 12 13  1  0  0  0  0
 13 18  1  0  0  0  0
 13 14  2  0  0  0  0
 15 10  1  0  0  0  0
 16 11  1  0  0  0  0
 17 12  1  0  0  0  0
 19  2  1  0  0  0  0
 20 19  2  0  0  0  0
 21 29  1  0  0  0  0
 21 19  1  0  0  0  0
 22 23  1  0  0  0  0
 22 21  2  0  0  0  0
 24 22  1  0  0  0  0
 25 24  2  0  0  0  0
 25 27  1  0  0  0  0
 26 25  1  0  0  0  0
 27 29  2  0  0  0  0
 28 27  1  0  0  0  0
M  END
>  <minimizedAffinity>
-4.63733244

>  <minimizedRMSD>
0.642081439

$$$$
