
 OpenBabel03242520013D

 30 32  0  0  1  0  0  0  0  0999 V2000
   44.6380   33.0250   41.2300 Br  0  0  0  0  0  0  0  0  0  0  0  0
   46.2870   33.9470   41.0170 C   0  0  0  0  0  0  0  0  0  0  0  0
   46.8290   34.7430   42.0080 C   0  0  0  0  0  0  0  0  0  0  0  0
   48.0410   35.3930   41.7580 C   0  0  0  0  0  0  0  0  0  0  0  0
   48.7060   35.2600   40.5530 C   0  0  0  0  0  0  0  0  0  0  0  0
   48.1510   34.4520   39.5510 C   0  0  0  0  0  0  0  0  0  0  0  0
   46.9690   33.8370   39.8390 C   0  0  0  0  0  0  0  0  0  0  0  0
   48.4220   35.9960   42.5500 H   0  0  0  0  0  0  0  0  0  0  0  0
   49.6320   35.7990   40.4530 H   0  0  0  0  0  0  0  0  0  0  0  0
   48.6890   34.3650   38.6130 H   0  0  0  0  0  0  0  0  0  0  0  0
   44.4930   35.9250   44.7290 C   0  0  0  0  0  0  0  0  0  0  0  0
   45.1890   35.8550   43.5090 C   0  0  0  0  0  0  0  0  0  0  0  0
   46.0880   34.8510   43.2560 C   0  0  0  0  0  0  0  0  0  0  0  0
   46.2270   33.9690   44.2660 N   0  0  0  0  0  0  0  0  0  0  0  0
   45.5760   34.0160   45.4270 C   0  0  0  0  0  0  0  0  0  0  0  0
   44.7140   34.9850   45.6640 N   0  0  0  0  0  0  0  0  0  0  0  0
   43.8120   36.7480   44.8310 H   0  0  0  0  0  0  0  0  0  0  0  0
   45.0130   36.6090   42.7570 H   0  0  0  0  0  0  0  0  0  0  0  0
   45.7770   33.2420   46.1630 H   0  0  0  0  0  0  0  0  0  0  0  0
   46.4430   32.9970   38.8170 C   0  0  1  0  0  0  0  0  0  0  0  0
   45.4460   33.3740   38.0630 O   0  0  0  0  0  0  0  0  0  0  0  0
   46.7550   31.6680   38.3170 C   0  0  0  0  0  0  0  0  0  0  0  0
   47.4980   31.4820   37.1390 C   0  0  0  0  0  0  0  0  0  0  0  0
   47.8230   32.3340   36.5160 H   0  0  0  0  0  0  0  0  0  0  0  0
   47.8790   30.2690   36.6110 C   0  0  0  0  0  0  0  0  0  0  0  0
   47.5110   29.1320   37.2760 C   0  0  0  0  0  0  0  0  0  0  0  0
   47.7490   28.1330   36.9620 H   0  0  0  0  0  0  0  0  0  0  0  0
   46.7820   29.2300   38.4330 C   0  0  0  0  0  0  0  0  0  0  0  0
   46.4590   28.3480   39.0090 H   0  0  0  0  0  0  0  0  0  0  0  0
   46.4370   30.4710   38.9030 C   0  0  0  0  0  0  0  0  0  0  0  0
  2  1  1  0  0  0  0
  2  3  1  0  0  0  0
  3 13  1  0  0  0  0
  4  3  2  0  0  0  0
  4  8  1  0  0  0  0
  5  4  1  0  0  0  0
  6  7  1  0  0  0  0
  6  5  2  0  0  0  0
  7  2  2  0  0  0  0
  9  5  1  0  0  0  0
 10  6  1  0  0  0  0
 11 17  1  0  0  0  0
 11 16  1  0  0  0  0
 12 11  2  0  0  0  0
 13 12  1  0  0  0  0
 13 14  2  0  0  0  0
 14 15  1  0  0  0  0
 15 16  2  0  0  0  0
 15 19  1  0  0  0  0
 18 12  1  0  0  0  0
 20 21  1  6  0  0  0
 20  7  1  0  0  0  0
 22 20  1  0  0  0  0
 22 30  1  0  0  0  0
 23 22  2  0  0  0  0
 24 23  1  0  0  0  0
 25 23  1  0  0  0  0
 25 26  2  0  0  0  0
 26 28  1  0  0  0  0
 27 26  1  0  0  0  0
 28 30  2  0  0  0  0
 28 29  1  0  0  0  0
M  END
>  <minimizedAffinity>
-5.19117355

>  <minimizedRMSD>
1.49888456

$$$$
