
 OpenBabel03252507163D

 29 31  0  0  0  0  0  0  0  0999 V2000
   45.1880   36.1920   43.5150 C   0  0  0  0  0  0  0  0  0  0  0  0
   45.8080   34.9990   43.1280 C   0  0  0  0  0  0  0  0  0  0  0  0
   45.8070   33.9390   44.0390 C   0  0  0  0  0  0  0  0  0  0  0  0
   45.2180   34.1220   45.2250 N   0  0  0  0  0  0  0  0  0  0  0  0
   44.6200   35.2820   45.5920 C   0  0  0  0  0  0  0  0  0  0  0  0
   44.6190   36.2900   44.7290 N   0  0  0  0  0  0  0  0  0  0  0  0
   45.1460   37.0620   42.8720 H   0  0  0  0  0  0  0  0  0  0  0  0
   44.1860   35.2780   46.5810 H   0  0  0  0  0  0  0  0  0  0  0  0
   46.4450   32.6950   43.6550 C   0  0  0  0  0  0  0  0  0  0  0  0
   45.6690   31.6450   43.2010 C   0  0  0  0  0  0  0  0  0  0  0  0
   46.2970   30.4800   42.8370 C   0  0  0  0  0  0  0  0  0  0  0  0
   47.6860   30.2990   42.9000 C   0  0  0  0  0  0  0  0  0  0  0  0
   48.4010   31.3990   43.3660 C   0  0  0  0  0  0  0  0  0  0  0  0
   47.7600   32.5230   43.7140 N   0  0  0  0  0  0  0  0  0  0  0  0
   44.5800   31.7300   43.1320 H   0  0  0  0  0  0  0  0  0  0  0  0
   45.7170   29.6160   42.4720 H   0  0  0  0  0  0  0  0  0  0  0  0
   48.1880   29.3990   42.6210 H   0  0  0  0  0  0  0  0  0  0  0  0
   49.4760   31.3150   43.4330 H   0  0  0  0  0  0  0  0  0  0  0  0
   46.4180   34.8760   41.8310 C   0  0  0  0  0  0  0  0  0  0  0  0
   47.5930   35.3120   41.7140 O   0  0  0  0  0  0  0  0  0  0  0  0
   45.6330   34.2530   40.7410 C   0  0  0  0  0  0  0  0  0  0  0  0
   44.2500   34.4570   40.7310 C   0  0  0  0  0  0  0  0  0  0  0  0
   43.7150   35.0340   41.4340 H   0  0  0  0  0  0  0  0  0  0  0  0
   43.7170   33.7680   39.6350 C   0  0  0  0  0  3  0  0  0  0  0  0
   44.3350   33.0120   38.6930 C   0  0  0  0  0  0  0  0  0  0  0  0
   43.7560   32.5540   37.9080 H   0  0  0  0  0  0  0  0  0  0  0  0
   45.7020   32.9050   38.8340 C   0  0  0  0  0  0  0  0  0  0  0  0
   46.2570   32.3170   38.1220 H   0  0  0  0  0  0  0  0  0  0  0  0
   46.3840   33.5200   39.8590 C   0  0  0  0  0  3  0  0  0  0  0  0
  1  6  1  0  0  0  0
  2  1  2  0  0  0  0
  2  3  1  0  0  0  0
  3  4  2  0  0  0  0
  4  5  1  0  0  0  0
  5  8  1  0  0  0  0
  6  5  2  0  0  0  0
  7  1  1  0  0  0  0
  9 14  1  0  0  0  0
  9  3  1  0  0  0  0
 10  9  2  0  0  0  0
 11 12  2  0  0  0  0
 11 10  1  0  0  0  0
 12 13  1  0  0  0  0
 13 18  1  0  0  0  0
 13 14  2  0  0  0  0
 15 10  1  0  0  0  0
 16 11  1  0  0  0  0
 17 12  1  0  0  0  0
 19  2  1  0  0  0  0
 20 19  2  0  0  0  0
 21 19  1  0  0  0  0
 22 21  1  0  0  0  0
 22 23  1  0  0  0  0
 24 22  2  0  0  0  0
 25 27  2  0  0  0  0
 25 24  1  0  0  0  0
 26 25  1  0  0  0  0
 27 29  1  0  0  0  0
 28 27  1  0  0  0  0
 29 21  2  0  0  0  0
M  END
>  <minimizedAffinity>
-4.61752701

>  <minimizedRMSD>
0.397433668

$$$$
