
 OpenBabel03252507163D

 29 31  0  0  0  0  0  0  0  0999 V2000
   45.2340   36.2190   43.5180 C   0  0  0  0  0  0  0  0  0  0  0  0
   45.8590   35.0260   43.1390 C   0  0  0  0  0  0  0  0  0  0  0  0
   45.8250   33.9580   44.0400 C   0  0  0  0  0  0  0  0  0  0  0  0
   45.2020   34.1340   45.2100 N   0  0  0  0  0  0  0  0  0  0  0  0
   44.5990   35.2930   45.5690 C   0  0  0  0  0  0  0  0  0  0  0  0
   44.6300   36.3090   44.7160 N   0  0  0  0  0  0  0  0  0  0  0  0
   45.2160   37.0940   42.8820 H   0  0  0  0  0  0  0  0  0  0  0  0
   44.1360   35.2830   46.5450 H   0  0  0  0  0  0  0  0  0  0  0  0
   46.4670   32.7140   43.6640 C   0  0  0  0  0  0  0  0  0  0  0  0
   45.6930   31.6500   43.2390 C   0  0  0  0  0  0  0  0  0  0  0  0
   46.3260   30.4850   42.8820 C   0  0  0  0  0  0  0  0  0  0  0  0
   47.7170   30.3170   42.9250 C   0  0  0  0  0  0  0  0  0  0  0  0
   48.4300   31.4300   43.3630 C   0  0  0  0  0  0  0  0  0  0  0  0
   47.7850   32.5540   43.7040 N   0  0  0  0  0  0  0  0  0  0  0  0
   44.6030   31.7250   43.1860 H   0  0  0  0  0  0  0  0  0  0  0  0
   45.7480   29.6110   42.5400 H   0  0  0  0  0  0  0  0  0  0  0  0
   48.2230   29.4180   42.6510 H   0  0  0  0  0  0  0  0  0  0  0  0
   49.5070   31.3560   43.4140 H   0  0  0  0  0  0  0  0  0  0  0  0
   46.5060   34.9100   41.8590 C   0  0  0  0  0  0  0  0  0  0  0  0
   47.6600   35.4040   41.7630 O   0  0  0  0  0  0  0  0  0  0  0  0
   45.7820   34.2270   40.7640 C   0  0  0  0  0  0  0  0  0  0  0  0
   44.3930   34.3700   40.7070 C   0  0  0  0  0  0  0  0  0  0  0  0
   43.8120   34.9400   41.3800 H   0  0  0  0  0  0  0  0  0  0  0  0
   43.9240   33.6320   39.6140 C   0  0  0  0  0  3  0  0  0  0  0  0
   44.6020   32.8830   38.7100 C   0  0  0  0  0  0  0  0  0  0  0  0
   44.0670   32.3790   37.9220 H   0  0  0  0  0  0  0  0  0  0  0  0
   45.9670   32.8390   38.8940 C   0  0  0  0  0  0  0  0  0  0  0  0
   46.5670   32.2590   38.2140 H   0  0  0  0  0  0  0  0  0  0  0  0
   46.5900   33.5070   39.9220 C   0  0  0  0  0  3  0  0  0  0  0  0
  1  6  1  0  0  0  0
  2  1  2  0  0  0  0
  2  3  1  0  0  0  0
  3  4  2  0  0  0  0
  4  5  1  0  0  0  0
  5  8  1  0  0  0  0
  6  5  2  0  0  0  0
  7  1  1  0  0  0  0
  9 14  1  0  0  0  0
  9  3  1  0  0  0  0
 10  9  2  0  0  0  0
 11 12  2  0  0  0  0
 11 10  1  0  0  0  0
 12 13  1  0  0  0  0
 13 18  1  0  0  0  0
 13 14  2  0  0  0  0
 15 10  1  0  0  0  0
 16 11  1  0  0  0  0
 17 12  1  0  0  0  0
 19  2  1  0  0  0  0
 20 19  2  0  0  0  0
 21 19  1  0  0  0  0
 22 21  1  0  0  0  0
 22 23  1  0  0  0  0
 24 22  2  0  0  0  0
 25 27  2  0  0  0  0
 25 24  1  0  0  0  0
 26 25  1  0  0  0  0
 27 29  1  0  0  0  0
 28 27  1  0  0  0  0
 29 21  2  0  0  0  0
M  END
>  <minimizedAffinity>
-4.58007574

>  <minimizedRMSD>
0.464731723

$$$$
