
 OpenBabel03252503323D

 41 43  0  0  1  0  0  0  0  0999 V2000
   45.4140   34.5220   42.2190 C   0  0  0  0  0  0  0  0  0  0  0  0
   46.5230   35.2410   41.6860 C   0  0  0  0  0  0  0  0  0  0  0  0
   47.7950   34.8480   42.1360 C   0  0  0  0  0  0  0  0  0  0  0  0
   47.8650   33.8390   43.0220 N   0  0  0  0  0  0  0  0  0  0  0  0
   46.7810   33.1820   43.5010 C   0  0  0  0  0  0  0  0  0  0  0  0
   45.5470   33.5380   43.0870 N   0  0  0  0  0  0  0  0  0  0  0  0
   43.8120   34.3960   40.5090 C   0  0  0  0  0  0  0  0  0  0  0  0
   44.7340   33.7930   39.8610 O   0  0  0  0  0  0  0  0  0  0  0  0
   44.0830   34.8640   41.8100 N   0  0  0  0  0  0  0  0  0  0  0  0
   42.5630   34.5530   39.8600 N   0  0  0  0  0  0  0  0  0  0  0  0
   42.4690   34.3500   38.4010 C   0  0  0  0  0  0  0  0  0  0  0  0
   41.3710   35.2930   38.0170 C   0  0  0  0  0  0  0  0  0  0  0  0
   40.8650   35.8850   39.2990 C   0  0  0  0  0  0  0  0  0  0  0  0
   41.2560   34.8720   40.3490 C   0  0  1  0  0  0  0  0  0  0  0  0
   46.3240   36.0360   40.9750 H   0  0  0  0  0  0  0  0  0  0  0  0
   46.8860   32.3700   44.2190 H   0  0  0  0  0  0  0  0  0  0  0  0
   43.3360   35.3780   42.3110 H   0  0  0  0  0  0  0  0  0  0  0  0
   42.2510   33.3010   38.1450 H   0  0  0  0  0  0  0  0  0  0  0  0
   43.3900   34.6930   37.9020 H   0  0  0  0  0  0  0  0  0  0  0  0
   41.6880   36.0750   37.3000 H   0  0  0  0  0  0  0  0  0  0  0  0
   40.5300   34.7350   37.5540 H   0  0  0  0  0  0  0  0  0  0  0  0
   41.6600   36.6880   39.4990 H   0  0  0  0  0  0  0  0  0  0  0  0
   39.9830   36.4350   39.3260 H   0  0  0  0  0  0  0  0  0  0  0  0
   41.2050   35.3500   41.3350 H   0  0  0  0  0  0  0  0  0  0  0  0
   39.8100   33.1450   41.5830 C   0  0  0  0  0  0  0  0  0  0  0  0
   39.8620   33.9820   42.5050 O   0  0  0  0  0  0  0  0  0  0  0  0
   40.4330   33.6730   40.3850 N   0  0  0  0  0  0  0  0  0  0  0  0
   40.2920   33.1660   39.4580 H   0  0  0  0  0  0  0  0  0  0  0  0
   39.2360   31.8380   41.6310 C   0  0  0  0  0  0  0  0  0  0  0  0
   38.0250   31.4880   41.0690 C   0  0  0  0  0  0  0  0  0  0  0  0
   37.4510   32.2380   40.5530 H   0  0  0  0  0  0  0  0  0  0  0  0
   37.5070   30.2120   41.1390 C   0  0  0  0  0  0  0  0  0  0  0  0
   38.1990   29.2060   41.7900 C   0  0  0  0  0  0  0  0  0  0  0  0
   37.7360   28.2440   41.8030 H   0  0  0  0  0  0  0  0  0  0  0  0
   39.4120   29.5510   42.3530 C   0  0  0  0  0  0  0  0  0  0  0  0
   39.9040   28.7050   42.8520 H   0  0  0  0  0  0  0  0  0  0  0  0
   39.9180   30.8470   42.2720 C   0  0  0  0  0  0  0  0  0  0  0  0
   48.9120   35.5990   41.5770 C   0  0  0  0  0  0  0  0  0  0  0  0
   50.0980   34.9840   41.9570 F   0  0  0  0  0  0  0  0  0  0  0  0
   48.9240   36.8420   42.2370 F   0  0  0  0  0  0  0  0  0  0  0  0
   48.8740   35.7160   40.2250 F   0  0  0  0  0  0  0  0  0  0  0  0
  1  6  1  0  0  0  0
  2  3  1  0  0  0  0
  2  1  2  0  0  0  0
  3  4  2  0  0  0  0
  4  5  1  0  0  0  0
  5 16  1  0  0  0  0
  6  5  2  0  0  0  0
  7  9  1  0  0  0  0
  8  7  2  0  0  0  0
  9  1  1  0  0  0  0
  9 17  1  0  0  0  0
 10 14  1  0  0  0  0
 10  7  1  0  0  0  0
 11 10  1  0  0  0  0
 12 11  1  0  0  0  0
 12 13  1  0  0  0  0
 13 23  1  0  0  0  0
 13 22  1  0  0  0  0
 13 14  1  0  0  0  0
 14 27  1  0  0  0  0
 14 24  1  1  0  0  0
 15  2  1  0  0  0  0
 18 11  1  0  0  0  0
 19 11  1  0  0  0  0
 20 12  1  0  0  0  0
 21 12  1  0  0  0  0
 25 29  1  0  0  0  0
 25 26  2  0  0  0  0
 27 25  1  0  0  0  0
 28 27  1  0  0  0  0
 29 37  1  0  0  0  0
 30 32  1  0  0  0  0
 30 29  2  0  0  0  0
 31 30  1  0  0  0  0
 32 33  2  0  0  0  0
 33 34  1  0  0  0  0
 33 35  1  0  0  0  0
 35 36  1  0  0  0  0
 37 35  2  0  0  0  0
 38 39  1  0  0  0  0
 38  3  1  0  0  0  0
 38 40  1  0  0  0  0
 41 38  1  0  0  0  0
M  END
>  <minimizedAffinity>
-7.02973557

>  <minimizedRMSD>
1.1743238

$$$$
