
 OpenBabel03252501333D

 24 25  0  0  0  0  0  0  0  0999 V2000
   37.2760   28.1260   40.4270 C   0  0  0  0  0  0  0  0  0  0  0  0
   37.0160   28.6730   39.3120 O   0  0  0  0  0  0  0  0  0  0  0  0
   37.8230   29.0300   41.3820 N   0  0  0  0  0  0  0  0  0  0  0  0
   38.0510   28.7060   42.3180 H   0  0  0  0  0  0  0  0  0  0  0  0
   37.0280   26.7110   40.6810 C   0  0  0  0  0  0  0  0  0  0  0  0
   36.6040   25.9650   39.6020 C   0  0  0  0  0  0  0  0  0  0  0  0
   36.4520   26.3630   38.6140 H   0  0  0  0  0  0  0  0  0  0  0  0
   36.3580   24.6200   39.8010 C   0  0  0  0  0  3  0  0  0  0  0  0
   36.5480   24.0810   41.0740 C   0  0  0  0  0  0  0  0  0  0  0  0
   36.3650   23.0310   41.2690 H   0  0  0  0  0  0  0  0  0  0  0  0
   36.9740   24.8680   42.1260 C   0  0  0  0  0  0  0  0  0  0  0  0
   37.1120   24.4240   43.1000 H   0  0  0  0  0  0  0  0  0  0  0  0
   37.2280   26.2220   41.9510 C   0  0  0  0  0  3  0  0  0  0  0  0
   37.9470   30.3250   40.7520 C   0  0  0  0  0  0  0  0  0  0  0  0
   36.9460   31.2770   40.6860 C   0  0  0  0  0  0  0  0  0  0  0  0
   37.2390   32.4750   40.0400 C   0  0  0  0  0  0  0  0  0  0  0  0
   38.4680   32.6110   39.5320 N   0  0  0  0  0  0  0  0  0  0  0  0
   39.4330   31.6670   39.6070 C   0  0  0  0  0  0  0  0  0  0  0  0
   39.1680   30.5090   40.2270 N   0  0  0  0  0  0  0  0  0  0  0  0
   36.4520   33.1860   40.0050 H   0  0  0  0  0  0  0  0  0  0  0  0
   40.4130   31.8210   39.1830 H   0  0  0  0  0  0  0  0  0  0  0  0
   35.6960   30.9410   41.2920 N   0  0  0  0  0  0  0  0  0  0  0  0
   35.3230   31.0480   42.2610 H   0  0  0  0  0  0  0  0  0  0  0  0
   35.2860   30.5410   40.4020 H   0  0  0  0  0  0  0  0  0  0  0  0
  1  5  1  0  0  0  0
  1  3  1  0  0  0  0
  2  1  2  0  0  0  0
  3  4  1  0  0  0  0
  5 13  1  0  0  0  0
  6  8  1  0  0  0  0
  6  5  2  0  0  0  0
  7  6  1  0  0  0  0
  8  9  2  0  0  0  0
  9 10  1  0  0  0  0
  9 11  1  0  0  0  0
 11 12  1  0  0  0  0
 13 11  2  0  0  0  0
 14  3  1  0  0  0  0
 15 14  1  0  0  0  0
 15 22  1  0  0  0  0
 16 15  2  0  0  0  0
 17 18  2  0  0  0  0
 17 16  1  0  0  0  0
 18 19  1  0  0  0  0
 19 14  2  0  0  0  0
 20 16  1  0  0  0  0
 21 18  1  0  0  0  0
 22 23  1  0  0  0  0
 24 22  1  0  0  0  0
M  END
>  <minimizedAffinity>
-5.14730358

$$$$

 OpenBabel03252501333D

 24 25  0  0  0  0  0  0  0  0999 V2000
   37.2660   28.1330   40.3800 C   0  0  0  0  0  0  0  0  0  0  0  0
   37.0070   28.6940   39.2720 O   0  0  0  0  0  0  0  0  0  0  0  0
   37.8180   29.0230   41.3450 N   0  0  0  0  0  0  0  0  0  0  0  0
   38.0460   28.6870   42.2770 H   0  0  0  0  0  0  0  0  0  0  0  0
   37.0150   26.7160   40.6160 C   0  0  0  0  0  0  0  0  0  0  0  0
   37.2030   26.2720   41.9080 C   0  0  0  0  0  0  0  0  0  0  0  0
   37.5160   26.9000   42.7240 H   0  0  0  0  0  0  0  0  0  0  0  0
   36.9760   24.9350   42.1730 C   0  0  0  0  0  3  0  0  0  0  0  0
   36.5690   24.1010   41.1310 C   0  0  0  0  0  0  0  0  0  0  0  0
   36.3820   23.0470   41.3010 H   0  0  0  0  0  0  0  0  0  0  0  0
   36.3950   24.5900   39.8520 C   0  0  0  0  0  0  0  0  0  0  0  0
   36.0800   23.9210   39.0660 H   0  0  0  0  0  0  0  0  0  0  0  0
   36.6160   25.9290   39.5610 C   0  0  0  0  0  3  0  0  0  0  0  0
   37.9440   30.3260   40.7310 C   0  0  0  0  0  0  0  0  0  0  0  0
   36.9470   31.2840   40.6840 C   0  0  0  0  0  0  0  0  0  0  0  0
   37.2430   32.4890   40.0520 C   0  0  0  0  0  0  0  0  0  0  0  0
   38.4690   32.6250   39.5370 N   0  0  0  0  0  0  0  0  0  0  0  0
   39.4290   31.6740   39.5930 C   0  0  0  0  0  0  0  0  0  0  0  0
   39.1630   30.5100   40.1990 N   0  0  0  0  0  0  0  0  0  0  0  0
   36.4590   33.2040   40.0320 H   0  0  0  0  0  0  0  0  0  0  0  0
   40.4070   31.8280   39.1640 H   0  0  0  0  0  0  0  0  0  0  0  0
   35.7010   30.9460   41.2950 N   0  0  0  0  0  0  0  0  0  0  0  0
   35.3340   31.0430   42.2680 H   0  0  0  0  0  0  0  0  0  0  0  0
   35.2810   30.5610   40.4030 H   0  0  0  0  0  0  0  0  0  0  0  0
  1  5  1  0  0  0  0
  1  3  1  0  0  0  0
  2  1  2  0  0  0  0
  3  4  1  0  0  0  0
  5  6  1  0  0  0  0
  6  8  2  0  0  0  0
  6  7  1  0  0  0  0
  9 10  1  0  0  0  0
  9  8  1  0  0  0  0
 11  9  2  0  0  0  0
 12 11  1  0  0  0  0
 13 11  1  0  0  0  0
 13  5  2  0  0  0  0
 14  3  1  0  0  0  0
 15 14  1  0  0  0  0
 15 22  1  0  0  0  0
 16 15  2  0  0  0  0
 17 18  2  0  0  0  0
 17 16  1  0  0  0  0
 18 19  1  0  0  0  0
 19 14  2  0  0  0  0
 20 16  1  0  0  0  0
 21 18  1  0  0  0  0
 22 23  1  0  0  0  0
 24 22  1  0  0  0  0
M  END
>  <minimizedAffinity>
-5.11916637

$$$$

 OpenBabel03252501333D

 24 25  0  0  0  0  0  0  0  0999 V2000
   38.4660   30.0540   41.4090 C   0  0  0  0  0  0  0  0  0  0  0  0
   38.9980   30.8890   42.2020 O   0  0  0  0  0  0  0  0  0  0  0  0
   38.4850   30.4790   40.0500 N   0  0  0  0  0  0  0  0  0  0  0  0
   38.1030   29.8790   39.3230 H   0  0  0  0  0  0  0  0  0  0  0  0
   37.8980   28.7920   41.8680 C   0  0  0  0  0  0  0  0  0  0  0  0
   37.8040   27.7880   40.9270 C   0  0  0  0  0  0  0  0  0  0  0  0
   38.1190   27.8890   39.9030 H   0  0  0  0  0  0  0  0  0  0  0  0
   37.2720   26.5770   41.3230 C   0  0  0  0  0  3  0  0  0  0  0  0
   36.8560   26.4220   42.6460 C   0  0  0  0  0  0  0  0  0  0  0  0
   36.4330   25.4870   42.9930 H   0  0  0  0  0  0  0  0  0  0  0  0
   36.9700   27.4560   43.5540 C   0  0  0  0  0  0  0  0  0  0  0  0
   36.6400   27.3090   44.5710 H   0  0  0  0  0  0  0  0  0  0  0  0
   37.5020   28.6830   43.1810 C   0  0  0  0  0  3  0  0  0  0  0  0
   39.0970   31.7880   39.9990 C   0  0  0  0  0  0  0  0  0  0  0  0
   38.4280   32.9870   40.1630 C   0  0  0  0  0  0  0  0  0  0  0  0
   39.1770   34.1580   40.0840 C   0  0  0  0  0  0  0  0  0  0  0  0
   40.4870   34.0310   39.8530 N   0  0  0  0  0  0  0  0  0  0  0  0
   41.1230   32.8470   39.6940 C   0  0  0  0  0  0  0  0  0  0  0  0
   40.4170   31.7110   39.7690 N   0  0  0  0  0  0  0  0  0  0  0  0
   38.6360   35.0620   40.2140 H   0  0  0  0  0  0  0  0  0  0  0  0
   42.1840   32.7930   39.5100 H   0  0  0  0  0  0  0  0  0  0  0  0
   37.0210   32.9120   40.4020 N   0  0  0  0  0  0  0  0  0  0  0  0
   36.4510   32.8180   41.2720 H   0  0  0  0  0  0  0  0  0  0  0  0
   36.7660   32.9850   39.3780 H   0  0  0  0  0  0  0  0  0  0  0  0
  1  5  1  0  0  0  0
  1  2  2  0  0  0  0
  3  1  1  0  0  0  0
  4  3  1  0  0  0  0
  5 13  1  0  0  0  0
  6  8  1  0  0  0  0
  6  5  2  0  0  0  0
  7  6  1  0  0  0  0
  8  9  2  0  0  0  0
  9 10  1  0  0  0  0
  9 11  1  0  0  0  0
 11 12  1  0  0  0  0
 13 11  2  0  0  0  0
 14  3  1  0  0  0  0
 14 15  1  0  0  0  0
 15 22  1  0  0  0  0
 16 15  2  0  0  0  0
 16 20  1  0  0  0  0
 17 16  1  0  0  0  0
 18 19  1  0  0  0  0
 18 17  2  0  0  0  0
 19 14  2  0  0  0  0
 21 18  1  0  0  0  0
 22 23  1  0  0  0  0
 24 22  1  0  0  0  0
M  END
>  <minimizedAffinity>
-4.90357018

$$$$

 OpenBabel03252501333D

 24 25  0  0  0  0  0  0  0  0999 V2000
   38.1510   28.4110   41.1200 C   0  0  0  0  0  0  0  0  0  0  0  0
   38.0740   28.7310   39.8940 O   0  0  0  0  0  0  0  0  0  0  0  0
   38.1970   29.5360   41.9920 N   0  0  0  0  0  0  0  0  0  0  0  0
   38.2380   29.3980   42.9990 H   0  0  0  0  0  0  0  0  0  0  0  0
   38.1870   27.0230   41.5650 C   0  0  0  0  0  0  0  0  0  0  0  0
   39.4330   26.5110   41.8620 C   0  0  0  0  0  0  0  0  0  0  0  0
   40.3490   27.0690   41.7850 H   0  0  0  0  0  0  0  0  0  0  0  0
   39.5090   25.1990   42.2870 C   0  0  0  0  0  3  0  0  0  0  0  0
   38.3340   24.4550   42.3950 C   0  0  0  0  0  0  0  0  0  0  0  0
   38.3550   23.4230   42.7240 H   0  0  0  0  0  0  0  0  0  0  0  0
   37.1080   25.0100   42.0850 C   0  0  0  0  0  0  0  0  0  0  0  0
   36.2150   24.4110   42.1780 H   0  0  0  0  0  0  0  0  0  0  0  0
   37.0040   26.3260   41.6570 C   0  0  0  0  0  3  0  0  0  0  0  0
   38.1720   30.7330   41.1820 C   0  0  0  0  0  0  0  0  0  0  0  0
   37.0290   31.4050   40.7880 C   0  0  0  0  0  0  0  0  0  0  0  0
   37.1910   32.5450   40.0070 C   0  0  0  0  0  0  0  0  0  0  0  0
   38.4410   32.9020   39.6960 N   0  0  0  0  0  0  0  0  0  0  0  0
   39.5460   32.2290   40.0910 C   0  0  0  0  0  0  0  0  0  0  0  0
   39.4090   31.1300   40.8440 N   0  0  0  0  0  0  0  0  0  0  0  0
   36.2970   33.0400   39.7200 H   0  0  0  0  0  0  0  0  0  0  0  0
   40.5380   32.5540   39.8160 H   0  0  0  0  0  0  0  0  0  0  0  0
   35.7810   30.8630   41.2250 N   0  0  0  0  0  0  0  0  0  0  0  0
   35.2070   31.0020   42.0860 H   0  0  0  0  0  0  0  0  0  0  0  0
   35.6500   30.2680   40.3600 H   0  0  0  0  0  0  0  0  0  0  0  0
  1  5  1  0  0  0  0
  1  3  1  0  0  0  0
  2  1  2  0  0  0  0
  3  4  1  0  0  0  0
  5 13  2  0  0  0  0
  5  6  1  0  0  0  0
  6  8  2  0  0  0  0
  7  6  1  0  0  0  0
  8  9  1  0  0  0  0
  9 10  1  0  0  0  0
 11 12  1  0  0  0  0
 11  9  2  0  0  0  0
 13 11  1  0  0  0  0
 14  3  1  0  0  0  0
 15 14  2  0  0  0  0
 15 22  1  0  0  0  0
 16 15  1  0  0  0  0
 17 16  2  0  0  0  0
 17 18  1  0  0  0  0
 18 19  2  0  0  0  0
 19 14  1  0  0  0  0
 20 16  1  0  0  0  0
 21 18  1  0  0  0  0
 22 23  1  0  0  0  0
 24 22  1  0  0  0  0
M  END
>  <minimizedAffinity>
-4.84709501

$$$$

 OpenBabel03252501333D

 24 25  0  0  0  0  0  0  0  0999 V2000
   38.0900   31.1230   39.1050 C   0  0  0  0  0  0  0  0  0  0  0  0
   39.1820   30.5920   39.4730 O   0  0  0  0  0  0  0  0  0  0  0  0
   38.2150   32.5070   38.7940 N   0  0  0  0  0  0  0  0  0  0  0  0
   37.4070   33.0310   38.4680 H   0  0  0  0  0  0  0  0  0  0  0  0
   36.8440   30.3690   39.0190 C   0  0  0  0  0  0  0  0  0  0  0  0
   36.2080   30.1070   40.2140 C   0  0  0  0  0  0  0  0  0  0  0  0
   36.5750   30.4210   41.1760 H   0  0  0  0  0  0  0  0  0  0  0  0
   35.0250   29.3950   40.1760 C   0  0  0  0  0  3  0  0  0  0  0  0
   34.5300   28.9770   38.9400 C   0  0  0  0  0  0  0  0  0  0  0  0
   33.6050   28.4160   38.8700 H   0  0  0  0  0  0  0  0  0  0  0  0
   35.2020   29.2630   37.7680 C   0  0  0  0  0  0  0  0  0  0  0  0
   34.7950   28.9260   36.8270 H   0  0  0  0  0  0  0  0  0  0  0  0
   36.3920   29.9770   37.7810 C   0  0  0  0  0  3  0  0  0  0  0  0
   39.5870   32.8970   39.0310 C   0  0  0  0  0  0  0  0  0  0  0  0
   40.6090   32.8180   38.1020 C   0  0  0  0  0  0  0  0  0  0  0  0
   41.8750   33.2390   38.5010 C   0  0  0  0  0  0  0  0  0  0  0  0
   42.0030   33.6870   39.7540 N   0  0  0  0  0  0  0  0  0  0  0  0
   40.9900   33.7550   40.6470 C   0  0  0  0  0  0  0  0  0  0  0  0
   39.7650   33.3550   40.2790 N   0  0  0  0  0  0  0  0  0  0  0  0
   42.6380   33.1670   37.7680 H   0  0  0  0  0  0  0  0  0  0  0  0
   41.1400   34.1250   41.6500 H   0  0  0  0  0  0  0  0  0  0  0  0
   40.2680   32.3100   36.8110 N   0  0  0  0  0  0  0  0  0  0  0  0
   39.9140   32.7610   35.9390 H   0  0  0  0  0  0  0  0  0  0  0  0
   40.5040   31.3090   37.0580 H   0  0  0  0  0  0  0  0  0  0  0  0
  1  2  2  0  0  0  0
  3 14  1  0  0  0  0
  3  1  1  0  0  0  0
  4  3  1  0  0  0  0
  5  1  1  0  0  0  0
  5  6  1  0  0  0  0
  6  7  1  0  0  0  0
  8  6  2  0  0  0  0
  9  8  1  0  0  0  0
 10  9  1  0  0  0  0
 11 13  1  0  0  0  0
 11  9  2  0  0  0  0
 12 11  1  0  0  0  0
 13  5  2  0  0  0  0
 14 19  1  0  0  0  0
 15 16  1  0  0  0  0
 15 14  2  0  0  0  0
 16 17  2  0  0  0  0
 17 18  1  0  0  0  0
 18 21  1  0  0  0  0
 19 18  2  0  0  0  0
 20 16  1  0  0  0  0
 22 24  1  0  0  0  0
 22 15  1  0  0  0  0
 23 22  1  0  0  0  0
M  END
>  <minimizedAffinity>
-4.75623512

$$$$

 OpenBabel03252501333D

 24 25  0  0  0  0  0  0  0  0999 V2000
   37.9410   30.1780   40.9790 C   0  0  0  0  0  0  0  0  0  0  0  0
   38.8700   29.3850   41.3260 O   0  0  0  0  0  0  0  0  0  0  0  0
   36.6560   29.5650   40.9640 N   0  0  0  0  0  0  0  0  0  0  0  0
   35.8340   30.1110   40.7200 H   0  0  0  0  0  0  0  0  0  0  0  0
   38.1920   31.5720   40.6340 C   0  0  0  0  0  0  0  0  0  0  0  0
   37.2020   32.2090   39.9160 C   0  0  0  0  0  0  0  0  0  0  0  0
   36.2830   31.7420   39.6070 H   0  0  0  0  0  0  0  0  0  0  0  0
   37.4020   33.5310   39.5690 C   0  0  0  0  0  3  0  0  0  0  0  0
   38.5860   34.1590   39.9580 C   0  0  0  0  0  0  0  0  0  0  0  0
   38.7780   35.1950   39.7040 H   0  0  0  0  0  0  0  0  0  0  0  0
   39.5500   33.4810   40.6770 C   0  0  0  0  0  0  0  0  0  0  0  0
   40.4570   33.9920   40.9630 H   0  0  0  0  0  0  0  0  0  0  0  0
   39.3730   32.1520   41.0370 C   0  0  0  0  0  3  0  0  0  0  0  0
   36.8180   28.1760   41.3310 C   0  0  0  0  0  0  0  0  0  0  0  0
   36.9180   27.7010   42.6270 C   0  0  0  0  0  0  0  0  0  0  0  0
   37.0700   26.3280   42.7990 C   0  0  0  0  0  0  0  0  0  0  0  0
   37.1080   25.5740   41.6950 N   0  0  0  0  0  0  0  0  0  0  0  0
   37.0090   26.0590   40.4370 C   0  0  0  0  0  0  0  0  0  0  0  0
   36.8610   27.3780   40.2530 N   0  0  0  0  0  0  0  0  0  0  0  0
   37.1440   25.9940   43.8030 H   0  0  0  0  0  0  0  0  0  0  0  0
   37.0440   25.4120   39.5740 H   0  0  0  0  0  0  0  0  0  0  0  0
   36.8540   28.6710   43.6740 N   0  0  0  0  0  0  0  0  0  0  0  0
   36.0620   29.0920   44.2080 H   0  0  0  0  0  0  0  0  0  0  0  0
   37.9020   28.8090   43.7140 H   0  0  0  0  0  0  0  0  0  0  0  0
  1  2  2  0  0  0  0
  3  1  1  0  0  0  0
  3 14  1  0  0  0  0
  4  3  1  0  0  0  0
  5  1  1  0  0  0  0
  5 13  1  0  0  0  0
  6  5  2  0  0  0  0
  7  6  1  0  0  0  0
  8  6  1  0  0  0  0
  8  9  2  0  0  0  0
  9 11  1  0  0  0  0
 10  9  1  0  0  0  0
 11 12  1  0  0  0  0
 11 13  2  0  0  0  0
 14 15  1  0  0  0  0
 15 16  2  0  0  0  0
 15 22  1  0  0  0  0
 16 20  1  0  0  0  0
 17 16  1  0  0  0  0
 18 17  2  0  0  0  0
 19 18  1  0  0  0  0
 19 14  2  0  0  0  0
 21 18  1  0  0  0  0
 22 24  1  0  0  0  0
 22 23  1  0  0  0  0
M  END
>  <minimizedAffinity>
-4.72095919

$$$$

 OpenBabel03252501333D

 24 25  0  0  0  0  0  0  0  0999 V2000
   35.5850   29.0000   38.5870 C   0  0  0  0  0  0  0  0  0  0  0  0
   36.8180   29.3030   38.6100 O   0  0  0  0  0  0  0  0  0  0  0  0
   35.0800   28.6080   39.8600 N   0  0  0  0  0  0  0  0  0  0  0  0
   34.0990   28.3630   39.9650 H   0  0  0  0  0  0  0  0  0  0  0  0
   34.7880   29.0580   37.3680 C   0  0  0  0  0  0  0  0  0  0  0  0
   33.4200   29.0080   37.5320 C   0  0  0  0  0  0  0  0  0  0  0  0
   32.9280   28.9310   38.4860 H   0  0  0  0  0  0  0  0  0  0  0  0
   32.6300   29.0590   36.4000 C   0  0  0  0  0  3  0  0  0  0  0  0
   33.2450   29.1590   35.1520 C   0  0  0  0  0  0  0  0  0  0  0  0
   32.6570   29.2010   34.2420 H   0  0  0  0  0  0  0  0  0  0  0  0
   34.6200   29.2060   35.0360 C   0  0  0  0  0  0  0  0  0  0  0  0
   35.0680   29.2820   34.0570 H   0  0  0  0  0  0  0  0  0  0  0  0
   35.4360   29.1560   36.1580 C   0  0  0  0  0  3  0  0  0  0  0  0
   36.1720   28.6470   40.8060 C   0  0  0  0  0  0  0  0  0  0  0  0
   36.5700   29.7650   41.5180 C   0  0  0  0  0  0  0  0  0  0  0  0
   37.6450   29.6220   42.3910 C   0  0  0  0  0  0  0  0  0  0  0  0
   38.2100   28.4140   42.4730 N   0  0  0  0  0  0  0  0  0  0  0  0
   37.8060   27.3330   41.7670 C   0  0  0  0  0  0  0  0  0  0  0  0
   36.7720   27.4520   40.9240 N   0  0  0  0  0  0  0  0  0  0  0  0
   37.9280   30.4960   42.9220 H   0  0  0  0  0  0  0  0  0  0  0  0
   38.2920   26.3750   41.8670 H   0  0  0  0  0  0  0  0  0  0  0  0
   35.8350   30.9680   41.2890 N   0  0  0  0  0  0  0  0  0  0  0  0
   34.9740   31.3690   41.7200 H   0  0  0  0  0  0  0  0  0  0  0  0
   36.4810   31.3070   40.5220 H   0  0  0  0  0  0  0  0  0  0  0  0
  1  2  2  0  0  0  0
  1  3  1  0  0  0  0
  3  4  1  0  0  0  0
  3 14  1  0  0  0  0
  5  6  1  0  0  0  0
  5  1  1  0  0  0  0
  6  7  1  0  0  0  0
  8  6  2  0  0  0  0
  9  8  1  0  0  0  0
 10  9  1  0  0  0  0
 11  9  2  0  0  0  0
 11 13  1  0  0  0  0
 12 11  1  0  0  0  0
 13  5  2  0  0  0  0
 14 19  2  0  0  0  0
 14 15  1  0  0  0  0
 15 16  2  0  0  0  0
 16 17  1  0  0  0  0
 16 20  1  0  0  0  0
 18 21  1  0  0  0  0
 18 17  2  0  0  0  0
 19 18  1  0  0  0  0
 22 15  1  0  0  0  0
 22 23  1  0  0  0  0
 24 22  1  0  0  0  0
M  END
>  <minimizedAffinity>
-4.66028357

$$$$

 OpenBabel03252501333D

 24 25  0  0  0  0  0  0  0  0999 V2000
   37.4990   29.4160   41.2260 C   0  0  0  0  0  0  0  0  0  0  0  0
   36.7860   30.3290   41.7450 O   0  0  0  0  0  0  0  0  0  0  0  0
   38.4780   29.9160   40.3210 N   0  0  0  0  0  0  0  0  0  0  0  0
   39.1200   29.2750   39.8600 H   0  0  0  0  0  0  0  0  0  0  0  0
   37.3130   28.0050   41.5410 C   0  0  0  0  0  0  0  0  0  0  0  0
   37.5410   27.1160   40.5110 C   0  0  0  0  0  0  0  0  0  0  0  0
   37.8400   27.4050   39.5190 H   0  0  0  0  0  0  0  0  0  0  0  0
   37.3760   25.7690   40.7700 C   0  0  0  0  0  3  0  0  0  0  0  0
   36.9890   25.3700   42.0490 C   0  0  0  0  0  0  0  0  0  0  0  0
   36.8490   24.3230   42.2890 H   0  0  0  0  0  0  0  0  0  0  0  0
   36.7710   26.2970   43.0500 C   0  0  0  0  0  0  0  0  0  0  0  0
   36.4720   25.9590   44.0310 H   0  0  0  0  0  0  0  0  0  0  0  0
   36.9310   27.6560   42.8160 C   0  0  0  0  0  3  0  0  0  0  0  0
   38.3300   31.3520   40.2490 C   0  0  0  0  0  0  0  0  0  0  0  0
   38.9810   32.2610   41.0630 C   0  0  0  0  0  0  0  0  0  0  0  0
   38.7210   33.6130   40.8540 C   0  0  0  0  0  0  0  0  0  0  0  0
   37.8600   33.9270   39.8810 N   0  0  0  0  0  0  0  0  0  0  0  0
   37.2330   33.0210   39.0960 C   0  0  0  0  0  0  0  0  0  0  0  0
   37.4730   31.7160   39.2830 N   0  0  0  0  0  0  0  0  0  0  0  0
   39.2350   34.2860   41.4930 H   0  0  0  0  0  0  0  0  0  0  0  0
   36.5450   33.3200   38.3210 H   0  0  0  0  0  0  0  0  0  0  0  0
   39.8670   31.7250   42.0480 N   0  0  0  0  0  0  0  0  0  0  0  0
   40.8790   31.4690   42.0310 H   0  0  0  0  0  0  0  0  0  0  0  0
   39.1250   31.6810   42.8010 H   0  0  0  0  0  0  0  0  0  0  0  0
  1  5  1  0  0  0  0
  1  2  2  0  0  0  0
  3  1  1  0  0  0  0
  4  3  1  0  0  0  0
  5 13  1  0  0  0  0
  6  8  1  0  0  0  0
  6  5  2  0  0  0  0
  7  6  1  0  0  0  0
  8  9  2  0  0  0  0
  9 10  1  0  0  0  0
  9 11  1  0  0  0  0
 11 12  1  0  0  0  0
 13 11  2  0  0  0  0
 14  3  1  0  0  0  0
 14 15  1  0  0  0  0
 15 22  1  0  0  0  0
 16 15  2  0  0  0  0
 16 20  1  0  0  0  0
 17 16  1  0  0  0  0
 18 19  1  0  0  0  0
 18 17  2  0  0  0  0
 19 14  2  0  0  0  0
 21 18  1  0  0  0  0
 22 24  1  0  0  0  0
 23 22  1  0  0  0  0
M  END
>  <minimizedAffinity>
-4.63089943

$$$$

 OpenBabel03252501333D

 24 25  0  0  0  0  0  0  0  0999 V2000
   39.7770   31.4740   38.1230 C   0  0  0  0  0  0  0  0  0  0  0  0
   40.7110   31.2450   38.9510 O   0  0  0  0  0  0  0  0  0  0  0  0
   40.2040   32.2160   36.9850 N   0  0  0  0  0  0  0  0  0  0  0  0
   39.5440   32.4400   36.2450 H   0  0  0  0  0  0  0  0  0  0  0  0
   38.4100   31.0140   38.3390 C   0  0  0  0  0  0  0  0  0  0  0  0
   37.8570   31.3050   39.5680 C   0  0  0  0  0  0  0  0  0  0  0  0
   38.3680   31.8380   40.3500 H   0  0  0  0  0  0  0  0  0  0  0  0
   36.5640   30.8850   39.8120 C   0  0  0  0  0  3  0  0  0  0  0  0
   35.8800   30.1910   38.8130 C   0  0  0  0  0  0  0  0  0  0  0  0
   34.8640   29.8460   38.9680 H   0  0  0  0  0  0  0  0  0  0  0  0
   36.4750   29.9220   37.5970 C   0  0  0  0  0  0  0  0  0  0  0  0
   35.9220   29.3830   36.8420 H   0  0  0  0  0  0  0  0  0  0  0  0
   37.7730   30.3330   37.3270 C   0  0  0  0  0  3  0  0  0  0  0  0
   41.6100   32.5140   37.1470 C   0  0  0  0  0  0  0  0  0  0  0  0
   42.6480   31.6570   36.8260 C   0  0  0  0  0  0  0  0  0  0  0  0
   43.9460   32.1090   37.0470 C   0  0  0  0  0  0  0  0  0  0  0  0
   44.0880   33.3370   37.5550 N   0  0  0  0  0  0  0  0  0  0  0  0
   43.0590   34.1590   37.8630 C   0  0  0  0  0  0  0  0  0  0  0  0
   41.8030   33.7410   37.6560 N   0  0  0  0  0  0  0  0  0  0  0  0
   44.7210   31.4310   36.7910 H   0  0  0  0  0  0  0  0  0  0  0  0
   43.2210   35.1440   38.2710 H   0  0  0  0  0  0  0  0  0  0  0  0
   42.2880   30.3820   36.2920 N   0  0  0  0  0  0  0  0  0  0  0  0
   42.1040   30.0420   35.3220 H   0  0  0  0  0  0  0  0  0  0  0  0
   42.2740   29.9050   37.2370 H   0  0  0  0  0  0  0  0  0  0  0  0
  1  5  1  0  0  0  0
  1  2  2  0  0  0  0
  3 14  1  0  0  0  0
  3  1  1  0  0  0  0
  4  3  1  0  0  0  0
  5  6  1  0  0  0  0
  6  8  2  0  0  0  0
  6  7  1  0  0  0  0
  9 10  1  0  0  0  0
  9  8  1  0  0  0  0
 11  9  2  0  0  0  0
 12 11  1  0  0  0  0
 13 11  1  0  0  0  0
 13  5  2  0  0  0  0
 14 19  1  0  0  0  0
 15 16  1  0  0  0  0
 15 14  2  0  0  0  0
 16 17  2  0  0  0  0
 17 18  1  0  0  0  0
 18 21  1  0  0  0  0
 19 18  2  0  0  0  0
 20 16  1  0  0  0  0
 22 15  1  0  0  0  0
 22 24  1  0  0  0  0
 23 22  1  0  0  0  0
M  END
>  <minimizedAffinity>
-4.5700202

$$$$
