
 OpenBabel03242521453D

 38 40  0  0  1  0  0  0  0  0999 V2000
   38.9660   31.1720   41.5270 C   0  0  0  0  0  0  0  0  0  0  0  0
   39.9280   31.9040   40.8230 C   0  0  0  0  0  0  0  0  0  0  0  0
   39.5570   32.5460   39.6240 C   0  0  0  0  0  0  0  0  0  0  0  0
   38.2950   32.4200   39.2240 N   0  0  0  0  0  0  0  0  0  0  0  0
   37.3740   31.7070   39.9160 C   0  0  0  0  0  0  0  0  0  0  0  0
   37.7070   31.0850   41.0620 N   0  0  0  0  0  0  0  0  0  0  0  0
   40.9290   31.9310   41.2580 H   0  0  0  0  0  0  0  0  0  0  0  0
   36.3690   31.6520   39.5260 H   0  0  0  0  0  0  0  0  0  0  0  0
   41.1360   32.6500   37.7060 C   0  0  2  0  0  0  0  0  0  0  0  0
   40.6030   33.2920   38.9390 C   0  0  2  0  0  0  0  0  0  0  0  0
   41.8000   33.4440   39.7000 O   0  0  0  0  0  0  0  0  0  0  0  0
   42.6240   34.0810   38.7900 C   0  0  0  0  0  0  0  0  0  0  0  0
   42.2600   33.6620   37.4020 C   0  0  1  0  0  0  0  0  0  0  0  0
   41.6830   31.7040   37.8980 H   0  0  0  0  0  0  0  0  0  0  0  0
   40.2710   34.3300   38.7020 H   0  0  0  0  0  0  0  0  0  0  0  0
   42.6000   35.1820   38.9110 H   0  0  0  0  0  0  0  0  0  0  0  0
   43.6630   33.7510   38.9770 H   0  0  0  0  0  0  0  0  0  0  0  0
   41.8230   34.5240   36.8510 H   0  0  0  0  0  0  0  0  0  0  0  0
   40.2340   32.5040   36.6960 O   0  0  0  0  0  0  0  0  0  0  0  0
   39.3250   32.7170   37.0240 H   0  0  0  0  0  0  0  0  0  0  0  0
   43.2690   33.0060   36.7020 O   0  0  0  0  0  0  0  0  0  0  0  0
   43.0790   32.0390   36.6580 H   0  0  0  0  0  0  0  0  0  0  0  0
   39.3670   30.4830   42.7940 C   0  0  0  0  0  0  0  0  0  0  0  0
   38.5890   30.8050   43.5440 H   0  0  0  0  0  0  0  0  0  0  0  0
   40.3680   30.7960   43.0870 H   0  0  0  0  0  0  0  0  0  0  0  0
   38.3320   28.1590   43.1530 C   0  0  0  0  0  0  0  0  0  0  0  0
   37.5000   28.6780   43.9790 O   0  0  0  0  0  0  0  0  0  0  0  0
   39.2450   29.0610   42.5670 N   0  0  0  0  0  0  0  0  0  0  0  0
   39.9200   28.6570   41.8820 H   0  0  0  0  0  0  0  0  0  0  0  0
   38.3230   26.7350   42.8510 C   0  0  0  0  0  0  0  0  0  0  0  0
   39.3810   25.8570   42.9620 C   0  0  0  0  0  0  0  0  0  0  0  0
   40.3010   26.2720   43.3040 H   0  0  0  0  0  0  0  0  0  0  0  0
   39.2390   24.5230   42.6410 C   0  0  0  0  0  3  0  0  0  0  0  0
   38.0330   24.0050   42.1960 C   0  0  0  0  0  0  0  0  0  0  0  0
   37.9620   22.9530   41.9560 H   0  0  0  0  0  0  0  0  0  0  0  0
   36.9560   24.8520   42.0750 C   0  0  0  0  0  0  0  0  0  0  0  0
   35.9920   24.5000   41.7320 H   0  0  0  0  0  0  0  0  0  0  0  0
   37.1240   26.1830   42.4020 C   0  0  0  0  0  3  0  0  0  0  0  0
  1 23  1  0  0  0  0
  2  7  1  0  0  0  0
  2  1  2  0  0  0  0
  3  2  1  0  0  0  0
  4  3  2  0  0  0  0
  4  5  1  0  0  0  0
  5  6  2  0  0  0  0
  6  1  1  0  0  0  0
  8  5  1  0  0  0  0
  9 14  1  1  0  0  0
  9 10  1  0  0  0  0
 10 15  1  6  0  0  0
 10  3  1  0  0  0  0
 10 11  1  0  0  0  0
 12 16  1  0  0  0  0
 12 17  1  0  0  0  0
 12 11  1  0  0  0  0
 13 18  1  6  0  0  0
 13  9  1  0  0  0  0
 13 12  1  0  0  0  0
 19 20  1  0  0  0  0
 19  9  1  0  0  0  0
 21 13  1  0  0  0  0
 22 21  1  0  0  0  0
 23 25  1  0  0  0  0
 23 24  1  0  0  0  0
 26 27  2  0  0  0  0
 28 23  1  0  0  0  0
 28 26  1  0  0  0  0
 29 28  1  0  0  0  0
 30 31  1  0  0  0  0
 30 26  1  0  0  0  0
 31 32  1  0  0  0  0
 33 31  2  0  0  0  0
 34 33  1  0  0  0  0
 35 34  1  0  0  0  0
 36 34  2  0  0  0  0
 36 38  1  0  0  0  0
 37 36  1  0  0  0  0
 38 30  2  0  0  0  0
M  END
>  <minimizedAffinity>
-6.48772717

$$$$

 OpenBabel03242521453D

 38 40  0  0  1  0  0  0  0  0999 V2000
   38.5900   32.6710   39.2650 C   0  0  0  0  0  0  0  0  0  0  0  0
   39.9310   32.4590   38.9260 C   0  0  0  0  0  0  0  0  0  0  0  0
   40.8840   33.4440   39.2580 C   0  0  0  0  0  0  0  0  0  0  0  0
   40.4490   34.5330   39.8860 N   0  0  0  0  0  0  0  0  0  0  0  0
   39.1470   34.7240   40.2070 C   0  0  0  0  0  0  0  0  0  0  0  0
   38.2210   33.7980   39.8980 N   0  0  0  0  0  0  0  0  0  0  0  0
   40.1590   31.5230   38.4130 H   0  0  0  0  0  0  0  0  0  0  0  0
   38.8730   35.6350   40.7170 H   0  0  0  0  0  0  0  0  0  0  0  0
   42.5100   33.0710   37.4150 C   0  0  2  0  0  0  0  0  0  0  0  0
   42.2620   33.1650   38.8790 C   0  0  2  0  0  0  0  0  0  0  0  0
   42.7360   31.8910   39.3140 O   0  0  0  0  0  0  0  0  0  0  0  0
   43.9960   31.8590   38.7420 C   0  0  0  0  0  0  0  0  0  0  0  0
   43.9920   32.6460   37.4720 C   0  0  1  0  0  0  0  0  0  0  0  0
   42.0100   32.2040   36.9340 H   0  0  0  0  0  0  0  0  0  0  0  0
   42.9630   33.9090   39.3260 H   0  0  0  0  0  0  0  0  0  0  0  0
   44.7770   32.2090   39.4460 H   0  0  0  0  0  0  0  0  0  0  0  0
   44.2290   30.8100   38.4850 H   0  0  0  0  0  0  0  0  0  0  0  0
   44.6190   33.5580   37.5910 H   0  0  0  0  0  0  0  0  0  0  0  0
   42.2890   34.2190   36.7170 O   0  0  0  0  0  0  0  0  0  0  0  0
   41.8460   34.8860   37.2990 H   0  0  0  0  0  0  0  0  0  0  0  0
   44.2880   31.9140   36.3250 O   0  0  0  0  0  0  0  0  0  0  0  0
   43.4650   31.7500   35.8050 H   0  0  0  0  0  0  0  0  0  0  0  0
   37.5810   31.6270   38.9000 C   0  0  0  0  0  0  0  0  0  0  0  0
   37.8760   31.3080   37.8590 H   0  0  0  0  0  0  0  0  0  0  0  0
   36.5800   32.0520   38.9270 H   0  0  0  0  0  0  0  0  0  0  0  0
   37.0560   30.2270   40.9900 C   0  0  0  0  0  0  0  0  0  0  0  0
   36.1210   31.0530   41.2850 O   0  0  0  0  0  0  0  0  0  0  0  0
   37.7670   30.5160   39.8050 N   0  0  0  0  0  0  0  0  0  0  0  0
   38.5220   29.8450   39.5430 H   0  0  0  0  0  0  0  0  0  0  0  0
   37.3540   29.0750   41.8290 C   0  0  0  0  0  0  0  0  0  0  0  0
   36.5150   28.0180   42.1140 C   0  0  0  0  0  0  0  0  0  0  0  0
   35.5460   28.0540   41.6700 H   0  0  0  0  0  0  0  0  0  0  0  0
   36.9210   26.9820   42.9300 C   0  0  0  0  0  3  0  0  0  0  0  0
   38.1860   26.9550   43.4960 C   0  0  0  0  0  0  0  0  0  0  0  0
   38.4670   26.1250   44.1300 H   0  0  0  0  0  0  0  0  0  0  0  0
   39.0490   27.9930   43.2330 C   0  0  0  0  0  0  0  0  0  0  0  0
   40.0480   28.0220   43.6500 H   0  0  0  0  0  0  0  0  0  0  0  0
   38.6180   29.0170   42.4140 C   0  0  0  0  0  3  0  0  0  0  0  0
  1  6  1  0  0  0  0
  2  3  1  0  0  0  0
  2  1  2  0  0  0  0
  3  4  2  0  0  0  0
  4  5  1  0  0  0  0
  5  8  1  0  0  0  0
  6  5  2  0  0  0  0
  7  2  1  0  0  0  0
  9 14  1  6  0  0  0
  9 13  1  0  0  0  0
  9 10  1  0  0  0  0
 10  3  1  0  0  0  0
 10 11  1  0  0  0  0
 10 15  1  1  0  0  0
 12 11  1  0  0  0  0
 12 16  1  0  0  0  0
 13 18  1  1  0  0  0
 13 12  1  0  0  0  0
 17 12  1  0  0  0  0
 19 20  1  0  0  0  0
 19  9  1  0  0  0  0
 21 13  1  0  0  0  0
 22 21  1  0  0  0  0
 23 25  1  0  0  0  0
 23  1  1  0  0  0  0
 23 28  1  0  0  0  0
 24 23  1  0  0  0  0
 26 27  2  0  0  0  0
 26 30  1  0  0  0  0
 28 26  1  0  0  0  0
 29 28  1  0  0  0  0
 30 31  2  0  0  0  0
 30 38  1  0  0  0  0
 31 33  1  0  0  0  0
 32 31  1  0  0  0  0
 33 34  2  0  0  0  0
 34 35  1  0  0  0  0
 36 34  1  0  0  0  0
 36 37  1  0  0  0  0
 38 36  2  0  0  0  0
M  END
>  <minimizedAffinity>
-6.48574972

$$$$

 OpenBabel03242521453D

 38 40  0  0  1  0  0  0  0  0999 V2000
   36.2100   29.7380   39.5210 C   0  0  0  0  0  0  0  0  0  0  0  0
   37.1600   30.7460   39.7180 C   0  0  0  0  0  0  0  0  0  0  0  0
   37.7920   31.3180   38.5950 C   0  0  0  0  0  0  0  0  0  0  0  0
   37.4450   30.8620   37.3950 N   0  0  0  0  0  0  0  0  0  0  0  0
   36.5240   29.8850   37.2210 C   0  0  0  0  0  0  0  0  0  0  0  0
   35.9090   29.3240   38.2780 N   0  0  0  0  0  0  0  0  0  0  0  0
   37.3550   31.0320   40.7530 H   0  0  0  0  0  0  0  0  0  0  0  0
   36.2960   29.5690   36.2140 H   0  0  0  0  0  0  0  0  0  0  0  0
   40.0610   32.2260   38.1380 C   0  0  2  0  0  0  0  0  0  0  0  0
   38.7710   32.3630   38.8660 C   0  0  2  0  0  0  0  0  0  0  0  0
   39.2270   32.3930   40.2170 O   0  0  0  0  0  0  0  0  0  0  0  0
   40.1920   33.3830   40.1570 C   0  0  0  0  0  0  0  0  0  0  0  0
   40.8090   33.4040   38.7970 C   0  0  1  0  0  0  0  0  0  0  0  0
   40.6530   31.3380   38.4440 H   0  0  0  0  0  0  0  0  0  0  0  0
   38.3440   33.3750   38.6760 H   0  0  0  0  0  0  0  0  0  0  0  0
   39.7840   34.3740   40.4430 H   0  0  0  0  0  0  0  0  0  0  0  0
   40.9870   33.1320   40.8820 H   0  0  0  0  0  0  0  0  0  0  0  0
   40.5290   34.3420   38.2690 H   0  0  0  0  0  0  0  0  0  0  0  0
   39.9710   32.3160   36.7820 O   0  0  0  0  0  0  0  0  0  0  0  0
   39.0210   32.3040   36.5060 H   0  0  0  0  0  0  0  0  0  0  0  0
   42.1750   33.1340   38.7660 O   0  0  0  0  0  0  0  0  0  0  0  0
   42.3330   32.2190   38.4320 H   0  0  0  0  0  0  0  0  0  0  0  0
   35.5490   29.1270   40.7170 C   0  0  0  0  0  0  0  0  0  0  0  0
   34.5940   28.6850   40.3100 H   0  0  0  0  0  0  0  0  0  0  0  0
   35.3550   29.8920   41.4670 H   0  0  0  0  0  0  0  0  0  0  0  0
   37.3020   28.0710   42.2700 C   0  0  0  0  0  0  0  0  0  0  0  0
   37.3490   29.1670   42.9330 O   0  0  0  0  0  0  0  0  0  0  0  0
   36.4040   28.0590   41.1820 N   0  0  0  0  0  0  0  0  0  0  0  0
   36.3440   27.1690   40.6400 H   0  0  0  0  0  0  0  0  0  0  0  0
   38.1260   26.9250   42.6270 C   0  0  0  0  0  0  0  0  0  0  0  0
   39.2410   26.9260   43.4400 C   0  0  0  0  0  0  0  0  0  0  0  0
   39.5250   27.8700   43.8460 H   0  0  0  0  0  0  0  0  0  0  0  0
   39.9370   25.7640   43.7000 C   0  0  0  0  0  3  0  0  0  0  0  0
   39.5510   24.5470   43.1610 C   0  0  0  0  0  0  0  0  0  0  0  0
   40.1230   23.6580   43.3900 H   0  0  0  0  0  0  0  0  0  0  0  0
   38.4430   24.5090   42.3460 C   0  0  0  0  0  0  0  0  0  0  0  0
   38.0980   23.5850   41.8990 H   0  0  0  0  0  0  0  0  0  0  0  0
   37.7640   25.6850   42.1010 C   0  0  0  0  0  3  0  0  0  0  0  0
  1  2  1  0  0  0  0
  1 23  1  0  0  0  0
  2  7  1  0  0  0  0
  3 10  1  0  0  0  0
  3  2  2  0  0  0  0
  4  3  1  0  0  0  0
  5  4  2  0  0  0  0
  5  6  1  0  0  0  0
  6  1  2  0  0  0  0
  8  5  1  0  0  0  0
  9 14  1  1  0  0  0
  9 13  1  0  0  0  0
  9 10  1  0  0  0  0
 10 15  1  6  0  0  0
 10 11  1  0  0  0  0
 12 11  1  0  0  0  0
 12 16  1  0  0  0  0
 12 17  1  0  0  0  0
 13 18  1  6  0  0  0
 13 12  1  0  0  0  0
 19  9  1  0  0  0  0
 20 19  1  0  0  0  0
 21 13  1  0  0  0  0
 22 21  1  0  0  0  0
 23 28  1  0  0  0  0
 23 25  1  0  0  0  0
 24 23  1  0  0  0  0
 26 30  1  0  0  0  0
 26 27  2  0  0  0  0
 28 26  1  0  0  0  0
 29 28  1  0  0  0  0
 30 31  1  0  0  0  0
 31 33  2  0  0  0  0
 31 32  1  0  0  0  0
 34 35  1  0  0  0  0
 34 33  1  0  0  0  0
 36 34  2  0  0  0  0
 37 36  1  0  0  0  0
 38 36  1  0  0  0  0
 38 30  2  0  0  0  0
M  END
>  <minimizedAffinity>
-6.22725725

$$$$

 OpenBabel03242521453D

 38 40  0  0  1  0  0  0  0  0999 V2000
   35.6150   27.7980   37.6270 C   0  0  0  0  0  0  0  0  0  0  0  0
   36.2190   28.9510   38.1420 C   0  0  0  0  0  0  0  0  0  0  0  0
   36.9210   28.8680   39.3610 C   0  0  0  0  0  0  0  0  0  0  0  0
   36.9730   27.6830   39.9630 N   0  0  0  0  0  0  0  0  0  0  0  0
   36.3840   26.5760   39.4520 C   0  0  0  0  0  0  0  0  0  0  0  0
   35.7070   26.6320   38.2910 N   0  0  0  0  0  0  0  0  0  0  0  0
   36.1040   29.8610   37.5510 H   0  0  0  0  0  0  0  0  0  0  0  0
   36.4710   25.6500   40.0010 H   0  0  0  0  0  0  0  0  0  0  0  0
   36.5700   31.1980   40.1560 C   0  0  2  0  0  0  0  0  0  0  0  0
   37.5270   30.1020   39.8430 C   0  0  2  0  0  0  0  0  0  0  0  0
   38.3680   30.7470   38.8870 O   0  0  0  0  0  0  0  0  0  0  0  0
   38.7100   31.9050   39.5620 C   0  0  0  0  0  0  0  0  0  0  0  0
   37.5990   32.3010   40.4790 C   0  0  1  0  0  0  0  0  0  0  0  0
   36.0370   31.5920   39.2660 H   0  0  0  0  0  0  0  0  0  0  0  0
   38.1770   29.9140   40.7290 H   0  0  0  0  0  0  0  0  0  0  0  0
   39.6750   31.8000   40.0990 H   0  0  0  0  0  0  0  0  0  0  0  0
   38.8330   32.7120   38.8170 H   0  0  0  0  0  0  0  0  0  0  0  0
   37.9240   32.1850   41.5370 H   0  0  0  0  0  0  0  0  0  0  0  0
   35.7040   30.9340   41.1740 O   0  0  0  0  0  0  0  0  0  0  0  0
   35.7650   29.9800   41.4290 H   0  0  0  0  0  0  0  0  0  0  0  0
   37.0230   33.5390   40.2050 O   0  0  0  0  0  0  0  0  0  0  0  0
   36.1440   33.4160   39.7750 H   0  0  0  0  0  0  0  0  0  0  0  0
   34.8620   27.8920   36.3380 C   0  0  0  0  0  0  0  0  0  0  0  0
   34.3410   26.8950   36.2470 H   0  0  0  0  0  0  0  0  0  0  0  0
   35.5530   28.0660   35.5150 H   0  0  0  0  0  0  0  0  0  0  0  0
   32.4660   28.8170   36.4040 C   0  0  0  0  0  0  0  0  0  0  0  0
   32.0240   27.6380   36.1660 O   0  0  0  0  0  0  0  0  0  0  0  0
   33.8700   28.9300   36.4950 N   0  0  0  0  0  0  0  0  0  0  0  0
   34.2450   29.8820   36.7020 H   0  0  0  0  0  0  0  0  0  0  0  0
   31.5700   29.9530   36.5670 C   0  0  0  0  0  0  0  0  0  0  0  0
   31.3260   30.9550   35.6510 C   0  0  0  0  0  0  0  0  0  0  0  0
   31.8550   30.8870   34.7280 H   0  0  0  0  0  0  0  0  0  0  0  0
   30.4480   31.9810   35.9310 C   0  0  0  0  0  3  0  0  0  0  0  0
   29.7710   32.0510   37.1390 C   0  0  0  0  0  0  0  0  0  0  0  0
   29.0890   32.8720   37.3200 H   0  0  0  0  0  0  0  0  0  0  0  0
   29.9890   31.0670   38.0750 C   0  0  0  0  0  0  0  0  0  0  0  0
   29.4860   31.0750   39.0340 H   0  0  0  0  0  0  0  0  0  0  0  0
   30.8730   30.0520   37.7710 C   0  0  0  0  0  3  0  0  0  0  0  0
  1  2  2  0  0  0  0
  1  6  1  0  0  0  0
  2  3  1  0  0  0  0
  3 10  1  0  0  0  0
  3  4  2  0  0  0  0
  5  4  1  0  0  0  0
  5  8  1  0  0  0  0
  6  5  2  0  0  0  0
  7  2  1  0  0  0  0
  9 14  1  6  0  0  0
  9 13  1  0  0  0  0
  9 19  1  0  0  0  0
 10  9  1  0  0  0  0
 10 15  1  1  0  0  0
 11 12  1  0  0  0  0
 11 10  1  0  0  0  0
 12 16  1  0  0  0  0
 12 13  1  0  0  0  0
 13 18  1  1  0  0  0
 17 12  1  0  0  0  0
 19 20  1  0  0  0  0
 21 13  1  0  0  0  0
 22 21  1  0  0  0  0
 23 28  1  0  0  0  0
 23  1  1  0  0  0  0
 24 23  1  0  0  0  0
 25 23  1  0  0  0  0
 26 28  1  0  0  0  0
 26 30  1  0  0  0  0
 27 26  2  0  0  0  0
 28 29  1  0  0  0  0
 30 38  1  0  0  0  0
 31 33  1  0  0  0  0
 31 30  2  0  0  0  0
 32 31  1  0  0  0  0
 33 34  2  0  0  0  0
 34 35  1  0  0  0  0
 34 36  1  0  0  0  0
 36 37  1  0  0  0  0
 38 36  2  0  0  0  0
M  END
>  <minimizedAffinity>
-6.01417875

$$$$

 OpenBabel03242521453D

 38 40  0  0  1  0  0  0  0  0999 V2000
   36.8280   28.6220   41.9960 C   0  0  0  0  0  0  0  0  0  0  0  0
   37.7390   29.6840   41.9680 C   0  0  0  0  0  0  0  0  0  0  0  0
   37.5080   30.7590   41.0860 C   0  0  0  0  0  0  0  0  0  0  0  0
   36.4220   30.7050   40.3200 N   0  0  0  0  0  0  0  0  0  0  0  0
   35.5490   29.6710   40.3590 C   0  0  0  0  0  0  0  0  0  0  0  0
   35.7500   28.6330   41.1910 N   0  0  0  0  0  0  0  0  0  0  0  0
   38.5900   29.6090   42.6470 H   0  0  0  0  0  0  0  0  0  0  0  0
   34.6900   29.7000   39.7050 H   0  0  0  0  0  0  0  0  0  0  0  0
   38.2990   32.8880   40.0720 C   0  0  2  0  0  0  0  0  0  0  0  0
   38.4920   31.8340   41.1050 C   0  0  2  0  0  0  0  0  0  0  0  0
   39.8210   31.4070   40.8070 O   0  0  0  0  0  0  0  0  0  0  0  0
   40.4980   32.6140   40.7950 C   0  0  0  0  0  0  0  0  0  0  0  0
   39.5770   33.7040   40.3520 C   0  0  1  0  0  0  0  0  0  0  0  0
   38.4450   32.5250   39.0330 H   0  0  0  0  0  0  0  0  0  0  0  0
   38.5530   32.3090   42.1120 H   0  0  0  0  0  0  0  0  0  0  0  0
   40.9620   32.8360   41.7770 H   0  0  0  0  0  0  0  0  0  0  0  0
   41.3140   32.5420   40.0530 H   0  0  0  0  0  0  0  0  0  0  0  0
   39.3780   34.3970   41.1990 H   0  0  0  0  0  0  0  0  0  0  0  0
   37.1470   33.6050   40.1880 O   0  0  0  0  0  0  0  0  0  0  0  0
   36.5570   33.1870   40.8630 H   0  0  0  0  0  0  0  0  0  0  0  0
   39.9550   34.3520   39.1790 O   0  0  0  0  0  0  0  0  0  0  0  0
   39.3860   34.0570   38.4290 H   0  0  0  0  0  0  0  0  0  0  0  0
   37.0820   27.4780   42.9260 C   0  0  0  0  0  0  0  0  0  0  0  0
   36.2590   27.5560   43.6940 H   0  0  0  0  0  0  0  0  0  0  0  0
   38.0690   27.5760   43.3760 H   0  0  0  0  0  0  0  0  0  0  0  0
   37.8990   25.3750   41.6960 C   0  0  0  0  0  0  0  0  0  0  0  0
   39.1050   25.6910   41.9950 O   0  0  0  0  0  0  0  0  0  0  0  0
   36.9060   26.2610   42.1680 N   0  0  0  0  0  0  0  0  0  0  0  0
   35.9180   26.0100   41.9440 H   0  0  0  0  0  0  0  0  0  0  0  0
   37.5900   24.1820   40.9220 C   0  0  0  0  0  0  0  0  0  0  0  0
   38.3990   23.0790   40.7380 C   0  0  0  0  0  0  0  0  0  0  0  0
   39.3520   23.1120   41.2150 H   0  0  0  0  0  0  0  0  0  0  0  0
   37.9850   22.0070   39.9760 C   0  0  0  0  0  3  0  0  0  0  0  0
   36.7410   21.9860   39.3630 C   0  0  0  0  0  0  0  0  0  0  0  0
   36.4530   21.1260   38.7740 H   0  0  0  0  0  0  0  0  0  0  0  0
   35.9080   23.0680   39.5260 C   0  0  0  0  0  0  0  0  0  0  0  0
   34.9270   23.1040   39.0700 H   0  0  0  0  0  0  0  0  0  0  0  0
   36.3460   24.1290   40.2930 C   0  0  0  0  0  3  0  0  0  0  0  0
  1 23  1  0  0  0  0
  2  1  1  0  0  0  0
  2  7  1  0  0  0  0
  3 10  1  0  0  0  0
  3  2  2  0  0  0  0
  4  5  2  0  0  0  0
  4  3  1  0  0  0  0
  5  6  1  0  0  0  0
  6  1  2  0  0  0  0
  8  5  1  0  0  0  0
  9 14  1  6  0  0  0
  9 19  1  0  0  0  0
  9 13  1  0  0  0  0
  9 10  1  0  0  0  0
 10 15  1  1  0  0  0
 11 10  1  0  0  0  0
 12 11  1  0  0  0  0
 12 16  1  0  0  0  0
 13 12  1  0  0  0  0
 13 18  1  1  0  0  0
 17 12  1  0  0  0  0
 19 20  1  0  0  0  0
 21 13  1  0  0  0  0
 22 21  1  0  0  0  0
 23 25  1  0  0  0  0
 23 24  1  0  0  0  0
 26 27  2  0  0  0  0
 26 28  1  0  0  0  0
 28 23  1  0  0  0  0
 29 28  1  0  0  0  0
 30 26  1  0  0  0  0
 31 30  1  0  0  0  0
 31 32  1  0  0  0  0
 33 31  2  0  0  0  0
 34 36  2  0  0  0  0
 34 33  1  0  0  0  0
 35 34  1  0  0  0  0
 36 38  1  0  0  0  0
 37 36  1  0  0  0  0
 38 30  2  0  0  0  0
M  END
>  <minimizedAffinity>
-6.0013423

$$$$

 OpenBabel03242521453D

 38 40  0  0  1  0  0  0  0  0999 V2000
   38.8900   32.4370   40.4600 C   0  0  0  0  0  0  0  0  0  0  0  0
   40.1120   32.1320   39.8510 C   0  0  0  0  0  0  0  0  0  0  0  0
   40.9310   33.1850   39.3970 C   0  0  0  0  0  0  0  0  0  0  0  0
   40.4920   34.4280   39.5770 N   0  0  0  0  0  0  0  0  0  0  0  0
   39.3060   34.7070   40.1690 C   0  0  0  0  0  0  0  0  0  0  0  0
   38.5080   33.7180   40.6080 N   0  0  0  0  0  0  0  0  0  0  0  0
   40.3580   31.0720   39.7640 H   0  0  0  0  0  0  0  0  0  0  0  0
   39.0200   35.7420   40.2780 H   0  0  0  0  0  0  0  0  0  0  0  0
   43.0840   33.9340   38.4040 C   0  0  2  0  0  0  0  0  0  0  0  0
   42.1900   32.8020   38.7730 C   0  0  2  0  0  0  0  0  0  0  0  0
   42.0380   32.1580   37.5090 O   0  0  0  0  0  0  0  0  0  0  0  0
   43.3570   32.0080   37.1180 C   0  0  0  0  0  0  0  0  0  0  0  0
   44.1790   33.1200   37.6840 C   0  0  1  0  0  0  0  0  0  0  0  0
   42.6730   34.5830   37.6030 H   0  0  0  0  0  0  0  0  0  0  0  0
   42.7530   32.0780   39.4080 H   0  0  0  0  0  0  0  0  0  0  0  0
   43.7580   31.0120   37.3950 H   0  0  0  0  0  0  0  0  0  0  0  0
   43.3990   32.0860   36.0170 H   0  0  0  0  0  0  0  0  0  0  0  0
   44.8830   32.7190   38.4460 H   0  0  0  0  0  0  0  0  0  0  0  0
   43.5420   34.6730   39.4520 O   0  0  0  0  0  0  0  0  0  0  0  0
   43.0660   34.4130   40.2800 H   0  0  0  0  0  0  0  0  0  0  0  0
   44.7890   33.9400   36.7370 O   0  0  0  0  0  0  0  0  0  0  0  0
   44.3140   34.8020   36.6770 H   0  0  0  0  0  0  0  0  0  0  0  0
   38.0180   31.3150   40.9310 C   0  0  0  0  0  0  0  0  0  0  0  0
   37.5420   30.9190   39.9880 H   0  0  0  0  0  0  0  0  0  0  0  0
   37.2760   31.6890   41.6340 H   0  0  0  0  0  0  0  0  0  0  0  0
   38.5770   29.3200   42.4510 C   0  0  0  0  0  0  0  0  0  0  0  0
   37.3670   29.3290   42.8760 O   0  0  0  0  0  0  0  0  0  0  0  0
   38.8850   30.3000   41.4840 N   0  0  0  0  0  0  0  0  0  0  0  0
   39.8630   30.2970   41.1180 H   0  0  0  0  0  0  0  0  0  0  0  0
   39.5530   28.3580   42.9420 C   0  0  0  0  0  0  0  0  0  0  0  0
   40.9240   28.5050   42.9610 C   0  0  0  0  0  0  0  0  0  0  0  0
   41.3040   29.4220   42.5720 H   0  0  0  0  0  0  0  0  0  0  0  0
   41.7430   27.5100   43.4560 C   0  0  0  0  0  3  0  0  0  0  0  0
   41.2280   26.3250   43.9560 C   0  0  0  0  0  0  0  0  0  0  0  0
   41.9030   25.5700   44.3360 H   0  0  0  0  0  0  0  0  0  0  0  0
   39.8640   26.1450   43.9540 C   0  0  0  0  0  0  0  0  0  0  0  0
   39.4100   25.2390   44.3320 H   0  0  0  0  0  0  0  0  0  0  0  0
   39.0670   27.1550   43.4520 C   0  0  0  0  0  3  0  0  0  0  0  0
  1  6  1  0  0  0  0
  1 23  1  0  0  0  0
  2  1  2  0  0  0  0
  3  4  2  0  0  0  0
  3  2  1  0  0  0  0
  4  5  1  0  0  0  0
  5  8  1  0  0  0  0
  5  6  2  0  0  0  0
  7  2  1  0  0  0  0
  9 14  1  6  0  0  0
  9 10  1  0  0  0  0
  9 19  1  0  0  0  0
 10  3  1  0  0  0  0
 10 15  1  1  0  0  0
 11 10  1  0  0  0  0
 12 16  1  0  0  0  0
 12 11  1  0  0  0  0
 12 13  1  0  0  0  0
 13  9  1  0  0  0  0
 13 18  1  1  0  0  0
 17 12  1  0  0  0  0
 19 20  1  0  0  0  0
 21 13  1  0  0  0  0
 22 21  1  0  0  0  0
 23 28  1  0  0  0  0
 23 25  1  0  0  0  0
 24 23  1  0  0  0  0
 26 27  2  0  0  0  0
 26 30  1  0  0  0  0
 28 26  1  0  0  0  0
 29 28  1  0  0  0  0
 30 31  2  0  0  0  0
 30 38  1  0  0  0  0
 31 33  1  0  0  0  0
 32 31  1  0  0  0  0
 33 34  2  0  0  0  0
 34 35  1  0  0  0  0
 36 34  1  0  0  0  0
 36 37  1  0  0  0  0
 38 36  2  0  0  0  0
M  END
>  <minimizedAffinity>
-5.94243193

$$$$

 OpenBabel03242521453D

 38 40  0  0  1  0  0  0  0  0999 V2000
   35.3830   28.8560   38.4910 C   0  0  0  0  0  0  0  0  0  0  0  0
   35.7280   28.5420   39.8110 C   0  0  0  0  0  0  0  0  0  0  0  0
   36.7440   29.2830   40.4460 C   0  0  0  0  0  0  0  0  0  0  0  0
   37.3270   30.2540   39.7480 N   0  0  0  0  0  0  0  0  0  0  0  0
   36.9820   30.5460   38.4720 C   0  0  0  0  0  0  0  0  0  0  0  0
   36.0160   29.8510   37.8450 N   0  0  0  0  0  0  0  0  0  0  0  0
   35.1740   27.7230   40.2730 H   0  0  0  0  0  0  0  0  0  0  0  0
   37.5020   31.3500   37.9720 H   0  0  0  0  0  0  0  0  0  0  0  0
   38.4180   28.3450   42.0280 C   0  0  2  0  0  0  0  0  0  0  0  0
   37.0560   28.9080   41.8190 C   0  0  2  0  0  0  0  0  0  0  0  0
   36.2470   27.8490   42.3280 O   0  0  0  0  0  0  0  0  0  0  0  0
   36.8180   27.6430   43.5720 C   0  0  0  0  0  0  0  0  0  0  0  0
   38.2730   27.9750   43.5190 C   0  0  1  0  0  0  0  0  0  0  0  0
   38.5750   27.3650   41.5320 H   0  0  0  0  0  0  0  0  0  0  0  0
   36.8980   29.7630   42.5180 H   0  0  0  0  0  0  0  0  0  0  0  0
   36.2910   28.2100   44.3660 H   0  0  0  0  0  0  0  0  0  0  0  0
   36.7270   26.5690   43.8180 H   0  0  0  0  0  0  0  0  0  0  0  0
   38.4770   28.8810   44.1320 H   0  0  0  0  0  0  0  0  0  0  0  0
   39.4430   29.2020   41.7670 O   0  0  0  0  0  0  0  0  0  0  0  0
   39.0960   30.0180   41.3280 H   0  0  0  0  0  0  0  0  0  0  0  0
   39.1290   26.9120   43.7960 O   0  0  0  0  0  0  0  0  0  0  0  0
   39.5420   26.5810   42.9630 H   0  0  0  0  0  0  0  0  0  0  0  0
   34.3100   28.0600   37.8170 C   0  0  0  0  0  0  0  0  0  0  0  0
   34.2670   27.0980   38.4050 H   0  0  0  0  0  0  0  0  0  0  0  0
   34.5740   27.8870   36.7750 H   0  0  0  0  0  0  0  0  0  0  0  0
   32.3210   29.4800   37.0220 C   0  0  0  0  0  0  0  0  0  0  0  0
   32.8070   29.4620   35.8360 O   0  0  0  0  0  0  0  0  0  0  0  0
   33.0690   28.7770   37.9920 N   0  0  0  0  0  0  0  0  0  0  0  0
   32.6790   28.7710   38.9600 H   0  0  0  0  0  0  0  0  0  0  0  0
   31.0840   30.1810   37.3330 C   0  0  0  0  0  0  0  0  0  0  0  0
   30.2680   29.9790   38.4260 C   0  0  0  0  0  0  0  0  0  0  0  0
   30.5820   29.2270   39.1130 H   0  0  0  0  0  0  0  0  0  0  0  0
   29.1150   30.7150   38.6040 C   0  0  0  0  0  3  0  0  0  0  0  0
   28.7260   31.6890   37.6970 C   0  0  0  0  0  0  0  0  0  0  0  0
   27.8150   32.2460   37.8730 H   0  0  0  0  0  0  0  0  0  0  0  0
   29.5170   31.9180   36.5960 C   0  0  0  0  0  0  0  0  0  0  0  0
   29.2590   32.6660   35.8570 H   0  0  0  0  0  0  0  0  0  0  0  0
   30.6650   31.1680   36.4400 C   0  0  0  0  0  3  0  0  0  0  0  0
  1  2  1  0  0  0  0
  2  7  1  0  0  0  0
  2  3  2  0  0  0  0
  3 10  1  0  0  0  0
  4  3  1  0  0  0  0
  5  4  2  0  0  0  0
  6  5  1  0  0  0  0
  6  1  2  0  0  0  0
  8  5  1  0  0  0  0
  9 14  1  6  0  0  0
  9 13  1  0  0  0  0
 10  9  1  0  0  0  0
 10 11  1  0  0  0  0
 10 15  1  1  0  0  0
 11 12  1  0  0  0  0
 12 17  1  0  0  0  0
 12 16  1  0  0  0  0
 13 12  1  0  0  0  0
 13 21  1  0  0  0  0
 13 18  1  1  0  0  0
 19  9  1  0  0  0  0
 20 19  1  0  0  0  0
 22 21  1  0  0  0  0
 23 28  1  0  0  0  0
 23 24  1  0  0  0  0
 23  1  1  0  0  0  0
 25 23  1  0  0  0  0
 26 30  1  0  0  0  0
 26 28  1  0  0  0  0
 27 26  2  0  0  0  0
 28 29  1  0  0  0  0
 30 31  1  0  0  0  0
 31 33  2  0  0  0  0
 31 32  1  0  0  0  0
 34 35  1  0  0  0  0
 34 33  1  0  0  0  0
 36 34  2  0  0  0  0
 37 36  1  0  0  0  0
 38 36  1  0  0  0  0
 38 30  2  0  0  0  0
M  END
>  <minimizedAffinity>
-5.65954018

$$$$

 OpenBabel03242521453D

 38 40  0  0  1  0  0  0  0  0999 V2000
   36.6650   30.9430   40.2500 C   0  0  0  0  0  0  0  0  0  0  0  0
   36.8650   30.0270   39.2110 C   0  0  0  0  0  0  0  0  0  0  0  0
   37.3300   30.4970   37.9660 C   0  0  0  0  0  0  0  0  0  0  0  0
   37.5560   31.8030   37.8460 N   0  0  0  0  0  0  0  0  0  0  0  0
   37.3570   32.6770   38.8620 C   0  0  0  0  0  0  0  0  0  0  0  0
   36.9120   32.2500   40.0580 N   0  0  0  0  0  0  0  0  0  0  0  0
   36.6440   28.9830   39.4370 H   0  0  0  0  0  0  0  0  0  0  0  0
   37.5630   33.7220   38.6860 H   0  0  0  0  0  0  0  0  0  0  0  0
   36.6770   29.6740   35.7130 C   0  0  2  0  0  0  0  0  0  0  0  0
   37.5200   29.4950   36.9260 C   0  0  2  0  0  0  0  0  0  0  0  0
   37.1480   28.1750   37.3190 O   0  0  0  0  0  0  0  0  0  0  0  0
   37.3310   27.4770   36.1380 C   0  0  0  0  0  0  0  0  0  0  0  0
   37.0810   28.3810   34.9750 C   0  0  1  0  0  0  0  0  0  0  0  0
   35.5920   29.5380   35.9000 H   0  0  0  0  0  0  0  0  0  0  0  0
   38.5910   29.4230   36.6250 H   0  0  0  0  0  0  0  0  0  0  0  0
   38.3340   27.0060   36.0890 H   0  0  0  0  0  0  0  0  0  0  0  0
   36.5820   26.6660   36.0990 H   0  0  0  0  0  0  0  0  0  0  0  0
   38.0320   28.5650   34.4280 H   0  0  0  0  0  0  0  0  0  0  0  0
   36.9180   30.8130   35.0060 O   0  0  0  0  0  0  0  0  0  0  0  0
   37.5180   31.4080   35.5200 H   0  0  0  0  0  0  0  0  0  0  0  0
   36.0280   27.9960   34.1470 O   0  0  0  0  0  0  0  0  0  0  0  0
   35.2440   28.5730   34.3050 H   0  0  0  0  0  0  0  0  0  0  0  0
   36.1610   30.4400   41.5670 C   0  0  0  0  0  0  0  0  0  0  0  0
   35.0390   30.4350   41.4510 H   0  0  0  0  0  0  0  0  0  0  0  0
   36.4850   31.1040   42.3670 H   0  0  0  0  0  0  0  0  0  0  0  0
   37.6720   28.5990   42.5310 C   0  0  0  0  0  0  0  0  0  0  0  0
   38.2690   29.4860   43.2380 O   0  0  0  0  0  0  0  0  0  0  0  0
   36.6260   29.0810   41.7140 N   0  0  0  0  0  0  0  0  0  0  0  0
   36.1210   28.3690   41.1420 H   0  0  0  0  0  0  0  0  0  0  0  0
   38.0570   27.1960   42.5770 C   0  0  0  0  0  0  0  0  0  0  0  0
   39.2330   26.6750   43.0760 C   0  0  0  0  0  0  0  0  0  0  0  0
   39.9310   27.3800   43.4660 H   0  0  0  0  0  0  0  0  0  0  0  0
   39.4770   25.3170   43.0590 C   0  0  0  0  0  3  0  0  0  0  0  0
   38.5550   24.4180   42.5460 C   0  0  0  0  0  0  0  0  0  0  0  0
   38.7840   23.3610   42.5520 H   0  0  0  0  0  0  0  0  0  0  0  0
   37.3710   24.9030   42.0410 C   0  0  0  0  0  0  0  0  0  0  0  0
   36.6180   24.2450   41.6280 H   0  0  0  0  0  0  0  0  0  0  0  0
   37.1520   26.2650   42.0680 C   0  0  0  0  0  3  0  0  0  0  0  0
  1 23  1  0  0  0  0
  2  7  1  0  0  0  0
  2  1  2  0  0  0  0
  3  2  1  0  0  0  0
  4  3  2  0  0  0  0
  4  5  1  0  0  0  0
  5  6  2  0  0  0  0
  6  1  1  0  0  0  0
  8  5  1  0  0  0  0
  9 14  1  1  0  0  0
  9 10  1  0  0  0  0
 10 15  1  6  0  0  0
 10 11  1  0  0  0  0
 10  3  1  0  0  0  0
 12 11  1  0  0  0  0
 13 18  1  6  0  0  0
 13  9  1  0  0  0  0
 13 12  1  0  0  0  0
 16 12  1  0  0  0  0
 17 12  1  0  0  0  0
 19 20  1  0  0  0  0
 19  9  1  0  0  0  0
 21 22  1  0  0  0  0
 21 13  1  0  0  0  0
 23 28  1  0  0  0  0
 23 25  1  0  0  0  0
 24 23  1  0  0  0  0
 26 30  1  0  0  0  0
 26 27  2  0  0  0  0
 28 26  1  0  0  0  0
 29 28  1  0  0  0  0
 30 31  1  0  0  0  0
 31 32  1  0  0  0  0
 33 31  2  0  0  0  0
 34 35  1  0  0  0  0
 34 33  1  0  0  0  0
 36 38  1  0  0  0  0
 36 34  2  0  0  0  0
 37 36  1  0  0  0  0
 38 30  2  0  0  0  0
M  END
>  <minimizedAffinity>
-5.62784195

$$$$

 OpenBabel03242521453D

 38 40  0  0  1  0  0  0  0  0999 V2000
   38.1350   27.9890   42.7110 C   0  0  0  0  0  0  0  0  0  0  0  0
   37.9810   29.1800   41.9930 C   0  0  0  0  0  0  0  0  0  0  0  0
   39.1210   29.9600   41.7110 C   0  0  0  0  0  0  0  0  0  0  0  0
   40.2950   29.5140   42.1470 N   0  0  0  0  0  0  0  0  0  0  0  0
   40.4280   28.3580   42.8410 C   0  0  0  0  0  0  0  0  0  0  0  0
   39.3540   27.5990   43.1230 N   0  0  0  0  0  0  0  0  0  0  0  0
   36.9640   29.4350   41.6910 H   0  0  0  0  0  0  0  0  0  0  0  0
   41.4160   28.0640   43.1610 H   0  0  0  0  0  0  0  0  0  0  0  0
   39.4550   32.4200   41.5780 C   0  0  2  0  0  0  0  0  0  0  0  0
   38.8950   31.1880   40.9600 C   0  0  2  0  0  0  0  0  0  0  0  0
   37.5200   31.5490   40.8410 O   0  0  0  0  0  0  0  0  0  0  0  0
   37.6130   32.7670   40.1920 C   0  0  0  0  0  0  0  0  0  0  0  0
   38.8900   33.4440   40.5720 C   0  0  1  0  0  0  0  0  0  0  0  0
   38.9680   32.7000   42.5350 H   0  0  0  0  0  0  0  0  0  0  0  0
   39.2680   31.0950   39.9130 H   0  0  0  0  0  0  0  0  0  0  0  0
   37.5120   32.6580   39.0930 H   0  0  0  0  0  0  0  0  0  0  0  0
   36.7800   33.4050   40.5380 H   0  0  0  0  0  0  0  0  0  0  0  0
   39.5690   33.4900   39.6920 H   0  0  0  0  0  0  0  0  0  0  0  0
   40.8120   32.4440   41.6890 O   0  0  0  0  0  0  0  0  0  0  0  0
   41.1830   31.5520   41.4730 H   0  0  0  0  0  0  0  0  0  0  0  0
   38.7370   34.6660   41.2220 O   0  0  0  0  0  0  0  0  0  0  0  0
   38.9230   34.5640   42.1860 H   0  0  0  0  0  0  0  0  0  0  0  0
   36.9200   27.1690   43.0170 C   0  0  0  0  0  0  0  0  0  0  0  0
   36.0800   27.7140   42.4990 H   0  0  0  0  0  0  0  0  0  0  0  0
   36.7680   27.1170   44.0940 H   0  0  0  0  0  0  0  0  0  0  0  0
   36.9000   25.5280   41.0400 C   0  0  0  0  0  0  0  0  0  0  0  0
   36.5190   26.4840   40.2750 O   0  0  0  0  0  0  0  0  0  0  0  0
   37.1030   25.8800   42.3920 N   0  0  0  0  0  0  0  0  0  0  0  0
   37.4270   25.1160   43.0250 H   0  0  0  0  0  0  0  0  0  0  0  0
   37.1050   24.1790   40.5350 C   0  0  0  0  0  0  0  0  0  0  0  0
   38.1860   23.3570   40.7790 C   0  0  0  0  0  0  0  0  0  0  0  0
   38.9500   23.7590   41.4040 H   0  0  0  0  0  0  0  0  0  0  0  0
   38.2590   22.0910   40.2350 C   0  0  0  0  0  3  0  0  0  0  0  0
   37.2540   21.5880   39.4240 C   0  0  0  0  0  0  0  0  0  0  0  0
   37.3480   20.5900   39.0170 H   0  0  0  0  0  0  0  0  0  0  0  0
   36.1610   22.3800   39.1600 C   0  0  0  0  0  0  0  0  0  0  0  0
   35.3480   22.0370   38.5330 H   0  0  0  0  0  0  0  0  0  0  0  0
   36.1120   23.6430   39.7150 C   0  0  0  0  0  3  0  0  0  0  0  0
  1 23  1  0  0  0  0
  1  6  1  0  0  0  0
  2  1  2  0  0  0  0
  3  2  1  0  0  0  0
  3  4  2  0  0  0  0
  4  5  1  0  0  0  0
  5  6  2  0  0  0  0
  5  8  1  0  0  0  0
  7  2  1  0  0  0  0
  9 19  1  0  0  0  0
  9 14  1  1  0  0  0
 10 15  1  6  0  0  0
 10  9  1  0  0  0  0
 10  3  1  0  0  0  0
 11 10  1  0  0  0  0
 12 17  1  0  0  0  0
 12 13  1  0  0  0  0
 12 11  1  0  0  0  0
 13 18  1  6  0  0  0
 13 21  1  0  0  0  0
 13  9  1  0  0  0  0
 16 12  1  0  0  0  0
 20 19  1  0  0  0  0
 21 22  1  0  0  0  0
 23 25  1  0  0  0  0
 24 23  1  0  0  0  0
 26 28  1  0  0  0  0
 27 26  2  0  0  0  0
 28 23  1  0  0  0  0
 28 29  1  0  0  0  0
 30 31  1  0  0  0  0
 30 26  1  0  0  0  0
 31 32  1  0  0  0  0
 33 31  2  0  0  0  0
 34 33  1  0  0  0  0
 35 34  1  0  0  0  0
 36 34  2  0  0  0  0
 36 38  1  0  0  0  0
 37 36  1  0  0  0  0
 38 30  2  0  0  0  0
M  END
>  <minimizedAffinity>
-5.57052517

$$$$
