
 OpenBabel03252501323D

 24 25  0  0  0  0  0  0  0  0999 V2000
   42.6950   34.6620   40.8940 C   0  0  0  0  0  0  0  0  0  0  0  0
   41.9090   35.6220   40.6300 O   0  0  0  0  0  0  0  0  0  0  0  0
   42.1650   33.3890   40.5380 N   0  0  0  0  0  0  0  0  0  0  0  0
   42.7170   32.5470   40.6850 H   0  0  0  0  0  0  0  0  0  0  0  0
   44.0040   34.8670   41.5020 C   0  0  0  0  0  0  0  0  0  0  0  0
   45.0710   34.2670   40.8670 C   0  0  0  0  0  0  0  0  0  0  0  0
   44.9860   33.6740   39.9730 H   0  0  0  0  0  0  0  0  0  0  0  0
   46.3280   34.4370   41.4120 C   0  0  0  0  0  0  0  0  0  0  0  0
   46.4640   35.2030   42.5710 C   0  0  0  0  0  0  0  0  0  0  0  0
   47.4340   35.3580   43.0270 H   0  0  0  0  0  0  0  0  0  0  0  0
   45.3650   35.7850   43.1730 C   0  0  0  0  0  0  0  0  0  0  0  0
   45.5000   36.3710   44.0690 H   0  0  0  0  0  0  0  0  0  0  0  0
   44.0910   35.6280   42.6440 C   0  0  0  0  0  0  0  0  0  0  0  0
   40.8400   33.5910   39.9960 C   0  0  0  0  0  0  0  0  0  0  0  0
   39.6780   33.6750   40.7440 C   0  0  0  0  0  0  0  0  0  0  0  0
   38.4840   33.8730   40.0560 C   0  0  0  0  0  0  0  0  0  0  0  0
   38.5530   33.9660   38.7240 N   0  0  0  0  0  0  0  0  0  0  0  0
   39.7000   33.8800   38.0120 C   0  0  0  0  0  0  0  0  0  0  0  0
   40.8590   33.6910   38.6580 N   0  0  0  0  0  0  0  0  0  0  0  0
   37.6110   33.9330   40.6550 H   0  0  0  0  0  0  0  0  0  0  0  0
   39.7090   33.9620   36.9370 H   0  0  0  0  0  0  0  0  0  0  0  0
   39.8140   33.5500   42.1610 N   0  0  0  0  0  0  0  0  0  0  0  0
   39.9990   34.2410   42.9210 H   0  0  0  0  0  0  0  0  0  0  0  0
   39.6610   32.5040   42.1600 H   0  0  0  0  0  0  0  0  0  0  0  0
  1  5  1  0  0  0  0
  2  1  2  0  0  0  0
  3  4  1  0  0  0  0
  3  1  1  0  0  0  0
  5 13  1  0  0  0  0
  6  8  1  0  0  0  0
  6  5  2  0  0  0  0
  7  6  1  0  0  0  0
  8  9  2  0  0  0  0
  9 10  1  0  0  0  0
  9 11  1  0  0  0  0
 11 12  1  0  0  0  0
 13 11  2  0  0  0  0
 14  3  1  0  0  0  0
 14 15  1  0  0  0  0
 15 22  1  0  0  0  0
 16 20  1  0  0  0  0
 16 15  2  0  0  0  0
 17 16  1  0  0  0  0
 18 19  1  0  0  0  0
 18 17  2  0  0  0  0
 19 14  2  0  0  0  0
 21 18  1  0  0  0  0
 22 23  1  0  0  0  0
 24 22  1  0  0  0  0
M  END
>  <minimizedAffinity>
-5.22122145

>  <minimizedRMSD>
6.50607347

$$$$
