
 OpenBabel03252507463D

 37 39  0  0  0  0  0  0  0  0999 V2000
   46.9510   34.3530   40.9520 C   0  0  0  0  0  0  0  0  0  0  0  0
   47.0920   35.1580   40.1740 H   0  0  0  0  0  0  0  0  0  0  0  0
   46.3960   33.5160   40.5350 H   0  0  0  0  0  0  0  0  0  0  0  0
   48.3110   33.9870   41.3910 C   0  0  0  0  0  0  0  0  0  0  0  0
   48.7690   32.7450   40.9910 C   0  0  0  0  0  0  0  0  0  0  0  0
   50.0440   32.3140   41.3590 C   0  0  0  0  0  0  0  0  0  0  0  0
   50.7980   33.1710   42.1180 N   0  0  0  0  0  0  0  0  0  0  0  0
   50.3080   34.3880   42.4900 C   0  0  0  0  0  0  0  0  0  0  0  0
   49.0910   34.7660   42.1230 N   0  0  0  0  0  0  0  0  0  0  0  0
   50.4460   31.3490   41.0690 H   0  0  0  0  0  0  0  0  0  0  0  0
   50.9080   35.0600   43.0910 H   0  0  0  0  0  0  0  0  0  0  0  0
   47.7450   31.6590   39.9970 S   0  0  0  0  0  0  0  0  0  0  0  0
   47.9980   32.0880   38.2890 C   0  0  0  0  0  0  0  0  0  0  0  0
   48.5830   33.2680   37.9410 C   0  0  0  0  0  0  0  0  0  0  0  0
   48.9090   33.9730   38.7160 H   0  0  0  0  0  0  0  0  0  0  0  0
   48.7950   33.6350   36.6450 C   0  0  0  0  0  3  0  0  0  0  0  0
   48.4140   32.8050   35.5990 C   0  0  0  0  0  0  0  0  0  0  0  0
   48.5690   33.0690   34.5630 H   0  0  0  0  0  0  0  0  0  0  0  0
   47.8180   31.6020   35.9220 C   0  0  0  0  0  0  0  0  0  0  0  0
   47.5180   30.9500   35.1170 H   0  0  0  0  0  0  0  0  0  0  0  0
   47.6240   31.2730   37.2450 C   0  0  0  0  0  3  0  0  0  0  0  0
   46.1250   34.9760   42.0330 C   0  0  0  0  0  0  0  0  0  0  0  0
   46.2610   34.3500   42.9630 H   0  0  0  0  0  0  0  0  0  0  0  0
   46.4630   35.9900   42.3340 H   0  0  0  0  0  0  0  0  0  0  0  0
   44.6600   34.9570   41.7600 C   0  0  0  0  0  0  0  0  0  0  0  0
   43.7570   35.4570   42.7420 C   0  0  0  0  0  0  0  0  0  0  0  0
   42.1170   35.2230   41.9560 S   0  0  0  0  0  0  0  0  0  0  0  0
   42.9430   34.4760   40.4070 C   0  0  0  0  0  0  0  0  0  0  0  0
   44.0460   34.5270   40.6940 N   0  0  0  0  0  0  0  0  0  0  0  0
   44.0110   35.8730   43.7160 H   0  0  0  0  0  0  0  0  0  0  0  0
   42.2160   34.0340   39.2980 O   0  0  0  0  0  0  0  0  0  0  0  0
   40.3250   34.5760   37.5240 O   0  0  0  0  0  0  0  0  0  0  0  0
   41.4240   35.2180   38.3690 P   0  0  0  0  0  0  0  0  0  0  0  0
   40.7380   36.3410   39.4250 O   0  0  0  0  0  0  0  0  0  0  0  0
   39.8950   35.9670   39.8260 H   0  0  0  0  0  0  0  0  0  0  0  0
   42.5490   36.0030   37.3780 O   0  0  0  0  0  0  0  0  0  0  0  0
   42.9990   36.6890   37.9570 H   0  0  0  0  0  0  0  0  0  0  0  0
  1  4  1  0  0  0  0
  1 22  1  0  0  0  0
  2  1  1  0  0  0  0
  3  1  1  0  0  0  0
  4  9  1  0  0  0  0
  5  6  1  0  0  0  0
  5  4  2  0  0  0  0
  6  7  2  0  0  0  0
  7  8  1  0  0  0  0
  8 11  1  0  0  0  0
  9  8  2  0  0  0  0
 10  6  1  0  0  0  0
 12  5  1  0  0  0  0
 13 12  1  0  0  0  0
 14 13  1  0  0  0  0
 14 15  1  0  0  0  0
 16 14  2  0  0  0  0
 17 19  2  0  0  0  0
 17 16  1  0  0  0  0
 18 17  1  0  0  0  0
 19 21  1  0  0  0  0
 20 19  1  0  0  0  0
 21 13  2  0  0  0  0
 22 24  1  0  0  0  0
 22 23  1  0  0  0  0
 25 22  1  0  0  0  0
 25 26  2  0  0  0  0
 26 30  1  0  0  0  0
 27 26  1  0  0  0  0
 28 29  2  0  0  0  0
 28 27  1  0  0  0  0
 29 25  1  0  0  0  0
 31 28  1  0  0  0  0
 32 33  2  0  0  0  0
 33 31  1  0  0  0  0
 33 34  1  0  0  0  0
 34 35  1  0  0  0  0
 36 37  1  0  0  0  0
 36 33  1  0  0  0  0
M  END
>  <minimizedAffinity>
-4.9166646

>  <minimizedRMSD>
0.432702988

$$$$
