
 OpenBabel03242512353D

 20 21  0  0  0  0  0  0  0  0999 V2000
   35.4250   29.3230   40.1530 C   0  0  0  0  0  0  0  0  0  0  0  0
   34.2000   29.1940   39.9110 O   0  0  0  0  0  0  0  0  0  0  0  0
   36.2680   30.4370   39.8740 C   0  0  0  0  0  0  0  0  0  0  0  0
   36.6230   30.4940   38.5290 C   0  0  0  0  0  0  0  0  0  0  0  0
   37.4550   31.5590   38.1190 C   0  0  0  0  0  0  0  0  0  0  0  0
   37.8520   32.4530   39.0750 N   0  0  0  0  0  0  0  0  0  0  0  0
   37.4690   32.3390   40.3700 C   0  0  0  0  0  0  0  0  0  0  0  0
   36.6740   31.3280   40.7720 N   0  0  0  0  0  0  0  0  0  0  0  0
   36.3300   29.8090   37.7540 H   0  0  0  0  0  0  0  0  0  0  0  0
   37.7900   31.6980   37.1050 H   0  0  0  0  0  0  0  0  0  0  0  0
   37.8160   33.0810   41.0850 H   0  0  0  0  0  0  0  0  0  0  0  0
   36.1130   28.2060   40.8060 C   0  0  0  0  0  0  0  0  0  0  0  0
   36.5070   27.1410   40.0210 C   0  0  0  0  0  0  0  0  0  0  0  0
   36.3440   27.0690   38.9400 H   0  0  0  0  0  0  0  0  0  0  0  0
   37.1700   26.0280   40.5520 C   0  0  0  0  0  3  0  0  0  0  0  0
   37.4300   26.0110   41.9190 C   0  0  0  0  0  0  0  0  0  0  0  0
   37.9360   25.2050   42.4460 H   0  0  0  0  0  0  0  0  0  0  0  0
   37.0440   27.0660   42.7220 C   0  0  0  0  0  0  0  0  0  0  0  0
   37.2050   27.1380   43.7900 H   0  0  0  0  0  0  0  0  0  0  0  0
   36.3950   28.1320   42.1350 C   0  0  0  0  0  3  0  0  0  0  0  0
  1 12  1  0  0  0  0
  2  1  2  0  0  0  0
  3  1  1  0  0  0  0
  3  8  1  0  0  0  0
  4  3  2  0  0  0  0
  5  4  1  0  0  0  0
  5  6  2  0  0  0  0
  6  7  1  0  0  0  0
  7  8  2  0  0  0  0
  7 11  1  0  0  0  0
  9  4  1  0  0  0  0
 10  5  1  0  0  0  0
 12 20  1  0  0  0  0
 13 15  1  0  0  0  0
 13 12  2  0  0  0  0
 14 13  1  0  0  0  0
 15 16  2  0  0  0  0
 16 17  1  0  0  0  0
 16 18  1  0  0  0  0
 18 19  1  0  0  0  0
 20 18  2  0  0  0  0
M  END
>  <minimizedAffinity>
-4.48790121

$$$$

 OpenBabel03242512353D

 20 21  0  0  0  0  0  0  0  0999 V2000
   35.4180   29.1690   40.2110 C   0  0  0  0  0  0  0  0  0  0  0  0
   34.1990   29.1880   39.9150 O   0  0  0  0  0  0  0  0  0  0  0  0
   36.1480   28.1490   40.8880 C   0  0  0  0  0  0  0  0  0  0  0  0
   36.5480   27.1370   40.0210 C   0  0  0  0  0  0  0  0  0  0  0  0
   37.2860   26.0640   40.5680 C   0  0  0  0  0  0  0  0  0  0  0  0
   37.5510   26.1000   41.9090 N   0  0  0  0  0  0  0  0  0  0  0  0
   37.1310   27.1180   42.6990 C   0  0  0  0  0  0  0  0  0  0  0  0
   36.4260   28.1480   42.1870 N   0  0  0  0  0  0  0  0  0  0  0  0
   36.3560   27.0770   38.9650 H   0  0  0  0  0  0  0  0  0  0  0  0
   37.6440   25.2300   39.9880 H   0  0  0  0  0  0  0  0  0  0  0  0
   37.3720   27.0920   43.7580 H   0  0  0  0  0  0  0  0  0  0  0  0
   36.2310   30.3270   39.8280 C   0  0  0  0  0  0  0  0  0  0  0  0
   36.6050   30.4450   38.5040 C   0  0  0  0  0  0  0  0  0  0  0  0
   36.3360   29.7350   37.7140 H   0  0  0  0  0  0  0  0  0  0  0  0
   37.3810   31.5140   38.0410 C   0  0  0  0  0  3  0  0  0  0  0  0
   37.7810   32.4810   38.9600 C   0  0  0  0  0  0  0  0  0  0  0  0
   38.3840   33.3530   38.7220 H   0  0  0  0  0  0  0  0  0  0  0  0
   37.4180   32.3800   40.2890 C   0  0  0  0  0  0  0  0  0  0  0  0
   37.6830   33.0820   41.0700 H   0  0  0  0  0  0  0  0  0  0  0  0
   36.6530   31.3020   40.6790 C   0  0  0  0  0  3  0  0  0  0  0  0
  1  3  1  0  0  0  0
  2  1  2  0  0  0  0
  3  8  1  0  0  0  0
  4  5  1  0  0  0  0
  4  3  2  0  0  0  0
  5  6  2  0  0  0  0
  6  7  1  0  0  0  0
  7 11  1  0  0  0  0
  8  7  2  0  0  0  0
  9  4  1  0  0  0  0
 10  5  1  0  0  0  0
 12  1  1  0  0  0  0
 12 20  1  0  0  0  0
 13 12  2  0  0  0  0
 14 13  1  0  0  0  0
 15 13  1  0  0  0  0
 15 16  2  0  0  0  0
 16 18  1  0  0  0  0
 17 16  1  0  0  0  0
 18 20  2  0  0  0  0
 18 19  1  0  0  0  0
M  END
>  <minimizedAffinity>
-4.40610552

$$$$

 OpenBabel03242512353D

 20 21  0  0  0  0  0  0  0  0999 V2000
   36.2990   30.1910   40.8940 C   0  0  0  0  0  0  0  0  0  0  0  0
   36.2220   31.4200   41.1340 O   0  0  0  0  0  0  0  0  0  0  0  0
   36.8830   29.1690   41.6970 C   0  0  0  0  0  0  0  0  0  0  0  0
   38.0860   29.5810   42.2650 C   0  0  0  0  0  0  0  0  0  0  0  0
   38.7660   28.6590   43.0900 C   0  0  0  0  0  0  0  0  0  0  0  0
   38.1930   27.4300   43.2690 N   0  0  0  0  0  0  0  0  0  0  0  0
   37.0180   27.0920   42.6850 C   0  0  0  0  0  0  0  0  0  0  0  0
   36.3590   27.9640   41.8960 N   0  0  0  0  0  0  0  0  0  0  0  0
   38.5630   30.5370   42.1450 H   0  0  0  0  0  0  0  0  0  0  0  0
   39.7020   28.8740   43.5780 H   0  0  0  0  0  0  0  0  0  0  0  0
   36.6110   26.1000   42.8640 H   0  0  0  0  0  0  0  0  0  0  0  0
   35.7250   29.7040   39.6370 C   0  0  0  0  0  0  0  0  0  0  0  0
   36.5140   29.7490   38.5050 C   0  0  0  0  0  0  0  0  0  0  0  0
   37.5440   30.1230   38.4770 H   0  0  0  0  0  0  0  0  0  0  0  0
   36.0560   29.3080   37.2580 C   0  0  0  0  0  3  0  0  0  0  0  0
   34.7580   28.8100   37.1750 C   0  0  0  0  0  0  0  0  0  0  0  0
   34.2910   28.4400   36.2650 H   0  0  0  0  0  0  0  0  0  0  0  0
   33.9530   28.7570   38.2960 C   0  0  0  0  0  0  0  0  0  0  0  0
   32.9350   28.3860   38.3240 H   0  0  0  0  0  0  0  0  0  0  0  0
   34.4660   29.2080   39.4930 C   0  0  0  0  0  3  0  0  0  0  0  0
  1  2  2  0  0  0  0
  1  3  1  0  0  0  0
  3  8  2  0  0  0  0
  3  4  1  0  0  0  0
  4  5  2  0  0  0  0
  5  6  1  0  0  0  0
  5 10  1  0  0  0  0
  7 11  1  0  0  0  0
  7  6  2  0  0  0  0
  8  7  1  0  0  0  0
  9  4  1  0  0  0  0
 12  1  1  0  0  0  0
 13 12  2  0  0  0  0
 14 13  1  0  0  0  0
 15 13  1  0  0  0  0
 16 15  2  0  0  0  0
 16 18  1  0  0  0  0
 17 16  1  0  0  0  0
 18 19  1  0  0  0  0
 18 20  2  0  0  0  0
 20 12  1  0  0  0  0
M  END
>  <minimizedAffinity>
-4.35183859

$$$$

 OpenBabel03242512353D

 20 21  0  0  0  0  0  0  0  0999 V2000
   37.0340   27.6120   42.9020 C   0  0  0  0  0  0  0  0  0  0  0  0
   36.0710   27.4050   43.6790 O   0  0  0  0  0  0  0  0  0  0  0  0
   37.1990   28.6680   41.9600 C   0  0  0  0  0  0  0  0  0  0  0  0
   36.2440   28.6120   40.9480 C   0  0  0  0  0  0  0  0  0  0  0  0
   36.2940   29.6100   39.9490 C   0  0  0  0  0  0  0  0  0  0  0  0
   37.2770   30.5560   40.0510 N   0  0  0  0  0  0  0  0  0  0  0  0
   38.1770   30.5520   41.0640 C   0  0  0  0  0  0  0  0  0  0  0  0
   38.1380   29.6050   42.0230 N   0  0  0  0  0  0  0  0  0  0  0  0
   35.4610   27.8840   40.8380 H   0  0  0  0  0  0  0  0  0  0  0  0
   35.6060   29.6610   39.1230 H   0  0  0  0  0  0  0  0  0  0  0  0
   38.9360   31.3300   41.0920 H   0  0  0  0  0  0  0  0  0  0  0  0
   38.1550   26.6690   42.9390 C   0  0  0  0  0  0  0  0  0  0  0  0
   38.0570   25.5180   42.1820 C   0  0  0  0  0  0  0  0  0  0  0  0
   37.1990   25.2570   41.5520 H   0  0  0  0  0  0  0  0  0  0  0  0
   39.0740   24.5560   42.1520 C   0  0  0  0  0  3  0  0  0  0  0  0
   40.2150   24.7840   42.9170 C   0  0  0  0  0  0  0  0  0  0  0  0
   41.0680   24.1130   42.9750 H   0  0  0  0  0  0  0  0  0  0  0  0
   40.3320   25.9290   43.6800 C   0  0  0  0  0  0  0  0  0  0  0  0
   41.1800   26.1880   44.3020 H   0  0  0  0  0  0  0  0  0  0  0  0
   39.2940   26.8360   43.6650 C   0  0  0  0  0  3  0  0  0  0  0  0
  1 12  1  0  0  0  0
  1  2  2  0  0  0  0
  3  8  1  0  0  0  0
  3  1  1  0  0  0  0
  4  3  2  0  0  0  0
  5  6  2  0  0  0  0
  5  4  1  0  0  0  0
  6  7  1  0  0  0  0
  7 11  1  0  0  0  0
  7  8  2  0  0  0  0
  9  4  1  0  0  0  0
 10  5  1  0  0  0  0
 12 20  1  0  0  0  0
 13 12  2  0  0  0  0
 14 13  1  0  0  0  0
 15 13  1  0  0  0  0
 15 16  2  0  0  0  0
 16 17  1  0  0  0  0
 16 18  1  0  0  0  0
 18 19  1  0  0  0  0
 20 18  2  0  0  0  0
M  END
>  <minimizedAffinity>
-4.34584904

$$$$

 OpenBabel03242512353D

 20 21  0  0  0  0  0  0  0  0999 V2000
   37.5600   28.1580   42.6310 C   0  0  0  0  0  0  0  0  0  0  0  0
   37.3690   28.8210   43.6800 O   0  0  0  0  0  0  0  0  0  0  0  0
   37.2200   28.5050   41.2920 C   0  0  0  0  0  0  0  0  0  0  0  0
   35.8470   28.6710   41.1330 C   0  0  0  0  0  0  0  0  0  0  0  0
   35.3770   29.0230   39.8480 C   0  0  0  0  0  0  0  0  0  0  0  0
   36.3070   29.1730   38.8560 N   0  0  0  0  0  0  0  0  0  0  0  0
   37.6320   28.9970   39.0790 C   0  0  0  0  0  0  0  0  0  0  0  0
   38.0920   28.6620   40.3020 N   0  0  0  0  0  0  0  0  0  0  0  0
   35.0910   28.5590   41.8890 H   0  0  0  0  0  0  0  0  0  0  0  0
   34.3370   29.1750   39.6150 H   0  0  0  0  0  0  0  0  0  0  0  0
   38.3240   29.1310   38.2520 H   0  0  0  0  0  0  0  0  0  0  0  0
   38.2150   26.8530   42.7590 C   0  0  0  0  0  0  0  0  0  0  0  0
   39.3940   26.7880   43.4750 C   0  0  0  0  0  0  0  0  0  0  0  0
   39.8770   27.6440   43.9590 H   0  0  0  0  0  0  0  0  0  0  0  0
   40.0940   25.5890   43.6530 C   0  0  0  0  0  3  0  0  0  0  0  0
   39.5700   24.4330   43.0790 C   0  0  0  0  0  0  0  0  0  0  0  0
   40.0210   23.4460   43.1470 H   0  0  0  0  0  0  0  0  0  0  0  0
   38.3920   24.4780   42.3590 C   0  0  0  0  0  0  0  0  0  0  0  0
   37.9130   23.6320   41.8810 H   0  0  0  0  0  0  0  0  0  0  0  0
   37.7530   25.6910   42.2230 C   0  0  0  0  0  3  0  0  0  0  0  0
  1 12  1  0  0  0  0
  1  2  2  0  0  0  0
  3  1  1  0  0  0  0
  4  3  1  0  0  0  0
  4  9  1  0  0  0  0
  5  4  2  0  0  0  0
  6  7  2  0  0  0  0
  6  5  1  0  0  0  0
  7  8  1  0  0  0  0
  8  3  2  0  0  0  0
 10  5  1  0  0  0  0
 11  7  1  0  0  0  0
 12 13  1  0  0  0  0
 13 15  2  0  0  0  0
 13 14  1  0  0  0  0
 16 17  1  0  0  0  0
 16 15  1  0  0  0  0
 18 16  2  0  0  0  0
 19 18  1  0  0  0  0
 20 18  1  0  0  0  0
 20 12  2  0  0  0  0
M  END
>  <minimizedAffinity>
-4.28960657

$$$$

 OpenBabel03242512353D

 20 21  0  0  0  0  0  0  0  0999 V2000
   35.8710   29.3820   40.3690 C   0  0  0  0  0  0  0  0  0  0  0  0
   34.6390   29.1530   40.3190 O   0  0  0  0  0  0  0  0  0  0  0  0
   36.6490   30.2220   39.5200 C   0  0  0  0  0  0  0  0  0  0  0  0
   37.3890   29.4840   38.6000 C   0  0  0  0  0  0  0  0  0  0  0  0
   38.2010   30.2010   37.6930 C   0  0  0  0  0  0  0  0  0  0  0  0
   38.2020   31.5660   37.7890 N   0  0  0  0  0  0  0  0  0  0  0  0
   37.4570   32.2220   38.7110 C   0  0  0  0  0  0  0  0  0  0  0  0
   36.6770   31.5490   39.5810 N   0  0  0  0  0  0  0  0  0  0  0  0
   37.4120   28.4140   38.4980 H   0  0  0  0  0  0  0  0  0  0  0  0
   38.8130   29.7310   36.9420 H   0  0  0  0  0  0  0  0  0  0  0  0
   37.4980   33.3080   38.7390 H   0  0  0  0  0  0  0  0  0  0  0  0
   36.6460   28.7200   41.4220 C   0  0  0  0  0  0  0  0  0  0  0  0
   37.3460   29.5160   42.3080 C   0  0  0  0  0  0  0  0  0  0  0  0
   37.3640   30.6110   42.2820 H   0  0  0  0  0  0  0  0  0  0  0  0
   38.1150   28.9790   43.3470 C   0  0  0  0  0  3  0  0  0  0  0  0
   38.1650   27.5930   43.4750 C   0  0  0  0  0  0  0  0  0  0  0  0
   38.7260   27.0600   44.2390 H   0  0  0  0  0  0  0  0  0  0  0  0
   37.4720   26.7800   42.6000 C   0  0  0  0  0  0  0  0  0  0  0  0
   37.4530   25.6970   42.6260 H   0  0  0  0  0  0  0  0  0  0  0  0
   36.7340   27.3740   41.5990 C   0  0  0  0  0  3  0  0  0  0  0  0
  1 12  1  0  0  0  0
  2  1  2  0  0  0  0
  3  8  1  0  0  0  0
  3  1  1  0  0  0  0
  4  3  2  0  0  0  0
  5  6  2  0  0  0  0
  5  4  1  0  0  0  0
  6  7  1  0  0  0  0
  7 11  1  0  0  0  0
  7  8  2  0  0  0  0
  9  4  1  0  0  0  0
 10  5  1  0  0  0  0
 12 20  2  0  0  0  0
 12 13  1  0  0  0  0
 13 15  2  0  0  0  0
 14 13  1  0  0  0  0
 15 16  1  0  0  0  0
 16 17  1  0  0  0  0
 18 19  1  0  0  0  0
 18 16  2  0  0  0  0
 20 18  1  0  0  0  0
M  END
>  <minimizedAffinity>
-4.28541374

$$$$

 OpenBabel03242512353D

 20 21  0  0  0  0  0  0  0  0999 V2000
   36.7700   27.2930   42.5590 C   0  0  0  0  0  0  0  0  0  0  0  0
   36.2040   27.3470   43.6780 O   0  0  0  0  0  0  0  0  0  0  0  0
   37.6100   26.2640   42.0430 C   0  0  0  0  0  0  0  0  0  0  0  0
   36.9890   25.0180   42.0880 C   0  0  0  0  0  0  0  0  0  0  0  0
   37.7160   23.9100   41.5990 C   0  0  0  0  0  0  0  0  0  0  0  0
   38.9760   24.1440   41.1190 N   0  0  0  0  0  0  0  0  0  0  0  0
   39.5210   25.3840   41.1040 C   0  0  0  0  0  0  0  0  0  0  0  0
   38.8360   26.4490   41.5670 N   0  0  0  0  0  0  0  0  0  0  0  0
   36.0040   24.8010   42.4590 H   0  0  0  0  0  0  0  0  0  0  0  0
   37.3320   22.9040   41.5870 H   0  0  0  0  0  0  0  0  0  0  0  0
   40.5260   25.5080   40.7100 H   0  0  0  0  0  0  0  0  0  0  0  0
   36.5670   28.4130   41.6360 C   0  0  0  0  0  0  0  0  0  0  0  0
   37.1350   29.6290   41.9610 C   0  0  0  0  0  0  0  0  0  0  0  0
   37.7310   29.8190   42.8600 H   0  0  0  0  0  0  0  0  0  0  0  0
   36.9970   30.7580   41.1440 C   0  0  0  0  0  3  0  0  0  0  0  0
   36.2570   30.6320   39.9710 C   0  0  0  0  0  0  0  0  0  0  0  0
   36.0800   31.4340   39.2590 H   0  0  0  0  0  0  0  0  0  0  0  0
   35.6810   29.4240   39.6300 C   0  0  0  0  0  0  0  0  0  0  0  0
   35.0930   29.2350   38.7400 H   0  0  0  0  0  0  0  0  0  0  0  0
   35.8560   28.3520   40.4780 C   0  0  0  0  0  3  0  0  0  0  0  0
  1  2  2  0  0  0  0
  3  4  1  0  0  0  0
  3  1  1  0  0  0  0
  4  9  1  0  0  0  0
  5  4  2  0  0  0  0
  6  5  1  0  0  0  0
  7  6  2  0  0  0  0
  7  8  1  0  0  0  0
  8  3  2  0  0  0  0
 10  5  1  0  0  0  0
 11  7  1  0  0  0  0
 12 13  1  0  0  0  0
 12  1  1  0  0  0  0
 13 14  1  0  0  0  0
 15 13  2  0  0  0  0
 16 15  1  0  0  0  0
 17 16  1  0  0  0  0
 18 16  2  0  0  0  0
 18 20  1  0  0  0  0
 19 18  1  0  0  0  0
 20 12  2  0  0  0  0
M  END
>  <minimizedAffinity>
-4.25261497

$$$$

 OpenBabel03242512353D

 20 21  0  0  0  0  0  0  0  0999 V2000
   37.0530   27.2840   42.8550 C   0  0  0  0  0  0  0  0  0  0  0  0
   36.1070   27.3540   43.6780 O   0  0  0  0  0  0  0  0  0  0  0  0
   38.2160   28.1030   42.7750 C   0  0  0  0  0  0  0  0  0  0  0  0
   39.3730   27.3910   43.0810 C   0  0  0  0  0  0  0  0  0  0  0  0
   40.5990   28.0890   43.0330 C   0  0  0  0  0  0  0  0  0  0  0  0
   40.5590   29.4130   42.6900 N   0  0  0  0  0  0  0  0  0  0  0  0
   39.3960   30.0470   42.4040 C   0  0  0  0  0  0  0  0  0  0  0  0
   38.2190   29.3900   42.4460 N   0  0  0  0  0  0  0  0  0  0  0  0
   39.4390   26.3540   43.3550 H   0  0  0  0  0  0  0  0  0  0  0  0
   41.5520   27.6360   43.2510 H   0  0  0  0  0  0  0  0  0  0  0  0
   39.4260   31.1000   42.1370 H   0  0  0  0  0  0  0  0  0  0  0  0
   36.9900   26.2380   41.8310 C   0  0  0  0  0  0  0  0  0  0  0  0
   36.9120   26.6310   40.5090 C   0  0  0  0  0  0  0  0  0  0  0  0
   36.8960   27.6720   40.1680 H   0  0  0  0  0  0  0  0  0  0  0  0
   36.8480   25.7080   39.4590 C   0  0  0  0  0  3  0  0  0  0  0  0
   36.8620   24.3520   39.7770 C   0  0  0  0  0  0  0  0  0  0  0  0
   36.8160   23.5430   39.0510 H   0  0  0  0  0  0  0  0  0  0  0  0
   36.9390   23.9390   41.0920 C   0  0  0  0  0  0  0  0  0  0  0  0
   36.9560   22.9100   41.4300 H   0  0  0  0  0  0  0  0  0  0  0  0
   37.0000   24.9000   42.0790 C   0  0  0  0  0  3  0  0  0  0  0  0
  1  2  2  0  0  0  0
  3  1  1  0  0  0  0
  3  4  1  0  0  0  0
  4  9  1  0  0  0  0
  5  4  2  0  0  0  0
  5 10  1  0  0  0  0
  6  5  1  0  0  0  0
  7  8  1  0  0  0  0
  7  6  2  0  0  0  0
  8  3  2  0  0  0  0
 11  7  1  0  0  0  0
 12 20  1  0  0  0  0
 12  1  1  0  0  0  0
 13 12  2  0  0  0  0
 14 13  1  0  0  0  0
 15 16  2  0  0  0  0
 15 13  1  0  0  0  0
 16 18  1  0  0  0  0
 17 16  1  0  0  0  0
 18 19  1  0  0  0  0
 18 20  2  0  0  0  0
M  END
>  <minimizedAffinity>
-4.24825811

$$$$

 OpenBabel03242512353D

 20 21  0  0  0  0  0  0  0  0999 V2000
   36.3040   29.9390   40.8170 C   0  0  0  0  0  0  0  0  0  0  0  0
   36.1010   31.1230   41.1820 O   0  0  0  0  0  0  0  0  0  0  0  0
   35.9690   29.3280   39.5750 C   0  0  0  0  0  0  0  0  0  0  0  0
   34.5910   29.2170   39.4070 C   0  0  0  0  0  0  0  0  0  0  0  0
   34.1250   28.6300   38.2100 C   0  0  0  0  0  0  0  0  0  0  0  0
   35.0630   28.2130   37.3060 N   0  0  0  0  0  0  0  0  0  0  0  0
   36.3920   28.3510   37.5320 C   0  0  0  0  0  0  0  0  0  0  0  0
   36.8480   28.9100   38.6710 N   0  0  0  0  0  0  0  0  0  0  0  0
   33.8300   29.5330   40.0970 H   0  0  0  0  0  0  0  0  0  0  0  0
   33.0820   28.4960   37.9790 H   0  0  0  0  0  0  0  0  0  0  0  0
   37.0900   28.0010   36.7760 H   0  0  0  0  0  0  0  0  0  0  0  0
   36.9710   29.0390   41.7630 C   0  0  0  0  0  0  0  0  0  0  0  0
   38.2260   29.3920   42.2170 C   0  0  0  0  0  0  0  0  0  0  0  0
   38.7630   30.3010   41.9220 H   0  0  0  0  0  0  0  0  0  0  0  0
   38.9430   28.5980   43.1200 C   0  0  0  0  0  3  0  0  0  0  0  0
   38.3550   27.4160   43.5630 C   0  0  0  0  0  0  0  0  0  0  0  0
   38.8120   26.7190   44.2610 H   0  0  0  0  0  0  0  0  0  0  0  0
   37.1000   27.0460   43.1210 C   0  0  0  0  0  0  0  0  0  0  0  0
   36.5690   26.1480   43.4120 H   0  0  0  0  0  0  0  0  0  0  0  0
   36.4480   27.8730   42.2310 C   0  0  0  0  0  3  0  0  0  0  0  0
  1  2  2  0  0  0  0
  1 12  1  0  0  0  0
  3  1  1  0  0  0  0
  4  3  1  0  0  0  0
  4  9  1  0  0  0  0
  5  4  2  0  0  0  0
  6  7  2  0  0  0  0
  6  5  1  0  0  0  0
  7  8  1  0  0  0  0
  8  3  2  0  0  0  0
 10  5  1  0  0  0  0
 11  7  1  0  0  0  0
 12 13  2  0  0  0  0
 12 20  1  0  0  0  0
 13 15  1  0  0  0  0
 14 13  1  0  0  0  0
 15 16  2  0  0  0  0
 16 17  1  0  0  0  0
 18 19  1  0  0  0  0
 18 16  1  0  0  0  0
 20 18  2  0  0  0  0
M  END
>  <minimizedAffinity>
-4.18576145

$$$$
