
 OpenBabel03252507463D

 37 39  0  0  0  0  0  0  0  0999 V2000
   47.1780   34.4590   40.9460 C   0  0  0  0  0  0  0  0  0  0  0  0
   47.4080   35.3380   40.2770 H   0  0  0  0  0  0  0  0  0  0  0  0
   46.5930   33.7150   40.4080 H   0  0  0  0  0  0  0  0  0  0  0  0
   48.4880   33.9520   41.3950 C   0  0  0  0  0  0  0  0  0  0  0  0
   48.7820   32.6410   41.0660 C   0  0  0  0  0  0  0  0  0  0  0  0
   50.0000   32.0780   41.4480 C   0  0  0  0  0  0  0  0  0  0  0  0
   50.8660   32.8760   42.1500 N   0  0  0  0  0  0  0  0  0  0  0  0
   50.5350   34.1640   42.4530 C   0  0  0  0  0  0  0  0  0  0  0  0
   49.3690   34.6690   42.0740 N   0  0  0  0  0  0  0  0  0  0  0  0
   50.2750   31.0540   41.2130 H   0  0  0  0  0  0  0  0  0  0  0  0
   51.2230   34.7900   43.0080 H   0  0  0  0  0  0  0  0  0  0  0  0
   47.6180   31.6360   40.1450 S   0  0  0  0  0  0  0  0  0  0  0  0
   47.7910   32.0440   38.4220 C   0  0  0  0  0  0  0  0  0  0  0  0
   46.7390   31.9270   37.5640 C   0  0  0  0  0  0  0  0  0  0  0  0
   45.7660   31.5760   37.9270 H   0  0  0  0  0  0  0  0  0  0  0  0
   46.8310   32.2290   36.2380 C   0  0  0  0  0  3  0  0  0  0  0  0
   48.0240   32.6790   35.6890 C   0  0  0  0  0  0  0  0  0  0  0  0
   48.1240   32.9270   34.6430 H   0  0  0  0  0  0  0  0  0  0  0  0
   49.1070   32.8080   36.5370 C   0  0  0  0  0  0  0  0  0  0  0  0
   50.0390   33.1580   36.1220 H   0  0  0  0  0  0  0  0  0  0  0  0
   48.9690   32.4910   37.8700 C   0  0  0  0  0  3  0  0  0  0  0  0
   46.3380   35.0040   42.0580 C   0  0  0  0  0  0  0  0  0  0  0  0
   46.4960   34.3390   42.9570 H   0  0  0  0  0  0  0  0  0  0  0  0
   46.6480   36.0120   42.4060 H   0  0  0  0  0  0  0  0  0  0  0  0
   44.8730   34.9550   41.7880 C   0  0  0  0  0  0  0  0  0  0  0  0
   43.9650   35.4730   42.7550 C   0  0  0  0  0  0  0  0  0  0  0  0
   42.3260   35.1910   41.9800 S   0  0  0  0  0  0  0  0  0  0  0  0
   43.1610   34.4070   40.4550 C   0  0  0  0  0  0  0  0  0  0  0  0
   44.2640   34.4830   40.7380 N   0  0  0  0  0  0  0  0  0  0  0  0
   44.2140   35.9240   43.7160 H   0  0  0  0  0  0  0  0  0  0  0  0
   42.4390   33.9200   39.3610 O   0  0  0  0  0  0  0  0  0  0  0  0
   40.4800   34.3340   37.6280 O   0  0  0  0  0  0  0  0  0  0  0  0
   41.5440   35.0490   38.4580 P   0  0  0  0  0  0  0  0  0  0  0  0
   40.7980   36.1100   39.5370 O   0  0  0  0  0  0  0  0  0  0  0  0
   39.9940   35.6730   39.9500 H   0  0  0  0  0  0  0  0  0  0  0  0
   42.5900   35.9220   37.4530 O   0  0  0  0  0  0  0  0  0  0  0  0
   43.0000   36.6350   38.0300 H   0  0  0  0  0  0  0  0  0  0  0  0
  1  4  1  0  0  0  0
  1 22  1  0  0  0  0
  2  1  1  0  0  0  0
  3  1  1  0  0  0  0
  4  9  1  0  0  0  0
  5  4  2  0  0  0  0
  5  6  1  0  0  0  0
  6  7  2  0  0  0  0
  7  8  1  0  0  0  0
  8 11  1  0  0  0  0
  9  8  2  0  0  0  0
 10  6  1  0  0  0  0
 12  5  1  0  0  0  0
 13 12  1  0  0  0  0
 14 15  1  0  0  0  0
 14 13  2  0  0  0  0
 16 14  1  0  0  0  0
 17 16  2  0  0  0  0
 17 19  1  0  0  0  0
 18 17  1  0  0  0  0
 19 21  2  0  0  0  0
 20 19  1  0  0  0  0
 21 13  1  0  0  0  0
 22 24  1  0  0  0  0
 22 23  1  0  0  0  0
 25 22  1  0  0  0  0
 25 26  2  0  0  0  0
 26 30  1  0  0  0  0
 27 26  1  0  0  0  0
 28 29  2  0  0  0  0
 28 27  1  0  0  0  0
 29 25  1  0  0  0  0
 31 28  1  0  0  0  0
 32 33  2  0  0  0  0
 33 31  1  0  0  0  0
 33 34  1  0  0  0  0
 34 35  1  0  0  0  0
 36 37  1  0  0  0  0
 36 33  1  0  0  0  0
M  END
>  <minimizedAffinity>
-4.83143759

>  <minimizedRMSD>
0.463121682

$$$$
