
 OpenBabel03252507463D

 37 39  0  0  0  0  0  0  0  0999 V2000
   47.2330   34.6100   41.0130 C   0  0  0  0  0  0  0  0  0  0  0  0
   47.4970   35.5990   40.5380 H   0  0  0  0  0  0  0  0  0  0  0  0
   46.6620   33.9960   40.3200 H   0  0  0  0  0  0  0  0  0  0  0  0
   48.5200   34.0030   41.3990 C   0  0  0  0  0  0  0  0  0  0  0  0
   48.7460   32.7130   40.9540 C   0  0  0  0  0  0  0  0  0  0  0  0
   49.9380   32.0590   41.2700 C   0  0  0  0  0  0  0  0  0  0  0  0
   50.8490   32.7500   42.0270 N   0  0  0  0  0  0  0  0  0  0  0  0
   50.5850   34.0220   42.4450 C   0  0  0  0  0  0  0  0  0  0  0  0
   49.4420   34.6140   42.1260 N   0  0  0  0  0  0  0  0  0  0  0  0
   50.1600   31.0480   40.9430 H   0  0  0  0  0  0  0  0  0  0  0  0
   51.3080   34.5620   43.0430 H   0  0  0  0  0  0  0  0  0  0  0  0
   47.5250   31.8490   39.9650 S   0  0  0  0  0  0  0  0  0  0  0  0
   47.9000   32.1520   38.2530 C   0  0  0  0  0  0  0  0  0  0  0  0
   48.3810   33.3590   37.8430 C   0  0  0  0  0  0  0  0  0  0  0  0
   48.5460   34.1650   38.5680 H   0  0  0  0  0  0  0  0  0  0  0  0
   48.6810   33.6320   36.5410 C   0  0  0  0  0  3  0  0  0  0  0  0
   48.5060   32.6730   35.5530 C   0  0  0  0  0  0  0  0  0  0  0  0
   48.7350   32.8610   34.5150 H   0  0  0  0  0  0  0  0  0  0  0  0
   48.0180   31.4390   35.9400 C   0  0  0  0  0  0  0  0  0  0  0  0
   47.8780   30.6870   35.1800 H   0  0  0  0  0  0  0  0  0  0  0  0
   47.7290   31.2090   37.2660 C   0  0  0  0  0  3  0  0  0  0  0  0
   46.3590   34.9420   42.1800 C   0  0  0  0  0  0  0  0  0  0  0  0
   46.5040   34.1300   42.9520 H   0  0  0  0  0  0  0  0  0  0  0  0
   46.6450   35.8750   42.7090 H   0  0  0  0  0  0  0  0  0  0  0  0
   44.9020   34.9270   41.8670 C   0  0  0  0  0  0  0  0  0  0  0  0
   43.9790   35.4910   42.7940 C   0  0  0  0  0  0  0  0  0  0  0  0
   42.3580   35.2360   41.9760 S   0  0  0  0  0  0  0  0  0  0  0  0
   43.2150   34.3950   40.4940 C   0  0  0  0  0  0  0  0  0  0  0  0
   44.3110   34.4470   40.8100 N   0  0  0  0  0  0  0  0  0  0  0  0
   44.2120   35.9570   43.7520 H   0  0  0  0  0  0  0  0  0  0  0  0
   42.5140   33.9020   39.3900 O   0  0  0  0  0  0  0  0  0  0  0  0
   40.5430   34.2920   37.6640 O   0  0  0  0  0  0  0  0  0  0  0  0
   41.6010   35.0200   38.4900 P   0  0  0  0  0  0  0  0  0  0  0  0
   40.8460   36.0720   39.5720 O   0  0  0  0  0  0  0  0  0  0  0  0
   40.0490   35.6250   39.9880 H   0  0  0  0  0  0  0  0  0  0  0  0
   42.6330   35.9060   37.4810 O   0  0  0  0  0  0  0  0  0  0  0  0
   43.0360   36.6240   38.0570 H   0  0  0  0  0  0  0  0  0  0  0  0
  1  4  1  0  0  0  0
  1 22  1  0  0  0  0
  2  1  1  0  0  0  0
  3  1  1  0  0  0  0
  4  9  1  0  0  0  0
  5  6  1  0  0  0  0
  5  4  2  0  0  0  0
  6  7  2  0  0  0  0
  7  8  1  0  0  0  0
  8 11  1  0  0  0  0
  9  8  2  0  0  0  0
 10  6  1  0  0  0  0
 12  5  1  0  0  0  0
 13 12  1  0  0  0  0
 14 13  1  0  0  0  0
 14 15  1  0  0  0  0
 16 14  2  0  0  0  0
 17 19  2  0  0  0  0
 17 16  1  0  0  0  0
 18 17  1  0  0  0  0
 19 21  1  0  0  0  0
 20 19  1  0  0  0  0
 21 13  2  0  0  0  0
 22 24  1  0  0  0  0
 22 23  1  0  0  0  0
 25 22  1  0  0  0  0
 25 26  2  0  0  0  0
 26 30  1  0  0  0  0
 27 26  1  0  0  0  0
 28 29  2  0  0  0  0
 28 27  1  0  0  0  0
 29 25  1  0  0  0  0
 31 28  1  0  0  0  0
 32 33  2  0  0  0  0
 33 31  1  0  0  0  0
 33 34  1  0  0  0  0
 34 35  1  0  0  0  0
 36 37  1  0  0  0  0
 36 33  1  0  0  0  0
M  END
>  <minimizedAffinity>
-4.96656656

>  <minimizedRMSD>
0.436815947

$$$$
