
 OpenBabel03242513123D

 20 21  0  0  0  0  0  0  0  0999 V2000
   45.7840   33.0730   46.7280 C   0  0  0  0  0  0  0  0  0  0  0  0
   44.8640   33.2230   47.6000 O   0  0  0  0  0  0  0  0  0  0  0  0
   44.8590   35.5400   44.2500 C   0  0  0  0  0  0  0  0  0  0  0  0
   45.7380   35.3480   43.1850 C   0  0  0  0  0  0  0  0  0  0  0  0
   46.6750   34.3240   43.3480 C   0  0  0  0  0  0  0  0  0  0  0  0
   46.6680   33.6090   44.4930 N   0  0  0  0  0  0  0  0  0  0  0  0
   45.8030   33.8320   45.4900 C   0  0  0  0  0  0  0  0  0  0  0  0
   44.8680   34.8160   45.3860 N   0  0  0  0  0  0  0  0  0  0  0  0
   44.1030   36.3240   44.1840 H   0  0  0  0  0  0  0  0  0  0  0  0
   45.6750   35.9680   42.3000 H   0  0  0  0  0  0  0  0  0  0  0  0
   47.3770   34.1290   42.5650 H   0  0  0  0  0  0  0  0  0  0  0  0
   46.7600   32.0710   47.1490 C   0  0  0  0  0  0  0  0  0  0  0  0
   47.5470   32.3000   48.2560 C   0  0  0  0  0  0  0  0  0  0  0  0
   47.4610   33.2250   48.8400 H   0  0  0  0  0  0  0  0  0  0  0  0
   48.5010   31.3860   48.7200 C   0  0  0  0  0  0  0  0  0  0  0  0
   48.6850   30.1960   48.0580 C   0  0  0  0  0  0  0  0  0  0  0  0
   49.3970   29.4480   48.3560 H   0  0  0  0  0  0  0  0  0  0  0  0
   47.9110   29.9420   46.9460 C   0  0  0  0  0  0  0  0  0  0  0  0
   48.0350   29.0140   46.4080 H   0  0  0  0  0  0  0  0  0  0  0  0
   46.9870   30.8570   46.5200 C   0  0  0  0  0  0  0  0  0  0  0  0
  1 12  1  0  0  0  0
  1  2  2  0  0  0  0
  3  8  1  0  0  0  0
  4  5  1  0  0  0  0
  4  3  2  0  0  0  0
  5  6  2  0  0  0  0
  6  7  1  0  0  0  0
  7  1  1  0  0  0  0
  8  7  2  0  0  0  0
  9  3  1  0  0  0  0
 10  4  1  0  0  0  0
 11  5  1  0  0  0  0
 12 13  1  0  0  0  0
 13 15  2  0  0  0  0
 13 14  1  0  0  0  0
 16 17  1  0  0  0  0
 16 15  1  0  0  0  0
 18 16  2  0  0  0  0
 19 18  1  0  0  0  0
 20 18  1  0  0  0  0
 20 12  2  0  0  0  0
M  END
>  <minimizedAffinity>
-4.5356636

>  <minimizedRMSD>
0.992685258

$$$$
