
 OpenBabel03252509123D

 32 35  0  0  0  0  0  0  0  0999 V2000
   47.6920   30.7600   44.7390 C   0  0  0  0  0  0  0  0  0  0  0  0
   47.4960   31.9160   43.9870 C   0  0  0  0  0  0  0  0  0  0  0  0
   46.7460   32.9690   44.4280 C   0  0  0  0  0  0  0  0  0  0  0  0
   46.1290   32.9310   45.6790 C   0  0  0  0  0  0  0  0  0  0  0  0
   45.3460   33.7530   46.4140 N   0  0  0  0  0  0  0  0  0  0  0  0
   45.0540   33.1410   47.5920 C   0  0  0  0  0  0  0  0  0  0  0  0
   45.6650   31.9440   47.5650 N   0  0  0  0  0  0  0  0  0  0  0  0
   46.3310   31.7900   46.4050 C   0  0  0  0  0  0  0  0  0  0  0  0
   47.0820   30.6990   45.9990 C   0  0  0  0  0  0  0  0  0  0  0  0
   48.2860   29.9400   44.3750 H   0  0  0  0  0  0  0  0  0  0  0  0
   45.0930   34.6750   46.0030 H   0  0  0  0  0  0  0  0  0  0  0  0
   44.4270   33.7210   48.2560 H   0  0  0  0  0  0  0  0  0  0  0  0
   47.2070   29.8210   46.6190 H   0  0  0  0  0  0  0  0  0  0  0  0
   48.0410   31.6670   40.3650 C   0  0  0  0  0  0  0  0  0  0  0  0
   49.3140   32.1910   40.1960 C   0  0  0  0  0  0  0  0  0  0  0  0
   49.9810   32.6300   41.3340 C   0  0  0  0  0  0  0  0  0  0  0  0
   49.3750   32.5330   42.5640 N   0  0  0  0  0  0  0  0  0  0  0  0
   48.1200   32.0080   42.6700 C   0  0  0  0  0  0  0  0  0  0  0  0
   47.4560   31.5790   41.5860 N   0  0  0  0  0  0  0  0  0  0  0  0
   47.5570   31.3390   39.4560 H   0  0  0  0  0  0  0  0  0  0  0  0
   49.8080   32.2760   39.2380 H   0  0  0  0  0  0  0  0  0  0  0  0
   50.9770   33.0570   41.3290 H   0  0  0  0  0  0  0  0  0  0  0  0
   46.5050   34.4500   43.4500 S   0  0  0  0  0  0  0  0  0  0  0  0
   44.9560   34.3980   42.5660 C   0  0  0  0  0  0  0  0  0  0  0  0
   44.3420   35.5580   42.1000 C   0  0  0  0  0  0  0  0  0  0  0  0
   44.8040   36.5280   42.2710 H   0  0  0  0  0  0  0  0  0  0  0  0
   43.1480   35.4960   41.4230 C   0  0  0  0  0  3  0  0  0  0  0  0
   42.5610   34.2730   41.2050 C   0  0  0  0  0  0  0  0  0  0  0  0
   41.6220   34.2200   40.6710 H   0  0  0  0  0  0  0  0  0  0  0  0
   43.1930   33.1190   41.6800 C   0  0  0  0  0  0  0  0  0  0  0  0
   42.6560   32.1860   41.4630 H   0  0  0  0  0  0  0  0  0  0  0  0
   44.3920   33.1610   42.3630 C   0  0  0  0  0  3  0  0  0  0  0  0
  1  9  1  0  0  0  0
  2  3  1  0  0  0  0
  2  1  2  0  0  0  0
  3  4  2  0  0  0  0
  4  8  1  0  0  0  0
  4  5  1  0  0  0  0
  5  6  1  0  0  0  0
  6 12  1  0  0  0  0
  7  6  2  0  0  0  0
  8  7  1  0  0  0  0
  9  8  2  0  0  0  0
  9 13  1  0  0  0  0
 10  1  1  0  0  0  0
 11  5  1  0  0  0  0
 14 19  1  0  0  0  0
 15 14  2  0  0  0  0
 15 16  1  0  0  0  0
 16 17  2  0  0  0  0
 17 18  1  0  0  0  0
 18  2  1  0  0  0  0
 19 18  2  0  0  0  0
 20 14  1  0  0  0  0
 21 15  1  0  0  0  0
 22 16  1  0  0  0  0
 23  3  1  0  0  0  0
 24 23  1  0  0  0  0
 25 26  1  0  0  0  0
 25 24  2  0  0  0  0
 27 25  1  0  0  0  0
 28 27  2  0  0  0  0
 28 30  1  0  0  0  0
 29 28  1  0  0  0  0
 30 32  2  0  0  0  0
 31 30  1  0  0  0  0
 32 24  1  0  0  0  0
M  END
>  <minimizedAffinity>
-4.9907198

>  <minimizedRMSD>
2.04129171

$$$$
