
 OpenBabel03252509123D

 32 35  0  0  0  0  0  0  0  0999 V2000
   47.5080   31.2170   44.9800 C   0  0  0  0  0  0  0  0  0  0  0  0
   47.2740   32.2770   44.1070 C   0  0  0  0  0  0  0  0  0  0  0  0
   46.4710   33.3350   44.4240 C   0  0  0  0  0  0  0  0  0  0  0  0
   45.8360   33.4020   45.6660 C   0  0  0  0  0  0  0  0  0  0  0  0
   45.0050   34.2600   46.3000 N   0  0  0  0  0  0  0  0  0  0  0  0
   44.7220   33.7630   47.5340 C   0  0  0  0  0  0  0  0  0  0  0  0
   45.3860   32.6000   47.6410 N   0  0  0  0  0  0  0  0  0  0  0  0
   46.0760   32.3550   46.5110 C   0  0  0  0  0  0  0  0  0  0  0  0
   46.8820   31.2630   46.2330 C   0  0  0  0  0  0  0  0  0  0  0  0
   48.1450   30.3920   44.7120 H   0  0  0  0  0  0  0  0  0  0  0  0
   44.7180   35.1200   45.7900 H   0  0  0  0  0  0  0  0  0  0  0  0
   44.0590   34.3810   48.1240 H   0  0  0  0  0  0  0  0  0  0  0  0
   47.0360   30.4620   46.9440 H   0  0  0  0  0  0  0  0  0  0  0  0
   47.8980   31.6510   40.5440 C   0  0  0  0  0  0  0  0  0  0  0  0
   49.1380   32.2330   40.3290 C   0  0  0  0  0  0  0  0  0  0  0  0
   49.7560   32.8400   41.4160 C   0  0  0  0  0  0  0  0  0  0  0  0
   49.1350   32.8460   42.6420 N   0  0  0  0  0  0  0  0  0  0  0  0
   47.9140   32.2580   42.7950 C   0  0  0  0  0  0  0  0  0  0  0  0
   47.2980   31.6660   41.7610 N   0  0  0  0  0  0  0  0  0  0  0  0
   47.4510   31.1900   39.6730 H   0  0  0  0  0  0  0  0  0  0  0  0
   49.6430   32.2390   39.3730 H   0  0  0  0  0  0  0  0  0  0  0  0
   50.7230   33.3270   41.3720 H   0  0  0  0  0  0  0  0  0  0  0  0
   46.1800   34.6910   43.2920 S   0  0  0  0  0  0  0  0  0  0  0  0
   44.6510   34.4730   42.3980 C   0  0  0  0  0  0  0  0  0  0  0  0
   44.0980   33.2110   42.1930 C   0  0  0  0  0  0  0  0  0  0  0  0
   44.5990   32.3250   42.5800 H   0  0  0  0  0  0  0  0  0  0  0  0
   42.9200   33.0660   41.5010 C   0  0  0  0  0  3  0  0  0  0  0  0
   42.2850   34.1810   41.0110 C   0  0  0  0  0  0  0  0  0  0  0  0
   41.3580   34.0710   40.4650 H   0  0  0  0  0  0  0  0  0  0  0  0
   42.8560   35.4400   41.2280 C   0  0  0  0  0  0  0  0  0  0  0  0
   42.2840   36.2760   40.8020 H   0  0  0  0  0  0  0  0  0  0  0  0
   44.0390   35.6060   41.9200 C   0  0  0  0  0  3  0  0  0  0  0  0
  1  9  1  0  0  0  0
  2  3  1  0  0  0  0
  2  1  2  0  0  0  0
  3  4  2  0  0  0  0
  4  5  1  0  0  0  0
  4  8  1  0  0  0  0
  5  6  1  0  0  0  0
  6  7  2  0  0  0  0
  6 12  1  0  0  0  0
  8  7  1  0  0  0  0
  9  8  2  0  0  0  0
  9 13  1  0  0  0  0
 10  1  1  0  0  0  0
 11  5  1  0  0  0  0
 14 19  1  0  0  0  0
 15 14  2  0  0  0  0
 15 16  1  0  0  0  0
 16 17  2  0  0  0  0
 17 18  1  0  0  0  0
 18  2  1  0  0  0  0
 19 18  2  0  0  0  0
 20 14  1  0  0  0  0
 21 15  1  0  0  0  0
 22 16  1  0  0  0  0
 23  3  1  0  0  0  0
 24 23  1  0  0  0  0
 25 24  1  0  0  0  0
 25 26  1  0  0  0  0
 27 25  2  0  0  0  0
 28 30  2  0  0  0  0
 28 27  1  0  0  0  0
 29 28  1  0  0  0  0
 30 32  1  0  0  0  0
 31 30  1  0  0  0  0
 32 24  2  0  0  0  0
M  END
>  <minimizedAffinity>
-4.95386314

>  <minimizedRMSD>
1.98499155

$$$$
