
 OpenBabel03242512343D

 20 21  0  0  0  0  0  0  0  0999 V2000
   47.5550   35.1110   41.9230 C   0  0  0  0  0  0  0  0  0  0  0  0
   48.6100   35.7900   41.8900 O   0  0  0  0  0  0  0  0  0  0  0  0
   46.6600   34.9220   43.0170 C   0  0  0  0  0  0  0  0  0  0  0  0
   45.6760   35.9060   43.0560 C   0  0  0  0  0  0  0  0  0  0  0  0
   44.7200   35.8300   44.0930 C   0  0  0  0  0  0  0  0  0  0  0  0
   44.8350   34.7960   44.9820 N   0  0  0  0  0  0  0  0  0  0  0  0
   45.8200   33.8710   44.8870 C   0  0  0  0  0  0  0  0  0  0  0  0
   46.7370   33.9330   43.9000 N   0  0  0  0  0  0  0  0  0  0  0  0
   45.5580   36.7300   42.3760 H   0  0  0  0  0  0  0  0  0  0  0  0
   43.9170   36.5370   44.2170 H   0  0  0  0  0  0  0  0  0  0  0  0
   45.8600   33.0720   45.6220 H   0  0  0  0  0  0  0  0  0  0  0  0
   47.1560   34.4080   40.7010 C   0  0  0  0  0  0  0  0  0  0  0  0
   48.0450   34.3930   39.6440 C   0  0  0  0  0  0  0  0  0  0  0  0
   49.0320   34.8690   39.6530 H   0  0  0  0  0  0  0  0  0  0  0  0
   47.7560   33.7480   38.4360 C   0  0  0  0  0  0  0  0  0  0  0  0
   46.5260   33.1070   38.3130 C   0  0  0  0  0  0  0  0  0  0  0  0
   46.1880   32.5750   37.4270 H   0  0  0  0  0  0  0  0  0  0  0  0
   45.6230   33.1110   39.3580 C   0  0  0  0  0  0  0  0  0  0  0  0
   44.6480   32.6400   39.3510 H   0  0  0  0  0  0  0  0  0  0  0  0
   45.9710   33.7640   40.5210 C   0  0  0  0  0  0  0  0  0  0  0  0
  1  3  1  0  0  0  0
  2  1  2  0  0  0  0
  3  4  2  0  0  0  0
  3  8  1  0  0  0  0
  4  5  1  0  0  0  0
  5 10  1  0  0  0  0
  5  6  2  0  0  0  0
  7  6  1  0  0  0  0
  7 11  1  0  0  0  0
  8  7  2  0  0  0  0
  9  4  1  0  0  0  0
 12  1  1  0  0  0  0
 13 14  1  0  0  0  0
 13 12  2  0  0  0  0
 15 13  1  0  0  0  0
 16 15  2  0  0  0  0
 16 18  1  0  0  0  0
 17 16  1  0  0  0  0
 18 20  2  0  0  0  0
 19 18  1  0  0  0  0
 20 12  1  0  0  0  0
M  END
>  <minimizedAffinity>
-4.39054489

>  <minimizedRMSD>
1.38625038

$$$$
