
 OpenBabel03242513003D

 35 38  0  0  0  0  0  0  0  0999 V2000
   45.2830   33.5260   41.0650 F   0  0  0  0  0  0  0  0  0  0  0  0
   46.4890   34.1740   40.9940 C   0  0  0  0  0  0  0  0  0  0  0  0
   46.9780   34.8720   42.0690 C   0  0  0  0  0  0  0  0  0  0  0  0
   48.1920   35.4890   41.9090 C   0  0  0  0  0  0  0  0  0  0  0  0
   48.9270   35.4450   40.7530 C   0  0  0  0  0  0  0  0  0  0  0  0
   48.3840   34.7310   39.7150 C   0  0  0  0  0  0  0  0  0  0  0  0
   47.1740   34.0920   39.8120 C   0  0  0  0  0  0  0  0  0  0  0  0
   48.5720   36.0420   42.7730 H   0  0  0  0  0  0  0  0  0  0  0  0
   49.8860   35.9530   40.6760 H   0  0  0  0  0  0  0  0  0  0  0  0
   48.9010   34.6460   38.7620 H   0  0  0  0  0  0  0  0  0  0  0  0
   44.4820   35.8890   44.7380 C   0  0  0  0  0  0  0  0  0  0  0  0
   45.2290   35.8870   43.5530 C   0  0  0  0  0  0  0  0  0  0  0  0
   46.1800   34.9060   43.2950 C   0  0  0  0  0  0  0  0  0  0  0  0
   46.3340   33.9510   44.2700 N   0  0  0  0  0  0  0  0  0  0  0  0
   45.6020   33.9760   45.4030 C   0  0  0  0  0  0  0  0  0  0  0  0
   44.6960   34.9150   45.6430 N   0  0  0  0  0  0  0  0  0  0  0  0
   43.7510   36.6330   44.9510 H   0  0  0  0  0  0  0  0  0  0  0  0
   45.0670   36.6630   42.8180 H   0  0  0  0  0  0  0  0  0  0  0  0
   45.8650   33.1480   46.0420 H   0  0  0  0  0  0  0  0  0  0  0  0
   46.6170   33.3390   38.6930 C   0  0  0  0  0  0  0  0  0  0  0  0
   45.3580   32.8210   38.5860 C   0  0  0  0  0  0  0  0  0  0  0  0
   45.2480   32.1830   37.3620 C   0  0  0  0  0  0  0  0  0  0  0  0
   46.4380   32.3280   36.7540 N   0  0  0  0  0  0  0  0  0  0  0  0
   47.2500   33.0150   37.5470 N   0  0  0  0  0  0  0  0  0  0  0  0
   44.6040   32.9170   39.3560 H   0  0  0  0  0  0  0  0  0  0  0  0
   44.3660   31.6900   37.0190 H   0  0  0  0  0  0  0  0  0  0  0  0
   46.7780   31.8260   35.4660 C   0  0  0  0  0  0  0  0  0  0  0  0
   45.9510   30.9210   34.8340 C   0  0  0  0  0  0  0  0  0  0  0  0
   45.0460   30.6040   35.3350 H   0  0  0  0  0  0  0  0  0  0  0  0
   46.2200   30.3910   33.5790 C   0  0  0  0  0  0  0  0  0  0  0  0
   47.3770   30.8290   32.9980 C   0  0  0  0  0  0  0  0  0  0  0  0
   47.6000   30.4160   32.0050 H   0  0  0  0  0  0  0  0  0  0  0  0
   48.2500   31.7310   33.5730 C   0  0  0  0  0  0  0  0  0  0  0  0
   49.1400   32.0130   33.0250 H   0  0  0  0  0  0  0  0  0  0  0  0
   47.9360   32.2380   34.8380 C   0  0  0  0  0  0  0  0  0  0  0  0
  2  1  1  0  0  0  0
  2  3  1  0  0  0  0
  3 13  1  0  0  0  0
  4  3  2  0  0  0  0
  4  8  1  0  0  0  0
  5  4  1  0  0  0  0
  6  7  1  0  0  0  0
  6  5  2  0  0  0  0
  7  2  2  0  0  0  0
  9  5  1  0  0  0  0
 10  6  1  0  0  0  0
 11 17  1  0  0  0  0
 11 16  1  0  0  0  0
 12 11  2  0  0  0  0
 13 12  1  0  0  0  0
 13 14  2  0  0  0  0
 14 15  1  0  0  0  0
 15 16  2  0  0  0  0
 15 19  1  0  0  0  0
 18 12  1  0  0  0  0
 20  7  1  0  0  0  0
 21 20  1  0  0  0  0
 21 25  1  0  0  0  0
 22 21  2  0  0  0  0
 23 22  1  0  0  0  0
 23 24  1  0  0  0  0
 24 20  2  0  0  0  0
 26 22  1  0  0  0  0
 27 23  1  0  0  0  0
 28 29  1  0  0  0  0
 28 27  2  0  0  0  0
 30 28  1  0  0  0  0
 31 33  1  0  0  0  0
 31 30  2  0  0  0  0
 32 31  1  0  0  0  0
 33 35  2  0  0  0  0
 34 33  1  0  0  0  0
 35 27  1  0  0  0  0
M  END
>  <minimizedAffinity>
-6.2743516

>  <minimizedRMSD>
2.46534514

$$$$
