
 OpenBabel03252506133D

 36 38  0  0  0  0  0  0  0  0999 V2000
   45.1790   33.3850   41.1880 F   0  0  0  0  0  0  0  0  0  0  0  0
   46.3450   34.0030   41.0480 C   0  0  0  0  0  0  0  0  0  0  0  0
   46.8270   34.7730   42.0880 C   0  0  0  0  0  0  0  0  0  0  0  0
   48.0460   35.4600   42.0340 C   0  0  0  0  0  0  0  0  0  0  0  0
   48.8160   35.3670   40.8760 C   0  0  0  0  0  0  0  0  0  0  0  0
   48.3080   34.5920   39.8590 C   0  0  0  0  0  0  0  0  0  0  0  0
   47.1270   33.9200   39.8970 C   0  0  0  0  0  0  0  0  0  0  0  0
   48.3560   36.0480   42.9000 H   0  0  0  0  0  0  0  0  0  0  0  0
   49.7450   35.9120   40.8810 H   0  0  0  0  0  0  0  0  0  0  0  0
   49.0040   34.5990   39.0300 H   0  0  0  0  0  0  0  0  0  0  0  0
   45.4560   34.0140   45.4080 C   0  0  0  0  0  0  0  0  0  0  0  0
   44.6200   35.1260   45.6390 C   0  0  0  0  0  0  0  0  0  0  0  0
   44.5280   36.1470   44.6410 C   0  0  0  0  0  0  0  0  0  0  0  0
   45.2760   35.9640   43.5090 N   0  0  0  0  0  0  0  0  0  0  0  0
   46.0540   34.8970   43.3310 C   0  0  0  0  0  0  0  0  0  0  0  0
   46.1390   33.9390   44.2700 N   0  0  0  0  0  0  0  0  0  0  0  0
   44.0310   35.2640   46.5380 H   0  0  0  0  0  0  0  0  0  0  0  0
   43.9180   37.0070   44.7560 H   0  0  0  0  0  0  0  0  0  0  0  0
   45.5220   33.0320   46.4090 N   0  0  0  0  0  0  0  0  0  0  0  0
   44.7310   32.9150   47.1030 H   0  0  0  0  0  0  0  0  0  0  0  0
   46.3130   32.3650   46.5560 H   0  0  0  0  0  0  0  0  0  0  0  0
   46.7070   33.1740   38.8270 O   0  0  0  0  0  0  0  0  0  0  0  0
   48.0150   34.6280   37.0360 O   0  0  0  0  0  0  0  0  0  0  0  0
   47.1550   33.3980   37.2250 P   0  0  2  0  0  0  0  0  0  0  0  0
   45.7330   33.5230   36.2800 O   0  0  0  0  0  0  0  0  0  0  0  0
   45.9590   33.8900   35.3870 H   0  0  0  0  0  0  0  0  0  0  0  0
   47.9890   32.0780   36.5700 O   0  0  0  0  0  0  0  0  0  0  0  0
   48.0950   31.9330   35.1990 C   0  0  0  0  0  0  0  0  0  0  0  0
   47.3960   30.8070   34.7560 C   0  0  0  0  0  0  0  0  0  0  0  0
   46.8360   30.1160   35.3800 H   0  0  0  0  0  0  0  0  0  0  0  0
   47.3590   30.4580   33.4110 C   0  0  0  0  0  0  0  0  0  0  0  0
   48.0360   31.2560   32.4950 C   0  0  0  0  0  0  0  0  0  0  0  0
   48.0150   30.9970   31.4440 H   0  0  0  0  0  0  0  0  0  0  0  0
   48.7140   32.3550   32.9440 C   0  0  0  0  0  0  0  0  0  0  0  0
   49.2430   32.9880   32.2750 H   0  0  0  0  0  0  0  0  0  0  0  0
   48.7540   32.7040   34.2780 C   0  0  0  0  0  0  0  0  0  0  0  0
  2  1  1  0  0  0  0
  2  3  1  0  0  0  0
  3 15  1  0  0  0  0
  4  3  2  0  0  0  0
  4  8  1  0  0  0  0
  5  9  1  0  0  0  0
  5  4  1  0  0  0  0
  6  7  1  0  0  0  0
  6  5  2  0  0  0  0
  7  2  2  0  0  0  0
 10  6  1  0  0  0  0
 11 12  1  0  0  0  0
 11 19  1  0  0  0  0
 12 17  1  0  0  0  0
 13 18  1  0  0  0  0
 13 12  2  0  0  0  0
 14 13  1  0  0  0  0
 15 14  2  0  0  0  0
 15 16  1  0  0  0  0
 16 11  2  0  0  0  0
 19 21  1  0  0  0  0
 19 20  1  0  0  0  0
 22  7  1  0  0  0  0
 24 23  2  6  0  0  0
 24 22  1  0  0  0  0
 25 24  1  0  0  0  0
 26 25  1  0  0  0  0
 27 24  1  0  0  0  0
 28 27  1  0  0  0  0
 29 28  1  0  0  0  0
 29 30  1  0  0  0  0
 31 29  2  0  0  0  0
 32 34  2  0  0  0  0
 32 31  1  0  0  0  0
 33 32  1  0  0  0  0
 34 36  1  0  0  0  0
 35 34  1  0  0  0  0
 36 28  2  0  0  0  0
M  END
>  <minimizedAffinity>
-6.63474751

>  <minimizedRMSD>
2.58976984

$$$$
