
 OpenBabel03242521433D

 34 36  0  0  1  0  0  0  0  0999 V2000
   36.5620   28.5900   42.0500 C   0  0  0  0  0  0  0  0  0  0  0  0
   37.5130   29.6130   42.0540 C   0  0  0  0  0  0  0  0  0  0  0  0
   37.4960   30.5580   41.0340 C   0  0  0  0  0  0  0  0  0  0  0  0
   36.5570   30.4460   40.0820 N   0  0  0  0  0  0  0  0  0  0  0  0
   35.6400   29.4410   40.0980 C   0  0  0  0  0  0  0  0  0  0  0  0
   35.6440   28.5250   41.0720 N   0  0  0  0  0  0  0  0  0  0  0  0
   38.2170   29.6060   42.8640 H   0  0  0  0  0  0  0  0  0  0  0  0
   34.9120   29.4170   39.2950 H   0  0  0  0  0  0  0  0  0  0  0  0
   38.2980   32.7010   40.0540 C   0  0  2  0  0  0  0  0  0  0  0  0
   38.5110   31.6180   41.0730 C   0  0  2  0  0  0  0  0  0  0  0  0
   39.8020   31.1800   40.7100 O   0  0  0  0  0  0  0  0  0  0  0  0
   40.5290   32.3510   40.6340 C   0  0  0  0  0  0  0  0  0  0  0  0
   39.6030   33.4830   40.2920 C   0  0  1  0  0  0  0  0  0  0  0  0
   38.4040   32.3480   39.0130 H   0  0  0  0  0  0  0  0  0  0  0  0
   38.6380   32.0860   42.0770 H   0  0  0  0  0  0  0  0  0  0  0  0
   41.3960   32.2670   39.9410 H   0  0  0  0  0  0  0  0  0  0  0  0
   40.9320   32.5460   41.6510 H   0  0  0  0  0  0  0  0  0  0  0  0
   39.4040   34.1930   41.0910 H   0  0  0  0  0  0  0  0  0  0  0  0
   37.1660   33.4470   40.2740 O   0  0  0  0  0  0  0  0  0  0  0  0
   36.8590   33.2540   41.2020 H   0  0  0  0  0  0  0  0  0  0  0  0
   39.9520   34.1610   39.1440 O   0  0  0  0  0  0  0  0  0  0  0  0
   39.4860   33.8480   38.3350 H   0  0  0  0  0  0  0  0  0  0  0  0
   36.5890   27.5620   43.1520 C   0  0  0  0  0  0  0  0  0  0  0  0
   35.6870   26.9270   42.9710 H   0  0  0  0  0  0  0  0  0  0  0  0
   36.5130   28.0250   44.1440 H   0  0  0  0  0  0  0  0  0  0  0  0
   37.7830   26.6870   43.0670 C   0  0  0  0  0  0  0  0  0  0  0  0
   37.6050   25.5670   42.2480 C   0  0  0  0  0  0  0  0  0  0  0  0
   36.6710   25.3560   41.7200 H   0  0  0  0  0  0  0  0  0  0  0  0
   38.5910   24.6390   42.0410 C   0  0  0  0  0  3  0  0  0  0  0  0
   39.8090   24.8070   42.6580 C   0  0  0  0  0  0  0  0  0  0  0  0
   40.6580   24.1210   42.5560 H   0  0  0  0  0  0  0  0  0  0  0  0
   39.9920   25.9040   43.4650 C   0  0  0  0  0  0  0  0  0  0  0  0
   40.9230   26.1220   43.9970 H   0  0  0  0  0  0  0  0  0  0  0  0
   39.0100   26.8410   43.6800 C   0  0  0  0  0  3  0  0  0  0  0  0
  1  2  1  0  0  0  0
  1 23  1  0  0  0  0
  2  7  1  0  0  0  0
  3 10  1  0  0  0  0
  3  2  2  0  0  0  0
  4  5  2  0  0  0  0
  4  3  1  0  0  0  0
  5  6  1  0  0  0  0
  6  1  2  0  0  0  0
  8  5  1  0  0  0  0
  9 14  1  6  0  0  0
  9 19  1  0  0  0  0
  9 13  1  0  0  0  0
  9 10  1  0  0  0  0
 10 15  1  1  0  0  0
 11 10  1  0  0  0  0
 12 11  1  0  0  0  0
 12 17  1  0  0  0  0
 13 12  1  0  0  0  0
 13 18  1  1  0  0  0
 16 12  1  0  0  0  0
 19 20  1  0  0  0  0
 21 13  1  0  0  0  0
 22 21  1  0  0  0  0
 23 25  1  0  0  0  0
 24 23  1  0  0  0  0
 26 23  1  0  0  0  0
 26 34  1  0  0  0  0
 27 26  2  0  0  0  0
 28 27  1  0  0  0  0
 29 27  1  0  0  0  0
 29 30  2  0  0  0  0
 30 32  1  0  0  0  0
 31 30  1  0  0  0  0
 32 34  2  0  0  0  0
 32 33  1  0  0  0  0
M  END
>  <minimizedAffinity>
-6.19679546

$$$$

 OpenBabel03242521433D

 34 36  0  0  1  0  0  0  0  0999 V2000
   38.7290   31.0520   41.3990 C   0  0  0  0  0  0  0  0  0  0  0  0
   39.7490   31.7290   40.7270 C   0  0  0  0  0  0  0  0  0  0  0  0
   39.4260   32.5350   39.6410 C   0  0  0  0  0  0  0  0  0  0  0  0
   38.1360   32.6290   39.2830 N   0  0  0  0  0  0  0  0  0  0  0  0
   37.1590   31.9620   39.9530 C   0  0  0  0  0  0  0  0  0  0  0  0
   37.4540   31.1820   40.9990 N   0  0  0  0  0  0  0  0  0  0  0  0
   40.7450   31.5810   41.0980 H   0  0  0  0  0  0  0  0  0  0  0  0
   36.1390   32.0880   39.6060 H   0  0  0  0  0  0  0  0  0  0  0  0
   41.0010   32.5390   37.7140 C   0  0  2  0  0  0  0  0  0  0  0  0
   40.5250   33.2300   38.9600 C   0  0  2  0  0  0  0  0  0  0  0  0
   41.7230   33.2630   39.7040 O   0  0  0  0  0  0  0  0  0  0  0  0
   42.6410   33.7810   38.8130 C   0  0  0  0  0  0  0  0  0  0  0  0
   42.2120   33.4420   37.4130 C   0  0  1  0  0  0  0  0  0  0  0  0
   41.4650   31.5560   37.9110 H   0  0  0  0  0  0  0  0  0  0  0  0
   40.3060   34.2970   38.7200 H   0  0  0  0  0  0  0  0  0  0  0  0
   43.6810   33.4600   39.0440 H   0  0  0  0  0  0  0  0  0  0  0  0
   42.6020   34.8860   38.9150 H   0  0  0  0  0  0  0  0  0  0  0  0
   41.8450   34.2720   36.8150 H   0  0  0  0  0  0  0  0  0  0  0  0
   40.0700   32.5210   36.7060 O   0  0  0  0  0  0  0  0  0  0  0  0
   39.3620   33.1810   36.9430 H   0  0  0  0  0  0  0  0  0  0  0  0
   43.1520   32.7330   36.6980 O   0  0  0  0  0  0  0  0  0  0  0  0
   43.0220   31.7580   36.7210 H   0  0  0  0  0  0  0  0  0  0  0  0
   39.0830   30.1720   42.5700 C   0  0  0  0  0  0  0  0  0  0  0  0
   38.6800   30.7100   43.4630 H   0  0  0  0  0  0  0  0  0  0  0  0
   40.1690   30.0530   42.6770 H   0  0  0  0  0  0  0  0  0  0  0  0
   38.4130   28.8510   42.4970 C   0  0  0  0  0  0  0  0  0  0  0  0
   37.4570   28.6470   43.4970 C   0  0  0  0  0  0  0  0  0  0  0  0
   37.2260   29.3920   44.2630 H   0  0  0  0  0  0  0  0  0  0  0  0
   36.7290   27.4910   43.5990 C   0  0  0  0  0  3  0  0  0  0  0  0
   36.9380   26.4850   42.6850 C   0  0  0  0  0  0  0  0  0  0  0  0
   36.4080   25.5260   42.6830 H   0  0  0  0  0  0  0  0  0  0  0  0
   37.8760   26.6770   41.6990 C   0  0  0  0  0  0  0  0  0  0  0  0
   38.1120   25.9360   40.9290 H   0  0  0  0  0  0  0  0  0  0  0  0
   38.6120   27.8330   41.5880 C   0  0  0  0  0  3  0  0  0  0  0  0
  1 23  1  0  0  0  0
  2  7  1  0  0  0  0
  2  1  2  0  0  0  0
  3  2  1  0  0  0  0
  4  3  2  0  0  0  0
  4  5  1  0  0  0  0
  5  6  2  0  0  0  0
  6  1  1  0  0  0  0
  8  5  1  0  0  0  0
  9 14  1  1  0  0  0
  9 10  1  0  0  0  0
 10 15  1  6  0  0  0
 10  3  1  0  0  0  0
 10 11  1  0  0  0  0
 12 17  1  0  0  0  0
 12 16  1  0  0  0  0
 12 11  1  0  0  0  0
 13 18  1  6  0  0  0
 13  9  1  0  0  0  0
 13 12  1  0  0  0  0
 19 20  1  0  0  0  0
 19  9  1  0  0  0  0
 21 22  1  0  0  0  0
 21 13  1  0  0  0  0
 23 25  1  0  0  0  0
 23 24  1  0  0  0  0
 26 23  1  0  0  0  0
 26 27  1  0  0  0  0
 27 29  2  0  0  0  0
 27 28  1  0  0  0  0
 30 29  1  0  0  0  0
 31 30  1  0  0  0  0
 32 30  2  0  0  0  0
 33 32  1  0  0  0  0
 34 32  1  0  0  0  0
 34 26  2  0  0  0  0
M  END
>  <minimizedAffinity>
-6.19435358

$$$$

 OpenBabel03242521433D

 34 36  0  0  1  0  0  0  0  0999 V2000
   36.9580   28.8370   41.9230 C   0  0  0  0  0  0  0  0  0  0  0  0
   37.9830   29.6120   41.3770 C   0  0  0  0  0  0  0  0  0  0  0  0
   37.7710   30.2610   40.1650 C   0  0  0  0  0  0  0  0  0  0  0  0
   36.5790   30.1120   39.5680 N   0  0  0  0  0  0  0  0  0  0  0  0
   35.5940   29.3520   40.1180 C   0  0  0  0  0  0  0  0  0  0  0  0
   35.7830   28.7220   41.2820 N   0  0  0  0  0  0  0  0  0  0  0  0
   38.8950   29.6620   41.9410 H   0  0  0  0  0  0  0  0  0  0  0  0
   34.6570   29.2800   39.5760 H   0  0  0  0  0  0  0  0  0  0  0  0
   38.5600   31.7120   38.3040 C   0  0  2  0  0  0  0  0  0  0  0  0
   38.8720   31.0670   39.6240 C   0  0  2  0  0  0  0  0  0  0  0  0
   40.0090   30.3100   39.2720 O   0  0  0  0  0  0  0  0  0  0  0  0
   40.8170   31.2240   38.6270 C   0  0  0  0  0  0  0  0  0  0  0  0
   39.9570   32.2900   38.0090 C   0  0  1  0  0  0  0  0  0  0  0  0
   38.4110   30.9850   37.4860 H   0  0  0  0  0  0  0  0  0  0  0  0
   39.2500   31.8450   40.3270 H   0  0  0  0  0  0  0  0  0  0  0  0
   41.5080   30.7400   37.9010 H   0  0  0  0  0  0  0  0  0  0  0  0
   41.4400   31.7110   39.4080 H   0  0  0  0  0  0  0  0  0  0  0  0
   40.0000   33.2680   38.4800 H   0  0  0  0  0  0  0  0  0  0  0  0
   37.5780   32.6700   38.3800 O   0  0  0  0  0  0  0  0  0  0  0  0
   37.4530   32.8920   39.3430 H   0  0  0  0  0  0  0  0  0  0  0  0
   40.1250   32.4210   36.6470 O   0  0  0  0  0  0  0  0  0  0  0  0
   39.4720   31.9150   36.1120 H   0  0  0  0  0  0  0  0  0  0  0  0
   37.1940   28.1280   43.2320 C   0  0  0  0  0  0  0  0  0  0  0  0
   36.1720   27.8810   43.6100 H   0  0  0  0  0  0  0  0  0  0  0  0
   37.7040   28.7730   43.9590 H   0  0  0  0  0  0  0  0  0  0  0  0
   37.9310   26.8540   43.0500 C   0  0  0  0  0  0  0  0  0  0  0  0
   39.1840   26.8330   43.6710 C   0  0  0  0  0  0  0  0  0  0  0  0
   39.5840   27.6780   44.2380 H   0  0  0  0  0  0  0  0  0  0  0  0
   40.0170   25.7470   43.6180 C   0  0  0  0  0  3  0  0  0  0  0  0
   39.6130   24.6260   42.9310 C   0  0  0  0  0  0  0  0  0  0  0  0
   40.2060   23.7100   42.8300 H   0  0  0  0  0  0  0  0  0  0  0  0
   38.3830   24.6390   42.3170 C   0  0  0  0  0  0  0  0  0  0  0  0
   37.9760   23.7970   41.7480 H   0  0  0  0  0  0  0  0  0  0  0  0
   37.5400   25.7230   42.3630 C   0  0  0  0  0  3  0  0  0  0  0  0
  1 23  1  0  0  0  0
  2  1  1  0  0  0  0
  2  7  1  0  0  0  0
  3  2  2  0  0  0  0
  4  5  2  0  0  0  0
  4  3  1  0  0  0  0
  5  6  1  0  0  0  0
  6  1  2  0  0  0  0
  8  5  1  0  0  0  0
  9 14  1  6  0  0  0
  9 19  1  0  0  0  0
  9 10  1  0  0  0  0
 10  3  1  0  0  0  0
 10 15  1  1  0  0  0
 11 10  1  0  0  0  0
 12 11  1  0  0  0  0
 12 17  1  0  0  0  0
 13  9  1  0  0  0  0
 13 18  1  1  0  0  0
 13 12  1  0  0  0  0
 16 12  1  0  0  0  0
 19 20  1  0  0  0  0
 21 13  1  0  0  0  0
 22 21  1  0  0  0  0
 23 24  1  0  0  0  0
 23 25  1  0  0  0  0
 26 23  1  0  0  0  0
 26 27  1  0  0  0  0
 27 28  1  0  0  0  0
 29 27  2  0  0  0  0
 30 29  1  0  0  0  0
 31 30  1  0  0  0  0
 32 34  1  0  0  0  0
 32 30  2  0  0  0  0
 33 32  1  0  0  0  0
 34 26  2  0  0  0  0
M  END
>  <minimizedAffinity>
-6.06067944

$$$$

 OpenBabel03242521433D

 34 36  0  0  1  0  0  0  0  0999 V2000
   33.9680   28.8960   37.2470 C   0  0  0  0  0  0  0  0  0  0  0  0
   34.2330   28.6600   38.5970 C   0  0  0  0  0  0  0  0  0  0  0  0
   35.5020   28.9330   39.0960 C   0  0  0  0  0  0  0  0  0  0  0  0
   36.4250   29.4160   38.2500 N   0  0  0  0  0  0  0  0  0  0  0  0
   36.1440   29.6390   36.9380 C   0  0  0  0  0  0  0  0  0  0  0  0
   34.9280   29.3810   36.4440 N   0  0  0  0  0  0  0  0  0  0  0  0
   33.4210   28.2720   39.1820 H   0  0  0  0  0  0  0  0  0  0  0  0
   36.9410   30.0320   36.3160 H   0  0  0  0  0  0  0  0  0  0  0  0
   36.4830   29.7750   41.2230 C   0  0  2  0  0  0  0  0  0  0  0  0
   35.7430   28.6720   40.5200 C   0  0  2  0  0  0  0  0  0  0  0  0
   36.6160   27.5900   40.7590 O   0  0  0  0  0  0  0  0  0  0  0  0
   36.8400   27.6520   42.1200 C   0  0  0  0  0  0  0  0  0  0  0  0
   36.6810   29.0730   42.5800 C   0  0  1  0  0  0  0  0  0  0  0  0
   37.5160   29.9090   40.8580 H   0  0  0  0  0  0  0  0  0  0  0  0
   34.8200   28.4310   41.0980 H   0  0  0  0  0  0  0  0  0  0  0  0
   37.8160   27.2030   42.4080 H   0  0  0  0  0  0  0  0  0  0  0  0
   36.0400   27.0530   42.6060 H   0  0  0  0  0  0  0  0  0  0  0  0
   35.7970   29.2840   43.1760 H   0  0  0  0  0  0  0  0  0  0  0  0
   35.7700   30.9450   41.3120 O   0  0  0  0  0  0  0  0  0  0  0  0
   34.8210   30.7310   41.0970 H   0  0  0  0  0  0  0  0  0  0  0  0
   37.7970   29.5840   43.2070 O   0  0  0  0  0  0  0  0  0  0  0  0
   38.3940   30.0920   42.6110 H   0  0  0  0  0  0  0  0  0  0  0  0
   32.5930   28.5910   36.7070 C   0  0  0  0  0  0  0  0  0  0  0  0
   32.2160   27.7560   37.3480 H   0  0  0  0  0  0  0  0  0  0  0  0
   32.6290   28.2580   35.6630 H   0  0  0  0  0  0  0  0  0  0  0  0
   31.6670   29.7380   36.8640 C   0  0  0  0  0  0  0  0  0  0  0  0
   31.5630   30.5390   35.7220 C   0  0  0  0  0  0  0  0  0  0  0  0
   32.1140   30.3390   34.7990 H   0  0  0  0  0  0  0  0  0  0  0  0
   30.7580   31.6460   35.6670 C   0  0  0  0  0  3  0  0  0  0  0  0
   30.0180   31.9920   36.7730 C   0  0  0  0  0  0  0  0  0  0  0  0
   29.3470   32.8580   36.8280 H   0  0  0  0  0  0  0  0  0  0  0  0
   30.1150   31.2100   37.9000 C   0  0  0  0  0  0  0  0  0  0  0  0
   29.5650   31.4040   38.8270 H   0  0  0  0  0  0  0  0  0  0  0  0
   30.9180   30.0980   37.9660 C   0  0  0  0  0  3  0  0  0  0  0  0
  1  2  1  0  0  0  0
  2  3  2  0  0  0  0
  2  7  1  0  0  0  0
  3 10  1  0  0  0  0
  4  3  1  0  0  0  0
  5  4  2  0  0  0  0
  6  5  1  0  0  0  0
  6  1  2  0  0  0  0
  8  5  1  0  0  0  0
  9 14  1  6  0  0  0
  9 19  1  0  0  0  0
  9 13  1  0  0  0  0
 10 11  1  0  0  0  0
 10 15  1  1  0  0  0
 10  9  1  0  0  0  0
 11 12  1  0  0  0  0
 12 16  1  0  0  0  0
 12 13  1  0  0  0  0
 12 17  1  0  0  0  0
 13 18  1  1  0  0  0
 13 21  1  0  0  0  0
 20 19  1  0  0  0  0
 22 21  1  0  0  0  0
 23 26  1  0  0  0  0
 23  1  1  0  0  0  0
 23 24  1  0  0  0  0
 25 23  1  0  0  0  0
 26 34  1  0  0  0  0
 27 26  2  0  0  0  0
 28 27  1  0  0  0  0
 29 27  1  0  0  0  0
 29 30  2  0  0  0  0
 30 31  1  0  0  0  0
 30 32  1  0  0  0  0
 32 34  2  0  0  0  0
 32 33  1  0  0  0  0
M  END
>  <minimizedAffinity>
-5.82125521

$$$$

 OpenBabel03242521433D

 34 36  0  0  1  0  0  0  0  0999 V2000
   36.1800   29.5700   39.5010 C   0  0  0  0  0  0  0  0  0  0  0  0
   37.0820   30.6110   39.7300 C   0  0  0  0  0  0  0  0  0  0  0  0
   37.7130   31.2120   38.6450 C   0  0  0  0  0  0  0  0  0  0  0  0
   37.4240   30.7600   37.4150 N   0  0  0  0  0  0  0  0  0  0  0  0
   36.5410   29.7450   37.2160 C   0  0  0  0  0  0  0  0  0  0  0  0
   35.9270   29.1580   38.2490 N   0  0  0  0  0  0  0  0  0  0  0  0
   37.2380   30.8910   40.7540 H   0  0  0  0  0  0  0  0  0  0  0  0
   36.3570   29.4360   36.1930 H   0  0  0  0  0  0  0  0  0  0  0  0
   39.9690   32.1680   38.2100 C   0  0  2  0  0  0  0  0  0  0  0  0
   38.6540   32.3020   38.9250 C   0  0  2  0  0  0  0  0  0  0  0  0
   39.0980   32.3400   40.2640 O   0  0  0  0  0  0  0  0  0  0  0  0
   40.0910   33.2980   40.2470 C   0  0  0  0  0  0  0  0  0  0  0  0
   40.6990   33.3510   38.8740 C   0  0  1  0  0  0  0  0  0  0  0  0
   40.5580   31.2940   38.5400 H   0  0  0  0  0  0  0  0  0  0  0  0
   38.2390   33.3190   38.7310 H   0  0  0  0  0  0  0  0  0  0  0  0
   40.8420   33.1430   41.0540 H   0  0  0  0  0  0  0  0  0  0  0  0
   39.5990   34.2760   40.4320 H   0  0  0  0  0  0  0  0  0  0  0  0
   40.4660   34.2350   38.2850 H   0  0  0  0  0  0  0  0  0  0  0  0
   39.8670   32.2860   36.8460 O   0  0  0  0  0  0  0  0  0  0  0  0
   38.9690   32.6710   36.6470 H   0  0  0  0  0  0  0  0  0  0  0  0
   42.0580   33.1250   38.8560 O   0  0  0  0  0  0  0  0  0  0  0  0
   42.3070   32.1900   38.6720 H   0  0  0  0  0  0  0  0  0  0  0  0
   35.5050   28.9160   40.6800 C   0  0  0  0  0  0  0  0  0  0  0  0
   34.8350   28.1420   40.2300 H   0  0  0  0  0  0  0  0  0  0  0  0
   34.9000   29.6300   41.2520 H   0  0  0  0  0  0  0  0  0  0  0  0
   36.4740   28.2200   41.5600 C   0  0  0  0  0  0  0  0  0  0  0  0
   36.9490   27.0140   41.0340 C   0  0  0  0  0  0  0  0  0  0  0  0
   36.6340   26.6200   40.0640 H   0  0  0  0  0  0  0  0  0  0  0  0
   37.8520   26.2240   41.6950 C   0  0  0  0  0  3  0  0  0  0  0  0
   38.3170   26.6250   42.9260 C   0  0  0  0  0  0  0  0  0  0  0  0
   39.0370   26.0630   43.5330 H   0  0  0  0  0  0  0  0  0  0  0  0
   37.8550   27.8080   43.4510 C   0  0  0  0  0  0  0  0  0  0  0  0
   38.1660   28.2090   44.4210 H   0  0  0  0  0  0  0  0  0  0  0  0
   36.9490   28.6080   42.7960 C   0  0  0  0  0  3  0  0  0  0  0  0
  1  2  1  0  0  0  0
  1 23  1  0  0  0  0
  2  7  1  0  0  0  0
  3 10  1  0  0  0  0
  3  2  2  0  0  0  0
  4  3  1  0  0  0  0
  5  4  2  0  0  0  0
  5  6  1  0  0  0  0
  6  1  2  0  0  0  0
  8  5  1  0  0  0  0
  9 14  1  1  0  0  0
  9 13  1  0  0  0  0
  9 10  1  0  0  0  0
 10 15  1  6  0  0  0
 10 11  1  0  0  0  0
 12 11  1  0  0  0  0
 12 17  1  0  0  0  0
 12 16  1  0  0  0  0
 13 18  1  6  0  0  0
 13 12  1  0  0  0  0
 19  9  1  0  0  0  0
 20 19  1  0  0  0  0
 21 13  1  0  0  0  0
 22 21  1  0  0  0  0
 23 25  1  0  0  0  0
 23 26  1  0  0  0  0
 24 23  1  0  0  0  0
 26 34  1  0  0  0  0
 27 26  2  0  0  0  0
 27 29  1  0  0  0  0
 28 27  1  0  0  0  0
 29 30  2  0  0  0  0
 30 32  1  0  0  0  0
 30 31  1  0  0  0  0
 32 33  1  0  0  0  0
 34 32  2  0  0  0  0
M  END
>  <minimizedAffinity>
-5.64506578

$$$$

 OpenBabel03242521433D

 34 36  0  0  1  0  0  0  0  0999 V2000
   36.8850   28.6940   41.6320 C   0  0  0  0  0  0  0  0  0  0  0  0
   36.6300   28.4190   40.2870 C   0  0  0  0  0  0  0  0  0  0  0  0
   36.9040   29.3930   39.3320 C   0  0  0  0  0  0  0  0  0  0  0  0
   37.4060   30.5650   39.7500 N   0  0  0  0  0  0  0  0  0  0  0  0
   37.6470   30.8110   41.0660 C   0  0  0  0  0  0  0  0  0  0  0  0
   37.3880   29.8840   41.9950 N   0  0  0  0  0  0  0  0  0  0  0  0
   36.2280   27.4490   40.0660 H   0  0  0  0  0  0  0  0  0  0  0  0
   38.0550   31.7820   41.3270 H   0  0  0  0  0  0  0  0  0  0  0  0
   37.3450   29.9440   36.9460 C   0  0  2  0  0  0  0  0  0  0  0  0
   36.6240   29.0670   37.9290 C   0  0  2  0  0  0  0  0  0  0  0  0
   35.2870   29.3070   37.5470 O   0  0  0  0  0  0  0  0  0  0  0  0
   35.3040   29.1170   36.1800 C   0  0  0  0  0  0  0  0  0  0  0  0
   36.6800   29.4220   35.6590 C   0  0  1  0  0  0  0  0  0  0  0  0
   37.0230   30.9990   36.9840 H   0  0  0  0  0  0  0  0  0  0  0  0
   36.8120   27.9990   37.6670 H   0  0  0  0  0  0  0  0  0  0  0  0
   34.5010   29.6890   35.6640 H   0  0  0  0  0  0  0  0  0  0  0  0
   35.1120   28.0370   36.0020 H   0  0  0  0  0  0  0  0  0  0  0  0
   37.2630   28.5660   35.3270 H   0  0  0  0  0  0  0  0  0  0  0  0
   38.7090   29.7800   36.9610 O   0  0  0  0  0  0  0  0  0  0  0  0
   38.9010   28.9390   37.4600 H   0  0  0  0  0  0  0  0  0  0  0  0
   36.7050   30.4050   34.6930 O   0  0  0  0  0  0  0  0  0  0  0  0
   36.8940   31.3050   35.0420 H   0  0  0  0  0  0  0  0  0  0  0  0
   36.5780   27.6390   42.6650 C   0  0  0  0  0  0  0  0  0  0  0  0
   35.7490   27.0370   42.2190 H   0  0  0  0  0  0  0  0  0  0  0  0
   36.2380   28.0800   43.6100 H   0  0  0  0  0  0  0  0  0  0  0  0
   37.7280   26.7310   42.8900 C   0  0  0  0  0  0  0  0  0  0  0  0
   37.5720   25.4690   42.3070 C   0  0  0  0  0  0  0  0  0  0  0  0
   36.6840   25.1780   41.7390 H   0  0  0  0  0  0  0  0  0  0  0  0
   38.5240   24.4880   42.4020 C   0  0  0  0  0  3  0  0  0  0  0  0
   39.6840   24.7460   43.0950 C   0  0  0  0  0  0  0  0  0  0  0  0
   40.5020   24.0280   43.2280 H   0  0  0  0  0  0  0  0  0  0  0  0
   39.8450   25.9830   43.6710 C   0  0  0  0  0  0  0  0  0  0  0  0
   40.7310   26.2810   44.2410 H   0  0  0  0  0  0  0  0  0  0  0  0
   38.8970   26.9740   43.5820 C   0  0  0  0  0  3  0  0  0  0  0  0
  1  6  1  0  0  0  0
  1 23  1  0  0  0  0
  2  1  2  0  0  0  0
  3  4  2  0  0  0  0
  3  2  1  0  0  0  0
  4  5  1  0  0  0  0
  5  8  1  0  0  0  0
  5  6  2  0  0  0  0
  7  2  1  0  0  0  0
  9 19  1  0  0  0  0
  9 14  1  1  0  0  0
  9 10  1  0  0  0  0
 10 15  1  6  0  0  0
 10  3  1  0  0  0  0
 11 10  1  0  0  0  0
 12 11  1  0  0  0  0
 13 18  1  6  0  0  0
 13 12  1  0  0  0  0
 13  9  1  0  0  0  0
 16 12  1  0  0  0  0
 17 12  1  0  0  0  0
 19 20  1  0  0  0  0
 21 22  1  0  0  0  0
 21 13  1  0  0  0  0
 23 26  1  0  0  0  0
 23 25  1  0  0  0  0
 24 23  1  0  0  0  0
 26 34  1  0  0  0  0
 27 29  1  0  0  0  0
 27 26  2  0  0  0  0
 28 27  1  0  0  0  0
 29 30  2  0  0  0  0
 30 31  1  0  0  0  0
 30 32  1  0  0  0  0
 32 33  1  0  0  0  0
 34 32  2  0  0  0  0
M  END
>  <minimizedAffinity>
-5.62439156

$$$$

 OpenBabel03242521433D

 34 36  0  0  1  0  0  0  0  0999 V2000
   37.3750   30.5070   39.7770 C   0  0  0  0  0  0  0  0  0  0  0  0
   38.6670   30.6400   39.2630 C   0  0  0  0  0  0  0  0  0  0  0  0
   39.1990   31.9120   39.0870 C   0  0  0  0  0  0  0  0  0  0  0  0
   38.4410   32.9680   39.4220 N   0  0  0  0  0  0  0  0  0  0  0  0
   37.1860   32.8150   39.9220 C   0  0  0  0  0  0  0  0  0  0  0  0
   36.6600   31.5980   40.0970 N   0  0  0  0  0  0  0  0  0  0  0  0
   39.1830   29.7280   39.0290 H   0  0  0  0  0  0  0  0  0  0  0  0
   36.6340   33.7150   40.1710 H   0  0  0  0  0  0  0  0  0  0  0  0
   41.0140   33.4210   38.2970 C   0  0  2  0  0  0  0  0  0  0  0  0
   40.5600   32.0110   38.5450 C   0  0  2  0  0  0  0  0  0  0  0  0
   40.6940   31.4720   37.2480 O   0  0  0  0  0  0  0  0  0  0  0  0
   41.9720   31.8380   36.8780 C   0  0  0  0  0  0  0  0  0  0  0  0
   42.3500   33.1010   37.6000 C   0  0  1  0  0  0  0  0  0  0  0  0
   40.4370   33.9340   37.5080 H   0  0  0  0  0  0  0  0  0  0  0  0
   41.3300   31.4850   39.1570 H   0  0  0  0  0  0  0  0  0  0  0  0
   42.0880   31.9120   35.7740 H   0  0  0  0  0  0  0  0  0  0  0  0
   42.6530   31.0350   37.2320 H   0  0  0  0  0  0  0  0  0  0  0  0
   43.0960   32.9950   38.3830 H   0  0  0  0  0  0  0  0  0  0  0  0
   41.1610   34.1600   39.4450 O   0  0  0  0  0  0  0  0  0  0  0  0
   41.1600   33.5230   40.2110 H   0  0  0  0  0  0  0  0  0  0  0  0
   42.6960   34.1390   36.7640 O   0  0  0  0  0  0  0  0  0  0  0  0
   41.9560   34.7560   36.5620 H   0  0  0  0  0  0  0  0  0  0  0  0
   36.7980   29.1260   39.9590 C   0  0  0  0  0  0  0  0  0  0  0  0
   37.3400   28.4920   39.2150 H   0  0  0  0  0  0  0  0  0  0  0  0
   35.7230   29.1010   39.7420 H   0  0  0  0  0  0  0  0  0  0  0  0
   37.0780   28.5800   41.3090 C   0  0  0  0  0  0  0  0  0  0  0  0
   37.1630   27.1850   41.3460 C   0  0  0  0  0  0  0  0  0  0  0  0
   37.0340   26.5540   40.4620 H   0  0  0  0  0  0  0  0  0  0  0  0
   37.4140   26.4900   42.5000 C   0  0  0  0  0  3  0  0  0  0  0  0
   37.5930   27.1840   43.6740 C   0  0  0  0  0  0  0  0  0  0  0  0
   37.7970   26.7210   44.6460 H   0  0  0  0  0  0  0  0  0  0  0  0
   37.5100   28.5560   43.6460 C   0  0  0  0  0  0  0  0  0  0  0  0
   37.6380   29.1930   44.5270 H   0  0  0  0  0  0  0  0  0  0  0  0
   37.2580   29.2620   42.4940 C   0  0  0  0  0  3  0  0  0  0  0  0
  1 23  1  0  0  0  0
  1  6  1  0  0  0  0
  2  1  2  0  0  0  0
  3  2  1  0  0  0  0
  3  4  2  0  0  0  0
  4  5  1  0  0  0  0
  5  6  2  0  0  0  0
  5  8  1  0  0  0  0
  7  2  1  0  0  0  0
  9 14  1  6  0  0  0
  9 10  1  0  0  0  0
  9 19  1  0  0  0  0
 10  3  1  0  0  0  0
 10 15  1  1  0  0  0
 11 10  1  0  0  0  0
 12 17  1  0  0  0  0
 12 11  1  0  0  0  0
 12 13  1  0  0  0  0
 13  9  1  0  0  0  0
 13 18  1  1  0  0  0
 16 12  1  0  0  0  0
 19 20  1  0  0  0  0
 21 13  1  0  0  0  0
 22 21  1  0  0  0  0
 23 26  1  0  0  0  0
 24 23  1  0  0  0  0
 25 23  1  0  0  0  0
 26 27  2  0  0  0  0
 26 34  1  0  0  0  0
 27 29  1  0  0  0  0
 28 27  1  0  0  0  0
 29 30  2  0  0  0  0
 30 31  1  0  0  0  0
 32 30  1  0  0  0  0
 32 33  1  0  0  0  0
 34 32  2  0  0  0  0
M  END
>  <minimizedAffinity>
-5.59493732

$$$$

 OpenBabel03242521433D

 34 36  0  0  1  0  0  0  0  0999 V2000
   39.5760   28.2920   42.9150 C   0  0  0  0  0  0  0  0  0  0  0  0
   38.9690   29.1240   41.9720 C   0  0  0  0  0  0  0  0  0  0  0  0
   39.7510   30.0360   41.2700 C   0  0  0  0  0  0  0  0  0  0  0  0
   41.0660   30.0770   41.5330 N   0  0  0  0  0  0  0  0  0  0  0  0
   41.6360   29.2560   42.4550 C   0  0  0  0  0  0  0  0  0  0  0  0
   40.8970   28.3740   43.1380 N   0  0  0  0  0  0  0  0  0  0  0  0
   37.9100   29.0070   41.8430 H   0  0  0  0  0  0  0  0  0  0  0  0
   42.7050   29.3460   42.6120 H   0  0  0  0  0  0  0  0  0  0  0  0
   38.6300   32.2170   40.8410 C   0  0  2  0  0  0  0  0  0  0  0  0
   39.0770   30.8940   40.2870 C   0  0  2  0  0  0  0  0  0  0  0  0
   37.8440   30.3790   39.8360 O   0  0  0  0  0  0  0  0  0  0  0  0
   37.3180   31.4130   39.0890 C   0  0  0  0  0  0  0  0  0  0  0  0
   37.8540   32.7170   39.6090 C   0  0  1  0  0  0  0  0  0  0  0  0
   37.8440   32.1240   41.6110 H   0  0  0  0  0  0  0  0  0  0  0  0
   39.6710   31.0720   39.3610 H   0  0  0  0  0  0  0  0  0  0  0  0
   36.2060   31.3810   39.0460 H   0  0  0  0  0  0  0  0  0  0  0  0
   37.6960   31.2870   38.0520 H   0  0  0  0  0  0  0  0  0  0  0  0
   38.5710   33.2250   38.9690 H   0  0  0  0  0  0  0  0  0  0  0  0
   39.6680   33.0390   41.2040 O   0  0  0  0  0  0  0  0  0  0  0  0
   40.4980   32.6660   40.7980 H   0  0  0  0  0  0  0  0  0  0  0  0
   36.8760   33.6030   40.0060 O   0  0  0  0  0  0  0  0  0  0  0  0
   36.6750   33.5730   40.9690 H   0  0  0  0  0  0  0  0  0  0  0  0
   38.7240   27.3110   43.6800 C   0  0  0  0  0  0  0  0  0  0  0  0
   37.8030   27.8830   43.9480 H   0  0  0  0  0  0  0  0  0  0  0  0
   39.2200   26.9690   44.5970 H   0  0  0  0  0  0  0  0  0  0  0  0
   38.3140   26.1590   42.8410 C   0  0  0  0  0  0  0  0  0  0  0  0
   39.3450   25.2480   42.5900 C   0  0  0  0  0  0  0  0  0  0  0  0
   40.3600   25.3730   42.9770 H   0  0  0  0  0  0  0  0  0  0  0  0
   39.1660   24.1180   41.8360 C   0  0  0  0  0  3  0  0  0  0  0  0
   37.9260   23.8610   41.3000 C   0  0  0  0  0  0  0  0  0  0  0  0
   37.6830   22.9870   40.6830 H   0  0  0  0  0  0  0  0  0  0  0  0
   36.9070   24.7520   41.5400 C   0  0  0  0  0  0  0  0  0  0  0  0
   35.8890   24.6330   41.1570 H   0  0  0  0  0  0  0  0  0  0  0  0
   37.0760   25.8870   42.2950 C   0  0  0  0  0  3  0  0  0  0  0  0
  1  6  1  0  0  0  0
  1 23  1  0  0  0  0
  2  1  2  0  0  0  0
  3  4  2  0  0  0  0
  3  2  1  0  0  0  0
  4  5  1  0  0  0  0
  5  8  1  0  0  0  0
  5  6  2  0  0  0  0
  7  2  1  0  0  0  0
  9 19  1  0  0  0  0
  9 14  1  1  0  0  0
 10 15  1  6  0  0  0
 10  9  1  0  0  0  0
 10  3  1  0  0  0  0
 11 10  1  0  0  0  0
 12 13  1  0  0  0  0
 12 11  1  0  0  0  0
 13 18  1  6  0  0  0
 13 21  1  0  0  0  0
 13  9  1  0  0  0  0
 16 12  1  0  0  0  0
 17 12  1  0  0  0  0
 20 19  1  0  0  0  0
 21 22  1  0  0  0  0
 23 24  1  0  0  0  0
 23 25  1  0  0  0  0
 26 23  1  0  0  0  0
 27 26  1  0  0  0  0
 27 28  1  0  0  0  0
 29 27  2  0  0  0  0
 30 32  2  0  0  0  0
 30 29  1  0  0  0  0
 31 30  1  0  0  0  0
 32 34  1  0  0  0  0
 33 32  1  0  0  0  0
 34 26  2  0  0  0  0
M  END
>  <minimizedAffinity>
-5.56430769

$$$$

 OpenBabel03242521433D

 34 36  0  0  1  0  0  0  0  0999 V2000
   38.3300   26.9440   41.6010 C   0  0  0  0  0  0  0  0  0  0  0  0
   38.3820   28.2720   41.1700 C   0  0  0  0  0  0  0  0  0  0  0  0
   38.0050   29.2840   42.0460 C   0  0  0  0  0  0  0  0  0  0  0  0
   37.6040   28.9370   43.2790 N   0  0  0  0  0  0  0  0  0  0  0  0
   37.5620   27.6370   43.6770 C   0  0  0  0  0  0  0  0  0  0  0  0
   37.9210   26.6530   42.8460 N   0  0  0  0  0  0  0  0  0  0  0  0
   38.7180   28.4340   40.1640 H   0  0  0  0  0  0  0  0  0  0  0  0
   37.2280   27.4350   44.6890 H   0  0  0  0  0  0  0  0  0  0  0  0
   36.8780   31.0840   40.7490 C   0  0  2  0  0  0  0  0  0  0  0  0
   38.0730   30.6660   41.5570 C   0  0  2  0  0  0  0  0  0  0  0  0
   39.1030   30.8850   40.6180 O   0  0  0  0  0  0  0  0  0  0  0  0
   38.8590   32.1680   40.1680 C   0  0  0  0  0  0  0  0  0  0  0  0
   37.3920   32.4640   40.2980 C   0  0  1  0  0  0  0  0  0  0  0  0
   36.7790   30.5310   39.7990 H   0  0  0  0  0  0  0  0  0  0  0  0
   38.2490   31.4210   42.3590 H   0  0  0  0  0  0  0  0  0  0  0  0
   39.2540   32.3370   39.1420 H   0  0  0  0  0  0  0  0  0  0  0  0
   39.4000   32.8570   40.8520 H   0  0  0  0  0  0  0  0  0  0  0  0
   37.1170   33.1720   41.0750 H   0  0  0  0  0  0  0  0  0  0  0  0
   35.7160   31.1460   41.4790 O   0  0  0  0  0  0  0  0  0  0  0  0
   35.9690   31.1270   42.4420 H   0  0  0  0  0  0  0  0  0  0  0  0
   36.7880   32.8170   39.1110 O   0  0  0  0  0  0  0  0  0  0  0  0
   36.3550   32.0680   38.6430 H   0  0  0  0  0  0  0  0  0  0  0  0
   38.7310   25.8490   40.6450 C   0  0  0  0  0  0  0  0  0  0  0  0
   39.3120   25.1260   41.2700 H   0  0  0  0  0  0  0  0  0  0  0  0
   39.3700   26.2260   39.8380 H   0  0  0  0  0  0  0  0  0  0  0  0
   37.5550   25.1320   40.0970 C   0  0  0  0  0  0  0  0  0  0  0  0
   37.0730   25.6720   38.9000 C   0  0  0  0  0  0  0  0  0  0  0  0
   37.5210   26.5430   38.4140 H   0  0  0  0  0  0  0  0  0  0  0  0
   35.9930   25.1510   38.2360 C   0  0  0  0  0  3  0  0  0  0  0  0
   35.3530   24.0520   38.7580 C   0  0  0  0  0  0  0  0  0  0  0  0
   34.4820   23.5640   38.3040 H   0  0  0  0  0  0  0  0  0  0  0  0
   35.8200   23.5150   39.9340 C   0  0  0  0  0  0  0  0  0  0  0  0
   35.3770   22.6430   40.4260 H   0  0  0  0  0  0  0  0  0  0  0  0
   36.9010   24.0300   40.6080 C   0  0  0  0  0  3  0  0  0  0  0  0
  1  6  1  0  0  0  0
  2  1  2  0  0  0  0
  2  3  1  0  0  0  0
  3  4  2  0  0  0  0
  4  5  1  0  0  0  0
  5  8  1  0  0  0  0
  6  5  2  0  0  0  0
  7  2  1  0  0  0  0
  9 14  1  6  0  0  0
  9 19  1  0  0  0  0
  9 10  1  0  0  0  0
 10  3  1  0  0  0  0
 10 15  1  1  0  0  0
 11 10  1  0  0  0  0
 12 13  1  0  0  0  0
 12 11  1  0  0  0  0
 12 17  1  0  0  0  0
 13  9  1  0  0  0  0
 13 18  1  1  0  0  0
 16 12  1  0  0  0  0
 19 20  1  0  0  0  0
 21 13  1  0  0  0  0
 22 21  1  0  0  0  0
 23 24  1  0  0  0  0
 23  1  1  0  0  0  0
 25 23  1  0  0  0  0
 26 34  1  0  0  0  0
 26 23  1  0  0  0  0
 27 26  2  0  0  0  0
 28 27  1  0  0  0  0
 29 30  2  0  0  0  0
 29 27  1  0  0  0  0
 30 32  1  0  0  0  0
 31 30  1  0  0  0  0
 32 33  1  0  0  0  0
 32 34  2  0  0  0  0
M  END
>  <minimizedAffinity>
-5.46448898

$$$$
