
 OpenBabel03252507043D

 47 50  0  0  0  0  0  0  0  0999 V2000
   41.7590   31.8870   41.7260 C   0  0  0  0  0  0  0  0  0  0  0  0
   41.2770   32.4310   42.5660 H   0  0  0  0  0  0  0  0  0  0  0  0
   41.7520   32.6570   40.8790 H   0  0  0  0  0  0  0  0  0  0  0  0
   41.1380   30.7440   41.4080 N   0  0  0  0  0  0  0  0  0  0  0  0
   41.1020   29.5390   42.1780 C   0  0  0  0  0  0  0  0  0  0  0  0
   39.6680   29.6320   42.6980 C   0  0  0  0  0  0  0  0  0  0  0  0
   38.6610   29.6720   41.6510 C   0  0  0  0  0  0  0  0  0  0  0  0
   39.0410   30.1440   40.3380 C   0  0  0  0  0  0  0  0  0  0  0  0
   40.3940   30.7730   40.1320 C   0  0  0  0  0  0  0  0  0  0  0  0
   41.3200   28.6020   41.7010 H   0  0  0  0  0  0  0  0  0  0  0  0
   41.7570   29.6340   43.0670 H   0  0  0  0  0  0  0  0  0  0  0  0
   39.6210   30.4590   43.4640 H   0  0  0  0  0  0  0  0  0  0  0  0
   39.5550   28.7060   43.3350 H   0  0  0  0  0  0  0  0  0  0  0  0
   37.7870   30.2870   42.0010 H   0  0  0  0  0  0  0  0  0  0  0  0
   38.2270   28.6390   41.5090 H   0  0  0  0  0  0  0  0  0  0  0  0
   38.4240   30.1020   39.4990 H   0  0  0  0  0  0  0  0  0  0  0  0
   40.9560   31.4090   38.6380 S   0  0  0  0  0  0  0  0  0  0  0  0
   40.7850   33.0750   38.2570 C   0  0  0  0  0  0  0  0  0  0  0  0
   42.0590   33.6370   38.5000 C   0  0  0  0  0  0  0  0  0  0  0  0
   43.0290   33.2380   38.8380 H   0  0  0  0  0  0  0  0  0  0  0  0
   42.3030   35.0090   38.3150 C   0  0  0  0  0  3  0  0  0  0  0  0
   41.2490   35.8030   37.8820 C   0  0  0  0  0  0  0  0  0  0  0  0
   41.3310   36.8710   37.7080 H   0  0  0  0  0  0  0  0  0  0  0  0
   39.9950   35.2990   37.6340 C   0  0  0  0  0  0  0  0  0  0  0  0
   39.1320   35.8500   37.2970 H   0  0  0  0  0  0  0  0  0  0  0  0
   39.8430   33.9600   37.8390 C   0  0  0  0  0  3  0  0  0  0  0  0
   43.2030   31.7170   42.0410 C   0  0  0  0  0  0  0  0  0  0  0  0
   43.7100   30.9680   41.3960 H   0  0  0  0  0  0  0  0  0  0  0  0
   43.3350   31.3530   43.0980 H   0  0  0  0  0  0  0  0  0  0  0  0
   43.8430   33.0430   41.9870 C   0  0  0  0  0  0  0  0  0  0  0  0
   43.0820   34.1810   41.8540 C   0  0  0  0  0  0  0  0  0  0  0  0
   43.7360   35.4070   41.8000 C   0  0  0  0  0  0  0  0  0  0  0  0
   45.1000   35.4160   41.8850 N   0  0  0  0  0  0  0  0  0  0  0  0
   45.8010   34.2930   42.0140 C   0  0  0  0  0  0  0  0  0  0  0  0
   45.1500   33.1320   42.0600 N   0  0  0  0  0  0  0  0  0  0  0  0
   42.0250   34.3770   41.7910 H   0  0  0  0  0  0  0  0  0  0  0  0
   43.3060   36.3960   41.6980 H   0  0  0  0  0  0  0  0  0  0  0  0
   47.2550   34.4070   42.1340 C   0  0  0  0  0  0  0  0  0  0  0  0
   47.9980   33.3620   42.6770 C   0  0  0  0  0  0  0  0  0  0  0  0
   49.3660   33.4840   42.7970 C   0  0  0  0  0  0  0  0  0  0  0  0
   49.8710   34.6690   42.3500 C   0  0  0  0  0  0  0  0  0  0  0  0
   49.1780   35.7530   41.7980 C   0  0  0  0  0  0  0  0  0  0  0  0
   47.8310   35.5480   41.7150 N   0  0  0  0  0  0  0  0  0  0  0  0
   47.5080   32.4500   43.0070 H   0  0  0  0  0  0  0  0  0  0  0  0
   50.0050   32.7330   43.2000 H   0  0  0  0  0  0  0  0  0  0  0  0
   50.9600   34.8180   42.4240 H   0  0  0  0  0  0  0  0  0  0  0  0
   49.6700   36.6370   41.4780 H   0  0  0  0  0  0  0  0  0  0  0  0
  1 27  1  0  0  0  0
  1  2  1  0  0  0  0
  3  1  1  0  0  0  0
  4  1  1  0  0  0  0
  4  5  1  0  0  0  0
  5  6  1  0  0  0  0
  5 11  1  0  0  0  0
  6 13  1  0  0  0  0
  6 12  1  0  0  0  0
  7 14  1  0  0  0  0
  7  6  1  0  0  0  0
  8  7  1  0  0  0  0
  9  8  2  0  0  0  0
  9  4  1  0  0  0  0
 10  5  1  0  0  0  0
 15  7  1  0  0  0  0
 16  8  1  0  0  0  0
 17  9  1  0  0  0  0
 18 19  1  0  0  0  0
 18 17  1  0  0  0  0
 19 20  1  0  0  0  0
 21 19  2  0  0  0  0
 22 21  1  0  0  0  0
 23 22  1  0  0  0  0
 24 26  1  0  0  0  0
 24 22  2  0  0  0  0
 25 24  1  0  0  0  0
 26 18  2  0  0  0  0
 27 29  1  0  0  0  0
 28 27  1  0  0  0  0
 30 27  1  0  0  0  0
 30 35  1  0  0  0  0
 31 30  2  0  0  0  0
 32 31  1  0  0  0  0
 32 33  2  0  0  0  0
 33 34  1  0  0  0  0
 34 35  2  0  0  0  0
 34 38  1  0  0  0  0
 36 31  1  0  0  0  0
 37 32  1  0  0  0  0
 38 39  1  0  0  0  0
 39 40  2  0  0  0  0
 39 44  1  0  0  0  0
 40 45  1  0  0  0  0
 41 46  1  0  0  0  0
 41 40  1  0  0  0  0
 42 41  2  0  0  0  0
 43 42  1  0  0  0  0
 43 38  2  0  0  0  0
 47 42  1  0  0  0  0
M  END
>  <minimizedAffinity>
-5.46656466

>  <minimizedRMSD>
2.84996724

$$$$
