
 OpenBabel03242511313D

 23 24  0  0  0  0  0  0  0  0999 V2000
   45.4430   39.6190   43.5440 C   0  0  0  0  0  0  0  0  0  0  0  0
   46.4150   40.0210   43.2010 H   0  0  0  0  0  0  0  0  0  0  0  0
   44.6650   39.8040   42.7780 H   0  0  0  0  0  0  0  0  0  0  0  0
   45.0510   40.3790   44.7550 C   0  0  0  0  0  0  0  0  0  0  0  0
   44.5390   41.6630   44.5950 C   0  0  0  0  0  0  0  0  0  0  0  0
   44.4470   42.0520   43.5810 H   0  0  0  0  0  0  0  0  0  0  0  0
   44.1290   42.5040   45.6060 C   0  0  0  0  0  0  0  0  0  0  0  0
   44.2420   42.0160   46.8920 C   0  0  0  0  0  0  0  0  0  0  0  0
   43.9200   42.6720   47.7120 H   0  0  0  0  0  0  0  0  0  0  0  0
   44.7450   40.7480   47.1110 C   0  0  0  0  0  0  0  0  0  0  0  0
   44.8310   40.3700   48.1290 H   0  0  0  0  0  0  0  0  0  0  0  0
   45.1420   39.9430   46.0600 C   0  0  0  0  0  0  0  0  0  0  0  0
   44.9520   37.2250   43.2310 C   0  0  0  0  0  0  0  0  0  0  0  0
   45.5560   38.1860   43.8950 C   0  0  0  0  0  0  0  0  0  0  0  0
   45.1410   35.8500   43.6750 C   0  0  0  0  0  0  0  0  0  0  0  0
   45.5310   34.8800   42.7260 C   0  0  0  0  0  0  0  0  0  0  0  0
   45.7110   33.5560   43.1620 C   0  0  0  0  0  0  0  0  0  0  0  0
   45.5020   33.2750   44.4660 N   0  0  0  0  0  0  0  0  0  0  0  0
   45.1250   34.2340   45.3580 C   0  0  0  0  0  0  0  0  0  0  0  0
   44.9530   35.4910   44.9520 N   0  0  0  0  0  0  0  0  0  0  0  0
   45.6970   35.1000   41.6940 H   0  0  0  0  0  0  0  0  0  0  0  0
   46.0120   32.7820   42.4550 H   0  0  0  0  0  0  0  0  0  0  0  0
   45.0040   33.8470   46.3400 H   0  0  0  0  0  0  0  0  0  0  0  0
  1 14  1  0  0  0  0
  1  4  1  0  0  0  0
  2  1  1  0  0  0  0
  3  1  1  0  0  0  0
  4 12  1  0  0  0  0
  5  4  2  0  0  0  0
  5  7  1  0  0  0  0
  6  5  1  0  0  0  0
  7  8  2  0  0  0  0
  8 10  1  0  0  0  0
  8  9  1  0  0  0  0
 10 11  1  0  0  0  0
 12 10  2  0  0  0  0
 13 15  1  0  0  0  0
 13 14  2  0  0  0  0
 15 20  1  0  0  0  0
 16 17  1  0  0  0  0
 16 15  2  0  0  0  0
 17 18  2  0  0  0  0
 18 19  1  0  0  0  0
 19 23  1  0  0  0  0
 20 19  2  0  0  0  0
 21 16  1  0  0  0  0
 22 17  1  0  0  0  0
M  END
>  <minimizedAffinity>
-3.26347637

>  <minimizedRMSD>
2.09124541

$$$$
