
 OpenBabel03252507043D

 47 50  0  0  0  0  0  0  0  0999 V2000
   42.2990   31.4510   42.1520 C   0  0  0  0  0  0  0  0  0  0  0  0
   42.4370   31.1370   43.2090 H   0  0  0  0  0  0  0  0  0  0  0  0
   42.0800   32.5700   42.2400 H   0  0  0  0  0  0  0  0  0  0  0  0
   41.3350   30.7700   41.5190 N   0  0  0  0  0  0  0  0  0  0  0  0
   41.4750   29.5380   40.8060 C   0  0  0  0  0  0  0  0  0  0  0  0
   40.8250   28.6000   41.8230 C   0  0  0  0  0  0  0  0  0  0  0  0
   39.4440   28.9290   42.1320 C   0  0  0  0  0  0  0  0  0  0  0  0
   38.9900   30.2870   41.9290 C   0  0  0  0  0  0  0  0  0  0  0  0
   39.9880   31.3700   41.6080 C   0  0  0  0  0  0  0  0  0  0  0  0
   41.0580   29.4480   39.8210 H   0  0  0  0  0  0  0  0  0  0  0  0
   42.5440   29.2440   40.7580 H   0  0  0  0  0  0  0  0  0  0  0  0
   41.5210   28.4980   42.7060 H   0  0  0  0  0  0  0  0  0  0  0  0
   40.9020   27.5840   41.3360 H   0  0  0  0  0  0  0  0  0  0  0  0
   39.2240   28.6450   43.1980 H   0  0  0  0  0  0  0  0  0  0  0  0
   38.7570   28.2660   41.5280 H   0  0  0  0  0  0  0  0  0  0  0  0
   37.9960   30.5910   42.0120 H   0  0  0  0  0  0  0  0  0  0  0  0
   39.5900   33.0250   41.3830 S   0  0  0  0  0  0  0  0  0  0  0  0
   39.7340   33.7760   39.8440 C   0  0  0  0  0  0  0  0  0  0  0  0
   40.8210   34.6700   39.9750 C   0  0  0  0  0  0  0  0  0  0  0  0
   41.5170   34.9290   40.7900 H   0  0  0  0  0  0  0  0  0  0  0  0
   41.2310   35.4880   38.9080 C   0  0  0  0  0  3  0  0  0  0  0  0
   40.5320   35.3910   37.7120 C   0  0  0  0  0  0  0  0  0  0  0  0
   40.7680   35.9760   36.8280 H   0  0  0  0  0  0  0  0  0  0  0  0
   39.4710   34.5370   37.5400 C   0  0  0  0  0  0  0  0  0  0  0  0
   38.8820   34.4060   36.6460 H   0  0  0  0  0  0  0  0  0  0  0  0
   39.1380   33.7800   38.6240 C   0  0  0  0  0  3  0  0  0  0  0  0
   43.6190   31.3980   41.4690 C   0  0  0  0  0  0  0  0  0  0  0  0
   43.5490   31.1270   40.3940 H   0  0  0  0  0  0  0  0  0  0  0  0
   44.2760   30.6150   41.9410 H   0  0  0  0  0  0  0  0  0  0  0  0
   44.3010   32.6850   41.6900 C   0  0  0  0  0  0  0  0  0  0  0  0
   43.5780   33.8510   41.7920 C   0  0  0  0  0  0  0  0  0  0  0  0
   44.2710   35.0390   41.9920 C   0  0  0  0  0  0  0  0  0  0  0  0
   45.6340   34.9860   42.0790 N   0  0  0  0  0  0  0  0  0  0  0  0
   46.2980   33.8380   41.9770 C   0  0  0  0  0  0  0  0  0  0  0  0
   45.6100   32.7140   41.7820 N   0  0  0  0  0  0  0  0  0  0  0  0
   42.5280   34.0900   41.7680 H   0  0  0  0  0  0  0  0  0  0  0  0
   43.8740   36.0410   42.0940 H   0  0  0  0  0  0  0  0  0  0  0  0
   47.7540   33.8770   42.1200 C   0  0  0  0  0  0  0  0  0  0  0  0
   48.4830   32.6940   42.1870 C   0  0  0  0  0  0  0  0  0  0  0  0
   49.8530   32.7410   42.3350 C   0  0  0  0  0  0  0  0  0  0  0  0
   50.3730   34.0000   42.4030 C   0  0  0  0  0  0  0  0  0  0  0  0
   49.6940   35.2220   42.3430 C   0  0  0  0  0  0  0  0  0  0  0  0
   48.3440   35.0830   42.1960 N   0  0  0  0  0  0  0  0  0  0  0  0
   47.9820   31.7310   42.1230 H   0  0  0  0  0  0  0  0  0  0  0  0
   50.4830   31.8830   42.3940 H   0  0  0  0  0  0  0  0  0  0  0  0
   51.4640   34.0930   42.5210 H   0  0  0  0  0  0  0  0  0  0  0  0
   50.1970   36.1540   42.4060 H   0  0  0  0  0  0  0  0  0  0  0  0
  1  3  1  0  0  0  0
  1  2  1  0  0  0  0
  4  9  1  0  0  0  0
  4  1  1  0  0  0  0
  5  4  1  0  0  0  0
  5  6  1  0  0  0  0
  6  7  1  0  0  0  0
  6 12  1  0  0  0  0
  7 14  1  0  0  0  0
  8 16  1  0  0  0  0
  8  7  1  0  0  0  0
  9  8  2  0  0  0  0
 10  5  1  0  0  0  0
 11  5  1  0  0  0  0
 13  6  1  0  0  0  0
 15  7  1  0  0  0  0
 17  9  1  0  0  0  0
 18 19  1  0  0  0  0
 18 17  1  0  0  0  0
 19 20  1  0  0  0  0
 21 19  2  0  0  0  0
 22 21  1  0  0  0  0
 23 22  1  0  0  0  0
 24 22  2  0  0  0  0
 24 26  1  0  0  0  0
 25 24  1  0  0  0  0
 26 18  2  0  0  0  0
 27 30  1  0  0  0  0
 27 29  1  0  0  0  0
 27  1  1  0  0  0  0
 28 27  1  0  0  0  0
 30 35  2  0  0  0  0
 30 31  1  0  0  0  0
 31 32  2  0  0  0  0
 32 33  1  0  0  0  0
 32 37  1  0  0  0  0
 34 33  2  0  0  0  0
 34 38  1  0  0  0  0
 35 34  1  0  0  0  0
 36 31  1  0  0  0  0
 38 39  2  0  0  0  0
 38 43  1  0  0  0  0
 39 40  1  0  0  0  0
 40 45  1  0  0  0  0
 40 41  2  0  0  0  0
 41 46  1  0  0  0  0
 42 41  1  0  0  0  0
 42 47  1  0  0  0  0
 43 42  2  0  0  0  0
 44 39  1  0  0  0  0
M  END
>  <minimizedAffinity>
-5.50163603

>  <minimizedRMSD>
3.09747863

$$$$
