
 OpenBabel03242517193D

 39 41  0  0  0  0  0  0  0  0999 V2000
   44.3110   35.5960   43.4590 C   0  0  0  0  0  0  0  0  0  0  0  0
   43.7460   34.8460   42.3940 C   0  0  0  0  0  0  0  0  0  0  0  0
   44.0920   33.5050   42.2630 C   0  0  0  0  0  0  0  0  0  0  0  0
   44.9600   33.0130   43.1840 N   0  0  0  0  0  0  0  0  0  0  0  0
   45.4920   33.7220   44.1870 C   0  0  0  0  0  0  0  0  0  0  0  0
   45.1520   35.0030   44.3000 N   0  0  0  0  0  0  0  0  0  0  0  0
   44.0390   36.6340   43.5530 H   0  0  0  0  0  0  0  0  0  0  0  0
   43.6750   32.9330   41.4690 H   0  0  0  0  0  0  0  0  0  0  0  0
   46.4230   33.2040   45.1840 C   0  0  0  0  0  0  0  0  0  0  0  0
   46.3930   33.7110   46.1500 H   0  0  0  0  0  0  0  0  0  0  0  0
   47.4600   33.4060   44.7830 H   0  0  0  0  0  0  0  0  0  0  0  0
   46.3160   31.7060   45.2860 C   0  0  0  0  0  0  0  0  0  0  0  0
   45.4450   31.3760   44.6610 H   0  0  0  0  0  0  0  0  0  0  0  0
   47.2310   31.1820   44.9730 H   0  0  0  0  0  0  0  0  0  0  0  0
   45.9280   31.3770   46.6830 C   0  0  0  0  0  0  0  0  0  0  0  0
   45.3730   30.2190   47.1810 C   0  0  0  0  0  0  0  0  0  0  0  0
   45.2090   29.4650   46.4250 H   0  0  0  0  0  0  0  0  0  0  0  0
   45.0870   30.1240   48.5280 C   0  0  0  0  0  0  0  0  0  0  0  0
   45.3410   31.1600   49.4040 C   0  0  0  0  0  0  0  0  0  0  0  0
   45.0940   31.0310   50.4680 H   0  0  0  0  0  0  0  0  0  0  0  0
   45.9000   32.3280   48.9110 C   0  0  0  0  0  0  0  0  0  0  0  0
   46.0970   33.1430   49.6140 H   0  0  0  0  0  0  0  0  0  0  0  0
   46.1870   32.4300   47.5640 C   0  0  0  0  0  0  0  0  0  0  0  0
   42.8130   35.4860   41.4510 C   0  0  0  0  0  0  0  0  0  0  0  0
   41.5090   35.5350   41.6080 C   0  0  0  0  0  0  0  0  0  0  0  0
   40.5920   36.1920   40.6350 C   0  0  0  0  0  0  0  0  0  0  0  0
   39.8140   36.7000   41.2570 H   0  0  0  0  0  0  0  0  0  0  0  0
   41.0710   36.9830   40.0580 H   0  0  0  0  0  0  0  0  0  0  0  0
   41.2120   35.8930   37.9260 F   0  0  0  0  0  0  0  0  0  0  0  0
   40.2540   35.1000   38.4420 C   0  0  0  0  0  0  0  0  0  0  0  0
   39.9140   35.2180   39.7930 C   0  0  0  0  0  0  0  0  0  0  0  0
   38.9210   34.3500   40.1900 C   0  0  0  0  0  0  0  0  0  0  0  0
   38.2610   33.4210   39.4240 C   0  0  0  0  0  0  0  0  0  0  0  0
   38.6670   33.3700   38.0750 C   0  0  0  0  0  0  0  0  0  0  0  0
   39.6440   34.1870   37.5730 C   0  0  0  0  0  0  0  0  0  0  0  0
   38.6290   34.4130   41.2400 H   0  0  0  0  0  0  0  0  0  0  0  0
   37.4940   32.7890   39.8490 H   0  0  0  0  0  0  0  0  0  0  0  0
   38.1700   32.6490   37.4390 H   0  0  0  0  0  0  0  0  0  0  0  0
   39.9240   34.1180   36.5480 H   0  0  0  0  0  0  0  0  0  0  0  0
  1  7  1  0  0  0  0
  1  6  1  0  0  0  0
  2  1  2  0  0  0  0
  3  2  1  0  0  0  0
  3  4  2  0  0  0  0
  4  5  1  0  0  0  0
  5  6  2  0  0  0  0
  5  9  1  0  0  0  0
  8  3  1  0  0  0  0
  9 12  1  0  0  0  0
  9 10  1  0  0  0  0
 11  9  1  0  0  0  0
 12 15  1  0  0  0  0
 13 12  1  0  0  0  0
 14 12  1  0  0  0  0
 15 16  2  0  0  0  0
 15 23  1  0  0  0  0
 16 18  1  0  0  0  0
 17 16  1  0  0  0  0
 18 19  2  0  0  0  0
 19 20  1  0  0  0  0
 21 19  1  0  0  0  0
 21 22  1  0  0  0  0
 23 21  2  0  0  0  0
 24 25  2  0  0  0  0
 24  2  1  0  0  0  0
 26 27  1  0  0  0  0
 26 25  1  0  0  0  0
 28 26  1  0  0  0  0
 29 30  1  0  0  0  0
 30 31  1  0  0  0  0
 31 32  2  0  0  0  0
 31 26  1  0  0  0  0
 32 36  1  0  0  0  0
 33 37  1  0  0  0  0
 33 32  1  0  0  0  0
 34 33  2  0  0  0  0
 35 34  1  0  0  0  0
 35 30  2  0  0  0  0
 38 34  1  0  0  0  0
 39 35  1  0  0  0  0
M  END
>  <minimizedAffinity>
-7.10615301

>  <minimizedRMSD>
2.6451304

$$$$
