
 OpenBabel03242519303D

 43 46  0  0  0  0  0  0  0  0999 V2000
   36.7130   28.2140   41.6060 C   0  0  0  0  0  0  0  0  0  0  0  0
   37.0410   29.5220   42.0620 C   0  0  0  0  0  0  0  0  0  0  0  0
   36.6420   30.6250   41.3030 C   0  0  0  0  0  0  0  0  0  0  0  0
   35.9490   30.3640   40.1460 N   0  0  0  0  0  0  0  0  0  0  0  0
   35.6580   29.0930   39.7500 C   0  0  0  0  0  0  0  0  0  0  0  0
   36.0380   28.0400   40.4730 N   0  0  0  0  0  0  0  0  0  0  0  0
   37.5720   29.7980   42.9420 H   0  0  0  0  0  0  0  0  0  0  0  0
   36.8560   31.6450   41.5890 H   0  0  0  0  0  0  0  0  0  0  0  0
   37.1880   27.1280   42.4800 C   0  0  0  0  0  0  0  0  0  0  0  0
   38.0170   27.5500   43.5940 C   0  0  0  0  0  0  0  0  0  0  0  0
   39.4290   27.1250   43.5150 C   0  0  0  0  0  0  0  0  0  0  0  0
   39.5750   25.6210   43.3220 C   0  0  0  0  0  0  0  0  0  0  0  0
   38.5610   25.0330   42.4100 C   0  0  0  0  0  0  0  0  0  0  0  0
   37.9040   26.1150   41.5480 C   0  0  0  0  0  0  0  0  0  0  0  0
   36.2740   26.5440   42.7970 H   0  0  0  0  0  0  0  0  0  0  0  0
   37.6040   27.1160   44.5500 H   0  0  0  0  0  0  0  0  0  0  0  0
   38.0090   28.6480   43.7820 H   0  0  0  0  0  0  0  0  0  0  0  0
   40.0710   27.6350   42.7940 H   0  0  0  0  0  0  0  0  0  0  0  0
   39.9080   27.3200   44.5190 H   0  0  0  0  0  0  0  0  0  0  0  0
   39.5180   25.0810   44.2940 H   0  0  0  0  0  0  0  0  0  0  0  0
   40.6050   25.4490   42.9490 H   0  0  0  0  0  0  0  0  0  0  0  0
   39.0550   24.3500   41.6930 H   0  0  0  0  0  0  0  0  0  0  0  0
   37.7250   24.5290   42.9410 H   0  0  0  0  0  0  0  0  0  0  0  0
   37.1330   25.6630   40.9070 H   0  0  0  0  0  0  0  0  0  0  0  0
   38.6980   26.6440   40.9980 H   0  0  0  0  0  0  0  0  0  0  0  0
   34.9180   28.9890   38.4970 C   0  0  0  0  0  0  0  0  0  0  0  0
   35.6020   29.1670   37.3470 N   0  0  0  0  0  0  0  0  0  0  0  0
   34.7600   29.0350   36.3010 C   0  0  0  0  0  0  0  0  0  0  0  0
   33.5370   28.7710   36.8150 N   0  0  0  0  0  0  0  0  0  0  0  0
   33.6220   28.7390   38.1560 N   0  0  0  0  0  0  0  0  0  0  0  0
   34.9740   29.1160   35.2430 H   0  0  0  0  0  0  0  0  0  0  0  0
   32.2780   28.5440   36.1050 C   0  0  0  0  0  0  0  0  0  0  0  0
   32.4560   28.0120   35.1450 H   0  0  0  0  0  0  0  0  0  0  0  0
   31.5770   27.9900   36.7630 H   0  0  0  0  0  0  0  0  0  0  0  0
   31.6750   29.8900   35.8720 C   0  0  0  0  0  0  0  0  0  0  0  0
   31.8670   30.4780   34.6330 C   0  0  0  0  0  0  0  0  0  0  0  0
   32.4400   29.9540   33.8810 H   0  0  0  0  0  0  0  0  0  0  0  0
   31.3690   31.7150   34.2780 C   0  0  0  0  0  3  0  0  0  0  0  0
   30.6260   32.4010   35.2440 C   0  0  0  0  0  0  0  0  0  0  0  0
   30.2500   33.3530   34.9550 H   0  0  0  0  0  0  0  0  0  0  0  0
   30.4320   31.8090   36.4950 C   0  0  0  0  0  0  0  0  0  0  0  0
   29.8560   32.3730   37.2040 H   0  0  0  0  0  0  0  0  0  0  0  0
   30.9420   30.5700   36.8220 C   0  0  0  0  0  3  0  0  0  0  0  0
  1  2  1  0  0  0  0
  1  9  1  0  0  0  0
  2  7  1  0  0  0  0
  3  8  1  0  0  0  0
  3  2  2  0  0  0  0
  4  3  1  0  0  0  0
  5  4  2  0  0  0  0
  5  6  1  0  0  0  0
  6  1  2  0  0  0  0
  9 15  1  0  0  0  0
  9 10  1  0  0  0  0
 10 17  1  0  0  0  0
 10 16  1  0  0  0  0
 11 10  1  0  0  0  0
 11 19  1  0  0  0  0
 12 11  1  0  0  0  0
 12 20  1  0  0  0  0
 13 23  1  0  0  0  0
 13 12  1  0  0  0  0
 14 13  1  0  0  0  0
 14  9  1  0  0  0  0
 18 11  1  0  0  0  0
 21 12  1  0  0  0  0
 22 13  1  0  0  0  0
 24 14  1  0  0  0  0
 25 14  1  0  0  0  0
 26  5  1  0  0  0  0
 27 26  1  0  0  0  0
 28 29  1  0  0  0  0
 28 27  2  0  0  0  0
 29 30  1  0  0  0  0
 30 26  2  0  0  0  0
 31 28  1  0  0  0  0
 32 34  1  0  0  0  0
 32 29  1  0  0  0  0
 33 32  1  0  0  0  0
 35 32  1  0  0  0  0
 35 43  1  0  0  0  0
 36 35  2  0  0  0  0
 37 36  1  0  0  0  0
 38 36  1  0  0  0  0
 38 39  2  0  0  0  0
 39 41  1  0  0  0  0
 40 39  1  0  0  0  0
 41 43  2  0  0  0  0
 41 42  1  0  0  0  0
M  END
>  <minimizedAffinity>
-6.4266181

$$$$

 OpenBabel03242519303D

 43 46  0  0  0  0  0  0  0  0999 V2000
   37.2490   29.6050   40.3860 C   0  0  0  0  0  0  0  0  0  0  0  0
   38.5020   30.1570   39.9950 C   0  0  0  0  0  0  0  0  0  0  0  0
   38.7250   30.4430   38.6460 C   0  0  0  0  0  0  0  0  0  0  0  0
   37.7000   30.1660   37.7750 N   0  0  0  0  0  0  0  0  0  0  0  0
   36.5170   29.6360   38.1970 C   0  0  0  0  0  0  0  0  0  0  0  0
   36.3020   29.3630   39.4830 N   0  0  0  0  0  0  0  0  0  0  0  0
   39.3350   30.3960   40.6100 H   0  0  0  0  0  0  0  0  0  0  0  0
   39.6510   30.8620   38.2790 H   0  0  0  0  0  0  0  0  0  0  0  0
   37.1250   29.3380   41.8290 C   0  0  0  0  0  0  0  0  0  0  0  0
   38.3430   29.5210   42.5970 C   0  0  0  0  0  0  0  0  0  0  0  0
   38.9220   28.2820   43.1530 C   0  0  0  0  0  0  0  0  0  0  0  0
   37.9180   27.4930   43.9840 C   0  0  0  0  0  0  0  0  0  0  0  0
   36.5430   27.4950   43.4240 C   0  0  0  0  0  0  0  0  0  0  0  0
   36.5510   27.9010   41.9470 C   0  0  0  0  0  0  0  0  0  0  0  0
   36.2610   29.9630   42.2020 H   0  0  0  0  0  0  0  0  0  0  0  0
   38.1300   30.1990   43.4740 H   0  0  0  0  0  0  0  0  0  0  0  0
   39.1550   30.0530   42.0500 H   0  0  0  0  0  0  0  0  0  0  0  0
   39.4170   27.5990   42.4590 H   0  0  0  0  0  0  0  0  0  0  0  0
   39.7220   28.5740   43.8940 H   0  0  0  0  0  0  0  0  0  0  0  0
   37.8650   27.8780   45.0270 H   0  0  0  0  0  0  0  0  0  0  0  0
   38.3200   26.4620   44.0700 H   0  0  0  0  0  0  0  0  0  0  0  0
   36.1310   26.4680   43.4410 H   0  0  0  0  0  0  0  0  0  0  0  0
   35.8600   28.2150   43.9250 H   0  0  0  0  0  0  0  0  0  0  0  0
   35.5220   27.9310   41.5630 H   0  0  0  0  0  0  0  0  0  0  0  0
   37.2180   27.2100   41.4060 H   0  0  0  0  0  0  0  0  0  0  0  0
   35.5340   29.3990   37.1440 C   0  0  0  0  0  0  0  0  0  0  0  0
   35.9710   29.4010   35.8670 N   0  0  0  0  0  0  0  0  0  0  0  0
   34.9310   29.1680   35.0400 C   0  0  0  0  0  0  0  0  0  0  0  0
   33.8360   29.0180   35.8200 N   0  0  0  0  0  0  0  0  0  0  0  0
   34.1940   29.1570   37.1090 N   0  0  0  0  0  0  0  0  0  0  0  0
   34.9240   29.1030   33.9590 H   0  0  0  0  0  0  0  0  0  0  0  0
   32.4550   28.7500   35.4160 C   0  0  0  0  0  0  0  0  0  0  0  0
   32.4240   28.2700   34.4140 H   0  0  0  0  0  0  0  0  0  0  0  0
   31.9570   28.1300   36.1900 H   0  0  0  0  0  0  0  0  0  0  0  0
   31.7540   30.0680   35.4040 C   0  0  0  0  0  0  0  0  0  0  0  0
   31.0190   30.4190   36.5230 C   0  0  0  0  0  0  0  0  0  0  0  0
   30.9730   29.7390   37.3620 H   0  0  0  0  0  0  0  0  0  0  0  0
   30.3210   31.6030   36.6510 C   0  0  0  0  0  3  0  0  0  0  0  0
   30.3740   32.4900   35.5710 C   0  0  0  0  0  0  0  0  0  0  0  0
   29.8310   33.3980   35.6850 H   0  0  0  0  0  0  0  0  0  0  0  0
   31.1150   32.1370   34.4410 C   0  0  0  0  0  0  0  0  0  0  0  0
   31.1270   32.8490   33.6370 H   0  0  0  0  0  0  0  0  0  0  0  0
   31.8040   30.9450   34.3400 C   0  0  0  0  0  3  0  0  0  0  0  0
  1  9  1  0  0  0  0
  2  1  1  0  0  0  0
  2  7  1  0  0  0  0
  3  2  2  0  0  0  0
  4  5  2  0  0  0  0
  4  3  1  0  0  0  0
  5  6  1  0  0  0  0
  6  1  2  0  0  0  0
  8  3  1  0  0  0  0
  9 14  1  0  0  0  0
  9 15  1  0  0  0  0
  9 10  1  0  0  0  0
 10 11  1  0  0  0  0
 10 16  1  0  0  0  0
 11 19  1  0  0  0  0
 11 12  1  0  0  0  0
 12 21  1  0  0  0  0
 12 20  1  0  0  0  0
 13 22  1  0  0  0  0
 13 23  1  0  0  0  0
 13 12  1  0  0  0  0
 14 13  1  0  0  0  0
 17 10  1  0  0  0  0
 18 11  1  0  0  0  0
 24 14  1  0  0  0  0
 25 14  1  0  0  0  0
 26  5  1  0  0  0  0
 27 26  1  0  0  0  0
 28 29  1  0  0  0  0
 28 27  2  0  0  0  0
 29 30  1  0  0  0  0
 30 26  2  0  0  0  0
 31 28  1  0  0  0  0
 32 29  1  0  0  0  0
 32 34  1  0  0  0  0
 33 32  1  0  0  0  0
 35 32  1  0  0  0  0
 35 36  1  0  0  0  0
 36 38  2  0  0  0  0
 36 37  1  0  0  0  0
 39 40  1  0  0  0  0
 39 38  1  0  0  0  0
 41 39  2  0  0  0  0
 42 41  1  0  0  0  0
 43 41  1  0  0  0  0
 43 35  2  0  0  0  0
M  END
>  <minimizedAffinity>
-6.19958973

$$$$

 OpenBabel03242519303D

 43 46  0  0  0  0  0  0  0  0999 V2000
   32.9200   29.2110   37.0370 C   0  0  0  0  0  0  0  0  0  0  0  0
   33.5310   29.1120   35.7550 C   0  0  0  0  0  0  0  0  0  0  0  0
   34.9010   28.8500   35.6750 C   0  0  0  0  0  0  0  0  0  0  0  0
   35.5740   28.7040   36.8640 N   0  0  0  0  0  0  0  0  0  0  0  0
   34.9450   28.8070   38.0680 C   0  0  0  0  0  0  0  0  0  0  0  0
   33.6390   29.0570   38.1460 N   0  0  0  0  0  0  0  0  0  0  0  0
   33.0750   29.2130   34.8000 H   0  0  0  0  0  0  0  0  0  0  0  0
   35.4300   28.7620   34.7380 H   0  0  0  0  0  0  0  0  0  0  0  0
   31.4750   29.4950   37.0010 C   0  0  0  0  0  0  0  0  0  0  0  0
   31.0570   30.4400   35.9830 C   0  0  0  0  0  0  0  0  0  0  0  0
   30.5640   31.7340   36.4970 C   0  0  0  0  0  0  0  0  0  0  0  0
   29.4440   31.5660   37.5150 C   0  0  0  0  0  0  0  0  0  0  0  0
   29.6370   30.4160   38.4350 C   0  0  0  0  0  0  0  0  0  0  0  0
   31.0970   29.9520   38.4360 C   0  0  0  0  0  0  0  0  0  0  0  0
   30.9490   28.4980   36.9310 H   0  0  0  0  0  0  0  0  0  0  0  0
   30.2140   29.9900   35.3820 H   0  0  0  0  0  0  0  0  0  0  0  0
   31.8330   30.6610   35.2140 H   0  0  0  0  0  0  0  0  0  0  0  0
   31.3010   32.4330   36.8970 H   0  0  0  0  0  0  0  0  0  0  0  0
   30.0750   32.2850   35.6410 H   0  0  0  0  0  0  0  0  0  0  0  0
   28.4570   31.4440   37.0160 H   0  0  0  0  0  0  0  0  0  0  0  0
   29.3760   32.5240   38.0720 H   0  0  0  0  0  0  0  0  0  0  0  0
   29.4320   30.7310   39.4760 H   0  0  0  0  0  0  0  0  0  0  0  0
   29.0420   29.5190   38.1570 H   0  0  0  0  0  0  0  0  0  0  0  0
   31.2100   29.0790   39.0940 H   0  0  0  0  0  0  0  0  0  0  0  0
   31.7290   30.8120   38.7090 H   0  0  0  0  0  0  0  0  0  0  0  0
   35.8050   28.6280   39.2340 C   0  0  0  0  0  0  0  0  0  0  0  0
   37.1390   28.7010   39.0450 N   0  0  0  0  0  0  0  0  0  0  0  0
   37.7670   28.5120   40.2250 C   0  0  0  0  0  0  0  0  0  0  0  0
   36.8040   28.3210   41.1540 N   0  0  0  0  0  0  0  0  0  0  0  0
   35.6000   28.3900   40.5600 N   0  0  0  0  0  0  0  0  0  0  0  0
   38.8290   28.5070   40.4350 H   0  0  0  0  0  0  0  0  0  0  0  0
   36.9550   28.0720   42.5890 C   0  0  0  0  0  0  0  0  0  0  0  0
   37.4410   28.9370   43.0900 H   0  0  0  0  0  0  0  0  0  0  0  0
   35.9630   27.8400   43.0300 H   0  0  0  0  0  0  0  0  0  0  0  0
   37.7830   26.8370   42.7200 C   0  0  0  0  0  0  0  0  0  0  0  0
   38.9760   26.9300   43.4160 C   0  0  0  0  0  0  0  0  0  0  0  0
   39.2700   27.8810   43.8390 H   0  0  0  0  0  0  0  0  0  0  0  0
   39.8410   25.8730   43.6160 C   0  0  0  0  0  3  0  0  0  0  0  0
   39.4700   24.6390   43.0730 C   0  0  0  0  0  0  0  0  0  0  0  0
   40.1470   23.8340   43.2350 H   0  0  0  0  0  0  0  0  0  0  0  0
   38.2660   24.5440   42.3690 C   0  0  0  0  0  0  0  0  0  0  0  0
   38.0230   23.5770   41.9700 H   0  0  0  0  0  0  0  0  0  0  0  0
   37.4200   25.6180   42.1850 C   0  0  0  0  0  3  0  0  0  0  0  0
  1  6  1  0  0  0  0
  2  1  2  0  0  0  0
  3  2  1  0  0  0  0
  3  4  2  0  0  0  0
  4  5  1  0  0  0  0
  5  6  2  0  0  0  0
  5 26  1  0  0  0  0
  7  2  1  0  0  0  0
  8  3  1  0  0  0  0
  9  1  1  0  0  0  0
  9 14  1  0  0  0  0
 10 11  1  0  0  0  0
 10  9  1  0  0  0  0
 11 18  1  0  0  0  0
 11 12  1  0  0  0  0
 12 21  1  0  0  0  0
 12 13  1  0  0  0  0
 13 14  1  0  0  0  0
 13 22  1  0  0  0  0
 14 25  1  0  0  0  0
 14 24  1  0  0  0  0
 15  9  1  0  0  0  0
 16 10  1  0  0  0  0
 17 10  1  0  0  0  0
 19 11  1  0  0  0  0
 20 12  1  0  0  0  0
 23 13  1  0  0  0  0
 26 30  2  0  0  0  0
 27 26  1  0  0  0  0
 27 28  2  0  0  0  0
 28 31  1  0  0  0  0
 28 29  1  0  0  0  0
 29 32  1  0  0  0  0
 30 29  1  0  0  0  0
 32 35  1  0  0  0  0
 32 34  1  0  0  0  0
 32 33  1  0  0  0  0
 35 36  1  0  0  0  0
 36 38  2  0  0  0  0
 36 37  1  0  0  0  0
 39 40  1  0  0  0  0
 39 38  1  0  0  0  0
 41 39  2  0  0  0  0
 42 41  1  0  0  0  0
 43 41  1  0  0  0  0
 43 35  2  0  0  0  0
M  END
>  <minimizedAffinity>
-6.04514694

$$$$

 OpenBabel03242519303D

 43 46  0  0  0  0  0  0  0  0999 V2000
   37.0860   28.6420   41.7960 C   0  0  0  0  0  0  0  0  0  0  0  0
   35.8250   28.5730   41.1390 C   0  0  0  0  0  0  0  0  0  0  0  0
   35.4080   29.6530   40.3580 C   0  0  0  0  0  0  0  0  0  0  0  0
   36.2610   30.7260   40.2780 N   0  0  0  0  0  0  0  0  0  0  0  0
   37.4600   30.7470   40.9260 C   0  0  0  0  0  0  0  0  0  0  0  0
   37.8590   29.7170   41.6710 N   0  0  0  0  0  0  0  0  0  0  0  0
   35.1180   27.7790   41.1560 H   0  0  0  0  0  0  0  0  0  0  0  0
   34.4650   29.6690   39.8320 H   0  0  0  0  0  0  0  0  0  0  0  0
   37.4210   27.4510   42.5970 C   0  0  0  0  0  0  0  0  0  0  0  0
   38.4170   27.6630   43.6300 C   0  0  0  0  0  0  0  0  0  0  0  0
   39.7070   26.9800   43.4030 C   0  0  0  0  0  0  0  0  0  0  0  0
   39.5390   25.4850   43.1660 C   0  0  0  0  0  0  0  0  0  0  0  0
   38.3500   25.1370   42.3470 C   0  0  0  0  0  0  0  0  0  0  0  0
   37.8370   26.3570   41.5770 C   0  0  0  0  0  0  0  0  0  0  0  0
   36.4460   27.0400   42.9910 H   0  0  0  0  0  0  0  0  0  0  0  0
   38.0190   27.2790   44.6140 H   0  0  0  0  0  0  0  0  0  0  0  0
   38.6400   28.7340   43.8410 H   0  0  0  0  0  0  0  0  0  0  0  0
   40.3650   27.3860   42.6320 H   0  0  0  0  0  0  0  0  0  0  0  0
   40.3060   27.0410   44.3570 H   0  0  0  0  0  0  0  0  0  0  0  0
   39.4700   24.9280   44.1270 H   0  0  0  0  0  0  0  0  0  0  0  0
   40.4770   25.1330   42.6880 H   0  0  0  0  0  0  0  0  0  0  0  0
   38.6330   24.4010   41.5710 H   0  0  0  0  0  0  0  0  0  0  0  0
   37.4850   24.7820   42.9490 H   0  0  0  0  0  0  0  0  0  0  0  0
   36.9360   26.0870   41.0070 H   0  0  0  0  0  0  0  0  0  0  0  0
   38.6640   26.7460   40.9620 H   0  0  0  0  0  0  0  0  0  0  0  0
   38.2450   31.9620   40.7380 C   0  0  0  0  0  0  0  0  0  0  0  0
   37.6680   32.9840   40.0710 N   0  0  0  0  0  0  0  0  0  0  0  0
   38.5370   34.0140   39.9950 C   0  0  0  0  0  0  0  0  0  0  0  0
   39.6650   33.6210   40.6280 N   0  0  0  0  0  0  0  0  0  0  0  0
   39.4980   32.3690   41.0870 N   0  0  0  0  0  0  0  0  0  0  0  0
   38.4010   34.9830   39.5320 H   0  0  0  0  0  0  0  0  0  0  0  0
   40.9090   34.3670   40.8270 C   0  0  0  0  0  0  0  0  0  0  0  0
   40.7100   35.4610   40.8670 H   0  0  0  0  0  0  0  0  0  0  0  0
   41.4160   34.0030   41.7440 H   0  0  0  0  0  0  0  0  0  0  0  0
   41.7980   34.0230   39.6780 C   0  0  0  0  0  0  0  0  0  0  0  0
   42.6640   32.9540   39.8290 C   0  0  0  0  0  0  0  0  0  0  0  0
   42.6730   32.4060   40.7610 H   0  0  0  0  0  0  0  0  0  0  0  0
   43.5400   32.5220   38.8530 C   0  0  0  0  0  3  0  0  0  0  0  0
   43.5360   33.2230   37.6430 C   0  0  0  0  0  0  0  0  0  0  0  0
   44.2170   32.8790   36.9010 H   0  0  0  0  0  0  0  0  0  0  0  0
   42.6620   34.3030   37.4890 C   0  0  0  0  0  0  0  0  0  0  0  0
   42.6940   34.8110   36.5430 H   0  0  0  0  0  0  0  0  0  0  0  0
   41.7960   34.7120   38.4830 C   0  0  0  0  0  3  0  0  0  0  0  0
  1  9  1  0  0  0  0
  2  7  1  0  0  0  0
  2  1  2  0  0  0  0
  3  2  1  0  0  0  0
  4  3  2  0  0  0  0
  4  5  1  0  0  0  0
  5  6  2  0  0  0  0
  6  1  1  0  0  0  0
  8  3  1  0  0  0  0
  9 15  1  0  0  0  0
  9 10  1  0  0  0  0
 10 17  1  0  0  0  0
 10 16  1  0  0  0  0
 11 10  1  0  0  0  0
 11 19  1  0  0  0  0
 12 11  1  0  0  0  0
 12 20  1  0  0  0  0
 13 23  1  0  0  0  0
 13 12  1  0  0  0  0
 14 13  1  0  0  0  0
 14  9  1  0  0  0  0
 18 11  1  0  0  0  0
 21 12  1  0  0  0  0
 22 13  1  0  0  0  0
 24 14  1  0  0  0  0
 25 14  1  0  0  0  0
 26  5  1  0  0  0  0
 26 30  2  0  0  0  0
 27 26  1  0  0  0  0
 28 27  2  0  0  0  0
 28 29  1  0  0  0  0
 29 32  1  0  0  0  0
 29 30  1  0  0  0  0
 31 28  1  0  0  0  0
 32 33  1  0  0  0  0
 32 34  1  0  0  0  0
 35 36  1  0  0  0  0
 35 32  1  0  0  0  0
 36 37  1  0  0  0  0
 38 36  2  0  0  0  0
 39 38  1  0  0  0  0
 40 39  1  0  0  0  0
 41 39  2  0  0  0  0
 41 43  1  0  0  0  0
 42 41  1  0  0  0  0
 43 35  2  0  0  0  0
M  END
>  <minimizedAffinity>
-6.01467323

$$$$

 OpenBabel03242519303D

 43 46  0  0  0  0  0  0  0  0999 V2000
   40.5280   33.7070   40.1300 C   0  0  0  0  0  0  0  0  0  0  0  0
   39.5150   34.6980   39.9940 C   0  0  0  0  0  0  0  0  0  0  0  0
   38.1770   34.3250   40.1370 C   0  0  0  0  0  0  0  0  0  0  0  0
   37.9280   33.0000   40.4050 N   0  0  0  0  0  0  0  0  0  0  0  0
   38.9320   32.0870   40.5260 C   0  0  0  0  0  0  0  0  0  0  0  0
   40.2090   32.4420   40.3900 N   0  0  0  0  0  0  0  0  0  0  0  0
   39.6340   35.7350   39.7890 H   0  0  0  0  0  0  0  0  0  0  0  0
   37.3580   35.0230   40.0470 H   0  0  0  0  0  0  0  0  0  0  0  0
   41.9010   34.2110   39.9540 C   0  0  0  0  0  0  0  0  0  0  0  0
   42.6180   33.6630   38.8180 C   0  0  0  0  0  0  0  0  0  0  0  0
   43.7580   32.7890   39.1640 C   0  0  0  0  0  0  0  0  0  0  0  0
   44.7470   33.4680   40.1020 C   0  0  0  0  0  0  0  0  0  0  0  0
   44.1040   34.3120   41.1420 C   0  0  0  0  0  0  0  0  0  0  0  0
   42.6240   33.9550   41.3030 C   0  0  0  0  0  0  0  0  0  0  0  0
   41.8330   35.3390   39.9390 H   0  0  0  0  0  0  0  0  0  0  0  0
   43.0380   34.5080   38.1990 H   0  0  0  0  0  0  0  0  0  0  0  0
   41.9780   33.1060   38.0960 H   0  0  0  0  0  0  0  0  0  0  0  0
   43.5320   31.7930   39.5520 H   0  0  0  0  0  0  0  0  0  0  0  0
   44.3540   32.6060   38.2230 H   0  0  0  0  0  0  0  0  0  0  0  0
   45.4680   34.1030   39.5410 H   0  0  0  0  0  0  0  0  0  0  0  0
   45.3570   32.6590   40.5570 H   0  0  0  0  0  0  0  0  0  0  0  0
   44.5630   34.1040   42.1280 H   0  0  0  0  0  0  0  0  0  0  0  0
   44.1230   35.3980   40.9060 H   0  0  0  0  0  0  0  0  0  0  0  0
   42.1600   34.6150   42.0500 H   0  0  0  0  0  0  0  0  0  0  0  0
   42.5550   32.8810   41.5400 H   0  0  0  0  0  0  0  0  0  0  0  0
   38.4980   30.7230   40.8090 C   0  0  0  0  0  0  0  0  0  0  0  0
   38.7980   29.7690   39.9030 N   0  0  0  0  0  0  0  0  0  0  0  0
   38.3210   28.5810   40.3300 C   0  0  0  0  0  0  0  0  0  0  0  0
   37.7170   28.8070   41.5190 N   0  0  0  0  0  0  0  0  0  0  0  0
   37.8200   30.1130   41.8220 N   0  0  0  0  0  0  0  0  0  0  0  0
   38.3840   27.6130   39.8510 H   0  0  0  0  0  0  0  0  0  0  0  0
   37.0400   27.8510   42.3960 C   0  0  0  0  0  0  0  0  0  0  0  0
   36.6710   28.3550   43.3160 H   0  0  0  0  0  0  0  0  0  0  0  0
   36.2210   27.3520   41.8380 H   0  0  0  0  0  0  0  0  0  0  0  0
   38.0420   26.7950   42.7250 C   0  0  0  0  0  0  0  0  0  0  0  0
   37.8610   25.5380   42.1740 C   0  0  0  0  0  0  0  0  0  0  0  0
   37.0110   25.3590   41.5310 H   0  0  0  0  0  0  0  0  0  0  0  0
   38.7050   24.4680   42.3910 C   0  0  0  0  0  3  0  0  0  0  0  0
   39.8080   24.6890   43.2210 C   0  0  0  0  0  0  0  0  0  0  0  0
   40.4500   23.8550   43.3790 H   0  0  0  0  0  0  0  0  0  0  0  0
   39.9930   25.9570   43.7790 C   0  0  0  0  0  0  0  0  0  0  0  0
   40.8530   26.0800   44.4100 H   0  0  0  0  0  0  0  0  0  0  0  0
   39.1310   27.0090   43.5450 C   0  0  0  0  0  3  0  0  0  0  0  0
  1  6  1  0  0  0  0
  2  1  2  0  0  0  0
  2  3  1  0  0  0  0
  3  4  2  0  0  0  0
  4  5  1  0  0  0  0
  5 26  1  0  0  0  0
  6  5  2  0  0  0  0
  7  2  1  0  0  0  0
  8  3  1  0  0  0  0
  9  1  1  0  0  0  0
  9 14  1  0  0  0  0
 10 11  1  0  0  0  0
 10  9  1  0  0  0  0
 11 18  1  0  0  0  0
 11 12  1  0  0  0  0
 12 21  1  0  0  0  0
 12 13  1  0  0  0  0
 13 14  1  0  0  0  0
 13 22  1  0  0  0  0
 14 25  1  0  0  0  0
 14 24  1  0  0  0  0
 15  9  1  0  0  0  0
 16 10  1  0  0  0  0
 17 10  1  0  0  0  0
 19 11  1  0  0  0  0
 20 12  1  0  0  0  0
 23 13  1  0  0  0  0
 26 30  2  0  0  0  0
 27 28  2  0  0  0  0
 27 26  1  0  0  0  0
 28 29  1  0  0  0  0
 29 30  1  0  0  0  0
 29 32  1  0  0  0  0
 31 28  1  0  0  0  0
 32 35  1  0  0  0  0
 32 33  1  0  0  0  0
 34 32  1  0  0  0  0
 35 43  1  0  0  0  0
 36 38  1  0  0  0  0
 36 35  2  0  0  0  0
 37 36  1  0  0  0  0
 38 39  2  0  0  0  0
 39 40  1  0  0  0  0
 39 41  1  0  0  0  0
 41 42  1  0  0  0  0
 43 41  2  0  0  0  0
M  END
>  <minimizedAffinity>
-5.85887671

$$$$

 OpenBabel03242519303D

 43 46  0  0  0  0  0  0  0  0999 V2000
   32.0740   28.9160   36.3210 C   0  0  0  0  0  0  0  0  0  0  0  0
   32.0770   27.5600   35.8870 C   0  0  0  0  0  0  0  0  0  0  0  0
   33.0650   26.6970   36.3670 C   0  0  0  0  0  0  0  0  0  0  0  0
   33.9820   27.2290   37.2410 N   0  0  0  0  0  0  0  0  0  0  0  0
   33.9380   28.5350   37.6280 C   0  0  0  0  0  0  0  0  0  0  0  0
   32.9960   29.3590   37.1710 N   0  0  0  0  0  0  0  0  0  0  0  0
   31.4040   27.0830   35.2160 H   0  0  0  0  0  0  0  0  0  0  0  0
   33.1280   25.6580   36.0810 H   0  0  0  0  0  0  0  0  0  0  0  0
   30.9930   29.7360   35.7470 C   0  0  0  0  0  0  0  0  0  0  0  0
   31.2390   30.2300   34.4050 C   0  0  0  0  0  0  0  0  0  0  0  0
   31.4190   31.6920   34.3020 C   0  0  0  0  0  0  0  0  0  0  0  0
   30.2600   32.4660   34.9170 C   0  0  0  0  0  0  0  0  0  0  0  0
   29.7300   31.8600   36.1650 C   0  0  0  0  0  0  0  0  0  0  0  0
   30.7360   30.8760   36.7690 C   0  0  0  0  0  0  0  0  0  0  0  0
   30.0440   29.1300   35.8350 H   0  0  0  0  0  0  0  0  0  0  0  0
   30.3610   29.9670   33.7450 H   0  0  0  0  0  0  0  0  0  0  0  0
   32.1030   29.7500   33.8900 H   0  0  0  0  0  0  0  0  0  0  0  0
   32.3570   32.1130   34.6700 H   0  0  0  0  0  0  0  0  0  0  0  0
   31.3850   31.9710   33.2090 H   0  0  0  0  0  0  0  0  0  0  0  0
   29.4160   32.5690   34.1990 H   0  0  0  0  0  0  0  0  0  0  0  0
   30.6280   33.4990   35.0920 H   0  0  0  0  0  0  0  0  0  0  0  0
   29.5940   32.6450   36.9330 H   0  0  0  0  0  0  0  0  0  0  0  0
   28.7980   31.2740   36.0130 H   0  0  0  0  0  0  0  0  0  0  0  0
   30.3100   30.4130   37.6700 H   0  0  0  0  0  0  0  0  0  0  0  0
   31.6820   31.4150   36.9390 H   0  0  0  0  0  0  0  0  0  0  0  0
   34.9860   28.9410   38.5590 C   0  0  0  0  0  0  0  0  0  0  0  0
   36.2670   28.8020   38.1600 N   0  0  0  0  0  0  0  0  0  0  0  0
   37.0900   29.2240   39.1430 C   0  0  0  0  0  0  0  0  0  0  0  0
   36.3010   29.6310   40.1640 N   0  0  0  0  0  0  0  0  0  0  0  0
   35.0130   29.4630   39.8180 N   0  0  0  0  0  0  0  0  0  0  0  0
   38.1710   29.2510   39.1580 H   0  0  0  0  0  0  0  0  0  0  0  0
   36.6970   30.1750   41.4640 C   0  0  0  0  0  0  0  0  0  0  0  0
   37.3690   31.0510   41.3360 H   0  0  0  0  0  0  0  0  0  0  0  0
   35.7900   30.4290   42.0500 H   0  0  0  0  0  0  0  0  0  0  0  0
   37.3860   29.0690   42.1930 C   0  0  0  0  0  0  0  0  0  0  0  0
   38.7330   29.2210   42.4740 C   0  0  0  0  0  0  0  0  0  0  0  0
   39.2420   30.1220   42.1610 H   0  0  0  0  0  0  0  0  0  0  0  0
   39.4960   28.2830   43.1400 C   0  0  0  0  0  3  0  0  0  0  0  0
   38.8470   27.1140   43.5500 C   0  0  0  0  0  0  0  0  0  0  0  0
   39.4480   26.4010   44.0620 H   0  0  0  0  0  0  0  0  0  0  0  0
   37.4870   26.9590   43.2670 C   0  0  0  0  0  0  0  0  0  0  0  0
   37.0320   26.0450   43.6010 H   0  0  0  0  0  0  0  0  0  0  0  0
   36.7490   27.9140   42.5990 C   0  0  0  0  0  3  0  0  0  0  0  0
  1  6  1  0  0  0  0
  2  1  2  0  0  0  0
  2  3  1  0  0  0  0
  3  4  2  0  0  0  0
  4  5  1  0  0  0  0
  5 26  1  0  0  0  0
  6  5  2  0  0  0  0
  7  2  1  0  0  0  0
  8  3  1  0  0  0  0
  9 15  1  0  0  0  0
  9  1  1  0  0  0  0
  9 14  1  0  0  0  0
 10  9  1  0  0  0  0
 11 10  1  0  0  0  0
 11 18  1  0  0  0  0
 11 12  1  0  0  0  0
 12 21  1  0  0  0  0
 12 13  1  0  0  0  0
 13 14  1  0  0  0  0
 13 22  1  0  0  0  0
 14 25  1  0  0  0  0
 14 24  1  0  0  0  0
 16 10  1  0  0  0  0
 17 10  1  0  0  0  0
 19 11  1  0  0  0  0
 20 12  1  0  0  0  0
 23 13  1  0  0  0  0
 26 30  2  0  0  0  0
 27 26  1  0  0  0  0
 27 28  2  0  0  0  0
 28 31  1  0  0  0  0
 28 29  1  0  0  0  0
 29 32  1  0  0  0  0
 30 29  1  0  0  0  0
 32 34  1  0  0  0  0
 32 35  1  0  0  0  0
 33 32  1  0  0  0  0
 35 36  2  0  0  0  0
 35 43  1  0  0  0  0
 36 38  1  0  0  0  0
 37 36  1  0  0  0  0
 38 39  2  0  0  0  0
 39 40  1  0  0  0  0
 41 39  1  0  0  0  0
 41 42  1  0  0  0  0
 43 41  2  0  0  0  0
M  END
>  <minimizedAffinity>
-5.73396015

$$$$

 OpenBabel03242519303D

 43 46  0  0  0  0  0  0  0  0999 V2000
   37.7360   25.2290   41.5290 C   0  0  0  0  0  0  0  0  0  0  0  0
   38.7010   25.2210   42.5760 C   0  0  0  0  0  0  0  0  0  0  0  0
   39.2060   26.4370   43.0420 C   0  0  0  0  0  0  0  0  0  0  0  0
   38.7270   27.5770   42.4440 N   0  0  0  0  0  0  0  0  0  0  0  0
   37.8030   27.5340   41.4430 C   0  0  0  0  0  0  0  0  0  0  0  0
   37.3200   26.3750   40.9980 N   0  0  0  0  0  0  0  0  0  0  0  0
   39.1140   24.3820   43.0820 H   0  0  0  0  0  0  0  0  0  0  0  0
   39.9390   26.5060   43.8320 H   0  0  0  0  0  0  0  0  0  0  0  0
   37.2780   23.8910   41.1130 C   0  0  0  0  0  0  0  0  0  0  0  0
   38.3260   22.9880   40.6760 C   0  0  0  0  0  0  0  0  0  0  0  0
   38.2980   22.6500   39.2390 C   0  0  0  0  0  0  0  0  0  0  0  0
   36.9470   22.1020   38.7970 C   0  0  0  0  0  0  0  0  0  0  0  0
   35.7890   22.7810   39.4320 C   0  0  0  0  0  0  0  0  0  0  0  0
   36.1990   24.1320   40.0240 C   0  0  0  0  0  0  0  0  0  0  0  0
   36.6590   23.4820   41.9650 H   0  0  0  0  0  0  0  0  0  0  0  0
   38.2350   22.0130   41.2380 H   0  0  0  0  0  0  0  0  0  0  0  0
   39.3580   23.3310   40.9180 H   0  0  0  0  0  0  0  0  0  0  0  0
   38.6140   23.4200   38.5320 H   0  0  0  0  0  0  0  0  0  0  0  0
   39.0110   21.7900   39.0700 H   0  0  0  0  0  0  0  0  0  0  0  0
   36.8640   21.0120   39.0050 H   0  0  0  0  0  0  0  0  0  0  0  0
   36.9160   22.1950   37.6910 H   0  0  0  0  0  0  0  0  0  0  0  0
   35.0280   23.0180   38.6640 H   0  0  0  0  0  0  0  0  0  0  0  0
   35.3480   22.2090   40.2780 H   0  0  0  0  0  0  0  0  0  0  0  0
   35.3360   24.5990   40.5200 H   0  0  0  0  0  0  0  0  0  0  0  0
   36.6430   24.7380   39.2180 H   0  0  0  0  0  0  0  0  0  0  0  0
   37.4010   28.8340   40.9150 C   0  0  0  0  0  0  0  0  0  0  0  0
   36.5670   29.5850   41.6650 N   0  0  0  0  0  0  0  0  0  0  0  0
   36.3080   30.7420   41.0210 C   0  0  0  0  0  0  0  0  0  0  0  0
   36.9950   30.7040   39.8570 N   0  0  0  0  0  0  0  0  0  0  0  0
   37.6680   29.5430   39.7820 N   0  0  0  0  0  0  0  0  0  0  0  0
   35.6820   31.5670   41.3340 H   0  0  0  0  0  0  0  0  0  0  0  0
   37.0540   31.7120   38.7970 C   0  0  0  0  0  0  0  0  0  0  0  0
   37.3310   31.2470   37.8260 H   0  0  0  0  0  0  0  0  0  0  0  0
   36.0830   32.2460   38.7400 H   0  0  0  0  0  0  0  0  0  0  0  0
   38.0730   32.7160   39.2240 C   0  0  0  0  0  0  0  0  0  0  0  0
   39.3970   32.4710   38.9010 C   0  0  0  0  0  0  0  0  0  0  0  0
   39.6520   31.5730   38.3560 H   0  0  0  0  0  0  0  0  0  0  0  0
   40.4430   33.3100   39.2300 C   0  0  0  0  0  3  0  0  0  0  0  0
   40.1230   34.4750   39.9330 C   0  0  0  0  0  0  0  0  0  0  0  0
   40.9400   35.1110   40.1800 H   0  0  0  0  0  0  0  0  0  0  0  0
   38.7880   34.7240   40.2610 C   0  0  0  0  0  0  0  0  0  0  0  0
   38.5900   35.6310   40.8010 H   0  0  0  0  0  0  0  0  0  0  0  0
   37.7620   33.8670   39.9190 C   0  0  0  0  0  3  0  0  0  0  0  0
  1  2  1  0  0  0  0
  2  3  2  0  0  0  0
  2  7  1  0  0  0  0
  3  8  1  0  0  0  0
  4  3  1  0  0  0  0
  5  4  2  0  0  0  0
  6  5  1  0  0  0  0
  6  1  2  0  0  0  0
  9  1  1  0  0  0  0
  9 15  1  0  0  0  0
 10 17  1  0  0  0  0
 10  9  1  0  0  0  0
 10 16  1  0  0  0  0
 11 10  1  0  0  0  0
 12 20  1  0  0  0  0
 12 11  1  0  0  0  0
 12 13  1  0  0  0  0
 13 14  1  0  0  0  0
 13 23  1  0  0  0  0
 14 24  1  0  0  0  0
 14  9  1  0  0  0  0
 18 11  1  0  0  0  0
 19 11  1  0  0  0  0
 21 12  1  0  0  0  0
 22 13  1  0  0  0  0
 25 14  1  0  0  0  0
 26  5  1  0  0  0  0
 26 27  1  0  0  0  0
 28 31  1  0  0  0  0
 28 27  2  0  0  0  0
 29 28  1  0  0  0  0
 30 29  1  0  0  0  0
 30 26  2  0  0  0  0
 32 35  1  0  0  0  0
 32 29  1  0  0  0  0
 33 32  1  0  0  0  0
 34 32  1  0  0  0  0
 35 43  1  0  0  0  0
 36 35  2  0  0  0  0
 36 38  1  0  0  0  0
 37 36  1  0  0  0  0
 38 39  2  0  0  0  0
 39 40  1  0  0  0  0
 39 41  1  0  0  0  0
 41 42  1  0  0  0  0
 43 41  2  0  0  0  0
M  END
>  <minimizedAffinity>
-5.73193264

$$$$

 OpenBabel03242519303D

 43 46  0  0  0  0  0  0  0  0999 V2000
   38.2260   24.5850   41.8050 C   0  0  0  0  0  0  0  0  0  0  0  0
   39.2310   24.2480   42.7560 C   0  0  0  0  0  0  0  0  0  0  0  0
   39.9090   25.2750   43.4170 C   0  0  0  0  0  0  0  0  0  0  0  0
   39.5520   26.5620   43.0950 N   0  0  0  0  0  0  0  0  0  0  0  0
   38.5830   26.8340   42.1770 C   0  0  0  0  0  0  0  0  0  0  0  0
   37.9350   25.8560   41.5450 N   0  0  0  0  0  0  0  0  0  0  0  0
   39.5570   23.2810   43.0520 H   0  0  0  0  0  0  0  0  0  0  0  0
   40.6820   25.0930   44.1490 H   0  0  0  0  0  0  0  0  0  0  0  0
   37.5810   23.4250   41.1650 C   0  0  0  0  0  0  0  0  0  0  0  0
   38.4570   22.6030   40.3510 C   0  0  0  0  0  0  0  0  0  0  0  0
   38.1780   22.6410   38.9010 C   0  0  0  0  0  0  0  0  0  0  0  0
   36.7290   22.3020   38.5790 C   0  0  0  0  0  0  0  0  0  0  0  0
   35.7520   22.8630   39.5470 C   0  0  0  0  0  0  0  0  0  0  0  0
   36.3780   23.9950   40.3670 C   0  0  0  0  0  0  0  0  0  0  0  0
   37.0610   22.8490   41.9860 H   0  0  0  0  0  0  0  0  0  0  0  0
   38.3570   21.5240   40.6690 H   0  0  0  0  0  0  0  0  0  0  0  0
   39.5430   22.8140   40.4870 H   0  0  0  0  0  0  0  0  0  0  0  0
   38.4570   23.5460   38.3560 H   0  0  0  0  0  0  0  0  0  0  0  0
   38.7690   21.8130   38.4110 H   0  0  0  0  0  0  0  0  0  0  0  0
   36.5720   21.2010   38.5290 H   0  0  0  0  0  0  0  0  0  0  0  0
   36.5390   22.6730   37.5500 H   0  0  0  0  0  0  0  0  0  0  0  0
   34.9100   23.3300   39.0010 H   0  0  0  0  0  0  0  0  0  0  0  0
   35.3910   22.1220   40.2930 H   0  0  0  0  0  0  0  0  0  0  0  0
   35.6510   24.3700   41.1010 H   0  0  0  0  0  0  0  0  0  0  0  0
   36.7520   24.7580   39.6660 H   0  0  0  0  0  0  0  0  0  0  0  0
   38.3260   28.2530   41.9500 C   0  0  0  0  0  0  0  0  0  0  0  0
   39.1510   29.1420   42.5430 N   0  0  0  0  0  0  0  0  0  0  0  0
   38.7620   30.3940   42.2220 C   0  0  0  0  0  0  0  0  0  0  0  0
   37.6820   30.2740   41.4170 N   0  0  0  0  0  0  0  0  0  0  0  0
   37.4070   28.9690   41.2430 N   0  0  0  0  0  0  0  0  0  0  0  0
   39.1980   31.3380   42.5240 H   0  0  0  0  0  0  0  0  0  0  0  0
   36.8840   31.3310   40.7950 C   0  0  0  0  0  0  0  0  0  0  0  0
   35.8240   31.2710   41.1270 H   0  0  0  0  0  0  0  0  0  0  0  0
   37.3350   32.3190   41.0230 H   0  0  0  0  0  0  0  0  0  0  0  0
   36.9980   31.1360   39.3190 C   0  0  0  0  0  0  0  0  0  0  0  0
   36.2450   30.1300   38.7400 C   0  0  0  0  0  0  0  0  0  0  0  0
   35.6040   29.5220   39.3620 H   0  0  0  0  0  0  0  0  0  0  0  0
   36.2500   29.8370   37.3910 C   0  0  0  0  0  3  0  0  0  0  0  0
   37.0760   30.6180   36.5760 C   0  0  0  0  0  0  0  0  0  0  0  0
   37.0700   30.3800   35.5390 H   0  0  0  0  0  0  0  0  0  0  0  0
   37.8380   31.6340   37.1600 C   0  0  0  0  0  0  0  0  0  0  0  0
   38.4570   32.2070   36.4950 H   0  0  0  0  0  0  0  0  0  0  0  0
   37.8120   31.9040   38.5130 C   0  0  0  0  0  3  0  0  0  0  0  0
  1  2  1  0  0  0  0
  2  7  1  0  0  0  0
  2  3  2  0  0  0  0
  3  8  1  0  0  0  0
  4  3  1  0  0  0  0
  5  4  2  0  0  0  0
  6  1  2  0  0  0  0
  6  5  1  0  0  0  0
  9  1  1  0  0  0  0
  9 15  1  0  0  0  0
 10 17  1  0  0  0  0
 10 16  1  0  0  0  0
 10  9  1  0  0  0  0
 11 10  1  0  0  0  0
 12 11  1  0  0  0  0
 12 13  1  0  0  0  0
 13 23  1  0  0  0  0
 13 14  1  0  0  0  0
 14 24  1  0  0  0  0
 14  9  1  0  0  0  0
 18 11  1  0  0  0  0
 19 11  1  0  0  0  0
 20 12  1  0  0  0  0
 21 12  1  0  0  0  0
 22 13  1  0  0  0  0
 25 14  1  0  0  0  0
 26  5  1  0  0  0  0
 26 27  1  0  0  0  0
 28 31  1  0  0  0  0
 28 27  2  0  0  0  0
 29 28  1  0  0  0  0
 30 29  1  0  0  0  0
 30 26  2  0  0  0  0
 32 34  1  0  0  0  0
 32 33  1  0  0  0  0
 32 29  1  0  0  0  0
 35 32  1  0  0  0  0
 36 35  1  0  0  0  0
 36 37  1  0  0  0  0
 38 36  2  0  0  0  0
 39 41  2  0  0  0  0
 39 38  1  0  0  0  0
 40 39  1  0  0  0  0
 41 43  1  0  0  0  0
 42 41  1  0  0  0  0
 43 35  2  0  0  0  0
M  END
>  <minimizedAffinity>
-5.71365738

$$$$

 OpenBabel03242519303D

 43 46  0  0  0  0  0  0  0  0999 V2000
   38.0350   27.2170   41.3990 C   0  0  0  0  0  0  0  0  0  0  0  0
   37.8500   27.0340   42.7980 C   0  0  0  0  0  0  0  0  0  0  0  0
   37.7600   28.1580   43.6240 C   0  0  0  0  0  0  0  0  0  0  0  0
   37.8600   29.3840   43.0130 N   0  0  0  0  0  0  0  0  0  0  0  0
   38.0380   29.5100   41.6680 C   0  0  0  0  0  0  0  0  0  0  0  0
   38.1240   28.4390   40.8800 N   0  0  0  0  0  0  0  0  0  0  0  0
   37.7640   26.1200   43.3360 H   0  0  0  0  0  0  0  0  0  0  0  0
   37.6190   28.0930   44.6920 H   0  0  0  0  0  0  0  0  0  0  0  0
   38.1220   25.9650   40.6270 C   0  0  0  0  0  0  0  0  0  0  0  0
   36.8530   25.4370   40.1630 C   0  0  0  0  0  0  0  0  0  0  0  0
   36.4360   24.1700   40.7960 C   0  0  0  0  0  0  0  0  0  0  0  0
   37.5010   23.0870   40.6850 C   0  0  0  0  0  0  0  0  0  0  0  0
   38.8880   23.5900   40.8530 C   0  0  0  0  0  0  0  0  0  0  0  0
   38.8960   24.9650   41.5270 C   0  0  0  0  0  0  0  0  0  0  0  0
   38.8640   26.1480   39.7950 H   0  0  0  0  0  0  0  0  0  0  0  0
   36.9170   25.2370   39.0540 H   0  0  0  0  0  0  0  0  0  0  0  0
   36.0000   26.1490   40.2490 H   0  0  0  0  0  0  0  0  0  0  0  0
   36.0840   24.2120   41.8290 H   0  0  0  0  0  0  0  0  0  0  0  0
   35.5640   23.7580   40.2090 H   0  0  0  0  0  0  0  0  0  0  0  0
   37.4420   22.5600   39.7070 H   0  0  0  0  0  0  0  0  0  0  0  0
   37.2530   22.3200   41.4480 H   0  0  0  0  0  0  0  0  0  0  0  0
   39.4460   22.9260   41.5400 H   0  0  0  0  0  0  0  0  0  0  0  0
   39.4300   23.7280   39.8920 H   0  0  0  0  0  0  0  0  0  0  0  0
   39.9280   25.3340   41.6090 H   0  0  0  0  0  0  0  0  0  0  0  0
   38.3680   24.8770   42.4900 H   0  0  0  0  0  0  0  0  0  0  0  0
   38.1270   30.8820   41.1800 C   0  0  0  0  0  0  0  0  0  0  0  0
   37.1280   31.3340   40.3930 N   0  0  0  0  0  0  0  0  0  0  0  0
   37.3800   32.6120   40.0410 C   0  0  0  0  0  0  0  0  0  0  0  0
   38.5520   32.9540   40.6220 N   0  0  0  0  0  0  0  0  0  0  0  0
   39.0180   31.9040   41.3220 N   0  0  0  0  0  0  0  0  0  0  0  0
   36.7900   33.2730   39.4200 H   0  0  0  0  0  0  0  0  0  0  0  0
   39.2680   34.2280   40.5550 C   0  0  0  0  0  0  0  0  0  0  0  0
   38.7010   34.9670   39.9480 H   0  0  0  0  0  0  0  0  0  0  0  0
   39.4660   34.5970   41.5830 H   0  0  0  0  0  0  0  0  0  0  0  0
   40.5980   33.9350   39.9410 C   0  0  0  0  0  0  0  0  0  0  0  0
   41.7300   34.2500   40.6720 C   0  0  0  0  0  0  0  0  0  0  0  0
   41.6230   34.6930   41.6520 H   0  0  0  0  0  0  0  0  0  0  0  0
   43.0210   34.0350   40.2320 C   0  0  0  0  0  3  0  0  0  0  0  0
   43.1710   33.4610   38.9650 C   0  0  0  0  0  0  0  0  0  0  0  0
   44.1720   33.3010   38.6400 H   0  0  0  0  0  0  0  0  0  0  0  0
   42.0290   33.1430   38.2260 C   0  0  0  0  0  0  0  0  0  0  0  0
   42.1930   32.7050   37.2590 H   0  0  0  0  0  0  0  0  0  0  0  0
   40.7500   33.3690   38.6920 C   0  0  0  0  0  3  0  0  0  0  0  0
  1  2  1  0  0  0  0
  2  7  1  0  0  0  0
  2  3  2  0  0  0  0
  3  8  1  0  0  0  0
  4  3  1  0  0  0  0
  5  4  2  0  0  0  0
  6  1  2  0  0  0  0
  6  5  1  0  0  0  0
  9  1  1  0  0  0  0
  9 14  1  0  0  0  0
 10 17  1  0  0  0  0
 10  9  1  0  0  0  0
 10 11  1  0  0  0  0
 11 18  1  0  0  0  0
 12 11  1  0  0  0  0
 12 13  1  0  0  0  0
 12 21  1  0  0  0  0
 13 14  1  0  0  0  0
 13 22  1  0  0  0  0
 14 24  1  0  0  0  0
 14 25  1  0  0  0  0
 15  9  1  0  0  0  0
 16 10  1  0  0  0  0
 19 11  1  0  0  0  0
 20 12  1  0  0  0  0
 23 13  1  0  0  0  0
 26 30  2  0  0  0  0
 26  5  1  0  0  0  0
 27 26  1  0  0  0  0
 28 27  2  0  0  0  0
 28 29  1  0  0  0  0
 29 30  1  0  0  0  0
 31 28  1  0  0  0  0
 32 29  1  0  0  0  0
 32 34  1  0  0  0  0
 33 32  1  0  0  0  0
 35 32  1  0  0  0  0
 35 36  1  0  0  0  0
 36 37  1  0  0  0  0
 38 36  2  0  0  0  0
 39 38  1  0  0  0  0
 40 39  1  0  0  0  0
 41 43  1  0  0  0  0
 41 39  2  0  0  0  0
 42 41  1  0  0  0  0
 43 35  2  0  0  0  0
M  END
>  <minimizedAffinity>
-5.61931419

$$$$
