
 OpenBabel03252506483D

 42 45  0  0  1  0  0  0  0  0999 V2000
   37.5420   30.3970   41.0720 N   0  0  1  0  0  0  0  0  0  0  0  0
   36.1960   30.5090   40.5730 C   0  0  0  0  0  0  0  0  0  0  0  0
   35.4140   29.2310   40.6790 C   0  0  0  0  0  0  0  0  0  0  0  0
   36.0180   28.2160   39.7330 C   0  0  0  0  0  0  0  0  0  0  0  0
   37.5200   28.3450   39.7020 C   0  0  0  0  0  0  0  0  0  0  0  0
   37.9950   29.0300   40.9760 C   0  0  2  0  0  0  0  0  0  0  0  0
   36.1780   30.8190   39.4950 H   0  0  0  0  0  0  0  0  0  0  0  0
   35.6710   31.2600   41.2030 H   0  0  0  0  0  0  0  0  0  0  0  0
   35.2840   28.8780   41.7030 H   0  0  0  0  0  0  0  0  0  0  0  0
   34.3980   29.4750   40.2720 H   0  0  0  0  0  0  0  0  0  0  0  0
   35.5450   28.2160   38.7370 H   0  0  0  0  0  0  0  0  0  0  0  0
   35.8050   27.2200   40.2000 H   0  0  0  0  0  0  0  0  0  0  0  0
   38.0180   27.3590   39.6800 H   0  0  0  0  0  0  0  0  0  0  0  0
   37.8120   28.9170   38.8220 H   0  0  0  0  0  0  0  0  0  0  0  0
   39.1060   29.0730   40.8870 H   0  0  0  0  0  0  0  0  0  0  0  0
   39.0280   32.5100   41.0350 C   0  0  1  0  0  0  0  0  0  0  0  0
   37.7850   32.7370   40.3070 C   0  0  0  0  0  0  0  0  0  0  0  0
   38.3320   31.3460   40.3650 C   0  0  2  0  0  0  0  0  0  0  0  0
   39.0820   32.3630   42.1390 H   0  0  0  0  0  0  0  0  0  0  0  0
   37.8720   33.3190   39.3500 H   0  0  0  0  0  0  0  0  0  0  0  0
   36.8950   33.0100   40.8970 H   0  0  0  0  0  0  0  0  0  0  0  0
   38.8550   30.9720   39.4610 H   0  0  0  0  0  0  0  0  0  0  0  0
   41.5370   32.5920   41.1110 C   0  0  0  0  0  0  0  0  0  0  0  0
   40.3260   32.9730   40.4830 C   0  0  0  0  0  0  0  0  0  0  0  0
   40.3950   33.7850   39.3540 C   0  0  0  0  0  0  0  0  0  0  0  0
   41.6200   34.1610   38.9290 N   0  0  0  0  0  0  0  0  0  0  0  0
   42.7590   33.7900   39.5350 C   0  0  0  0  0  0  0  0  0  0  0  0
   42.7340   33.0020   40.6340 N   0  0  0  0  0  0  0  0  0  0  0  0
   41.4530   31.9610   41.9870 H   0  0  0  0  0  0  0  0  0  0  0  0
   39.4960   34.0910   38.8570 H   0  0  0  0  0  0  0  0  0  0  0  0
   43.7010   34.1400   39.1230 H   0  0  0  0  0  0  0  0  0  0  0  0
   37.6740   28.2090   42.0950 N   0  0  0  0  0  0  0  0  0  0  0  0
   36.8850   28.5220   42.7400 H   0  0  0  0  0  0  0  0  0  0  0  0
   38.2910   26.9890   42.4760 C   0  0  0  0  0  0  0  0  0  0  0  0
   37.8680   25.7410   42.1140 C   0  0  0  0  0  0  0  0  0  0  0  0
   37.0020   25.6400   41.4840 H   0  0  0  0  0  0  0  0  0  0  0  0
   38.4560   24.5640   42.4830 C   0  0  0  0  0  3  0  0  0  0  0  0
   39.5650   24.5950   43.2810 C   0  0  0  0  0  0  0  0  0  0  0  0
   40.0720   23.7110   43.6040 H   0  0  0  0  0  0  0  0  0  0  0  0
   40.0420   25.8070   43.6800 C   0  0  0  0  0  0  0  0  0  0  0  0
   40.9230   25.8420   44.3130 H   0  0  0  0  0  0  0  0  0  0  0  0
   39.4140   26.9590   43.2810 C   0  0  0  0  0  3  0  0  0  0  0  0
  1  2  1  6  0  0  0
  2  3  1  0  0  0  0
  2  8  1  0  0  0  0
  3  9  1  0  0  0  0
  4 12  1  0  0  0  0
  4  3  1  0  0  0  0
  5  4  1  0  0  0  0
  5  6  1  0  0  0  0
  6 15  1  6  0  0  0
  6  1  1  0  0  0  0
  6 32  1  0  0  0  0
  7  2  1  0  0  0  0
 10  3  1  0  0  0  0
 11  4  1  0  0  0  0
 13  5  1  0  0  0  0
 14  5  1  0  0  0  0
 16 19  1  1  0  0  0
 17 18  1  0  0  0  0
 17 21  1  0  0  0  0
 17 16  1  0  0  0  0
 18 22  1  6  0  0  0
 18 16  1  0  0  0  0
 18  1  1  0  0  0  0
 20 17  1  0  0  0  0
 23 29  1  0  0  0  0
 24 16  1  0  0  0  0
 24 23  2  0  0  0  0
 25 24  1  0  0  0  0
 26 25  2  0  0  0  0
 26 27  1  0  0  0  0
 27 28  2  0  0  0  0
 28 23  1  0  0  0  0
 30 25  1  0  0  0  0
 31 27  1  0  0  0  0
 32 34  1  0  0  0  0
 32 33  1  0  0  0  0
 34 42  1  0  0  0  0
 35 34  2  0  0  0  0
 35 37  1  0  0  0  0
 36 35  1  0  0  0  0
 37 38  2  0  0  0  0
 38 39  1  0  0  0  0
 38 40  1  0  0  0  0
 40 41  1  0  0  0  0
 42 40  2  0  0  0  0
M  END
>  <minimizedAffinity>
-5.4960537

$$$$

 OpenBabel03252506483D

 42 45  0  0  1  0  0  0  0  0999 V2000
   36.9210   26.9300   41.7640 N   0  0  1  0  0  0  0  0  0  0  0  0
   37.0340   27.0450   43.1940 C   0  0  0  0  0  0  0  0  0  0  0  0
   37.1420   28.4660   43.6700 C   0  0  0  0  0  0  0  0  0  0  0  0
   38.4660   29.0320   43.2030 C   0  0  0  0  0  0  0  0  0  0  0  0
   38.8050   28.5220   41.8250 C   0  0  0  0  0  0  0  0  0  0  0  0
   37.5320   28.0710   41.1250 C   0  0  2  0  0  0  0  0  0  0  0  0
   37.9310   26.4970   43.5860 H   0  0  0  0  0  0  0  0  0  0  0  0
   36.1010   26.6300   43.6350 H   0  0  0  0  0  0  0  0  0  0  0  0
   36.2740   29.0800   43.4260 H   0  0  0  0  0  0  0  0  0  0  0  0
   37.2070   28.3960   44.7880 H   0  0  0  0  0  0  0  0  0  0  0  0
   39.2760   28.9080   43.9410 H   0  0  0  0  0  0  0  0  0  0  0  0
   38.2880   30.1320   43.0880 H   0  0  0  0  0  0  0  0  0  0  0  0
   39.2420   29.3130   41.1890 H   0  0  0  0  0  0  0  0  0  0  0  0
   39.5120   27.6980   41.9120 H   0  0  0  0  0  0  0  0  0  0  0  0
   37.8600   27.7270   40.1150 H   0  0  0  0  0  0  0  0  0  0  0  0
   36.6560   24.5600   40.7700 C   0  0  1  0  0  0  0  0  0  0  0  0
   36.9850   24.4940   42.1890 C   0  0  0  0  0  0  0  0  0  0  0  0
   37.4700   25.6690   41.4000 C   0  0  2  0  0  0  0  0  0  0  0  0
   35.6880   24.9490   40.3760 H   0  0  0  0  0  0  0  0  0  0  0  0
   37.7180   23.6980   42.4890 H   0  0  0  0  0  0  0  0  0  0  0  0
   36.1570   24.6090   42.9070 H   0  0  0  0  0  0  0  0  0  0  0  0
   38.5380   25.6670   41.0970 H   0  0  0  0  0  0  0  0  0  0  0  0
   37.2090   23.9190   38.4050 C   0  0  0  0  0  0  0  0  0  0  0  0
   37.3190   23.6600   39.7940 C   0  0  0  0  0  0  0  0  0  0  0  0
   38.0540   22.5500   40.2020 C   0  0  0  0  0  0  0  0  0  0  0  0
   38.6170   21.7860   39.2420 N   0  0  0  0  0  0  0  0  0  0  0  0
   38.5040   22.0450   37.9290 C   0  0  0  0  0  0  0  0  0  0  0  0
   37.7990   23.1140   37.4930 N   0  0  0  0  0  0  0  0  0  0  0  0
   36.6320   24.7880   38.1180 H   0  0  0  0  0  0  0  0  0  0  0  0
   38.1560   22.3280   41.2460 H   0  0  0  0  0  0  0  0  0  0  0  0
   38.9910   21.3760   37.2270 H   0  0  0  0  0  0  0  0  0  0  0  0
   36.6740   29.1940   40.9480 N   0  0  0  0  0  0  0  0  0  0  0  0
   35.7320   29.1930   41.4500 H   0  0  0  0  0  0  0  0  0  0  0  0
   36.9160   30.3530   40.1650 C   0  0  0  0  0  0  0  0  0  0  0  0
   37.0460   31.6230   40.6500 C   0  0  0  0  0  0  0  0  0  0  0  0
   36.9700   31.7930   41.7100 H   0  0  0  0  0  0  0  0  0  0  0  0
   37.2750   32.7420   39.8990 C   0  0  0  0  0  3  0  0  0  0  0  0
   37.3890   32.6210   38.5430 C   0  0  0  0  0  0  0  0  0  0  0  0
   37.5690   33.4550   37.8990 H   0  0  0  0  0  0  0  0  0  0  0  0
   37.2700   31.3810   37.9910 C   0  0  0  0  0  0  0  0  0  0  0  0
   37.3600   31.2750   36.9140 H   0  0  0  0  0  0  0  0  0  0  0  0
   37.0410   30.2910   38.7910 C   0  0  0  0  0  3  0  0  0  0  0  0
  1  2  1  1  0  0  0
  2  7  1  0  0  0  0
  2  8  1  0  0  0  0
  2  3  1  0  0  0  0
  3 10  1  0  0  0  0
  4  3  1  0  0  0  0
  4 11  1  0  0  0  0
  5 14  1  0  0  0  0
  5  4  1  0  0  0  0
  6 15  1  6  0  0  0
  6  1  1  0  0  0  0
  6  5  1  0  0  0  0
  9  3  1  0  0  0  0
 12  4  1  0  0  0  0
 13  5  1  0  0  0  0
 16 19  1  6  0  0  0
 16 18  1  0  0  0  0
 16 17  1  0  0  0  0
 17 20  1  0  0  0  0
 17 21  1  0  0  0  0
 18 22  1  6  0  0  0
 18  1  1  0  0  0  0
 18 17  1  0  0  0  0
 23 24  1  0  0  0  0
 24 25  2  0  0  0  0
 24 16  1  0  0  0  0
 25 30  1  0  0  0  0
 26 25  1  0  0  0  0
 27 26  2  0  0  0  0
 28 27  1  0  0  0  0
 28 23  2  0  0  0  0
 29 23  1  0  0  0  0
 31 27  1  0  0  0  0
 32  6  1  0  0  0  0
 32 33  1  0  0  0  0
 34 35  1  0  0  0  0
 34 32  1  0  0  0  0
 35 36  1  0  0  0  0
 37 35  2  0  0  0  0
 38 37  1  0  0  0  0
 39 38  1  0  0  0  0
 40 38  2  0  0  0  0
 40 42  1  0  0  0  0
 41 40  1  0  0  0  0
 42 34  2  0  0  0  0
M  END
>  <minimizedAffinity>
-5.30606604

$$$$

 OpenBabel03252506483D

 42 45  0  0  1  0  0  0  0  0999 V2000
   37.4560   30.4060   38.9250 N   0  0  1  0  0  0  0  0  0  0  0  0
   38.7160   30.8840   38.4190 C   0  0  0  0  0  0  0  0  0  0  0  0
   39.4740   31.7230   39.4070 C   0  0  0  0  0  0  0  0  0  0  0  0
   38.7140   33.0130   39.6300 C   0  0  0  0  0  0  0  0  0  0  0  0
   37.2280   32.7610   39.6260 C   0  0  0  0  0  0  0  0  0  0  0  0
   36.9610   31.2970   39.9470 C   0  0  2  0  0  0  0  0  0  0  0  0
   38.5830   31.5040   37.4930 H   0  0  0  0  0  0  0  0  0  0  0  0
   39.3460   29.9940   38.2030 H   0  0  0  0  0  0  0  0  0  0  0  0
   39.7450   31.1920   40.3210 H   0  0  0  0  0  0  0  0  0  0  0  0
   40.4250   32.0060   38.8830 H   0  0  0  0  0  0  0  0  0  0  0  0
   39.0350   33.8270   38.9590 H   0  0  0  0  0  0  0  0  0  0  0  0
   38.9700   33.3260   40.6750 H   0  0  0  0  0  0  0  0  0  0  0  0
   36.7080   33.3460   40.4060 H   0  0  0  0  0  0  0  0  0  0  0  0
   36.8220   33.0230   38.6490 H   0  0  0  0  0  0  0  0  0  0  0  0
   35.8500   31.1940   39.9430 H   0  0  0  0  0  0  0  0  0  0  0  0
   35.8870   28.9310   37.4990 C   0  0  1  0  0  0  0  0  0  0  0  0
   37.0810   29.2970   36.7470 C   0  0  0  0  0  0  0  0  0  0  0  0
   36.5930   30.2320   37.8070 C   0  0  2  0  0  0  0  0  0  0  0  0
   35.8960   28.2510   38.3830 H   0  0  0  0  0  0  0  0  0  0  0  0
   36.9210   29.5650   35.6670 H   0  0  0  0  0  0  0  0  0  0  0  0
   37.9880   28.6930   36.9110 H   0  0  0  0  0  0  0  0  0  0  0  0
   36.0400   31.1330   37.4700 H   0  0  0  0  0  0  0  0  0  0  0  0
   34.4300   29.0660   35.4570 C   0  0  0  0  0  0  0  0  0  0  0  0
   34.5440   28.9840   36.8670 C   0  0  0  0  0  0  0  0  0  0  0  0
   33.3760   28.9610   37.6240 C   0  0  0  0  0  0  0  0  0  0  0  0
   32.2020   29.0190   36.9620 N   0  0  0  0  0  0  0  0  0  0  0  0
   32.1100   29.0960   35.6250 C   0  0  0  0  0  0  0  0  0  0  0  0
   33.2210   29.1200   34.8540 N   0  0  0  0  0  0  0  0  0  0  0  0
   35.3550   29.0820   34.8950 H   0  0  0  0  0  0  0  0  0  0  0  0
   33.4300   28.9000   38.6930 H   0  0  0  0  0  0  0  0  0  0  0  0
   31.1210   29.1390   35.1770 H   0  0  0  0  0  0  0  0  0  0  0  0
   37.4240   31.0180   41.2660 N   0  0  0  0  0  0  0  0  0  0  0  0
   37.7280   31.8370   41.8770 H   0  0  0  0  0  0  0  0  0  0  0  0
   37.5370   29.7490   41.8910 C   0  0  0  0  0  0  0  0  0  0  0  0
   36.5930   28.7620   41.8540 C   0  0  0  0  0  0  0  0  0  0  0  0
   35.6790   28.9260   41.3110 H   0  0  0  0  0  0  0  0  0  0  0  0
   36.6950   27.5410   42.4580 C   0  0  0  0  0  3  0  0  0  0  0  0
   37.8240   27.2420   43.1700 C   0  0  0  0  0  0  0  0  0  0  0  0
   37.9670   26.3060   43.6640 H   0  0  0  0  0  0  0  0  0  0  0  0
   38.8070   28.1820   43.2470 C   0  0  0  0  0  0  0  0  0  0  0  0
   39.7080   27.9540   43.8100 H   0  0  0  0  0  0  0  0  0  0  0  0
   38.6530   29.3930   42.6220 C   0  0  0  0  0  3  0  0  0  0  0  0
  1  2  1  6  0  0  0
  1  6  1  0  0  0  0
  2  3  1  0  0  0  0
  3  4  1  0  0  0  0
  3  9  1  0  0  0  0
  4 12  1  0  0  0  0
  5  4  1  0  0  0  0
  5  6  1  0  0  0  0
  5 13  1  0  0  0  0
  6 15  1  1  0  0  0
  6 32  1  0  0  0  0
  7  2  1  0  0  0  0
  8  2  1  0  0  0  0
 10  3  1  0  0  0  0
 11  4  1  0  0  0  0
 14  5  1  0  0  0  0
 16 18  1  0  0  0  0
 16 19  1  1  0  0  0
 17 21  1  0  0  0  0
 17 16  1  0  0  0  0
 17 18  1  0  0  0  0
 18 22  1  6  0  0  0
 18  1  1  0  0  0  0
 20 17  1  0  0  0  0
 23 24  1  0  0  0  0
 24 16  1  0  0  0  0
 24 25  2  0  0  0  0
 25 30  1  0  0  0  0
 26 25  1  0  0  0  0
 27 26  2  0  0  0  0
 28 23  2  0  0  0  0
 28 27  1  0  0  0  0
 29 23  1  0  0  0  0
 31 27  1  0  0  0  0
 32 33  1  0  0  0  0
 32 34  1  0  0  0  0
 34 42  1  0  0  0  0
 35 34  2  0  0  0  0
 35 37  1  0  0  0  0
 36 35  1  0  0  0  0
 37 38  2  0  0  0  0
 38 40  1  0  0  0  0
 38 39  1  0  0  0  0
 40 41  1  0  0  0  0
 42 40  2  0  0  0  0
M  END
>  <minimizedAffinity>
-5.17556238

$$$$

 OpenBabel03252506483D

 42 45  0  0  1  0  0  0  0  0999 V2000
   38.9430   27.0860   41.9540 N   0  0  1  0  0  0  0  0  0  0  0  0
   38.1180   26.0450   42.5070 C   0  0  0  0  0  0  0  0  0  0  0  0
   36.6730   26.4350   42.6320 C   0  0  0  0  0  0  0  0  0  0  0  0
   36.5550   27.5210   43.6790 C   0  0  0  0  0  0  0  0  0  0  0  0
   37.7320   28.4610   43.6050 C   0  0  0  0  0  0  0  0  0  0  0  0
   38.3590   28.3780   42.2210 C   0  0  2  0  0  0  0  0  0  0  0  0
   38.4660   25.7370   43.5280 H   0  0  0  0  0  0  0  0  0  0  0  0
   38.1580   25.1820   41.8060 H   0  0  0  0  0  0  0  0  0  0  0  0
   36.1950   26.6680   41.6790 H   0  0  0  0  0  0  0  0  0  0  0  0
   36.1610   25.5320   43.0570 H   0  0  0  0  0  0  0  0  0  0  0  0
   36.3540   27.1300   44.6900 H   0  0  0  0  0  0  0  0  0  0  0  0
   35.6610   28.1240   43.3750 H   0  0  0  0  0  0  0  0  0  0  0  0
   37.4270   29.5150   43.7410 H   0  0  0  0  0  0  0  0  0  0  0  0
   38.4540   28.1920   44.3740 H   0  0  0  0  0  0  0  0  0  0  0  0
   39.2030   29.1080   42.2380 H   0  0  0  0  0  0  0  0  0  0  0  0
   40.9790   25.5700   42.4380 C   0  0  1  0  0  0  0  0  0  0  0  0
   40.3640   26.0270   43.6790 C   0  0  0  0  0  0  0  0  0  0  0  0
   40.2560   26.8990   42.4690 C   0  0  2  0  0  0  0  0  0  0  0  0
   40.4900   24.8640   41.7270 H   0  0  0  0  0  0  0  0  0  0  0  0
   41.0710   26.3190   44.5020 H   0  0  0  0  0  0  0  0  0  0  0  0
   39.4860   25.4690   44.0440 H   0  0  0  0  0  0  0  0  0  0  0  0
   40.9320   27.7770   42.4190 H   0  0  0  0  0  0  0  0  0  0  0  0
   43.2900   25.6080   43.4210 C   0  0  0  0  0  0  0  0  0  0  0  0
   42.4550   25.5690   42.2770 C   0  0  0  0  0  0  0  0  0  0  0  0
   43.0560   25.5360   41.0220 C   0  0  0  0  0  0  0  0  0  0  0  0
   44.4040   25.5430   40.9740 N   0  0  0  0  0  0  0  0  0  0  0  0
   45.1830   25.5790   42.0680 C   0  0  0  0  0  0  0  0  0  0  0  0
   44.6380   25.6120   43.3050 N   0  0  0  0  0  0  0  0  0  0  0  0
   42.7960   25.6340   44.3840 H   0  0  0  0  0  0  0  0  0  0  0  0
   42.4500   25.5060   40.1380 H   0  0  0  0  0  0  0  0  0  0  0  0
   46.2600   25.5820   41.9350 H   0  0  0  0  0  0  0  0  0  0  0  0
   37.4130   28.8240   41.2520 N   0  0  0  0  0  0  0  0  0  0  0  0
   36.5750   28.1990   41.0420 H   0  0  0  0  0  0  0  0  0  0  0  0
   37.4440   30.0300   40.5060 C   0  0  0  0  0  0  0  0  0  0  0  0
   36.9690   30.1860   39.2340 C   0  0  0  0  0  0  0  0  0  0  0  0
   36.5240   29.3450   38.7310 H   0  0  0  0  0  0  0  0  0  0  0  0
   37.0010   31.3440   38.5090 C   0  0  0  0  0  3  0  0  0  0  0  0
   37.5460   32.4650   39.0690 C   0  0  0  0  0  0  0  0  0  0  0  0
   37.6010   33.4010   38.5570 H   0  0  0  0  0  0  0  0  0  0  0  0
   38.0390   32.3810   40.3370 C   0  0  0  0  0  0  0  0  0  0  0  0
   38.4740   33.2670   40.7900 H   0  0  0  0  0  0  0  0  0  0  0  0
   37.9820   31.1930   41.0200 C   0  0  0  0  0  3  0  0  0  0  0  0
  1  6  1  0  0  0  0
  1 18  1  0  0  0  0
  1  2  1  1  0  0  0
  2  3  1  0  0  0  0
  2  7  1  0  0  0  0
  3 10  1  0  0  0  0
  3  4  1  0  0  0  0
  4 11  1  0  0  0  0
  5  4  1  0  0  0  0
  5 13  1  0  0  0  0
  5 14  1  0  0  0  0
  6 15  1  6  0  0  0
  6  5  1  0  0  0  0
  8  2  1  0  0  0  0
  9  3  1  0  0  0  0
 12  4  1  0  0  0  0
 16 19  1  6  0  0  0
 16 18  1  0  0  0  0
 16 17  1  0  0  0  0
 17 21  1  0  0  0  0
 17 20  1  0  0  0  0
 18 22  1  6  0  0  0
 18 17  1  0  0  0  0
 23 29  1  0  0  0  0
 24 16  1  0  0  0  0
 24 23  2  0  0  0  0
 25 24  1  0  0  0  0
 26 25  2  0  0  0  0
 26 27  1  0  0  0  0
 27 28  2  0  0  0  0
 28 23  1  0  0  0  0
 30 25  1  0  0  0  0
 31 27  1  0  0  0  0
 32  6  1  0  0  0  0
 33 32  1  0  0  0  0
 34 42  1  0  0  0  0
 34 32  1  0  0  0  0
 35 34  2  0  0  0  0
 36 35  1  0  0  0  0
 37 38  2  0  0  0  0
 37 35  1  0  0  0  0
 38 40  1  0  0  0  0
 39 38  1  0  0  0  0
 40 41  1  0  0  0  0
 40 42  2  0  0  0  0
M  END
>  <minimizedAffinity>
-5.15506649

$$$$

 OpenBabel03252506483D

 42 45  0  0  1  0  0  0  0  0999 V2000
   37.8390   31.4850   39.5750 N   0  0  1  0  0  0  0  0  0  0  0  0
   36.9730   32.5820   39.9140 C   0  0  0  0  0  0  0  0  0  0  0  0
   37.5650   33.9260   39.6000 C   0  0  0  0  0  0  0  0  0  0  0  0
   38.7450   34.1610   40.5180 C   0  0  0  0  0  0  0  0  0  0  0  0
   39.5060   32.8790   40.7430 C   0  0  0  0  0  0  0  0  0  0  0  0
   39.2180   31.9120   39.6040 C   0  0  2  0  0  0  0  0  0  0  0  0
   36.7120   32.5840   41.0050 H   0  0  0  0  0  0  0  0  0  0  0  0
   36.0540   32.4840   39.2950 H   0  0  0  0  0  0  0  0  0  0  0  0
   37.7760   34.0780   38.5400 H   0  0  0  0  0  0  0  0  0  0  0  0
   36.7800   34.6700   39.9000 H   0  0  0  0  0  0  0  0  0  0  0  0
   38.4740   34.6930   41.4450 H   0  0  0  0  0  0  0  0  0  0  0  0
   39.4340   34.8300   39.9420 H   0  0  0  0  0  0  0  0  0  0  0  0
   40.5990   33.0420   40.7380 H   0  0  0  0  0  0  0  0  0  0  0  0
   39.2100   32.4500   41.7000 H   0  0  0  0  0  0  0  0  0  0  0  0
   39.8240   31.0040   39.8310 H   0  0  0  0  0  0  0  0  0  0  0  0
   36.4890   29.3540   40.1360 C   0  0  1  0  0  0  0  0  0  0  0  0
   36.1500   30.4390   41.0480 C   0  0  0  0  0  0  0  0  0  0  0  0
   37.5220   30.4120   40.4550 C   0  0  2  0  0  0  0  0  0  0  0  0
   36.2370   29.3560   39.0500 H   0  0  0  0  0  0  0  0  0  0  0  0
   36.0150   30.1540   42.1270 H   0  0  0  0  0  0  0  0  0  0  0  0
   35.4080   31.1780   40.7030 H   0  0  0  0  0  0  0  0  0  0  0  0
   38.3460   30.0520   41.1060 H   0  0  0  0  0  0  0  0  0  0  0  0
   36.7420   26.8870   39.7360 C   0  0  0  0  0  0  0  0  0  0  0  0
   36.7060   27.9750   40.6430 C   0  0  0  0  0  0  0  0  0  0  0  0
   36.8730   27.7110   41.9990 C   0  0  0  0  0  0  0  0  0  0  0  0
   37.0590   26.4260   42.3660 N   0  0  0  0  0  0  0  0  0  0  0  0
   37.0910   25.4040   41.4950 C   0  0  0  0  0  0  0  0  0  0  0  0
   36.9340   25.6200   40.1690 N   0  0  0  0  0  0  0  0  0  0  0  0
   36.6090   27.1230   38.6880 H   0  0  0  0  0  0  0  0  0  0  0  0
   36.8510   28.5130   42.7090 H   0  0  0  0  0  0  0  0  0  0  0  0
   37.2470   24.4020   41.8800 H   0  0  0  0  0  0  0  0  0  0  0  0
   39.7010   32.4700   38.3850 N   0  0  0  0  0  0  0  0  0  0  0  0
   38.9890   32.7440   37.6390 H   0  0  0  0  0  0  0  0  0  0  0  0
   41.0510   32.7150   38.0220 C   0  0  0  0  0  0  0  0  0  0  0  0
   41.6890   33.9190   38.1160 C   0  0  0  0  0  0  0  0  0  0  0  0
   41.1550   34.7710   38.4980 H   0  0  0  0  0  0  0  0  0  0  0  0
   42.9870   34.1610   37.7630 C   0  0  0  0  0  3  0  0  0  0  0  0
   43.7450   33.1350   37.2710 C   0  0  0  0  0  0  0  0  0  0  0  0
   44.7660   33.2570   36.9780 H   0  0  0  0  0  0  0  0  0  0  0  0
   43.1710   31.9060   37.1510 C   0  0  0  0  0  0  0  0  0  0  0  0
   43.7660   31.0840   36.7610 H   0  0  0  0  0  0  0  0  0  0  0  0
   41.8640   31.7180   37.5200 C   0  0  0  0  0  3  0  0  0  0  0  0
  1  6  1  0  0  0  0
  1  2  1  1  0  0  0
  1 18  1  0  0  0  0
  2  7  1  0  0  0  0
  3 10  1  0  0  0  0
  3  2  1  0  0  0  0
  3  4  1  0  0  0  0
  4  5  1  0  0  0  0
  4 11  1  0  0  0  0
  5 14  1  0  0  0  0
  6 15  1  1  0  0  0
  6  5  1  0  0  0  0
  8  2  1  0  0  0  0
  9  3  1  0  0  0  0
 12  4  1  0  0  0  0
 13  5  1  0  0  0  0
 16 19  1  6  0  0  0
 16 18  1  0  0  0  0
 16 24  1  0  0  0  0
 16 17  1  0  0  0  0
 17 20  1  0  0  0  0
 18 17  1  0  0  0  0
 18 22  1  1  0  0  0
 21 17  1  0  0  0  0
 23 28  2  0  0  0  0
 23 24  1  0  0  0  0
 24 25  2  0  0  0  0
 25 26  1  0  0  0  0
 25 30  1  0  0  0  0
 27 31  1  0  0  0  0
 27 26  2  0  0  0  0
 28 27  1  0  0  0  0
 29 23  1  0  0  0  0
 32  6  1  0  0  0  0
 33 32  1  0  0  0  0
 34 35  1  0  0  0  0
 34 32  1  0  0  0  0
 35 36  1  0  0  0  0
 37 35  2  0  0  0  0
 38 37  1  0  0  0  0
 39 38  1  0  0  0  0
 40 38  2  0  0  0  0
 40 42  1  0  0  0  0
 41 40  1  0  0  0  0
 42 34  2  0  0  0  0
M  END
>  <minimizedAffinity>
-5.13630247

$$$$

 OpenBabel03252506483D

 42 45  0  0  1  0  0  0  0  0999 V2000
   37.5950   30.0180   40.4570 N   0  0  1  0  0  0  0  0  0  0  0  0
   37.6340   31.3250   41.0570 C   0  0  0  0  0  0  0  0  0  0  0  0
   37.6250   32.4410   40.0520 C   0  0  0  0  0  0  0  0  0  0  0  0
   38.9270   32.4090   39.2820 C   0  0  0  0  0  0  0  0  0  0  0  0
   39.3630   30.9870   39.0350 C   0  0  0  0  0  0  0  0  0  0  0  0
   38.1560   30.0640   39.1280 C   0  0  2  0  0  0  0  0  0  0  0  0
   38.5470   31.4620   41.6940 H   0  0  0  0  0  0  0  0  0  0  0  0
   36.7120   31.4370   41.6690 H   0  0  0  0  0  0  0  0  0  0  0  0
   36.7290   32.4670   39.4290 H   0  0  0  0  0  0  0  0  0  0  0  0
   37.6430   33.3830   40.6610 H   0  0  0  0  0  0  0  0  0  0  0  0
   39.7090   33.0490   39.7240 H   0  0  0  0  0  0  0  0  0  0  0  0
   38.6820   32.8340   38.2750 H   0  0  0  0  0  0  0  0  0  0  0  0
   39.7750   30.8520   38.0180 H   0  0  0  0  0  0  0  0  0  0  0  0
   40.1190   30.7110   39.7690 H   0  0  0  0  0  0  0  0  0  0  0  0
   38.5520   29.0420   38.9180 H   0  0  0  0  0  0  0  0  0  0  0  0
   37.5110   28.0510   42.1310 C   0  0  1  0  0  0  0  0  0  0  0  0
   37.8980   29.2870   42.8000 C   0  0  0  0  0  0  0  0  0  0  0  0
   38.2430   29.1240   41.3550 C   0  0  2  0  0  0  0  0  0  0  0  0
   36.4970   27.8690   41.7040 H   0  0  0  0  0  0  0  0  0  0  0  0
   38.7110   29.1990   43.5700 H   0  0  0  0  0  0  0  0  0  0  0  0
   37.0890   29.9720   43.1060 H   0  0  0  0  0  0  0  0  0  0  0  0
   39.2940   28.8630   41.1130 H   0  0  0  0  0  0  0  0  0  0  0  0
   39.2420   26.7450   43.3980 C   0  0  0  0  0  0  0  0  0  0  0  0
   38.2180   26.7780   42.4200 C   0  0  0  0  0  0  0  0  0  0  0  0
   37.9060   25.5980   41.7490 C   0  0  0  0  0  0  0  0  0  0  0  0
   38.6050   24.4910   42.0760 N   0  0  0  0  0  0  0  0  0  0  0  0
   39.5740   24.4750   43.0060 C   0  0  0  0  0  0  0  0  0  0  0  0
   39.9050   25.6000   43.6800 N   0  0  0  0  0  0  0  0  0  0  0  0
   39.4620   27.6760   43.9030 H   0  0  0  0  0  0  0  0  0  0  0  0
   37.1360   25.5920   41.0040 H   0  0  0  0  0  0  0  0  0  0  0  0
   40.0840   23.5380   43.2040 H   0  0  0  0  0  0  0  0  0  0  0  0
   37.2330   30.3980   38.0950 N   0  0  0  0  0  0  0  0  0  0  0  0
   37.3920   31.3020   37.5500 H   0  0  0  0  0  0  0  0  0  0  0  0
   36.0920   29.6620   37.6840 C   0  0  0  0  0  0  0  0  0  0  0  0
   35.0780   29.2520   38.5040 C   0  0  0  0  0  0  0  0  0  0  0  0
   35.1150   29.4960   39.5510 H   0  0  0  0  0  0  0  0  0  0  0  0
   33.9790   28.5390   38.1140 C   0  0  0  0  0  3  0  0  0  0  0  0
   33.8460   28.1860   36.8010 C   0  0  0  0  0  0  0  0  0  0  0  0
   33.0110   27.6300   36.4310 H   0  0  0  0  0  0  0  0  0  0  0  0
   34.8210   28.5630   35.9270 C   0  0  0  0  0  0  0  0  0  0  0  0
   34.7240   28.2880   34.8810 H   0  0  0  0  0  0  0  0  0  0  0  0
   35.9040   29.2780   36.3710 C   0  0  0  0  0  3  0  0  0  0  0  0
  1  2  1  1  0  0  0
  1 18  1  0  0  0  0
  2  8  1  0  0  0  0
  2  7  1  0  0  0  0
  3 10  1  0  0  0  0
  3  2  1  0  0  0  0
  4 11  1  0  0  0  0
  4  3  1  0  0  0  0
  5  6  1  0  0  0  0
  5  4  1  0  0  0  0
  5 14  1  0  0  0  0
  6 15  1  6  0  0  0
  6  1  1  0  0  0  0
  9  3  1  0  0  0  0
 12  4  1  0  0  0  0
 13  5  1  0  0  0  0
 16 19  1  6  0  0  0
 16 24  1  0  0  0  0
 16 17  1  0  0  0  0
 17 21  1  0  0  0  0
 17 20  1  0  0  0  0
 18 22  1  6  0  0  0
 18 16  1  0  0  0  0
 18 17  1  0  0  0  0
 23 28  1  0  0  0  0
 23 29  1  0  0  0  0
 24 23  2  0  0  0  0
 25 26  2  0  0  0  0
 25 24  1  0  0  0  0
 26 27  1  0  0  0  0
 27 31  1  0  0  0  0
 27 28  2  0  0  0  0
 30 25  1  0  0  0  0
 32  6  1  0  0  0  0
 33 32  1  0  0  0  0
 34 32  1  0  0  0  0
 34 35  1  0  0  0  0
 35 36  1  0  0  0  0
 37 35  2  0  0  0  0
 38 37  1  0  0  0  0
 39 38  1  0  0  0  0
 40 42  1  0  0  0  0
 40 38  2  0  0  0  0
 41 40  1  0  0  0  0
 42 34  2  0  0  0  0
M  END
>  <minimizedAffinity>
-5.13565874

$$$$

 OpenBabel03252506483D

 42 45  0  0  1  0  0  0  0  0999 V2000
   34.6290   29.0320   37.0770 N   0  0  1  0  0  0  0  0  0  0  0  0
   35.2390   28.9000   35.7810 C   0  0  0  0  0  0  0  0  0  0  0  0
   34.3770   28.1700   34.7900 C   0  0  0  0  0  0  0  0  0  0  0  0
   34.2540   26.7270   35.2290 C   0  0  0  0  0  0  0  0  0  0  0  0
   34.1630   26.6350   36.7310 C   0  0  0  0  0  0  0  0  0  0  0  0
   33.6820   27.9650   37.2920 C   0  0  2  0  0  0  0  0  0  0  0  0
   36.2160   28.3520   35.8360 H   0  0  0  0  0  0  0  0  0  0  0  0
   35.3900   29.9260   35.3790 H   0  0  0  0  0  0  0  0  0  0  0  0
   33.4270   28.6660   34.5820 H   0  0  0  0  0  0  0  0  0  0  0  0
   34.9710   28.1600   33.8380 H   0  0  0  0  0  0  0  0  0  0  0  0
   35.0180   26.0710   34.7820 H   0  0  0  0  0  0  0  0  0  0  0  0
   33.2580   26.3890   34.8400 H   0  0  0  0  0  0  0  0  0  0  0  0
   33.4240   25.8790   37.0540 H   0  0  0  0  0  0  0  0  0  0  0  0
   35.1420   26.3760   37.1330 H   0  0  0  0  0  0  0  0  0  0  0  0
   33.6240   27.8130   38.3960 H   0  0  0  0  0  0  0  0  0  0  0  0
   35.6730   30.0590   39.2060 C   0  0  1  0  0  0  0  0  0  0  0  0
   36.4760   30.3730   38.0300 C   0  0  0  0  0  0  0  0  0  0  0  0
   35.6820   29.1060   38.0320 C   0  0  2  0  0  0  0  0  0  0  0  0
   34.6500   30.4650   39.3850 H   0  0  0  0  0  0  0  0  0  0  0  0
   37.5900   30.3190   38.1640 H   0  0  0  0  0  0  0  0  0  0  0  0
   36.1580   31.2290   37.4130 H   0  0  0  0  0  0  0  0  0  0  0  0
   36.2360   28.1630   38.2240 H   0  0  0  0  0  0  0  0  0  0  0  0
   35.8690   28.4580   41.1320 C   0  0  0  0  0  0  0  0  0  0  0  0
   36.3170   29.6290   40.4730 C   0  0  0  0  0  0  0  0  0  0  0  0
   37.3600   30.3520   41.0470 C   0  0  0  0  0  0  0  0  0  0  0  0
   37.8800   29.8870   42.2020 N   0  0  0  0  0  0  0  0  0  0  0  0
   37.4440   28.7740   42.8150 C   0  0  0  0  0  0  0  0  0  0  0  0
   36.4340   28.0450   42.2890 N   0  0  0  0  0  0  0  0  0  0  0  0
   35.0570   27.9170   40.6630 H   0  0  0  0  0  0  0  0  0  0  0  0
   37.7220   31.2420   40.5720 H   0  0  0  0  0  0  0  0  0  0  0  0
   37.9220   28.4750   43.7420 H   0  0  0  0  0  0  0  0  0  0  0  0
   32.3640   28.2230   36.8150 N   0  0  0  0  0  0  0  0  0  0  0  0
   31.8350   27.4260   36.3420 H   0  0  0  0  0  0  0  0  0  0  0  0
   31.6410   29.4420   36.8880 C   0  0  0  0  0  0  0  0  0  0  0  0
   30.9610   29.8940   37.9830 C   0  0  0  0  0  0  0  0  0  0  0  0
   30.9570   29.3030   38.8830 H   0  0  0  0  0  0  0  0  0  0  0  0
   30.2600   31.0640   38.0570 C   0  0  0  0  0  3  0  0  0  0  0  0
   30.2120   31.8820   36.9630 C   0  0  0  0  0  0  0  0  0  0  0  0
   29.6840   32.8100   36.9550 H   0  0  0  0  0  0  0  0  0  0  0  0
   30.8700   31.4920   35.8350 C   0  0  0  0  0  0  0  0  0  0  0  0
   30.8390   32.1360   34.9600 H   0  0  0  0  0  0  0  0  0  0  0  0
   31.5590   30.3070   35.8140 C   0  0  0  0  0  3  0  0  0  0  0  0
  1  2  1  6  0  0  0
  1  6  1  0  0  0  0
  1 18  1  0  0  0  0
  2  7  1  0  0  0  0
  3  4  1  0  0  0  0
  3  2  1  0  0  0  0
  4  5  1  0  0  0  0
  5 13  1  0  0  0  0
  5 14  1  0  0  0  0
  5  6  1  0  0  0  0
  6 15  1  1  0  0  0
  8  2  1  0  0  0  0
  9  3  1  0  0  0  0
 10  3  1  0  0  0  0
 11  4  1  0  0  0  0
 12  4  1  0  0  0  0
 16 19  1  1  0  0  0
 16 24  1  0  0  0  0
 17 18  1  0  0  0  0
 17 20  1  0  0  0  0
 17 16  1  0  0  0  0
 18 22  1  1  0  0  0
 18 16  1  0  0  0  0
 21 17  1  0  0  0  0
 23 28  1  0  0  0  0
 24 25  1  0  0  0  0
 24 23  2  0  0  0  0
 25 26  2  0  0  0  0
 26 27  1  0  0  0  0
 27 31  1  0  0  0  0
 28 27  2  0  0  0  0
 29 23  1  0  0  0  0
 30 25  1  0  0  0  0
 32 34  1  0  0  0  0
 32  6  1  0  0  0  0
 33 32  1  0  0  0  0
 34 35  1  0  0  0  0
 35 37  2  0  0  0  0
 35 36  1  0  0  0  0
 38 37  1  0  0  0  0
 39 38  1  0  0  0  0
 40 38  2  0  0  0  0
 41 40  1  0  0  0  0
 42 40  1  0  0  0  0
 42 34  2  0  0  0  0
M  END
>  <minimizedAffinity>
-5.0797286

$$$$

 OpenBabel03252506483D

 42 45  0  0  1  0  0  0  0  0999 V2000
   36.1890   29.0300   39.3240 N   0  0  1  0  0  0  0  0  0  0  0  0
   34.8350   29.2460   38.8880 C   0  0  0  0  0  0  0  0  0  0  0  0
   34.3410   28.1900   37.9400 C   0  0  0  0  0  0  0  0  0  0  0  0
   35.1120   28.3070   36.6430 C   0  0  0  0  0  0  0  0  0  0  0  0
   36.5520   28.6640   36.9110 C   0  0  0  0  0  0  0  0  0  0  0  0
   36.9140   28.2690   38.3350 C   0  0  2  0  0  0  0  0  0  0  0  0
   34.7170   30.2340   38.3710 H   0  0  0  0  0  0  0  0  0  0  0  0
   34.1840   29.1970   39.7880 H   0  0  0  0  0  0  0  0  0  0  0  0
   34.3210   27.1870   38.3680 H   0  0  0  0  0  0  0  0  0  0  0  0
   33.2830   28.4810   37.7030 H   0  0  0  0  0  0  0  0  0  0  0  0
   34.6180   28.9550   35.9010 H   0  0  0  0  0  0  0  0  0  0  0  0
   35.1270   27.2700   36.2180 H   0  0  0  0  0  0  0  0  0  0  0  0
   37.2440   28.1090   36.2530 H   0  0  0  0  0  0  0  0  0  0  0  0
   36.6900   29.7340   36.7590 H   0  0  0  0  0  0  0  0  0  0  0  0
   37.9890   28.5460   38.4510 H   0  0  0  0  0  0  0  0  0  0  0  0
   37.6750   30.5530   40.7900 C   0  0  1  0  0  0  0  0  0  0  0  0
   36.2720   30.9350   40.8990 C   0  0  0  0  0  0  0  0  0  0  0  0
   36.7400   30.3070   39.6260 C   0  0  2  0  0  0  0  0  0  0  0  0
   38.0880   29.5950   41.1810 H   0  0  0  0  0  0  0  0  0  0  0  0
   36.0600   32.0380   40.9190 H   0  0  0  0  0  0  0  0  0  0  0  0
   35.6450   30.3640   41.6050 H   0  0  0  0  0  0  0  0  0  0  0  0
   36.9120   30.9830   38.7630 H   0  0  0  0  0  0  0  0  0  0  0  0
   40.0790   31.1910   40.4410 C   0  0  0  0  0  0  0  0  0  0  0  0
   38.7330   31.5840   40.6440 C   0  0  0  0  0  0  0  0  0  0  0  0
   38.4440   32.9450   40.7050 C   0  0  0  0  0  0  0  0  0  0  0  0
   39.4730   33.8080   40.5670 N   0  0  0  0  0  0  0  0  0  0  0  0
   40.7440   33.4200   40.3750 C   0  0  0  0  0  0  0  0  0  0  0  0
   41.0650   32.1080   40.3090 N   0  0  0  0  0  0  0  0  0  0  0  0
   40.2730   30.1270   40.3980 H   0  0  0  0  0  0  0  0  0  0  0  0
   37.4360   33.2740   40.8580 H   0  0  0  0  0  0  0  0  0  0  0  0
   41.5070   34.1850   40.2740 H   0  0  0  0  0  0  0  0  0  0  0  0
   36.8090   26.8540   38.4680 N   0  0  0  0  0  0  0  0  0  0  0  0
   36.6730   26.2740   37.5830 H   0  0  0  0  0  0  0  0  0  0  0  0
   36.8610   26.0920   39.6640 C   0  0  0  0  0  0  0  0  0  0  0  0
   37.3770   26.5210   40.8540 C   0  0  0  0  0  0  0  0  0  0  0  0
   37.7810   27.5160   40.9250 H   0  0  0  0  0  0  0  0  0  0  0  0
   37.4330   25.7890   42.0070 C   0  0  0  0  0  3  0  0  0  0  0  0
   36.9410   24.5150   42.0110 C   0  0  0  0  0  0  0  0  0  0  0  0
   36.9530   23.8910   42.8780 H   0  0  0  0  0  0  0  0  0  0  0  0
   36.4090   24.0220   40.8570 C   0  0  0  0  0  0  0  0  0  0  0  0
   36.0140   23.0100   40.8510 H   0  0  0  0  0  0  0  0  0  0  0  0
   36.3780   24.7990   39.7270 C   0  0  0  0  0  3  0  0  0  0  0  0
  1  2  1  6  0  0  0
  1 18  1  0  0  0  0
  2  8  1  0  0  0  0
  3  9  1  0  0  0  0
  3  2  1  0  0  0  0
  4  5  1  0  0  0  0
  4  3  1  0  0  0  0
  5  6  1  0  0  0  0
  6 15  1  1  0  0  0
  6 32  1  0  0  0  0
  6  1  1  0  0  0  0
  7  2  1  0  0  0  0
 10  3  1  0  0  0  0
 11  4  1  0  0  0  0
 12  4  1  0  0  0  0
 13  5  1  0  0  0  0
 14  5  1  0  0  0  0
 16 17  1  0  0  0  0
 16 19  1  1  0  0  0
 17 20  1  0  0  0  0
 17 21  1  0  0  0  0
 18 22  1  6  0  0  0
 18 16  1  0  0  0  0
 18 17  1  0  0  0  0
 23 24  1  0  0  0  0
 24 25  2  0  0  0  0
 24 16  1  0  0  0  0
 25 30  1  0  0  0  0
 26 25  1  0  0  0  0
 27 26  2  0  0  0  0
 28 27  1  0  0  0  0
 28 23  2  0  0  0  0
 29 23  1  0  0  0  0
 31 27  1  0  0  0  0
 32 34  1  0  0  0  0
 33 32  1  0  0  0  0
 34 42  2  0  0  0  0
 34 35  1  0  0  0  0
 35 36  1  0  0  0  0
 35 37  2  0  0  0  0
 37 38  1  0  0  0  0
 38 39  1  0  0  0  0
 40 38  2  0  0  0  0
 41 40  1  0  0  0  0
 42 40  1  0  0  0  0
M  END
>  <minimizedAffinity>
-4.94714212

$$$$

 OpenBabel03252506483D

 42 45  0  0  1  0  0  0  0  0999 V2000
   37.2480   29.3280   41.6030 N   0  0  1  0  0  0  0  0  0  0  0  0
   36.9220   28.3560   42.6130 C   0  0  0  0  0  0  0  0  0  0  0  0
   37.9840   28.2130   43.6650 C   0  0  0  0  0  0  0  0  0  0  0  0
   39.2150   27.6040   43.0280 C   0  0  0  0  0  0  0  0  0  0  0  0
   39.4070   28.1350   41.6300 C   0  0  0  0  0  0  0  0  0  0  0  0
   38.6800   29.4640   41.4880 C   0  0  2  0  0  0  0  0  0  0  0  0
   36.7540   27.3380   42.1720 H   0  0  0  0  0  0  0  0  0  0  0  0
   36.0040   28.7110   43.1310 H   0  0  0  0  0  0  0  0  0  0  0  0
   38.1700   29.1270   44.2320 H   0  0  0  0  0  0  0  0  0  0  0  0
   37.5870   27.4440   44.3790 H   0  0  0  0  0  0  0  0  0  0  0  0
   39.2430   26.5050   43.1000 H   0  0  0  0  0  0  0  0  0  0  0  0
   40.0770   27.9970   43.6260 H   0  0  0  0  0  0  0  0  0  0  0  0
   40.4700   28.3410   41.4090 H   0  0  0  0  0  0  0  0  0  0  0  0
   39.0250   27.4070   40.9150 H   0  0  0  0  0  0  0  0  0  0  0  0
   38.8820   29.7990   40.4430 H   0  0  0  0  0  0  0  0  0  0  0  0
   35.8010   29.8890   39.5370 C   0  0  1  0  0  0  0  0  0  0  0  0
   35.0890   28.9960   40.4430 C   0  0  0  0  0  0  0  0  0  0  0  0
   36.5820   28.9320   40.4090 C   0  0  2  0  0  0  0  0  0  0  0  0
   36.0510   30.9490   39.7810 H   0  0  0  0  0  0  0  0  0  0  0  0
   34.4950   28.1730   39.9600 H   0  0  0  0  0  0  0  0  0  0  0  0
   34.5700   29.4530   41.3020 H   0  0  0  0  0  0  0  0  0  0  0  0
   37.0380   28.0880   39.8500 H   0  0  0  0  0  0  0  0  0  0  0  0
   36.8580   30.1100   37.2700 C   0  0  0  0  0  0  0  0  0  0  0  0
   35.7800   29.6590   38.0710 C   0  0  0  0  0  0  0  0  0  0  0  0
   34.7200   29.0070   37.4460 C   0  0  0  0  0  0  0  0  0  0  0  0
   34.7880   28.8470   36.1070 N   0  0  0  0  0  0  0  0  0  0  0  0
   35.8160   29.2810   35.3610 C   0  0  0  0  0  0  0  0  0  0  0  0
   36.8650   29.9180   35.9310 N   0  0  0  0  0  0  0  0  0  0  0  0
   37.6680   30.6130   37.7830 H   0  0  0  0  0  0  0  0  0  0  0  0
   33.8910   28.6540   38.0250 H   0  0  0  0  0  0  0  0  0  0  0  0
   35.7860   29.1090   34.2900 H   0  0  0  0  0  0  0  0  0  0  0  0
   39.2680   30.4140   42.3740 N   0  0  0  0  0  0  0  0  0  0  0  0
   38.7810   30.6030   43.3040 H   0  0  0  0  0  0  0  0  0  0  0  0
   40.4540   31.1660   42.1710 C   0  0  0  0  0  0  0  0  0  0  0  0
   40.6510   32.0780   41.1730 C   0  0  0  0  0  0  0  0  0  0  0  0
   39.8600   32.2690   40.4690 H   0  0  0  0  0  0  0  0  0  0  0  0
   41.7930   32.8010   40.9710 C   0  0  0  0  0  3  0  0  0  0  0  0
   42.8500   32.6270   41.8180 C   0  0  0  0  0  0  0  0  0  0  0  0
   43.7700   33.1610   41.7160 H   0  0  0  0  0  0  0  0  0  0  0  0
   42.7220   31.7320   42.8380 C   0  0  0  0  0  0  0  0  0  0  0  0
   43.5570   31.5870   43.5170 H   0  0  0  0  0  0  0  0  0  0  0  0
   41.5530   31.0310   42.9960 C   0  0  0  0  0  3  0  0  0  0  0  0
  1  2  1  1  0  0  0
  2  8  1  0  0  0  0
  2  3  1  0  0  0  0
  3  9  1  0  0  0  0
  3 10  1  0  0  0  0
  4 11  1  0  0  0  0
  4 12  1  0  0  0  0
  4  3  1  0  0  0  0
  5  4  1  0  0  0  0
  6 15  1  6  0  0  0
  6  1  1  0  0  0  0
  6  5  1  0  0  0  0
  6 32  1  0  0  0  0
  7  2  1  0  0  0  0
 13  5  1  0  0  0  0
 14  5  1  0  0  0  0
 16 19  1  1  0  0  0
 16 18  1  0  0  0  0
 16 17  1  0  0  0  0
 17 21  1  0  0  0  0
 18 22  1  6  0  0  0
 18 17  1  0  0  0  0
 18  1  1  0  0  0  0
 20 17  1  0  0  0  0
 23 29  1  0  0  0  0
 23 24  1  0  0  0  0
 24 16  1  0  0  0  0
 25 30  1  0  0  0  0
 25 24  2  0  0  0  0
 26 25  1  0  0  0  0
 27 28  1  0  0  0  0
 27 26  2  0  0  0  0
 28 23  2  0  0  0  0
 31 27  1  0  0  0  0
 32 33  1  0  0  0  0
 34 32  1  0  0  0  0
 34 42  1  0  0  0  0
 35 34  2  0  0  0  0
 36 35  1  0  0  0  0
 37 35  1  0  0  0  0
 37 38  2  0  0  0  0
 38 40  1  0  0  0  0
 39 38  1  0  0  0  0
 40 42  2  0  0  0  0
 40 41  1  0  0  0  0
M  END
>  <minimizedAffinity>
-4.94575119

$$$$
