
 OpenBabel03252507103D

 36 38  0  0  1  0  0  0  0  0999 V2000
   44.5250   35.2490   45.7430 C   0  0  0  0  0  0  0  0  0  0  0  0
   44.4550   35.6650   44.4000 C   0  0  0  0  0  0  0  0  0  0  0  0
   45.2220   34.9550   43.4810 C   0  0  0  0  0  0  0  0  0  0  0  0
   45.9770   33.9300   43.9060 N   0  0  0  0  0  0  0  0  0  0  0  0
   46.0320   33.5490   45.1850 C   0  0  0  0  0  0  0  0  0  0  0  0
   45.2970   34.2160   46.1120 N   0  0  0  0  0  0  0  0  0  0  0  0
   43.9120   35.8270   46.4330 H   0  0  0  0  0  0  0  0  0  0  0  0
   43.8460   36.4850   44.0810 H   0  0  0  0  0  0  0  0  0  0  0  0
   46.8170   32.2650   47.1960 C   0  0  1  0  0  0  0  0  0  0  0  0
   46.8430   32.4480   45.7080 C   0  0  1  0  0  0  0  0  0  0  0  0
   46.2210   31.0950   45.2970 C   0  0  0  0  0  0  0  0  0  0  0  0
   46.5540   30.1880   46.2590 O   0  0  0  0  0  0  0  0  0  0  0  0
   47.3020   30.8150   47.2570 C   0  0  0  0  0  0  0  0  0  0  0  0
   45.7560   32.2340   47.5480 H   0  0  0  0  0  0  0  0  0  0  0  0
   47.9080   32.4710   45.3690 H   0  0  0  0  0  0  0  0  0  0  0  0
   46.7540   30.8150   44.3590 H   0  0  0  0  0  0  0  0  0  0  0  0
   45.1510   31.1930   45.0630 H   0  0  0  0  0  0  0  0  0  0  0  0
   47.0470   30.3320   48.2250 H   0  0  0  0  0  0  0  0  0  0  0  0
   48.3730   30.7250   47.0320 H   0  0  0  0  0  0  0  0  0  0  0  0
   47.5950   33.1440   47.8930 O   0  0  0  0  0  0  0  0  0  0  0  0
   47.0170   33.5560   48.5960 H   0  0  0  0  0  0  0  0  0  0  0  0
   45.1440   35.3720   42.1610 O   0  0  0  0  0  0  0  0  0  0  0  0
   44.7160   32.8390   41.4700 O   0  0  0  0  0  0  0  0  0  0  0  0
   45.1100   34.2040   40.8980 P   0  0  1  0  0  0  0  0  0  0  0  0
   44.0280   34.7090   39.7450 O   0  0  0  0  0  0  0  0  0  0  0  0
   43.3280   34.0010   39.5920 H   0  0  0  0  0  0  0  0  0  0  0  0
   46.6800   34.1080   40.2960 O   0  0  0  0  0  0  0  0  0  0  0  0
   47.8350   34.1370   41.0310 C   0  0  0  0  0  0  0  0  0  0  0  0
   48.5110   33.0420   41.5250 C   0  0  0  0  0  0  0  0  0  0  0  0
   48.0990   32.0660   41.3160 H   0  0  0  0  0  0  0  0  0  0  0  0
   49.6760   33.1230   42.2640 C   0  0  0  0  0  0  0  0  0  0  0  0
   50.2020   34.3760   42.5320 C   0  0  0  0  0  0  0  0  0  0  0  0
   51.1070   34.3990   43.1080 H   0  0  0  0  0  0  0  0  0  0  0  0
   49.5640   35.5090   42.0620 C   0  0  0  0  0  0  0  0  0  0  0  0
   50.0340   36.4360   42.3110 H   0  0  0  0  0  0  0  0  0  0  0  0
   48.3930   35.3720   41.3210 C   0  0  0  0  0  0  0  0  0  0  0  0
  1  6  1  0  0  0  0
  1  7  1  0  0  0  0
  2  1  2  0  0  0  0
  3  4  2  0  0  0  0
  3  2  1  0  0  0  0
  4  5  1  0  0  0  0
  5 10  1  0  0  0  0
  5  6  2  0  0  0  0
  8  2  1  0  0  0  0
  9 13  1  0  0  0  0
  9 14  1  1  0  0  0
  9 20  1  0  0  0  0
 10 15  1  6  0  0  0
 10  9  1  0  0  0  0
 11 10  1  0  0  0  0
 11 12  1  0  0  0  0
 12 13  1  0  0  0  0
 13 18  1  0  0  0  0
 16 11  1  0  0  0  0
 17 11  1  0  0  0  0
 19 13  1  0  0  0  0
 20 21  1  0  0  0  0
 22  3  1  0  0  0  0
 24 23  2  1  0  0  0
 24 22  1  0  0  0  0
 25 24  1  0  0  0  0
 26 25  1  0  0  0  0
 27 24  1  0  0  0  0
 27 28  1  0  0  0  0
 28 36  2  0  0  0  0
 28 29  1  0  0  0  0
 29 31  2  0  0  0  0
 30 29  1  0  0  0  0
 31 32  1  0  0  0  0
 32 33  1  0  0  0  0
 34 35  1  0  0  0  0
 34 32  2  0  0  0  0
 36 34  1  0  0  0  0
M  END
>  <minimizedAffinity>
-6.43285036

>  <minimizedRMSD>
2.77223086

$$$$
