
 OpenBabel03252506463D

 42 45  0  0  1  0  0  0  0  0999 V2000
   49.5430   33.4870   41.5250 N   0  0  1  0  0  0  0  0  0  0  0  0
   50.7490   33.2030   42.2560 C   0  0  0  0  0  0  0  0  0  0  0  0
   51.3680   31.8830   41.8940 C   0  0  0  0  0  0  0  0  0  0  0  0
   50.4490   30.7750   42.3610 C   0  0  0  0  0  0  0  0  0  0  0  0
   49.0050   31.1680   42.1730 C   0  0  0  0  0  0  0  0  0  0  0  0
   48.9100   32.2560   41.1130 C   0  0  2  0  0  0  0  0  0  0  0  0
   50.5710   33.1910   43.3630 H   0  0  0  0  0  0  0  0  0  0  0  0
   51.4910   33.9880   41.9900 H   0  0  0  0  0  0  0  0  0  0  0  0
   51.6730   31.8110   40.8480 H   0  0  0  0  0  0  0  0  0  0  0  0
   52.2930   31.8100   42.5240 H   0  0  0  0  0  0  0  0  0  0  0  0
   50.6880   30.4100   43.3730 H   0  0  0  0  0  0  0  0  0  0  0  0
   50.6310   29.9270   41.6510 H   0  0  0  0  0  0  0  0  0  0  0  0
   48.3930   30.3250   41.8020 H   0  0  0  0  0  0  0  0  0  0  0  0
   48.6020   31.5160   43.1230 H   0  0  0  0  0  0  0  0  0  0  0  0
   47.8210   32.4790   41.0190 H   0  0  0  0  0  0  0  0  0  0  0  0
   47.3100   34.6880   42.0210 C   0  0  1  0  0  0  0  0  0  0  0  0
   48.3700   35.6520   41.7530 C   0  0  0  0  0  0  0  0  0  0  0  0
   48.7430   34.3310   42.3450 C   0  0  2  0  0  0  0  0  0  0  0  0
   46.8900   33.9990   41.2510 H   0  0  0  0  0  0  0  0  0  0  0  0
   48.3820   36.5670   42.4060 H   0  0  0  0  0  0  0  0  0  0  0  0
   48.5980   35.8740   40.6970 H   0  0  0  0  0  0  0  0  0  0  0  0
   48.9650   34.3100   43.4330 H   0  0  0  0  0  0  0  0  0  0  0  0
   45.5400   36.0510   43.1690 C   0  0  0  0  0  0  0  0  0  0  0  0
   46.3590   34.8960   43.1430 C   0  0  0  0  0  0  0  0  0  0  0  0
   46.2470   33.9830   44.1880 C   0  0  0  0  0  0  0  0  0  0  0  0
   45.3600   34.2590   45.1660 N   0  0  0  0  0  0  0  0  0  0  0  0
   44.5890   35.3590   45.1770 C   0  0  0  0  0  0  0  0  0  0  0  0
   44.6680   36.2700   44.1800 N   0  0  0  0  0  0  0  0  0  0  0  0
   45.6490   36.7440   42.3440 H   0  0  0  0  0  0  0  0  0  0  0  0
   46.8540   33.0990   44.1950 H   0  0  0  0  0  0  0  0  0  0  0  0
   43.9020   35.4990   46.0050 H   0  0  0  0  0  0  0  0  0  0  0  0
   49.3620   31.7340   39.8660 N   0  0  0  0  0  0  0  0  0  0  0  0
   49.9890   30.8720   39.8790 H   0  0  0  0  0  0  0  0  0  0  0  0
   49.0770   32.2310   38.5680 C   0  0  0  0  0  0  0  0  0  0  0  0
   48.4230   33.3980   38.2940 C   0  0  0  0  0  0  0  0  0  0  0  0
   48.0870   34.0180   39.1050 H   0  0  0  0  0  0  0  0  0  0  0  0
   48.1430   33.8780   37.0440 C   0  0  0  0  0  3  0  0  0  0  0  0
   48.5350   33.1580   35.9510 C   0  0  0  0  0  0  0  0  0  0  0  0
   48.3470   33.4780   34.9480 H   0  0  0  0  0  0  0  0  0  0  0  0
   49.1930   31.9820   36.1520 C   0  0  0  0  0  0  0  0  0  0  0  0
   49.5100   31.4040   35.2900 H   0  0  0  0  0  0  0  0  0  0  0  0
   49.4500   31.5460   37.4280 C   0  0  0  0  0  3  0  0  0  0  0  0
  1  2  1  1  0  0  0
  1 18  1  0  0  0  0
  2  7  1  0  0  0  0
  3  2  1  0  0  0  0
  3  4  1  0  0  0  0
  3 10  1  0  0  0  0
  4 11  1  0  0  0  0
  5  4  1  0  0  0  0
  5 14  1  0  0  0  0
  6 15  1  6  0  0  0
  6  1  1  0  0  0  0
  6  5  1  0  0  0  0
  8  2  1  0  0  0  0
  9  3  1  0  0  0  0
 12  4  1  0  0  0  0
 13  5  1  0  0  0  0
 16 19  1  6  0  0  0
 16 18  1  0  0  0  0
 16 24  1  0  0  0  0
 17 16  1  0  0  0  0
 17 18  1  0  0  0  0
 17 20  1  0  0  0  0
 18 22  1  1  0  0  0
 21 17  1  0  0  0  0
 23 28  1  0  0  0  0
 24 23  2  0  0  0  0
 24 25  1  0  0  0  0
 25 30  1  0  0  0  0
 25 26  2  0  0  0  0
 26 27  1  0  0  0  0
 27 31  1  0  0  0  0
 28 27  2  0  0  0  0
 29 23  1  0  0  0  0
 32 33  1  0  0  0  0
 32  6  1  0  0  0  0
 34 32  1  0  0  0  0
 35 34  1  0  0  0  0
 35 36  1  0  0  0  0
 37 35  2  0  0  0  0
 38 40  2  0  0  0  0
 38 37  1  0  0  0  0
 39 38  1  0  0  0  0
 40 42  1  0  0  0  0
 41 40  1  0  0  0  0
 42 34  2  0  0  0  0
M  END
>  <minimizedAffinity>
-5.34544086

>  <minimizedRMSD>
0.543206513

$$$$
