
 OpenBabel03252506463D

 42 45  0  0  1  0  0  0  0  0999 V2000
   49.5420   33.4810   41.5470 N   0  0  1  0  0  0  0  0  0  0  0  0
   50.7530   33.2150   42.2760 C   0  0  0  0  0  0  0  0  0  0  0  0
   51.3800   31.8950   41.9290 C   0  0  0  0  0  0  0  0  0  0  0  0
   50.4710   30.7860   42.4140 C   0  0  0  0  0  0  0  0  0  0  0  0
   49.0240   31.1670   42.2270 C   0  0  0  0  0  0  0  0  0  0  0  0
   48.9170   32.2410   41.1540 C   0  0  2  0  0  0  0  0  0  0  0  0
   50.5800   33.2160   43.3850 H   0  0  0  0  0  0  0  0  0  0  0  0
   51.4880   34.0020   41.9970 H   0  0  0  0  0  0  0  0  0  0  0  0
   51.6810   31.8120   40.8830 H   0  0  0  0  0  0  0  0  0  0  0  0
   52.3080   31.8370   42.5560 H   0  0  0  0  0  0  0  0  0  0  0  0
   50.7170   30.4360   43.4290 H   0  0  0  0  0  0  0  0  0  0  0  0
   50.6560   29.9310   41.7140 H   0  0  0  0  0  0  0  0  0  0  0  0
   48.4170   30.3150   41.8700 H   0  0  0  0  0  0  0  0  0  0  0  0
   48.6220   31.5230   43.1740 H   0  0  0  0  0  0  0  0  0  0  0  0
   47.8250   32.4540   41.0620 H   0  0  0  0  0  0  0  0  0  0  0  0
   47.3040   34.6770   42.0340 C   0  0  1  0  0  0  0  0  0  0  0  0
   48.3590   35.6430   41.7550 C   0  0  0  0  0  0  0  0  0  0  0  0
   48.7400   34.3300   42.3600 C   0  0  2  0  0  0  0  0  0  0  0  0
   46.8860   33.9790   41.2720 H   0  0  0  0  0  0  0  0  0  0  0  0
   48.3690   36.5640   42.3990 H   0  0  0  0  0  0  0  0  0  0  0  0
   48.5850   35.8560   40.6970 H   0  0  0  0  0  0  0  0  0  0  0  0
   48.9620   34.3200   43.4470 H   0  0  0  0  0  0  0  0  0  0  0  0
   45.5360   36.0480   43.1750 C   0  0  0  0  0  0  0  0  0  0  0  0
   46.3540   34.8920   43.1550 C   0  0  0  0  0  0  0  0  0  0  0  0
   46.2410   33.9840   44.2050 C   0  0  0  0  0  0  0  0  0  0  0  0
   45.3540   34.2670   45.1820 N   0  0  0  0  0  0  0  0  0  0  0  0
   44.5850   35.3680   45.1870 C   0  0  0  0  0  0  0  0  0  0  0  0
   44.6650   36.2730   44.1850 N   0  0  0  0  0  0  0  0  0  0  0  0
   45.6460   36.7360   42.3470 H   0  0  0  0  0  0  0  0  0  0  0  0
   46.8470   33.1000   44.2170 H   0  0  0  0  0  0  0  0  0  0  0  0
   43.8980   35.5130   46.0150 H   0  0  0  0  0  0  0  0  0  0  0  0
   49.3660   31.7060   39.9120 N   0  0  0  0  0  0  0  0  0  0  0  0
   49.9880   30.8400   39.9320 H   0  0  0  0  0  0  0  0  0  0  0  0
   49.0870   32.1940   38.6090 C   0  0  0  0  0  0  0  0  0  0  0  0
   49.4380   31.5780   37.4410 C   0  0  0  0  0  0  0  0  0  0  0  0
   49.9670   30.6420   37.4770 H   0  0  0  0  0  0  0  0  0  0  0  0
   49.1760   32.0470   36.1850 C   0  0  0  0  0  3  0  0  0  0  0  0
   48.5050   33.2290   36.0420 C   0  0  0  0  0  0  0  0  0  0  0  0
   48.2680   33.6500   35.0880 H   0  0  0  0  0  0  0  0  0  0  0  0
   48.1230   33.8970   37.1660 C   0  0  0  0  0  0  0  0  0  0  0  0
   47.5890   34.8370   37.0620 H   0  0  0  0  0  0  0  0  0  0  0  0
   48.4130   33.3820   38.4040 C   0  0  0  0  0  3  0  0  0  0  0  0
  1  2  1  1  0  0  0
  1 18  1  0  0  0  0
  2  7  1  0  0  0  0
  3  2  1  0  0  0  0
  3  4  1  0  0  0  0
  3 10  1  0  0  0  0
  4 11  1  0  0  0  0
  5  4  1  0  0  0  0
  5 14  1  0  0  0  0
  6 15  1  6  0  0  0
  6  1  1  0  0  0  0
  6  5  1  0  0  0  0
  8  2  1  0  0  0  0
  9  3  1  0  0  0  0
 12  4  1  0  0  0  0
 13  5  1  0  0  0  0
 16 19  1  6  0  0  0
 16 18  1  0  0  0  0
 16 24  1  0  0  0  0
 17 16  1  0  0  0  0
 17 18  1  0  0  0  0
 17 20  1  0  0  0  0
 18 22  1  1  0  0  0
 21 17  1  0  0  0  0
 23 28  1  0  0  0  0
 24 23  2  0  0  0  0
 24 25  1  0  0  0  0
 25 30  1  0  0  0  0
 25 26  2  0  0  0  0
 26 27  1  0  0  0  0
 27 31  1  0  0  0  0
 28 27  2  0  0  0  0
 29 23  1  0  0  0  0
 32 33  1  0  0  0  0
 32  6  1  0  0  0  0
 34 32  1  0  0  0  0
 35 36  1  0  0  0  0
 35 34  2  0  0  0  0
 37 35  1  0  0  0  0
 38 37  2  0  0  0  0
 38 40  1  0  0  0  0
 39 38  1  0  0  0  0
 40 42  2  0  0  0  0
 41 40  1  0  0  0  0
 42 34  1  0  0  0  0
M  END
>  <minimizedAffinity>
-5.34739065

>  <minimizedRMSD>
0.399609566

$$$$
