
 OpenBabel03242511313D

 23 24  0  0  0  0  0  0  0  0999 V2000
   35.5030   28.9980   40.6800 C   0  0  0  0  0  0  0  0  0  0  0  0
   34.7610   28.5740   39.9770 H   0  0  0  0  0  0  0  0  0  0  0  0
   34.9870   29.4590   41.5440 H   0  0  0  0  0  0  0  0  0  0  0  0
   36.2140   30.0870   39.9670 C   0  0  0  0  0  0  0  0  0  0  0  0
   36.6170   31.2040   40.6940 C   0  0  0  0  0  0  0  0  0  0  0  0
   36.3900   31.2250   41.7600 H   0  0  0  0  0  0  0  0  0  0  0  0
   37.2830   32.3000   40.1930 C   0  0  0  0  0  3  0  0  0  0  0  0
   37.5730   32.2760   38.8440 C   0  0  0  0  0  0  0  0  0  0  0  0
   38.1050   33.1420   38.4260 H   0  0  0  0  0  0  0  0  0  0  0  0
   37.1970   31.1940   38.0720 C   0  0  0  0  0  0  0  0  0  0  0  0
   37.4290   31.1830   37.0080 H   0  0  0  0  0  0  0  0  0  0  0  0
   36.5290   30.1170   38.6260 C   0  0  0  0  0  3  0  0  0  0  0  0
   36.8200   27.7490   42.3460 C   0  0  0  0  0  3  0  0  0  0  0  0
   36.4880   27.9750   41.0930 C   0  0  0  0  0  3  0  0  0  0  0  0
   37.8050   26.7130   42.6260 C   0  0  0  0  0  0  0  0  0  0  0  0
   38.9300   27.0440   43.4130 C   0  0  0  0  0  0  0  0  0  0  0  0
   39.8750   26.0390   43.6790 C   0  0  0  0  0  0  0  0  0  0  0  0
   39.6640   24.8060   43.1710 N   0  0  0  0  0  0  0  0  0  0  0  0
   38.5670   24.5180   42.4140 C   0  0  0  0  0  0  0  0  0  0  0  0
   37.6670   25.4650   42.1580 N   0  0  0  0  0  0  0  0  0  0  0  0
   39.1000   28.0190   43.8160 H   0  0  0  0  0  0  0  0  0  0  0  0
   40.7560   26.2610   44.2830 H   0  0  0  0  0  0  0  0  0  0  0  0
   38.5520   23.5050   42.0940 H   0  0  0  0  0  0  0  0  0  0  0  0
  1 14  1  0  0  0  0
  1  3  1  0  0  0  0
  2  1  1  0  0  0  0
  4  1  1  0  0  0  0
  4  5  1  0  0  0  0
  5  6  1  0  0  0  0
  7  5  2  0  0  0  0
  8  7  1  0  0  0  0
  9  8  1  0  0  0  0
 10 12  1  0  0  0  0
 10  8  2  0  0  0  0
 11 10  1  0  0  0  0
 12  4  2  0  0  0  0
 13 15  1  0  0  0  0
 14 13  2  0  0  0  0
 15 16  1  0  0  0  0
 16 17  2  0  0  0  0
 16 21  1  0  0  0  0
 17 22  1  0  0  0  0
 18 17  1  0  0  0  0
 19 18  2  0  0  0  0
 20 19  1  0  0  0  0
 20 15  2  0  0  0  0
 23 19  1  0  0  0  0
M  END
>  <minimizedAffinity>
-4.98598957

$$$$

 OpenBabel03242511313D

 23 24  0  0  0  0  0  0  0  0999 V2000
   35.5060   28.9380   40.6630 C   0  0  0  0  0  0  0  0  0  0  0  0
   34.7920   28.4980   39.9410 H   0  0  0  0  0  0  0  0  0  0  0  0
   34.9580   29.3790   41.5170 H   0  0  0  0  0  0  0  0  0  0  0  0
   36.2040   30.0500   39.9720 C   0  0  0  0  0  0  0  0  0  0  0  0
   36.5610   31.1720   40.7150 C   0  0  0  0  0  0  0  0  0  0  0  0
   36.3110   31.1800   41.7760 H   0  0  0  0  0  0  0  0  0  0  0  0
   37.2090   32.2880   40.2350 C   0  0  0  0  0  3  0  0  0  0  0  0
   37.5280   32.2820   38.8930 C   0  0  0  0  0  0  0  0  0  0  0  0
   38.0450   33.1640   38.4920 H   0  0  0  0  0  0  0  0  0  0  0  0
   37.1970   31.1950   38.1060 C   0  0  0  0  0  0  0  0  0  0  0  0
   37.4510   31.1980   37.0470 H   0  0  0  0  0  0  0  0  0  0  0  0
   36.5460   30.0980   38.6380 C   0  0  0  0  0  3  0  0  0  0  0  0
   36.7860   27.6820   42.3520 C   0  0  0  0  0  3  0  0  0  0  0  0
   36.5090   27.9390   41.0920 C   0  0  0  0  0  3  0  0  0  0  0  0
   37.7960   26.6750   42.6490 C   0  0  0  0  0  0  0  0  0  0  0  0
   37.6310   25.3750   42.1220 C   0  0  0  0  0  0  0  0  0  0  0  0
   38.6090   24.4090   42.4130 C   0  0  0  0  0  0  0  0  0  0  0  0
   39.6590   24.7690   43.1830 N   0  0  0  0  0  0  0  0  0  0  0  0
   39.7890   26.0320   43.6780 C   0  0  0  0  0  0  0  0  0  0  0  0
   38.8660   26.9530   43.4060 N   0  0  0  0  0  0  0  0  0  0  0  0
   36.8010   25.0880   41.5130 H   0  0  0  0  0  0  0  0  0  0  0  0
   38.5130   23.3960   42.0230 H   0  0  0  0  0  0  0  0  0  0  0  0
   40.6690   26.1490   44.2620 H   0  0  0  0  0  0  0  0  0  0  0  0
  1 14  1  0  0  0  0
  1  3  1  0  0  0  0
  2  1  1  0  0  0  0
  4  1  1  0  0  0  0
  4  5  1  0  0  0  0
  5  6  1  0  0  0  0
  7  5  2  0  0  0  0
  8  7  1  0  0  0  0
  9  8  1  0  0  0  0
 10 12  1  0  0  0  0
 10  8  2  0  0  0  0
 11 10  1  0  0  0  0
 12  4  2  0  0  0  0
 13 15  1  0  0  0  0
 14 13  2  0  0  0  0
 15 20  1  0  0  0  0
 16 17  1  0  0  0  0
 16 15  2  0  0  0  0
 17 18  2  0  0  0  0
 18 19  1  0  0  0  0
 19 23  1  0  0  0  0
 20 19  2  0  0  0  0
 21 16  1  0  0  0  0
 22 17  1  0  0  0  0
M  END
>  <minimizedAffinity>
-4.95205784

$$$$

 OpenBabel03242511313D

 23 24  0  0  0  0  0  0  0  0999 V2000
   36.6450   27.7340   42.8500 C   0  0  0  0  0  0  0  0  0  0  0  0
   36.2510   27.8360   43.8790 H   0  0  0  0  0  0  0  0  0  0  0  0
   35.8400   27.4010   42.1670 H   0  0  0  0  0  0  0  0  0  0  0  0
   37.6690   26.6610   42.8720 C   0  0  0  0  0  0  0  0  0  0  0  0
   38.8580   26.8940   43.5580 C   0  0  0  0  0  0  0  0  0  0  0  0
   38.9810   27.8580   44.0510 H   0  0  0  0  0  0  0  0  0  0  0  0
   39.9090   26.0120   43.6790 C   0  0  0  0  0  3  0  0  0  0  0  0
   39.7570   24.7890   43.0590 C   0  0  0  0  0  0  0  0  0  0  0  0
   40.5850   24.0730   43.1440 H   0  0  0  0  0  0  0  0  0  0  0  0
   38.5980   24.5040   42.3620 C   0  0  0  0  0  0  0  0  0  0  0  0
   38.4860   23.5360   41.8740 H   0  0  0  0  0  0  0  0  0  0  0  0
   37.5720   25.4250   42.2720 C   0  0  0  0  0  3  0  0  0  0  0  0
   36.8670   29.6840   41.3600 C   0  0  0  0  0  3  0  0  0  0  0  0
   37.2810   28.9920   42.3990 C   0  0  0  0  0  3  0  0  0  0  0  0
   37.5760   30.9080   41.0140 C   0  0  0  0  0  0  0  0  0  0  0  0
   36.9270   31.8590   40.1970 C   0  0  0  0  0  0  0  0  0  0  0  0
   37.6180   33.0370   39.8670 C   0  0  0  0  0  0  0  0  0  0  0  0
   38.8700   33.2040   40.3460 N   0  0  0  0  0  0  0  0  0  0  0  0
   39.4700   32.2660   41.1320 C   0  0  0  0  0  0  0  0  0  0  0  0
   38.8210   31.1470   41.4490 N   0  0  0  0  0  0  0  0  0  0  0  0
   35.9370   31.7300   39.8170 H   0  0  0  0  0  0  0  0  0  0  0  0
   37.1460   33.7930   39.2390 H   0  0  0  0  0  0  0  0  0  0  0  0
   40.4520   32.5510   41.4230 H   0  0  0  0  0  0  0  0  0  0  0  0
  1  4  1  0  0  0  0
  1  2  1  0  0  0  0
  3  1  1  0  0  0  0
  4  5  1  0  0  0  0
  5  7  2  0  0  0  0
  5  6  1  0  0  0  0
  8  9  1  0  0  0  0
  8  7  1  0  0  0  0
 10  8  2  0  0  0  0
 11 10  1  0  0  0  0
 12 10  1  0  0  0  0
 12  4  2  0  0  0  0
 13 14  2  0  0  0  0
 14  1  1  0  0  0  0
 15 13  1  0  0  0  0
 15 20  1  0  0  0  0
 16 15  2  0  0  0  0
 17 16  1  0  0  0  0
 17 18  2  0  0  0  0
 18 19  1  0  0  0  0
 19 23  1  0  0  0  0
 19 20  2  0  0  0  0
 21 16  1  0  0  0  0
 22 17  1  0  0  0  0
M  END
>  <minimizedAffinity>
-4.88717318

$$$$

 OpenBabel03242511313D

 23 24  0  0  0  0  0  0  0  0999 V2000
   36.6240   27.7670   42.6770 C   0  0  0  0  0  0  0  0  0  0  0  0
   36.1980   27.9220   43.6860 H   0  0  0  0  0  0  0  0  0  0  0  0
   35.8380   27.4060   41.9850 H   0  0  0  0  0  0  0  0  0  0  0  0
   37.6370   26.6890   42.7850 C   0  0  0  0  0  0  0  0  0  0  0  0
   38.8120   26.9520   43.4840 C   0  0  0  0  0  0  0  0  0  0  0  0
   38.9330   27.9430   43.9220 H   0  0  0  0  0  0  0  0  0  0  0  0
   39.8520   26.0710   43.6790 C   0  0  0  0  0  3  0  0  0  0  0  0
   39.7040   24.8150   43.1270 C   0  0  0  0  0  0  0  0  0  0  0  0
   40.5230   24.0980   43.2730 H   0  0  0  0  0  0  0  0  0  0  0  0
   38.5580   24.4990   42.4220 C   0  0  0  0  0  0  0  0  0  0  0  0
   38.4480   23.5050   41.9890 H   0  0  0  0  0  0  0  0  0  0  0  0
   37.5420   25.4210   42.2550 C   0  0  0  0  0  3  0  0  0  0  0  0
   36.7040   29.8630   41.3850 C   0  0  0  0  0  3  0  0  0  0  0  0
   37.2840   28.9960   42.1860 C   0  0  0  0  0  3  0  0  0  0  0  0
   37.4590   31.0370   40.9690 C   0  0  0  0  0  0  0  0  0  0  0  0
   38.8040   31.1570   41.3790 C   0  0  0  0  0  0  0  0  0  0  0  0
   39.5260   32.2930   40.9740 C   0  0  0  0  0  0  0  0  0  0  0  0
   38.8990   33.2150   40.2130 N   0  0  0  0  0  0  0  0  0  0  0  0
   37.5980   33.0710   39.8330 C   0  0  0  0  0  0  0  0  0  0  0  0
   36.9080   31.9970   40.2130 N   0  0  0  0  0  0  0  0  0  0  0  0
   39.3020   30.4290   41.9820 H   0  0  0  0  0  0  0  0  0  0  0  0
   40.5670   32.4170   41.2730 H   0  0  0  0  0  0  0  0  0  0  0  0
   37.2580   33.8840   39.2380 H   0  0  0  0  0  0  0  0  0  0  0  0
  1  4  1  0  0  0  0
  1  2  1  0  0  0  0
  3  1  1  0  0  0  0
  4  5  1  0  0  0  0
  5  7  2  0  0  0  0
  5  6  1  0  0  0  0
  8  9  1  0  0  0  0
  8  7  1  0  0  0  0
 10  8  2  0  0  0  0
 11 10  1  0  0  0  0
 12 10  1  0  0  0  0
 12  4  2  0  0  0  0
 13 14  2  0  0  0  0
 14  1  1  0  0  0  0
 15 16  1  0  0  0  0
 15 13  1  0  0  0  0
 16 21  1  0  0  0  0
 17 22  1  0  0  0  0
 17 16  2  0  0  0  0
 18 17  1  0  0  0  0
 19 20  1  0  0  0  0
 19 18  2  0  0  0  0
 20 15  2  0  0  0  0
 23 19  1  0  0  0  0
M  END
>  <minimizedAffinity>
-4.81294918

$$$$

 OpenBabel03242511313D

 23 24  0  0  0  0  0  0  0  0999 V2000
   36.9220   27.1120   43.0150 C   0  0  0  0  0  0  0  0  0  0  0  0
   36.0080   27.7200   42.8770 H   0  0  0  0  0  0  0  0  0  0  0  0
   36.9430   26.6840   44.0360 H   0  0  0  0  0  0  0  0  0  0  0  0
   38.0840   28.0290   42.9050 C   0  0  0  0  0  0  0  0  0  0  0  0
   39.3640   27.4910   43.0010 C   0  0  0  0  0  0  0  0  0  0  0  0
   39.4540   26.4150   43.1530 H   0  0  0  0  0  0  0  0  0  0  0  0
   40.5460   28.1940   42.9210 C   0  0  0  0  0  3  0  0  0  0  0  0
   40.4370   29.5550   42.7280 C   0  0  0  0  0  0  0  0  0  0  0  0
   41.3690   30.1330   42.6620 H   0  0  0  0  0  0  0  0  0  0  0  0
   39.1910   30.1440   42.6260 C   0  0  0  0  0  0  0  0  0  0  0  0
   39.1130   31.2200   42.4740 H   0  0  0  0  0  0  0  0  0  0  0  0
   38.0340   29.3920   42.7120 C   0  0  0  0  0  3  0  0  0  0  0  0
   36.9150   24.7860   42.2040 C   0  0  0  0  0  3  0  0  0  0  0  0
   37.0320   26.0750   41.9670 C   0  0  0  0  0  3  0  0  0  0  0  0
   37.0430   23.8600   41.0870 C   0  0  0  0  0  0  0  0  0  0  0  0
   35.9870   23.7760   40.1530 C   0  0  0  0  0  0  0  0  0  0  0  0
   36.1180   22.8800   39.0790 C   0  0  0  0  0  0  0  0  0  0  0  0
   37.2460   22.1420   38.9900 N   0  0  0  0  0  0  0  0  0  0  0  0
   38.2470   22.2450   39.9090 C   0  0  0  0  0  0  0  0  0  0  0  0
   38.1300   23.0930   40.9300 N   0  0  0  0  0  0  0  0  0  0  0  0
   35.0940   24.3580   40.2210 H   0  0  0  0  0  0  0  0  0  0  0  0
   35.3220   22.7900   38.3390 H   0  0  0  0  0  0  0  0  0  0  0  0
   39.0620   21.5970   39.6930 H   0  0  0  0  0  0  0  0  0  0  0  0
  1  3  1  0  0  0  0
  2  1  1  0  0  0  0
  4  5  1  0  0  0  0
  4  1  1  0  0  0  0
  5  6  1  0  0  0  0
  7  5  2  0  0  0  0
  8  7  1  0  0  0  0
  9  8  1  0  0  0  0
 10 12  1  0  0  0  0
 10  8  2  0  0  0  0
 11 10  1  0  0  0  0
 12  4  2  0  0  0  0
 14 13  2  0  0  0  0
 14  1  1  0  0  0  0
 15 13  1  0  0  0  0
 16 21  1  0  0  0  0
 16 15  2  0  0  0  0
 17 16  1  0  0  0  0
 18 17  2  0  0  0  0
 18 19  1  0  0  0  0
 19 20  2  0  0  0  0
 20 15  1  0  0  0  0
 22 17  1  0  0  0  0
 23 19  1  0  0  0  0
M  END
>  <minimizedAffinity>
-4.41609049

$$$$

 OpenBabel03242511313D

 23 24  0  0  0  0  0  0  0  0999 V2000
   38.9260   27.7750   43.6250 C   0  0  0  0  0  0  0  0  0  0  0  0
   40.0320   27.7530   43.6510 H   0  0  0  0  0  0  0  0  0  0  0  0
   38.5210   27.7490   44.6550 H   0  0  0  0  0  0  0  0  0  0  0  0
   38.4740   26.5340   42.9490 C   0  0  0  0  0  0  0  0  0  0  0  0
   39.3940   25.5040   42.7710 C   0  0  0  0  0  0  0  0  0  0  0  0
   40.4080   25.6580   43.1400 H   0  0  0  0  0  0  0  0  0  0  0  0
   39.1450   24.2920   42.1670 C   0  0  0  0  0  3  0  0  0  0  0  0
   37.8630   24.0920   41.6990 C   0  0  0  0  0  0  0  0  0  0  0  0
   37.6450   23.1310   41.2150 H   0  0  0  0  0  0  0  0  0  0  0  0
   36.9080   25.0810   41.8470 C   0  0  0  0  0  0  0  0  0  0  0  0
   35.8980   24.9150   41.4750 H   0  0  0  0  0  0  0  0  0  0  0  0
   37.2100   26.2810   42.4630 C   0  0  0  0  0  3  0  0  0  0  0  0
   39.0750   29.4490   41.8230 C   0  0  0  0  0  3  0  0  0  0  0  0
   38.4380   28.9410   42.8560 C   0  0  0  0  0  3  0  0  0  0  0  0
   38.4940   30.6010   41.1470 C   0  0  0  0  0  0  0  0  0  0  0  0
   37.3600   30.4040   40.3280 C   0  0  0  0  0  0  0  0  0  0  0  0
   36.8050   31.5200   39.6790 C   0  0  0  0  0  0  0  0  0  0  0  0
   37.3820   32.7270   39.8690 N   0  0  0  0  0  0  0  0  0  0  0  0
   38.4760   32.8840   40.6660 C   0  0  0  0  0  0  0  0  0  0  0  0
   39.0080   31.8310   41.2840 N   0  0  0  0  0  0  0  0  0  0  0  0
   36.9030   29.4510   40.1760 H   0  0  0  0  0  0  0  0  0  0  0  0
   35.9300   31.4040   39.0390 H   0  0  0  0  0  0  0  0  0  0  0  0
   38.8040   33.8940   40.7070 H   0  0  0  0  0  0  0  0  0  0  0  0
  1  2  1  0  0  0  0
  1  3  1  0  0  0  0
  4  1  1  0  0  0  0
  5  4  1  0  0  0  0
  5  6  1  0  0  0  0
  7  5  2  0  0  0  0
  8 10  2  0  0  0  0
  8  7  1  0  0  0  0
  9  8  1  0  0  0  0
 10 12  1  0  0  0  0
 11 10  1  0  0  0  0
 12  4  2  0  0  0  0
 13 14  2  0  0  0  0
 14  1  1  0  0  0  0
 15 20  1  0  0  0  0
 15 13  1  0  0  0  0
 16 15  2  0  0  0  0
 17 18  2  0  0  0  0
 17 16  1  0  0  0  0
 18 19  1  0  0  0  0
 19 23  1  0  0  0  0
 19 20  2  0  0  0  0
 21 16  1  0  0  0  0
 22 17  1  0  0  0  0
M  END
>  <minimizedAffinity>
-4.41022444

$$$$

 OpenBabel03242511313D

 23 24  0  0  0  0  0  0  0  0999 V2000
   36.3590   30.6110   41.1290 C   0  0  0  0  0  0  0  0  0  0  0  0
   35.8070   31.1940   41.8900 H   0  0  0  0  0  0  0  0  0  0  0  0
   35.6630   30.2500   40.3470 H   0  0  0  0  0  0  0  0  0  0  0  0
   36.9120   29.4120   41.8060 C   0  0  0  0  0  0  0  0  0  0  0  0
   36.4760   28.1570   41.3920 C   0  0  0  0  0  0  0  0  0  0  0  0
   35.7450   28.1130   40.5840 H   0  0  0  0  0  0  0  0  0  0  0  0
   36.8820   26.9470   41.9090 C   0  0  0  0  0  3  0  0  0  0  0  0
   37.8070   26.9970   42.9310 C   0  0  0  0  0  0  0  0  0  0  0  0
   38.1440   26.0420   43.3560 H   0  0  0  0  0  0  0  0  0  0  0  0
   38.2750   28.2160   43.3840 C   0  0  0  0  0  0  0  0  0  0  0  0
   39.0050   28.2470   44.1910 H   0  0  0  0  0  0  0  0  0  0  0  0
   37.8350   29.4030   42.8290 C   0  0  0  0  0  3  0  0  0  0  0  0
   38.1590   31.0380   39.5010 C   0  0  0  0  0  3  0  0  0  0  0  0
   37.4780   31.3990   40.5670 C   0  0  0  0  0  3  0  0  0  0  0  0
   39.2400   31.8990   39.0430 C   0  0  0  0  0  0  0  0  0  0  0  0
   39.8810   31.5900   37.8240 C   0  0  0  0  0  0  0  0  0  0  0  0
   40.9240   32.4260   37.3890 C   0  0  0  0  0  0  0  0  0  0  0  0
   41.2640   33.4830   38.1580 N   0  0  0  0  0  0  0  0  0  0  0  0
   40.6260   33.7540   39.3310 C   0  0  0  0  0  0  0  0  0  0  0  0
   39.6370   32.9670   39.7490 N   0  0  0  0  0  0  0  0  0  0  0  0
   39.6150   30.7550   37.2140 H   0  0  0  0  0  0  0  0  0  0  0  0
   41.4410   32.2170   36.4520 H   0  0  0  0  0  0  0  0  0  0  0  0
   41.0140   34.6190   39.8120 H   0  0  0  0  0  0  0  0  0  0  0  0
  1  4  1  0  0  0  0
  1  2  1  0  0  0  0
  3  1  1  0  0  0  0
  4 12  1  0  0  0  0
  5  4  2  0  0  0  0
  5  7  1  0  0  0  0
  6  5  1  0  0  0  0
  7  8  2  0  0  0  0
  8  9  1  0  0  0  0
  8 10  1  0  0  0  0
 10 11  1  0  0  0  0
 12 10  2  0  0  0  0
 13 14  2  0  0  0  0
 14  1  1  0  0  0  0
 15 13  1  0  0  0  0
 15 20  1  0  0  0  0
 16 15  2  0  0  0  0
 17 16  1  0  0  0  0
 17 18  2  0  0  0  0
 18 19  1  0  0  0  0
 19 20  2  0  0  0  0
 19 23  1  0  0  0  0
 21 16  1  0  0  0  0
 22 17  1  0  0  0  0
M  END
>  <minimizedAffinity>
-4.39381361

$$$$

 OpenBabel03242511313D

 23 24  0  0  0  0  0  0  0  0999 V2000
   32.4550   29.0060   36.0770 C   0  0  0  0  0  0  0  0  0  0  0  0
   33.0890   29.4420   35.2810 H   0  0  0  0  0  0  0  0  0  0  0  0
   31.8580   28.1670   35.6700 H   0  0  0  0  0  0  0  0  0  0  0  0
   31.4970   30.0550   36.5040 C   0  0  0  0  0  0  0  0  0  0  0  0
   30.9170   29.9480   37.7650 C   0  0  0  0  0  0  0  0  0  0  0  0
   31.1950   29.0950   38.3830 H   0  0  0  0  0  0  0  0  0  0  0  0
   30.0120   30.8280   38.3160 C   0  0  0  0  0  3  0  0  0  0  0  0
   29.6570   31.9100   37.5380 C   0  0  0  0  0  0  0  0  0  0  0  0
   28.9360   32.6230   37.9610 H   0  0  0  0  0  0  0  0  0  0  0  0
   30.2010   32.0670   36.2770 C   0  0  0  0  0  0  0  0  0  0  0  0
   29.9160   32.9240   35.6690 H   0  0  0  0  0  0  0  0  0  0  0  0
   31.1070   31.1540   35.7700 C   0  0  0  0  0  3  0  0  0  0  0  0
   34.4950   29.0360   37.4580 C   0  0  0  0  0  3  0  0  0  0  0  0
   33.2720   28.6020   37.2430 C   0  0  0  0  0  3  0  0  0  0  0  0
   35.2000   28.5660   38.6430 C   0  0  0  0  0  0  0  0  0  0  0  0
   35.0170   29.2590   39.8590 C   0  0  0  0  0  0  0  0  0  0  0  0
   35.7000   28.7990   40.9980 C   0  0  0  0  0  0  0  0  0  0  0  0
   36.4990   27.7170   40.8740 N   0  0  0  0  0  0  0  0  0  0  0  0
   36.6560   27.0690   39.6850 C   0  0  0  0  0  0  0  0  0  0  0  0
   36.0110   27.5000   38.6020 N   0  0  0  0  0  0  0  0  0  0  0  0
   34.3850   30.1150   39.9590 H   0  0  0  0  0  0  0  0  0  0  0  0
   35.5810   29.3100   41.9530 H   0  0  0  0  0  0  0  0  0  0  0  0
   37.3170   26.2410   39.7600 H   0  0  0  0  0  0  0  0  0  0  0  0
  1  4  1  0  0  0  0
  1 14  1  0  0  0  0
  2  1  1  0  0  0  0
  3  1  1  0  0  0  0
  4  5  1  0  0  0  0
  5  7  2  0  0  0  0
  5  6  1  0  0  0  0
  8  9  1  0  0  0  0
  8  7  1  0  0  0  0
 10  8  2  0  0  0  0
 11 10  1  0  0  0  0
 12 10  1  0  0  0  0
 12  4  2  0  0  0  0
 13 15  1  0  0  0  0
 14 13  2  0  0  0  0
 15 16  1  0  0  0  0
 16 21  1  0  0  0  0
 16 17  2  0  0  0  0
 17 22  1  0  0  0  0
 18 17  1  0  0  0  0
 19 23  1  0  0  0  0
 19 18  2  0  0  0  0
 20 15  2  0  0  0  0
 20 19  1  0  0  0  0
M  END
>  <minimizedAffinity>
-4.36059284

$$$$

 OpenBabel03242511313D

 23 24  0  0  0  0  0  0  0  0999 V2000
   36.4240   30.5590   41.3360 C   0  0  0  0  0  0  0  0  0  0  0  0
   37.1580   31.3850   41.2700 H   0  0  0  0  0  0  0  0  0  0  0  0
   35.5820   30.8520   41.9920 H   0  0  0  0  0  0  0  0  0  0  0  0
   37.1050   29.4130   41.9870 C   0  0  0  0  0  0  0  0  0  0  0  0
   36.4780   28.1720   41.9670 C   0  0  0  0  0  0  0  0  0  0  0  0
   35.5100   28.0980   41.4710 H   0  0  0  0  0  0  0  0  0  0  0  0
   36.9660   27.0090   42.5210 C   0  0  0  0  0  3  0  0  0  0  0  0
   38.1910   27.0970   43.1490 C   0  0  0  0  0  0  0  0  0  0  0  0
   38.5970   26.1790   43.5970 H   0  0  0  0  0  0  0  0  0  0  0  0
   38.8600   28.3050   43.2000 C   0  0  0  0  0  0  0  0  0  0  0  0
   39.8260   28.3660   43.6980 H   0  0  0  0  0  0  0  0  0  0  0  0
   38.3250   29.4440   42.6270 C   0  0  0  0  0  3  0  0  0  0  0  0
   36.7260   30.2190   38.9150 C   0  0  0  0  0  3  0  0  0  0  0  0
   35.9720   30.1440   39.9900 C   0  0  0  0  0  3  0  0  0  0  0  0
   36.1670   29.7790   37.6430 C   0  0  0  0  0  0  0  0  0  0  0  0
   36.9140   29.9950   36.4650 C   0  0  0  0  0  0  0  0  0  0  0  0
   36.3690   29.5680   35.2420 C   0  0  0  0  0  0  0  0  0  0  0  0
   35.1560   28.9730   35.2520 N   0  0  0  0  0  0  0  0  0  0  0  0
   34.4590   28.7790   36.4070 C   0  0  0  0  0  0  0  0  0  0  0  0
   34.9700   29.1810   37.5700 N   0  0  0  0  0  0  0  0  0  0  0  0
   37.8730   30.4660   36.4540 H   0  0  0  0  0  0  0  0  0  0  0  0
   36.9190   29.7190   34.3130 H   0  0  0  0  0  0  0  0  0  0  0  0
   33.5260   28.2980   36.2400 H   0  0  0  0  0  0  0  0  0  0  0  0
  1  4  1  0  0  0  0
  1  3  1  0  0  0  0
  2  1  1  0  0  0  0
  4 12  1  0  0  0  0
  5  4  2  0  0  0  0
  5  7  1  0  0  0  0
  6  5  1  0  0  0  0
  7  8  2  0  0  0  0
  8 10  1  0  0  0  0
  8  9  1  0  0  0  0
 10 11  1  0  0  0  0
 12 10  2  0  0  0  0
 13 14  2  0  0  0  0
 14  1  1  0  0  0  0
 15 13  1  0  0  0  0
 16 15  2  0  0  0  0
 17 18  2  0  0  0  0
 17 16  1  0  0  0  0
 18 19  1  0  0  0  0
 19 20  2  0  0  0  0
 20 15  1  0  0  0  0
 21 16  1  0  0  0  0
 22 17  1  0  0  0  0
 23 19  1  0  0  0  0
M  END
>  <minimizedAffinity>
-4.32909203

$$$$
