
 OpenBabel03252507043D

 47 50  0  0  0  0  0  0  0  0999 V2000
   41.8170   33.7740   41.3110 C   0  0  0  0  0  0  0  0  0  0  0  0
   41.4710   33.6570   42.3610 H   0  0  0  0  0  0  0  0  0  0  0  0
   42.0560   34.8910   41.2390 H   0  0  0  0  0  0  0  0  0  0  0  0
   40.9170   33.3660   40.4070 N   0  0  0  0  0  0  0  0  0  0  0  0
   40.2180   32.1180   40.3900 C   0  0  0  0  0  0  0  0  0  0  0  0
   38.8450   32.6090   40.8490 C   0  0  0  0  0  0  0  0  0  0  0  0
   38.2530   33.6090   39.9770 C   0  0  0  0  0  0  0  0  0  0  0  0
   39.1230   34.4100   39.1440 C   0  0  0  0  0  0  0  0  0  0  0  0
   40.6160   34.3440   39.3420 C   0  0  0  0  0  0  0  0  0  0  0  0
   40.1820   31.5470   39.4810 H   0  0  0  0  0  0  0  0  0  0  0  0
   40.5940   31.4580   41.1980 H   0  0  0  0  0  0  0  0  0  0  0  0
   38.9130   32.8800   41.9420 H   0  0  0  0  0  0  0  0  0  0  0  0
   38.2200   31.6680   40.8720 H   0  0  0  0  0  0  0  0  0  0  0  0
   37.6200   34.3080   40.5900 H   0  0  0  0  0  0  0  0  0  0  0  0
   37.5130   33.1110   39.2840 H   0  0  0  0  0  0  0  0  0  0  0  0
   38.7880   35.0680   38.4080 H   0  0  0  0  0  0  0  0  0  0  0  0
   41.7580   35.2690   38.4520 S   0  0  0  0  0  0  0  0  0  0  0  0
   41.2560   36.5070   37.3730 C   0  0  0  0  0  0  0  0  0  0  0  0
   40.7910   37.5500   38.2060 C   0  0  0  0  0  0  0  0  0  0  0  0
   40.7160   37.6950   39.2960 H   0  0  0  0  0  0  0  0  0  0  0  0
   40.2740   38.7430   37.6700 C   0  0  0  0  0  3  0  0  0  0  0  0
   40.2330   38.8680   36.2870 C   0  0  0  0  0  0  0  0  0  0  0  0
   39.8540   39.7460   35.7740 H   0  0  0  0  0  0  0  0  0  0  0  0
   40.6730   37.8810   35.4410 C   0  0  0  0  0  0  0  0  0  0  0  0
   40.6730   37.9040   34.3630 H   0  0  0  0  0  0  0  0  0  0  0  0
   41.1590   36.7570   36.0410 C   0  0  0  0  0  3  0  0  0  0  0  0
   43.1440   33.1170   41.1760 C   0  0  0  0  0  0  0  0  0  0  0  0
   43.3840   32.8160   40.1340 H   0  0  0  0  0  0  0  0  0  0  0  0
   43.1770   32.1690   41.7840 H   0  0  0  0  0  0  0  0  0  0  0  0
   44.1590   34.0100   41.7610 C   0  0  0  0  0  0  0  0  0  0  0  0
   43.7920   35.2030   42.3370 C   0  0  0  0  0  0  0  0  0  0  0  0
   44.7910   36.0120   42.8680 C   0  0  0  0  0  0  0  0  0  0  0  0
   46.0850   35.5770   42.7910 N   0  0  0  0  0  0  0  0  0  0  0  0
   46.3990   34.4150   42.2260 C   0  0  0  0  0  0  0  0  0  0  0  0
   45.4240   33.6600   41.7240 N   0  0  0  0  0  0  0  0  0  0  0  0
   42.8520   35.6990   42.5070 H   0  0  0  0  0  0  0  0  0  0  0  0
   44.6910   36.9750   43.3540 H   0  0  0  0  0  0  0  0  0  0  0  0
   47.8080   34.0170   42.2240 C   0  0  0  0  0  0  0  0  0  0  0  0
   48.1610   32.6860   42.0240 C   0  0  0  0  0  0  0  0  0  0  0  0
   49.4900   32.3190   42.0360 C   0  0  0  0  0  0  0  0  0  0  0  0
   50.3590   33.3480   42.2530 C   0  0  0  0  0  0  0  0  0  0  0  0
   50.0660   34.7000   42.4610 C   0  0  0  0  0  0  0  0  0  0  0  0
   48.7300   34.9750   42.4320 N   0  0  0  0  0  0  0  0  0  0  0  0
   47.3960   31.9310   41.8580 H   0  0  0  0  0  0  0  0  0  0  0  0
   49.8420   31.3250   41.8910 H   0  0  0  0  0  0  0  0  0  0  0  0
   51.4340   33.1090   42.2730 H   0  0  0  0  0  0  0  0  0  0  0  0
   50.8230   35.4260   42.6210 H   0  0  0  0  0  0  0  0  0  0  0  0
  1  2  1  0  0  0  0
  3  1  1  0  0  0  0
  4  1  1  0  0  0  0
  5  4  1  0  0  0  0
  5  6  1  0  0  0  0
  5 11  1  0  0  0  0
  6 13  1  0  0  0  0
  6 12  1  0  0  0  0
  7 14  1  0  0  0  0
  7  6  1  0  0  0  0
  8  9  2  0  0  0  0
  8  7  1  0  0  0  0
  9  4  1  0  0  0  0
 10  5  1  0  0  0  0
 15  7  1  0  0  0  0
 16  8  1  0  0  0  0
 17  9  1  0  0  0  0
 18 19  1  0  0  0  0
 18 17  1  0  0  0  0
 19 20  1  0  0  0  0
 21 19  2  0  0  0  0
 22 21  1  0  0  0  0
 23 22  1  0  0  0  0
 24 26  1  0  0  0  0
 24 22  2  0  0  0  0
 25 24  1  0  0  0  0
 26 18  2  0  0  0  0
 27  1  1  0  0  0  0
 27 30  1  0  0  0  0
 27 29  1  0  0  0  0
 28 27  1  0  0  0  0
 30 31  1  0  0  0  0
 31 36  1  0  0  0  0
 31 32  2  0  0  0  0
 32 37  1  0  0  0  0
 33 32  1  0  0  0  0
 34 33  2  0  0  0  0
 35 30  2  0  0  0  0
 35 34  1  0  0  0  0
 38 34  1  0  0  0  0
 38 43  1  0  0  0  0
 39 40  1  0  0  0  0
 39 38  2  0  0  0  0
 40 41  2  0  0  0  0
 41 46  1  0  0  0  0
 41 42  1  0  0  0  0
 42 47  1  0  0  0  0
 43 42  2  0  0  0  0
 44 39  1  0  0  0  0
 45 40  1  0  0  0  0
M  END
>  <minimizedAffinity>
-2.8683269

>  <minimizedRMSD>
0.243586689

$$$$
