
 OpenBabel03252507043D

 47 50  0  0  0  0  0  0  0  0999 V2000
   41.8700   33.6630   41.2960 C   0  0  0  0  0  0  0  0  0  0  0  0
   41.5610   33.4390   42.3400 H   0  0  0  0  0  0  0  0  0  0  0  0
   42.0570   34.7920   41.3160 H   0  0  0  0  0  0  0  0  0  0  0  0
   40.9620   33.2930   40.3840 N   0  0  0  0  0  0  0  0  0  0  0  0
   40.3200   32.0190   40.2730 C   0  0  0  0  0  0  0  0  0  0  0  0
   38.9410   32.3990   40.8110 C   0  0  0  0  0  0  0  0  0  0  0  0
   38.2760   33.4430   40.0510 C   0  0  0  0  0  0  0  0  0  0  0  0
   39.0820   34.3560   39.2700 C   0  0  0  0  0  0  0  0  0  0  0  0
   40.5810   34.3470   39.4200 C   0  0  0  0  0  0  0  0  0  0  0  0
   40.2820   31.5300   39.3170 H   0  0  0  0  0  0  0  0  0  0  0  0
   40.7520   31.3090   41.0070 H   0  0  0  0  0  0  0  0  0  0  0  0
   39.0310   32.5750   41.9230 H   0  0  0  0  0  0  0  0  0  0  0  0
   38.3620   31.4300   40.7670 H   0  0  0  0  0  0  0  0  0  0  0  0
   37.6320   34.0520   40.7420 H   0  0  0  0  0  0  0  0  0  0  0  0
   37.5390   32.9730   39.3360 H   0  0  0  0  0  0  0  0  0  0  0  0
   38.6930   35.0600   38.6070 H   0  0  0  0  0  0  0  0  0  0  0  0
   41.6500   35.4010   38.5870 S   0  0  0  0  0  0  0  0  0  0  0  0
   41.0730   36.8110   37.7920 C   0  0  0  0  0  0  0  0  0  0  0  0
   41.2020   36.5300   36.4120 C   0  0  0  0  0  0  0  0  0  0  0  0
   41.5530   35.6630   35.8280 H   0  0  0  0  0  0  0  0  0  0  0  0
   40.8410   37.4730   35.4350 C   0  0  0  0  0  3  0  0  0  0  0  0
   40.3490   38.6970   35.8660 C   0  0  0  0  0  0  0  0  0  0  0  0
   40.0420   39.4930   35.1940 H   0  0  0  0  0  0  0  0  0  0  0  0
   40.2070   39.0120   37.1940 C   0  0  0  0  0  0  0  0  0  0  0  0
   39.8350   39.9380   37.6040 H   0  0  0  0  0  0  0  0  0  0  0  0
   40.5810   38.0440   38.0770 C   0  0  0  0  0  3  0  0  0  0  0  0
   43.2190   33.0820   41.0680 C   0  0  0  0  0  0  0  0  0  0  0  0
   43.4360   32.8740   39.9990 H   0  0  0  0  0  0  0  0  0  0  0  0
   43.3170   32.0930   41.5980 H   0  0  0  0  0  0  0  0  0  0  0  0
   44.2130   33.9740   41.6900 C   0  0  0  0  0  0  0  0  0  0  0  0
   43.8220   35.1530   42.2810 C   0  0  0  0  0  0  0  0  0  0  0  0
   44.8010   35.9620   42.8460 C   0  0  0  0  0  0  0  0  0  0  0  0
   46.1000   35.5430   42.7870 N   0  0  0  0  0  0  0  0  0  0  0  0
   46.4390   34.3940   42.2080 C   0  0  0  0  0  0  0  0  0  0  0  0
   45.4820   33.6390   41.6710 N   0  0  0  0  0  0  0  0  0  0  0  0
   42.8730   35.6360   42.4400 H   0  0  0  0  0  0  0  0  0  0  0  0
   44.6800   36.9150   43.3470 H   0  0  0  0  0  0  0  0  0  0  0  0
   47.8520   34.0110   42.2260 C   0  0  0  0  0  0  0  0  0  0  0  0
   48.2210   32.6830   42.0390 C   0  0  0  0  0  0  0  0  0  0  0  0
   49.5540   32.3310   42.0710 C   0  0  0  0  0  0  0  0  0  0  0  0
   50.4090   33.3700   42.2930 C   0  0  0  0  0  0  0  0  0  0  0  0
   50.0990   34.7200   42.4890 C   0  0  0  0  0  0  0  0  0  0  0  0
   48.7600   34.9800   42.4410 N   0  0  0  0  0  0  0  0  0  0  0  0
   47.4670   31.9200   41.8670 H   0  0  0  0  0  0  0  0  0  0  0  0
   49.9180   31.3390   41.9370 H   0  0  0  0  0  0  0  0  0  0  0  0
   51.4860   33.1420   42.3280 H   0  0  0  0  0  0  0  0  0  0  0  0
   50.8460   35.4550   42.6550 H   0  0  0  0  0  0  0  0  0  0  0  0
  1  3  1  0  0  0  0
  1  2  1  0  0  0  0
  4  1  1  0  0  0  0
  5  4  1  0  0  0  0
  5  6  1  0  0  0  0
  5 11  1  0  0  0  0
  6 12  1  0  0  0  0
  7 14  1  0  0  0  0
  7  6  1  0  0  0  0
  8  9  2  0  0  0  0
  8  7  1  0  0  0  0
  9  4  1  0  0  0  0
 10  5  1  0  0  0  0
 13  6  1  0  0  0  0
 15  7  1  0  0  0  0
 16  8  1  0  0  0  0
 17  9  1  0  0  0  0
 18 26  1  0  0  0  0
 18 17  1  0  0  0  0
 19 18  2  0  0  0  0
 20 19  1  0  0  0  0
 21 22  2  0  0  0  0
 21 19  1  0  0  0  0
 22 24  1  0  0  0  0
 23 22  1  0  0  0  0
 24 25  1  0  0  0  0
 24 26  2  0  0  0  0
 27  1  1  0  0  0  0
 27 29  1  0  0  0  0
 27 30  1  0  0  0  0
 28 27  1  0  0  0  0
 30 31  1  0  0  0  0
 31 36  1  0  0  0  0
 31 32  2  0  0  0  0
 32 37  1  0  0  0  0
 33 32  1  0  0  0  0
 34 38  1  0  0  0  0
 34 33  2  0  0  0  0
 35 30  2  0  0  0  0
 35 34  1  0  0  0  0
 38 43  1  0  0  0  0
 39 40  1  0  0  0  0
 39 38  2  0  0  0  0
 40 41  2  0  0  0  0
 41 46  1  0  0  0  0
 41 42  1  0  0  0  0
 42 47  1  0  0  0  0
 43 42  2  0  0  0  0
 44 39  1  0  0  0  0
 45 40  1  0  0  0  0
M  END
>  <minimizedAffinity>
-2.59996581

>  <minimizedRMSD>
0.383826196

$$$$
