
 OpenBabel03252506463D

 42 45  0  0  1  0  0  0  0  0999 V2000
   49.5420   33.4870   41.5250 N   0  0  1  0  0  0  0  0  0  0  0  0
   50.7490   33.2040   42.2560 C   0  0  0  0  0  0  0  0  0  0  0  0
   51.3670   31.8840   41.8940 C   0  0  0  0  0  0  0  0  0  0  0  0
   50.4490   30.7760   42.3620 C   0  0  0  0  0  0  0  0  0  0  0  0
   49.0050   31.1680   42.1740 C   0  0  0  0  0  0  0  0  0  0  0  0
   48.9100   32.2560   41.1140 C   0  0  2  0  0  0  0  0  0  0  0  0
   50.5700   33.1920   43.3640 H   0  0  0  0  0  0  0  0  0  0  0  0
   51.4900   33.9890   41.9900 H   0  0  0  0  0  0  0  0  0  0  0  0
   51.6720   31.8110   40.8490 H   0  0  0  0  0  0  0  0  0  0  0  0
   52.2930   31.8120   42.5240 H   0  0  0  0  0  0  0  0  0  0  0  0
   50.6880   30.4110   43.3740 H   0  0  0  0  0  0  0  0  0  0  0  0
   50.6310   29.9270   41.6520 H   0  0  0  0  0  0  0  0  0  0  0  0
   48.3930   30.3250   41.8040 H   0  0  0  0  0  0  0  0  0  0  0  0
   48.6020   31.5160   43.1240 H   0  0  0  0  0  0  0  0  0  0  0  0
   47.8200   32.4790   41.0200 H   0  0  0  0  0  0  0  0  0  0  0  0
   47.3090   34.6880   42.0210 C   0  0  1  0  0  0  0  0  0  0  0  0
   48.3680   35.6520   41.7520 C   0  0  0  0  0  0  0  0  0  0  0  0
   48.7430   34.3320   42.3450 C   0  0  2  0  0  0  0  0  0  0  0  0
   46.8890   33.9980   41.2520 H   0  0  0  0  0  0  0  0  0  0  0  0
   48.3810   36.5670   42.4050 H   0  0  0  0  0  0  0  0  0  0  0  0
   48.5960   35.8740   40.6970 H   0  0  0  0  0  0  0  0  0  0  0  0
   48.9640   34.3110   43.4320 H   0  0  0  0  0  0  0  0  0  0  0  0
   45.5390   36.0510   43.1700 C   0  0  0  0  0  0  0  0  0  0  0  0
   46.3590   34.8960   43.1430 C   0  0  0  0  0  0  0  0  0  0  0  0
   46.2470   33.9820   44.1880 C   0  0  0  0  0  0  0  0  0  0  0  0
   45.3590   34.2590   45.1670 N   0  0  0  0  0  0  0  0  0  0  0  0
   44.5890   35.3590   45.1780 C   0  0  0  0  0  0  0  0  0  0  0  0
   44.6680   36.2700   44.1810 N   0  0  0  0  0  0  0  0  0  0  0  0
   45.6480   36.7430   42.3450 H   0  0  0  0  0  0  0  0  0  0  0  0
   46.8530   33.0990   44.1960 H   0  0  0  0  0  0  0  0  0  0  0  0
   43.9020   35.5000   46.0060 H   0  0  0  0  0  0  0  0  0  0  0  0
   49.3610   31.7340   39.8670 N   0  0  0  0  0  0  0  0  0  0  0  0
   49.9880   30.8710   39.8800 H   0  0  0  0  0  0  0  0  0  0  0  0
   49.0770   32.2310   38.5680 C   0  0  0  0  0  0  0  0  0  0  0  0
   48.4230   33.3970   38.2940 C   0  0  0  0  0  0  0  0  0  0  0  0
   48.0880   34.0190   39.1060 H   0  0  0  0  0  0  0  0  0  0  0  0
   48.1430   33.8770   37.0450 C   0  0  0  0  0  3  0  0  0  0  0  0
   48.5360   33.1580   35.9530 C   0  0  0  0  0  0  0  0  0  0  0  0
   48.3480   33.4780   34.9490 H   0  0  0  0  0  0  0  0  0  0  0  0
   49.1940   31.9830   36.1530 C   0  0  0  0  0  0  0  0  0  0  0  0
   49.5100   31.4030   35.2900 H   0  0  0  0  0  0  0  0  0  0  0  0
   49.4490   31.5460   37.4280 C   0  0  0  0  0  3  0  0  0  0  0  0
  1  2  1  1  0  0  0
  1 18  1  0  0  0  0
  2  7  1  0  0  0  0
  3  2  1  0  0  0  0
  3  4  1  0  0  0  0
  3 10  1  0  0  0  0
  4 11  1  0  0  0  0
  5  4  1  0  0  0  0
  5 14  1  0  0  0  0
  6 15  1  6  0  0  0
  6  1  1  0  0  0  0
  6  5  1  0  0  0  0
  8  2  1  0  0  0  0
  9  3  1  0  0  0  0
 12  4  1  0  0  0  0
 13  5  1  0  0  0  0
 16 19  1  6  0  0  0
 16 18  1  0  0  0  0
 16 24  1  0  0  0  0
 17 16  1  0  0  0  0
 17 18  1  0  0  0  0
 17 20  1  0  0  0  0
 18 22  1  1  0  0  0
 21 17  1  0  0  0  0
 23 28  1  0  0  0  0
 24 23  2  0  0  0  0
 24 25  1  0  0  0  0
 25 30  1  0  0  0  0
 25 26  2  0  0  0  0
 26 27  1  0  0  0  0
 27 31  1  0  0  0  0
 28 27  2  0  0  0  0
 29 23  1  0  0  0  0
 32 33  1  0  0  0  0
 32  6  1  0  0  0  0
 34 32  1  0  0  0  0
 35 34  1  0  0  0  0
 35 36  1  0  0  0  0
 37 35  2  0  0  0  0
 38 40  2  0  0  0  0
 38 37  1  0  0  0  0
 39 38  1  0  0  0  0
 40 42  1  0  0  0  0
 41 40  1  0  0  0  0
 42 34  2  0  0  0  0
M  END
>  <minimizedAffinity>
-5.34517908

>  <minimizedRMSD>
0.622344434

$$$$
