
 OpenBabel03252507043D

 47 50  0  0  0  0  0  0  0  0999 V2000
   41.9250   33.9060   41.2380 C   0  0  0  0  0  0  0  0  0  0  0  0
   41.5890   33.8690   42.2960 H   0  0  0  0  0  0  0  0  0  0  0  0
   42.1860   35.0100   41.0860 H   0  0  0  0  0  0  0  0  0  0  0  0
   41.0060   33.4560   40.3740 N   0  0  0  0  0  0  0  0  0  0  0  0
   40.3870   32.1660   40.3670 C   0  0  0  0  0  0  0  0  0  0  0  0
   39.0120   32.5590   40.9070 C   0  0  0  0  0  0  0  0  0  0  0  0
   38.3120   33.5330   40.0890 C   0  0  0  0  0  0  0  0  0  0  0  0
   39.0840   34.4030   39.2280 C   0  0  0  0  0  0  0  0  0  0  0  0
   40.5860   34.4310   39.3460 C   0  0  0  0  0  0  0  0  0  0  0  0
   40.3390   31.6090   39.4500 H   0  0  0  0  0  0  0  0  0  0  0  0
   40.8470   31.5180   41.1410 H   0  0  0  0  0  0  0  0  0  0  0  0
   39.1210   32.8150   42.0010 H   0  0  0  0  0  0  0  0  0  0  0  0
   38.4510   31.5790   40.9430 H   0  0  0  0  0  0  0  0  0  0  0  0
   37.6700   34.1780   40.7480 H   0  0  0  0  0  0  0  0  0  0  0  0
   37.5690   33.0000   39.4250 H   0  0  0  0  0  0  0  0  0  0  0  0
   38.6680   35.0500   38.5250 H   0  0  0  0  0  0  0  0  0  0  0  0
   41.6170   35.4420   38.4170 S   0  0  0  0  0  0  0  0  0  0  0  0
   41.0320   36.8840   37.6880 C   0  0  0  0  0  0  0  0  0  0  0  0
   41.1250   36.6510   36.2970 C   0  0  0  0  0  0  0  0  0  0  0  0
   41.4540   35.8050   35.6730 H   0  0  0  0  0  0  0  0  0  0  0  0
   40.7470   37.6320   35.3620 C   0  0  0  0  0  3  0  0  0  0  0  0
   40.2760   38.8440   35.8500 C   0  0  0  0  0  0  0  0  0  0  0  0
   39.9600   39.6660   35.2150 H   0  0  0  0  0  0  0  0  0  0  0  0
   40.1710   39.1130   37.1920 C   0  0  0  0  0  0  0  0  0  0  0  0
   39.8160   40.0250   37.6450 H   0  0  0  0  0  0  0  0  0  0  0  0
   40.5570   38.1090   38.0300 C   0  0  0  0  0  3  0  0  0  0  0  0
   43.2360   33.2120   41.1350 C   0  0  0  0  0  0  0  0  0  0  0  0
   43.4990   32.9180   40.0960 H   0  0  0  0  0  0  0  0  0  0  0  0
   43.2230   32.2560   41.7300 H   0  0  0  0  0  0  0  0  0  0  0  0
   44.2580   34.0670   41.7630 C   0  0  0  0  0  0  0  0  0  0  0  0
   43.9010   35.2410   42.3830 C   0  0  0  0  0  0  0  0  0  0  0  0
   44.9050   36.0150   42.9540 C   0  0  0  0  0  0  0  0  0  0  0  0
   46.1940   35.5660   42.8710 N   0  0  0  0  0  0  0  0  0  0  0  0
   46.4980   34.4220   42.2640 C   0  0  0  0  0  0  0  0  0  0  0  0
   45.5180   33.7020   41.7230 N   0  0  0  0  0  0  0  0  0  0  0  0
   42.9660   35.7430   42.5630 H   0  0  0  0  0  0  0  0  0  0  0  0
   44.8140   36.9590   43.4760 H   0  0  0  0  0  0  0  0  0  0  0  0
   47.9020   34.0060   42.2580 C   0  0  0  0  0  0  0  0  0  0  0  0
   48.2370   32.6730   42.0390 C   0  0  0  0  0  0  0  0  0  0  0  0
   49.5610   32.2890   42.0470 C   0  0  0  0  0  0  0  0  0  0  0  0
   50.4430   33.3020   42.2810 C   0  0  0  0  0  0  0  0  0  0  0  0
   50.1680   34.6550   42.5100 C   0  0  0  0  0  0  0  0  0  0  0  0
   48.8350   34.9480   42.4830 N   0  0  0  0  0  0  0  0  0  0  0  0
   47.4620   31.9320   41.8590 H   0  0  0  0  0  0  0  0  0  0  0  0
   49.9000   31.2920   41.8880 H   0  0  0  0  0  0  0  0  0  0  0  0
   51.5150   33.0480   42.3000 H   0  0  0  0  0  0  0  0  0  0  0  0
   50.9350   35.3680   42.6830 H   0  0  0  0  0  0  0  0  0  0  0  0
  1  2  1  0  0  0  0
  3  1  1  0  0  0  0
  4  1  1  0  0  0  0
  5  4  1  0  0  0  0
  5  6  1  0  0  0  0
  5 11  1  0  0  0  0
  6 13  1  0  0  0  0
  6 12  1  0  0  0  0
  7 14  1  0  0  0  0
  7  6  1  0  0  0  0
  8  9  2  0  0  0  0
  8  7  1  0  0  0  0
  9  4  1  0  0  0  0
 10  5  1  0  0  0  0
 15  7  1  0  0  0  0
 16  8  1  0  0  0  0
 17  9  1  0  0  0  0
 18 26  1  0  0  0  0
 18 17  1  0  0  0  0
 19 18  2  0  0  0  0
 20 19  1  0  0  0  0
 21 22  2  0  0  0  0
 21 19  1  0  0  0  0
 22 24  1  0  0  0  0
 23 22  1  0  0  0  0
 24 25  1  0  0  0  0
 24 26  2  0  0  0  0
 27  1  1  0  0  0  0
 27 29  1  0  0  0  0
 27 30  1  0  0  0  0
 28 27  1  0  0  0  0
 30 31  1  0  0  0  0
 31 36  1  0  0  0  0
 31 32  2  0  0  0  0
 32 37  1  0  0  0  0
 33 32  1  0  0  0  0
 34 33  2  0  0  0  0
 35 30  2  0  0  0  0
 35 34  1  0  0  0  0
 38 34  1  0  0  0  0
 38 43  1  0  0  0  0
 39 40  1  0  0  0  0
 39 38  2  0  0  0  0
 40 41  2  0  0  0  0
 41 46  1  0  0  0  0
 41 42  1  0  0  0  0
 42 47  1  0  0  0  0
 43 42  2  0  0  0  0
 44 39  1  0  0  0  0
 45 40  1  0  0  0  0
M  END
>  <minimizedAffinity>
-2.60558248

>  <minimizedRMSD>
0.345503896

$$$$
