
 OpenBabel03252507043D

 47 50  0  0  0  0  0  0  0  0999 V2000
   41.7960   33.8000   41.3360 C   0  0  0  0  0  0  0  0  0  0  0  0
   41.4260   33.7250   42.3810 H   0  0  0  0  0  0  0  0  0  0  0  0
   42.0590   34.9080   41.2310 H   0  0  0  0  0  0  0  0  0  0  0  0
   40.9060   33.3780   40.4280 N   0  0  0  0  0  0  0  0  0  0  0  0
   40.2130   32.1270   40.4160 C   0  0  0  0  0  0  0  0  0  0  0  0
   38.8330   32.6150   40.8580 C   0  0  0  0  0  0  0  0  0  0  0  0
   38.2440   33.6040   39.9720 C   0  0  0  0  0  0  0  0  0  0  0  0
   39.1180   34.4020   39.1390 C   0  0  0  0  0  0  0  0  0  0  0  0
   40.6090   34.3450   39.3510 C   0  0  0  0  0  0  0  0  0  0  0  0
   40.1880   31.5470   39.5120 H   0  0  0  0  0  0  0  0  0  0  0  0
   40.5850   31.4770   41.2340 H   0  0  0  0  0  0  0  0  0  0  0  0
   38.8900   32.8970   41.9490 H   0  0  0  0  0  0  0  0  0  0  0  0
   38.2130   31.6710   40.8840 H   0  0  0  0  0  0  0  0  0  0  0  0
   37.6030   34.3050   40.5730 H   0  0  0  0  0  0  0  0  0  0  0  0
   37.5130   33.0960   39.2760 H   0  0  0  0  0  0  0  0  0  0  0  0
   38.7860   35.0510   38.3950 H   0  0  0  0  0  0  0  0  0  0  0  0
   41.7540   35.2670   38.4630 S   0  0  0  0  0  0  0  0  0  0  0  0
   41.2560   36.5040   37.3800 C   0  0  0  0  0  0  0  0  0  0  0  0
   40.7880   37.5490   38.2090 C   0  0  0  0  0  0  0  0  0  0  0  0
   40.7100   37.6950   39.2990 H   0  0  0  0  0  0  0  0  0  0  0  0
   40.2740   38.7410   37.6700 C   0  0  0  0  0  3  0  0  0  0  0  0
   40.2380   38.8630   36.2870 C   0  0  0  0  0  0  0  0  0  0  0  0
   39.8620   39.7400   35.7710 H   0  0  0  0  0  0  0  0  0  0  0  0
   40.6820   37.8750   35.4440 C   0  0  0  0  0  0  0  0  0  0  0  0
   40.6860   37.8970   34.3660 H   0  0  0  0  0  0  0  0  0  0  0  0
   41.1640   36.7510   36.0480 C   0  0  0  0  0  3  0  0  0  0  0  0
   43.1110   33.1120   41.2510 C   0  0  0  0  0  0  0  0  0  0  0  0
   43.3590   32.7570   40.2270 H   0  0  0  0  0  0  0  0  0  0  0  0
   43.1180   32.1940   41.9040 H   0  0  0  0  0  0  0  0  0  0  0  0
   44.1360   34.0120   41.8070 C   0  0  0  0  0  0  0  0  0  0  0  0
   43.7790   35.2170   42.3650 C   0  0  0  0  0  0  0  0  0  0  0  0
   44.7860   36.0330   42.8690 C   0  0  0  0  0  0  0  0  0  0  0  0
   46.0780   35.5930   42.7840 N   0  0  0  0  0  0  0  0  0  0  0  0
   46.3830   34.4190   42.2380 C   0  0  0  0  0  0  0  0  0  0  0  0
   45.3990   33.6580   41.7610 N   0  0  0  0  0  0  0  0  0  0  0  0
   42.8420   35.7190   42.5370 H   0  0  0  0  0  0  0  0  0  0  0  0
   44.6940   37.0050   43.3370 H   0  0  0  0  0  0  0  0  0  0  0  0
   47.7900   34.0180   42.2260 C   0  0  0  0  0  0  0  0  0  0  0  0
   48.1380   32.6870   42.0120 C   0  0  0  0  0  0  0  0  0  0  0  0
   49.4660   32.3170   42.0140 C   0  0  0  0  0  0  0  0  0  0  0  0
   50.3390   33.3410   42.2370 C   0  0  0  0  0  0  0  0  0  0  0  0
   50.0510   34.6920   42.4590 C   0  0  0  0  0  0  0  0  0  0  0  0
   48.7150   34.9710   42.4390 N   0  0  0  0  0  0  0  0  0  0  0  0
   47.3700   31.9370   41.8410 H   0  0  0  0  0  0  0  0  0  0  0  0
   49.8150   31.3230   41.8590 H   0  0  0  0  0  0  0  0  0  0  0  0
   51.4140   33.0980   42.2500 H   0  0  0  0  0  0  0  0  0  0  0  0
   50.8110   35.4140   42.6240 H   0  0  0  0  0  0  0  0  0  0  0  0
  1  2  1  0  0  0  0
  3  1  1  0  0  0  0
  4  1  1  0  0  0  0
  5  4  1  0  0  0  0
  5  6  1  0  0  0  0
  5 11  1  0  0  0  0
  6 13  1  0  0  0  0
  6 12  1  0  0  0  0
  7 14  1  0  0  0  0
  7  6  1  0  0  0  0
  8  9  2  0  0  0  0
  8  7  1  0  0  0  0
  9  4  1  0  0  0  0
 10  5  1  0  0  0  0
 15  7  1  0  0  0  0
 16  8  1  0  0  0  0
 17  9  1  0  0  0  0
 18 19  1  0  0  0  0
 18 17  1  0  0  0  0
 19 20  1  0  0  0  0
 21 19  2  0  0  0  0
 22 21  1  0  0  0  0
 23 22  1  0  0  0  0
 24 26  1  0  0  0  0
 24 22  2  0  0  0  0
 25 24  1  0  0  0  0
 26 18  2  0  0  0  0
 27  1  1  0  0  0  0
 27 30  1  0  0  0  0
 27 29  1  0  0  0  0
 28 27  1  0  0  0  0
 30 31  1  0  0  0  0
 31 36  1  0  0  0  0
 31 32  2  0  0  0  0
 32 37  1  0  0  0  0
 33 32  1  0  0  0  0
 34 33  2  0  0  0  0
 35 30  2  0  0  0  0
 35 34  1  0  0  0  0
 38 34  1  0  0  0  0
 38 43  1  0  0  0  0
 39 40  1  0  0  0  0
 39 38  2  0  0  0  0
 40 41  2  0  0  0  0
 41 46  1  0  0  0  0
 41 42  1  0  0  0  0
 42 47  1  0  0  0  0
 43 42  2  0  0  0  0
 44 39  1  0  0  0  0
 45 40  1  0  0  0  0
M  END
>  <minimizedAffinity>
-2.85823584

>  <minimizedRMSD>
0.335301787

$$$$
