
 OpenBabel03252509083D

 41 44  0  0  0  0  0  0  0  0999 V2000
   47.4660   31.7820   38.7380 C   0  0  0  0  0  0  0  0  0  0  0  0
   47.1350   33.0970   38.8770 C   0  0  0  0  0  0  0  0  0  0  0  0
   47.8580   34.0650   38.2010 C   0  0  0  0  0  0  0  0  0  0  0  0
   48.9090   33.7090   37.3900 C   0  0  0  0  0  0  0  0  0  0  0  0
   49.2810   32.3790   37.2210 C   0  0  0  0  0  0  0  0  0  0  0  0
   48.5350   31.4190   37.9150 C   0  0  0  0  0  0  0  0  0  0  0  0
   47.6210   35.1160   38.2890 H   0  0  0  0  0  0  0  0  0  0  0  0
   49.5340   34.3760   36.8240 H   0  0  0  0  0  0  0  0  0  0  0  0
   50.0820   32.0140   36.6130 H   0  0  0  0  0  0  0  0  0  0  0  0
   48.8060   30.3610   37.8000 H   0  0  0  0  0  0  0  0  0  0  0  0
   45.4790   35.2880   43.2510 Cl  0  0  0  0  0  0  0  0  0  0  0  0
   45.2490   34.5580   41.6820 C   0  0  0  0  0  0  0  0  0  0  0  0
   46.3040   34.1390   40.9380 C   0  0  0  0  0  0  0  0  0  0  0  0
   46.0320   33.5800   39.7010 C   0  0  0  0  0  0  0  0  0  0  0  0
   44.7500   33.4510   39.2330 C   0  0  0  0  0  0  0  0  0  0  0  0
   43.7000   33.8720   39.9850 C   0  0  0  0  0  0  0  0  0  0  0  0
   43.9630   34.4290   41.2190 C   0  0  0  0  0  0  0  0  0  0  0  0
   44.5830   33.0110   38.2610 H   0  0  0  0  0  0  0  0  0  0  0  0
   42.7100   33.7530   39.5840 H   0  0  0  0  0  0  0  0  0  0  0  0
   43.0890   34.7510   41.7850 H   0  0  0  0  0  0  0  0  0  0  0  0
   49.6020   35.6690   41.9960 C   0  0  0  0  0  0  0  0  0  0  0  0
   48.3070   35.5230   41.4860 C   0  0  0  0  0  0  0  0  0  0  0  0
   47.6530   34.3030   41.4610 C   0  0  0  0  0  0  0  0  0  0  0  0
   48.3790   33.3020   41.9660 N   0  0  0  0  0  0  0  0  0  0  0  0
   49.6090   33.4140   42.4560 C   0  0  0  0  0  0  0  0  0  0  0  0
   50.2170   34.5980   42.4700 N   0  0  0  0  0  0  0  0  0  0  0  0
   50.0850   36.6440   42.0000 H   0  0  0  0  0  0  0  0  0  0  0  0
   47.7940   36.4060   41.0940 H   0  0  0  0  0  0  0  0  0  0  0  0
   49.9730   32.4400   42.8050 H   0  0  0  0  0  0  0  0  0  0  0  0
   46.6350   30.5630   39.5550 S   0  0  0  0  0  0  0  0  0  0  0  0
   45.2950   30.2790   38.8340 O   0  0  0  0  0  0  0  0  0  0  0  0
   47.4370   29.2770   39.3220 O   0  0  0  0  0  0  0  0  0  0  0  0
   46.0860   30.6470   41.1720 C   0  0  0  0  0  0  0  0  0  0  0  0
   44.8020   30.8280   41.6700 C   0  0  0  0  0  0  0  0  0  0  0  0
   44.0200   30.9230   40.9360 H   0  0  0  0  0  0  0  0  0  0  0  0
   44.3960   30.9360   42.9760 C   0  0  0  0  0  0  0  0  0  0  0  0
   45.3920   30.8570   43.9190 C   0  0  0  0  0  0  0  0  0  0  0  0
   45.1200   30.9360   44.9620 H   0  0  0  0  0  0  0  0  0  0  0  0
   46.7240   30.6820   43.6300 C   0  0  0  0  0  0  0  0  0  0  0  0
   47.5420   30.6130   44.3240 H   0  0  0  0  0  0  0  0  0  0  0  0
   46.9790   30.5890   42.2790 C   0  0  0  0  0  0  0  0  0  0  0  0
  1  2  1  0  0  0  0
  1 30  1  0  0  0  0
  2 14  1  0  0  0  0
  3  7  1  0  0  0  0
  3  2  2  0  0  0  0
  4  3  1  0  0  0  0
  5  4  2  0  0  0  0
  5  6  1  0  0  0  0
  6  1  2  0  0  0  0
  8  4  1  0  0  0  0
  9  5  1  0  0  0  0
 10  6  1  0  0  0  0
 12 11  1  0  0  0  0
 13 23  1  0  0  0  0
 13 12  2  0  0  0  0
 14 13  1  0  0  0  0
 15 14  2  0  0  0  0
 15 16  1  0  0  0  0
 16 17  2  0  0  0  0
 17 12  1  0  0  0  0
 17 20  1  0  0  0  0
 18 15  1  0  0  0  0
 19 16  1  0  0  0  0
 21 27  1  0  0  0  0
 21 26  1  0  0  0  0
 22 21  2  0  0  0  0
 23 22  1  0  0  0  0
 23 24  2  0  0  0  0
 24 25  1  0  0  0  0
 25 26  2  0  0  0  0
 25 29  1  0  0  0  0
 28 22  1  0  0  0  0
 30 33  1  0  0  0  0
 31 30  2  0  0  0  0
 32 30  2  0  0  0  0
 33 34  2  0  0  0  0
 33 41  1  0  0  0  0
 34 36  1  0  0  0  0
 35 34  1  0  0  0  0
 36 37  2  0  0  0  0
 37 38  1  0  0  0  0
 39 37  1  0  0  0  0
 39 40  1  0  0  0  0
 41 39  2  0  0  0  0
M  END
>  <minimizedAffinity>
-4.79268742

>  <minimizedRMSD>
1.0974648

$$$$
