
 OpenBabel03252509273D

 30 32  0  0  1  0  0  0  0  0999 V2000
   36.2320   29.8680   40.7770 C   0  0  1  0  0  0  0  0  0  0  0  0
   35.0610   28.8750   40.5300 C   0  0  0  0  0  0  0  0  0  0  0  0
   36.4710   28.5240   41.1000 C   0  0  2  0  0  0  0  0  0  0  0  0
   35.9960   30.6450   41.5330 H   0  0  0  0  0  0  0  0  0  0  0  0
   34.8390   28.5620   39.5080 H   0  0  0  0  0  0  0  0  0  0  0  0
   34.2530   28.9400   41.2730 H   0  0  0  0  0  0  0  0  0  0  0  0
   37.0310   27.8250   40.4050 H   0  0  0  0  0  0  0  0  0  0  0  0
   37.5560   32.1620   38.1180 C   0  0  0  0  0  0  0  0  0  0  0  0
   37.0390   31.7480   39.3920 C   0  0  0  0  0  0  0  0  0  0  0  0
   36.7230   30.4330   39.4650 C   0  0  0  0  0  0  0  0  0  0  0  0
   36.8830   29.5690   38.4040 N   0  0  0  0  0  0  0  0  0  0  0  0
   37.3730   30.0040   37.2210 C   0  0  0  0  0  0  0  0  0  0  0  0
   37.7120   31.3110   37.0800 N   0  0  0  0  0  0  0  0  0  0  0  0
   37.8250   33.2210   38.0180 H   0  0  0  0  0  0  0  0  0  0  0  0
   37.5240   29.3980   36.3600 H   0  0  0  0  0  0  0  0  0  0  0  0
   36.8530   32.6360   40.4620 N   0  0  0  0  0  0  0  0  0  0  0  0
   36.1930   33.3890   40.1020 H   0  0  0  0  0  0  0  0  0  0  0  0
   37.2540   32.5910   41.4030 H   0  0  0  0  0  0  0  0  0  0  0  0
   36.5760   28.0460   42.5280 C   0  0  0  0  0  0  0  0  0  0  0  0
   36.8960   28.8950   43.1880 H   0  0  0  0  0  0  0  0  0  0  0  0
   35.5690   27.7400   42.8570 H   0  0  0  0  0  0  0  0  0  0  0  0
   37.5740   26.9530   42.6940 C   0  0  0  0  0  0  0  0  0  0  0  0
   37.3190   25.7300   42.0780 C   0  0  0  0  0  0  0  0  0  0  0  0
   36.4340   25.5310   41.4840 H   0  0  0  0  0  0  0  0  0  0  0  0
   38.2680   24.7420   42.2560 C   0  0  0  0  0  3  0  0  0  0  0  0
   39.4270   24.9320   43.0070 C   0  0  0  0  0  0  0  0  0  0  0  0
   40.1710   24.1570   43.1460 H   0  0  0  0  0  0  0  0  0  0  0  0
   39.6200   26.1570   43.5870 C   0  0  0  0  0  0  0  0  0  0  0  0
   40.5160   26.3170   44.1730 H   0  0  0  0  0  0  0  0  0  0  0  0
   38.6970   27.1650   43.4320 C   0  0  0  0  0  3  0  0  0  0  0  0
  1  3  1  0  0  0  0
  1  4  1  1  0  0  0
  2  1  1  0  0  0  0
  2  3  1  0  0  0  0
  2  6  1  0  0  0  0
  3  7  1  6  0  0  0
  3 19  1  0  0  0  0
  5  2  1  0  0  0  0
  8  9  1  0  0  0  0
  9 10  2  0  0  0  0
  9 16  1  0  0  0  0
 10  1  1  0  0  0  0
 11 10  1  0  0  0  0
 12 11  2  0  0  0  0
 13 12  1  0  0  0  0
 13  8  2  0  0  0  0
 14  8  1  0  0  0  0
 15 12  1  0  0  0  0
 16 18  1  0  0  0  0
 17 16  1  0  0  0  0
 19 22  1  0  0  0  0
 19 21  1  0  0  0  0
 19 20  1  0  0  0  0
 22 30  1  0  0  0  0
 23 25  1  0  0  0  0
 23 22  2  0  0  0  0
 24 23  1  0  0  0  0
 25 26  2  0  0  0  0
 26 27  1  0  0  0  0
 26 28  1  0  0  0  0
 28 29  1  0  0  0  0
 30 28  2  0  0  0  0
M  END
>  <minimizedAffinity>
-5.57012463

$$$$

 OpenBabel03252509273D

 30 32  0  0  1  0  0  0  0  0999 V2000
   37.1940   26.7110   42.3490 C   0  0  1  0  0  0  0  0  0  0  0  0
   36.4190   27.4180   43.4980 C   0  0  0  0  0  0  0  0  0  0  0  0
   36.8800   28.0650   42.1550 C   0  0  2  0  0  0  0  0  0  0  0  0
   36.6260   25.8810   41.8830 H   0  0  0  0  0  0  0  0  0  0  0  0
   36.9590   27.7010   44.4040 H   0  0  0  0  0  0  0  0  0  0  0  0
   35.3550   27.1490   43.5530 H   0  0  0  0  0  0  0  0  0  0  0  0
   37.6330   28.8930   42.3350 H   0  0  0  0  0  0  0  0  0  0  0  0
   40.3090   24.7640   43.1160 C   0  0  0  0  0  0  0  0  0  0  0  0
   38.9580   25.0190   42.7000 C   0  0  0  0  0  0  0  0  0  0  0  0
   38.5720   26.3120   42.8180 C   0  0  0  0  0  0  0  0  0  0  0  0
   39.4080   27.2970   43.2980 N   0  0  0  0  0  0  0  0  0  0  0  0
   40.6730   27.0100   43.6790 C   0  0  0  0  0  0  0  0  0  0  0  0
   41.1250   25.7340   43.5860 N   0  0  0  0  0  0  0  0  0  0  0  0
   40.6610   23.7280   43.0350 H   0  0  0  0  0  0  0  0  0  0  0  0
   41.3740   27.7160   44.0580 H   0  0  0  0  0  0  0  0  0  0  0  0
   38.1020   24.0080   42.2370 N   0  0  0  0  0  0  0  0  0  0  0  0
   38.0440   23.2950   43.0230 H   0  0  0  0  0  0  0  0  0  0  0  0
   37.6210   23.9480   41.3360 H   0  0  0  0  0  0  0  0  0  0  0  0
   35.8280   28.5130   41.1690 C   0  0  0  0  0  0  0  0  0  0  0  0
   35.5910   27.6750   40.4620 H   0  0  0  0  0  0  0  0  0  0  0  0
   34.9070   28.7320   41.7340 H   0  0  0  0  0  0  0  0  0  0  0  0
   36.2700   29.6750   40.3490 C   0  0  0  0  0  0  0  0  0  0  0  0
   36.5780   30.8640   41.0050 C   0  0  0  0  0  0  0  0  0  0  0  0
   36.5150   30.9900   42.0790 H   0  0  0  0  0  0  0  0  0  0  0  0
   36.9840   31.9190   40.2090 C   0  0  0  0  0  3  0  0  0  0  0  0
   37.0870   31.8250   38.8220 C   0  0  0  0  0  0  0  0  0  0  0  0
   37.4050   32.6520   38.1990 H   0  0  0  0  0  0  0  0  0  0  0  0
   36.7700   30.6280   38.2370 C   0  0  0  0  0  0  0  0  0  0  0  0
   36.8450   30.5430   37.1600 H   0  0  0  0  0  0  0  0  0  0  0  0
   36.3620   29.5560   38.9960 C   0  0  0  0  0  3  0  0  0  0  0  0
  1  4  1  6  0  0  0
  1 10  1  0  0  0  0
  1  2  1  0  0  0  0
  2  6  1  0  0  0  0
  2  5  1  0  0  0  0
  3  7  1  1  0  0  0
  3  1  1  0  0  0  0
  3  2  1  0  0  0  0
  8 13  1  0  0  0  0
  9 10  1  0  0  0  0
  9  8  2  0  0  0  0
 10 11  2  0  0  0  0
 11 12  1  0  0  0  0
 12 15  1  0  0  0  0
 13 12  2  0  0  0  0
 14  8  1  0  0  0  0
 16  9  1  0  0  0  0
 16 17  1  0  0  0  0
 18 16  1  0  0  0  0
 19 21  1  0  0  0  0
 19  3  1  0  0  0  0
 20 19  1  0  0  0  0
 22 23  1  0  0  0  0
 22 19  1  0  0  0  0
 23 24  1  0  0  0  0
 25 23  2  0  0  0  0
 26 25  1  0  0  0  0
 27 26  1  0  0  0  0
 28 26  2  0  0  0  0
 28 30  1  0  0  0  0
 29 28  1  0  0  0  0
 30 22  2  0  0  0  0
M  END
>  <minimizedAffinity>
-5.51906252

$$$$

 OpenBabel03252509273D

 30 32  0  0  1  0  0  0  0  0999 V2000
   37.6360   32.1920   39.4790 C   0  0  1  0  0  0  0  0  0  0  0  0
   37.2110   31.3900   38.2150 C   0  0  0  0  0  0  0  0  0  0  0  0
   37.4970   30.8050   39.6330 C   0  0  2  0  0  0  0  0  0  0  0  0
   36.8710   32.9230   39.8120 H   0  0  0  0  0  0  0  0  0  0  0  0
   37.9510   31.2020   37.4350 H   0  0  0  0  0  0  0  0  0  0  0  0
   36.1490   31.4970   37.9520 H   0  0  0  0  0  0  0  0  0  0  0  0
   38.3860   30.1020   39.6150 H   0  0  0  0  0  0  0  0  0  0  0  0
   40.8000   34.1610   39.9240 C   0  0  0  0  0  0  0  0  0  0  0  0
   39.4650   33.6970   40.1800 C   0  0  0  0  0  0  0  0  0  0  0  0
   39.0030   32.8000   39.2760 C   0  0  0  0  0  0  0  0  0  0  0  0
   39.7530   32.3730   38.2020 N   0  0  0  0  0  0  0  0  0  0  0  0
   41.0060   32.8380   38.0000 C   0  0  0  0  0  0  0  0  0  0  0  0
   41.5320   33.7380   38.8690 N   0  0  0  0  0  0  0  0  0  0  0  0
   41.2110   34.8890   40.6350 H   0  0  0  0  0  0  0  0  0  0  0  0
   41.6430   32.5550   37.1950 H   0  0  0  0  0  0  0  0  0  0  0  0
   38.6950   34.1540   41.2600 N   0  0  0  0  0  0  0  0  0  0  0  0
   38.6280   35.2090   41.1410 H   0  0  0  0  0  0  0  0  0  0  0  0
   38.2730   33.6080   42.0160 H   0  0  0  0  0  0  0  0  0  0  0  0
   36.3550   30.1920   40.4070 C   0  0  0  0  0  0  0  0  0  0  0  0
   35.7020   31.0040   40.8240 H   0  0  0  0  0  0  0  0  0  0  0  0
   35.7390   29.6120   39.6990 H   0  0  0  0  0  0  0  0  0  0  0  0
   36.8200   29.3620   41.5530 C   0  0  0  0  0  0  0  0  0  0  0  0
   36.1630   28.1590   41.8020 C   0  0  0  0  0  0  0  0  0  0  0  0
   35.3340   27.7940   41.2080 H   0  0  0  0  0  0  0  0  0  0  0  0
   36.6240   27.4180   42.8740 C   0  0  0  0  0  3  0  0  0  0  0  0
   37.6850   27.8290   43.6790 C   0  0  0  0  0  0  0  0  0  0  0  0
   38.0460   27.2470   44.5180 H   0  0  0  0  0  0  0  0  0  0  0  0
   38.2890   29.0210   43.3810 C   0  0  0  0  0  0  0  0  0  0  0  0
   39.1140   29.3520   43.9990 H   0  0  0  0  0  0  0  0  0  0  0  0
   37.8590   29.7860   42.3220 C   0  0  0  0  0  3  0  0  0  0  0  0
  1  3  1  0  0  0  0
  1  4  1  1  0  0  0
  2  1  1  0  0  0  0
  2  3  1  0  0  0  0
  3  7  1  1  0  0  0
  3 19  1  0  0  0  0
  5  2  1  0  0  0  0
  6  2  1  0  0  0  0
  8  9  1  0  0  0  0
  8 14  1  0  0  0  0
  9 16  1  0  0  0  0
 10  1  1  0  0  0  0
 10  9  2  0  0  0  0
 11 10  1  0  0  0  0
 12 11  2  0  0  0  0
 12 13  1  0  0  0  0
 13  8  2  0  0  0  0
 15 12  1  0  0  0  0
 16 18  1  0  0  0  0
 17 16  1  0  0  0  0
 19 20  1  0  0  0  0
 19 22  1  0  0  0  0
 21 19  1  0  0  0  0
 22 23  2  0  0  0  0
 22 30  1  0  0  0  0
 23 25  1  0  0  0  0
 24 23  1  0  0  0  0
 25 26  2  0  0  0  0
 26 27  1  0  0  0  0
 28 26  1  0  0  0  0
 28 29  1  0  0  0  0
 30 28  2  0  0  0  0
M  END
>  <minimizedAffinity>
-5.47549295

$$$$

 OpenBabel03252509273D

 30 32  0  0  1  0  0  0  0  0999 V2000
   36.9660   31.2980   39.7990 C   0  0  1  0  0  0  0  0  0  0  0  0
   36.9540   30.7340   38.3500 C   0  0  0  0  0  0  0  0  0  0  0  0
   37.0610   29.9040   39.6670 C   0  0  2  0  0  0  0  0  0  0  0  0
   36.0290   31.8220   40.0740 H   0  0  0  0  0  0  0  0  0  0  0  0
   37.8540   30.8260   37.7390 H   0  0  0  0  0  0  0  0  0  0  0  0
   35.9630   30.7410   37.8730 H   0  0  0  0  0  0  0  0  0  0  0  0
   38.0510   29.3560   39.7270 H   0  0  0  0  0  0  0  0  0  0  0  0
   39.3580   34.1610   40.2050 C   0  0  0  0  0  0  0  0  0  0  0  0
   38.1360   33.4710   39.9030 C   0  0  0  0  0  0  0  0  0  0  0  0
   38.2090   32.1240   40.0270 C   0  0  0  0  0  0  0  0  0  0  0  0
   39.3620   31.4740   40.4110 N   0  0  0  0  0  0  0  0  0  0  0  0
   40.4910   32.1660   40.6850 C   0  0  0  0  0  0  0  0  0  0  0  0
   40.4870   33.5190   40.5810 N   0  0  0  0  0  0  0  0  0  0  0  0
   39.3400   35.2540   40.1160 H   0  0  0  0  0  0  0  0  0  0  0  0
   41.4170   31.7340   40.9850 H   0  0  0  0  0  0  0  0  0  0  0  0
   36.9710   34.1350   39.4870 N   0  0  0  0  0  0  0  0  0  0  0  0
   37.2400   34.6670   38.6070 H   0  0  0  0  0  0  0  0  0  0  0  0
   36.0440   34.1230   39.9220 H   0  0  0  0  0  0  0  0  0  0  0  0
   35.9240   28.9820   40.0350 C   0  0  0  0  0  0  0  0  0  0  0  0
   35.1810   29.5330   40.6700 H   0  0  0  0  0  0  0  0  0  0  0  0
   35.4060   28.6950   39.1050 H   0  0  0  0  0  0  0  0  0  0  0  0
   36.3780   27.7950   40.8110 C   0  0  0  0  0  0  0  0  0  0  0  0
   36.5580   27.9360   42.1850 C   0  0  0  0  0  0  0  0  0  0  0  0
   36.3860   28.8630   42.7190 H   0  0  0  0  0  0  0  0  0  0  0  0
   36.9800   26.8130   42.8690 C   0  0  0  0  0  3  0  0  0  0  0  0
   37.2200   25.5900   42.2430 C   0  0  0  0  0  0  0  0  0  0  0  0
   37.5500   24.7100   42.7800 H   0  0  0  0  0  0  0  0  0  0  0  0
   37.0240   25.5150   40.8900 C   0  0  0  0  0  0  0  0  0  0  0  0
   37.2070   24.5720   40.3920 H   0  0  0  0  0  0  0  0  0  0  0  0
   36.6040   26.6130   40.1750 C   0  0  0  0  0  3  0  0  0  0  0  0
  1 10  1  0  0  0  0
  1  4  1  1  0  0  0
  2  3  1  0  0  0  0
  2  1  1  0  0  0  0
  3  7  1  1  0  0  0
  3  1  1  0  0  0  0
  3 19  1  0  0  0  0
  5  2  1  0  0  0  0
  6  2  1  0  0  0  0
  8 13  1  0  0  0  0
  9 10  1  0  0  0  0
  9  8  2  0  0  0  0
 10 11  2  0  0  0  0
 11 12  1  0  0  0  0
 12 15  1  0  0  0  0
 13 12  2  0  0  0  0
 14  8  1  0  0  0  0
 16  9  1  0  0  0  0
 16 18  1  0  0  0  0
 17 16  1  0  0  0  0
 19 20  1  0  0  0  0
 19 22  1  0  0  0  0
 21 19  1  0  0  0  0
 22 23  1  0  0  0  0
 23 24  1  0  0  0  0
 23 25  2  0  0  0  0
 26 27  1  0  0  0  0
 26 25  1  0  0  0  0
 28 26  2  0  0  0  0
 29 28  1  0  0  0  0
 30 22  2  0  0  0  0
 30 28  1  0  0  0  0
M  END
>  <minimizedAffinity>
-5.28355217

$$$$

 OpenBabel03252509273D

 30 32  0  0  1  0  0  0  0  0999 V2000
   38.2650   30.3610   41.3160 C   0  0  1  0  0  0  0  0  0  0  0  0
   38.9490   29.1380   40.6410 C   0  0  0  0  0  0  0  0  0  0  0  0
   38.8690   29.4280   42.1720 C   0  0  2  0  0  0  0  0  0  0  0  0
   37.1710   30.4060   41.1370 H   0  0  0  0  0  0  0  0  0  0  0  0
   39.9160   29.2760   40.1520 H   0  0  0  0  0  0  0  0  0  0  0  0
   38.2460   28.3820   40.2640 H   0  0  0  0  0  0  0  0  0  0  0  0
   39.9000   29.5900   42.6130 H   0  0  0  0  0  0  0  0  0  0  0  0
   39.0550   33.8900   40.3130 C   0  0  0  0  0  0  0  0  0  0  0  0
   38.2680   32.7180   40.5780 C   0  0  0  0  0  0  0  0  0  0  0  0
   38.9900   31.6330   40.9480 C   0  0  0  0  0  0  0  0  0  0  0  0
   40.3630   31.6560   41.0600 N   0  0  0  0  0  0  0  0  0  0  0  0
   41.0630   32.7840   40.7990 C   0  0  0  0  0  0  0  0  0  0  0  0
   40.4020   33.9080   40.4240 N   0  0  0  0  0  0  0  0  0  0  0  0
   38.5060   34.7910   40.0100 H   0  0  0  0  0  0  0  0  0  0  0  0
   42.1210   32.8760   40.8630 H   0  0  0  0  0  0  0  0  0  0  0  0
   36.8720   32.6920   40.4380 N   0  0  0  0  0  0  0  0  0  0  0  0
   36.6780   32.9620   39.4280 H   0  0  0  0  0  0  0  0  0  0  0  0
   36.1670   32.4630   41.1430 H   0  0  0  0  0  0  0  0  0  0  0  0
   38.0620   28.4950   43.0430 C   0  0  0  0  0  0  0  0  0  0  0  0
   38.0780   28.8610   44.1040 H   0  0  0  0  0  0  0  0  0  0  0  0
   37.0140   28.5350   42.7020 H   0  0  0  0  0  0  0  0  0  0  0  0
   38.5980   27.1060   43.0440 C   0  0  0  0  0  0  0  0  0  0  0  0
   39.8140   26.8700   43.6800 C   0  0  0  0  0  0  0  0  0  0  0  0
   40.3920   27.6420   44.1730 H   0  0  0  0  0  0  0  0  0  0  0  0
   40.2770   25.5680   43.6580 C   0  0  0  0  0  3  0  0  0  0  0  0
   39.5850   24.5280   43.0410 C   0  0  0  0  0  0  0  0  0  0  0  0
   39.9480   23.5080   43.0250 H   0  0  0  0  0  0  0  0  0  0  0  0
   38.3940   24.8240   42.4340 C   0  0  0  0  0  0  0  0  0  0  0  0
   37.8470   24.0250   41.9500 H   0  0  0  0  0  0  0  0  0  0  0  0
   37.9010   26.1090   42.4340 C   0  0  0  0  0  3  0  0  0  0  0  0
  1  4  1  6  0  0  0
  1  3  1  0  0  0  0
  2  1  1  0  0  0  0
  2  3  1  0  0  0  0
  3  7  1  1  0  0  0
  3 19  1  0  0  0  0
  5  2  1  0  0  0  0
  6  2  1  0  0  0  0
  8 13  2  0  0  0  0
  8  9  1  0  0  0  0
  9 10  2  0  0  0  0
 10 11  1  0  0  0  0
 10  1  1  0  0  0  0
 12 15  1  0  0  0  0
 12 11  2  0  0  0  0
 13 12  1  0  0  0  0
 14  8  1  0  0  0  0
 16  9  1  0  0  0  0
 16 18  1  0  0  0  0
 17 16  1  0  0  0  0
 19 22  1  0  0  0  0
 19 20  1  0  0  0  0
 21 19  1  0  0  0  0
 22 23  1  0  0  0  0
 23 24  1  0  0  0  0
 25 23  2  0  0  0  0
 26 25  1  0  0  0  0
 27 26  1  0  0  0  0
 28 26  2  0  0  0  0
 29 28  1  0  0  0  0
 30 28  1  0  0  0  0
 30 22  2  0  0  0  0
M  END
>  <minimizedAffinity>
-5.28131723

$$$$

 OpenBabel03252509273D

 30 32  0  0  1  0  0  0  0  0999 V2000
   38.9550   29.2120   42.7960 C   0  0  1  0  0  0  0  0  0  0  0  0
   37.7270   28.7410   43.6280 C   0  0  0  0  0  0  0  0  0  0  0  0
   38.4120   27.9620   42.4620 C   0  0  2  0  0  0  0  0  0  0  0  0
   39.8750   29.3350   43.4040 H   0  0  0  0  0  0  0  0  0  0  0  0
   36.7510   29.1880   43.4290 H   0  0  0  0  0  0  0  0  0  0  0  0
   37.9770   28.3940   44.6400 H   0  0  0  0  0  0  0  0  0  0  0  0
   37.7030   27.8240   41.5880 H   0  0  0  0  0  0  0  0  0  0  0  0
   39.0840   32.5240   41.0360 C   0  0  0  0  0  0  0  0  0  0  0  0
   39.5010   31.4410   41.8820 C   0  0  0  0  0  0  0  0  0  0  0  0
   38.5990   30.4350   41.9860 C   0  0  0  0  0  0  0  0  0  0  0  0
   37.3850   30.4540   41.3350 N   0  0  0  0  0  0  0  0  0  0  0  0
   37.0340   31.4970   40.5490 C   0  0  0  0  0  0  0  0  0  0  0  0
   37.8920   32.5380   40.4000 N   0  0  0  0  0  0  0  0  0  0  0  0
   39.7870   33.3590   40.9250 H   0  0  0  0  0  0  0  0  0  0  0  0
   36.1160   31.5820   40.0170 H   0  0  0  0  0  0  0  0  0  0  0  0
   40.7270   31.4370   42.5640 N   0  0  0  0  0  0  0  0  0  0  0  0
   40.7210   32.3080   43.1740 H   0  0  0  0  0  0  0  0  0  0  0  0
   41.4840   30.7510   42.5060 H   0  0  0  0  0  0  0  0  0  0  0  0
   39.1210   26.6670   42.7760 C   0  0  0  0  0  0  0  0  0  0  0  0
   40.1960   26.7380   42.4590 H   0  0  0  0  0  0  0  0  0  0  0  0
   39.1130   26.5330   43.8700 H   0  0  0  0  0  0  0  0  0  0  0  0
   38.5260   25.5010   42.0660 C   0  0  0  0  0  0  0  0  0  0  0  0
   39.3830   24.6240   41.4070 C   0  0  0  0  0  0  0  0  0  0  0  0
   40.4600   24.7430   41.3820 H   0  0  0  0  0  0  0  0  0  0  0  0
   38.7920   23.5550   40.7600 C   0  0  0  0  0  3  0  0  0  0  0  0
   37.4140   23.3430   40.7520 C   0  0  0  0  0  0  0  0  0  0  0  0
   36.9520   22.5050   40.2450 H   0  0  0  0  0  0  0  0  0  0  0  0
   36.6250   24.2410   41.4190 C   0  0  0  0  0  0  0  0  0  0  0  0
   35.5530   24.0880   41.4190 H   0  0  0  0  0  0  0  0  0  0  0  0
   37.1770   25.3170   42.0740 C   0  0  0  0  0  3  0  0  0  0  0  0
  1  4  1  1  0  0  0
  1  2  1  0  0  0  0
  2  6  1  0  0  0  0
  3  7  1  6  0  0  0
  3 19  1  0  0  0  0
  3  1  1  0  0  0  0
  3  2  1  0  0  0  0
  5  2  1  0  0  0  0
  8  9  1  0  0  0  0
  9 10  2  0  0  0  0
  9 16  1  0  0  0  0
 10  1  1  0  0  0  0
 11 10  1  0  0  0  0
 12 11  2  0  0  0  0
 13 12  1  0  0  0  0
 13  8  2  0  0  0  0
 14  8  1  0  0  0  0
 15 12  1  0  0  0  0
 16 17  1  0  0  0  0
 18 16  1  0  0  0  0
 19 21  1  0  0  0  0
 20 19  1  0  0  0  0
 22 30  1  0  0  0  0
 22 19  1  0  0  0  0
 23 22  2  0  0  0  0
 24 23  1  0  0  0  0
 25 23  1  0  0  0  0
 26 25  2  0  0  0  0
 26 28  1  0  0  0  0
 27 26  1  0  0  0  0
 28 29  1  0  0  0  0
 28 30  2  0  0  0  0
M  END
>  <minimizedAffinity>
-5.05921078

$$$$

 OpenBabel03252509273D

 30 32  0  0  1  0  0  0  0  0999 V2000
   36.8830   29.8190   41.6880 C   0  0  1  0  0  0  0  0  0  0  0  0
   35.6850   29.3440   40.8170 C   0  0  0  0  0  0  0  0  0  0  0  0
   36.8470   28.4550   41.3620 C   0  0  2  0  0  0  0  0  0  0  0  0
   36.5760   30.2180   42.6760 H   0  0  0  0  0  0  0  0  0  0  0  0
   35.6850   29.5720   39.7490 H   0  0  0  0  0  0  0  0  0  0  0  0
   34.7350   29.2680   41.3640 H   0  0  0  0  0  0  0  0  0  0  0  0
   37.4610   28.0180   40.5150 H   0  0  0  0  0  0  0  0  0  0  0  0
   39.7690   31.9050   40.5020 C   0  0  0  0  0  0  0  0  0  0  0  0
   39.0010   31.0470   41.3610 C   0  0  0  0  0  0  0  0  0  0  0  0
   37.7590   30.7640   40.9010 C   0  0  0  0  0  0  0  0  0  0  0  0
   37.2760   31.2590   39.7090 N   0  0  0  0  0  0  0  0  0  0  0  0
   38.0360   32.0640   38.9320 C   0  0  0  0  0  0  0  0  0  0  0  0
   39.2910   32.3880   39.3340 N   0  0  0  0  0  0  0  0  0  0  0  0
   40.7820   32.1580   40.8390 H   0  0  0  0  0  0  0  0  0  0  0  0
   37.7310   32.4840   38.0030 H   0  0  0  0  0  0  0  0  0  0  0  0
   39.4870   30.5670   42.5860 N   0  0  0  0  0  0  0  0  0  0  0  0
   39.7270   31.4290   43.1600 H   0  0  0  0  0  0  0  0  0  0  0  0
   39.5950   29.5950   42.8900 H   0  0  0  0  0  0  0  0  0  0  0  0
   36.5250   27.3920   42.3840 C   0  0  0  0  0  0  0  0  0  0  0  0
   36.2180   27.8750   43.3490 H   0  0  0  0  0  0  0  0  0  0  0  0
   35.6570   26.8200   42.0170 H   0  0  0  0  0  0  0  0  0  0  0  0
   37.6890   26.5100   42.6790 C   0  0  0  0  0  0  0  0  0  0  0  0
   38.7400   27.0360   43.4270 C   0  0  0  0  0  0  0  0  0  0  0  0
   38.7560   28.0520   43.8060 H   0  0  0  0  0  0  0  0  0  0  0  0
   39.8000   26.1880   43.6800 C   0  0  0  0  0  3  0  0  0  0  0  0
   39.8430   24.8720   43.2220 C   0  0  0  0  0  0  0  0  0  0  0  0
   40.6750   24.2070   43.4200 H   0  0  0  0  0  0  0  0  0  0  0  0
   38.7790   24.4140   42.4910 C   0  0  0  0  0  0  0  0  0  0  0  0
   38.8010   23.3940   42.1290 H   0  0  0  0  0  0  0  0  0  0  0  0
   37.7050   25.2290   42.2200 C   0  0  0  0  0  3  0  0  0  0  0  0
  1  4  1  1  0  0  0
  2  3  1  0  0  0  0
  2  6  1  0  0  0  0
  2  1  1  0  0  0  0
  3  7  1  6  0  0  0
  3  1  1  0  0  0  0
  3 19  1  0  0  0  0
  5  2  1  0  0  0  0
  8 14  1  0  0  0  0
  8  9  1  0  0  0  0
  9 16  1  0  0  0  0
 10  9  2  0  0  0  0
 10  1  1  0  0  0  0
 11 10  1  0  0  0  0
 12 13  1  0  0  0  0
 12 11  2  0  0  0  0
 13  8  2  0  0  0  0
 15 12  1  0  0  0  0
 16 18  1  0  0  0  0
 16 17  1  0  0  0  0
 19 22  1  0  0  0  0
 19 20  1  0  0  0  0
 21 19  1  0  0  0  0
 22 23  1  0  0  0  0
 23 25  2  0  0  0  0
 23 24  1  0  0  0  0
 26 27  1  0  0  0  0
 26 25  1  0  0  0  0
 28 26  2  0  0  0  0
 29 28  1  0  0  0  0
 30 28  1  0  0  0  0
 30 22  2  0  0  0  0
M  END
>  <minimizedAffinity>
-5.00117922

$$$$

 OpenBabel03252509273D

 30 32  0  0  1  0  0  0  0  0999 V2000
   36.8720   28.3420   41.4760 C   0  0  1  0  0  0  0  0  0  0  0  0
   36.1580   27.6990   40.2530 C   0  0  0  0  0  0  0  0  0  0  0  0
   37.3040   27.0620   41.0990 C   0  0  2  0  0  0  0  0  0  0  0  0
   36.1930   28.5290   42.3320 H   0  0  0  0  0  0  0  0  0  0  0  0
   36.4080   28.0500   39.2500 H   0  0  0  0  0  0  0  0  0  0  0  0
   35.1470   27.3260   40.4690 H   0  0  0  0  0  0  0  0  0  0  0  0
   38.2340   26.8970   40.4710 H   0  0  0  0  0  0  0  0  0  0  0  0
   37.8770   31.8660   40.6650 C   0  0  0  0  0  0  0  0  0  0  0  0
   37.0280   30.7670   41.0290 C   0  0  0  0  0  0  0  0  0  0  0  0
   37.6490   29.5620   41.0440 C   0  0  0  0  0  0  0  0  0  0  0  0
   38.9830   29.4100   40.7340 N   0  0  0  0  0  0  0  0  0  0  0  0
   39.7440   30.4750   40.3960 C   0  0  0  0  0  0  0  0  0  0  0  0
   39.1850   31.7110   40.3620 N   0  0  0  0  0  0  0  0  0  0  0  0
   37.4110   32.8590   40.6420 H   0  0  0  0  0  0  0  0  0  0  0  0
   40.7780   30.4340   40.1450 H   0  0  0  0  0  0  0  0  0  0  0  0
   35.6640   30.9230   41.3180 N   0  0  0  0  0  0  0  0  0  0  0  0
   35.2320   31.3600   40.4500 H   0  0  0  0  0  0  0  0  0  0  0  0
   35.1640   30.6740   42.1760 H   0  0  0  0  0  0  0  0  0  0  0  0
   36.9990   25.8340   41.9230 C   0  0  0  0  0  0  0  0  0  0  0  0
   37.6970   25.7850   42.8010 H   0  0  0  0  0  0  0  0  0  0  0  0
   35.9780   25.9420   42.3250 H   0  0  0  0  0  0  0  0  0  0  0  0
   37.1650   24.5710   41.1520 C   0  0  0  0  0  0  0  0  0  0  0  0
   38.3760   23.8910   41.2570 C   0  0  0  0  0  0  0  0  0  0  0  0
   39.2030   24.2300   41.8700 H   0  0  0  0  0  0  0  0  0  0  0  0
   38.4910   22.7230   40.5270 C   0  0  0  0  0  3  0  0  0  0  0  0
   37.4670   22.2310   39.7200 C   0  0  0  0  0  0  0  0  0  0  0  0
   37.5580   21.3160   39.1480 H   0  0  0  0  0  0  0  0  0  0  0  0
   36.3010   22.9460   39.6590 C   0  0  0  0  0  0  0  0  0  0  0  0
   35.4980   22.5740   39.0350 H   0  0  0  0  0  0  0  0  0  0  0  0
   36.1490   24.1130   40.3720 C   0  0  0  0  0  3  0  0  0  0  0  0
  1  4  1  1  0  0  0
  2  6  1  0  0  0  0
  2  3  1  0  0  0  0
  2  1  1  0  0  0  0
  3  7  1  6  0  0  0
  3  1  1  0  0  0  0
  3 19  1  0  0  0  0
  5  2  1  0  0  0  0
  8  9  1  0  0  0  0
  9 10  2  0  0  0  0
  9 16  1  0  0  0  0
 10  1  1  0  0  0  0
 11 10  1  0  0  0  0
 12 11  2  0  0  0  0
 13 12  1  0  0  0  0
 13  8  2  0  0  0  0
 14  8  1  0  0  0  0
 15 12  1  0  0  0  0
 16 18  1  0  0  0  0
 17 16  1  0  0  0  0
 19 21  1  0  0  0  0
 19 20  1  0  0  0  0
 22 23  1  0  0  0  0
 22 19  1  0  0  0  0
 23 24  1  0  0  0  0
 25 23  2  0  0  0  0
 26 25  1  0  0  0  0
 27 26  1  0  0  0  0
 28 26  2  0  0  0  0
 28 30  1  0  0  0  0
 29 28  1  0  0  0  0
 30 22  2  0  0  0  0
M  END
>  <minimizedAffinity>
-4.87192011

$$$$

 OpenBabel03252509273D

 30 32  0  0  1  0  0  0  0  0999 V2000
   39.1660   28.1810   43.2340 C   0  0  1  0  0  0  0  0  0  0  0  0
   40.6830   28.2560   42.8980 C   0  0  0  0  0  0  0  0  0  0  0  0
   39.5430   29.0910   42.2350 C   0  0  2  0  0  0  0  0  0  0  0  0
   38.9330   28.4820   44.2760 H   0  0  0  0  0  0  0  0  0  0  0  0
   41.1330   27.4580   42.3040 H   0  0  0  0  0  0  0  0  0  0  0  0
   41.2840   28.7880   43.6500 H   0  0  0  0  0  0  0  0  0  0  0  0
   39.4490   28.8510   41.1310 H   0  0  0  0  0  0  0  0  0  0  0  0
   36.8700   25.3750   42.2650 C   0  0  0  0  0  0  0  0  0  0  0  0
   37.2780   26.6870   42.6830 C   0  0  0  0  0  0  0  0  0  0  0  0
   38.6140   26.8270   42.8590 C   0  0  0  0  0  0  0  0  0  0  0  0
   39.5040   25.7950   42.6530 N   0  0  0  0  0  0  0  0  0  0  0  0
   39.0740   24.5750   42.2600 C   0  0  0  0  0  0  0  0  0  0  0  0
   37.7470   24.3660   42.0640 N   0  0  0  0  0  0  0  0  0  0  0  0
   35.7950   25.2210   42.1110 H   0  0  0  0  0  0  0  0  0  0  0  0
   39.7000   23.7330   42.0830 H   0  0  0  0  0  0  0  0  0  0  0  0
   36.3660   27.7280   42.9160 N   0  0  0  0  0  0  0  0  0  0  0  0
   35.7020   27.3680   43.6640 H   0  0  0  0  0  0  0  0  0  0  0  0
   36.3290   28.6500   42.4740 H   0  0  0  0  0  0  0  0  0  0  0  0
   39.5190   30.5840   42.4560 C   0  0  0  0  0  0  0  0  0  0  0  0
   39.0790   30.8100   43.4630 H   0  0  0  0  0  0  0  0  0  0  0  0
   40.5620   30.9420   42.4700 H   0  0  0  0  0  0  0  0  0  0  0  0
   38.6970   31.2990   41.4400 C   0  0  0  0  0  0  0  0  0  0  0  0
   37.5340   30.6840   40.9840 C   0  0  0  0  0  0  0  0  0  0  0  0
   37.1950   29.7140   41.3270 H   0  0  0  0  0  0  0  0  0  0  0  0
   36.7990   31.3790   40.0430 C   0  0  0  0  0  3  0  0  0  0  0  0
   37.1790   32.6300   39.5580 C   0  0  0  0  0  0  0  0  0  0  0  0
   36.6020   33.1750   38.8210 H   0  0  0  0  0  0  0  0  0  0  0  0
   38.3330   33.1820   40.0470 C   0  0  0  0  0  0  0  0  0  0  0  0
   38.6390   34.1530   39.6790 H   0  0  0  0  0  0  0  0  0  0  0  0
   39.0900   32.5200   40.9850 C   0  0  0  0  0  3  0  0  0  0  0  0
  1  4  1  1  0  0  0
  2  1  1  0  0  0  0
  2  6  1  0  0  0  0
  3  7  1  6  0  0  0
  3 19  1  0  0  0  0
  3  2  1  0  0  0  0
  3  1  1  0  0  0  0
  5  2  1  0  0  0  0
  8  9  1  0  0  0  0
  9 10  2  0  0  0  0
  9 16  1  0  0  0  0
 10  1  1  0  0  0  0
 11 10  1  0  0  0  0
 12 11  2  0  0  0  0
 13 12  1  0  0  0  0
 13  8  2  0  0  0  0
 14  8  1  0  0  0  0
 15 12  1  0  0  0  0
 16 17  1  0  0  0  0
 18 16  1  0  0  0  0
 19 21  1  0  0  0  0
 19 20  1  0  0  0  0
 22 19  1  0  0  0  0
 23 24  1  0  0  0  0
 23 22  2  0  0  0  0
 25 23  1  0  0  0  0
 26 25  2  0  0  0  0
 26 28  1  0  0  0  0
 27 26  1  0  0  0  0
 28 30  2  0  0  0  0
 29 28  1  0  0  0  0
 30 22  1  0  0  0  0
M  END
>  <minimizedAffinity>
-4.83706903

$$$$
