
 OpenBabel03252509273D

 30 32  0  0  1  0  0  0  0  0999 V2000
   46.5680   35.0880   41.9400 C   0  0  1  0  0  0  0  0  0  0  0  0
   48.1070   35.3140   41.9520 C   0  0  0  0  0  0  0  0  0  0  0  0
   47.3510   34.1060   41.3160 C   0  0  2  0  0  0  0  0  0  0  0  0
   46.0150   35.8720   41.3840 H   0  0  0  0  0  0  0  0  0  0  0  0
   48.6610   35.1310   42.8750 H   0  0  0  0  0  0  0  0  0  0  0  0
   48.4540   36.0810   41.2460 H   0  0  0  0  0  0  0  0  0  0  0  0
   47.6260   33.1340   41.8300 H   0  0  0  0  0  0  0  0  0  0  0  0
   44.6650   35.3810   45.1620 C   0  0  0  0  0  0  0  0  0  0  0  0
   45.1210   35.7150   43.8420 C   0  0  0  0  0  0  0  0  0  0  0  0
   46.0610   34.8740   43.3460 C   0  0  0  0  0  0  0  0  0  0  0  0
   46.5360   33.7910   44.0520 N   0  0  0  0  0  0  0  0  0  0  0  0
   46.0770   33.5140   45.2930 C   0  0  0  0  0  0  0  0  0  0  0  0
   45.1340   34.3160   45.8500 N   0  0  0  0  0  0  0  0  0  0  0  0
   43.9030   36.0380   45.5990 H   0  0  0  0  0  0  0  0  0  0  0  0
   46.3970   32.6980   45.8970 H   0  0  0  0  0  0  0  0  0  0  0  0
   44.6540   36.8350   43.1370 N   0  0  0  0  0  0  0  0  0  0  0  0
   44.8710   37.6750   43.7510 H   0  0  0  0  0  0  0  0  0  0  0  0
   44.1980   36.8630   42.2210 H   0  0  0  0  0  0  0  0  0  0  0  0
   47.3880   33.9390   39.8160 C   0  0  0  0  0  0  0  0  0  0  0  0
   46.3440   33.9830   39.4050 H   0  0  0  0  0  0  0  0  0  0  0  0
   47.9390   34.7950   39.3930 H   0  0  0  0  0  0  0  0  0  0  0  0
   47.9750   32.6360   39.3990 C   0  0  0  0  0  0  0  0  0  0  0  0
   47.3470   31.4660   39.8200 C   0  0  0  0  0  0  0  0  0  0  0  0
   46.4550   31.4540   40.4340 H   0  0  0  0  0  0  0  0  0  0  0  0
   47.9210   30.2780   39.4130 C   0  0  0  0  0  3  0  0  0  0  0  0
   49.0690   30.2230   38.6220 C   0  0  0  0  0  0  0  0  0  0  0  0
   49.5190   29.2910   38.3030 H   0  0  0  0  0  0  0  0  0  0  0  0
   49.6390   31.4080   38.2410 C   0  0  0  0  0  0  0  0  0  0  0  0
   50.5310   31.3790   37.6270 H   0  0  0  0  0  0  0  0  0  0  0  0
   49.0960   32.6110   38.6270 C   0  0  0  0  0  3  0  0  0  0  0  0
  1  4  1  6  0  0  0
  1  2  1  0  0  0  0
  1 10  1  0  0  0  0
  2  5  1  0  0  0  0
  3  7  1  1  0  0  0
  3  1  1  0  0  0  0
  3  2  1  0  0  0  0
  6  2  1  0  0  0  0
  8 14  1  0  0  0  0
  8 13  1  0  0  0  0
  9  8  2  0  0  0  0
 10  9  1  0  0  0  0
 10 11  2  0  0  0  0
 11 12  1  0  0  0  0
 12 13  2  0  0  0  0
 12 15  1  0  0  0  0
 16 17  1  0  0  0  0
 16  9  1  0  0  0  0
 18 16  1  0  0  0  0
 19  3  1  0  0  0  0
 20 19  1  0  0  0  0
 21 19  1  0  0  0  0
 22 19  1  0  0  0  0
 22 23  1  0  0  0  0
 23 24  1  0  0  0  0
 25 23  2  0  0  0  0
 26 25  1  0  0  0  0
 27 26  1  0  0  0  0
 28 26  2  0  0  0  0
 28 30  1  0  0  0  0
 29 28  1  0  0  0  0
 30 22  2  0  0  0  0
M  END
>  <minimizedAffinity>
-4.43961334

>  <minimizedRMSD>
0.462363273

$$$$
