
 OpenBabel03252501043D

 31 33  0  0  1  0  0  0  0  0999 V2000
   37.2540   30.6590   37.5770 C   0  0  1  0  0  0  0  0  0  0  0  0
   38.1160   29.4810   37.3000 C   0  0  0  0  0  0  0  0  0  0  0  0
   36.9440   29.3900   38.2660 C   0  0  1  0  0  0  0  0  0  0  0  0
   36.4860   31.0000   36.8530 H   0  0  0  0  0  0  0  0  0  0  0  0
   38.0330   29.0360   36.2860 H   0  0  0  0  0  0  0  0  0  0  0  0
   39.0820   29.3040   37.7660 H   0  0  0  0  0  0  0  0  0  0  0  0
   36.1750   28.6970   37.8650 H   0  0  0  0  0  0  0  0  0  0  0  0
   39.8170   32.8470   39.2650 C   0  0  0  0  0  0  0  0  0  0  0  0
   39.2830   31.8170   38.4770 C   0  0  0  0  0  0  0  0  0  0  0  0
   37.8920   31.7340   38.3930 C   0  0  0  0  0  0  0  0  0  0  0  0
   37.1120   32.6280   39.0590 N   0  0  0  0  0  0  0  0  0  0  0  0
   37.6550   33.6130   39.8140 C   0  0  0  0  0  0  0  0  0  0  0  0
   39.0110   33.7200   39.9150 N   0  0  0  0  0  0  0  0  0  0  0  0
   40.8710   33.0240   39.4140 H   0  0  0  0  0  0  0  0  0  0  0  0
   39.9600   31.1630   37.9870 H   0  0  0  0  0  0  0  0  0  0  0  0
   37.0100   34.2950   40.3220 H   0  0  0  0  0  0  0  0  0  0  0  0
   37.0910   29.3530   39.5970 O   0  0  0  0  0  0  0  0  0  0  0  0
   34.4520   29.2150   39.8600 O   0  0  0  0  0  0  0  0  0  0  0  0
   35.7680   29.4790   40.5560 P   0  0  2  0  0  0  0  0  0  0  0  0
   35.6180   30.9750   41.3330 O   0  0  0  0  0  0  0  0  0  0  0  0
   36.4310   31.1100   41.9150 H   0  0  0  0  0  0  0  0  0  0  0  0
   35.8630   28.3240   41.7900 O   0  0  0  0  0  0  0  0  0  0  0  0
   37.0430   27.7840   42.2620 C   0  0  0  0  0  0  0  0  0  0  0  0
   37.2270   26.4600   41.9500 C   0  0  0  0  0  0  0  0  0  0  0  0
   36.5170   25.8750   41.3840 H   0  0  0  0  0  0  0  0  0  0  0  0
   38.3510   25.7860   42.3480 C   0  0  0  0  0  3  0  0  0  0  0  0
   39.3210   26.4330   43.0740 C   0  0  0  0  0  0  0  0  0  0  0  0
   40.2320   25.9530   43.4180 H   0  0  0  0  0  0  0  0  0  0  0  0
   39.1270   27.7620   43.3820 C   0  0  0  0  0  0  0  0  0  0  0  0
   39.8340   28.3560   43.9500 H   0  0  0  0  0  0  0  0  0  0  0  0
   37.9880   28.4520   42.9810 C   0  0  0  0  0  3  0  0  0  0  0  0
  1  4  1  6  0  0  0
  1  3  1  0  0  0  0
  1 10  1  0  0  0  0
  2  1  1  0  0  0  0
  2  6  1  0  0  0  0
  2  3  1  0  0  0  0
  3  7  1  6  0  0  0
  3 17  1  0  0  0  0
  5  2  1  0  0  0  0
  8 14  1  0  0  0  0
  8 13  1  0  0  0  0
  9  8  2  0  0  0  0
 10  9  1  0  0  0  0
 10 11  2  0  0  0  0
 11 12  1  0  0  0  0
 12 13  2  0  0  0  0
 12 16  1  0  0  0  0
 15  9  1  0  0  0  0
 17 19  1  0  0  0  0
 19 18  2  6  0  0  0
 19 20  1  0  0  0  0
 19 22  1  0  0  0  0
 20 21  1  0  0  0  0
 22 23  1  0  0  0  0
 23 31  1  0  0  0  0
 24 23  2  0  0  0  0
 24 26  1  0  0  0  0
 25 24  1  0  0  0  0
 26 27  2  0  0  0  0
 27 29  1  0  0  0  0
 27 28  1  0  0  0  0
 29 30  1  0  0  0  0
 31 29  2  0  0  0  0
M  END
>  <minimizedAffinity>
-5.57282209

$$$$

 OpenBabel03252501043D

 31 33  0  0  1  0  0  0  0  0999 V2000
   37.3160   31.0050   38.0870 C   0  0  1  0  0  0  0  0  0  0  0  0
   38.1130   29.8710   37.5510 C   0  0  0  0  0  0  0  0  0  0  0  0
   37.2270   29.7010   38.7760 C   0  0  1  0  0  0  0  0  0  0  0  0
   36.3800   31.3420   37.5960 H   0  0  0  0  0  0  0  0  0  0  0  0
   37.7880   29.4600   36.5720 H   0  0  0  0  0  0  0  0  0  0  0  0
   39.1700   29.7150   37.7500 H   0  0  0  0  0  0  0  0  0  0  0  0
   36.4010   28.9940   38.5510 H   0  0  0  0  0  0  0  0  0  0  0  0
   40.1790   33.1510   39.2700 C   0  0  0  0  0  0  0  0  0  0  0  0
   39.4950   32.1250   38.6030 C   0  0  0  0  0  0  0  0  0  0  0  0
   38.1090   32.0740   38.7630 C   0  0  0  0  0  0  0  0  0  0  0  0
   37.4760   32.9950   39.5400 N   0  0  0  0  0  0  0  0  0  0  0  0
   38.1630   33.9750   40.1740 C   0  0  0  0  0  0  0  0  0  0  0  0
   39.5170   34.0510   40.0360 N   0  0  0  0  0  0  0  0  0  0  0  0
   41.2470   33.3040   39.2310 H   0  0  0  0  0  0  0  0  0  0  0  0
   40.0620   31.4490   38.0140 H   0  0  0  0  0  0  0  0  0  0  0  0
   37.6310   34.6790   40.7740 H   0  0  0  0  0  0  0  0  0  0  0  0
   37.7070   29.6230   40.0240 O   0  0  0  0  0  0  0  0  0  0  0  0
   35.7180   28.4640   41.3470 O   0  0  0  0  0  0  0  0  0  0  0  0
   36.6660   29.6400   41.2890 P   0  0  2  0  0  0  0  0  0  0  0  0
   35.7160   31.0370   41.3840 O   0  0  0  0  0  0  0  0  0  0  0  0
   36.3310   31.8300   41.4840 H   0  0  0  0  0  0  0  0  0  0  0  0
   37.5450   29.5790   42.7350 O   0  0  0  0  0  0  0  0  0  0  0  0
   38.5450   28.6640   42.9990 C   0  0  0  0  0  0  0  0  0  0  0  0
   39.8150   29.1250   42.7560 C   0  0  0  0  0  0  0  0  0  0  0  0
   40.0310   30.1170   42.3880 H   0  0  0  0  0  0  0  0  0  0  0  0
   40.9110   28.3320   42.9710 C   0  0  0  0  0  3  0  0  0  0  0  0
   40.7530   27.0510   43.4390 C   0  0  0  0  0  0  0  0  0  0  0  0
   41.5820   26.3760   43.6280 H   0  0  0  0  0  0  0  0  0  0  0  0
   39.4740   26.5980   43.6800 C   0  0  0  0  0  0  0  0  0  0  0  0
   39.2490   25.6040   44.0490 H   0  0  0  0  0  0  0  0  0  0  0  0
   38.3570   27.3980   43.4630 C   0  0  0  0  0  3  0  0  0  0  0  0
  1  4  1  6  0  0  0
  1 10  1  0  0  0  0
  1  3  1  0  0  0  0
  2  6  1  0  0  0  0
  2  1  1  0  0  0  0
  2  3  1  0  0  0  0
  3  7  1  6  0  0  0
  3 17  1  0  0  0  0
  5  2  1  0  0  0  0
  8 13  1  0  0  0  0
  9 10  1  0  0  0  0
  9  8  2  0  0  0  0
 10 11  2  0  0  0  0
 11 12  1  0  0  0  0
 12 16  1  0  0  0  0
 13 12  2  0  0  0  0
 14  8  1  0  0  0  0
 15  9  1  0  0  0  0
 17 19  1  0  0  0  0
 19 18  2  6  0  0  0
 19 20  1  0  0  0  0
 19 22  1  0  0  0  0
 20 21  1  0  0  0  0
 22 23  1  0  0  0  0
 23 31  1  0  0  0  0
 24 26  1  0  0  0  0
 24 23  2  0  0  0  0
 25 24  1  0  0  0  0
 26 27  2  0  0  0  0
 27 28  1  0  0  0  0
 27 29  1  0  0  0  0
 29 30  1  0  0  0  0
 31 29  2  0  0  0  0
M  END
>  <minimizedAffinity>
-5.54116058

$$$$

 OpenBabel03252501043D

 31 33  0  0  1  0  0  0  0  0999 V2000
   37.5200   32.7040   39.4870 C   0  0  1  0  0  0  0  0  0  0  0  0
   37.0010   31.6240   38.6090 C   0  0  0  0  0  0  0  0  0  0  0  0
   36.8810   31.5330   40.1220 C   0  0  1  0  0  0  0  0  0  0  0  0
   36.9760   33.6620   39.6140 H   0  0  0  0  0  0  0  0  0  0  0  0
   36.1080   31.8710   37.9970 H   0  0  0  0  0  0  0  0  0  0  0  0
   37.6150   30.8410   38.1700 H   0  0  0  0  0  0  0  0  0  0  0  0
   35.8120   31.5590   40.4210 H   0  0  0  0  0  0  0  0  0  0  0  0
   41.0080   33.6360   40.5660 C   0  0  0  0  0  0  0  0  0  0  0  0
   39.6070   33.5930   40.5460 C   0  0  0  0  0  0  0  0  0  0  0  0
   39.0070   32.7920   39.5720 C   0  0  0  0  0  0  0  0  0  0  0  0
   39.7770   32.0940   38.6920 N   0  0  0  0  0  0  0  0  0  0  0  0
   41.1280   32.1550   38.7350 C   0  0  0  0  0  0  0  0  0  0  0  0
   41.7430   32.9290   39.6750 N   0  0  0  0  0  0  0  0  0  0  0  0
   41.5950   34.2130   41.2640 H   0  0  0  0  0  0  0  0  0  0  0  0
   39.0800   34.1650   41.2680 H   0  0  0  0  0  0  0  0  0  0  0  0
   41.6980   31.5930   38.0280 H   0  0  0  0  0  0  0  0  0  0  0  0
   37.6530   30.7350   40.8730 O   0  0  0  0  0  0  0  0  0  0  0  0
   35.5890   29.0790   41.1010 O   0  0  0  0  0  0  0  0  0  0  0  0
   37.0060   29.3810   41.5330 P   0  0  2  0  0  0  0  0  0  0  0  0
   37.0150   29.3640   43.2250 O   0  0  0  0  0  0  0  0  0  0  0  0
   37.9730   29.4270   43.5350 H   0  0  0  0  0  0  0  0  0  0  0  0
   37.9170   28.0370   41.0510 O   0  0  0  0  0  0  0  0  0  0  0  0
   37.4690   26.7320   41.1100 C   0  0  0  0  0  0  0  0  0  0  0  0
   37.1150   26.1980   39.8960 C   0  0  0  0  0  0  0  0  0  0  0  0
   37.1770   26.7400   38.9630 H   0  0  0  0  0  0  0  0  0  0  0  0
   36.6530   24.9140   39.7930 C   0  0  0  0  0  3  0  0  0  0  0  0
   36.5340   24.1320   40.9160 C   0  0  0  0  0  0  0  0  0  0  0  0
   36.1740   23.1080   40.8980 H   0  0  0  0  0  0  0  0  0  0  0  0
   36.8900   24.6780   42.1290 C   0  0  0  0  0  0  0  0  0  0  0  0
   36.8320   24.1410   43.0700 H   0  0  0  0  0  0  0  0  0  0  0  0
   37.3610   25.9820   42.2410 C   0  0  0  0  0  3  0  0  0  0  0  0
  1 10  1  0  0  0  0
  1  4  1  1  0  0  0
  1  3  1  0  0  0  0
  2  1  1  0  0  0  0
  2  3  1  0  0  0  0
  3  7  1  1  0  0  0
  3 17  1  0  0  0  0
  5  2  1  0  0  0  0
  6  2  1  0  0  0  0
  8 14  1  0  0  0  0
  9  8  1  0  0  0  0
  9 15  1  0  0  0  0
 10  9  2  0  0  0  0
 11 12  2  0  0  0  0
 11 10  1  0  0  0  0
 12 13  1  0  0  0  0
 13  8  2  0  0  0  0
 16 12  1  0  0  0  0
 17 19  1  0  0  0  0
 19 18  2  6  0  0  0
 19 20  1  0  0  0  0
 20 21  1  0  0  0  0
 22 23  1  0  0  0  0
 22 19  1  0  0  0  0
 23 31  1  0  0  0  0
 24 23  2  0  0  0  0
 25 24  1  0  0  0  0
 26 24  1  0  0  0  0
 26 27  2  0  0  0  0
 27 29  1  0  0  0  0
 28 27  1  0  0  0  0
 29 31  2  0  0  0  0
 29 30  1  0  0  0  0
M  END
>  <minimizedAffinity>
-5.25507927

$$$$

 OpenBabel03252501043D

 31 33  0  0  1  0  0  0  0  0999 V2000
   40.0590   30.0480   42.9690 C   0  0  1  0  0  0  0  0  0  0  0  0
   41.2910   30.0060   42.1400 C   0  0  0  0  0  0  0  0  0  0  0  0
   40.2350   31.0810   41.9280 C   0  0  1  0  0  0  0  0  0  0  0  0
   40.0720   30.4260   44.0120 H   0  0  0  0  0  0  0  0  0  0  0  0
   42.2420   30.2590   42.6560 H   0  0  0  0  0  0  0  0  0  0  0  0
   41.4320   29.3550   41.2820 H   0  0  0  0  0  0  0  0  0  0  0  0
   40.6530   32.0780   42.1800 H   0  0  0  0  0  0  0  0  0  0  0  0
   37.0000   27.8520   43.1120 C   0  0  0  0  0  0  0  0  0  0  0  0
   37.8830   28.8960   43.4220 C   0  0  0  0  0  0  0  0  0  0  0  0
   39.0690   28.9670   42.6890 C   0  0  0  0  0  0  0  0  0  0  0  0
   39.3300   28.0470   41.7200 N   0  0  0  0  0  0  0  0  0  0  0  0
   38.4590   27.0480   41.4430 C   0  0  0  0  0  0  0  0  0  0  0  0
   37.2920   26.9530   42.1420 N   0  0  0  0  0  0  0  0  0  0  0  0
   36.0530   27.6830   43.6000 H   0  0  0  0  0  0  0  0  0  0  0  0
   37.6040   29.5740   44.1900 H   0  0  0  0  0  0  0  0  0  0  0  0
   38.6990   26.3460   40.6760 H   0  0  0  0  0  0  0  0  0  0  0  0
   39.3810   31.0760   40.8960 O   0  0  0  0  0  0  0  0  0  0  0  0
   39.3680   33.0170   39.0830 O   0  0  0  0  0  0  0  0  0  0  0  0
   38.7560   32.4950   40.3630 P   0  0  2  0  0  0  0  0  0  0  0  0
   38.8370   33.7530   41.4910 O   0  0  0  0  0  0  0  0  0  0  0  0
   38.3140   33.4780   42.3080 H   0  0  0  0  0  0  0  0  0  0  0  0
   37.1110   32.2850   40.0210 O   0  0  0  0  0  0  0  0  0  0  0  0
   36.5520   31.0980   39.5900 C   0  0  0  0  0  0  0  0  0  0  0  0
   35.8470   30.4190   40.5530 C   0  0  0  0  0  0  0  0  0  0  0  0
   35.7310   30.7710   41.5680 H   0  0  0  0  0  0  0  0  0  0  0  0
   35.2340   29.2270   40.2750 C   0  0  0  0  0  3  0  0  0  0  0  0
   35.3160   28.6860   39.0150 C   0  0  0  0  0  0  0  0  0  0  0  0
   34.8530   27.7450   38.7360 H   0  0  0  0  0  0  0  0  0  0  0  0
   36.0270   29.3750   38.0570 C   0  0  0  0  0  0  0  0  0  0  0  0
   36.1480   29.0300   37.0360 H   0  0  0  0  0  0  0  0  0  0  0  0
   36.6510   30.5870   38.3310 C   0  0  0  0  0  3  0  0  0  0  0  0
  1  4  1  1  0  0  0
  2  5  1  0  0  0  0
  2  1  1  0  0  0  0
  3  2  1  0  0  0  0
  3  7  1  1  0  0  0
  3  1  1  0  0  0  0
  6  2  1  0  0  0  0
  8  9  1  0  0  0  0
  8 14  1  0  0  0  0
  9 15  1  0  0  0  0
 10  1  1  0  0  0  0
 10  9  2  0  0  0  0
 11 10  1  0  0  0  0
 12 11  2  0  0  0  0
 12 13  1  0  0  0  0
 13  8  2  0  0  0  0
 16 12  1  0  0  0  0
 17  3  1  0  0  0  0
 19 18  2  6  0  0  0
 19 17  1  0  0  0  0
 19 20  1  0  0  0  0
 20 21  1  0  0  0  0
 22 19  1  0  0  0  0
 23 22  1  0  0  0  0
 23 24  1  0  0  0  0
 24 25  1  0  0  0  0
 26 24  2  0  0  0  0
 27 26  1  0  0  0  0
 28 27  1  0  0  0  0
 29 31  1  0  0  0  0
 29 27  2  0  0  0  0
 30 29  1  0  0  0  0
 31 23  2  0  0  0  0
M  END
>  <minimizedAffinity>
-4.97274065

$$$$

 OpenBabel03252501043D

 31 33  0  0  1  0  0  0  0  0999 V2000
   37.7180   31.7510   38.6770 C   0  0  1  0  0  0  0  0  0  0  0  0
   37.8340   31.1160   37.3390 C   0  0  0  0  0  0  0  0  0  0  0  0
   36.6920   30.7650   38.2800 C   0  0  1  0  0  0  0  0  0  0  0  0
   37.3490   32.7900   38.7980 H   0  0  0  0  0  0  0  0  0  0  0  0
   37.6480   31.7730   36.4630 H   0  0  0  0  0  0  0  0  0  0  0  0
   38.4880   30.2770   37.1120 H   0  0  0  0  0  0  0  0  0  0  0  0
   35.7250   31.0940   37.8430 H   0  0  0  0  0  0  0  0  0  0  0  0
   40.7780   30.2240   40.2600 C   0  0  0  0  0  0  0  0  0  0  0  0
   39.8710   30.6170   39.2660 C   0  0  0  0  0  0  0  0  0  0  0  0
   38.7300   31.3060   39.6800 C   0  0  0  0  0  0  0  0  0  0  0  0
   38.5330   31.5710   41.0010 N   0  0  0  0  0  0  0  0  0  0  0  0
   39.4260   31.1790   41.9400 C   0  0  0  0  0  0  0  0  0  0  0  0
   40.5500   30.5030   41.5650 N   0  0  0  0  0  0  0  0  0  0  0  0
   41.6960   29.6870   40.0770 H   0  0  0  0  0  0  0  0  0  0  0  0
   40.1000   30.3740   38.2580 H   0  0  0  0  0  0  0  0  0  0  0  0
   39.2370   31.4050   42.9650 H   0  0  0  0  0  0  0  0  0  0  0  0
   36.6330   29.6170   38.9670 O   0  0  0  0  0  0  0  0  0  0  0  0
   34.1070   29.2710   39.7090 O   0  0  0  0  0  0  0  0  0  0  0  0
   35.5340   29.4560   40.1730 P   0  0  2  0  0  0  0  0  0  0  0  0
   35.5260   30.7390   41.2770 O   0  0  0  0  0  0  0  0  0  0  0  0
   36.4390   30.7930   41.7020 H   0  0  0  0  0  0  0  0  0  0  0  0
   35.8960   28.0700   41.0750 O   0  0  0  0  0  0  0  0  0  0  0  0
   37.0620   27.8920   41.7930 C   0  0  0  0  0  0  0  0  0  0  0  0
   38.0880   27.3260   41.0790 C   0  0  0  0  0  0  0  0  0  0  0  0
   38.0070   27.0390   40.0410 H   0  0  0  0  0  0  0  0  0  0  0  0
   39.3070   27.0880   41.6550 C   0  0  0  0  0  3  0  0  0  0  0  0
   39.5230   27.4150   42.9710 C   0  0  0  0  0  0  0  0  0  0  0  0
   40.4660   27.2500   43.4820 H   0  0  0  0  0  0  0  0  0  0  0  0
   38.4860   27.9820   43.6790 C   0  0  0  0  0  0  0  0  0  0  0  0
   38.5600   28.2730   44.7210 H   0  0  0  0  0  0  0  0  0  0  0  0
   37.2460   28.2270   43.1000 C   0  0  0  0  0  3  0  0  0  0  0  0
  1  4  1  1  0  0  0
  1 10  1  0  0  0  0
  2  3  1  0  0  0  0
  2  1  1  0  0  0  0
  3  7  1  6  0  0  0
  3  1  1  0  0  0  0
  3 17  1  0  0  0  0
  5  2  1  0  0  0  0
  6  2  1  0  0  0  0
  8 13  1  0  0  0  0
  9 10  1  0  0  0  0
  9  8  2  0  0  0  0
 10 11  2  0  0  0  0
 11 12  1  0  0  0  0
 12 16  1  0  0  0  0
 13 12  2  0  0  0  0
 14  8  1  0  0  0  0
 15  9  1  0  0  0  0
 17 19  1  0  0  0  0
 19 18  2  6  0  0  0
 19 22  1  0  0  0  0
 19 20  1  0  0  0  0
 20 21  1  0  0  0  0
 22 23  1  0  0  0  0
 23 31  1  0  0  0  0
 24 26  1  0  0  0  0
 24 23  2  0  0  0  0
 25 24  1  0  0  0  0
 26 27  2  0  0  0  0
 27 28  1  0  0  0  0
 27 29  1  0  0  0  0
 29 30  1  0  0  0  0
 31 29  2  0  0  0  0
M  END
>  <minimizedAffinity>
-4.87716341

$$$$

 OpenBabel03252501043D

 31 33  0  0  1  0  0  0  0  0999 V2000
   39.9540   29.7440   38.0570 C   0  0  1  0  0  0  0  0  0  0  0  0
   39.9770   28.7530   39.1630 C   0  0  0  0  0  0  0  0  0  0  0  0
   38.7970   29.6920   38.9730 C   0  0  1  0  0  0  0  0  0  0  0  0
   39.7400   29.4430   37.0110 H   0  0  0  0  0  0  0  0  0  0  0  0
   39.8870   27.6850   38.8710 H   0  0  0  0  0  0  0  0  0  0  0  0
   40.5030   28.8940   40.1040 H   0  0  0  0  0  0  0  0  0  0  0  0
   37.8870   29.1110   38.7100 H   0  0  0  0  0  0  0  0  0  0  0  0
   42.7830   31.9370   39.2370 C   0  0  0  0  0  0  0  0  0  0  0  0
   41.9430   30.8190   39.1330 C   0  0  0  0  0  0  0  0  0  0  0  0
   40.8920   30.8940   38.2170 C   0  0  0  0  0  0  0  0  0  0  0  0
   40.7160   32.0180   37.4700 N   0  0  0  0  0  0  0  0  0  0  0  0
   41.5420   33.0830   37.5910 C   0  0  0  0  0  0  0  0  0  0  0  0
   42.5780   33.0390   38.4780 N   0  0  0  0  0  0  0  0  0  0  0  0
   43.6290   32.0100   39.9030 H   0  0  0  0  0  0  0  0  0  0  0  0
   42.1500   29.9800   39.7500 H   0  0  0  0  0  0  0  0  0  0  0  0
   41.3720   33.9470   36.9880 H   0  0  0  0  0  0  0  0  0  0  0  0
   38.5730   30.7580   39.7540 O   0  0  0  0  0  0  0  0  0  0  0  0
   35.9680   30.5890   39.2670 O   0  0  0  0  0  0  0  0  0  0  0  0
   37.0370   31.1270   40.1910 P   0  0  2  0  0  0  0  0  0  0  0  0
   36.7460   32.7860   40.3590 O   0  0  0  0  0  0  0  0  0  0  0  0
   37.3610   33.1410   41.0760 H   0  0  0  0  0  0  0  0  0  0  0  0
   36.7080   30.4430   41.7040 O   0  0  0  0  0  0  0  0  0  0  0  0
   37.2770   29.2740   42.1690 C   0  0  0  0  0  0  0  0  0  0  0  0
   36.6230   28.1300   41.7810 C   0  0  0  0  0  0  0  0  0  0  0  0
   35.7370   28.1290   41.1630 H   0  0  0  0  0  0  0  0  0  0  0  0
   37.0690   26.8930   42.1630 C   0  0  0  0  0  3  0  0  0  0  0  0
   38.1890   26.7770   42.9500 C   0  0  0  0  0  0  0  0  0  0  0  0
   38.5890   25.8250   43.2850 H   0  0  0  0  0  0  0  0  0  0  0  0
   38.8370   27.9300   43.3340 C   0  0  0  0  0  0  0  0  0  0  0  0
   39.7260   27.9410   43.9540 H   0  0  0  0  0  0  0  0  0  0  0  0
   38.3900   29.1900   42.9490 C   0  0  0  0  0  3  0  0  0  0  0  0
  1  4  1  6  0  0  0
  1 10  1  0  0  0  0
  1  3  1  0  0  0  0
  1  2  1  0  0  0  0
  2  6  1  0  0  0  0
  3  7  1  6  0  0  0
  3  2  1  0  0  0  0
  3 17  1  0  0  0  0
  5  2  1  0  0  0  0
  8 14  1  0  0  0  0
  9  8  1  0  0  0  0
  9 15  1  0  0  0  0
 10  9  2  0  0  0  0
 11 12  2  0  0  0  0
 11 10  1  0  0  0  0
 12 13  1  0  0  0  0
 13  8  2  0  0  0  0
 16 12  1  0  0  0  0
 17 19  1  0  0  0  0
 19 18  2  6  0  0  0
 19 20  1  0  0  0  0
 19 22  1  0  0  0  0
 20 21  1  0  0  0  0
 22 23  1  0  0  0  0
 23 31  1  0  0  0  0
 24 26  1  0  0  0  0
 24 23  2  0  0  0  0
 25 24  1  0  0  0  0
 26 27  2  0  0  0  0
 27 28  1  0  0  0  0
 27 29  1  0  0  0  0
 29 30  1  0  0  0  0
 31 29  2  0  0  0  0
M  END
>  <minimizedAffinity>
-4.71649742

$$$$

 OpenBabel03252501043D

 31 33  0  0  1  0  0  0  0  0999 V2000
   39.3210   30.7430   37.9620 C   0  0  1  0  0  0  0  0  0  0  0  0
   39.3970   29.2630   38.0640 C   0  0  0  0  0  0  0  0  0  0  0  0
   39.1770   30.1270   39.2960 C   0  0  1  0  0  0  0  0  0  0  0  0
   38.4130   31.2540   37.5790 H   0  0  0  0  0  0  0  0  0  0  0  0
   38.5490   28.6940   37.6280 H   0  0  0  0  0  0  0  0  0  0  0  0
   40.3240   28.6960   38.0860 H   0  0  0  0  0  0  0  0  0  0  0  0
   38.1720   29.9270   39.7250 H   0  0  0  0  0  0  0  0  0  0  0  0
   42.8810   31.4000   36.9130 C   0  0  0  0  0  0  0  0  0  0  0  0
   41.6920   30.6980   37.1600 C   0  0  0  0  0  0  0  0  0  0  0  0
   40.6150   31.4260   37.6680 C   0  0  0  0  0  0  0  0  0  0  0  0
   40.7420   32.7610   37.9020 N   0  0  0  0  0  0  0  0  0  0  0  0
   41.9020   33.4140   37.6540 C   0  0  0  0  0  0  0  0  0  0  0  0
   42.9720   32.7290   37.1580 N   0  0  0  0  0  0  0  0  0  0  0  0
   43.7850   30.9590   36.5220 H   0  0  0  0  0  0  0  0  0  0  0  0
   41.6740   29.6580   36.9480 H   0  0  0  0  0  0  0  0  0  0  0  0
   41.9630   34.4610   37.8500 H   0  0  0  0  0  0  0  0  0  0  0  0
   40.1340   30.3720   40.2010 O   0  0  0  0  0  0  0  0  0  0  0  0
   38.7080   32.3960   41.1630 O   0  0  0  0  0  0  0  0  0  0  0  0
   39.8340   31.4220   41.4240 P   0  0  2  0  0  0  0  0  0  0  0  0
   41.1760   32.3410   41.8910 O   0  0  0  0  0  0  0  0  0  0  0  0
   41.8980   31.7090   42.2010 H   0  0  0  0  0  0  0  0  0  0  0  0
   39.3670   30.5540   42.8000 O   0  0  0  0  0  0  0  0  0  0  0  0
   38.6490   29.3740   42.7700 C   0  0  0  0  0  0  0  0  0  0  0  0
   39.3740   28.2580   43.1040 C   0  0  0  0  0  0  0  0  0  0  0  0
   40.4210   28.2830   43.3710 H   0  0  0  0  0  0  0  0  0  0  0  0
   38.8000   27.0160   43.1190 C   0  0  0  0  0  3  0  0  0  0  0  0
   37.4730   26.8660   42.7960 C   0  0  0  0  0  0  0  0  0  0  0  0
   36.9620   25.9080   42.7900 H   0  0  0  0  0  0  0  0  0  0  0  0
   36.7540   27.9920   42.4620 C   0  0  0  0  0  0  0  0  0  0  0  0
   35.7030   27.9760   42.1930 H   0  0  0  0  0  0  0  0  0  0  0  0
   37.3310   29.2580   42.4440 C   0  0  0  0  0  3  0  0  0  0  0  0
  1  4  1  6  0  0  0
  1  2  1  0  0  0  0
  1  3  1  0  0  0  0
  2  6  1  0  0  0  0
  2  3  1  0  0  0  0
  3  7  1  1  0  0  0
  3 17  1  0  0  0  0
  5  2  1  0  0  0  0
  8 13  2  0  0  0  0
  8  9  1  0  0  0  0
  9 10  2  0  0  0  0
 10 11  1  0  0  0  0
 10  1  1  0  0  0  0
 12 16  1  0  0  0  0
 12 11  2  0  0  0  0
 13 12  1  0  0  0  0
 14  8  1  0  0  0  0
 15  9  1  0  0  0  0
 17 19  1  0  0  0  0
 19 18  2  6  0  0  0
 19 20  1  0  0  0  0
 19 22  1  0  0  0  0
 20 21  1  0  0  0  0
 23 22  1  0  0  0  0
 23 24  1  0  0  0  0
 24 26  2  0  0  0  0
 24 25  1  0  0  0  0
 27 26  1  0  0  0  0
 28 27  1  0  0  0  0
 29 27  2  0  0  0  0
 30 29  1  0  0  0  0
 31 29  1  0  0  0  0
 31 23  2  0  0  0  0
M  END
>  <minimizedAffinity>
-4.676332

$$$$

 OpenBabel03252501043D

 31 33  0  0  1  0  0  0  0  0999 V2000
   39.9630   29.8580   42.6580 C   0  0  1  0  0  0  0  0  0  0  0  0
   40.8780   29.9320   41.4910 C   0  0  0  0  0  0  0  0  0  0  0  0
   39.8240   31.0010   41.7340 C   0  0  1  0  0  0  0  0  0  0  0  0
   40.3020   30.1190   43.6810 H   0  0  0  0  0  0  0  0  0  0  0  0
   41.9450   30.1460   41.7140 H   0  0  0  0  0  0  0  0  0  0  0  0
   40.7390   29.3810   40.5650 H   0  0  0  0  0  0  0  0  0  0  0  0
   40.3130   31.9740   41.9530 H   0  0  0  0  0  0  0  0  0  0  0  0
   36.9080   27.7610   43.3500 C   0  0  0  0  0  0  0  0  0  0  0  0
   37.8490   28.7930   43.4750 C   0  0  0  0  0  0  0  0  0  0  0  0
   38.9190   28.7930   42.5790 C   0  0  0  0  0  0  0  0  0  0  0  0
   39.0190   27.8190   41.6330 N   0  0  0  0  0  0  0  0  0  0  0  0
   38.0960   26.8340   41.5350 C   0  0  0  0  0  0  0  0  0  0  0  0
   37.0390   26.8080   42.3970 N   0  0  0  0  0  0  0  0  0  0  0  0
   36.0370   27.6450   43.9750 H   0  0  0  0  0  0  0  0  0  0  0  0
   37.6970   29.5160   44.2370 H   0  0  0  0  0  0  0  0  0  0  0  0
   38.2080   26.0870   40.7810 H   0  0  0  0  0  0  0  0  0  0  0  0
   38.6930   31.0910   41.0210 O   0  0  0  0  0  0  0  0  0  0  0  0
   39.2630   33.6390   40.5320 O   0  0  0  0  0  0  0  0  0  0  0  0
   38.3790   32.4640   40.1820 P   0  0  2  0  0  0  0  0  0  0  0  0
   36.7790   33.0020   40.3100 O   0  0  0  0  0  0  0  0  0  0  0  0
   36.1750   32.2790   39.9500 H   0  0  0  0  0  0  0  0  0  0  0  0
   38.6420   32.1810   38.5330 O   0  0  0  0  0  0  0  0  0  0  0  0
   39.7480   31.5310   38.0220 C   0  0  0  0  0  0  0  0  0  0  0  0
   40.7590   32.3640   37.6150 C   0  0  0  0  0  0  0  0  0  0  0  0
   40.7100   33.4420   37.6830 H   0  0  0  0  0  0  0  0  0  0  0  0
   41.9200   31.8670   37.0870 C   0  0  0  0  0  3  0  0  0  0  0  0
   42.0920   30.5100   36.9560 C   0  0  0  0  0  0  0  0  0  0  0  0
   42.9880   30.0570   36.5440 H   0  0  0  0  0  0  0  0  0  0  0  0
   41.0700   29.6820   37.3660 C   0  0  0  0  0  0  0  0  0  0  0  0
   41.1110   28.6010   37.3020 H   0  0  0  0  0  0  0  0  0  0  0  0
   39.8880   30.1810   37.9030 C   0  0  0  0  0  3  0  0  0  0  0  0
  1  4  1  1  0  0  0
  2  5  1  0  0  0  0
  2  3  1  0  0  0  0
  2  1  1  0  0  0  0
  3  7  1  1  0  0  0
  3  1  1  0  0  0  0
  6  2  1  0  0  0  0
  8  9  1  0  0  0  0
  8 14  1  0  0  0  0
  9 15  1  0  0  0  0
 10  1  1  0  0  0  0
 10  9  2  0  0  0  0
 11 10  1  0  0  0  0
 12 11  2  0  0  0  0
 12 13  1  0  0  0  0
 13  8  2  0  0  0  0
 16 12  1  0  0  0  0
 17  3  1  0  0  0  0
 19 20  1  0  0  0  0
 19 18  2  1  0  0  0
 19 17  1  0  0  0  0
 21 20  1  0  0  0  0
 22 19  1  0  0  0  0
 23 22  1  0  0  0  0
 24 25  1  0  0  0  0
 24 23  2  0  0  0  0
 26 24  1  0  0  0  0
 27 26  2  0  0  0  0
 27 29  1  0  0  0  0
 28 27  1  0  0  0  0
 29 31  2  0  0  0  0
 30 29  1  0  0  0  0
 31 23  1  0  0  0  0
M  END
>  <minimizedAffinity>
-4.6531086

$$$$

 OpenBabel03252501043D

 31 33  0  0  1  0  0  0  0  0999 V2000
   37.7920   32.1580   38.8880 C   0  0  1  0  0  0  0  0  0  0  0  0
   37.2590   33.3660   39.5680 C   0  0  0  0  0  0  0  0  0  0  0  0
   38.6940   32.9090   39.7850 C   0  0  1  0  0  0  0  0  0  0  0  0
   38.0770   32.1710   37.8160 H   0  0  0  0  0  0  0  0  0  0  0  0
   37.0500   34.2440   38.9210 H   0  0  0  0  0  0  0  0  0  0  0  0
   36.6520   33.3460   40.4690 H   0  0  0  0  0  0  0  0  0  0  0  0
   39.3990   33.6660   39.3800 H   0  0  0  0  0  0  0  0  0  0  0  0
   35.6980   29.5830   40.6740 C   0  0  0  0  0  0  0  0  0  0  0  0
   36.1400   30.8370   40.2280 C   0  0  0  0  0  0  0  0  0  0  0  0
   37.2610   30.8580   39.3960 C   0  0  0  0  0  0  0  0  0  0  0  0
   37.8780   29.6950   39.0490 N   0  0  0  0  0  0  0  0  0  0  0  0
   37.4290   28.4990   39.4950 C   0  0  0  0  0  0  0  0  0  0  0  0
   36.3360   28.4460   40.3090 N   0  0  0  0  0  0  0  0  0  0  0  0
   34.8470   29.4260   41.3190 H   0  0  0  0  0  0  0  0  0  0  0  0
   35.6030   31.6960   40.5420 H   0  0  0  0  0  0  0  0  0  0  0  0
   37.9390   27.6080   39.2010 H   0  0  0  0  0  0  0  0  0  0  0  0
   39.1080   32.2990   40.9030 O   0  0  0  0  0  0  0  0  0  0  0  0
   41.7530   32.5350   40.8680 O   0  0  0  0  0  0  0  0  0  0  0  0
   40.5820   31.5810   40.9290 P   0  0  2  0  0  0  0  0  0  0  0  0
   40.8170   30.4410   39.7020 O   0  0  0  0  0  0  0  0  0  0  0  0
   40.1230   29.7160   39.8090 H   0  0  0  0  0  0  0  0  0  0  0  0
   40.7650   30.7390   42.3860 O   0  0  0  0  0  0  0  0  0  0  0  0
   39.9990   29.6510   42.7570 C   0  0  0  0  0  0  0  0  0  0  0  0
   40.6980   28.4750   42.8690 C   0  0  0  0  0  0  0  0  0  0  0  0
   41.7590   28.3910   42.6850 H   0  0  0  0  0  0  0  0  0  0  0  0
   40.0760   27.3100   43.2300 C   0  0  0  0  0  3  0  0  0  0  0  0
   38.7260   27.3010   43.4880 C   0  0  0  0  0  0  0  0  0  0  0  0
   38.1780   26.4110   43.7770 H   0  0  0  0  0  0  0  0  0  0  0  0
   38.0340   28.4870   43.3720 C   0  0  0  0  0  0  0  0  0  0  0  0
   36.9690   28.5800   43.5550 H   0  0  0  0  0  0  0  0  0  0  0  0
   38.6600   29.6740   43.0060 C   0  0  0  0  0  3  0  0  0  0  0  0
  1  4  1  6  0  0  0
  1 10  1  0  0  0  0
  1  2  1  0  0  0  0
  1  3  1  0  0  0  0
  2  3  1  0  0  0  0
  2  6  1  0  0  0  0
  3  7  1  6  0  0  0
  3 17  1  0  0  0  0
  5  2  1  0  0  0  0
  8 14  1  0  0  0  0
  9 15  1  0  0  0  0
  9  8  2  0  0  0  0
 10  9  1  0  0  0  0
 11 10  2  0  0  0  0
 11 12  1  0  0  0  0
 12 13  2  0  0  0  0
 13  8  1  0  0  0  0
 16 12  1  0  0  0  0
 17 19  1  0  0  0  0
 19 18  2  6  0  0  0
 19 22  1  0  0  0  0
 20 21  1  0  0  0  0
 20 19  1  0  0  0  0
 22 23  1  0  0  0  0
 23 24  2  0  0  0  0
 23 31  1  0  0  0  0
 24 26  1  0  0  0  0
 25 24  1  0  0  0  0
 26 27  2  0  0  0  0
 27 28  1  0  0  0  0
 29 27  1  0  0  0  0
 29 30  1  0  0  0  0
 31 29  2  0  0  0  0
M  END
>  <minimizedAffinity>
-4.62104845

$$$$
