
 OpenBabel03242517143D

 23 24  0  0  0  0  0  0  0  0999 V2000
   35.4690   28.9490   40.6930 C   0  0  0  0  0  0  0  0  0  0  0  0
   35.0440   29.2690   41.6780 H   0  0  0  0  0  0  0  0  0  0  0  0
   34.6280   28.5590   40.1030 H   0  0  0  0  0  0  0  0  0  0  0  0
   36.1570   30.0900   40.0250 C   0  0  0  0  0  0  0  0  0  0  0  0
   36.5300   31.1820   40.8060 C   0  0  0  0  0  0  0  0  0  0  0  0
   36.3230   31.2040   41.8820 H   0  0  0  0  0  0  0  0  0  0  0  0
   37.1730   32.2490   40.1880 C   0  0  0  0  0  3  0  0  0  0  0  0
   37.4530   32.2590   38.8220 C   0  0  0  0  0  0  0  0  0  0  0  0
   37.9550   33.0980   38.3530 H   0  0  0  0  0  0  0  0  0  0  0  0
   37.0770   31.1650   38.0580 C   0  0  0  0  0  0  0  0  0  0  0  0
   37.2710   31.1180   36.9860 H   0  0  0  0  0  0  0  0  0  0  0  0
   36.4370   30.0990   38.6610 C   0  0  0  0  0  3  0  0  0  0  0  0
   36.9330   27.6340   42.1960 C   0  0  0  0  0  3  0  0  0  0  0  0
   36.4320   27.8530   41.0040 C   0  0  0  0  0  3  0  0  0  0  0  0
   38.9800   26.8170   43.3670 C   0  0  0  0  0  0  0  0  0  0  0  0
   37.8690   26.5920   42.5610 C   0  0  0  0  0  0  0  0  0  0  0  0
   37.6590   25.3070   42.0920 C   0  0  0  0  0  0  0  0  0  0  0  0
   38.5360   24.3100   42.4280 N   0  0  0  0  0  0  0  0  0  0  0  0
   39.6120   24.5700   43.2200 C   0  0  0  0  0  0  0  0  0  0  0  0
   39.8220   25.8150   43.6790 N   0  0  0  0  0  0  0  0  0  0  0  0
   39.1640   27.8160   43.7460 H   0  0  0  0  0  0  0  0  0  0  0  0
   36.8190   25.0510   41.4610 H   0  0  0  0  0  0  0  0  0  0  0  0
   40.2090   23.6860   43.3950 H   0  0  0  0  0  0  0  0  0  0  0  0
  1 14  1  0  0  0  0
  1  2  1  0  0  0  0
  3  1  1  0  0  0  0
  4  1  1  0  0  0  0
  4  5  1  0  0  0  0
  5  6  1  0  0  0  0
  7  5  2  0  0  0  0
  8  7  1  0  0  0  0
  9  8  1  0  0  0  0
 10 12  1  0  0  0  0
 10  8  2  0  0  0  0
 11 10  1  0  0  0  0
 12  4  2  0  0  0  0
 13 16  1  0  0  0  0
 14 13  2  0  0  0  0
 15 20  1  0  0  0  0
 15 21  1  0  0  0  0
 16 15  2  0  0  0  0
 17 18  2  0  0  0  0
 17 16  1  0  0  0  0
 18 19  1  0  0  0  0
 19 23  1  0  0  0  0
 19 20  2  0  0  0  0
 22 17  1  0  0  0  0
M  END
>  <minimizedAffinity>
-4.92424059

$$$$

 OpenBabel03242517143D

 23 24  0  0  0  0  0  0  0  0999 V2000
   35.4490   29.0080   40.7140 C   0  0  0  0  0  0  0  0  0  0  0  0
   35.0500   29.3310   41.7080 H   0  0  0  0  0  0  0  0  0  0  0  0
   34.5870   28.6470   40.1350 H   0  0  0  0  0  0  0  0  0  0  0  0
   36.1560   30.1360   40.0430 C   0  0  0  0  0  0  0  0  0  0  0  0
   36.3780   30.0490   38.6690 C   0  0  0  0  0  0  0  0  0  0  0  0
   36.0420   29.1770   38.0970 H   0  0  0  0  0  0  0  0  0  0  0  0
   37.0360   31.0980   38.0380 C   0  0  0  0  0  3  0  0  0  0  0  0
   37.4780   32.2240   38.7310 C   0  0  0  0  0  0  0  0  0  0  0  0
   37.9920   33.0360   38.2260 H   0  0  0  0  0  0  0  0  0  0  0  0
   37.2500   32.2970   40.0970 C   0  0  0  0  0  0  0  0  0  0  0  0
   37.5730   33.1540   40.6900 H   0  0  0  0  0  0  0  0  0  0  0  0
   36.5970   31.2600   40.7360 C   0  0  0  0  0  3  0  0  0  0  0  0
   36.9570   27.6810   42.1620 C   0  0  0  0  0  3  0  0  0  0  0  0
   36.3870   27.8840   40.9990 C   0  0  0  0  0  3  0  0  0  0  0  0
   37.7350   25.3140   42.0230 C   0  0  0  0  0  0  0  0  0  0  0  0
   37.8730   26.6130   42.5010 C   0  0  0  0  0  0  0  0  0  0  0  0
   38.9390   26.8860   43.3410 C   0  0  0  0  0  0  0  0  0  0  0  0
   39.8140   25.8850   43.6720 N   0  0  0  0  0  0  0  0  0  0  0  0
   39.6460   24.6260   43.1840 C   0  0  0  0  0  0  0  0  0  0  0  0
   38.6130   24.3550   42.3680 N   0  0  0  0  0  0  0  0  0  0  0  0
   36.9080   25.0780   41.3640 H   0  0  0  0  0  0  0  0  0  0  0  0
   39.1150   27.8690   43.7530 H   0  0  0  0  0  0  0  0  0  0  0  0
   40.4140   23.9500   43.5340 H   0  0  0  0  0  0  0  0  0  0  0  0
  1 14  1  0  0  0  0
  1  2  1  0  0  0  0
  3  1  1  0  0  0  0
  4  1  1  0  0  0  0
  4 12  1  0  0  0  0
  5  4  2  0  0  0  0
  6  5  1  0  0  0  0
  7  5  1  0  0  0  0
  7  8  2  0  0  0  0
  8 10  1  0  0  0  0
  9  8  1  0  0  0  0
 10 11  1  0  0  0  0
 10 12  2  0  0  0  0
 13 16  1  0  0  0  0
 14 13  2  0  0  0  0
 15 20  2  0  0  0  0
 15 16  1  0  0  0  0
 16 17  2  0  0  0  0
 17 18  1  0  0  0  0
 17 22  1  0  0  0  0
 19 23  1  0  0  0  0
 19 18  2  0  0  0  0
 20 19  1  0  0  0  0
 21 15  1  0  0  0  0
M  END
>  <minimizedAffinity>
-4.8855772

$$$$

 OpenBabel03242517143D

 23 24  0  0  0  0  0  0  0  0999 V2000
   36.7160   27.6690   42.9390 C   0  0  0  0  0  0  0  0  0  0  0  0
   35.9570   27.4340   42.1510 H   0  0  0  0  0  0  0  0  0  0  0  0
   36.1740   27.6950   43.8950 H   0  0  0  0  0  0  0  0  0  0  0  0
   37.8120   26.6590   42.9290 C   0  0  0  0  0  0  0  0  0  0  0  0
   38.9560   26.9230   43.6800 C   0  0  0  0  0  0  0  0  0  0  0  0
   39.0510   27.8470   44.2610 H   0  0  0  0  0  0  0  0  0  0  0  0
   39.9810   25.9830   43.6750 C   0  0  0  0  0  3  0  0  0  0  0  0
   39.8990   24.7960   42.9490 C   0  0  0  0  0  0  0  0  0  0  0  0
   40.7070   24.0710   42.9530 H   0  0  0  0  0  0  0  0  0  0  0  0
   38.7540   24.5460   42.2080 C   0  0  0  0  0  0  0  0  0  0  0  0
   38.6350   23.6350   41.6210 H   0  0  0  0  0  0  0  0  0  0  0  0
   37.7290   25.4730   42.2050 C   0  0  0  0  0  3  0  0  0  0  0  0
   37.2090   29.5500   41.4060 C   0  0  0  0  0  3  0  0  0  0  0  0
   37.2390   29.0270   42.6070 C   0  0  0  0  0  3  0  0  0  0  0  0
   36.9510   31.7550   40.2640 C   0  0  0  0  0  0  0  0  0  0  0  0
   37.6980   30.8570   41.0200 C   0  0  0  0  0  0  0  0  0  0  0  0
   38.9680   31.2400   41.4140 C   0  0  0  0  0  0  0  0  0  0  0  0
   39.4460   32.4720   41.0550 N   0  0  0  0  0  0  0  0  0  0  0  0
   38.6850   33.3240   40.3160 C   0  0  0  0  0  0  0  0  0  0  0  0
   37.4510   32.9580   39.9300 N   0  0  0  0  0  0  0  0  0  0  0  0
   35.9540   31.4750   39.9460 H   0  0  0  0  0  0  0  0  0  0  0  0
   39.6110   30.5990   42.0020 H   0  0  0  0  0  0  0  0  0  0  0  0
   39.1980   34.2550   40.1130 H   0  0  0  0  0  0  0  0  0  0  0  0
  1  3  1  0  0  0  0
  2  1  1  0  0  0  0
  4  1  1  0  0  0  0
  4  5  1  0  0  0  0
  5  6  1  0  0  0  0
  7  5  2  0  0  0  0
  8  9  1  0  0  0  0
  8  7  1  0  0  0  0
 10  8  2  0  0  0  0
 11 10  1  0  0  0  0
 12 10  1  0  0  0  0
 12  4  2  0  0  0  0
 13 14  2  0  0  0  0
 14  1  1  0  0  0  0
 15 16  1  0  0  0  0
 16 13  1  0  0  0  0
 16 17  2  0  0  0  0
 17 22  1  0  0  0  0
 18 17  1  0  0  0  0
 19 18  2  0  0  0  0
 20 15  2  0  0  0  0
 20 19  1  0  0  0  0
 21 15  1  0  0  0  0
 23 19  1  0  0  0  0
M  END
>  <minimizedAffinity>
-4.76641035

$$$$

 OpenBabel03242517143D

 23 24  0  0  0  0  0  0  0  0999 V2000
   38.1400   27.7910   43.6770 C   0  0  0  0  0  0  0  0  0  0  0  0
   37.0930   28.0030   44.0130 H   0  0  0  0  0  0  0  0  0  0  0  0
   38.7680   27.8250   44.5770 H   0  0  0  0  0  0  0  0  0  0  0  0
   38.2100   26.4770   42.9780 C   0  0  0  0  0  0  0  0  0  0  0  0
   37.0660   26.0150   42.3290 C   0  0  0  0  0  0  0  0  0  0  0  0
   36.1400   26.6010   42.3310 H   0  0  0  0  0  0  0  0  0  0  0  0
   37.1260   24.7900   41.6750 C   0  0  0  0  0  3  0  0  0  0  0  0
   38.2850   24.0150   41.6500 C   0  0  0  0  0  0  0  0  0  0  0  0
   38.3180   23.0600   41.1360 H   0  0  0  0  0  0  0  0  0  0  0  0
   39.4160   24.4880   42.3000 C   0  0  0  0  0  0  0  0  0  0  0  0
   40.3500   23.9250   42.3130 H   0  0  0  0  0  0  0  0  0  0  0  0
   39.3680   25.7040   42.9530 C   0  0  0  0  0  3  0  0  0  0  0  0
   37.6270   29.6230   42.0910 C   0  0  0  0  0  3  0  0  0  0  0  0
   38.5020   28.9060   42.7540 C   0  0  0  0  0  3  0  0  0  0  0  0
   39.2050   31.1420   40.8930 C   0  0  0  0  0  0  0  0  0  0  0  0
   37.9130   30.7140   41.1830 C   0  0  0  0  0  0  0  0  0  0  0  0
   36.8590   31.3700   40.5710 C   0  0  0  0  0  0  0  0  0  0  0  0
   37.1140   32.4050   39.7110 N   0  0  0  0  0  0  0  0  0  0  0  0
   38.3920   32.7940   39.4500 C   0  0  0  0  0  0  0  0  0  0  0  0
   39.4190   32.1610   40.0420 N   0  0  0  0  0  0  0  0  0  0  0  0
   40.0440   30.6410   41.3610 H   0  0  0  0  0  0  0  0  0  0  0  0
   35.8280   31.0980   40.7450 H   0  0  0  0  0  0  0  0  0  0  0  0
   38.4300   33.6210   38.7550 H   0  0  0  0  0  0  0  0  0  0  0  0
  1  2  1  0  0  0  0
  1  3  1  0  0  0  0
  4  1  1  0  0  0  0
  5  6  1  0  0  0  0
  5  4  2  0  0  0  0
  7  5  1  0  0  0  0
  8  7  2  0  0  0  0
  8 10  1  0  0  0  0
  9  8  1  0  0  0  0
 10 11  1  0  0  0  0
 10 12  2  0  0  0  0
 12  4  1  0  0  0  0
 13 14  2  0  0  0  0
 14  1  1  0  0  0  0
 15 16  1  0  0  0  0
 15 21  1  0  0  0  0
 16 13  1  0  0  0  0
 17 22  1  0  0  0  0
 17 16  2  0  0  0  0
 18 17  1  0  0  0  0
 19 18  2  0  0  0  0
 19 20  1  0  0  0  0
 20 15  2  0  0  0  0
 23 19  1  0  0  0  0
M  END
>  <minimizedAffinity>
-4.47027159

$$$$

 OpenBabel03242517143D

 23 24  0  0  0  0  0  0  0  0999 V2000
   32.8210   28.8280   36.9620 C   0  0  0  0  0  0  0  0  0  0  0  0
   32.3630   27.8070   36.9260 H   0  0  0  0  0  0  0  0  0  0  0  0
   33.5290   28.8810   36.1230 H   0  0  0  0  0  0  0  0  0  0  0  0
   31.7670   29.8780   36.8890 C   0  0  0  0  0  0  0  0  0  0  0  0
   30.9790   30.0980   38.0180 C   0  0  0  0  0  0  0  0  0  0  0  0
   31.1280   29.5160   38.9340 H   0  0  0  0  0  0  0  0  0  0  0  0
   29.9930   31.0780   37.9550 C   0  0  0  0  0  3  0  0  0  0  0  0
   29.7720   31.8390   36.8080 C   0  0  0  0  0  0  0  0  0  0  0  0
   28.9990   32.6000   36.7730 H   0  0  0  0  0  0  0  0  0  0  0  0
   30.5640   31.6090   35.6940 C   0  0  0  0  0  0  0  0  0  0  0  0
   30.4360   32.1740   34.7700 H   0  0  0  0  0  0  0  0  0  0  0  0
   31.5460   30.6380   35.7440 C   0  0  0  0  0  3  0  0  0  0  0  0
   34.8570   29.0090   38.3610 C   0  0  0  0  0  3  0  0  0  0  0  0
   33.5540   28.8970   38.2600 C   0  0  0  0  0  3  0  0  0  0  0  0
   35.8420   30.2670   40.2780 C   0  0  0  0  0  0  0  0  0  0  0  0
   35.6260   29.0800   39.5850 C   0  0  0  0  0  0  0  0  0  0  0  0
   36.1780   27.9190   40.0980 C   0  0  0  0  0  0  0  0  0  0  0  0
   36.9100   27.9710   41.2550 N   0  0  0  0  0  0  0  0  0  0  0  0
   37.0990   29.1510   41.9050 C   0  0  0  0  0  0  0  0  0  0  0  0
   36.5650   30.2820   41.4130 N   0  0  0  0  0  0  0  0  0  0  0  0
   35.4180   31.1870   39.8950 H   0  0  0  0  0  0  0  0  0  0  0  0
   36.0560   26.9580   39.6190 H   0  0  0  0  0  0  0  0  0  0  0  0
   37.6950   29.0310   42.7990 H   0  0  0  0  0  0  0  0  0  0  0  0
  1 14  1  0  0  0  0
  2  1  1  0  0  0  0
  3  1  1  0  0  0  0
  4  1  1  0  0  0  0
  4  5  1  0  0  0  0
  5  6  1  0  0  0  0
  7  5  2  0  0  0  0
  8  7  1  0  0  0  0
  9  8  1  0  0  0  0
 10 12  1  0  0  0  0
 10  8  2  0  0  0  0
 11 10  1  0  0  0  0
 12  4  2  0  0  0  0
 13 16  1  0  0  0  0
 14 13  2  0  0  0  0
 15 20  1  0  0  0  0
 16 17  1  0  0  0  0
 16 15  2  0  0  0  0
 17 18  2  0  0  0  0
 18 19  1  0  0  0  0
 19 23  1  0  0  0  0
 20 19  2  0  0  0  0
 21 15  1  0  0  0  0
 22 17  1  0  0  0  0
M  END
>  <minimizedAffinity>
-4.42301273

$$$$

 OpenBabel03242517143D

 23 24  0  0  0  0  0  0  0  0999 V2000
   36.5260   30.5090   41.3930 C   0  0  0  0  0  0  0  0  0  0  0  0
   35.6730   30.8980   42.0040 H   0  0  0  0  0  0  0  0  0  0  0  0
   37.2440   31.3350   41.2980 H   0  0  0  0  0  0  0  0  0  0  0  0
   37.1230   29.3040   42.0360 C   0  0  0  0  0  0  0  0  0  0  0  0
   38.3960   29.4180   42.5920 C   0  0  0  0  0  0  0  0  0  0  0  0
   38.9440   30.3650   42.5580 H   0  0  0  0  0  0  0  0  0  0  0  0
   38.9570   28.2970   43.1940 C   0  0  0  0  0  3  0  0  0  0  0  0
   38.2910   27.0730   43.2570 C   0  0  0  0  0  0  0  0  0  0  0  0
   38.7410   26.2060   43.7290 H   0  0  0  0  0  0  0  0  0  0  0  0
   37.0250   26.9750   42.6990 C   0  0  0  0  0  0  0  0  0  0  0  0
   36.4570   26.0440   42.7200 H   0  0  0  0  0  0  0  0  0  0  0  0
   36.4570   28.0830   42.0980 C   0  0  0  0  0  3  0  0  0  0  0  0
   36.6580   30.0520   38.9630 C   0  0  0  0  0  3  0  0  0  0  0  0
   35.9490   30.1720   40.0590 C   0  0  0  0  0  3  0  0  0  0  0  0
   36.8750   29.9870   36.4770 C   0  0  0  0  0  0  0  0  0  0  0  0
   36.1600   29.7290   37.6420 C   0  0  0  0  0  0  0  0  0  0  0  0
   34.9150   29.1370   37.5220 C   0  0  0  0  0  0  0  0  0  0  0  0
   34.4300   28.8270   36.2790 N   0  0  0  0  0  0  0  0  0  0  0  0
   35.1600   29.0940   35.1620 C   0  0  0  0  0  0  0  0  0  0  0  0
   36.3690   29.6690   35.2720 N   0  0  0  0  0  0  0  0  0  0  0  0
   37.8530   30.4490   36.5490 H   0  0  0  0  0  0  0  0  0  0  0  0
   34.2980   28.9050   38.3780 H   0  0  0  0  0  0  0  0  0  0  0  0
   34.6450   28.7930   34.2590 H   0  0  0  0  0  0  0  0  0  0  0  0
  1  2  1  0  0  0  0
  1  4  1  0  0  0  0
  3  1  1  0  0  0  0
  4 12  2  0  0  0  0
  4  5  1  0  0  0  0
  5  7  2  0  0  0  0
  6  5  1  0  0  0  0
  7  8  1  0  0  0  0
  8  9  1  0  0  0  0
 10 11  1  0  0  0  0
 10  8  2  0  0  0  0
 12 10  1  0  0  0  0
 13 14  2  0  0  0  0
 14  1  1  0  0  0  0
 15 21  1  0  0  0  0
 15 16  1  0  0  0  0
 16 13  1  0  0  0  0
 17 16  2  0  0  0  0
 17 22  1  0  0  0  0
 18 17  1  0  0  0  0
 19 20  1  0  0  0  0
 19 18  2  0  0  0  0
 20 15  2  0  0  0  0
 23 19  1  0  0  0  0
M  END
>  <minimizedAffinity>
-4.36700916

$$$$

 OpenBabel03242517143D

 23 24  0  0  0  0  0  0  0  0999 V2000
   36.8310   30.5170   41.0340 C   0  0  0  0  0  0  0  0  0  0  0  0
   36.3490   30.1750   40.0840 H   0  0  0  0  0  0  0  0  0  0  0  0
   36.0980   31.1580   41.5430 H   0  0  0  0  0  0  0  0  0  0  0  0
   37.2420   29.3490   41.8630 C   0  0  0  0  0  0  0  0  0  0  0  0
   38.5020   29.3760   42.4590 C   0  0  0  0  0  0  0  0  0  0  0  0
   39.1730   30.2310   42.3220 H   0  0  0  0  0  0  0  0  0  0  0  0
   38.8900   28.2880   43.2340 C   0  0  0  0  0  3  0  0  0  0  0  0
   38.0650   27.1820   43.4310 C   0  0  0  0  0  0  0  0  0  0  0  0
   38.3810   26.3400   44.0370 H   0  0  0  0  0  0  0  0  0  0  0  0
   36.8140   27.1700   42.8320 C   0  0  0  0  0  0  0  0  0  0  0  0
   36.1270   26.3310   42.9520 H   0  0  0  0  0  0  0  0  0  0  0  0
   36.4170   28.2440   42.0590 C   0  0  0  0  0  3  0  0  0  0  0  0
   38.3660   31.5250   39.3720 C   0  0  0  0  0  3  0  0  0  0  0  0
   38.0180   31.3210   40.6200 C   0  0  0  0  0  3  0  0  0  0  0  0
   39.9350   33.4600   39.5240 C   0  0  0  0  0  0  0  0  0  0  0  0
   39.5020   32.2920   38.9060 C   0  0  0  0  0  0  0  0  0  0  0  0
   40.1960   31.8520   37.7920 C   0  0  0  0  0  0  0  0  0  0  0  0
   41.2710   32.5670   37.3380 N   0  0  0  0  0  0  0  0  0  0  0  0
   41.6660   33.7060   37.9710 C   0  0  0  0  0  0  0  0  0  0  0  0
   40.9960   34.1380   39.0520 N   0  0  0  0  0  0  0  0  0  0  0  0
   39.4060   33.8220   40.3980 H   0  0  0  0  0  0  0  0  0  0  0  0
   39.9220   30.9540   37.2560 H   0  0  0  0  0  0  0  0  0  0  0  0
   42.5270   34.1570   37.4960 H   0  0  0  0  0  0  0  0  0  0  0  0
  1  3  1  0  0  0  0
  1  4  1  0  0  0  0
  2  1  1  0  0  0  0
  4 12  2  0  0  0  0
  4  5  1  0  0  0  0
  5  7  2  0  0  0  0
  6  5  1  0  0  0  0
  7  8  1  0  0  0  0
  8  9  1  0  0  0  0
 10 11  1  0  0  0  0
 10  8  2  0  0  0  0
 12 10  1  0  0  0  0
 13 14  2  0  0  0  0
 14  1  1  0  0  0  0
 15 21  1  0  0  0  0
 16 13  1  0  0  0  0
 16 15  2  0  0  0  0
 17 16  1  0  0  0  0
 18 17  2  0  0  0  0
 18 19  1  0  0  0  0
 19 20  2  0  0  0  0
 20 15  1  0  0  0  0
 22 17  1  0  0  0  0
 23 19  1  0  0  0  0
M  END
>  <minimizedAffinity>
-4.33345127

$$$$

 OpenBabel03242517143D

 23 24  0  0  0  0  0  0  0  0999 V2000
   36.5360   27.7520   42.3630 C   0  0  0  0  0  0  0  0  0  0  0  0
   35.5350   27.2530   42.3170 H   0  0  0  0  0  0  0  0  0  0  0  0
   36.4640   28.5230   43.1420 H   0  0  0  0  0  0  0  0  0  0  0  0
   37.6060   26.7530   42.6430 C   0  0  0  0  0  0  0  0  0  0  0  0
   38.6960   27.1560   43.4140 C   0  0  0  0  0  0  0  0  0  0  0  0
   38.7650   28.1780   43.8030 H   0  0  0  0  0  0  0  0  0  0  0  0
   39.6970   26.2290   43.6800 C   0  0  0  0  0  3  0  0  0  0  0  0
   39.6450   24.9200   43.2020 C   0  0  0  0  0  0  0  0  0  0  0  0
   40.4340   24.2060   43.4160 H   0  0  0  0  0  0  0  0  0  0  0  0
   38.5550   24.5330   42.4370 C   0  0  0  0  0  0  0  0  0  0  0  0
   38.4610   23.5220   42.0380 H   0  0  0  0  0  0  0  0  0  0  0  0
   37.5530   25.4460   42.1670 C   0  0  0  0  0  3  0  0  0  0  0  0
   36.0510   28.0660   39.9550 C   0  0  0  0  0  3  0  0  0  0  0  0
   36.7340   28.3860   41.0270 C   0  0  0  0  0  3  0  0  0  0  0  0
   36.8790   29.8280   38.3940 C   0  0  0  0  0  0  0  0  0  0  0  0
   36.1960   28.6410   38.6340 C   0  0  0  0  0  0  0  0  0  0  0  0
   35.6290   27.9880   37.5530 C   0  0  0  0  0  0  0  0  0  0  0  0
   35.7550   28.5200   36.2980 N   0  0  0  0  0  0  0  0  0  0  0  0
   36.4330   29.6840   36.1020 C   0  0  0  0  0  0  0  0  0  0  0  0
   36.9850   30.3230   37.1470 N   0  0  0  0  0  0  0  0  0  0  0  0
   37.3310   30.3550   39.2250 H   0  0  0  0  0  0  0  0  0  0  0  0
   35.0820   27.0610   37.6580 H   0  0  0  0  0  0  0  0  0  0  0  0
   36.4460   29.9750   35.0600 H   0  0  0  0  0  0  0  0  0  0  0  0
  1  4  1  0  0  0  0
  1  3  1  0  0  0  0
  2  1  1  0  0  0  0
  4  5  1  0  0  0  0
  5  7  2  0  0  0  0
  5  6  1  0  0  0  0
  8  9  1  0  0  0  0
  8  7  1  0  0  0  0
 10  8  2  0  0  0  0
 11 10  1  0  0  0  0
 12 10  1  0  0  0  0
 12  4  2  0  0  0  0
 13 14  2  0  0  0  0
 14  1  1  0  0  0  0
 15 16  1  0  0  0  0
 15 21  1  0  0  0  0
 16 13  1  0  0  0  0
 17 22  1  0  0  0  0
 17 16  2  0  0  0  0
 18 17  1  0  0  0  0
 19 18  2  0  0  0  0
 19 20  1  0  0  0  0
 20 15  2  0  0  0  0
 23 19  1  0  0  0  0
M  END
>  <minimizedAffinity>
-4.22869205

$$$$

 OpenBabel03242517143D

 23 24  0  0  0  0  0  0  0  0999 V2000
   32.9650   28.4420   36.6010 C   0  0  0  0  0  0  0  0  0  0  0  0
   32.2870   27.5870   36.8470 H   0  0  0  0  0  0  0  0  0  0  0  0
   33.6740   28.0710   35.8470 H   0  0  0  0  0  0  0  0  0  0  0  0
   32.1780   29.6130   36.1200 C   0  0  0  0  0  0  0  0  0  0  0  0
   32.3630   30.0330   34.8030 C   0  0  0  0  0  0  0  0  0  0  0  0
   33.0670   29.5180   34.1400 H   0  0  0  0  0  0  0  0  0  0  0  0
   31.6310   31.1240   34.3490 C   0  0  0  0  0  3  0  0  0  0  0  0
   30.7260   31.8050   35.1620 C   0  0  0  0  0  0  0  0  0  0  0  0
   30.1610   32.6550   34.7950 H   0  0  0  0  0  0  0  0  0  0  0  0
   30.5520   31.3750   36.4690 C   0  0  0  0  0  0  0  0  0  0  0  0
   29.8580   31.8690   37.1500 H   0  0  0  0  0  0  0  0  0  0  0  0
   31.2750   30.2920   36.9330 C   0  0  0  0  0  3  0  0  0  0  0  0
   34.9210   29.1970   37.9190 C   0  0  0  0  0  3  0  0  0  0  0  0
   33.6840   28.7670   37.8680 C   0  0  0  0  0  3  0  0  0  0  0  0
   36.5750   30.5850   39.1710 C   0  0  0  0  0  0  0  0  0  0  0  0
   35.6730   29.5280   39.1110 C   0  0  0  0  0  0  0  0  0  0  0  0
   35.4940   28.7620   40.2500 C   0  0  0  0  0  0  0  0  0  0  0  0
   36.1990   29.0610   41.3860 N   0  0  0  0  0  0  0  0  0  0  0  0
   37.0720   30.1040   41.4060 C   0  0  0  0  0  0  0  0  0  0  0  0
   37.2510   30.8510   40.3040 N   0  0  0  0  0  0  0  0  0  0  0  0
   36.7300   31.1970   38.2910 H   0  0  0  0  0  0  0  0  0  0  0  0
   34.8110   27.9240   40.2840 H   0  0  0  0  0  0  0  0  0  0  0  0
   37.5510   30.2130   42.3700 H   0  0  0  0  0  0  0  0  0  0  0  0
  1  2  1  0  0  0  0
  1 14  1  0  0  0  0
  3  1  1  0  0  0  0
  4  1  1  0  0  0  0
  4 12  1  0  0  0  0
  5  4  2  0  0  0  0
  6  5  1  0  0  0  0
  7  5  1  0  0  0  0
  7  8  2  0  0  0  0
  8 10  1  0  0  0  0
  9  8  1  0  0  0  0
 10 12  2  0  0  0  0
 10 11  1  0  0  0  0
 13 16  1  0  0  0  0
 14 13  2  0  0  0  0
 15 20  1  0  0  0  0
 16 15  2  0  0  0  0
 16 17  1  0  0  0  0
 17 22  1  0  0  0  0
 17 18  2  0  0  0  0
 18 19  1  0  0  0  0
 19 23  1  0  0  0  0
 20 19  2  0  0  0  0
 21 15  1  0  0  0  0
M  END
>  <minimizedAffinity>
-4.21913767

$$$$
