
 OpenBabel03252504593D

 37 39  0  0  1  0  0  0  0  0999 V2000
   47.8520   33.9650   41.9800 N   0  0  0  0  0  0  0  0  0  0  0  0
   47.8770   34.8490   40.8760 C   0  0  0  0  0  0  0  0  0  0  0  0
   49.0330   35.7150   41.1860 C   0  0  0  0  0  0  0  0  0  0  0  0
   49.6690   35.2360   42.4770 C   0  0  0  0  0  0  0  0  0  0  0  0
   49.1130   33.8080   42.5800 C   0  0  2  0  0  0  0  0  0  0  0  0
   47.3610   35.0550   39.9750 H   0  0  0  0  0  0  0  0  0  0  0  0
   49.4560   36.5440   40.6500 H   0  0  0  0  0  0  0  0  0  0  0  0
   49.3790   35.8620   43.3300 H   0  0  0  0  0  0  0  0  0  0  0  0
   50.7560   35.1980   42.3010 H   0  0  0  0  0  0  0  0  0  0  0  0
   49.0700   33.4290   43.5970 H   0  0  0  0  0  0  0  0  0  0  0  0
   46.6640   33.3980   42.3720 C   0  0  0  0  0  0  0  0  0  0  0  0
   46.8740   32.3360   42.6500 H   0  0  0  0  0  0  0  0  0  0  0  0
   45.9090   33.2740   41.5590 H   0  0  0  0  0  0  0  0  0  0  0  0
   44.5910   35.8260   44.4090 C   0  0  0  0  0  0  0  0  0  0  0  0
   45.2510   35.2650   43.2820 C   0  0  0  0  0  0  0  0  0  0  0  0
   45.9720   34.0870   43.4420 C   0  0  0  0  0  0  0  0  0  0  0  0
   45.9990   33.5430   44.6800 N   0  0  0  0  0  0  0  0  0  0  0  0
   45.3550   34.0960   45.7670 C   0  0  0  0  0  0  0  0  0  0  0  0
   44.6590   35.2250   45.6300 N   0  0  0  0  0  0  0  0  0  0  0  0
   44.0300   36.7430   44.2840 H   0  0  0  0  0  0  0  0  0  0  0  0
   45.2070   35.7280   42.3060 H   0  0  0  0  0  0  0  0  0  0  0  0
   45.4730   33.5400   46.6890 H   0  0  0  0  0  0  0  0  0  0  0  0
   49.8790   33.0320   41.6970 O   0  0  0  0  0  0  0  0  0  0  0  0
   49.1510   30.9490   43.1760 O   0  0  0  0  0  0  0  0  0  0  0  0
   50.1930   31.4950   42.2310 P   0  0  2  0  0  0  0  0  0  0  0  0
   51.6680   31.5130   43.0660 O   0  0  0  0  0  0  0  0  0  0  0  0
   51.6250   31.0270   43.9170 H   0  0  0  0  0  0  0  0  0  0  0  0
   50.4190   30.4200   40.9130 O   0  0  0  0  0  0  0  0  0  0  0  0
   51.3040   30.8440   39.9090 C   0  0  0  0  0  0  0  0  0  0  0  0
   52.6750   30.8600   40.0410 C   0  0  0  0  0  0  0  0  0  0  0  0
   53.0970   30.5230   40.9820 H   0  0  0  0  0  0  0  0  0  0  0  0
   53.4140   31.3110   38.9470 C   0  0  0  0  0  0  0  0  0  0  0  0
   52.7530   31.7130   37.8050 C   0  0  0  0  0  0  0  0  0  0  0  0
   53.3250   32.0680   36.9430 H   0  0  0  0  0  0  0  0  0  0  0  0
   51.3790   31.6960   37.6740 C   0  0  0  0  0  0  0  0  0  0  0  0
   50.8820   32.0170   36.7670 H   0  0  0  0  0  0  0  0  0  0  0  0
   50.6400   31.2440   38.7690 C   0  0  0  0  0  0  0  0  0  0  0  0
  1 11  1  0  0  0  0
  1  5  1  0  0  0  0
  2  3  2  0  0  0  0
  2  1  1  0  0  0  0
  3  4  1  0  0  0  0
  4  5  1  0  0  0  0
  4  8  1  0  0  0  0
  5 10  1  1  0  0  0
  6  2  1  0  0  0  0
  7  3  1  0  0  0  0
  9  4  1  0  0  0  0
 11 12  1  0  0  0  0
 11 16  1  0  0  0  0
 13 11  1  0  0  0  0
 14 19  1  0  0  0  0
 15 16  1  0  0  0  0
 15 14  2  0  0  0  0
 16 17  2  0  0  0  0
 17 18  1  0  0  0  0
 18 22  1  0  0  0  0
 19 18  2  0  0  0  0
 20 14  1  0  0  0  0
 21 15  1  0  0  0  0
 23 25  1  0  0  0  0
 23  5  1  0  0  0  0
 25 26  1  0  0  0  0
 25 24  2  1  0  0  0
 26 27  1  0  0  0  0
 28 25  1  0  0  0  0
 29 30  1  0  0  0  0
 29 28  1  0  0  0  0
 30 31  1  0  0  0  0
 32 30  2  0  0  0  0
 33 32  1  0  0  0  0
 34 33  1  0  0  0  0
 35 33  2  0  0  0  0
 35 37  1  0  0  0  0
 36 35  1  0  0  0  0
 37 29  2  0  0  0  0
M  END
>  <minimizedAffinity>
-5.29295921

>  <minimizedRMSD>
2.32752919

$$$$
