
 OpenBabel03252509273D

 30 32  0  0  1  0  0  0  0  0999 V2000
   46.5540   34.9790   42.0120 C   0  0  1  0  0  0  0  0  0  0  0  0
   48.0610   35.3530   41.9310 C   0  0  0  0  0  0  0  0  0  0  0  0
   47.3770   34.1100   41.2810 C   0  0  2  0  0  0  0  0  0  0  0  0
   45.8900   35.7320   41.5400 H   0  0  0  0  0  0  0  0  0  0  0  0
   48.6970   35.1790   42.8020 H   0  0  0  0  0  0  0  0  0  0  0  0
   48.2820   36.1840   41.2470 H   0  0  0  0  0  0  0  0  0  0  0  0
   47.7780   33.1450   41.7180 H   0  0  0  0  0  0  0  0  0  0  0  0
   44.8640   34.9130   45.3630 C   0  0  0  0  0  0  0  0  0  0  0  0
   45.1870   35.3560   44.0360 C   0  0  0  0  0  0  0  0  0  0  0  0
   46.1740   34.6470   43.4350 C   0  0  0  0  0  0  0  0  0  0  0  0
   46.8120   33.5920   44.0500 N   0  0  0  0  0  0  0  0  0  0  0  0
   46.4740   33.2100   45.3020 C   0  0  0  0  0  0  0  0  0  0  0  0
   45.4930   33.8770   45.9620 N   0  0  0  0  0  0  0  0  0  0  0  0
   44.0690   35.4610   45.8840 H   0  0  0  0  0  0  0  0  0  0  0  0
   46.9220   32.4080   45.8400 H   0  0  0  0  0  0  0  0  0  0  0  0
   44.5530   36.4470   43.4230 N   0  0  0  0  0  0  0  0  0  0  0  0
   44.7220   37.2770   44.0650 H   0  0  0  0  0  0  0  0  0  0  0  0
   44.0330   36.4670   42.5420 H   0  0  0  0  0  0  0  0  0  0  0  0
   47.3180   34.0230   39.7750 C   0  0  0  0  0  0  0  0  0  0  0  0
   46.3380   33.5740   39.4600 H   0  0  0  0  0  0  0  0  0  0  0  0
   47.3470   35.0500   39.3750 H   0  0  0  0  0  0  0  0  0  0  0  0
   48.4000   33.1710   39.2080 C   0  0  0  0  0  0  0  0  0  0  0  0
   48.6280   33.2260   37.8350 C   0  0  0  0  0  0  0  0  0  0  0  0
   48.0620   33.8550   37.1590 H   0  0  0  0  0  0  0  0  0  0  0  0
   49.6400   32.4210   37.3480 C   0  0  0  0  0  3  0  0  0  0  0  0
   50.4070   31.5890   38.1630 C   0  0  0  0  0  0  0  0  0  0  0  0
   51.1990   30.9590   37.7800 H   0  0  0  0  0  0  0  0  0  0  0  0
   50.1330   31.5810   39.5050 C   0  0  0  0  0  0  0  0  0  0  0  0
   50.7200   30.9400   40.1490 H   0  0  0  0  0  0  0  0  0  0  0  0
   49.1330   32.3680   40.0270 C   0  0  0  0  0  3  0  0  0  0  0  0
  1  4  1  6  0  0  0
  1 10  1  0  0  0  0
  2  1  1  0  0  0  0
  2  5  1  0  0  0  0
  3  7  1  1  0  0  0
  3  2  1  0  0  0  0
  3  1  1  0  0  0  0
  6  2  1  0  0  0  0
  8 14  1  0  0  0  0
  8 13  1  0  0  0  0
  9  8  2  0  0  0  0
 10  9  1  0  0  0  0
 10 11  2  0  0  0  0
 11 12  1  0  0  0  0
 12 15  1  0  0  0  0
 12 13  2  0  0  0  0
 16  9  1  0  0  0  0
 16 17  1  0  0  0  0
 18 16  1  0  0  0  0
 19  3  1  0  0  0  0
 20 19  1  0  0  0  0
 21 19  1  0  0  0  0
 22 19  1  0  0  0  0
 22 30  1  0  0  0  0
 23 22  2  0  0  0  0
 24 23  1  0  0  0  0
 25 23  1  0  0  0  0
 25 26  2  0  0  0  0
 26 28  1  0  0  0  0
 27 26  1  0  0  0  0
 28 30  2  0  0  0  0
 28 29  1  0  0  0  0
M  END
>  <minimizedAffinity>
-4.86548901

>  <minimizedRMSD>
0.842112839

$$$$
