
 OpenBabel03242514003D

 41 45  0  0  0  0  0  0  0  0999 V2000
   40.3860   32.2520   39.3800 C   0  0  0  0  0  0  0  0  0  0  0  0
   40.0040   33.5090   39.8530 C   0  0  0  0  0  0  0  0  0  0  0  0
   38.7620   33.6120   40.5210 C   0  0  0  0  0  0  0  0  0  0  0  0
   38.0160   32.5050   40.6670 N   0  0  0  0  0  0  0  0  0  0  0  0
   38.4020   31.3040   40.2050 C   0  0  0  0  0  0  0  0  0  0  0  0
   39.6100   31.1940   39.5530 N   0  0  0  0  0  0  0  0  0  0  0  0
   41.3400   32.2080   38.8750 H   0  0  0  0  0  0  0  0  0  0  0  0
   38.4330   34.5720   40.9010 H   0  0  0  0  0  0  0  0  0  0  0  0
   37.6400   30.0680   40.3310 C   0  0  0  0  0  0  0  0  0  0  0  0
   36.2430   30.0680   40.3520 C   0  0  0  0  0  0  0  0  0  0  0  0
   35.8460   28.7320   40.4810 C   0  0  0  0  0  0  0  0  0  0  0  0
   36.9770   27.9990   40.5330 N   0  0  0  0  0  0  0  0  0  0  0  0
   38.0390   28.8060   40.4430 N   0  0  0  0  0  0  0  0  0  0  0  0
   35.5940   30.9440   40.2790 H   0  0  0  0  0  0  0  0  0  0  0  0
   34.7970   28.4750   40.5200 H   0  0  0  0  0  0  0  0  0  0  0  0
   36.8540   26.6030   40.6640 C   0  0  0  0  0  0  0  0  0  0  0  0
   36.5310   25.8460   39.5440 C   0  0  0  0  0  0  0  0  0  0  0  0
   36.3760   26.3240   38.5730 H   0  0  0  0  0  0  0  0  0  0  0  0
   36.3980   24.4560   39.6190 C   0  0  0  0  0  3  0  0  0  0  0  0
   36.6000   23.8610   40.8670 C   0  0  0  0  0  0  0  0  0  0  0  0
   36.5050   22.7910   40.9630 H   0  0  0  0  0  0  0  0  0  0  0  0
   36.9210   24.5980   41.9950 C   0  0  0  0  0  0  0  0  0  0  0  0
   37.0740   24.1160   42.9520 H   0  0  0  0  0  0  0  0  0  0  0  0
   37.0460   25.9810   41.8790 C   0  0  0  0  0  3  0  0  0  0  0  0
   40.7530   34.6620   39.7150 O   0  0  0  0  0  0  0  0  0  0  0  0
   41.4380   35.2890   40.7400 C   0  0  0  0  0  0  0  0  0  0  0  0
   41.0730   36.4650   41.3690 C   0  0  0  0  0  0  0  0  0  0  0  0
   41.8520   36.9730   42.3750 C   0  0  0  0  0  0  0  0  0  0  0  0
   43.0200   36.3440   42.8010 C   0  0  0  0  0  0  0  0  0  0  0  0
   43.7230   36.9030   43.7860 N   0  0  0  0  0  0  0  0  0  0  0  0
   44.8600   36.3240   44.2290 C   0  0  0  0  0  0  0  0  0  0  0  0
   45.2590   35.1450   43.6250 C   0  0  0  0  0  0  0  0  0  0  0  0
   44.5150   34.5590   42.5870 C   0  0  0  0  0  0  0  0  0  0  0  0
   43.3610   35.1860   42.1670 C   0  0  0  0  0  0  0  0  0  0  0  0
   42.5910   34.6380   41.1380 C   0  0  0  0  0  0  0  0  0  0  0  0
   40.1570   36.9310   41.0120 H   0  0  0  0  0  0  0  0  0  0  0  0
   41.5690   37.8900   42.8660 H   0  0  0  0  0  0  0  0  0  0  0  0
   45.4670   36.7190   45.0140 H   0  0  0  0  0  0  0  0  0  0  0  0
   46.1590   34.6010   43.9070 H   0  0  0  0  0  0  0  0  0  0  0  0
   44.8430   33.6460   42.1320 H   0  0  0  0  0  0  0  0  0  0  0  0
   42.9600   33.7200   40.7140 H   0  0  0  0  0  0  0  0  0  0  0  0
  1  6  2  0  0  0  0
  1  2  1  0  0  0  0
  2  3  2  0  0  0  0
  3  4  1  0  0  0  0
  3  8  1  0  0  0  0
  5  9  1  0  0  0  0
  5  4  2  0  0  0  0
  6  5  1  0  0  0  0
  7  1  1  0  0  0  0
  9 10  1  0  0  0  0
  9 13  2  0  0  0  0
 10 11  2  0  0  0  0
 11 15  1  0  0  0  0
 11 12  1  0  0  0  0
 12 16  1  0  0  0  0
 13 12  1  0  0  0  0
 14 10  1  0  0  0  0
 16 24  1  0  0  0  0
 17 19  1  0  0  0  0
 17 16  2  0  0  0  0
 18 17  1  0  0  0  0
 19 20  2  0  0  0  0
 20 21  1  0  0  0  0
 20 22  1  0  0  0  0
 22 23  1  0  0  0  0
 24 22  2  0  0  0  0
 25  2  1  0  0  0  0
 25 26  1  0  0  0  0
 26 35  2  0  0  0  0
 26 27  1  0  0  0  0
 27 28  2  0  0  0  0
 28 29  1  0  0  0  0
 28 37  1  0  0  0  0
 29 30  1  0  0  0  0
 30 31  2  0  0  0  0
 31 38  1  0  0  0  0
 32 39  1  0  0  0  0
 32 31  1  0  0  0  0
 33 32  2  0  0  0  0
 34 33  1  0  0  0  0
 34 29  2  0  0  0  0
 35 34  1  0  0  0  0
 36 27  1  0  0  0  0
 40 33  1  0  0  0  0
 41 35  1  0  0  0  0
M  END
>  <minimizedAffinity>
-7.53254604

$$$$

 OpenBabel03242514003D

 41 45  0  0  0  0  0  0  0  0999 V2000
   38.7600   31.1110   38.6220 C   0  0  0  0  0  0  0  0  0  0  0  0
   37.4240   31.1100   39.0260 C   0  0  0  0  0  0  0  0  0  0  0  0
   37.0080   32.1180   39.9270 C   0  0  0  0  0  0  0  0  0  0  0  0
   37.9090   33.0190   40.3470 N   0  0  0  0  0  0  0  0  0  0  0  0
   39.1920   33.0020   39.9460 C   0  0  0  0  0  0  0  0  0  0  0  0
   39.6070   32.0250   39.0690 N   0  0  0  0  0  0  0  0  0  0  0  0
   39.0460   30.3280   37.9340 H   0  0  0  0  0  0  0  0  0  0  0  0
   35.9770   32.1480   40.2620 H   0  0  0  0  0  0  0  0  0  0  0  0
   40.2180   33.9490   40.3640 C   0  0  0  0  0  0  0  0  0  0  0  0
   40.0840   35.3210   40.1360 C   0  0  0  0  0  0  0  0  0  0  0  0
   41.2340   35.9260   40.6570 C   0  0  0  0  0  0  0  0  0  0  0  0
   41.9940   34.9330   41.1620 N   0  0  0  0  0  0  0  0  0  0  0  0
   41.3790   33.7600   40.9810 N   0  0  0  0  0  0  0  0  0  0  0  0
   39.2420   35.8170   39.6470 H   0  0  0  0  0  0  0  0  0  0  0  0
   41.3610   36.9980   40.6000 H   0  0  0  0  0  0  0  0  0  0  0  0
   43.2230   35.2790   41.7540 C   0  0  0  0  0  0  0  0  0  0  0  0
   43.2300   36.1510   42.8370 C   0  0  0  0  0  0  0  0  0  0  0  0
   42.2960   36.5640   43.2260 H   0  0  0  0  0  0  0  0  0  0  0  0
   44.4240   36.5260   43.4620 C   0  0  0  0  0  3  0  0  0  0  0  0
   45.6080   35.9890   42.9510 C   0  0  0  0  0  0  0  0  0  0  0  0
   46.5480   36.2560   43.4080 H   0  0  0  0  0  0  0  0  0  0  0  0
   45.6230   35.1200   41.8730 C   0  0  0  0  0  0  0  0  0  0  0  0
   46.5530   34.7150   41.4950 H   0  0  0  0  0  0  0  0  0  0  0  0
   44.4120   34.7690   41.2780 C   0  0  0  0  0  3  0  0  0  0  0  0
   36.4770   30.1950   38.6090 O   0  0  0  0  0  0  0  0  0  0  0  0
   36.5040   28.8420   38.8920 C   0  0  0  0  0  0  0  0  0  0  0  0
   36.3140   27.8120   37.9890 C   0  0  0  0  0  0  0  0  0  0  0  0
   36.3690   26.5100   38.4140 C   0  0  0  0  0  0  0  0  0  0  0  0
   36.6140   26.1710   39.7430 C   0  0  0  0  0  0  0  0  0  0  0  0
   36.6510   24.8810   40.0770 N   0  0  0  0  0  0  0  0  0  0  0  0
   36.8860   24.5110   41.3540 C   0  0  0  0  0  0  0  0  0  0  0  0
   37.0820   25.5140   42.2880 C   0  0  0  0  0  0  0  0  0  0  0  0
   37.0420   26.8720   41.9330 C   0  0  0  0  0  0  0  0  0  0  0  0
   36.7980   27.2030   40.6160 C   0  0  0  0  0  0  0  0  0  0  0  0
   36.7490   28.5410   40.2190 C   0  0  0  0  0  0  0  0  0  0  0  0
   36.1250   28.1100   36.9610 H   0  0  0  0  0  0  0  0  0  0  0  0
   36.2200   25.7070   37.7110 H   0  0  0  0  0  0  0  0  0  0  0  0
   36.9300   23.4970   41.6860 H   0  0  0  0  0  0  0  0  0  0  0  0
   37.2770   25.3210   43.3420 H   0  0  0  0  0  0  0  0  0  0  0  0
   37.1950   27.6310   42.6720 H   0  0  0  0  0  0  0  0  0  0  0  0
   36.9110   29.2680   40.9970 H   0  0  0  0  0  0  0  0  0  0  0  0
  1  2  2  0  0  0  0
  1  6  1  0  0  0  0
  2  3  1  0  0  0  0
  3  8  1  0  0  0  0
  3  4  2  0  0  0  0
  5  4  1  0  0  0  0
  5  9  1  0  0  0  0
  6  5  2  0  0  0  0
  7  1  1  0  0  0  0
  9 13  2  0  0  0  0
 10  9  1  0  0  0  0
 10 11  2  0  0  0  0
 11 12  1  0  0  0  0
 12 16  1  0  0  0  0
 13 12  1  0  0  0  0
 14 10  1  0  0  0  0
 15 11  1  0  0  0  0
 16 17  1  0  0  0  0
 17 18  1  0  0  0  0
 17 19  2  0  0  0  0
 20 21  1  0  0  0  0
 20 19  1  0  0  0  0
 22 20  2  0  0  0  0
 23 22  1  0  0  0  0
 24 16  2  0  0  0  0
 24 22  1  0  0  0  0
 25 26  1  0  0  0  0
 25  2  1  0  0  0  0
 26 35  1  0  0  0  0
 27 28  1  0  0  0  0
 27 26  2  0  0  0  0
 28 29  2  0  0  0  0
 29 30  1  0  0  0  0
 29 34  1  0  0  0  0
 30 31  2  0  0  0  0
 31 38  1  0  0  0  0
 31 32  1  0  0  0  0
 32 39  1  0  0  0  0
 33 32  2  0  0  0  0
 33 40  1  0  0  0  0
 34 33  1  0  0  0  0
 35 34  2  0  0  0  0
 35 41  1  0  0  0  0
 36 27  1  0  0  0  0
 37 28  1  0  0  0  0
M  END
>  <minimizedAffinity>
-7.02515364

$$$$

 OpenBabel03242514003D

 41 45  0  0  0  0  0  0  0  0999 V2000
   38.7620   27.4780   41.0650 C   0  0  0  0  0  0  0  0  0  0  0  0
   37.8140   27.0030   41.9720 C   0  0  0  0  0  0  0  0  0  0  0  0
   36.8850   27.9300   42.5000 C   0  0  0  0  0  0  0  0  0  0  0  0
   36.9590   29.2110   42.1070 N   0  0  0  0  0  0  0  0  0  0  0  0
   37.8800   29.6480   41.2310 C   0  0  0  0  0  0  0  0  0  0  0  0
   38.7890   28.7540   40.7110 N   0  0  0  0  0  0  0  0  0  0  0  0
   39.4570   26.7450   40.6810 H   0  0  0  0  0  0  0  0  0  0  0  0
   36.1350   27.5960   43.2080 H   0  0  0  0  0  0  0  0  0  0  0  0
   38.0130   31.0230   40.7630 C   0  0  0  0  0  0  0  0  0  0  0  0
   36.9430   31.7020   40.1760 C   0  0  0  0  0  0  0  0  0  0  0  0
   37.4130   32.9800   39.8510 C   0  0  0  0  0  0  0  0  0  0  0  0
   38.7040   33.0240   40.2380 N   0  0  0  0  0  0  0  0  0  0  0  0
   39.0500   31.8520   40.7810 N   0  0  0  0  0  0  0  0  0  0  0  0
   35.9380   31.3070   40.0090 H   0  0  0  0  0  0  0  0  0  0  0  0
   36.7570   33.6990   39.3800 H   0  0  0  0  0  0  0  0  0  0  0  0
   39.4180   34.2170   40.0210 C   0  0  0  0  0  0  0  0  0  0  0  0
   40.7110   34.1470   39.5160 C   0  0  0  0  0  0  0  0  0  0  0  0
   41.1690   33.1800   39.2880 H   0  0  0  0  0  0  0  0  0  0  0  0
   41.4640   35.3010   39.2810 C   0  0  0  0  0  3  0  0  0  0  0  0
   40.8640   36.5270   39.5770 C   0  0  0  0  0  0  0  0  0  0  0  0
   41.4150   37.4390   39.4090 H   0  0  0  0  0  0  0  0  0  0  0  0
   39.5770   36.6180   40.0830 C   0  0  0  0  0  0  0  0  0  0  0  0
   39.1310   37.5790   40.3050 H   0  0  0  0  0  0  0  0  0  0  0  0
   38.8580   35.4450   40.3020 C   0  0  0  0  0  3  0  0  0  0  0  0
   37.7170   25.6900   42.3940 O   0  0  0  0  0  0  0  0  0  0  0  0
   37.6300   24.5930   41.5570 C   0  0  0  0  0  0  0  0  0  0  0  0
   38.6390   23.6900   41.2820 C   0  0  0  0  0  0  0  0  0  0  0  0
   38.4080   22.6440   40.4280 C   0  0  0  0  0  0  0  0  0  0  0  0
   37.1740   22.4460   39.8120 C   0  0  0  0  0  0  0  0  0  0  0  0
   37.0290   21.4040   38.9930 N   0  0  0  0  0  0  0  0  0  0  0  0
   35.8490   21.1760   38.3760 C   0  0  0  0  0  0  0  0  0  0  0  0
   34.8130   22.0590   38.6270 C   0  0  0  0  0  0  0  0  0  0  0  0
   34.9690   23.1560   39.4900 C   0  0  0  0  0  0  0  0  0  0  0  0
   36.1930   23.3490   40.0970 C   0  0  0  0  0  0  0  0  0  0  0  0
   36.3920   24.4270   40.9620 C   0  0  0  0  0  0  0  0  0  0  0  0
   39.5890   23.8730   41.7790 H   0  0  0  0  0  0  0  0  0  0  0  0
   39.1950   21.9390   40.2130 H   0  0  0  0  0  0  0  0  0  0  0  0
   35.6680   20.3610   37.7110 H   0  0  0  0  0  0  0  0  0  0  0  0
   33.8250   21.9650   38.1790 H   0  0  0  0  0  0  0  0  0  0  0  0
   34.1540   23.8270   39.6680 H   0  0  0  0  0  0  0  0  0  0  0  0
   35.5440   25.0730   41.1110 H   0  0  0  0  0  0  0  0  0  0  0  0
  1  2  1  0  0  0  0
  2 25  1  0  0  0  0
  2  3  2  0  0  0  0
  3  8  1  0  0  0  0
  4  3  1  0  0  0  0
  5  4  2  0  0  0  0
  6  1  2  0  0  0  0
  6  5  1  0  0  0  0
  7  1  1  0  0  0  0
  9 13  2  0  0  0  0
  9  5  1  0  0  0  0
 10  9  1  0  0  0  0
 11 10  2  0  0  0  0
 11 12  1  0  0  0  0
 12 13  1  0  0  0  0
 14 10  1  0  0  0  0
 15 11  1  0  0  0  0
 16 12  1  0  0  0  0
 16 24  1  0  0  0  0
 17 16  2  0  0  0  0
 18 17  1  0  0  0  0
 19 17  1  0  0  0  0
 19 20  2  0  0  0  0
 20 22  1  0  0  0  0
 21 20  1  0  0  0  0
 22 24  2  0  0  0  0
 22 23  1  0  0  0  0
 26 25  1  0  0  0  0
 27 26  1  0  0  0  0
 27 36  1  0  0  0  0
 28 27  2  0  0  0  0
 29 34  1  0  0  0  0
 29 28  1  0  0  0  0
 30 29  2  0  0  0  0
 31 32  2  0  0  0  0
 31 30  1  0  0  0  0
 32 33  1  0  0  0  0
 33 40  1  0  0  0  0
 33 34  2  0  0  0  0
 34 35  1  0  0  0  0
 35 41  1  0  0  0  0
 35 26  2  0  0  0  0
 37 28  1  0  0  0  0
 38 31  1  0  0  0  0
 39 32  1  0  0  0  0
M  END
>  <minimizedAffinity>
-6.89004946

$$$$

 OpenBabel03242514003D

 41 45  0  0  0  0  0  0  0  0999 V2000
   37.3830   31.6070   40.4640 C   0  0  0  0  0  0  0  0  0  0  0  0
   37.4940   30.8230   39.3160 C   0  0  0  0  0  0  0  0  0  0  0  0
   38.6100   31.0400   38.4740 C   0  0  0  0  0  0  0  0  0  0  0  0
   39.5020   31.9820   38.8180 N   0  0  0  0  0  0  0  0  0  0  0  0
   39.3780   32.7270   39.9300 C   0  0  0  0  0  0  0  0  0  0  0  0
   38.2940   32.5230   40.7550 N   0  0  0  0  0  0  0  0  0  0  0  0
   36.5190   31.4170   41.0860 H   0  0  0  0  0  0  0  0  0  0  0  0
   38.7270   30.4480   37.5730 H   0  0  0  0  0  0  0  0  0  0  0  0
   40.3090   33.7630   40.3580 C   0  0  0  0  0  0  0  0  0  0  0  0
   40.0720   35.1150   40.0930 C   0  0  0  0  0  0  0  0  0  0  0  0
   41.1510   35.8220   40.6370 C   0  0  0  0  0  0  0  0  0  0  0  0
   41.9700   34.9050   41.1910 N   0  0  0  0  0  0  0  0  0  0  0  0
   41.4580   33.6820   41.0190 N   0  0  0  0  0  0  0  0  0  0  0  0
   39.2110   35.5300   39.5640 H   0  0  0  0  0  0  0  0  0  0  0  0
   41.1930   36.8990   40.5580 H   0  0  0  0  0  0  0  0  0  0  0  0
   43.1460   35.3620   41.8150 C   0  0  0  0  0  0  0  0  0  0  0  0
   44.3770   34.9230   41.3410 C   0  0  0  0  0  0  0  0  0  0  0  0
   44.4340   34.2330   40.4950 H   0  0  0  0  0  0  0  0  0  0  0  0
   45.5750   35.3470   41.9250 C   0  0  0  0  0  3  0  0  0  0  0  0
   45.4830   36.2280   43.0050 C   0  0  0  0  0  0  0  0  0  0  0  0
   46.3860   36.5750   43.4810 H   0  0  0  0  0  0  0  0  0  0  0  0
   44.2660   36.6760   43.4940 C   0  0  0  0  0  0  0  0  0  0  0  0
   44.2190   37.3590   44.3320 H   0  0  0  0  0  0  0  0  0  0  0  0
   43.0940   36.2320   42.8840 C   0  0  0  0  0  3  0  0  0  0  0  0
   36.5900   29.8470   38.9400 O   0  0  0  0  0  0  0  0  0  0  0  0
   36.6160   28.5340   39.3700 C   0  0  0  0  0  0  0  0  0  0  0  0
   36.9990   28.0890   40.6220 C   0  0  0  0  0  0  0  0  0  0  0  0
   36.9750   26.7500   40.9100 C   0  0  0  0  0  0  0  0  0  0  0  0
   36.5710   25.7960   39.9780 C   0  0  0  0  0  0  0  0  0  0  0  0
   36.5760   24.5120   40.3360 N   0  0  0  0  0  0  0  0  0  0  0  0
   36.1910   23.5560   39.4620 C   0  0  0  0  0  0  0  0  0  0  0  0
   35.7990   23.9620   38.1980 C   0  0  0  0  0  0  0  0  0  0  0  0
   35.7960   25.3160   37.8250 C   0  0  0  0  0  0  0  0  0  0  0  0
   36.1970   26.2560   38.7500 C   0  0  0  0  0  0  0  0  0  0  0  0
   36.2090   27.6140   38.4210 C   0  0  0  0  0  0  0  0  0  0  0  0
   37.3090   28.8590   41.3250 H   0  0  0  0  0  0  0  0  0  0  0  0
   37.2740   26.4020   41.8860 H   0  0  0  0  0  0  0  0  0  0  0  0
   36.1700   22.5130   39.6860 H   0  0  0  0  0  0  0  0  0  0  0  0
   35.4730   23.2710   37.4220 H   0  0  0  0  0  0  0  0  0  0  0  0
   35.4890   25.6070   36.8400 H   0  0  0  0  0  0  0  0  0  0  0  0
   35.8920   27.8580   37.4210 H   0  0  0  0  0  0  0  0  0  0  0  0
  1  6  1  0  0  0  0
  1  7  1  0  0  0  0
  2  1  2  0  0  0  0
  3  4  2  0  0  0  0
  3  2  1  0  0  0  0
  4  5  1  0  0  0  0
  5  9  1  0  0  0  0
  5  6  2  0  0  0  0
  8  3  1  0  0  0  0
  9 13  2  0  0  0  0
 10  9  1  0  0  0  0
 10 11  2  0  0  0  0
 11 12  1  0  0  0  0
 12 16  1  0  0  0  0
 13 12  1  0  0  0  0
 14 10  1  0  0  0  0
 15 11  1  0  0  0  0
 16 24  1  0  0  0  0
 17 16  2  0  0  0  0
 17 19  1  0  0  0  0
 18 17  1  0  0  0  0
 19 20  2  0  0  0  0
 20 21  1  0  0  0  0
 20 22  1  0  0  0  0
 22 23  1  0  0  0  0
 24 22  2  0  0  0  0
 25  2  1  0  0  0  0
 25 26  1  0  0  0  0
 26 27  1  0  0  0  0
 27 28  2  0  0  0  0
 27 36  1  0  0  0  0
 28 37  1  0  0  0  0
 29 30  1  0  0  0  0
 29 28  1  0  0  0  0
 31 38  1  0  0  0  0
 31 30  2  0  0  0  0
 32 31  1  0  0  0  0
 33 32  2  0  0  0  0
 33 34  1  0  0  0  0
 34 29  2  0  0  0  0
 35 34  1  0  0  0  0
 35 26  2  0  0  0  0
 39 32  1  0  0  0  0
 40 33  1  0  0  0  0
 41 35  1  0  0  0  0
M  END
>  <minimizedAffinity>
-6.50646305

$$$$

 OpenBabel03242514003D

 41 45  0  0  0  0  0  0  0  0999 V2000
   38.7640   31.2510   38.2550 C   0  0  0  0  0  0  0  0  0  0  0  0
   39.0070   29.9400   38.6690 C   0  0  0  0  0  0  0  0  0  0  0  0
   39.9830   29.7370   39.6730 C   0  0  0  0  0  0  0  0  0  0  0  0
   40.6220   30.8050   40.1750 N   0  0  0  0  0  0  0  0  0  0  0  0
   40.3720   32.0600   39.7630 C   0  0  0  0  0  0  0  0  0  0  0  0
   39.4240   32.2680   38.7860 N   0  0  0  0  0  0  0  0  0  0  0  0
   38.0130   31.3720   37.4870 H   0  0  0  0  0  0  0  0  0  0  0  0
   40.1980   28.7320   40.0180 H   0  0  0  0  0  0  0  0  0  0  0  0
   41.0300   33.2590   40.2670 C   0  0  0  0  0  0  0  0  0  0  0  0
   40.5670   34.5380   39.9440 C   0  0  0  0  0  0  0  0  0  0  0  0
   41.4180   35.4440   40.5870 C   0  0  0  0  0  0  0  0  0  0  0  0
   42.3320   34.7070   41.2510 N   0  0  0  0  0  0  0  0  0  0  0  0
   42.0900   33.4070   41.0520 N   0  0  0  0  0  0  0  0  0  0  0  0
   39.7070   34.7750   39.3140 H   0  0  0  0  0  0  0  0  0  0  0  0
   41.2590   36.5080   40.4870 H   0  0  0  0  0  0  0  0  0  0  0  0
   43.3180   35.3860   41.9900 C   0  0  0  0  0  0  0  0  0  0  0  0
   44.6580   35.1170   41.7350 C   0  0  0  0  0  0  0  0  0  0  0  0
   44.9460   34.3900   40.9710 H   0  0  0  0  0  0  0  0  0  0  0  0
   45.6770   35.7650   42.4400 C   0  0  0  0  0  3  0  0  0  0  0  0
   45.2920   36.6920   43.4130 C   0  0  0  0  0  0  0  0  0  0  0  0
   46.0510   37.2100   43.9770 H   0  0  0  0  0  0  0  0  0  0  0  0
   43.9630   36.9720   43.6830 C   0  0  0  0  0  0  0  0  0  0  0  0
   43.6870   37.6940   44.4410 H   0  0  0  0  0  0  0  0  0  0  0  0
   42.9760   36.3070   42.9570 C   0  0  0  0  0  3  0  0  0  0  0  0
   38.3640   28.8250   38.1680 O   0  0  0  0  0  0  0  0  0  0  0  0
   37.2870   28.8530   37.3010 C   0  0  0  0  0  0  0  0  0  0  0  0
   37.3470   28.8420   35.9190 C   0  0  0  0  0  0  0  0  0  0  0  0
   36.1920   28.8730   35.1840 C   0  0  0  0  0  0  0  0  0  0  0  0
   34.9320   28.9160   35.7780 C   0  0  0  0  0  0  0  0  0  0  0  0
   33.8560   28.9450   34.9930 N   0  0  0  0  0  0  0  0  0  0  0  0
   32.6170   28.9870   35.5300 C   0  0  0  0  0  0  0  0  0  0  0  0
   32.5150   28.9980   36.9100 C   0  0  0  0  0  0  0  0  0  0  0  0
   33.6520   28.9680   37.7340 C   0  0  0  0  0  0  0  0  0  0  0  0
   34.8960   28.9260   37.1420 C   0  0  0  0  0  0  0  0  0  0  0  0
   36.0530   28.8950   37.9240 C   0  0  0  0  0  0  0  0  0  0  0  0
   38.3450   28.8090   35.4880 H   0  0  0  0  0  0  0  0  0  0  0  0
   36.2380   28.8650   34.1070 H   0  0  0  0  0  0  0  0  0  0  0  0
   31.7170   29.0100   34.9570 H   0  0  0  0  0  0  0  0  0  0  0  0
   31.5650   29.0320   37.4400 H   0  0  0  0  0  0  0  0  0  0  0  0
   33.5500   28.9790   38.8010 H   0  0  0  0  0  0  0  0  0  0  0  0
   35.9000   28.9060   38.9900 H   0  0  0  0  0  0  0  0  0  0  0  0
  1  2  2  0  0  0  0
  1  6  1  0  0  0  0
  2  3  1  0  0  0  0
  3  8  1  0  0  0  0
  3  4  2  0  0  0  0
  5  4  1  0  0  0  0
  5  9  1  0  0  0  0
  6  5  2  0  0  0  0
  7  1  1  0  0  0  0
  9 13  2  0  0  0  0
 10  9  1  0  0  0  0
 10 11  2  0  0  0  0
 11 12  1  0  0  0  0
 12 16  1  0  0  0  0
 13 12  1  0  0  0  0
 14 10  1  0  0  0  0
 15 11  1  0  0  0  0
 16 24  1  0  0  0  0
 17 16  2  0  0  0  0
 17 19  1  0  0  0  0
 18 17  1  0  0  0  0
 19 20  2  0  0  0  0
 20 22  1  0  0  0  0
 20 21  1  0  0  0  0
 22 23  1  0  0  0  0
 24 22  2  0  0  0  0
 25  2  1  0  0  0  0
 26 35  1  0  0  0  0
 26 25  1  0  0  0  0
 27 26  2  0  0  0  0
 28 29  2  0  0  0  0
 28 27  1  0  0  0  0
 29 34  1  0  0  0  0
 30 31  2  0  0  0  0
 30 29  1  0  0  0  0
 31 32  1  0  0  0  0
 32 39  1  0  0  0  0
 32 33  2  0  0  0  0
 33 40  1  0  0  0  0
 34 33  1  0  0  0  0
 34 35  2  0  0  0  0
 35 41  1  0  0  0  0
 36 27  1  0  0  0  0
 37 28  1  0  0  0  0
 38 31  1  0  0  0  0
M  END
>  <minimizedAffinity>
-6.40994978

$$$$

 OpenBabel03242514003D

 41 45  0  0  0  0  0  0  0  0999 V2000
   37.1180   29.5270   39.3920 C   0  0  0  0  0  0  0  0  0  0  0  0
   37.0070   30.3900   40.4830 C   0  0  0  0  0  0  0  0  0  0  0  0
   36.8640   29.8130   41.7670 C   0  0  0  0  0  0  0  0  0  0  0  0
   36.8440   28.4750   41.8730 N   0  0  0  0  0  0  0  0  0  0  0  0
   36.9540   27.6610   40.8090 C   0  0  0  0  0  0  0  0  0  0  0  0
   37.0920   28.2130   39.5550 N   0  0  0  0  0  0  0  0  0  0  0  0
   37.2260   29.9990   38.4250 H   0  0  0  0  0  0  0  0  0  0  0  0
   36.7750   30.4530   42.6370 H   0  0  0  0  0  0  0  0  0  0  0  0
   36.9390   26.2040   40.8570 C   0  0  0  0  0  0  0  0  0  0  0  0
   37.1410   25.5090   42.0520 C   0  0  0  0  0  0  0  0  0  0  0  0
   37.0630   24.1480   41.7390 C   0  0  0  0  0  0  0  0  0  0  0  0
   36.8260   24.0710   40.4130 N   0  0  0  0  0  0  0  0  0  0  0  0
   36.7540   25.3030   39.8990 N   0  0  0  0  0  0  0  0  0  0  0  0
   37.3220   25.9510   43.0350 H   0  0  0  0  0  0  0  0  0  0  0  0
   37.1880   23.4020   42.5110 H   0  0  0  0  0  0  0  0  0  0  0  0
   36.7030   22.7940   39.8370 C   0  0  0  0  0  0  0  0  0  0  0  0
   37.7440   21.8840   39.9820 C   0  0  0  0  0  0  0  0  0  0  0  0
   38.6470   22.1530   40.5370 H   0  0  0  0  0  0  0  0  0  0  0  0
   37.6720   20.6010   39.4290 C   0  0  0  0  0  3  0  0  0  0  0  0
   36.5110   20.2740   38.7240 C   0  0  0  0  0  0  0  0  0  0  0  0
   36.4200   19.2930   38.2840 H   0  0  0  0  0  0  0  0  0  0  0  0
   35.4630   21.1660   38.5670 C   0  0  0  0  0  0  0  0  0  0  0  0
   34.5730   20.8910   38.0170 H   0  0  0  0  0  0  0  0  0  0  0  0
   35.5720   22.4350   39.1340 C   0  0  0  0  0  3  0  0  0  0  0  0
   37.0240   31.7690   40.4010 O   0  0  0  0  0  0  0  0  0  0  0  0
   38.1630   32.5510   40.4540 C   0  0  0  0  0  0  0  0  0  0  0  0
   39.4470   32.1130   40.7200 C   0  0  0  0  0  0  0  0  0  0  0  0
   40.4850   33.0070   40.7400 C   0  0  0  0  0  0  0  0  0  0  0  0
   40.3010   34.3670   40.4980 C   0  0  0  0  0  0  0  0  0  0  0  0
   41.3630   35.1710   40.5360 N   0  0  0  0  0  0  0  0  0  0  0  0
   41.2260   36.4960   40.3060 C   0  0  0  0  0  0  0  0  0  0  0  0
   39.9560   36.9730   40.0340 C   0  0  0  0  0  0  0  0  0  0  0  0
   38.8400   36.1220   39.9950 C   0  0  0  0  0  0  0  0  0  0  0  0
   39.0270   34.7770   40.2370 C   0  0  0  0  0  0  0  0  0  0  0  0
   37.9440   33.8950   40.2080 C   0  0  0  0  0  0  0  0  0  0  0  0
   39.5560   31.0470   40.9060 H   0  0  0  0  0  0  0  0  0  0  0  0
   41.4870   32.6660   40.9480 H   0  0  0  0  0  0  0  0  0  0  0  0
   42.0350   37.1920   40.3200 H   0  0  0  0  0  0  0  0  0  0  0  0
   39.7400   38.0220   39.8360 H   0  0  0  0  0  0  0  0  0  0  0  0
   37.8650   36.5130   39.7840 H   0  0  0  0  0  0  0  0  0  0  0  0
   36.9860   34.3340   39.9910 H   0  0  0  0  0  0  0  0  0  0  0  0
  1  6  2  0  0  0  0
  1  2  1  0  0  0  0
  2  3  2  0  0  0  0
  3  4  1  0  0  0  0
  3  8  1  0  0  0  0
  5  9  1  0  0  0  0
  5  4  2  0  0  0  0
  6  5  1  0  0  0  0
  7  1  1  0  0  0  0
  9 10  1  0  0  0  0
 10 14  1  0  0  0  0
 11 10  2  0  0  0  0
 11 15  1  0  0  0  0
 12 11  1  0  0  0  0
 13 12  1  0  0  0  0
 13  9  2  0  0  0  0
 16 17  1  0  0  0  0
 16 12  1  0  0  0  0
 17 18  1  0  0  0  0
 19 17  2  0  0  0  0
 20 19  1  0  0  0  0
 21 20  1  0  0  0  0
 22 20  2  0  0  0  0
 22 24  1  0  0  0  0
 23 22  1  0  0  0  0
 24 16  2  0  0  0  0
 25 26  1  0  0  0  0
 25  2  1  0  0  0  0
 26 27  1  0  0  0  0
 27 28  2  0  0  0  0
 27 36  1  0  0  0  0
 28 37  1  0  0  0  0
 29 30  1  0  0  0  0
 29 28  1  0  0  0  0
 31 38  1  0  0  0  0
 31 30  2  0  0  0  0
 32 31  1  0  0  0  0
 33 32  2  0  0  0  0
 33 34  1  0  0  0  0
 34 29  2  0  0  0  0
 35 34  1  0  0  0  0
 35 26  2  0  0  0  0
 39 32  1  0  0  0  0
 40 33  1  0  0  0  0
 41 35  1  0  0  0  0
M  END
>  <minimizedAffinity>
-6.40441656

$$$$

 OpenBabel03242514003D

 41 45  0  0  0  0  0  0  0  0999 V2000
   36.6910   30.0210   39.6360 C   0  0  0  0  0  0  0  0  0  0  0  0
   37.2350   30.8800   40.5930 C   0  0  0  0  0  0  0  0  0  0  0  0
   37.7690   30.3020   41.7690 C   0  0  0  0  0  0  0  0  0  0  0  0
   37.7260   28.9680   41.9080 N   0  0  0  0  0  0  0  0  0  0  0  0
   37.1970   28.1580   40.9740 C   0  0  0  0  0  0  0  0  0  0  0  0
   36.6750   28.7110   39.8260 N   0  0  0  0  0  0  0  0  0  0  0  0
   36.2920   30.4940   38.7500 H   0  0  0  0  0  0  0  0  0  0  0  0
   38.1990   30.9390   42.5330 H   0  0  0  0  0  0  0  0  0  0  0  0
   37.1210   26.7050   41.0630 C   0  0  0  0  0  0  0  0  0  0  0  0
   37.1810   26.0440   42.2930 C   0  0  0  0  0  0  0  0  0  0  0  0
   37.0800   24.6760   42.0150 C   0  0  0  0  0  0  0  0  0  0  0  0
   36.9660   24.5640   40.6750 N   0  0  0  0  0  0  0  0  0  0  0  0
   36.9920   25.7800   40.1200 N   0  0  0  0  0  0  0  0  0  0  0  0
   37.2860   26.5110   43.2750 H   0  0  0  0  0  0  0  0  0  0  0  0
   37.1020   23.9520   42.8170 H   0  0  0  0  0  0  0  0  0  0  0  0
   36.8480   23.2730   40.1280 C   0  0  0  0  0  0  0  0  0  0  0  0
   37.8740   22.3570   40.3300 C   0  0  0  0  0  0  0  0  0  0  0  0
   38.7610   22.6320   40.9060 H   0  0  0  0  0  0  0  0  0  0  0  0
   37.8060   21.0610   39.8080 C   0  0  0  0  0  3  0  0  0  0  0  0
   36.6640   20.7270   39.0750 C   0  0  0  0  0  0  0  0  0  0  0  0
   36.5780   19.7360   38.6570 H   0  0  0  0  0  0  0  0  0  0  0  0
   35.6320   21.6250   38.8610 C   0  0  0  0  0  0  0  0  0  0  0  0
   34.7570   21.3450   38.2900 H   0  0  0  0  0  0  0  0  0  0  0  0
   35.7370   22.9070   39.3990 C   0  0  0  0  0  3  0  0  0  0  0  0
   37.2910   32.2550   40.4740 O   0  0  0  0  0  0  0  0  0  0  0  0
   38.4210   32.9770   40.1380 C   0  0  0  0  0  0  0  0  0  0  0  0
   38.8540   34.1460   40.7350 C   0  0  0  0  0  0  0  0  0  0  0  0
   40.0000   34.7550   40.2950 C   0  0  0  0  0  0  0  0  0  0  0  0
   40.7650   34.2370   39.2530 C   0  0  0  0  0  0  0  0  0  0  0  0
   41.8670   34.8900   38.8840 N   0  0  0  0  0  0  0  0  0  0  0  0
   42.6370   34.4200   37.8780 C   0  0  0  0  0  0  0  0  0  0  0  0
   42.2370   33.2500   37.2550 C   0  0  0  0  0  0  0  0  0  0  0  0
   41.0750   32.5650   37.6470 C   0  0  0  0  0  0  0  0  0  0  0  0
   40.3200   33.0830   38.6790 C   0  0  0  0  0  0  0  0  0  0  0  0
   39.1570   32.4340   39.1000 C   0  0  0  0  0  0  0  0  0  0  0  0
   38.2340   34.5240   41.5440 H   0  0  0  0  0  0  0  0  0  0  0  0
   40.3380   35.6680   40.7600 H   0  0  0  0  0  0  0  0  0  0  0  0
   43.5300   34.8940   37.5350 H   0  0  0  0  0  0  0  0  0  0  0  0
   42.7860   32.7900   36.4350 H   0  0  0  0  0  0  0  0  0  0  0  0
   40.7840   31.6620   37.1510 H   0  0  0  0  0  0  0  0  0  0  0  0
   38.9060   31.5300   38.5720 H   0  0  0  0  0  0  0  0  0  0  0  0
  1  6  2  0  0  0  0
  1  2  1  0  0  0  0
  2  3  2  0  0  0  0
  3  4  1  0  0  0  0
  3  8  1  0  0  0  0
  5  9  1  0  0  0  0
  5  4  2  0  0  0  0
  6  5  1  0  0  0  0
  7  1  1  0  0  0  0
  9 10  1  0  0  0  0
 10 14  1  0  0  0  0
 11 10  2  0  0  0  0
 11 15  1  0  0  0  0
 12 11  1  0  0  0  0
 13 12  1  0  0  0  0
 13  9  2  0  0  0  0
 16 17  1  0  0  0  0
 16 12  1  0  0  0  0
 17 18  1  0  0  0  0
 19 17  2  0  0  0  0
 20 19  1  0  0  0  0
 21 20  1  0  0  0  0
 22 20  2  0  0  0  0
 22 24  1  0  0  0  0
 23 22  1  0  0  0  0
 24 16  2  0  0  0  0
 25  2  1  0  0  0  0
 26 25  1  0  0  0  0
 26 27  1  0  0  0  0
 27 36  1  0  0  0  0
 28 27  2  0  0  0  0
 28 37  1  0  0  0  0
 29 28  1  0  0  0  0
 30 29  1  0  0  0  0
 31 30  2  0  0  0  0
 32 33  2  0  0  0  0
 32 31  1  0  0  0  0
 33 34  1  0  0  0  0
 34 35  1  0  0  0  0
 34 29  2  0  0  0  0
 35 26  2  0  0  0  0
 38 31  1  0  0  0  0
 39 32  1  0  0  0  0
 40 33  1  0  0  0  0
 41 35  1  0  0  0  0
M  END
>  <minimizedAffinity>
-6.39625406

$$$$

 OpenBabel03242514003D

 41 45  0  0  0  0  0  0  0  0999 V2000
   37.1420   29.9350   39.0150 C   0  0  0  0  0  0  0  0  0  0  0  0
   36.9550   30.8960   40.0100 C   0  0  0  0  0  0  0  0  0  0  0  0
   36.7590   30.4420   41.3350 C   0  0  0  0  0  0  0  0  0  0  0  0
   36.7610   29.1210   41.5710 N   0  0  0  0  0  0  0  0  0  0  0  0
   36.9430   28.2110   40.5990 C   0  0  0  0  0  0  0  0  0  0  0  0
   37.1350   28.6430   39.3050 N   0  0  0  0  0  0  0  0  0  0  0  0
   37.2890   30.3140   38.0140 H   0  0  0  0  0  0  0  0  0  0  0  0
   36.6100   31.1610   42.1330 H   0  0  0  0  0  0  0  0  0  0  0  0
   36.9570   26.7660   40.7880 C   0  0  0  0  0  0  0  0  0  0  0  0
   37.0320   26.1960   42.0620 C   0  0  0  0  0  0  0  0  0  0  0  0
   37.0240   24.8090   41.8780 C   0  0  0  0  0  0  0  0  0  0  0  0
   36.9490   24.5980   40.5480 N   0  0  0  0  0  0  0  0  0  0  0  0
   36.9100   25.7720   39.9090 N   0  0  0  0  0  0  0  0  0  0  0  0
   37.0850   26.7350   43.0100 H   0  0  0  0  0  0  0  0  0  0  0  0
   37.0740   24.1450   42.7300 H   0  0  0  0  0  0  0  0  0  0  0  0
   36.9250   23.2680   40.0900 C   0  0  0  0  0  0  0  0  0  0  0  0
   35.8250   22.8220   39.3660 C   0  0  0  0  0  0  0  0  0  0  0  0
   34.9890   23.4940   39.1510 H   0  0  0  0  0  0  0  0  0  0  0  0
   35.7510   21.5100   38.8870 C   0  0  0  0  0  3  0  0  0  0  0  0
   36.8280   20.6660   39.1700 C   0  0  0  0  0  0  0  0  0  0  0  0
   36.8050   19.6470   38.8180 H   0  0  0  0  0  0  0  0  0  0  0  0
   37.9320   21.0890   39.8920 C   0  0  0  0  0  0  0  0  0  0  0  0
   38.7550   20.4180   40.0990 H   0  0  0  0  0  0  0  0  0  0  0  0
   37.9680   22.4050   40.3500 C   0  0  0  0  0  3  0  0  0  0  0  0
   36.9480   32.2610   39.7930 O   0  0  0  0  0  0  0  0  0  0  0  0
   38.0170   33.1060   40.0240 C   0  0  0  0  0  0  0  0  0  0  0  0
   37.9940   34.4870   39.9820 C   0  0  0  0  0  0  0  0  0  0  0  0
   39.1370   35.1990   40.2340 C   0  0  0  0  0  0  0  0  0  0  0  0
   40.3470   34.5800   40.5390 C   0  0  0  0  0  0  0  0  0  0  0  0
   41.4150   35.3430   40.7710 N   0  0  0  0  0  0  0  0  0  0  0  0
   42.6060   34.7820   41.0700 C   0  0  0  0  0  0  0  0  0  0  0  0
   42.6710   33.4000   41.1230 C   0  0  0  0  0  0  0  0  0  0  0  0
   41.5440   32.5990   40.8770 C   0  0  0  0  0  0  0  0  0  0  0  0
   40.3480   33.2160   40.5750 C   0  0  0  0  0  0  0  0  0  0  0  0
   39.2020   32.4580   40.3230 C   0  0  0  0  0  0  0  0  0  0  0  0
   37.0340   34.9390   39.7420 H   0  0  0  0  0  0  0  0  0  0  0  0
   39.1200   36.2770   40.2020 H   0  0  0  0  0  0  0  0  0  0  0  0
   43.4970   35.3360   41.2680 H   0  0  0  0  0  0  0  0  0  0  0  0
   43.5820   32.8510   41.3540 H   0  0  0  0  0  0  0  0  0  0  0  0
   41.6160   31.5310   40.9220 H   0  0  0  0  0  0  0  0  0  0  0  0
   39.3240   31.3900   40.3820 H   0  0  0  0  0  0  0  0  0  0  0  0
  1  6  2  0  0  0  0
  1  2  1  0  0  0  0
  2  3  2  0  0  0  0
  3  4  1  0  0  0  0
  3  8  1  0  0  0  0
  5  9  1  0  0  0  0
  5  4  2  0  0  0  0
  6  5  1  0  0  0  0
  7  1  1  0  0  0  0
  9 10  1  0  0  0  0
 10 14  1  0  0  0  0
 11 10  2  0  0  0  0
 11 15  1  0  0  0  0
 12 11  1  0  0  0  0
 13 12  1  0  0  0  0
 13  9  2  0  0  0  0
 16 24  1  0  0  0  0
 16 12  1  0  0  0  0
 17 16  2  0  0  0  0
 18 17  1  0  0  0  0
 19 20  2  0  0  0  0
 19 17  1  0  0  0  0
 20 22  1  0  0  0  0
 21 20  1  0  0  0  0
 22 23  1  0  0  0  0
 22 24  2  0  0  0  0
 25  2  1  0  0  0  0
 25 26  1  0  0  0  0
 26 35  1  0  0  0  0
 27 26  2  0  0  0  0
 27 28  1  0  0  0  0
 28 29  2  0  0  0  0
 29 34  1  0  0  0  0
 29 30  1  0  0  0  0
 30 31  2  0  0  0  0
 31 32  1  0  0  0  0
 31 38  1  0  0  0  0
 32 39  1  0  0  0  0
 33 40  1  0  0  0  0
 33 32  2  0  0  0  0
 34 33  1  0  0  0  0
 35 41  1  0  0  0  0
 35 34  2  0  0  0  0
 36 27  1  0  0  0  0
 37 28  1  0  0  0  0
M  END
>  <minimizedAffinity>
-6.3642683

$$$$

 OpenBabel03242514003D

 41 45  0  0  0  0  0  0  0  0999 V2000
   40.2190   27.8900   42.3580 C   0  0  0  0  0  0  0  0  0  0  0  0
   38.9130   28.0070   42.8350 C   0  0  0  0  0  0  0  0  0  0  0  0
   38.4190   29.3080   43.0930 C   0  0  0  0  0  0  0  0  0  0  0  0
   39.2240   30.3580   42.8670 N   0  0  0  0  0  0  0  0  0  0  0  0
   40.4790   30.2240   42.4060 C   0  0  0  0  0  0  0  0  0  0  0  0
   40.9690   28.9620   42.1530 N   0  0  0  0  0  0  0  0  0  0  0  0
   40.5650   26.8830   42.1720 H   0  0  0  0  0  0  0  0  0  0  0  0
   37.4090   29.4360   43.4640 H   0  0  0  0  0  0  0  0  0  0  0  0
   41.4010   31.3210   42.1400 C   0  0  0  0  0  0  0  0  0  0  0  0
   41.2990   32.0990   40.9840 C   0  0  0  0  0  0  0  0  0  0  0  0
   42.3260   33.0470   41.0500 C   0  0  0  0  0  0  0  0  0  0  0  0
   42.9890   32.8160   42.2010 N   0  0  0  0  0  0  0  0  0  0  0  0
   42.4290   31.7850   42.8420 N   0  0  0  0  0  0  0  0  0  0  0  0
   40.5580   31.9840   40.1900 H   0  0  0  0  0  0  0  0  0  0  0  0
   42.4520   33.7720   40.2580 H   0  0  0  0  0  0  0  0  0  0  0  0
   44.0840   33.6440   42.5120 C   0  0  0  0  0  0  0  0  0  0  0  0
   44.9140   33.2980   43.5720 C   0  0  0  0  0  0  0  0  0  0  0  0
   44.7220   32.3950   44.1580 H   0  0  0  0  0  0  0  0  0  0  0  0
   46.0150   34.0850   43.9220 C   0  0  0  0  0  3  0  0  0  0  0  0
   46.2450   35.2350   43.1620 C   0  0  0  0  0  0  0  0  0  0  0  0
   47.0850   35.8670   43.4030 H   0  0  0  0  0  0  0  0  0  0  0  0
   45.4290   35.5980   42.1030 C   0  0  0  0  0  0  0  0  0  0  0  0
   45.6270   36.4940   41.5280 H   0  0  0  0  0  0  0  0  0  0  0  0
   44.3420   34.7860   41.7850 C   0  0  0  0  0  3  0  0  0  0  0  0
   38.0650   26.9430   43.0760 O   0  0  0  0  0  0  0  0  0  0  0  0
   37.5210   26.1260   42.1020 C   0  0  0  0  0  0  0  0  0  0  0  0
   37.3350   24.7590   42.1890 C   0  0  0  0  0  0  0  0  0  0  0  0
   36.7810   24.0760   41.1390 C   0  0  0  0  0  0  0  0  0  0  0  0
   36.3860   24.7110   39.9630 C   0  0  0  0  0  0  0  0  0  0  0  0
   35.8540   23.9750   38.9870 N   0  0  0  0  0  0  0  0  0  0  0  0
   35.4590   24.5530   37.8320 C   0  0  0  0  0  0  0  0  0  0  0  0
   35.6270   25.9210   37.7070 C   0  0  0  0  0  0  0  0  0  0  0  0
   36.1880   26.6930   38.7380 C   0  0  0  0  0  0  0  0  0  0  0  0
   36.5780   26.0600   39.8990 C   0  0  0  0  0  0  0  0  0  0  0  0
   37.1400   26.7890   40.9490 C   0  0  0  0  0  0  0  0  0  0  0  0
   37.6540   24.2950   43.1190 H   0  0  0  0  0  0  0  0  0  0  0  0
   36.6360   23.0090   41.2050 H   0  0  0  0  0  0  0  0  0  0  0  0
   35.0250   24.0210   37.0140 H   0  0  0  0  0  0  0  0  0  0  0  0
   35.3420   26.4810   36.8180 H   0  0  0  0  0  0  0  0  0  0  0  0
   36.3100   27.7500   38.6190 H   0  0  0  0  0  0  0  0  0  0  0  0
   37.2420   27.8480   40.7840 H   0  0  0  0  0  0  0  0  0  0  0  0
  1  2  1  0  0  0  0
  2 25  1  0  0  0  0
  2  3  2  0  0  0  0
  3  8  1  0  0  0  0
  4  3  1  0  0  0  0
  5  4  2  0  0  0  0
  6  1  2  0  0  0  0
  6  5  1  0  0  0  0
  7  1  1  0  0  0  0
  9  5  1  0  0  0  0
  9 13  2  0  0  0  0
 10 11  2  0  0  0  0
 10  9  1  0  0  0  0
 11 12  1  0  0  0  0
 12 16  1  0  0  0  0
 12 13  1  0  0  0  0
 14 10  1  0  0  0  0
 15 11  1  0  0  0  0
 16 17  1  0  0  0  0
 17 19  2  0  0  0  0
 17 18  1  0  0  0  0
 20 21  1  0  0  0  0
 20 19  1  0  0  0  0
 22 20  2  0  0  0  0
 23 22  1  0  0  0  0
 24 22  1  0  0  0  0
 24 16  2  0  0  0  0
 26 27  1  0  0  0  0
 26 25  1  0  0  0  0
 27 36  1  0  0  0  0
 28 37  1  0  0  0  0
 28 27  2  0  0  0  0
 29 28  1  0  0  0  0
 30 29  2  0  0  0  0
 31 30  1  0  0  0  0
 32 31  2  0  0  0  0
 32 33  1  0  0  0  0
 33 34  2  0  0  0  0
 34 29  1  0  0  0  0
 34 35  1  0  0  0  0
 35 26  2  0  0  0  0
 38 31  1  0  0  0  0
 39 32  1  0  0  0  0
 40 33  1  0  0  0  0
 41 35  1  0  0  0  0
M  END
>  <minimizedAffinity>
-6.2254858

$$$$
