
 OpenBabel03252505503D

 22 23  0  0  0  0  0  0  0  0999 V2000
   36.5870   30.9050   40.8020 C   0  0  0  0  0  0  0  0  0  0  0  0
   37.7810   31.5390   40.4850 C   0  0  0  0  0  0  0  0  0  0  0  0
   38.9060   31.1790   41.2320 C   0  0  0  0  0  0  0  0  0  0  0  0
   38.7890   30.2550   42.2030 N   0  0  0  0  0  0  0  0  0  0  0  0
   37.6100   29.6610   42.4800 C   0  0  0  0  0  0  0  0  0  0  0  0
   36.5080   29.9780   41.7890 N   0  0  0  0  0  0  0  0  0  0  0  0
   35.6740   31.1370   40.2610 H   0  0  0  0  0  0  0  0  0  0  0  0
   39.8140   31.6780   40.9730 H   0  0  0  0  0  0  0  0  0  0  0  0
   37.7550   32.5440   39.3800 C   0  0  0  0  0  0  0  0  0  0  0  0
   37.1940   33.6720   39.9170 F   0  0  0  0  0  0  0  0  0  0  0  0
   36.9650   32.0190   38.3660 F   0  0  0  0  0  0  0  0  0  0  0  0
   39.0540   32.7210   38.9510 F   0  0  0  0  0  0  0  0  0  0  0  0
   37.4900   28.7110   43.4800 O   0  0  0  0  0  0  0  0  0  0  0  0
   38.0470   27.4480   43.2230 C   0  0  0  0  0  0  0  0  0  0  0  0
   37.2030   26.6510   42.4760 C   0  0  0  0  0  0  0  0  0  0  0  0
   36.2180   26.9130   42.1030 H   0  0  0  0  0  0  0  0  0  0  0  0
   37.6340   25.3710   42.1490 C   0  0  0  0  0  3  0  0  0  0  0  0
   38.8800   24.9260   42.5740 C   0  0  0  0  0  0  0  0  0  0  0  0
   39.2780   23.9450   42.3580 H   0  0  0  0  0  0  0  0  0  0  0  0
   39.6940   25.7370   43.3130 C   0  0  0  0  0  0  0  0  0  0  0  0
   40.6730   25.4680   43.6800 H   0  0  0  0  0  0  0  0  0  0  0  0
   39.2750   27.0030   43.6390 C   0  0  0  0  0  3  0  0  0  0  0  0
  1  6  1  0  0  0  0
  2  1  2  0  0  0  0
  2  3  1  0  0  0  0
  3  4  2  0  0  0  0
  4  5  1  0  0  0  0
  5 13  1  0  0  0  0
  6  5  2  0  0  0  0
  7  1  1  0  0  0  0
  8  3  1  0  0  0  0
  9 10  1  0  0  0  0
  9  2  1  0  0  0  0
 11  9  1  0  0  0  0
 12  9  1  0  0  0  0
 14 13  1  0  0  0  0
 14 22  1  0  0  0  0
 15 14  2  0  0  0  0
 16 15  1  0  0  0  0
 17 15  1  0  0  0  0
 17 18  2  0  0  0  0
 18 20  1  0  0  0  0
 19 18  1  0  0  0  0
 20 22  2  0  0  0  0
 20 21  1  0  0  0  0
M  END
>  <minimizedAffinity>
-5.15626764

$$$$

 OpenBabel03252505503D

 22 23  0  0  0  0  0  0  0  0999 V2000
   38.7070   31.1820   40.9440 C   0  0  0  0  0  0  0  0  0  0  0  0
   37.5350   31.4890   40.2660 C   0  0  0  0  0  0  0  0  0  0  0  0
   36.3710   30.8420   40.6890 C   0  0  0  0  0  0  0  0  0  0  0  0
   36.4320   29.9710   41.7130 N   0  0  0  0  0  0  0  0  0  0  0  0
   37.5920   29.7000   42.3480 C   0  0  0  0  0  0  0  0  0  0  0  0
   38.7300   30.2980   41.9710 N   0  0  0  0  0  0  0  0  0  0  0  0
   39.6490   31.6490   40.6650 H   0  0  0  0  0  0  0  0  0  0  0  0
   35.4810   31.0910   40.1560 H   0  0  0  0  0  0  0  0  0  0  0  0
   37.6240   32.4760   39.1480 C   0  0  0  0  0  0  0  0  0  0  0  0
   37.0370   31.8720   38.0690 F   0  0  0  0  0  0  0  0  0  0  0  0
   38.9720   32.7200   38.9220 F   0  0  0  0  0  0  0  0  0  0  0  0
   36.9780   33.6240   39.5590 F   0  0  0  0  0  0  0  0  0  0  0  0
   37.6550   28.8040   43.4000 O   0  0  0  0  0  0  0  0  0  0  0  0
   37.9770   27.4750   43.0820 C   0  0  0  0  0  0  0  0  0  0  0  0
   39.2050   27.1020   43.5920 C   0  0  0  0  0  0  0  0  0  0  0  0
   39.8830   27.7170   44.1750 H   0  0  0  0  0  0  0  0  0  0  0  0
   39.6460   25.8070   43.3500 C   0  0  0  0  0  3  0  0  0  0  0  0
   38.8590   24.9300   42.6130 C   0  0  0  0  0  0  0  0  0  0  0  0
   39.1390   23.9110   42.3870 H   0  0  0  0  0  0  0  0  0  0  0  0
   37.6490   25.3270   42.1210 C   0  0  0  0  0  0  0  0  0  0  0  0
   36.9790   24.7090   41.5420 H   0  0  0  0  0  0  0  0  0  0  0  0
   37.2060   26.6040   42.3560 C   0  0  0  0  0  3  0  0  0  0  0  0
  1  6  1  0  0  0  0
  2  3  1  0  0  0  0
  2  1  2  0  0  0  0
  3  4  2  0  0  0  0
  4  5  1  0  0  0  0
  5 13  1  0  0  0  0
  6  5  2  0  0  0  0
  7  1  1  0  0  0  0
  8  3  1  0  0  0  0
  9 12  1  0  0  0  0
  9  2  1  0  0  0  0
 10  9  1  0  0  0  0
 11  9  1  0  0  0  0
 14 13  1  0  0  0  0
 14 15  1  0  0  0  0
 15 16  1  0  0  0  0
 17 15  2  0  0  0  0
 18 17  1  0  0  0  0
 19 18  1  0  0  0  0
 20 22  1  0  0  0  0
 20 18  2  0  0  0  0
 21 20  1  0  0  0  0
 22 14  2  0  0  0  0
M  END
>  <minimizedAffinity>
-5.14796209

$$$$

 OpenBabel03252505503D

 22 23  0  0  0  0  0  0  0  0999 V2000
   36.5800   31.1590   40.6730 C   0  0  0  0  0  0  0  0  0  0  0  0
   37.4220   31.0430   39.5750 C   0  0  0  0  0  0  0  0  0  0  0  0
   37.9810   29.7850   39.3360 C   0  0  0  0  0  0  0  0  0  0  0  0
   37.6860   28.7620   40.1590 N   0  0  0  0  0  0  0  0  0  0  0  0
   36.8620   28.9140   41.2160 C   0  0  0  0  0  0  0  0  0  0  0  0
   36.3070   30.1040   41.4810 N   0  0  0  0  0  0  0  0  0  0  0  0
   36.1120   32.1090   40.9170 H   0  0  0  0  0  0  0  0  0  0  0  0
   38.6250   29.7160   38.4880 H   0  0  0  0  0  0  0  0  0  0  0  0
   37.6550   32.2690   38.7540 C   0  0  0  0  0  0  0  0  0  0  0  0
   37.3620   31.9140   37.4640 F   0  0  0  0  0  0  0  0  0  0  0  0
   38.9930   32.6100   38.8950 F   0  0  0  0  0  0  0  0  0  0  0  0
   36.8380   33.2620   39.2540 F   0  0  0  0  0  0  0  0  0  0  0  0
   36.5590   27.8620   42.0620 O   0  0  0  0  0  0  0  0  0  0  0  0
   37.6380   27.0950   42.5300 C   0  0  0  0  0  0  0  0  0  0  0  0
   37.5480   25.7750   42.1350 C   0  0  0  0  0  0  0  0  0  0  0  0
   36.7620   25.3260   41.5360 H   0  0  0  0  0  0  0  0  0  0  0  0
   38.5550   24.9050   42.5320 C   0  0  0  0  0  3  0  0  0  0  0  0
   39.6130   25.3700   43.3030 C   0  0  0  0  0  0  0  0  0  0  0  0
   40.4290   24.7510   43.6470 H   0  0  0  0  0  0  0  0  0  0  0  0
   39.6760   26.6810   43.6800 C   0  0  0  0  0  0  0  0  0  0  0  0
   40.4620   27.1200   44.2770 H   0  0  0  0  0  0  0  0  0  0  0  0
   38.6850   27.5470   43.2920 C   0  0  0  0  0  3  0  0  0  0  0  0
  1  7  1  0  0  0  0
  1  6  1  0  0  0  0
  2  1  2  0  0  0  0
  3  2  1  0  0  0  0
  3  4  2  0  0  0  0
  4  5  1  0  0  0  0
  5  6  2  0  0  0  0
  5 13  1  0  0  0  0
  8  3  1  0  0  0  0
  9 11  1  0  0  0  0
  9 12  1  0  0  0  0
  9  2  1  0  0  0  0
 10  9  1  0  0  0  0
 13 14  1  0  0  0  0
 14 22  1  0  0  0  0
 15 14  2  0  0  0  0
 15 17  1  0  0  0  0
 16 15  1  0  0  0  0
 17 18  2  0  0  0  0
 18 19  1  0  0  0  0
 18 20  1  0  0  0  0
 20 21  1  0  0  0  0
 22 20  2  0  0  0  0
M  END
>  <minimizedAffinity>
-4.93732119

$$$$

 OpenBabel03252505503D

 22 23  0  0  0  0  0  0  0  0999 V2000
   39.1400   27.3220   41.9600 C   0  0  0  0  0  0  0  0  0  0  0  0
   38.3230   26.2680   42.3470 C   0  0  0  0  0  0  0  0  0  0  0  0
   36.9750   26.5620   42.5710 C   0  0  0  0  0  0  0  0  0  0  0  0
   36.5350   27.8220   42.4050 N   0  0  0  0  0  0  0  0  0  0  0  0
   37.3620   28.8200   42.0270 C   0  0  0  0  0  0  0  0  0  0  0  0
   38.6600   28.5810   41.8040 N   0  0  0  0  0  0  0  0  0  0  0  0
   40.1990   27.1640   41.7690 H   0  0  0  0  0  0  0  0  0  0  0  0
   36.3640   25.7380   42.8670 H   0  0  0  0  0  0  0  0  0  0  0  0
   38.9560   24.9230   42.4890 C   0  0  0  0  0  0  0  0  0  0  0  0
   37.9220   24.0270   42.5320 F   0  0  0  0  0  0  0  0  0  0  0  0
   39.6710   24.9290   43.6800 F   0  0  0  0  0  0  0  0  0  0  0  0
   39.7980   24.7460   41.4100 F   0  0  0  0  0  0  0  0  0  0  0  0
   36.9090   30.1170   41.8580 O   0  0  0  0  0  0  0  0  0  0  0  0
   37.0030   30.6570   40.5650 C   0  0  0  0  0  0  0  0  0  0  0  0
   37.3750   31.9860   40.5830 C   0  0  0  0  0  0  0  0  0  0  0  0
   37.5830   32.5930   41.4590 H   0  0  0  0  0  0  0  0  0  0  0  0
   37.5060   32.6440   39.3670 C   0  0  0  0  0  3  0  0  0  0  0  0
   37.2640   31.9650   38.1790 C   0  0  0  0  0  0  0  0  0  0  0  0
   37.3460   32.4130   37.1990 H   0  0  0  0  0  0  0  0  0  0  0  0
   36.8970   30.6500   38.1910 C   0  0  0  0  0  0  0  0  0  0  0  0
   36.6910   30.0520   37.3160 H   0  0  0  0  0  0  0  0  0  0  0  0
   36.7660   29.9930   39.3890 C   0  0  0  0  0  3  0  0  0  0  0  0
  1  2  1  0  0  0  0
  2  9  1  0  0  0  0
  2  3  2  0  0  0  0
  3  8  1  0  0  0  0
  4  3  1  0  0  0  0
  5  4  2  0  0  0  0
  6  1  2  0  0  0  0
  6  5  1  0  0  0  0
  7  1  1  0  0  0  0
  9 10  1  0  0  0  0
  9 11  1  0  0  0  0
 12  9  1  0  0  0  0
 13  5  1  0  0  0  0
 14 15  1  0  0  0  0
 14 13  1  0  0  0  0
 15 16  1  0  0  0  0
 17 15  2  0  0  0  0
 18 20  2  0  0  0  0
 18 17  1  0  0  0  0
 19 18  1  0  0  0  0
 20 22  1  0  0  0  0
 21 20  1  0  0  0  0
 22 14  2  0  0  0  0
M  END
>  <minimizedAffinity>
-4.72457838

$$$$

 OpenBabel03252505503D

 22 23  0  0  0  0  0  0  0  0999 V2000
   38.7290   26.9340   41.2820 C   0  0  0  0  0  0  0  0  0  0  0  0
   37.7270   26.4130   42.0910 C   0  0  0  0  0  0  0  0  0  0  0  0
   37.1290   27.2880   43.0010 C   0  0  0  0  0  0  0  0  0  0  0  0
   37.5370   28.5690   43.0540 N   0  0  0  0  0  0  0  0  0  0  0  0
   38.5140   29.0380   42.2500 C   0  0  0  0  0  0  0  0  0  0  0  0
   39.1140   28.2320   41.3660 N   0  0  0  0  0  0  0  0  0  0  0  0
   39.2360   26.3080   40.5530 H   0  0  0  0  0  0  0  0  0  0  0  0
   36.3610   26.8690   43.6130 H   0  0  0  0  0  0  0  0  0  0  0  0
   37.3830   24.9700   41.9160 C   0  0  0  0  0  0  0  0  0  0  0  0
   37.1030   24.8120   40.5850 F   0  0  0  0  0  0  0  0  0  0  0  0
   36.2680   24.7150   42.7030 F   0  0  0  0  0  0  0  0  0  0  0  0
   38.4670   24.2320   42.3450 F   0  0  0  0  0  0  0  0  0  0  0  0
   38.9330   30.3560   42.3060 O   0  0  0  0  0  0  0  0  0  0  0  0
   38.4110   31.2290   41.3380 C   0  0  0  0  0  0  0  0  0  0  0  0
   39.1930   32.3550   41.1780 C   0  0  0  0  0  0  0  0  0  0  0  0
   40.1100   32.5930   41.7080 H   0  0  0  0  0  0  0  0  0  0  0  0
   38.7880   33.3040   40.2480 C   0  0  0  0  0  3  0  0  0  0  0  0
   37.6270   33.1050   39.5100 C   0  0  0  0  0  0  0  0  0  0  0  0
   37.2530   33.7990   38.7720 H   0  0  0  0  0  0  0  0  0  0  0  0
   36.8730   31.9810   39.6900 C   0  0  0  0  0  0  0  0  0  0  0  0
   35.9610   31.7510   39.1600 H   0  0  0  0  0  0  0  0  0  0  0  0
   37.2670   31.0390   40.6080 C   0  0  0  0  0  3  0  0  0  0  0  0
  1  6  2  0  0  0  0
  1  2  1  0  0  0  0
  2  3  2  0  0  0  0
  3  4  1  0  0  0  0
  3  8  1  0  0  0  0
  5 13  1  0  0  0  0
  5  4  2  0  0  0  0
  6  5  1  0  0  0  0
  7  1  1  0  0  0  0
  9  2  1  0  0  0  0
  9 12  1  0  0  0  0
  9 11  1  0  0  0  0
 10  9  1  0  0  0  0
 14 13  1  0  0  0  0
 15 14  1  0  0  0  0
 15 16  1  0  0  0  0
 17 15  2  0  0  0  0
 18 20  2  0  0  0  0
 18 17  1  0  0  0  0
 19 18  1  0  0  0  0
 20 22  1  0  0  0  0
 21 20  1  0  0  0  0
 22 14  2  0  0  0  0
M  END
>  <minimizedAffinity>
-4.63769436

$$$$

 OpenBabel03252505503D

 22 23  0  0  0  0  0  0  0  0999 V2000
   36.9810   28.7110   38.9920 C   0  0  0  0  0  0  0  0  0  0  0  0
   37.0900   30.0840   39.1640 C   0  0  0  0  0  0  0  0  0  0  0  0
   36.9910   30.5700   40.4700 C   0  0  0  0  0  0  0  0  0  0  0  0
   36.8000   29.7070   41.4840 N   0  0  0  0  0  0  0  0  0  0  0  0
   36.6990   28.3770   41.2770 C   0  0  0  0  0  0  0  0  0  0  0  0
   36.7870   27.8720   40.0400 N   0  0  0  0  0  0  0  0  0  0  0  0
   37.0480   28.2660   38.0030 H   0  0  0  0  0  0  0  0  0  0  0  0
   37.0780   31.6280   40.5800 H   0  0  0  0  0  0  0  0  0  0  0  0
   37.3010   30.9150   37.9400 C   0  0  0  0  0  0  0  0  0  0  0  0
   38.6420   30.8480   37.6700 F   0  0  0  0  0  0  0  0  0  0  0  0
   36.9120   32.2110   38.2510 F   0  0  0  0  0  0  0  0  0  0  0  0
   36.5090   30.3890   36.9410 F   0  0  0  0  0  0  0  0  0  0  0  0
   36.5020   27.4900   42.3210 O   0  0  0  0  0  0  0  0  0  0  0  0
   37.5340   26.5720   42.5760 C   0  0  0  0  0  0  0  0  0  0  0  0
   38.5460   27.1270   43.3330 C   0  0  0  0  0  0  0  0  0  0  0  0
   38.5960   28.1430   43.7130 H   0  0  0  0  0  0  0  0  0  0  0  0
   39.6320   26.3250   43.6590 C   0  0  0  0  0  3  0  0  0  0  0  0
   39.6780   25.0050   43.2260 C   0  0  0  0  0  0  0  0  0  0  0  0
   40.4890   24.3250   43.4410 H   0  0  0  0  0  0  0  0  0  0  0  0
   38.6610   24.4830   42.4780 C   0  0  0  0  0  0  0  0  0  0  0  0
   38.6190   23.4710   42.1030 H   0  0  0  0  0  0  0  0  0  0  0  0
   37.5850   25.2700   42.1520 C   0  0  0  0  0  3  0  0  0  0  0  0
  1  2  2  0  0  0  0
  1  6  1  0  0  0  0
  2  3  1  0  0  0  0
  3  8  1  0  0  0  0
  3  4  2  0  0  0  0
  5  4  1  0  0  0  0
  5 13  1  0  0  0  0
  6  5  2  0  0  0  0
  7  1  1  0  0  0  0
  9 11  1  0  0  0  0
  9  2  1  0  0  0  0
 10  9  1  0  0  0  0
 12  9  1  0  0  0  0
 13 14  1  0  0  0  0
 14 15  1  0  0  0  0
 15 17  2  0  0  0  0
 15 16  1  0  0  0  0
 18 19  1  0  0  0  0
 18 17  1  0  0  0  0
 20 18  2  0  0  0  0
 21 20  1  0  0  0  0
 22 20  1  0  0  0  0
 22 14  2  0  0  0  0
M  END
>  <minimizedAffinity>
-4.63630152

$$$$

 OpenBabel03252505503D

 22 23  0  0  0  0  0  0  0  0999 V2000
   36.9020   29.0090   42.1750 C   0  0  0  0  0  0  0  0  0  0  0  0
   37.1710   27.7210   41.7280 C   0  0  0  0  0  0  0  0  0  0  0  0
   37.4070   27.5620   40.3600 C   0  0  0  0  0  0  0  0  0  0  0  0
   37.3660   28.6370   39.5520 N   0  0  0  0  0  0  0  0  0  0  0  0
   37.1010   29.8730   40.0240 C   0  0  0  0  0  0  0  0  0  0  0  0
   36.8680   30.0680   41.3280 N   0  0  0  0  0  0  0  0  0  0  0  0
   36.7090   29.2030   43.2260 H   0  0  0  0  0  0  0  0  0  0  0  0
   37.6130   26.5660   40.0370 H   0  0  0  0  0  0  0  0  0  0  0  0
   37.1830   26.6280   42.7460 C   0  0  0  0  0  0  0  0  0  0  0  0
   36.8920   25.4780   42.0620 F   0  0  0  0  0  0  0  0  0  0  0  0
   36.1990   26.9260   43.6800 F   0  0  0  0  0  0  0  0  0  0  0  0
   38.4320   26.6230   43.3320 F   0  0  0  0  0  0  0  0  0  0  0  0
   37.0580   30.9770   39.1920 O   0  0  0  0  0  0  0  0  0  0  0  0
   37.9830   32.0020   39.4500 C   0  0  0  0  0  0  0  0  0  0  0  0
   39.2780   31.6150   39.1700 C   0  0  0  0  0  0  0  0  0  0  0  0
   39.6040   30.6500   38.7940 H   0  0  0  0  0  0  0  0  0  0  0  0
   40.2960   32.5370   39.3820 C   0  0  0  0  0  3  0  0  0  0  0  0
   39.9950   33.8060   39.8620 C   0  0  0  0  0  0  0  0  0  0  0  0
   40.7340   34.5720   40.0500 H   0  0  0  0  0  0  0  0  0  0  0  0
   38.7040   34.1610   40.1300 C   0  0  0  0  0  0  0  0  0  0  0  0
   38.3880   35.1240   40.5040 H   0  0  0  0  0  0  0  0  0  0  0  0
   37.6940   33.2550   39.9240 C   0  0  0  0  0  3  0  0  0  0  0  0
  1  7  1  0  0  0  0
  2  1  1  0  0  0  0
  2  9  1  0  0  0  0
  3  2  2  0  0  0  0
  4  5  2  0  0  0  0
  4  3  1  0  0  0  0
  5  6  1  0  0  0  0
  6  1  2  0  0  0  0
  8  3  1  0  0  0  0
  9 12  1  0  0  0  0
  9 11  1  0  0  0  0
 10  9  1  0  0  0  0
 13 14  1  0  0  0  0
 13  5  1  0  0  0  0
 14 22  1  0  0  0  0
 15 17  1  0  0  0  0
 15 14  2  0  0  0  0
 16 15  1  0  0  0  0
 17 18  2  0  0  0  0
 18 19  1  0  0  0  0
 18 20  1  0  0  0  0
 20 21  1  0  0  0  0
 22 20  2  0  0  0  0
M  END
>  <minimizedAffinity>
-4.63095617

$$$$

 OpenBabel03252505503D

 22 23  0  0  0  0  0  0  0  0999 V2000
   36.3660   29.8330   37.9670 C   0  0  0  0  0  0  0  0  0  0  0  0
   35.1480   29.2450   37.6490 C   0  0  0  0  0  0  0  0  0  0  0  0
   34.2930   28.9460   38.7130 C   0  0  0  0  0  0  0  0  0  0  0  0
   34.6740   29.2350   39.9700 N   0  0  0  0  0  0  0  0  0  0  0  0
   35.8660   29.8070   40.2380 C   0  0  0  0  0  0  0  0  0  0  0  0
   36.7150   30.1080   39.2480 N   0  0  0  0  0  0  0  0  0  0  0  0
   37.0790   30.0910   37.1880 H   0  0  0  0  0  0  0  0  0  0  0  0
   33.3620   28.4950   38.4480 H   0  0  0  0  0  0  0  0  0  0  0  0
   34.8660   28.9850   36.2050 C   0  0  0  0  0  0  0  0  0  0  0  0
   35.7460   29.7670   35.5070 F   0  0  0  0  0  0  0  0  0  0  0  0
   33.5510   29.3660   35.9690 F   0  0  0  0  0  0  0  0  0  0  0  0
   35.0330   27.6330   35.9880 F   0  0  0  0  0  0  0  0  0  0  0  0
   36.2580   30.1030   41.5320 O   0  0  0  0  0  0  0  0  0  0  0  0
   37.1800   29.2280   42.1310 C   0  0  0  0  0  0  0  0  0  0  0  0
   36.6280   27.9890   42.3870 C   0  0  0  0  0  0  0  0  0  0  0  0
   35.6120   27.6700   42.1750 H   0  0  0  0  0  0  0  0  0  0  0  0
   37.4340   27.0250   42.9800 C   0  0  0  0  0  3  0  0  0  0  0  0
   38.7550   27.3220   43.2970 C   0  0  0  0  0  0  0  0  0  0  0  0
   39.4380   26.6230   43.7580 H   0  0  0  0  0  0  0  0  0  0  0  0
   39.2730   28.5570   43.0320 C   0  0  0  0  0  0  0  0  0  0  0  0
   40.2850   28.8670   43.2460 H   0  0  0  0  0  0  0  0  0  0  0  0
   38.4820   29.5140   42.4460 C   0  0  0  0  0  3  0  0  0  0  0  0
  1  6  1  0  0  0  0
  2  1  2  0  0  0  0
  2  3  1  0  0  0  0
  3  4  2  0  0  0  0
  4  5  1  0  0  0  0
  5 13  1  0  0  0  0
  6  5  2  0  0  0  0
  7  1  1  0  0  0  0
  8  3  1  0  0  0  0
  9  2  1  0  0  0  0
 10  9  1  0  0  0  0
 11  9  1  0  0  0  0
 12  9  1  0  0  0  0
 13 14  1  0  0  0  0
 14 15  2  0  0  0  0
 14 22  1  0  0  0  0
 15 17  1  0  0  0  0
 16 15  1  0  0  0  0
 17 18  2  0  0  0  0
 18 19  1  0  0  0  0
 20 21  1  0  0  0  0
 20 18  1  0  0  0  0
 22 20  2  0  0  0  0
M  END
>  <minimizedAffinity>
-4.56195164

$$$$

 OpenBabel03252505503D

 22 23  0  0  0  0  0  0  0  0999 V2000
   36.8150   27.0840   40.5560 C   0  0  0  0  0  0  0  0  0  0  0  0
   37.1710   26.4500   41.7390 C   0  0  0  0  0  0  0  0  0  0  0  0
   37.3010   27.2540   42.8740 C   0  0  0  0  0  0  0  0  0  0  0  0
   37.0790   28.5780   42.7770 N   0  0  0  0  0  0  0  0  0  0  0  0
   36.7340   29.1570   41.6080 C   0  0  0  0  0  0  0  0  0  0  0  0
   36.6010   28.4220   40.4970 N   0  0  0  0  0  0  0  0  0  0  0  0
   36.6970   26.5180   39.6360 H   0  0  0  0  0  0  0  0  0  0  0  0
   37.5750   26.7480   43.7730 H   0  0  0  0  0  0  0  0  0  0  0  0
   37.3840   24.9720   41.6910 C   0  0  0  0  0  0  0  0  0  0  0  0
   37.2030   24.6120   40.3820 F   0  0  0  0  0  0  0  0  0  0  0  0
   36.4260   24.3920   42.5120 F   0  0  0  0  0  0  0  0  0  0  0  0
   38.6550   24.7220   42.1640 F   0  0  0  0  0  0  0  0  0  0  0  0
   36.5070   30.5190   41.5080 O   0  0  0  0  0  0  0  0  0  0  0  0
   37.4880   31.2780   40.8510 C   0  0  0  0  0  0  0  0  0  0  0  0
   36.9660   32.0010   39.7970 C   0  0  0  0  0  0  0  0  0  0  0  0
   35.9310   32.0210   39.4690 H   0  0  0  0  0  0  0  0  0  0  0  0
   37.8310   32.7990   39.0600 C   0  0  0  0  0  3  0  0  0  0  0  0
   39.1810   32.8520   39.3890 C   0  0  0  0  0  0  0  0  0  0  0  0
   39.9100   33.4480   38.8610 H   0  0  0  0  0  0  0  0  0  0  0  0
   39.6700   32.1240   40.4370 C   0  0  0  0  0  0  0  0  0  0  0  0
   40.7010   32.1100   40.7570 H   0  0  0  0  0  0  0  0  0  0  0  0
   38.8200   31.3350   41.1700 C   0  0  0  0  0  3  0  0  0  0  0  0
  1  2  1  0  0  0  0
  2  3  2  0  0  0  0
  3  8  1  0  0  0  0
  4  3  1  0  0  0  0
  5  4  2  0  0  0  0
  6  1  2  0  0  0  0
  6  5  1  0  0  0  0
  7  1  1  0  0  0  0
  9  2  1  0  0  0  0
  9 12  1  0  0  0  0
  9 11  1  0  0  0  0
 10  9  1  0  0  0  0
 13  5  1  0  0  0  0
 14 22  1  0  0  0  0
 14 13  1  0  0  0  0
 15 14  2  0  0  0  0
 16 15  1  0  0  0  0
 17 18  2  0  0  0  0
 17 15  1  0  0  0  0
 18 20  1  0  0  0  0
 19 18  1  0  0  0  0
 20 21  1  0  0  0  0
 20 22  2  0  0  0  0
M  END
>  <minimizedAffinity>
-4.55373716

$$$$
