
 OpenBabel03242517053D

 33 35  0  0  0  0  0  0  0  0999 V2000
   37.3410   29.9840   39.2080 C   0  0  0  0  0  0  0  0  0  0  0  0
   37.2970   30.7580   38.0650 C   0  0  0  0  0  0  0  0  0  0  0  0
   37.2720   32.1290   38.1930 C   0  0  0  0  0  0  0  0  0  0  0  0
   37.2930   32.6960   39.4330 C   0  0  0  0  0  0  0  0  0  0  0  0
   37.3370   31.9550   40.5920 C   0  0  0  0  0  0  0  0  0  0  0  0
   37.3610   30.5600   40.4430 C   0  0  0  0  0  0  0  0  0  0  0  0
   37.2800   30.3300   37.0700 H   0  0  0  0  0  0  0  0  0  0  0  0
   37.2370   32.8230   37.3640 H   0  0  0  0  0  0  0  0  0  0  0  0
   37.2750   33.7770   39.6020 H   0  0  0  0  0  0  0  0  0  0  0  0
   37.3570   32.2680   41.6190 H   0  0  0  0  0  0  0  0  0  0  0  0
   36.4280   26.4050   38.4200 C   0  0  0  0  0  0  0  0  0  0  0  0
   36.2930   27.8000   38.5800 C   0  0  0  0  0  0  0  0  0  0  0  0
   37.3630   28.5370   39.0070 C   0  0  0  0  0  0  0  0  0  0  0  0
   38.5230   27.8600   39.2590 N   0  0  0  0  0  0  0  0  0  0  0  0
   38.6620   26.5280   39.1100 C   0  0  0  0  0  0  0  0  0  0  0  0
   37.6090   25.7880   38.6870 N   0  0  0  0  0  0  0  0  0  0  0  0
   35.5990   25.8250   38.0880 H   0  0  0  0  0  0  0  0  0  0  0  0
   35.3830   28.3160   38.3800 H   0  0  0  0  0  0  0  0  0  0  0  0
   39.6240   26.1100   39.3400 H   0  0  0  0  0  0  0  0  0  0  0  0
   38.1980   29.5160   42.6830 C   0  0  0  0  0  0  0  0  0  0  0  0
   39.1730   30.1930   42.9640 O   0  0  0  0  0  0  0  0  0  0  0  0
   37.3960   29.6740   41.5390 N   0  0  0  0  0  0  0  0  0  0  0  0
   36.5740   29.0270   41.3300 H   0  0  0  0  0  0  0  0  0  0  0  0
   37.8460   28.4970   43.5710 O   0  0  0  0  0  0  0  0  0  0  0  0
   37.9450   27.1780   43.1550 C   0  0  0  0  0  0  0  0  0  0  0  0
   39.1960   26.6310   43.3560 C   0  0  0  0  0  0  0  0  0  0  0  0
   40.0310   27.1320   43.7810 H   0  0  0  0  0  0  0  0  0  0  0  0
   39.4490   25.3060   42.9860 C   0  0  0  0  0  3  0  0  0  0  0  0
   38.3850   24.6010   42.4200 C   0  0  0  0  0  0  0  0  0  0  0  0
   38.5190   23.5600   42.1090 H   0  0  0  0  0  0  0  0  0  0  0  0
   37.1340   25.1460   42.2200 C   0  0  0  0  0  0  0  0  0  0  0  0
   36.3200   24.5870   41.7810 H   0  0  0  0  0  0  0  0  0  0  0  0
   36.9000   26.4630   42.5930 C   0  0  0  0  0  3  0  0  0  0  0  0
  1  6  1  0  0  0  0
  2  3  1  0  0  0  0
  2  1  2  0  0  0  0
  3  4  2  0  0  0  0
  4  9  1  0  0  0  0
  4  5  1  0  0  0  0
  5 10  1  0  0  0  0
  6  5  2  0  0  0  0
  6 22  1  0  0  0  0
  7  2  1  0  0  0  0
  8  3  1  0  0  0  0
 11 12  2  0  0  0  0
 11 16  1  0  0  0  0
 12 13  1  0  0  0  0
 13  1  1  0  0  0  0
 13 14  2  0  0  0  0
 15 14  1  0  0  0  0
 15 19  1  0  0  0  0
 16 15  2  0  0  0  0
 17 11  1  0  0  0  0
 18 12  1  0  0  0  0
 20 21  2  0  0  0  0
 20 24  1  0  0  0  0
 22 20  1  0  0  0  0
 23 22  1  0  0  0  0
 25 26  1  0  0  0  0
 25 24  1  0  0  0  0
 26 27  1  0  0  0  0
 28 26  2  0  0  0  0
 29 28  1  0  0  0  0
 30 29  1  0  0  0  0
 31 29  2  0  0  0  0
 31 33  1  0  0  0  0
 32 31  1  0  0  0  0
 33 25  2  0  0  0  0
M  END
>  <minimizedAffinity>
-5.53066206

$$$$

 OpenBabel03242517053D

 33 35  0  0  0  0  0  0  0  0999 V2000
   37.3650   25.6110   41.1390 C   0  0  0  0  0  0  0  0  0  0  0  0
   37.8380   24.4450   41.7080 C   0  0  0  0  0  0  0  0  0  0  0  0
   37.6160   23.2530   41.0560 C   0  0  0  0  0  0  0  0  0  0  0  0
   36.9410   23.2410   39.8720 C   0  0  0  0  0  0  0  0  0  0  0  0
   36.4560   24.3830   39.2770 C   0  0  0  0  0  0  0  0  0  0  0  0
   36.6900   25.5900   39.9540 C   0  0  0  0  0  0  0  0  0  0  0  0
   38.3770   24.4300   42.6470 H   0  0  0  0  0  0  0  0  0  0  0  0
   37.9430   22.2860   41.4150 H   0  0  0  0  0  0  0  0  0  0  0  0
   36.7320   22.3280   39.3050 H   0  0  0  0  0  0  0  0  0  0  0  0
   35.9150   24.5160   38.3590 H   0  0  0  0  0  0  0  0  0  0  0  0
   37.3100   28.4310   43.6530 C   0  0  0  0  0  0  0  0  0  0  0  0
   36.9720   27.2160   43.0190 C   0  0  0  0  0  0  0  0  0  0  0  0
   37.6290   26.8440   41.8790 C   0  0  0  0  0  0  0  0  0  0  0  0
   38.5930   27.6910   41.4130 N   0  0  0  0  0  0  0  0  0  0  0  0
   38.9240   28.8540   42.0090 C   0  0  0  0  0  0  0  0  0  0  0  0
   38.2800   29.2320   43.1390 N   0  0  0  0  0  0  0  0  0  0  0  0
   36.8020   28.7270   44.5410 H   0  0  0  0  0  0  0  0  0  0  0  0
   36.2180   26.5640   43.3930 H   0  0  0  0  0  0  0  0  0  0  0  0
   39.6990   29.4350   41.5480 H   0  0  0  0  0  0  0  0  0  0  0  0
   36.4720   27.6140   38.3240 C   0  0  0  0  0  0  0  0  0  0  0  0
   37.2330   27.3280   37.4150 O   0  0  0  0  0  0  0  0  0  0  0  0
   36.2440   26.8380   39.4730 N   0  0  0  0  0  0  0  0  0  0  0  0
   35.5910   27.1580   40.2530 H   0  0  0  0  0  0  0  0  0  0  0  0
   35.7670   28.8150   38.2180 O   0  0  0  0  0  0  0  0  0  0  0  0
   36.1970   29.9160   38.9440 C   0  0  0  0  0  0  0  0  0  0  0  0
   36.9840   30.7830   38.2130 C   0  0  0  0  0  0  0  0  0  0  0  0
   37.2600   30.6610   37.1950 H   0  0  0  0  0  0  0  0  0  0  0  0
   37.4930   31.9400   38.8120 C   0  0  0  0  0  3  0  0  0  0  0  0
   37.1610   32.1480   40.1520 C   0  0  0  0  0  0  0  0  0  0  0  0
   37.5280   33.0360   40.6770 H   0  0  0  0  0  0  0  0  0  0  0  0
   36.3740   31.2840   40.8830 C   0  0  0  0  0  0  0  0  0  0  0  0
   36.1250   31.4580   41.9200 H   0  0  0  0  0  0  0  0  0  0  0  0
   35.8770   30.1390   40.2730 C   0  0  0  0  0  3  0  0  0  0  0  0
  1  2  1  0  0  0  0
  1 13  1  0  0  0  0
  2  7  1  0  0  0  0
  3  8  1  0  0  0  0
  3  2  2  0  0  0  0
  4  3  1  0  0  0  0
  5  4  2  0  0  0  0
  5  6  1  0  0  0  0
  6  1  2  0  0  0  0
  9  4  1  0  0  0  0
 10  5  1  0  0  0  0
 11 17  1  0  0  0  0
 12 18  1  0  0  0  0
 12 11  2  0  0  0  0
 13 12  1  0  0  0  0
 14 13  2  0  0  0  0
 14 15  1  0  0  0  0
 15 16  2  0  0  0  0
 16 11  1  0  0  0  0
 19 15  1  0  0  0  0
 20 22  1  0  0  0  0
 21 20  2  0  0  0  0
 22  6  1  0  0  0  0
 22 23  1  0  0  0  0
 24 20  1  0  0  0  0
 24 25  1  0  0  0  0
 25 33  1  0  0  0  0
 26 28  1  0  0  0  0
 26 25  2  0  0  0  0
 27 26  1  0  0  0  0
 28 29  2  0  0  0  0
 29 30  1  0  0  0  0
 29 31  1  0  0  0  0
 31 32  1  0  0  0  0
 33 31  2  0  0  0  0
M  END
>  <minimizedAffinity>
-5.50964499

$$$$

 OpenBabel03242517053D

 33 35  0  0  0  0  0  0  0  0999 V2000
   37.5120   31.4520   39.7630 C   0  0  0  0  0  0  0  0  0  0  0  0
   37.1260   32.7220   39.3820 C   0  0  0  0  0  0  0  0  0  0  0  0
   37.8130   33.8030   39.8880 C   0  0  0  0  0  0  0  0  0  0  0  0
   38.8540   33.6060   40.7470 C   0  0  0  0  0  0  0  0  0  0  0  0
   39.2650   32.3540   41.1460 C   0  0  0  0  0  0  0  0  0  0  0  0
   38.5530   31.2640   40.6220 C   0  0  0  0  0  0  0  0  0  0  0  0
   36.3030   32.9040   38.7010 H   0  0  0  0  0  0  0  0  0  0  0  0
   37.5920   34.8360   39.6540 H   0  0  0  0  0  0  0  0  0  0  0  0
   39.4390   34.4200   41.1830 H   0  0  0  0  0  0  0  0  0  0  0  0
   40.0570   32.0590   41.8080 H   0  0  0  0  0  0  0  0  0  0  0  0
   34.9280   28.7770   39.1010 C   0  0  0  0  0  0  0  0  0  0  0  0
   35.5890   29.8500   39.7360 C   0  0  0  0  0  0  0  0  0  0  0  0
   36.7430   30.3460   39.1950 C   0  0  0  0  0  0  0  0  0  0  0  0
   37.1940   29.7590   38.0470 N   0  0  0  0  0  0  0  0  0  0  0  0
   36.5700   28.7340   37.4320 C   0  0  0  0  0  0  0  0  0  0  0  0
   35.4270   28.2340   37.9590 N   0  0  0  0  0  0  0  0  0  0  0  0
   34.0290   28.3850   39.5170 H   0  0  0  0  0  0  0  0  0  0  0  0
   35.2270   30.2990   40.6310 H   0  0  0  0  0  0  0  0  0  0  0  0
   37.0220   28.3570   36.5350 H   0  0  0  0  0  0  0  0  0  0  0  0
   38.4530   29.0190   41.9470 C   0  0  0  0  0  0  0  0  0  0  0  0
   37.6900   29.2670   42.8660 O   0  0  0  0  0  0  0  0  0  0  0  0
   38.8520   29.9250   40.9500 N   0  0  0  0  0  0  0  0  0  0  0  0
   39.5510   29.6600   40.1890 H   0  0  0  0  0  0  0  0  0  0  0  0
   38.9760   27.7260   41.8770 O   0  0  0  0  0  0  0  0  0  0  0  0
   38.1680   26.6970   41.4170 C   0  0  0  0  0  0  0  0  0  0  0  0
   37.7860   25.8130   42.4060 C   0  0  0  0  0  0  0  0  0  0  0  0
   38.0600   25.8730   43.4310 H   0  0  0  0  0  0  0  0  0  0  0  0
   36.9690   24.7220   42.0930 C   0  0  0  0  0  3  0  0  0  0  0  0
   36.5810   24.5950   40.7580 C   0  0  0  0  0  0  0  0  0  0  0  0
   35.9410   23.7620   40.4500 H   0  0  0  0  0  0  0  0  0  0  0  0
   36.9600   25.4770   39.7700 C   0  0  0  0  0  0  0  0  0  0  0  0
   36.6510   25.3660   38.7400 H   0  0  0  0  0  0  0  0  0  0  0  0
   37.7720   26.5550   40.0970 C   0  0  0  0  0  3  0  0  0  0  0  0
  1  6  1  0  0  0  0
  2  1  2  0  0  0  0
  2  3  1  0  0  0  0
  3  4  2  0  0  0  0
  4  5  1  0  0  0  0
  4  9  1  0  0  0  0
  5 10  1  0  0  0  0
  6 22  1  0  0  0  0
  6  5  2  0  0  0  0
  7  2  1  0  0  0  0
  8  3  1  0  0  0  0
 11 17  1  0  0  0  0
 11 12  1  0  0  0  0
 12 18  1  0  0  0  0
 13 12  2  0  0  0  0
 13  1  1  0  0  0  0
 14 13  1  0  0  0  0
 15 16  1  0  0  0  0
 15 14  2  0  0  0  0
 16 11  2  0  0  0  0
 19 15  1  0  0  0  0
 20 21  2  0  0  0  0
 22 20  1  0  0  0  0
 23 22  1  0  0  0  0
 24 20  1  0  0  0  0
 25 24  1  0  0  0  0
 25 26  1  0  0  0  0
 26 27  1  0  0  0  0
 28 26  2  0  0  0  0
 29 28  1  0  0  0  0
 30 29  1  0  0  0  0
 31 33  1  0  0  0  0
 31 29  2  0  0  0  0
 32 31  1  0  0  0  0
 33 25  2  0  0  0  0
M  END
>  <minimizedAffinity>
-5.30870342

$$$$

 OpenBabel03242517053D

 33 35  0  0  0  0  0  0  0  0999 V2000
   36.7630   26.4790   40.0570 C   0  0  0  0  0  0  0  0  0  0  0  0
   36.4550   25.1990   39.6410 C   0  0  0  0  0  0  0  0  0  0  0  0
   36.5410   24.1680   40.5510 C   0  0  0  0  0  0  0  0  0  0  0  0
   36.9240   24.4230   41.8340 C   0  0  0  0  0  0  0  0  0  0  0  0
   37.2390   25.6860   42.2820 C   0  0  0  0  0  0  0  0  0  0  0  0
   37.1470   26.7250   41.3430 C   0  0  0  0  0  0  0  0  0  0  0  0
   36.1470   24.9710   38.6280 H   0  0  0  0  0  0  0  0  0  0  0  0
   36.3210   23.1320   40.3280 H   0  0  0  0  0  0  0  0  0  0  0  0
   37.0120   23.6500   42.6030 H   0  0  0  0  0  0  0  0  0  0  0  0
   37.5510   26.0250   43.2510 H   0  0  0  0  0  0  0  0  0  0  0  0
   35.4910   29.0950   37.6480 C   0  0  0  0  0  0  0  0  0  0  0  0
   35.4770   28.0840   38.6330 C   0  0  0  0  0  0  0  0  0  0  0  0
   36.6560   27.5290   39.0470 C   0  0  0  0  0  0  0  0  0  0  0  0
   37.8010   27.9980   38.4680 N   0  0  0  0  0  0  0  0  0  0  0  0
   37.8260   28.9630   37.5270 C   0  0  0  0  0  0  0  0  0  0  0  0
   36.6640   29.5200   37.1090 N   0  0  0  0  0  0  0  0  0  0  0  0
   34.5760   29.5320   37.3200 H   0  0  0  0  0  0  0  0  0  0  0  0
   34.5770   27.7270   39.0760 H   0  0  0  0  0  0  0  0  0  0  0  0
   38.7880   29.2480   37.1470 H   0  0  0  0  0  0  0  0  0  0  0  0
   38.5730   28.7620   42.1300 C   0  0  0  0  0  0  0  0  0  0  0  0
   39.6380   28.2580   42.4420 O   0  0  0  0  0  0  0  0  0  0  0  0
   37.4480   28.0670   41.6520 N   0  0  0  0  0  0  0  0  0  0  0  0
   36.5300   28.5600   41.4280 H   0  0  0  0  0  0  0  0  0  0  0  0
   38.4560   30.1480   42.2570 O   0  0  0  0  0  0  0  0  0  0  0  0
   38.2370   30.9130   41.1210 C   0  0  0  0  0  0  0  0  0  0  0  0
   39.3890   31.1780   40.4070 C   0  0  0  0  0  0  0  0  0  0  0  0
   40.3660   30.8530   40.6650 H   0  0  0  0  0  0  0  0  0  0  0  0
   39.3270   31.9400   39.2360 C   0  0  0  0  0  3  0  0  0  0  0  0
   38.0630   32.3950   38.8530 C   0  0  0  0  0  0  0  0  0  0  0  0
   37.9490   32.9960   37.9440 H   0  0  0  0  0  0  0  0  0  0  0  0
   36.9130   32.1300   39.5630 C   0  0  0  0  0  0  0  0  0  0  0  0
   35.9410   32.4890   39.2540 H   0  0  0  0  0  0  0  0  0  0  0  0
   36.9920   31.3730   40.7250 C   0  0  0  0  0  3  0  0  0  0  0  0
  1  6  1  0  0  0  0
  2  1  2  0  0  0  0
  2  3  1  0  0  0  0
  3  4  2  0  0  0  0
  4  5  1  0  0  0  0
  4  9  1  0  0  0  0
  5 10  1  0  0  0  0
  6 22  1  0  0  0  0
  6  5  2  0  0  0  0
  7  2  1  0  0  0  0
  8  3  1  0  0  0  0
 11 12  1  0  0  0  0
 12 13  2  0  0  0  0
 12 18  1  0  0  0  0
 13  1  1  0  0  0  0
 14 13  1  0  0  0  0
 15 14  2  0  0  0  0
 16 15  1  0  0  0  0
 16 11  2  0  0  0  0
 17 11  1  0  0  0  0
 19 15  1  0  0  0  0
 20 24  1  0  0  0  0
 20 21  2  0  0  0  0
 22 20  1  0  0  0  0
 23 22  1  0  0  0  0
 25 24  1  0  0  0  0
 26 27  1  0  0  0  0
 26 25  2  0  0  0  0
 28 26  1  0  0  0  0
 29 28  2  0  0  0  0
 29 31  1  0  0  0  0
 30 29  1  0  0  0  0
 31 33  2  0  0  0  0
 32 31  1  0  0  0  0
 33 25  1  0  0  0  0
M  END
>  <minimizedAffinity>
-5.11857748

$$$$

 OpenBabel03242517053D

 33 35  0  0  0  0  0  0  0  0999 V2000
   37.4890   30.1900   40.4350 C   0  0  0  0  0  0  0  0  0  0  0  0
   37.5140   31.5350   40.7500 C   0  0  0  0  0  0  0  0  0  0  0  0
   37.3560   32.4550   39.7380 C   0  0  0  0  0  0  0  0  0  0  0  0
   37.1790   32.0310   38.4540 C   0  0  0  0  0  0  0  0  0  0  0  0
   37.1500   30.7000   38.1050 C   0  0  0  0  0  0  0  0  0  0  0  0
   37.3120   29.7750   39.1480 C   0  0  0  0  0  0  0  0  0  0  0  0
   37.6520   31.8960   41.7620 H   0  0  0  0  0  0  0  0  0  0  0  0
   37.3600   33.5280   39.8780 H   0  0  0  0  0  0  0  0  0  0  0  0
   37.0490   32.7100   37.6070 H   0  0  0  0  0  0  0  0  0  0  0  0
   37.0210   30.2330   37.1480 H   0  0  0  0  0  0  0  0  0  0  0  0
   38.8790   28.1930   43.3240 C   0  0  0  0  0  0  0  0  0  0  0  0
   38.8220   29.1220   42.2640 C   0  0  0  0  0  0  0  0  0  0  0  0
   37.6640   29.2630   41.5500 C   0  0  0  0  0  0  0  0  0  0  0  0
   36.6090   28.4770   41.9180 N   0  0  0  0  0  0  0  0  0  0  0  0
   36.6520   27.5860   42.9290 C   0  0  0  0  0  0  0  0  0  0  0  0
   37.7940   27.4380   43.6420 N   0  0  0  0  0  0  0  0  0  0  0  0
   39.7780   28.0780   43.8840 H   0  0  0  0  0  0  0  0  0  0  0  0
   39.6530   29.7290   41.9880 H   0  0  0  0  0  0  0  0  0  0  0  0
   35.7580   27.0250   43.1220 H   0  0  0  0  0  0  0  0  0  0  0  0
   38.1470   27.4620   38.2770 C   0  0  0  0  0  0  0  0  0  0  0  0
   39.1450   27.7460   37.6340 O   0  0  0  0  0  0  0  0  0  0  0  0
   37.3160   28.3800   38.9420 N   0  0  0  0  0  0  0  0  0  0  0  0
   36.4350   28.0760   39.4600 H   0  0  0  0  0  0  0  0  0  0  0  0
   37.7980   26.1130   38.3600 O   0  0  0  0  0  0  0  0  0  0  0  0
   37.8640   25.4750   39.5900 C   0  0  0  0  0  0  0  0  0  0  0  0
   36.6750   24.8840   39.9680 C   0  0  0  0  0  0  0  0  0  0  0  0
   35.7730   24.8930   39.4070 H   0  0  0  0  0  0  0  0  0  0  0  0
   36.5880   24.2030   41.1860 C   0  0  0  0  0  3  0  0  0  0  0  0
   37.7470   24.1620   41.9640 C   0  0  0  0  0  0  0  0  0  0  0  0
   37.7430   23.6430   42.9280 H   0  0  0  0  0  0  0  0  0  0  0  0
   38.9350   24.7500   41.5870 C   0  0  0  0  0  0  0  0  0  0  0  0
   39.8240   24.7100   42.2000 H   0  0  0  0  0  0  0  0  0  0  0  0
   39.0040   25.4230   40.3750 C   0  0  0  0  0  3  0  0  0  0  0  0
  1  2  1  0  0  0  0
  1 13  1  0  0  0  0
  2  7  1  0  0  0  0
  3  8  1  0  0  0  0
  3  2  2  0  0  0  0
  4  3  1  0  0  0  0
  5  4  2  0  0  0  0
  5  6  1  0  0  0  0
  6  1  2  0  0  0  0
  9  4  1  0  0  0  0
 10  5  1  0  0  0  0
 11 16  1  0  0  0  0
 11 17  1  0  0  0  0
 12 11  2  0  0  0  0
 13 14  2  0  0  0  0
 13 12  1  0  0  0  0
 14 15  1  0  0  0  0
 15 19  1  0  0  0  0
 15 16  2  0  0  0  0
 18 12  1  0  0  0  0
 20 24  1  0  0  0  0
 20 22  1  0  0  0  0
 21 20  2  0  0  0  0
 22  6  1  0  0  0  0
 22 23  1  0  0  0  0
 24 25  1  0  0  0  0
 25 26  2  0  0  0  0
 25 33  1  0  0  0  0
 26 28  1  0  0  0  0
 27 26  1  0  0  0  0
 28 29  2  0  0  0  0
 29 30  1  0  0  0  0
 31 29  1  0  0  0  0
 31 32  1  0  0  0  0
 33 31  2  0  0  0  0
M  END
>  <minimizedAffinity>
-5.05726671

$$$$

 OpenBabel03242517053D

 33 35  0  0  0  0  0  0  0  0999 V2000
   36.5270   26.9460   39.5530 C   0  0  0  0  0  0  0  0  0  0  0  0
   35.8380   26.5310   38.4300 C   0  0  0  0  0  0  0  0  0  0  0  0
   35.6330   25.1830   38.2400 C   0  0  0  0  0  0  0  0  0  0  0  0
   36.1080   24.2870   39.1520 C   0  0  0  0  0  0  0  0  0  0  0  0
   36.7980   24.6660   40.2810 C   0  0  0  0  0  0  0  0  0  0  0  0
   36.9980   26.0440   40.4600 C   0  0  0  0  0  0  0  0  0  0  0  0
   35.4510   27.2240   37.6920 H   0  0  0  0  0  0  0  0  0  0  0  0
   35.1080   24.7550   37.3960 H   0  0  0  0  0  0  0  0  0  0  0  0
   35.9790   23.2050   39.0590 H   0  0  0  0  0  0  0  0  0  0  0  0
   37.2210   24.0760   41.0710 H   0  0  0  0  0  0  0  0  0  0  0  0
   37.7860   30.4980   39.2890 C   0  0  0  0  0  0  0  0  0  0  0  0
   37.6980   29.1060   39.0760 C   0  0  0  0  0  0  0  0  0  0  0  0
   36.7140   28.3880   39.6990 C   0  0  0  0  0  0  0  0  0  0  0  0
   35.8580   29.0800   40.5070 N   0  0  0  0  0  0  0  0  0  0  0  0
   35.9320   30.4090   40.7180 C   0  0  0  0  0  0  0  0  0  0  0  0
   36.9020   31.1300   40.1070 N   0  0  0  0  0  0  0  0  0  0  0  0
   38.5490   31.0630   38.8080 H   0  0  0  0  0  0  0  0  0  0  0  0
   38.3730   28.5790   38.4430 H   0  0  0  0  0  0  0  0  0  0  0  0
   35.2020   30.8400   41.3760 H   0  0  0  0  0  0  0  0  0  0  0  0
   37.3570   27.0070   42.8580 C   0  0  0  0  0  0  0  0  0  0  0  0
   36.2310   27.0280   43.3250 O   0  0  0  0  0  0  0  0  0  0  0  0
   37.6960   26.5800   41.5620 N   0  0  0  0  0  0  0  0  0  0  0  0
   38.6970   26.6170   41.1960 H   0  0  0  0  0  0  0  0  0  0  0  0
   38.4020   27.4440   43.6760 O   0  0  0  0  0  0  0  0  0  0  0  0
   39.3220   28.3480   43.1670 C   0  0  0  0  0  0  0  0  0  0  0  0
   38.7980   29.6080   42.9590 C   0  0  0  0  0  0  0  0  0  0  0  0
   37.7960   29.9020   43.1530 H   0  0  0  0  0  0  0  0  0  0  0  0
   39.6070   30.6280   42.4490 C   0  0  0  0  0  3  0  0  0  0  0  0
   40.9350   30.2940   42.1750 C   0  0  0  0  0  0  0  0  0  0  0  0
   41.6190   31.0490   41.7740 H   0  0  0  0  0  0  0  0  0  0  0  0
   41.4600   29.0370   42.3820 C   0  0  0  0  0  0  0  0  0  0  0  0
   42.4910   28.7940   42.1660 H   0  0  0  0  0  0  0  0  0  0  0  0
   40.6420   28.0360   42.8900 C   0  0  0  0  0  3  0  0  0  0  0  0
  1 13  1  0  0  0  0
  1  6  1  0  0  0  0
  2  1  2  0  0  0  0
  3  2  1  0  0  0  0
  3  4  2  0  0  0  0
  4  5  1  0  0  0  0
  5  6  2  0  0  0  0
  5 10  1  0  0  0  0
  6 22  1  0  0  0  0
  7  2  1  0  0  0  0
  8  3  1  0  0  0  0
  9  4  1  0  0  0  0
 11 16  1  0  0  0  0
 12 11  2  0  0  0  0
 12 13  1  0  0  0  0
 13 14  2  0  0  0  0
 14 15  1  0  0  0  0
 15 19  1  0  0  0  0
 16 15  2  0  0  0  0
 17 11  1  0  0  0  0
 18 12  1  0  0  0  0
 20 21  2  0  0  0  0
 20 24  1  0  0  0  0
 22 20  1  0  0  0  0
 23 22  1  0  0  0  0
 25 24  1  0  0  0  0
 26 27  1  0  0  0  0
 26 25  1  0  0  0  0
 28 26  2  0  0  0  0
 29 31  2  0  0  0  0
 29 28  1  0  0  0  0
 30 29  1  0  0  0  0
 31 33  1  0  0  0  0
 32 31  1  0  0  0  0
 33 25  2  0  0  0  0
M  END
>  <minimizedAffinity>
-5.05365229

$$$$

 OpenBabel03242517053D

 33 35  0  0  0  0  0  0  0  0999 V2000
   36.5650   29.6520   38.6430 C   0  0  0  0  0  0  0  0  0  0  0  0
   35.9970   29.5360   37.3900 C   0  0  0  0  0  0  0  0  0  0  0  0
   34.6760   29.1590   37.2940 C   0  0  0  0  0  0  0  0  0  0  0  0
   33.9570   28.9090   38.4250 C   0  0  0  0  0  0  0  0  0  0  0  0
   34.4910   29.0150   39.6890 C   0  0  0  0  0  0  0  0  0  0  0  0
   35.8380   29.4000   39.7690 C   0  0  0  0  0  0  0  0  0  0  0  0
   36.5480   29.7310   36.4780 H   0  0  0  0  0  0  0  0  0  0  0  0
   34.1380   29.0390   36.3630 H   0  0  0  0  0  0  0  0  0  0  0  0
   32.9060   28.6050   38.4160 H   0  0  0  0  0  0  0  0  0  0  0  0
   34.0450   28.8490   40.6510 H   0  0  0  0  0  0  0  0  0  0  0  0
   39.8040   31.5870   38.4520 C   0  0  0  0  0  0  0  0  0  0  0  0
   38.4230   31.3100   38.3830 C   0  0  0  0  0  0  0  0  0  0  0  0
   37.9700   30.0540   38.6800 C   0  0  0  0  0  0  0  0  0  0  0  0
   38.9060   29.1240   39.0340 N   0  0  0  0  0  0  0  0  0  0  0  0
   40.2280   29.3780   39.1030 C   0  0  0  0  0  0  0  0  0  0  0  0
   40.6870   30.6180   38.8110 N   0  0  0  0  0  0  0  0  0  0  0  0
   40.1640   32.5630   38.2220 H   0  0  0  0  0  0  0  0  0  0  0  0
   37.7030   32.0450   38.1060 H   0  0  0  0  0  0  0  0  0  0  0  0
   40.8660   28.5640   39.3920 H   0  0  0  0  0  0  0  0  0  0  0  0
   36.8840   28.6840   42.0490 C   0  0  0  0  0  0  0  0  0  0  0  0
   36.6000   27.5000   42.1310 O   0  0  0  0  0  0  0  0  0  0  0  0
   36.5240   29.5390   40.9930 N   0  0  0  0  0  0  0  0  0  0  0  0
   36.7720   30.5760   40.9940 H   0  0  0  0  0  0  0  0  0  0  0  0
   37.6280   29.2400   43.0920 O   0  0  0  0  0  0  0  0  0  0  0  0
   38.9730   29.5100   42.8890 C   0  0  0  0  0  0  0  0  0  0  0  0
   39.7770   28.3900   42.9650 C   0  0  0  0  0  0  0  0  0  0  0  0
   39.4440   27.4000   43.1590 H   0  0  0  0  0  0  0  0  0  0  0  0
   41.1580   28.5060   42.7810 C   0  0  0  0  0  3  0  0  0  0  0  0
   41.6490   29.7870   42.5240 C   0  0  0  0  0  0  0  0  0  0  0  0
   42.7220   29.9440   42.3710 H   0  0  0  0  0  0  0  0  0  0  0  0
   40.8490   30.9060   42.4470 C   0  0  0  0  0  0  0  0  0  0  0  0
   41.2430   31.8930   42.2470 H   0  0  0  0  0  0  0  0  0  0  0  0
   39.4790   30.7740   42.6320 C   0  0  0  0  0  3  0  0  0  0  0  0
  1 13  1  0  0  0  0
  1  6  1  0  0  0  0
  2  1  2  0  0  0  0
  3  2  1  0  0  0  0
  3  4  2  0  0  0  0
  4  5  1  0  0  0  0
  5  6  2  0  0  0  0
  5 10  1  0  0  0  0
  6 22  1  0  0  0  0
  7  2  1  0  0  0  0
  8  3  1  0  0  0  0
  9  4  1  0  0  0  0
 11 16  1  0  0  0  0
 12 11  2  0  0  0  0
 12 13  1  0  0  0  0
 13 14  2  0  0  0  0
 14 15  1  0  0  0  0
 15 19  1  0  0  0  0
 16 15  2  0  0  0  0
 17 11  1  0  0  0  0
 18 12  1  0  0  0  0
 20 21  2  0  0  0  0
 20 24  1  0  0  0  0
 22 23  1  0  0  0  0
 22 20  1  0  0  0  0
 25 26  1  0  0  0  0
 25 24  1  0  0  0  0
 26 27  1  0  0  0  0
 28 26  2  0  0  0  0
 29 28  1  0  0  0  0
 30 29  1  0  0  0  0
 31 29  2  0  0  0  0
 31 33  1  0  0  0  0
 32 31  1  0  0  0  0
 33 25  2  0  0  0  0
M  END
>  <minimizedAffinity>
-5.05360937

$$$$

 OpenBabel03242517053D

 33 35  0  0  0  0  0  0  0  0999 V2000
   37.4270   25.6780   41.1590 C   0  0  0  0  0  0  0  0  0  0  0  0
   37.7980   24.4750   41.7270 C   0  0  0  0  0  0  0  0  0  0  0  0
   37.5390   23.3100   41.0400 C   0  0  0  0  0  0  0  0  0  0  0  0
   36.9260   23.3600   39.8230 C   0  0  0  0  0  0  0  0  0  0  0  0
   36.5430   24.5410   39.2280 C   0  0  0  0  0  0  0  0  0  0  0  0
   36.8140   25.7180   39.9420 C   0  0  0  0  0  0  0  0  0  0  0  0
   38.2860   24.4100   42.6920 H   0  0  0  0  0  0  0  0  0  0  0  0
   37.7880   22.3190   41.3950 H   0  0  0  0  0  0  0  0  0  0  0  0
   36.6920   22.4730   39.2280 H   0  0  0  0  0  0  0  0  0  0  0  0
   36.0590   24.7230   38.2880 H   0  0  0  0  0  0  0  0  0  0  0  0
   37.3640   28.4950   43.6750 C   0  0  0  0  0  0  0  0  0  0  0  0
   36.9810   27.3200   42.9940 C   0  0  0  0  0  0  0  0  0  0  0  0
   37.7270   26.8780   41.9370 C   0  0  0  0  0  0  0  0  0  0  0  0
   38.8220   27.6200   41.5970 N   0  0  0  0  0  0  0  0  0  0  0  0
   39.1980   28.7440   42.2390 C   0  0  0  0  0  0  0  0  0  0  0  0
   38.4660   29.1900   43.2880 N   0  0  0  0  0  0  0  0  0  0  0  0
   36.7870   28.8450   44.4990 H   0  0  0  0  0  0  0  0  0  0  0  0
   36.1230   26.7510   43.2700 H   0  0  0  0  0  0  0  0  0  0  0  0
   40.0780   29.2400   41.8790 H   0  0  0  0  0  0  0  0  0  0  0  0
   37.0360   27.9280   38.5730 C   0  0  0  0  0  0  0  0  0  0  0  0
   38.0980   27.7940   37.9890 O   0  0  0  0  0  0  0  0  0  0  0  0
   36.4700   27.0000   39.4640 N   0  0  0  0  0  0  0  0  0  0  0  0
   35.5520   27.1890   39.9730 H   0  0  0  0  0  0  0  0  0  0  0  0
   36.3180   29.1030   38.3400 O   0  0  0  0  0  0  0  0  0  0  0  0
   35.1880   29.0540   37.5360 C   0  0  0  0  0  0  0  0  0  0  0  0
   35.4690   29.1440   36.1880 C   0  0  0  0  0  0  0  0  0  0  0  0
   36.4370   29.2440   35.7610 H   0  0  0  0  0  0  0  0  0  0  0  0
   34.4300   29.1090   35.2520 C   0  0  0  0  0  3  0  0  0  0  0  0
   33.1360   28.9800   35.7600 C   0  0  0  0  0  0  0  0  0  0  0  0
   32.2800   28.9460   35.0780 H   0  0  0  0  0  0  0  0  0  0  0  0
   32.8540   28.8890   37.1060 C   0  0  0  0  0  0  0  0  0  0  0  0
   31.8470   28.7890   37.4840 H   0  0  0  0  0  0  0  0  0  0  0  0
   33.8980   28.9260   38.0210 C   0  0  0  0  0  3  0  0  0  0  0  0
  1  2  1  0  0  0  0
  1 13  1  0  0  0  0
  2  7  1  0  0  0  0
  3  8  1  0  0  0  0
  3  2  2  0  0  0  0
  4  3  1  0  0  0  0
  5  4  2  0  0  0  0
  5  6  1  0  0  0  0
  6  1  2  0  0  0  0
  9  4  1  0  0  0  0
 10  5  1  0  0  0  0
 11 17  1  0  0  0  0
 12 18  1  0  0  0  0
 12 11  2  0  0  0  0
 13 12  1  0  0  0  0
 14 13  2  0  0  0  0
 14 15  1  0  0  0  0
 15 16  2  0  0  0  0
 16 11  1  0  0  0  0
 19 15  1  0  0  0  0
 20 22  1  0  0  0  0
 21 20  2  0  0  0  0
 22  6  1  0  0  0  0
 22 23  1  0  0  0  0
 24 20  1  0  0  0  0
 25 33  1  0  0  0  0
 25 24  1  0  0  0  0
 26 25  2  0  0  0  0
 27 26  1  0  0  0  0
 28 29  2  0  0  0  0
 28 26  1  0  0  0  0
 29 31  1  0  0  0  0
 30 29  1  0  0  0  0
 31 32  1  0  0  0  0
 31 33  2  0  0  0  0
M  END
>  <minimizedAffinity>
-5.03970337

$$$$

 OpenBabel03242517053D

 33 35  0  0  0  0  0  0  0  0999 V2000
   39.2400   31.1600   40.8260 C   0  0  0  0  0  0  0  0  0  0  0  0
   39.6690   32.2570   40.1060 C   0  0  0  0  0  0  0  0  0  0  0  0
   38.7280   33.0990   39.5570 C   0  0  0  0  0  0  0  0  0  0  0  0
   37.4010   32.8410   39.7310 C   0  0  0  0  0  0  0  0  0  0  0  0
   36.9380   31.7570   40.4420 C   0  0  0  0  0  0  0  0  0  0  0  0
   37.9100   30.9090   40.9940 C   0  0  0  0  0  0  0  0  0  0  0  0
   40.7180   32.4840   39.9560 H   0  0  0  0  0  0  0  0  0  0  0  0
   38.9580   33.9830   38.9780 H   0  0  0  0  0  0  0  0  0  0  0  0
   36.6050   33.4690   39.3210 H   0  0  0  0  0  0  0  0  0  0  0  0
   35.9350   31.4380   40.6530 H   0  0  0  0  0  0  0  0  0  0  0  0
   41.9770   29.6800   42.9680 C   0  0  0  0  0  0  0  0  0  0  0  0
   40.9870   30.5810   42.5210 C   0  0  0  0  0  0  0  0  0  0  0  0
   40.2850   30.3030   41.3810 C   0  0  0  0  0  0  0  0  0  0  0  0
   40.5930   29.1420   40.7310 N   0  0  0  0  0  0  0  0  0  0  0  0
   41.5360   28.2740   41.1470 C   0  0  0  0  0  0  0  0  0  0  0  0
   42.2380   28.5400   42.2750 N   0  0  0  0  0  0  0  0  0  0  0  0
   42.5280   29.8910   43.8540 H   0  0  0  0  0  0  0  0  0  0  0  0
   40.7570   31.4840   43.0390 H   0  0  0  0  0  0  0  0  0  0  0  0
   41.6870   27.3950   40.5510 H   0  0  0  0  0  0  0  0  0  0  0  0
   36.5750   28.7790   41.6940 C   0  0  0  0  0  0  0  0  0  0  0  0
   35.6360   28.7670   40.9170 O   0  0  0  0  0  0  0  0  0  0  0  0
   37.5870   29.7540   41.7370 N   0  0  0  0  0  0  0  0  0  0  0  0
   38.3660   29.7310   42.4640 H   0  0  0  0  0  0  0  0  0  0  0  0
   36.6560   27.7390   42.6220 O   0  0  0  0  0  0  0  0  0  0  0  0
   37.8050   26.9630   42.6660 C   0  0  0  0  0  0  0  0  0  0  0  0
   37.9310   26.1060   41.5910 C   0  0  0  0  0  0  0  0  0  0  0  0
   37.2420   26.0130   40.7880 H   0  0  0  0  0  0  0  0  0  0  0  0
   39.0400   25.2600   41.4970 C   0  0  0  0  0  3  0  0  0  0  0  0
   39.9780   25.3410   42.5280 C   0  0  0  0  0  0  0  0  0  0  0  0
   40.8690   24.7040   42.5120 H   0  0  0  0  0  0  0  0  0  0  0  0
   39.8540   26.1970   43.6010 C   0  0  0  0  0  0  0  0  0  0  0  0
   40.5890   26.2480   44.3920 H   0  0  0  0  0  0  0  0  0  0  0  0
   38.7460   27.0300   43.6800 C   0  0  0  0  0  3  0  0  0  0  0  0
  1  6  1  0  0  0  0
  1 13  1  0  0  0  0
  2  1  2  0  0  0  0
  3  4  2  0  0  0  0
  3  2  1  0  0  0  0
  4  5  1  0  0  0  0
  5 10  1  0  0  0  0
  5  6  2  0  0  0  0
  6 22  1  0  0  0  0
  7  2  1  0  0  0  0
  8  3  1  0  0  0  0
  9  4  1  0  0  0  0
 11 17  1  0  0  0  0
 12 11  1  0  0  0  0
 12 18  1  0  0  0  0
 13 12  2  0  0  0  0
 14 15  2  0  0  0  0
 14 13  1  0  0  0  0
 15 16  1  0  0  0  0
 16 11  2  0  0  0  0
 19 15  1  0  0  0  0
 20 22  1  0  0  0  0
 20 24  1  0  0  0  0
 21 20  2  0  0  0  0
 22 23  1  0  0  0  0
 24 25  1  0  0  0  0
 25 33  1  0  0  0  0
 26 25  2  0  0  0  0
 27 26  1  0  0  0  0
 28 26  1  0  0  0  0
 28 29  2  0  0  0  0
 29 31  1  0  0  0  0
 30 29  1  0  0  0  0
 31 33  2  0  0  0  0
 31 32  1  0  0  0  0
M  END
>  <minimizedAffinity>
-5.02678108

$$$$
