
 OpenBabel03252508483D

 45 47  0  0  0  0  0  0  0  0999 V2000
   35.9330   27.8670   38.8280 N   0  0  0  0  0  0  0  0  0  0  0  0
   35.7120   26.8570   38.6930 H   0  0  0  0  0  0  0  0  0  0  0  0
   37.2200   28.1460   39.3880 C   0  0  0  0  0  0  0  0  0  0  0  0
   38.0160   27.4590   39.0040 H   0  0  0  0  0  0  0  0  0  0  0  0
   37.5190   29.1690   39.0700 H   0  0  0  0  0  0  0  0  0  0  0  0
   37.5740   29.2610   41.5960 C   0  0  0  0  0  0  0  0  0  0  0  0
   37.2640   28.1180   40.8830 C   0  0  0  0  0  0  0  0  0  0  0  0
   36.9990   26.9660   41.5780 C   0  0  0  0  0  0  0  0  0  0  0  0
   37.0430   26.9570   42.9430 C   0  0  0  0  0  0  0  0  0  0  0  0
   37.3470   28.0740   43.6800 C   0  0  0  0  0  0  0  0  0  0  0  0
   37.6090   29.2200   42.9410 C   0  0  0  0  0  0  0  0  0  0  0  0
   36.7510   26.0390   41.0850 H   0  0  0  0  0  0  0  0  0  0  0  0
   36.8340   26.0500   43.4950 H   0  0  0  0  0  0  0  0  0  0  0  0
   37.4030   28.1520   44.7620 H   0  0  0  0  0  0  0  0  0  0  0  0
   37.8620   30.1650   43.4190 H   0  0  0  0  0  0  0  0  0  0  0  0
   37.2870   32.5810   39.8060 C   0  0  0  0  0  0  0  0  0  0  0  0
   36.9290   31.4660   40.5720 C   0  0  0  0  0  0  0  0  0  0  0  0
   37.8490   30.4670   40.8100 C   0  0  0  0  0  0  0  0  0  0  0  0
   39.0760   30.6350   40.2720 N   0  0  0  0  0  0  0  0  0  0  0  0
   39.4290   31.7070   39.5340 C   0  0  0  0  0  0  0  0  0  0  0  0
   38.5250   32.6790   39.3050 N   0  0  0  0  0  0  0  0  0  0  0  0
   36.5650   33.3680   39.6170 H   0  0  0  0  0  0  0  0  0  0  0  0
   35.9500   31.3610   40.9830 H   0  0  0  0  0  0  0  0  0  0  0  0
   40.4600   31.6730   39.1830 H   0  0  0  0  0  0  0  0  0  0  0  0
   35.6260   28.7850   37.4220 S   0  0  0  0  0  0  0  0  0  0  0  0
   35.8450   27.9620   36.1780 O   0  0  0  0  0  0  0  0  0  0  0  0
   36.5520   28.1040   35.4830 H   0  0  0  0  0  0  0  0  0  0  0  0
   36.4850   30.0050   37.3830 O   0  0  0  0  0  0  0  0  0  0  0  0
   36.7750   30.6110   38.0950 H   0  0  0  0  0  0  0  0  0  0  0  0
   34.0080   29.2670   37.4650 O   0  0  0  0  0  0  0  0  0  0  0  0
   33.4420   28.9360   36.2500 C   0  0  0  0  0  0  0  0  0  0  0  0
   33.7350   27.8890   35.9440 H   0  0  0  0  0  0  0  0  0  0  0  0
   33.6480   29.6110   35.4220 H   0  0  0  0  0  0  0  0  0  0  0  0
   31.9280   28.8600   36.4120 C   0  0  0  0  0  0  0  0  0  0  0  0
   31.5880   28.1300   35.6200 H   0  0  0  0  0  0  0  0  0  0  0  0
   31.6100   28.4730   37.3760 H   0  0  0  0  0  0  0  0  0  0  0  0
   31.3450   30.1950   36.0960 C   0  0  0  0  0  0  0  0  0  0  0  0
   31.6760   30.6420   34.8120 C   0  0  0  0  0  0  0  0  0  0  0  0
   32.3000   30.0700   34.1100 H   0  0  0  0  0  0  0  0  0  0  0  0
   31.2420   31.8410   34.3300 C   0  0  0  0  0  3  0  0  0  0  0  0
   30.4530   32.6150   35.1570 C   0  0  0  0  0  0  0  0  0  0  0  0
   30.1050   33.5650   34.7830 H   0  0  0  0  0  0  0  0  0  0  0  0
   30.1310   32.1750   36.4110 C   0  0  0  0  0  0  0  0  0  0  0  0
   29.5070   32.7790   37.0790 H   0  0  0  0  0  0  0  0  0  0  0  0
   30.5570   30.9690   36.9220 C   0  0  0  0  0  3  0  0  0  0  0  0
  1  3  1  0  0  0  0
  2  1  1  0  0  0  0
  3  7  1  0  0  0  0
  4  3  1  0  0  0  0
  5  3  1  0  0  0  0
  6 11  1  0  0  0  0
  7  8  1  0  0  0  0
  7  6  2  0  0  0  0
  8  9  2  0  0  0  0
  9 13  1  0  0  0  0
  9 10  1  0  0  0  0
 10 14  1  0  0  0  0
 11 15  1  0  0  0  0
 11 10  2  0  0  0  0
 12  8  1  0  0  0  0
 16 17  1  0  0  0  0
 17 18  2  0  0  0  0
 17 23  1  0  0  0  0
 18  6  1  0  0  0  0
 19 18  1  0  0  0  0
 20 19  2  0  0  0  0
 21 20  1  0  0  0  0
 21 16  2  0  0  0  0
 22 16  1  0  0  0  0
 24 20  1  0  0  0  0
 25 30  1  0  0  0  0
 25  1  1  0  0  0  0
 26 25  1  0  0  0  0
 27 26  1  0  0  0  0
 28 25  1  0  0  0  0
 28 29  1  0  0  0  0
 31 34  1  0  0  0  0
 31 30  1  0  0  0  0
 32 31  1  0  0  0  0
 33 31  1  0  0  0  0
 34 36  1  0  0  0  0
 35 34  1  0  0  0  0
 37 34  1  0  0  0  0
 37 45  1  0  0  0  0
 38 37  2  0  0  0  0
 39 38  1  0  0  0  0
 40 38  1  0  0  0  0
 40 41  2  0  0  0  0
 41 43  1  0  0  0  0
 42 41  1  0  0  0  0
 43 45  2  0  0  0  0
 43 44  1  0  0  0  0
M  END
>  <minimizedAffinity>
-5.65405655

$$$$

 OpenBabel03252508483D

 45 47  0  0  0  0  0  0  0  0999 V2000
   38.8210   29.4410   36.9890 N   0  0  0  0  0  0  0  0  0  0  0  0
   38.3150   28.5340   36.8940 H   0  0  0  0  0  0  0  0  0  0  0  0
   38.0960   30.4840   37.6490 C   0  0  0  0  0  0  0  0  0  0  0  0
   38.7630   31.1840   38.2130 H   0  0  0  0  0  0  0  0  0  0  0  0
   37.5960   31.1000   36.8690 H   0  0  0  0  0  0  0  0  0  0  0  0
   36.7980   30.6580   39.7770 C   0  0  0  0  0  0  0  0  0  0  0  0
   37.0310   30.0030   38.5820 C   0  0  0  0  0  0  0  0  0  0  0  0
   36.2650   28.9070   38.2770 C   0  0  0  0  0  0  0  0  0  0  0  0
   35.2960   28.4800   39.1400 C   0  0  0  0  0  0  0  0  0  0  0  0
   35.0400   29.1080   40.3330 C   0  0  0  0  0  0  0  0  0  0  0  0
   35.8350   30.2120   40.6050 C   0  0  0  0  0  0  0  0  0  0  0  0
   36.3940   28.3490   37.3630 H   0  0  0  0  0  0  0  0  0  0  0  0
   34.6890   27.6160   38.9030 H   0  0  0  0  0  0  0  0  0  0  0  0
   34.2920   28.8350   41.0720 H   0  0  0  0  0  0  0  0  0  0  0  0
   35.7210   30.7890   41.5220 H   0  0  0  0  0  0  0  0  0  0  0  0
   38.2100   34.1610   39.9890 C   0  0  0  0  0  0  0  0  0  0  0  0
   37.3390   33.1120   39.6730 C   0  0  0  0  0  0  0  0  0  0  0  0
   37.6410   31.8230   40.0580 C   0  0  0  0  0  0  0  0  0  0  0  0
   38.7950   31.6500   40.7370 N   0  0  0  0  0  0  0  0  0  0  0  0
   39.6400   32.6550   41.0460 C   0  0  0  0  0  0  0  0  0  0  0  0
   39.3390   33.9120   40.6660 N   0  0  0  0  0  0  0  0  0  0  0  0
   37.9760   35.1750   39.6870 H   0  0  0  0  0  0  0  0  0  0  0  0
   36.4340   33.2800   39.1340 H   0  0  0  0  0  0  0  0  0  0  0  0
   40.5210   32.3290   41.5970 H   0  0  0  0  0  0  0  0  0  0  0  0
   40.3890   29.2360   37.6320 S   0  0  0  0  0  0  0  0  0  0  0  0
   40.6960   30.2910   38.6640 O   0  0  0  0  0  0  0  0  0  0  0  0
   41.3870   31.0120   38.5950 H   0  0  0  0  0  0  0  0  0  0  0  0
   41.4170   29.2690   36.5500 O   0  0  0  0  0  0  0  0  0  0  0  0
   41.4040   28.9130   35.6370 H   0  0  0  0  0  0  0  0  0  0  0  0
   40.4450   27.7240   38.3810 O   0  0  0  0  0  0  0  0  0  0  0  0
   40.1020   27.9020   39.7050 C   0  0  0  0  0  0  0  0  0  0  0  0
   39.6840   28.9370   39.8750 H   0  0  0  0  0  0  0  0  0  0  0  0
   40.8880   27.7200   40.4370 H   0  0  0  0  0  0  0  0  0  0  0  0
   38.9390   26.9770   40.0470 C   0  0  0  0  0  0  0  0  0  0  0  0
   38.1780   27.1540   39.2320 H   0  0  0  0  0  0  0  0  0  0  0  0
   39.2000   25.9220   40.0330 H   0  0  0  0  0  0  0  0  0  0  0  0
   38.3440   27.4160   41.3420 C   0  0  0  0  0  0  0  0  0  0  0  0
   37.2740   26.6110   41.7480 C   0  0  0  0  0  0  0  0  0  0  0  0
   36.9100   25.7470   41.1740 H   0  0  0  0  0  0  0  0  0  0  0  0
   36.5930   26.8440   42.9060 C   0  0  0  0  0  3  0  0  0  0  0  0
   36.9950   27.9150   43.6790 C   0  0  0  0  0  0  0  0  0  0  0  0
   36.4610   28.1060   44.5980 H   0  0  0  0  0  0  0  0  0  0  0  0
   38.0400   28.6990   43.2790 C   0  0  0  0  0  0  0  0  0  0  0  0
   38.3700   29.5520   43.8830 H   0  0  0  0  0  0  0  0  0  0  0  0
   38.7450   28.4860   42.1150 C   0  0  0  0  0  3  0  0  0  0  0  0
  1 25  1  0  0  0  0
  1  3  1  0  0  0  0
  2  1  1  0  0  0  0
  3  4  1  0  0  0  0
  3  7  1  0  0  0  0
  5  3  1  0  0  0  0
  6 18  1  0  0  0  0
  6 11  1  0  0  0  0
  7  6  2  0  0  0  0
  8  7  1  0  0  0  0
  8  9  2  0  0  0  0
  9 10  1  0  0  0  0
 10 11  2  0  0  0  0
 10 14  1  0  0  0  0
 11 15  1  0  0  0  0
 12  8  1  0  0  0  0
 13  9  1  0  0  0  0
 16 21  1  0  0  0  0
 17 16  2  0  0  0  0
 17 18  1  0  0  0  0
 18 19  2  0  0  0  0
 19 20  1  0  0  0  0
 20 24  1  0  0  0  0
 21 20  2  0  0  0  0
 22 16  1  0  0  0  0
 23 17  1  0  0  0  0
 25 30  1  0  0  0  0
 25 26  1  0  0  0  0
 27 26  1  0  0  0  0
 28 25  1  0  0  0  0
 29 28  1  0  0  0  0
 30 31  1  0  0  0  0
 31 32  1  0  0  0  0
 31 34  1  0  0  0  0
 31 33  1  0  0  0  0
 34 37  1  0  0  0  0
 35 34  1  0  0  0  0
 36 34  1  0  0  0  0
 37 38  2  0  0  0  0
 37 45  1  0  0  0  0
 38 40  1  0  0  0  0
 39 38  1  0  0  0  0
 40 41  2  0  0  0  0
 41 42  1  0  0  0  0
 43 41  1  0  0  0  0
 43 44  1  0  0  0  0
 45 43  2  0  0  0  0
M  END
>  <minimizedAffinity>
-5.60935163

$$$$

 OpenBabel03252508483D

 45 47  0  0  0  0  0  0  0  0999 V2000
   36.6040   28.2090   41.1990 N   0  0  0  0  0  0  0  0  0  0  0  0
   36.2660   27.2940   40.8290 H   0  0  0  0  0  0  0  0  0  0  0  0
   35.7540   29.3290   40.9360 C   0  0  0  0  0  0  0  0  0  0  0  0
   34.7660   29.0310   40.5010 H   0  0  0  0  0  0  0  0  0  0  0  0
   35.5240   29.8220   41.9070 H   0  0  0  0  0  0  0  0  0  0  0  0
   36.3680   30.1980   38.6750 C   0  0  0  0  0  0  0  0  0  0  0  0
   36.3580   30.3700   40.0460 C   0  0  0  0  0  0  0  0  0  0  0  0
   36.9120   31.5110   40.5660 C   0  0  0  0  0  0  0  0  0  0  0  0
   37.4590   32.4510   39.7410 C   0  0  0  0  0  0  0  0  0  0  0  0
   37.4850   32.3110   38.3760 C   0  0  0  0  0  0  0  0  0  0  0  0
   36.9140   31.1440   37.8880 C   0  0  0  0  0  0  0  0  0  0  0  0
   36.9380   31.7080   41.6260 H   0  0  0  0  0  0  0  0  0  0  0  0
   37.8970   33.3530   40.1480 H   0  0  0  0  0  0  0  0  0  0  0  0
   37.8980   33.0070   37.6520 H   0  0  0  0  0  0  0  0  0  0  0  0
   36.8780   30.9260   36.8220 H   0  0  0  0  0  0  0  0  0  0  0  0
   33.9670   27.6280   37.2800 C   0  0  0  0  0  0  0  0  0  0  0  0
   34.4540   28.8530   37.7500 C   0  0  0  0  0  0  0  0  0  0  0  0
   35.7640   28.9640   38.1660 C   0  0  0  0  0  0  0  0  0  0  0  0
   36.5180   27.8460   38.0900 N   0  0  0  0  0  0  0  0  0  0  0  0
   36.0580   26.6620   37.6380 C   0  0  0  0  0  0  0  0  0  0  0  0
   34.7770   26.5610   37.2330 N   0  0  0  0  0  0  0  0  0  0  0  0
   32.9380   27.5380   36.9520 H   0  0  0  0  0  0  0  0  0  0  0  0
   33.8320   29.7190   37.7990 H   0  0  0  0  0  0  0  0  0  0  0  0
   36.8070   25.8710   37.6470 H   0  0  0  0  0  0  0  0  0  0  0  0
   37.0550   28.1090   42.8420 S   0  0  0  0  0  0  0  0  0  0  0  0
   36.0390   27.3310   43.6380 O   0  0  0  0  0  0  0  0  0  0  0  0
   35.4490   27.6870   44.3650 H   0  0  0  0  0  0  0  0  0  0  0  0
   37.2310   29.4690   43.4300 O   0  0  0  0  0  0  0  0  0  0  0  0
   37.6050   30.2920   43.0520 H   0  0  0  0  0  0  0  0  0  0  0  0
   38.5320   27.2940   42.9210 O   0  0  0  0  0  0  0  0  0  0  0  0
   38.2680   25.9430   42.8380 C   0  0  0  0  0  0  0  0  0  0  0  0
   37.2080   25.7630   42.4920 H   0  0  0  0  0  0  0  0  0  0  0  0
   38.4430   25.3590   43.7400 H   0  0  0  0  0  0  0  0  0  0  0  0
   39.1220   25.3360   41.7290 C   0  0  0  0  0  0  0  0  0  0  0  0
   39.3670   26.2000   41.0440 H   0  0  0  0  0  0  0  0  0  0  0  0
   40.0610   24.9160   42.0810 H   0  0  0  0  0  0  0  0  0  0  0  0
   38.2920   24.3580   40.9680 C   0  0  0  0  0  0  0  0  0  0  0  0
   36.9330   24.6880   40.9630 C   0  0  0  0  0  0  0  0  0  0  0  0
   36.5190   25.5730   41.4670 H   0  0  0  0  0  0  0  0  0  0  0  0
   36.0060   23.9210   40.3210 C   0  0  0  0  0  3  0  0  0  0  0  0
   36.4530   22.7910   39.6660 C   0  0  0  0  0  0  0  0  0  0  0  0
   35.7260   22.1790   39.1550 H   0  0  0  0  0  0  0  0  0  0  0  0
   37.7830   22.4730   39.6730 C   0  0  0  0  0  0  0  0  0  0  0  0
   38.1530   21.5790   39.1580 H   0  0  0  0  0  0  0  0  0  0  0  0
   38.7400   23.2300   40.3130 C   0  0  0  0  0  3  0  0  0  0  0  0
  1 25  1  0  0  0  0
  2  1  1  0  0  0  0
  3  1  1  0  0  0  0
  3  5  1  0  0  0  0
  4  3  1  0  0  0  0
  6  7  1  0  0  0  0
  7  8  2  0  0  0  0
  7  3  1  0  0  0  0
  8 12  1  0  0  0  0
  9 13  1  0  0  0  0
  9  8  1  0  0  0  0
 10  9  2  0  0  0  0
 11 10  1  0  0  0  0
 11  6  2  0  0  0  0
 14 10  1  0  0  0  0
 15 11  1  0  0  0  0
 16 17  1  0  0  0  0
 17 23  1  0  0  0  0
 17 18  2  0  0  0  0
 18  6  1  0  0  0  0
 19 18  1  0  0  0  0
 20 24  1  0  0  0  0
 20 19  2  0  0  0  0
 21 16  2  0  0  0  0
 21 20  1  0  0  0  0
 22 16  1  0  0  0  0
 25 30  1  0  0  0  0
 25 28  1  0  0  0  0
 25 26  1  0  0  0  0
 26 27  1  0  0  0  0
 29 28  1  0  0  0  0
 31 30  1  0  0  0  0
 31 33  1  0  0  0  0
 32 31  1  0  0  0  0
 34 36  1  0  0  0  0
 34 31  1  0  0  0  0
 35 34  1  0  0  0  0
 37 34  1  0  0  0  0
 38 37  1  0  0  0  0
 38 39  1  0  0  0  0
 40 38  2  0  0  0  0
 41 43  2  0  0  0  0
 41 40  1  0  0  0  0
 42 41  1  0  0  0  0
 43 45  1  0  0  0  0
 44 43  1  0  0  0  0
 45 37  2  0  0  0  0
M  END
>  <minimizedAffinity>
-5.53092527

$$$$

 OpenBabel03252508483D

 45 47  0  0  0  0  0  0  0  0999 V2000
   36.3910   28.5790   42.5160 N   0  0  0  0  0  0  0  0  0  0  0  0
   35.4420   28.7240   42.9240 H   0  0  0  0  0  0  0  0  0  0  0  0
   36.5890   27.3280   41.8480 C   0  0  0  0  0  0  0  0  0  0  0  0
   35.7120   26.6400   41.9510 H   0  0  0  0  0  0  0  0  0  0  0  0
   36.6920   27.5330   40.7600 H   0  0  0  0  0  0  0  0  0  0  0  0
   38.1810   25.4130   41.6430 C   0  0  0  0  0  0  0  0  0  0  0  0
   37.8150   26.5850   42.2760 C   0  0  0  0  0  0  0  0  0  0  0  0
   38.6010   27.0470   43.3010 C   0  0  0  0  0  0  0  0  0  0  0  0
   39.7170   26.3580   43.6800 C   0  0  0  0  0  0  0  0  0  0  0  0
   40.1070   25.1910   43.0710 C   0  0  0  0  0  0  0  0  0  0  0  0
   39.2870   24.7570   42.0400 C   0  0  0  0  0  0  0  0  0  0  0  0
   38.3740   27.9550   43.8380 H   0  0  0  0  0  0  0  0  0  0  0  0
   40.3400   26.7190   44.4870 H   0  0  0  0  0  0  0  0  0  0  0  0
   40.9760   24.5840   43.3100 H   0  0  0  0  0  0  0  0  0  0  0  0
   39.4980   23.8430   41.4850 H   0  0  0  0  0  0  0  0  0  0  0  0
   35.5420   23.6390   39.5920 C   0  0  0  0  0  0  0  0  0  0  0  0
   36.3230   24.0070   40.6940 C   0  0  0  0  0  0  0  0  0  0  0  0
   37.3100   24.9590   40.5550 C   0  0  0  0  0  0  0  0  0  0  0  0
   37.4650   25.4930   39.3240 N   0  0  0  0  0  0  0  0  0  0  0  0
   36.7170   25.1440   38.2570 C   0  0  0  0  0  0  0  0  0  0  0  0
   35.7540   24.2130   38.4010 N   0  0  0  0  0  0  0  0  0  0  0  0
   34.7650   22.8910   39.6990 H   0  0  0  0  0  0  0  0  0  0  0  0
   36.1770   23.5660   41.6550 H   0  0  0  0  0  0  0  0  0  0  0  0
   36.9830   25.6780   37.3460 H   0  0  0  0  0  0  0  0  0  0  0  0
   36.8900   29.9060   41.5660 S   0  0  0  0  0  0  0  0  0  0  0  0
   38.1430   30.5320   42.1230 O   0  0  0  0  0  0  0  0  0  0  0  0
   38.2300   31.4500   42.5140 H   0  0  0  0  0  0  0  0  0  0  0  0
   35.8090   30.9300   41.4700 O   0  0  0  0  0  0  0  0  0  0  0  0
   34.8370   30.8350   41.3900 H   0  0  0  0  0  0  0  0  0  0  0  0
   37.2260   29.3320   40.0140 O   0  0  0  0  0  0  0  0  0  0  0  0
   36.3840   29.9840   39.1370 C   0  0  0  0  0  0  0  0  0  0  0  0
   36.9530   30.3470   38.2310 H   0  0  0  0  0  0  0  0  0  0  0  0
   35.8120   30.8160   39.5440 H   0  0  0  0  0  0  0  0  0  0  0  0
   35.3870   28.9820   38.5650 C   0  0  0  0  0  0  0  0  0  0  0  0
   35.6720   27.9920   39.0270 H   0  0  0  0  0  0  0  0  0  0  0  0
   34.3550   29.1880   38.8370 H   0  0  0  0  0  0  0  0  0  0  0  0
   35.5960   28.8870   37.0920 C   0  0  0  0  0  0  0  0  0  0  0  0
   34.3960   28.8660   36.3730 C   0  0  0  0  0  0  0  0  0  0  0  0
   33.4030   28.9150   36.8440 H   0  0  0  0  0  0  0  0  0  0  0  0
   34.3690   28.7830   35.0130 C   0  0  0  0  0  3  0  0  0  0  0  0
   35.5800   28.7170   34.3530 C   0  0  0  0  0  0  0  0  0  0  0  0
   35.5680   28.6510   33.2760 H   0  0  0  0  0  0  0  0  0  0  0  0
   36.7510   28.7380   35.0580 C   0  0  0  0  0  0  0  0  0  0  0  0
   37.7190   28.6860   34.5480 H   0  0  0  0  0  0  0  0  0  0  0  0
   36.8060   28.8210   36.4320 C   0  0  0  0  0  3  0  0  0  0  0  0
  1  2  1  0  0  0  0
  3  4  1  0  0  0  0
  3  7  1  0  0  0  0
  3  1  1  0  0  0  0
  5  3  1  0  0  0  0
  6 11  2  0  0  0  0
  6  7  1  0  0  0  0
  7  8  2  0  0  0  0
  8  9  1  0  0  0  0
  8 12  1  0  0  0  0
  9 13  1  0  0  0  0
 10 14  1  0  0  0  0
 10  9  2  0  0  0  0
 11 10  1  0  0  0  0
 15 11  1  0  0  0  0
 16 22  1  0  0  0  0
 16 17  1  0  0  0  0
 17 23  1  0  0  0  0
 18 17  2  0  0  0  0
 18  6  1  0  0  0  0
 19 18  1  0  0  0  0
 20 21  1  0  0  0  0
 20 19  2  0  0  0  0
 21 16  2  0  0  0  0
 24 20  1  0  0  0  0
 25 26  1  0  0  0  0
 25  1  1  0  0  0  0
 26 27  1  0  0  0  0
 28 25  1  0  0  0  0
 29 28  1  0  0  0  0
 30 25  1  0  0  0  0
 31 33  1  0  0  0  0
 31 30  1  0  0  0  0
 32 31  1  0  0  0  0
 34 36  1  0  0  0  0
 34 35  1  0  0  0  0
 34 31  1  0  0  0  0
 37 34  1  0  0  0  0
 38 39  1  0  0  0  0
 38 37  2  0  0  0  0
 40 38  1  0  0  0  0
 41 40  2  0  0  0  0
 41 43  1  0  0  0  0
 42 41  1  0  0  0  0
 43 45  2  0  0  0  0
 44 43  1  0  0  0  0
 45 37  1  0  0  0  0
M  END
>  <minimizedAffinity>
-5.50312996

$$$$

 OpenBabel03252508483D

 45 47  0  0  0  0  0  0  0  0999 V2000
   36.1760   30.7280   41.3790 N   0  0  0  0  0  0  0  0  0  0  0  0
   35.4220   31.3120   41.8010 H   0  0  0  0  0  0  0  0  0  0  0  0
   35.7290   29.5770   40.6550 C   0  0  0  0  0  0  0  0  0  0  0  0
   34.6130   29.5120   40.5930 H   0  0  0  0  0  0  0  0  0  0  0  0
   36.0880   29.6700   39.6060 H   0  0  0  0  0  0  0  0  0  0  0  0
   36.6310   27.2710   40.3160 C   0  0  0  0  0  0  0  0  0  0  0  0
   36.2420   28.2750   41.1830 C   0  0  0  0  0  0  0  0  0  0  0  0
   36.3390   28.0470   42.5320 C   0  0  0  0  0  0  0  0  0  0  0  0
   36.8100   26.8540   42.9990 C   0  0  0  0  0  0  0  0  0  0  0  0
   37.2030   25.8380   42.1650 C   0  0  0  0  0  0  0  0  0  0  0  0
   37.0910   26.1060   40.8080 C   0  0  0  0  0  0  0  0  0  0  0  0
   36.0530   28.7860   43.2640 H   0  0  0  0  0  0  0  0  0  0  0  0
   36.8880   26.6700   44.0630 H   0  0  0  0  0  0  0  0  0  0  0  0
   37.5870   24.8620   42.4520 H   0  0  0  0  0  0  0  0  0  0  0  0
   37.3740   25.3730   40.0530 H   0  0  0  0  0  0  0  0  0  0  0  0
   35.3570   27.6330   36.7720 C   0  0  0  0  0  0  0  0  0  0  0  0
   35.3760   27.3230   38.1370 C   0  0  0  0  0  0  0  0  0  0  0  0
   36.5090   27.5610   38.8850 C   0  0  0  0  0  0  0  0  0  0  0  0
   37.5630   28.0950   38.2310 N   0  0  0  0  0  0  0  0  0  0  0  0
   37.5540   28.3970   36.9170 C   0  0  0  0  0  0  0  0  0  0  0  0
   36.4420   28.1620   36.1920 N   0  0  0  0  0  0  0  0  0  0  0  0
   34.4670   27.4480   36.1820 H   0  0  0  0  0  0  0  0  0  0  0  0
   34.5260   26.9010   38.6260 H   0  0  0  0  0  0  0  0  0  0  0  0
   38.4920   28.8210   36.5600 H   0  0  0  0  0  0  0  0  0  0  0  0
   37.2880   31.6640   40.4850 S   0  0  0  0  0  0  0  0  0  0  0  0
   36.7510   33.0480   40.2280 O   0  0  0  0  0  0  0  0  0  0  0  0
   36.5080   33.4400   39.3390 H   0  0  0  0  0  0  0  0  0  0  0  0
   37.6260   31.0000   39.1920 O   0  0  0  0  0  0  0  0  0  0  0  0
   37.7600   30.0560   38.9680 H   0  0  0  0  0  0  0  0  0  0  0  0
   38.6990   31.8010   41.4030 O   0  0  0  0  0  0  0  0  0  0  0  0
   39.4140   30.6320   41.2460 C   0  0  0  0  0  0  0  0  0  0  0  0
   40.4850   30.8530   40.9620 H   0  0  0  0  0  0  0  0  0  0  0  0
   39.0100   29.9090   40.5400 H   0  0  0  0  0  0  0  0  0  0  0  0
   39.5310   29.9340   42.5970 C   0  0  0  0  0  0  0  0  0  0  0  0
   40.3260   30.5100   43.1550 H   0  0  0  0  0  0  0  0  0  0  0  0
   38.6190   29.9710   43.1880 H   0  0  0  0  0  0  0  0  0  0  0  0
   40.0300   28.5460   42.3770 C   0  0  0  0  0  0  0  0  0  0  0  0
   40.1520   28.2220   41.0210 C   0  0  0  0  0  0  0  0  0  0  0  0
   39.9060   28.9160   40.2040 H   0  0  0  0  0  0  0  0  0  0  0  0
   40.5920   27.0000   40.6070 C   0  0  0  0  0  3  0  0  0  0  0  0
   40.9200   26.0750   41.5790 C   0  0  0  0  0  0  0  0  0  0  0  0
   41.2700   25.1060   41.2600 H   0  0  0  0  0  0  0  0  0  0  0  0
   40.8000   26.3960   42.9020 C   0  0  0  0  0  0  0  0  0  0  0  0
   41.0550   25.6730   43.6850 H   0  0  0  0  0  0  0  0  0  0  0  0
   40.3570   27.6230   43.3470 C   0  0  0  0  0  3  0  0  0  0  0  0
  1  2  1  0  0  0  0
  3  7  1  0  0  0  0
  3  1  1  0  0  0  0
  4  3  1  0  0  0  0
  5  3  1  0  0  0  0
  6 11  2  0  0  0  0
  6  7  1  0  0  0  0
  7  8  2  0  0  0  0
  8  9  1  0  0  0  0
  8 12  1  0  0  0  0
  9 13  1  0  0  0  0
 10 14  1  0  0  0  0
 10  9  2  0  0  0  0
 11 10  1  0  0  0  0
 15 11  1  0  0  0  0
 16 17  1  0  0  0  0
 17 23  1  0  0  0  0
 17 18  2  0  0  0  0
 18  6  1  0  0  0  0
 19 18  1  0  0  0  0
 20 19  2  0  0  0  0
 21 16  2  0  0  0  0
 21 20  1  0  0  0  0
 22 16  1  0  0  0  0
 24 20  1  0  0  0  0
 25  1  1  0  0  0  0
 25 30  1  0  0  0  0
 26 25  1  0  0  0  0
 27 26  1  0  0  0  0
 28 25  1  0  0  0  0
 29 28  1  0  0  0  0
 31 30  1  0  0  0  0
 31 34  1  0  0  0  0
 32 31  1  0  0  0  0
 33 31  1  0  0  0  0
 34 35  1  0  0  0  0
 34 36  1  0  0  0  0
 37 34  1  0  0  0  0
 37 45  1  0  0  0  0
 38 37  2  0  0  0  0
 39 38  1  0  0  0  0
 40 38  1  0  0  0  0
 40 41  2  0  0  0  0
 41 43  1  0  0  0  0
 42 41  1  0  0  0  0
 43 45  2  0  0  0  0
 43 44  1  0  0  0  0
M  END
>  <minimizedAffinity>
-5.40944052

$$$$

 OpenBabel03252508483D

 45 47  0  0  0  0  0  0  0  0999 V2000
   39.8400   29.3520   40.4430 N   0  0  0  0  0  0  0  0  0  0  0  0
   39.7210   28.8550   39.5330 H   0  0  0  0  0  0  0  0  0  0  0  0
   38.6520   29.9380   40.9840 C   0  0  0  0  0  0  0  0  0  0  0  0
   37.7250   29.3830   40.6920 H   0  0  0  0  0  0  0  0  0  0  0  0
   38.7110   29.8730   42.0930 H   0  0  0  0  0  0  0  0  0  0  0  0
   37.3960   31.7740   39.8450 C   0  0  0  0  0  0  0  0  0  0  0  0
   38.4590   31.3800   40.6350 C   0  0  0  0  0  0  0  0  0  0  0  0
   39.3270   32.3400   41.0900 C   0  0  0  0  0  0  0  0  0  0  0  0
   39.1380   33.6530   40.7640 C   0  0  0  0  0  0  0  0  0  0  0  0
   38.0930   34.0760   39.9810 C   0  0  0  0  0  0  0  0  0  0  0  0
   37.2360   33.0760   39.5420 C   0  0  0  0  0  0  0  0  0  0  0  0
   40.1770   32.1020   41.7090 H   0  0  0  0  0  0  0  0  0  0  0  0
   39.8200   34.4130   41.1200 H   0  0  0  0  0  0  0  0  0  0  0  0
   37.8710   35.0950   39.6770 H   0  0  0  0  0  0  0  0  0  0  0  0
   36.3730   33.2950   38.9150 H   0  0  0  0  0  0  0  0  0  0  0  0
   35.6190   29.1560   37.7720 C   0  0  0  0  0  0  0  0  0  0  0  0
   36.5220   30.1670   38.1190 C   0  0  0  0  0  0  0  0  0  0  0  0
   36.4960   30.7140   39.3850 C   0  0  0  0  0  0  0  0  0  0  0  0
   35.5690   30.2220   40.2350 N   0  0  0  0  0  0  0  0  0  0  0  0
   34.6960   29.2490   39.9100 C   0  0  0  0  0  0  0  0  0  0  0  0
   34.7270   28.7190   38.6710 N   0  0  0  0  0  0  0  0  0  0  0  0
   35.6380   28.7240   36.7780 H   0  0  0  0  0  0  0  0  0  0  0  0
   37.2430   30.5350   37.4240 H   0  0  0  0  0  0  0  0  0  0  0  0
   34.0220   28.9790   40.7220 H   0  0  0  0  0  0  0  0  0  0  0  0
   40.6720   28.3990   41.5890 S   0  0  0  0  0  0  0  0  0  0  0  0
   40.6430   29.0400   42.9520 O   0  0  0  0  0  0  0  0  0  0  0  0
   41.4270   29.4010   43.4610 H   0  0  0  0  0  0  0  0  0  0  0  0
   42.0840   28.1670   41.1650 O   0  0  0  0  0  0  0  0  0  0  0  0
   42.4730   28.0040   40.2810 H   0  0  0  0  0  0  0  0  0  0  0  0
   39.8880   26.9060   41.6840 O   0  0  0  0  0  0  0  0  0  0  0  0
   39.3580   26.7940   42.9530 C   0  0  0  0  0  0  0  0  0  0  0  0
   39.7100   27.6430   43.6100 H   0  0  0  0  0  0  0  0  0  0  0  0
   39.5420   25.8550   43.4720 H   0  0  0  0  0  0  0  0  0  0  0  0
   37.8480   26.9880   42.8820 C   0  0  0  0  0  0  0  0  0  0  0  0
   37.4510   26.5430   43.8410 H   0  0  0  0  0  0  0  0  0  0  0  0
   37.5420   28.0300   42.8490 H   0  0  0  0  0  0  0  0  0  0  0  0
   37.3160   26.1860   41.7430 C   0  0  0  0  0  0  0  0  0  0  0  0
   37.1030   24.8440   42.0760 C   0  0  0  0  0  0  0  0  0  0  0  0
   37.3060   24.4240   43.0720 H   0  0  0  0  0  0  0  0  0  0  0  0
   36.6200   23.9430   41.1740 C   0  0  0  0  0  3  0  0  0  0  0  0
   36.3420   24.3990   39.9010 C   0  0  0  0  0  0  0  0  0  0  0  0
   35.9590   23.6930   39.1810 H   0  0  0  0  0  0  0  0  0  0  0  0
   36.5510   25.7110   39.5790 C   0  0  0  0  0  0  0  0  0  0  0  0
   36.3360   26.0870   38.5730 H   0  0  0  0  0  0  0  0  0  0  0  0
   37.0390   26.6410   40.4710 C   0  0  0  0  0  3  0  0  0  0  0  0
  1  3  1  0  0  0  0
  1 25  1  0  0  0  0
  2  1  1  0  0  0  0
  3  5  1  0  0  0  0
  4  3  1  0  0  0  0
  6  7  1  0  0  0  0
  7  3  1  0  0  0  0
  7  8  2  0  0  0  0
  8 12  1  0  0  0  0
  9  8  1  0  0  0  0
  9 13  1  0  0  0  0
 10  9  2  0  0  0  0
 11  6  2  0  0  0  0
 11 10  1  0  0  0  0
 14 10  1  0  0  0  0
 15 11  1  0  0  0  0
 16 17  2  0  0  0  0
 16 21  1  0  0  0  0
 17 18  1  0  0  0  0
 18  6  1  0  0  0  0
 18 19  2  0  0  0  0
 20 19  1  0  0  0  0
 20 24  1  0  0  0  0
 21 20  2  0  0  0  0
 22 16  1  0  0  0  0
 23 17  1  0  0  0  0
 25 30  1  0  0  0  0
 25 26  1  0  0  0  0
 26 27  1  0  0  0  0
 28 25  1  0  0  0  0
 29 28  1  0  0  0  0
 30 31  1  0  0  0  0
 31 33  1  0  0  0  0
 31 32  1  0  0  0  0
 34 31  1  0  0  0  0
 34 35  1  0  0  0  0
 36 34  1  0  0  0  0
 37 38  1  0  0  0  0
 37 34  1  0  0  0  0
 38 39  1  0  0  0  0
 40 38  2  0  0  0  0
 41 40  1  0  0  0  0
 42 41  1  0  0  0  0
 43 41  2  0  0  0  0
 43 45  1  0  0  0  0
 44 43  1  0  0  0  0
 45 37  2  0  0  0  0
M  END
>  <minimizedAffinity>
-5.33057261

$$$$

 OpenBabel03252508483D

 45 47  0  0  0  0  0  0  0  0999 V2000
   38.3240   30.8090   40.6490 N   0  0  0  0  0  0  0  0  0  0  0  0
   39.0420   31.2970   40.0700 H   0  0  0  0  0  0  0  0  0  0  0  0
   38.5830   30.7810   42.0560 C   0  0  0  0  0  0  0  0  0  0  0  0
   39.4640   31.4070   42.3460 H   0  0  0  0  0  0  0  0  0  0  0  0
   37.7060   31.2260   42.5760 H   0  0  0  0  0  0  0  0  0  0  0  0
   40.0420   28.8450   42.6640 C   0  0  0  0  0  0  0  0  0  0  0  0
   38.7810   29.4100   42.6220 C   0  0  0  0  0  0  0  0  0  0  0  0
   37.7240   28.6860   43.1100 C   0  0  0  0  0  0  0  0  0  0  0  0
   37.9210   27.4360   43.6240 C   0  0  0  0  0  0  0  0  0  0  0  0
   39.1590   26.8480   43.6800 C   0  0  0  0  0  0  0  0  0  0  0  0
   40.2030   27.6110   43.1760 C   0  0  0  0  0  0  0  0  0  0  0  0
   36.7150   29.0660   43.1080 H   0  0  0  0  0  0  0  0  0  0  0  0
   37.0890   26.8620   44.0100 H   0  0  0  0  0  0  0  0  0  0  0  0
   39.4020   25.8630   44.0700 H   0  0  0  0  0  0  0  0  0  0  0  0
   41.2290   27.2460   43.1690 H   0  0  0  0  0  0  0  0  0  0  0  0
   43.0120   31.1600   42.3020 C   0  0  0  0  0  0  0  0  0  0  0  0
   41.9910   30.4160   42.9050 C   0  0  0  0  0  0  0  0  0  0  0  0
   41.1400   29.6560   42.1310 C   0  0  0  0  0  0  0  0  0  0  0  0
   41.3530   29.6800   40.7970 N   0  0  0  0  0  0  0  0  0  0  0  0
   42.3330   30.3930   40.2090 C   0  0  0  0  0  0  0  0  0  0  0  0
   43.1610   31.1340   40.9710 N   0  0  0  0  0  0  0  0  0  0  0  0
   43.6830   31.7580   42.9080 H   0  0  0  0  0  0  0  0  0  0  0  0
   41.8470   30.4180   43.9620 H   0  0  0  0  0  0  0  0  0  0  0  0
   42.3550   30.2920   39.1240 H   0  0  0  0  0  0  0  0  0  0  0  0
   36.7420   31.3420   40.2920 S   0  0  0  0  0  0  0  0  0  0  0  0
   36.7310   32.8020   39.9200 O   0  0  0  0  0  0  0  0  0  0  0  0
   36.3030   33.5470   40.4350 H   0  0  0  0  0  0  0  0  0  0  0  0
   35.8260   31.1030   41.4450 O   0  0  0  0  0  0  0  0  0  0  0  0
   35.7700   30.3590   42.0800 H   0  0  0  0  0  0  0  0  0  0  0  0
   36.1850   30.4510   38.9690 O   0  0  0  0  0  0  0  0  0  0  0  0
   36.9620   29.3140   38.8760 C   0  0  0  0  0  0  0  0  0  0  0  0
   37.9080   29.4250   39.4820 H   0  0  0  0  0  0  0  0  0  0  0  0
   37.2280   28.9930   37.8710 H   0  0  0  0  0  0  0  0  0  0  0  0
   36.2310   28.1560   39.5460 C   0  0  0  0  0  0  0  0  0  0  0  0
   35.8560   28.5760   40.5250 H   0  0  0  0  0  0  0  0  0  0  0  0
   35.3700   27.7990   38.9870 H   0  0  0  0  0  0  0  0  0  0  0  0
   37.2180   27.0800   39.8500 C   0  0  0  0  0  0  0  0  0  0  0  0
   38.5250   27.4250   39.4890 C   0  0  0  0  0  0  0  0  0  0  0  0
   38.7970   28.3860   39.0310 H   0  0  0  0  0  0  0  0  0  0  0  0
   39.5760   26.5780   39.6840 C   0  0  0  0  0  3  0  0  0  0  0  0
   39.3100   25.3500   40.2550 C   0  0  0  0  0  0  0  0  0  0  0  0
   40.1360   24.6740   40.4130 H   0  0  0  0  0  0  0  0  0  0  0  0
   38.0320   25.0170   40.6070 C   0  0  0  0  0  0  0  0  0  0  0  0
   37.8050   24.0460   41.0610 H   0  0  0  0  0  0  0  0  0  0  0  0
   36.9530   25.8530   40.4210 C   0  0  0  0  0  3  0  0  0  0  0  0
  1  3  1  0  0  0  0
  2  1  1  0  0  0  0
  3  4  1  0  0  0  0
  3  5  1  0  0  0  0
  3  7  1  0  0  0  0
  6 11  1  0  0  0  0
  7  6  2  0  0  0  0
  7  8  1  0  0  0  0
  8  9  2  0  0  0  0
  9 10  1  0  0  0  0
  9 13  1  0  0  0  0
 10 14  1  0  0  0  0
 11 10  2  0  0  0  0
 12  8  1  0  0  0  0
 15 11  1  0  0  0  0
 16 17  1  0  0  0  0
 16 22  1  0  0  0  0
 17 23  1  0  0  0  0
 18  6  1  0  0  0  0
 18 17  2  0  0  0  0
 19 18  1  0  0  0  0
 20 19  2  0  0  0  0
 20 21  1  0  0  0  0
 21 16  2  0  0  0  0
 24 20  1  0  0  0  0
 25  1  1  0  0  0  0
 25 28  1  0  0  0  0
 26 25  1  0  0  0  0
 26 27  1  0  0  0  0
 28 29  1  0  0  0  0
 30 25  1  0  0  0  0
 31 30  1  0  0  0  0
 31 32  1  0  0  0  0
 31 34  1  0  0  0  0
 33 31  1  0  0  0  0
 34 37  1  0  0  0  0
 34 35  1  0  0  0  0
 36 34  1  0  0  0  0
 37 45  1  0  0  0  0
 38 40  1  0  0  0  0
 38 37  2  0  0  0  0
 39 38  1  0  0  0  0
 40 41  2  0  0  0  0
 41 42  1  0  0  0  0
 41 43  1  0  0  0  0
 43 44  1  0  0  0  0
 45 43  2  0  0  0  0
M  END
>  <minimizedAffinity>
-5.2567358

$$$$

 OpenBabel03252508483D

 45 47  0  0  0  0  0  0  0  0999 V2000
   39.0680   30.1260   37.2480 N   0  0  0  0  0  0  0  0  0  0  0  0
   39.1200   29.2970   37.8790 H   0  0  0  0  0  0  0  0  0  0  0  0
   37.8310   30.8450   37.2800 C   0  0  0  0  0  0  0  0  0  0  0  0
   37.9760   31.9550   37.2550 H   0  0  0  0  0  0  0  0  0  0  0  0
   37.2610   30.5900   36.3600 H   0  0  0  0  0  0  0  0  0  0  0  0
   36.0280   29.4950   38.3620 C   0  0  0  0  0  0  0  0  0  0  0  0
   36.9540   30.5170   38.4470 C   0  0  0  0  0  0  0  0  0  0  0  0
   37.0470   31.2190   39.6220 C   0  0  0  0  0  0  0  0  0  0  0  0
   36.2400   30.9070   40.6790 C   0  0  0  0  0  0  0  0  0  0  0  0
   35.3110   29.8990   40.6260 C   0  0  0  0  0  0  0  0  0  0  0  0
   35.2460   29.2120   39.4210 C   0  0  0  0  0  0  0  0  0  0  0  0
   37.7470   32.0280   39.7570 H   0  0  0  0  0  0  0  0  0  0  0  0
   36.3110   31.4580   41.6070 H   0  0  0  0  0  0  0  0  0  0  0  0
   34.6330   29.5880   41.4160 H   0  0  0  0  0  0  0  0  0  0  0  0
   34.5470   28.3930   39.2650 H   0  0  0  0  0  0  0  0  0  0  0  0
   35.0850   28.3080   34.8960 C   0  0  0  0  0  0  0  0  0  0  0  0
   35.0670   29.0550   36.0790 C   0  0  0  0  0  0  0  0  0  0  0  0
   35.9650   28.7750   37.0870 C   0  0  0  0  0  0  0  0  0  0  0  0
   36.8320   27.7650   36.8600 N   0  0  0  0  0  0  0  0  0  0  0  0
   36.8560   27.0410   35.7230 C   0  0  0  0  0  0  0  0  0  0  0  0
   35.9760   27.3200   34.7420 N   0  0  0  0  0  0  0  0  0  0  0  0
   34.3800   28.5270   34.1020 H   0  0  0  0  0  0  0  0  0  0  0  0
   34.3690   29.8480   36.2300 H   0  0  0  0  0  0  0  0  0  0  0  0
   37.6230   26.2670   35.7160 H   0  0  0  0  0  0  0  0  0  0  0  0
   40.4190   31.1530   37.4260 S   0  0  0  0  0  0  0  0  0  0  0  0
   40.1270   32.5330   36.8950 O   0  0  0  0  0  0  0  0  0  0  0  0
   40.5560   32.9730   36.1040 H   0  0  0  0  0  0  0  0  0  0  0  0
   41.6150   30.5850   36.7370 O   0  0  0  0  0  0  0  0  0  0  0  0
   41.9320   29.6620   36.6520 H   0  0  0  0  0  0  0  0  0  0  0  0
   40.7580   31.2780   39.0760 O   0  0  0  0  0  0  0  0  0  0  0  0
   40.6200   30.0200   39.6260 C   0  0  0  0  0  0  0  0  0  0  0  0
   41.5930   29.4500   39.5720 H   0  0  0  0  0  0  0  0  0  0  0  0
   39.8290   29.3960   39.2130 H   0  0  0  0  0  0  0  0  0  0  0  0
   40.3590   30.1560   41.1220 C   0  0  0  0  0  0  0  0  0  0  0  0
   41.3310   29.8620   41.6150 H   0  0  0  0  0  0  0  0  0  0  0  0
   40.1220   31.1700   41.4340 H   0  0  0  0  0  0  0  0  0  0  0  0
   39.3170   29.1650   41.5180 C   0  0  0  0  0  0  0  0  0  0  0  0
   38.8200   29.3860   42.8070 C   0  0  0  0  0  0  0  0  0  0  0  0
   39.1600   30.2030   43.4590 H   0  0  0  0  0  0  0  0  0  0  0  0
   37.8600   28.5900   43.3570 C   0  0  0  0  0  3  0  0  0  0  0  0
   37.3850   27.5410   42.5960 C   0  0  0  0  0  0  0  0  0  0  0  0
   36.6250   26.9060   43.0240 H   0  0  0  0  0  0  0  0  0  0  0  0
   37.8740   27.3280   41.3360 C   0  0  0  0  0  0  0  0  0  0  0  0
   37.5070   26.4990   40.7200 H   0  0  0  0  0  0  0  0  0  0  0  0
   38.8430   28.1170   40.7570 C   0  0  0  0  0  3  0  0  0  0  0  0
  1  3  1  0  0  0  0
  1 25  1  0  0  0  0
  1  2  1  0  0  0  0
  3  7  1  0  0  0  0
  4  3  1  0  0  0  0
  5  3  1  0  0  0  0
  6  7  2  0  0  0  0
  6 11  1  0  0  0  0
  7  8  1  0  0  0  0
  8 12  1  0  0  0  0
  8  9  2  0  0  0  0
  9 13  1  0  0  0  0
 10  9  1  0  0  0  0
 10 14  1  0  0  0  0
 11 10  2  0  0  0  0
 15 11  1  0  0  0  0
 16 17  1  0  0  0  0
 17 23  1  0  0  0  0
 17 18  2  0  0  0  0
 18  6  1  0  0  0  0
 19 18  1  0  0  0  0
 20 19  2  0  0  0  0
 21 16  2  0  0  0  0
 21 20  1  0  0  0  0
 22 16  1  0  0  0  0
 24 20  1  0  0  0  0
 25 30  1  0  0  0  0
 26 25  1  0  0  0  0
 27 26  1  0  0  0  0
 28 25  1  0  0  0  0
 29 28  1  0  0  0  0
 30 31  1  0  0  0  0
 31 34  1  0  0  0  0
 32 31  1  0  0  0  0
 33 31  1  0  0  0  0
 34 36  1  0  0  0  0
 34 37  1  0  0  0  0
 34 35  1  0  0  0  0
 37 38  1  0  0  0  0
 38 40  2  0  0  0  0
 38 39  1  0  0  0  0
 41 42  1  0  0  0  0
 41 40  1  0  0  0  0
 43 41  2  0  0  0  0
 44 43  1  0  0  0  0
 45 43  1  0  0  0  0
 45 37  2  0  0  0  0
M  END
>  <minimizedAffinity>
-5.21377182

$$$$

 OpenBabel03252508483D

 45 47  0  0  0  0  0  0  0  0999 V2000
   35.8000   29.0420   41.2860 N   0  0  0  0  0  0  0  0  0  0  0  0
   34.9070   28.9630   41.8200 H   0  0  0  0  0  0  0  0  0  0  0  0
   35.9650   30.2500   40.5370 C   0  0  0  0  0  0  0  0  0  0  0  0
   35.1290   30.9760   40.6990 H   0  0  0  0  0  0  0  0  0  0  0  0
   36.8860   30.7570   40.9020 H   0  0  0  0  0  0  0  0  0  0  0  0
   37.0240   30.8150   38.3460 C   0  0  0  0  0  0  0  0  0  0  0  0
   36.1270   30.0480   39.0640 C   0  0  0  0  0  0  0  0  0  0  0  0
   35.3930   29.1030   38.3940 C   0  0  0  0  0  0  0  0  0  0  0  0
   35.5510   28.9300   37.0490 C   0  0  0  0  0  0  0  0  0  0  0  0
   36.4330   29.6760   36.3080 C   0  0  0  0  0  0  0  0  0  0  0  0
   37.1580   30.6210   37.0200 C   0  0  0  0  0  0  0  0  0  0  0  0
   34.6750   28.4710   38.8920 H   0  0  0  0  0  0  0  0  0  0  0  0
   34.9740   28.1850   36.5170 H   0  0  0  0  0  0  0  0  0  0  0  0
   36.6200   29.6030   35.2400 H   0  0  0  0  0  0  0  0  0  0  0  0
   37.8860   31.2690   36.5360 H   0  0  0  0  0  0  0  0  0  0  0  0
   38.1590   33.9820   40.0770 C   0  0  0  0  0  0  0  0  0  0  0  0
   37.3590   33.1020   39.3400 C   0  0  0  0  0  0  0  0  0  0  0  0
   37.7850   31.8120   39.1040 C   0  0  0  0  0  0  0  0  0  0  0  0
   38.9870   31.4710   39.6160 N   0  0  0  0  0  0  0  0  0  0  0  0
   39.7650   32.3120   40.3260 C   0  0  0  0  0  0  0  0  0  0  0  0
   39.3420   33.5710   40.5530 N   0  0  0  0  0  0  0  0  0  0  0  0
   37.8260   34.9960   40.2640 H   0  0  0  0  0  0  0  0  0  0  0  0
   36.4130   33.4010   38.9480 H   0  0  0  0  0  0  0  0  0  0  0  0
   40.7000   31.8640   40.6600 H   0  0  0  0  0  0  0  0  0  0  0  0
   37.1600   28.6900   42.2560 S   0  0  0  0  0  0  0  0  0  0  0  0
   36.9410   29.1330   43.6800 O   0  0  0  0  0  0  0  0  0  0  0  0
   37.4380   29.8550   44.1640 H   0  0  0  0  0  0  0  0  0  0  0  0
   38.3890   29.3330   41.7050 O   0  0  0  0  0  0  0  0  0  0  0  0
   38.6890   29.4650   40.7820 H   0  0  0  0  0  0  0  0  0  0  0  0
   37.3790   27.0150   42.2470 O   0  0  0  0  0  0  0  0  0  0  0  0
   38.2900   26.7200   41.2530 C   0  0  0  0  0  0  0  0  0  0  0  0
   38.8800   25.7920   41.5140 H   0  0  0  0  0  0  0  0  0  0  0  0
   38.9880   27.5110   40.9870 H   0  0  0  0  0  0  0  0  0  0  0  0
   37.5360   26.3300   39.9870 C   0  0  0  0  0  0  0  0  0  0  0  0
   37.5830   25.2030   39.9550 H   0  0  0  0  0  0  0  0  0  0  0  0
   36.4880   26.6180   39.9960 H   0  0  0  0  0  0  0  0  0  0  0  0
   38.2780   26.8600   38.8060 C   0  0  0  0  0  0  0  0  0  0  0  0
   37.9190   26.2280   37.6110 C   0  0  0  0  0  0  0  0  0  0  0  0
   37.1710   25.4250   37.5480 H   0  0  0  0  0  0  0  0  0  0  0  0
   38.4820   26.5670   36.4170 C   0  0  0  0  0  3  0  0  0  0  0  0
   39.4330   27.5680   36.4200 C   0  0  0  0  0  0  0  0  0  0  0  0
   39.8830   27.8430   35.4790 H   0  0  0  0  0  0  0  0  0  0  0  0
   39.7800   28.1840   37.5900 C   0  0  0  0  0  0  0  0  0  0  0  0
   40.5330   28.9810   37.6070 H   0  0  0  0  0  0  0  0  0  0  0  0
   39.2270   27.8610   38.8090 C   0  0  0  0  0  3  0  0  0  0  0  0
  1  2  1  0  0  0  0
  1 25  1  0  0  0  0
  3  4  1  0  0  0  0
  3  5  1  0  0  0  0
  3  1  1  0  0  0  0
  6  7  1  0  0  0  0
  6 18  1  0  0  0  0
  7  3  1  0  0  0  0
  8 12  1  0  0  0  0
  8  7  2  0  0  0  0
  9  8  1  0  0  0  0
 10 11  1  0  0  0  0
 10  9  2  0  0  0  0
 11  6  2  0  0  0  0
 13  9  1  0  0  0  0
 14 10  1  0  0  0  0
 15 11  1  0  0  0  0
 16 22  1  0  0  0  0
 16 21  1  0  0  0  0
 17 16  2  0  0  0  0
 18 17  1  0  0  0  0
 18 19  2  0  0  0  0
 19 20  1  0  0  0  0
 20 21  2  0  0  0  0
 20 24  1  0  0  0  0
 23 17  1  0  0  0  0
 25 26  1  0  0  0  0
 26 27  1  0  0  0  0
 28 25  1  0  0  0  0
 29 28  1  0  0  0  0
 30 25  1  0  0  0  0
 31 32  1  0  0  0  0
 31 30  1  0  0  0  0
 33 31  1  0  0  0  0
 34 36  1  0  0  0  0
 34 31  1  0  0  0  0
 35 34  1  0  0  0  0
 37 45  1  0  0  0  0
 37 34  1  0  0  0  0
 38 37  2  0  0  0  0
 39 38  1  0  0  0  0
 40 41  2  0  0  0  0
 40 38  1  0  0  0  0
 41 43  1  0  0  0  0
 42 41  1  0  0  0  0
 43 44  1  0  0  0  0
 43 45  2  0  0  0  0
M  END
>  <minimizedAffinity>
-5.21082735

$$$$
