
 OpenBabel03252509273D

 30 32  0  0  1  0  0  0  0  0999 V2000
   46.5530   34.9830   42.0130 C   0  0  1  0  0  0  0  0  0  0  0  0
   48.0600   35.3590   41.9310 C   0  0  0  0  0  0  0  0  0  0  0  0
   47.3770   34.1160   41.2800 C   0  0  2  0  0  0  0  0  0  0  0  0
   45.8870   35.7350   41.5430 H   0  0  0  0  0  0  0  0  0  0  0  0
   48.6960   35.1850   42.8020 H   0  0  0  0  0  0  0  0  0  0  0  0
   48.2780   36.1930   41.2490 H   0  0  0  0  0  0  0  0  0  0  0  0
   47.7810   33.1510   41.7150 H   0  0  0  0  0  0  0  0  0  0  0  0
   44.8670   34.9070   45.3650 C   0  0  0  0  0  0  0  0  0  0  0  0
   45.1870   35.3530   44.0380 C   0  0  0  0  0  0  0  0  0  0  0  0
   46.1750   34.6470   43.4350 C   0  0  0  0  0  0  0  0  0  0  0  0
   46.8150   33.5910   44.0480 N   0  0  0  0  0  0  0  0  0  0  0  0
   46.4790   33.2070   45.3000 C   0  0  0  0  0  0  0  0  0  0  0  0
   45.4980   33.8710   45.9620 N   0  0  0  0  0  0  0  0  0  0  0  0
   44.0710   35.4530   45.8880 H   0  0  0  0  0  0  0  0  0  0  0  0
   46.9280   32.4040   45.8360 H   0  0  0  0  0  0  0  0  0  0  0  0
   44.5510   36.4450   43.4280 N   0  0  0  0  0  0  0  0  0  0  0  0
   44.7200   37.2740   44.0720 H   0  0  0  0  0  0  0  0  0  0  0  0
   44.0300   36.4650   42.5480 H   0  0  0  0  0  0  0  0  0  0  0  0
   47.3170   34.0310   39.7740 C   0  0  0  0  0  0  0  0  0  0  0  0
   46.3360   33.5850   39.4590 H   0  0  0  0  0  0  0  0  0  0  0  0
   47.3500   35.0590   39.3750 H   0  0  0  0  0  0  0  0  0  0  0  0
   48.3970   33.1770   39.2050 C   0  0  0  0  0  0  0  0  0  0  0  0
   49.1230   32.3680   40.0760 C   0  0  0  0  0  0  0  0  0  0  0  0
   48.9460   32.3280   41.1440 H   0  0  0  0  0  0  0  0  0  0  0  0
   50.1150   31.5920   39.5100 C   0  0  0  0  0  3  0  0  0  0  0  0
   50.3960   31.5970   38.1440 C   0  0  0  0  0  0  0  0  0  0  0  0
   51.1740   30.9870   37.7010 H   0  0  0  0  0  0  0  0  0  0  0  0
   49.6450   32.4140   37.3400 C   0  0  0  0  0  0  0  0  0  0  0  0
   49.8530   32.4260   36.2780 H   0  0  0  0  0  0  0  0  0  0  0  0
   48.6490   33.2020   37.8680 C   0  0  0  0  0  3  0  0  0  0  0  0
  1  4  1  6  0  0  0
  1 10  1  0  0  0  0
  2  1  1  0  0  0  0
  2  5  1  0  0  0  0
  3  7  1  1  0  0  0
  3  2  1  0  0  0  0
  3  1  1  0  0  0  0
  6  2  1  0  0  0  0
  8 14  1  0  0  0  0
  8 13  1  0  0  0  0
  9  8  2  0  0  0  0
 10  9  1  0  0  0  0
 10 11  2  0  0  0  0
 11 12  1  0  0  0  0
 12 15  1  0  0  0  0
 12 13  2  0  0  0  0
 16  9  1  0  0  0  0
 16 17  1  0  0  0  0
 18 16  1  0  0  0  0
 19  3  1  0  0  0  0
 20 19  1  0  0  0  0
 21 19  1  0  0  0  0
 22 19  1  0  0  0  0
 22 23  1  0  0  0  0
 23 24  1  0  0  0  0
 25 23  2  0  0  0  0
 26 25  1  0  0  0  0
 27 26  1  0  0  0  0
 28 30  1  0  0  0  0
 28 26  2  0  0  0  0
 29 28  1  0  0  0  0
 30 22  2  0  0  0  0
M  END
>  <minimizedAffinity>
-4.86411572

>  <minimizedRMSD>
0.666061223

$$$$
