
 OpenBabel03252505503D

 22 23  0  0  0  0  0  0  0  0999 V2000
   44.5910   35.6370   45.0420 C   0  0  0  0  0  0  0  0  0  0  0  0
   45.3610   35.1910   43.9760 C   0  0  0  0  0  0  0  0  0  0  0  0
   46.0650   33.9980   44.1580 C   0  0  0  0  0  0  0  0  0  0  0  0
   45.9690   33.3450   45.3310 N   0  0  0  0  0  0  0  0  0  0  0  0
   45.2090   33.8110   46.3440 C   0  0  0  0  0  0  0  0  0  0  0  0
   44.5200   34.9510   46.2100 N   0  0  0  0  0  0  0  0  0  0  0  0
   44.0190   36.5580   44.9680 H   0  0  0  0  0  0  0  0  0  0  0  0
   46.6510   33.6730   43.3270 H   0  0  0  0  0  0  0  0  0  0  0  0
   45.3680   36.0250   42.7360 C   0  0  0  0  0  0  0  0  0  0  0  0
   45.3050   37.3250   43.1620 F   0  0  0  0  0  0  0  0  0  0  0  0
   44.2440   35.6770   42.0010 F   0  0  0  0  0  0  0  0  0  0  0  0
   46.5230   35.7250   42.0430 F   0  0  0  0  0  0  0  0  0  0  0  0
   45.1110   33.1390   47.5500 O   0  0  0  0  0  0  0  0  0  0  0  0
   46.0440   32.1150   47.7820 C   0  0  0  0  0  0  0  0  0  0  0  0
   45.4970   30.8620   47.5890 C   0  0  0  0  0  0  0  0  0  0  0  0
   44.4780   30.6330   47.2940 H   0  0  0  0  0  0  0  0  0  0  0  0
   46.3150   29.7560   47.7860 C   0  0  0  0  0  0  0  0  0  0  0  0
   47.6410   29.9300   48.1660 C   0  0  0  0  0  0  0  0  0  0  0  0
   48.3320   29.1170   48.3370 H   0  0  0  0  0  0  0  0  0  0  0  0
   48.1530   31.1820   48.3500 C   0  0  0  0  0  0  0  0  0  0  0  0
   49.1690   31.4020   48.6440 H   0  0  0  0  0  0  0  0  0  0  0  0
   47.3520   32.2790   48.1580 C   0  0  0  0  0  0  0  0  0  0  0  0
  1  6  1  0  0  0  0
  2  3  1  0  0  0  0
  2  1  2  0  0  0  0
  3  4  2  0  0  0  0
  4  5  1  0  0  0  0
  5 13  1  0  0  0  0
  6  5  2  0  0  0  0
  7  1  1  0  0  0  0
  8  3  1  0  0  0  0
  9 10  1  0  0  0  0
  9  2  1  0  0  0  0
 11  9  1  0  0  0  0
 12  9  1  0  0  0  0
 13 14  1  0  0  0  0
 14 22  1  0  0  0  0
 15 14  2  0  0  0  0
 15 17  1  0  0  0  0
 16 15  1  0  0  0  0
 17 18  2  0  0  0  0
 18 19  1  0  0  0  0
 18 20  1  0  0  0  0
 20 21  1  0  0  0  0
 22 20  2  0  0  0  0
M  END
>  <minimizedAffinity>
-5.10127544

>  <minimizedRMSD>
1.11732531

$$$$
