
 OpenBabel03252505283D

 24 25  0  0  0  0  0  0  0  0999 V2000
   47.1700   32.6940   48.0010 O   0  0  0  0  0  0  0  0  0  0  0  0
   45.7510   32.5090   47.4540 P   0  0  1  0  0  0  0  0  0  0  0  0
   44.7120   33.7130   47.9880 O   0  0  0  0  0  0  0  0  0  0  0  0
   45.1960   34.5740   47.9370 H   0  0  0  0  0  0  0  0  0  0  0  0
   45.8790   32.4980   45.7690 O   0  0  0  0  0  0  0  0  0  0  0  0
   44.6750   35.6560   44.6600 C   0  0  0  0  0  0  0  0  0  0  0  0
   44.4310   35.4820   43.2830 C   0  0  0  0  0  0  0  0  0  0  0  0
   44.7100   34.2020   42.7620 C   0  0  0  0  0  0  0  0  0  0  0  0
   45.1810   33.2400   43.5860 N   0  0  0  0  0  0  0  0  0  0  0  0
   45.3960   33.4710   44.9090 C   0  0  0  0  0  0  0  0  0  0  0  0
   45.1430   34.6710   45.4310 N   0  0  0  0  0  0  0  0  0  0  0  0
   44.4820   36.6180   45.1220 H   0  0  0  0  0  0  0  0  0  0  0  0
   44.0510   36.3010   42.6780 H   0  0  0  0  0  0  0  0  0  0  0  0
   44.5360   34.0280   41.7080 H   0  0  0  0  0  0  0  0  0  0  0  0
   45.1880   31.0340   48.0530 O   0  0  0  0  0  0  0  0  0  0  0  0
   45.5870   29.8620   47.3880 C   0  0  0  0  0  0  0  0  0  0  0  0
   44.6100   29.2270   46.6540 C   0  0  0  0  0  0  0  0  0  0  0  0
   43.5850   29.6110   46.5900 H   0  0  0  0  0  0  0  0  0  0  0  0
   44.9000   28.0670   45.9630 C   0  0  0  0  0  0  0  0  0  0  0  0
   46.2050   27.6070   46.0640 C   0  0  0  0  0  0  0  0  0  0  0  0
   46.4380   26.6900   45.5180 H   0  0  0  0  0  0  0  0  0  0  0  0
   47.2040   28.2240   46.7920 C   0  0  0  0  0  0  0  0  0  0  0  0
   48.1980   27.8300   46.8390 H   0  0  0  0  0  0  0  0  0  0  0  0
   46.8880   29.3850   47.4760 C   0  0  0  0  0  0  0  0  0  0  0  0
  2  3  1  0  0  0  0
  2  1  2  1  0  0  0
  2 15  1  0  0  0  0
  4  3  1  0  0  0  0
  5  2  1  0  0  0  0
  6 12  1  0  0  0  0
  6 11  1  0  0  0  0
  7  6  2  0  0  0  0
  8  7  1  0  0  0  0
  8  9  2  0  0  0  0
  9 10  1  0  0  0  0
 10 11  2  0  0  0  0
 10  5  1  0  0  0  0
 13  7  1  0  0  0  0
 14  8  1  0  0  0  0
 16 24  1  0  0  0  0
 16 15  1  0  0  0  0
 17 16  2  0  0  0  0
 18 17  1  0  0  0  0
 19 20  2  0  0  0  0
 19 17  1  0  0  0  0
 20 22  1  0  0  0  0
 21 20  1  0  0  0  0
 22 23  1  0  0  0  0
 22 24  2  0  0  0  0
M  END
>  <minimizedAffinity>
-4.44310284

>  <minimizedRMSD>
1.87005138

$$$$
