
 OpenBabel03242523433D

 24 25  0  0  1  0  0  0  0  0999 V2000
   35.9100   29.9690   40.6390 C   0  0  2  0  0  0  0  0  0  0  0  0
   35.4430   30.8160   41.1870 H   0  0  0  0  0  0  0  0  0  0  0  0
   37.1740   29.6870   38.5330 C   0  0  0  0  0  0  0  0  0  0  0  0
   36.6800   30.5280   39.5300 C   0  0  0  0  0  0  0  0  0  0  0  0
   36.9520   31.9170   39.4210 C   0  0  0  0  0  0  0  0  0  0  0  0
   37.6790   32.3330   38.3450 N   0  0  0  0  0  0  0  0  0  0  0  0
   38.1280   31.4810   37.4190 C   0  0  0  0  0  0  0  0  0  0  0  0
   37.8750   30.1710   37.5160 N   0  0  0  0  0  0  0  0  0  0  0  0
   37.0200   28.6160   38.5270 H   0  0  0  0  0  0  0  0  0  0  0  0
   36.5720   32.5720   40.1900 H   0  0  0  0  0  0  0  0  0  0  0  0
   38.6890   32.0200   36.6400 H   0  0  0  0  0  0  0  0  0  0  0  0
   36.7090   29.2060   41.6270 C   0  0  0  0  0  0  0  0  0  0  0  0
   36.3240   27.9250   41.9410 C   0  0  0  0  0  0  0  0  0  0  0  0
   35.4730   27.4080   41.5250 H   0  0  0  0  0  0  0  0  0  0  0  0
   37.0220   27.1530   42.8530 C   0  0  0  0  0  3  0  0  0  0  0  0
   38.1440   27.6860   43.4720 C   0  0  0  0  0  0  0  0  0  0  0  0
   38.6920   27.0830   44.1860 H   0  0  0  0  0  0  0  0  0  0  0  0
   38.5290   28.9660   43.1580 C   0  0  0  0  0  0  0  0  0  0  0  0
   39.4060   29.3380   43.6620 H   0  0  0  0  0  0  0  0  0  0  0  0
   37.8340   29.7310   42.2510 C   0  0  0  0  0  3  0  0  0  0  0  0
   34.7540   29.1780   40.0600 C   0  0  0  0  0  0  0  0  0  0  0  0
   34.8290   29.0940   38.9360 H   0  0  0  0  0  0  0  0  0  0  0  0
   33.7660   29.6630   40.2170 H   0  0  0  0  0  0  0  0  0  0  0  0
   34.6480   28.1660   40.4930 H   0  0  0  0  0  0  0  0  0  0  0  0
  1  2  1  1  0  0  0
  1 12  1  0  0  0  0
  3  4  1  0  0  0  0
  4  1  1  0  0  0  0
  5  4  2  0  0  0  0
  5 10  1  0  0  0  0
  6  5  1  0  0  0  0
  7  8  1  0  0  0  0
  7  6  2  0  0  0  0
  8  3  2  0  0  0  0
  9  3  1  0  0  0  0
 11  7  1  0  0  0  0
 12 13  2  0  0  0  0
 12 20  1  0  0  0  0
 13 15  1  0  0  0  0
 14 13  1  0  0  0  0
 15 16  2  0  0  0  0
 16 17  1  0  0  0  0
 18 16  1  0  0  0  0
 18 19  1  0  0  0  0
 20 18  2  0  0  0  0
 21 23  1  0  0  0  0
 21 24  1  0  0  0  0
 21  1  1  0  0  0  0
 22 21  1  0  0  0  0
M  END
>  <minimizedAffinity>
-4.63764477

$$$$

 OpenBabel03242523433D

 24 25  0  0  1  0  0  0  0  0999 V2000
   35.3980   29.3620   40.4670 C   0  0  2  0  0  0  0  0  0  0  0  0
   34.8670   29.7610   41.3590 H   0  0  0  0  0  0  0  0  0  0  0  0
   36.7570   31.4000   40.7950 C   0  0  0  0  0  0  0  0  0  0  0  0
   36.2400   30.4310   39.9360 C   0  0  0  0  0  0  0  0  0  0  0  0
   36.5640   30.5260   38.5570 C   0  0  0  0  0  0  0  0  0  0  0  0
   37.3590   31.5630   38.1680 N   0  0  0  0  0  0  0  0  0  0  0  0
   37.8260   32.4640   39.0360 C   0  0  0  0  0  0  0  0  0  0  0  0
   37.5260   32.3800   40.3370 N   0  0  0  0  0  0  0  0  0  0  0  0
   36.5690   31.4150   41.8600 H   0  0  0  0  0  0  0  0  0  0  0  0
   36.1660   29.7780   37.8880 H   0  0  0  0  0  0  0  0  0  0  0  0
   38.4450   33.2130   38.5170 H   0  0  0  0  0  0  0  0  0  0  0  0
   36.1340   28.1540   40.9110 C   0  0  0  0  0  0  0  0  0  0  0  0
   36.4480   28.0220   42.2410 C   0  0  0  0  0  0  0  0  0  0  0  0
   36.2020   28.7330   43.0150 H   0  0  0  0  0  0  0  0  0  0  0  0
   37.1320   26.9220   42.7260 C   0  0  0  0  0  3  0  0  0  0  0  0
   37.5160   25.9200   41.8450 C   0  0  0  0  0  0  0  0  0  0  0  0
   38.0520   25.0580   42.2240 H   0  0  0  0  0  0  0  0  0  0  0  0
   37.2020   26.0520   40.5160 C   0  0  0  0  0  0  0  0  0  0  0  0
   37.5190   25.2510   39.8690 H   0  0  0  0  0  0  0  0  0  0  0  0
   36.5210   27.1460   40.0350 C   0  0  0  0  0  3  0  0  0  0  0  0
   34.3130   29.0660   39.4510 C   0  0  0  0  0  0  0  0  0  0  0  0
   34.4800   29.6310   38.4880 H   0  0  0  0  0  0  0  0  0  0  0  0
   33.3040   29.4010   39.7750 H   0  0  0  0  0  0  0  0  0  0  0  0
   34.1990   27.9900   39.2260 H   0  0  0  0  0  0  0  0  0  0  0  0
  1 12  1  0  0  0  0
  1  2  1  1  0  0  0
  3  9  1  0  0  0  0
  4  1  1  0  0  0  0
  4  3  2  0  0  0  0
  5  4  1  0  0  0  0
  6  5  2  0  0  0  0
  6  7  1  0  0  0  0
  7  8  2  0  0  0  0
  8  3  1  0  0  0  0
 10  5  1  0  0  0  0
 11  7  1  0  0  0  0
 12 13  1  0  0  0  0
 13 15  2  0  0  0  0
 13 14  1  0  0  0  0
 16 17  1  0  0  0  0
 16 15  1  0  0  0  0
 18 16  2  0  0  0  0
 19 18  1  0  0  0  0
 20 18  1  0  0  0  0
 20 12  2  0  0  0  0
 21 23  1  0  0  0  0
 21  1  1  0  0  0  0
 22 21  1  0  0  0  0
 24 21  1  0  0  0  0
M  END
>  <minimizedAffinity>
-4.62405586

$$$$

 OpenBabel03242523433D

 24 25  0  0  1  0  0  0  0  0999 V2000
   35.4070   29.3420   40.3590 C   0  0  2  0  0  0  0  0  0  0  0  0
   34.7900   29.7350   41.1960 H   0  0  0  0  0  0  0  0  0  0  0  0
   36.5480   30.5690   38.5410 C   0  0  0  0  0  0  0  0  0  0  0  0
   36.2760   30.4240   39.9010 C   0  0  0  0  0  0  0  0  0  0  0  0
   36.8660   31.3530   40.7980 C   0  0  0  0  0  0  0  0  0  0  0  0
   37.6600   32.3250   40.2640 N   0  0  0  0  0  0  0  0  0  0  0  0
   37.8860   32.4150   38.9510 C   0  0  0  0  0  0  0  0  0  0  0  0
   37.3330   31.5430   38.1000 N   0  0  0  0  0  0  0  0  0  0  0  0
   36.1460   29.9130   37.7790 H   0  0  0  0  0  0  0  0  0  0  0  0
   36.6590   31.2450   41.8510 H   0  0  0  0  0  0  0  0  0  0  0  0
   38.5500   33.2660   38.7330 H   0  0  0  0  0  0  0  0  0  0  0  0
   36.1200   28.1490   40.8730 C   0  0  0  0  0  0  0  0  0  0  0  0
   36.5010   27.1720   39.9870 C   0  0  0  0  0  0  0  0  0  0  0  0
   36.3250   27.1920   38.9220 H   0  0  0  0  0  0  0  0  0  0  0  0
   37.1710   26.0320   40.3950 C   0  0  0  0  0  3  0  0  0  0  0  0
   37.4670   25.8680   41.7410 C   0  0  0  0  0  0  0  0  0  0  0  0
   37.9910   24.9750   42.0630 H   0  0  0  0  0  0  0  0  0  0  0  0
   37.0870   26.8440   42.6270 C   0  0  0  0  0  0  0  0  0  0  0  0
   37.3380   26.6740   43.6610 H   0  0  0  0  0  0  0  0  0  0  0  0
   36.4220   27.9760   42.2190 C   0  0  0  0  0  3  0  0  0  0  0  0
   34.4250   29.0230   39.2490 C   0  0  0  0  0  0  0  0  0  0  0  0
   34.6690   29.5870   38.3020 H   0  0  0  0  0  0  0  0  0  0  0  0
   33.3840   29.3420   39.4780 H   0  0  0  0  0  0  0  0  0  0  0  0
   34.3500   27.9440   39.0200 H   0  0  0  0  0  0  0  0  0  0  0  0
  1 12  1  0  0  0  0
  1  2  1  1  0  0  0
  3  4  1  0  0  0  0
  4  1  1  0  0  0  0
  4  5  2  0  0  0  0
  5 10  1  0  0  0  0
  6  5  1  0  0  0  0
  7  6  2  0  0  0  0
  8  3  2  0  0  0  0
  8  7  1  0  0  0  0
  9  3  1  0  0  0  0
 11  7  1  0  0  0  0
 12 20  1  0  0  0  0
 13 15  1  0  0  0  0
 13 12  2  0  0  0  0
 14 13  1  0  0  0  0
 15 16  2  0  0  0  0
 16 17  1  0  0  0  0
 16 18  1  0  0  0  0
 18 19  1  0  0  0  0
 20 18  2  0  0  0  0
 21 23  1  0  0  0  0
 21  1  1  0  0  0  0
 22 21  1  0  0  0  0
 24 21  1  0  0  0  0
M  END
>  <minimizedAffinity>
-4.55261421

$$$$

 OpenBabel03242523433D

 24 25  0  0  1  0  0  0  0  0999 V2000
   36.1530   30.3480   40.8810 C   0  0  2  0  0  0  0  0  0  0  0  0
   35.2590   30.6200   41.4830 H   0  0  0  0  0  0  0  0  0  0  0  0
   36.4900   28.1440   41.9490 C   0  0  0  0  0  0  0  0  0  0  0  0
   36.9620   29.4270   41.6770 C   0  0  0  0  0  0  0  0  0  0  0  0
   38.2340   29.7900   42.1950 C   0  0  0  0  0  0  0  0  0  0  0  0
   38.9060   28.8540   42.9240 N   0  0  0  0  0  0  0  0  0  0  0  0
   38.4040   27.6370   43.1530 C   0  0  0  0  0  0  0  0  0  0  0  0
   37.2070   27.2890   42.6680 N   0  0  0  0  0  0  0  0  0  0  0  0
   35.5350   27.7730   41.5990 H   0  0  0  0  0  0  0  0  0  0  0  0
   38.6040   30.7820   41.9870 H   0  0  0  0  0  0  0  0  0  0  0  0
   39.1030   27.0410   43.7590 H   0  0  0  0  0  0  0  0  0  0  0  0
   35.6560   29.7880   39.6020 C   0  0  0  0  0  0  0  0  0  0  0  0
   36.4720   29.8330   38.4980 C   0  0  0  0  0  0  0  0  0  0  0  0
   37.4680   30.2480   38.4740 H   0  0  0  0  0  0  0  0  0  0  0  0
   36.0750   29.3290   37.2720 C   0  0  0  0  0  3  0  0  0  0  0  0
   34.8140   28.7620   37.1500 C   0  0  0  0  0  0  0  0  0  0  0  0
   34.5010   28.3680   36.1900 H   0  0  0  0  0  0  0  0  0  0  0  0
   33.9980   28.7170   38.2530 C   0  0  0  0  0  0  0  0  0  0  0  0
   33.0290   28.2680   38.1110 H   0  0  0  0  0  0  0  0  0  0  0  0
   34.3950   29.2180   39.4700 C   0  0  0  0  0  3  0  0  0  0  0  0
   36.9330   31.6360   40.7110 C   0  0  0  0  0  0  0  0  0  0  0  0
   37.9840   31.5430   41.1130 H   0  0  0  0  0  0  0  0  0  0  0  0
   36.5090   32.4860   41.2900 H   0  0  0  0  0  0  0  0  0  0  0  0
   36.9750   31.9940   39.6660 H   0  0  0  0  0  0  0  0  0  0  0  0
  1  2  1  1  0  0  0
  1  4  1  0  0  0  0
  3  8  1  0  0  0  0
  4  3  2  0  0  0  0
  4  5  1  0  0  0  0
  5  6  2  0  0  0  0
  6  7  1  0  0  0  0
  7 11  1  0  0  0  0
  8  7  2  0  0  0  0
  9  3  1  0  0  0  0
 10  5  1  0  0  0  0
 12  1  1  0  0  0  0
 13 12  2  0  0  0  0
 14 13  1  0  0  0  0
 15 13  1  0  0  0  0
 16 15  2  0  0  0  0
 16 18  1  0  0  0  0
 17 16  1  0  0  0  0
 18 20  2  0  0  0  0
 19 18  1  0  0  0  0
 20 12  1  0  0  0  0
 21  1  1  0  0  0  0
 21 22  1  0  0  0  0
 21 23  1  0  0  0  0
 24 21  1  0  0  0  0
M  END
>  <minimizedAffinity>
-4.40389681

$$$$

 OpenBabel03242523433D

 24 25  0  0  1  0  0  0  0  0999 V2000
   37.3410   27.5970   42.6810 C   0  0  2  0  0  0  0  0  0  0  0  0
   38.2270   27.8830   43.2890 H   0  0  0  0  0  0  0  0  0  0  0  0
   35.8440   28.6920   41.0460 C   0  0  0  0  0  0  0  0  0  0  0  0
   36.9770   28.7480   41.8580 C   0  0  0  0  0  0  0  0  0  0  0  0
   37.7400   29.9450   41.8490 C   0  0  0  0  0  0  0  0  0  0  0  0
   37.3100   30.9590   41.0450 N   0  0  0  0  0  0  0  0  0  0  0  0
   36.2160   30.8490   40.2870 C   0  0  0  0  0  0  0  0  0  0  0  0
   35.4920   29.7240   40.2910 N   0  0  0  0  0  0  0  0  0  0  0  0
   35.1980   27.8260   40.9830 H   0  0  0  0  0  0  0  0  0  0  0  0
   38.6170   29.9940   42.4750 H   0  0  0  0  0  0  0  0  0  0  0  0
   36.0470   31.7770   39.7180 H   0  0  0  0  0  0  0  0  0  0  0  0
   37.7180   26.3830   41.9180 C   0  0  0  0  0  0  0  0  0  0  0  0
   36.9890   25.2340   42.1010 C   0  0  0  0  0  0  0  0  0  0  0  0
   36.1450   25.1280   42.7660 H   0  0  0  0  0  0  0  0  0  0  0  0
   37.2820   24.0640   41.4230 C   0  0  0  0  0  3  0  0  0  0  0  0
   38.3450   24.0480   40.5300 C   0  0  0  0  0  0  0  0  0  0  0  0
   38.5760   23.1320   39.9980 H   0  0  0  0  0  0  0  0  0  0  0  0
   39.0730   25.1960   40.3460 C   0  0  0  0  0  0  0  0  0  0  0  0
   39.8880   25.1380   39.6440 H   0  0  0  0  0  0  0  0  0  0  0  0
   38.7800   26.3580   41.0220 C   0  0  0  0  0  3  0  0  0  0  0  0
   36.2250   27.3580   43.6790 C   0  0  0  0  0  0  0  0  0  0  0  0
   35.3350   28.0220   43.4750 H   0  0  0  0  0  0  0  0  0  0  0  0
   36.5070   27.6170   44.7230 H   0  0  0  0  0  0  0  0  0  0  0  0
   35.8900   26.3060   43.7250 H   0  0  0  0  0  0  0  0  0  0  0  0
  1  2  1  1  0  0  0
  1 21  1  0  0  0  0
  3  4  1  0  0  0  0
  4  1  1  0  0  0  0
  5  4  2  0  0  0  0
  5 10  1  0  0  0  0
  6  5  1  0  0  0  0
  7  8  1  0  0  0  0
  7  6  2  0  0  0  0
  8  3  2  0  0  0  0
  9  3  1  0  0  0  0
 11  7  1  0  0  0  0
 12 13  1  0  0  0  0
 12  1  1  0  0  0  0
 13 14  1  0  0  0  0
 15 13  2  0  0  0  0
 16 15  1  0  0  0  0
 17 16  1  0  0  0  0
 18 16  2  0  0  0  0
 18 20  1  0  0  0  0
 19 18  1  0  0  0  0
 20 12  2  0  0  0  0
 21 24  1  0  0  0  0
 21 23  1  0  0  0  0
 22 21  1  0  0  0  0
M  END
>  <minimizedAffinity>
-4.35778427

$$$$

 OpenBabel03242523433D

 24 25  0  0  1  0  0  0  0  0999 V2000
   37.1480   27.2070   42.6350 C   0  0  2  0  0  0  0  0  0  0  0  0
   36.2400   26.9140   43.2050 H   0  0  0  0  0  0  0  0  0  0  0  0
   36.9290   24.8230   42.0160 C   0  0  0  0  0  0  0  0  0  0  0  0
   37.5710   26.0500   41.8480 C   0  0  0  0  0  0  0  0  0  0  0  0
   38.6260   26.1220   40.9010 C   0  0  0  0  0  0  0  0  0  0  0  0
   38.9380   24.9830   40.2200 N   0  0  0  0  0  0  0  0  0  0  0  0
   38.2880   23.8330   40.4220 C   0  0  0  0  0  0  0  0  0  0  0  0
   37.2930   23.7590   41.3140 N   0  0  0  0  0  0  0  0  0  0  0  0
   36.1150   24.6670   42.7120 H   0  0  0  0  0  0  0  0  0  0  0  0
   39.1260   27.0690   40.7670 H   0  0  0  0  0  0  0  0  0  0  0  0
   38.6950   23.0420   39.7740 H   0  0  0  0  0  0  0  0  0  0  0  0
   36.7870   28.4020   41.8350 C   0  0  0  0  0  0  0  0  0  0  0  0
   37.5200   29.5520   41.9950 C   0  0  0  0  0  0  0  0  0  0  0  0
   38.3580   29.6700   42.6660 H   0  0  0  0  0  0  0  0  0  0  0  0
   37.2420   30.7040   41.2820 C   0  0  0  0  0  3  0  0  0  0  0  0
   36.1890   30.7020   40.3780 C   0  0  0  0  0  0  0  0  0  0  0  0
   35.9690   31.6040   39.8180 H   0  0  0  0  0  0  0  0  0  0  0  0
   35.4560   29.5530   40.2170 C   0  0  0  0  0  0  0  0  0  0  0  0
   34.6490   29.5970   39.5050 H   0  0  0  0  0  0  0  0  0  0  0  0
   35.7350   28.4090   40.9270 C   0  0  0  0  0  3  0  0  0  0  0  0
   38.2110   27.4820   43.6800 C   0  0  0  0  0  0  0  0  0  0  0  0
   39.1210   26.8310   43.5290 H   0  0  0  0  0  0  0  0  0  0  0  0
   37.8850   27.2340   44.7130 H   0  0  0  0  0  0  0  0  0  0  0  0
   38.5260   28.5400   43.7240 H   0  0  0  0  0  0  0  0  0  0  0  0
  1  2  1  1  0  0  0
  1 21  1  0  0  0  0
  3  9  1  0  0  0  0
  4  3  1  0  0  0  0
  4  1  1  0  0  0  0
  5  4  2  0  0  0  0
  6  7  2  0  0  0  0
  6  5  1  0  0  0  0
  7  8  1  0  0  0  0
  8  3  2  0  0  0  0
 10  5  1  0  0  0  0
 11  7  1  0  0  0  0
 12 13  1  0  0  0  0
 12  1  1  0  0  0  0
 13 14  1  0  0  0  0
 15 13  2  0  0  0  0
 16 15  1  0  0  0  0
 17 16  1  0  0  0  0
 18 16  2  0  0  0  0
 18 20  1  0  0  0  0
 19 18  1  0  0  0  0
 20 12  2  0  0  0  0
 21 24  1  0  0  0  0
 21 23  1  0  0  0  0
 22 21  1  0  0  0  0
M  END
>  <minimizedAffinity>
-4.35606623

$$$$

 OpenBabel03242523433D

 24 25  0  0  1  0  0  0  0  0999 V2000
   36.6370   27.5210   42.4290 C   0  0  2  0  0  0  0  0  0  0  0  0
   35.6180   27.1720   42.7050 H   0  0  0  0  0  0  0  0  0  0  0  0
   38.8020   26.4840   41.8370 C   0  0  0  0  0  0  0  0  0  0  0  0
   37.4480   26.3410   42.1370 C   0  0  0  0  0  0  0  0  0  0  0  0
   36.9060   25.0280   42.1480 C   0  0  0  0  0  0  0  0  0  0  0  0
   37.7510   23.9970   41.8620 N   0  0  0  0  0  0  0  0  0  0  0  0
   39.0420   24.1930   41.5810 C   0  0  0  0  0  0  0  0  0  0  0  0
   39.5590   25.4280   41.5700 N   0  0  0  0  0  0  0  0  0  0  0  0
   39.3070   27.4400   41.8040 H   0  0  0  0  0  0  0  0  0  0  0  0
   35.8580   24.9120   42.3790 H   0  0  0  0  0  0  0  0  0  0  0  0
   39.5420   23.2330   41.3820 H   0  0  0  0  0  0  0  0  0  0  0  0
   36.4770   28.4600   41.2930 C   0  0  0  0  0  0  0  0  0  0  0  0
   36.8080   29.7800   41.4740 C   0  0  0  0  0  0  0  0  0  0  0  0
   37.1840   30.2100   42.3900 H   0  0  0  0  0  0  0  0  0  0  0  0
   36.6860   30.7130   40.4590 C   0  0  0  0  0  3  0  0  0  0  0  0
   36.2130   30.3050   39.2200 C   0  0  0  0  0  0  0  0  0  0  0  0
   36.1160   31.0340   38.4230 H   0  0  0  0  0  0  0  0  0  0  0  0
   35.8830   28.9850   39.0380 C   0  0  0  0  0  0  0  0  0  0  0  0
   35.5210   28.7140   38.0600 H   0  0  0  0  0  0  0  0  0  0  0  0
   36.0060   28.0600   40.0480 C   0  0  0  0  0  3  0  0  0  0  0  0
   37.1910   28.1770   43.6780 C   0  0  0  0  0  0  0  0  0  0  0  0
   38.1550   27.6930   44.0100 H   0  0  0  0  0  0  0  0  0  0  0  0
   36.5280   28.0660   44.5640 H   0  0  0  0  0  0  0  0  0  0  0  0
   37.3490   29.2660   43.5740 H   0  0  0  0  0  0  0  0  0  0  0  0
  1  2  1  1  0  0  0
  1 21  1  0  0  0  0
  3  4  1  0  0  0  0
  4  5  2  0  0  0  0
  4  1  1  0  0  0  0
  5 10  1  0  0  0  0
  6  5  1  0  0  0  0
  7  6  2  0  0  0  0
  8  7  1  0  0  0  0
  8  3  2  0  0  0  0
  9  3  1  0  0  0  0
 11  7  1  0  0  0  0
 12 13  1  0  0  0  0
 12  1  1  0  0  0  0
 13 14  1  0  0  0  0
 15 13  2  0  0  0  0
 16 15  1  0  0  0  0
 17 16  1  0  0  0  0
 18 16  2  0  0  0  0
 18 20  1  0  0  0  0
 19 18  1  0  0  0  0
 20 12  2  0  0  0  0
 21 22  1  0  0  0  0
 21 23  1  0  0  0  0
 24 21  1  0  0  0  0
M  END
>  <minimizedAffinity>
-4.35336494

$$$$

 OpenBabel03242523433D

 24 25  0  0  1  0  0  0  0  0999 V2000
   37.5240   28.4610   43.0950 C   0  0  2  0  0  0  0  0  0  0  0  0
   37.4400   29.3680   43.7330 H   0  0  0  0  0  0  0  0  0  0  0  0
   36.9890   27.8420   40.7620 C   0  0  0  0  0  0  0  0  0  0  0  0
   37.0640   28.8180   41.7540 C   0  0  0  0  0  0  0  0  0  0  0  0
   36.6820   30.1420   41.4120 C   0  0  0  0  0  0  0  0  0  0  0  0
   36.2670   30.3660   40.1330 N   0  0  0  0  0  0  0  0  0  0  0  0
   36.2150   29.3900   39.2220 C   0  0  0  0  0  0  0  0  0  0  0  0
   36.5740   28.1400   39.5380 N   0  0  0  0  0  0  0  0  0  0  0  0
   37.2570   26.8050   40.9240 H   0  0  0  0  0  0  0  0  0  0  0  0
   36.7390   30.9020   42.1770 H   0  0  0  0  0  0  0  0  0  0  0  0
   35.8550   29.7820   38.2580 H   0  0  0  0  0  0  0  0  0  0  0  0
   38.9350   28.0130   43.1680 C   0  0  0  0  0  0  0  0  0  0  0  0
   39.2010   26.7330   43.5880 C   0  0  0  0  0  0  0  0  0  0  0  0
   38.4600   26.0030   43.8770 H   0  0  0  0  0  0  0  0  0  0  0  0
   40.4930   26.2460   43.6800 C   0  0  0  0  0  3  0  0  0  0  0  0
   41.5540   27.0730   43.3390 C   0  0  0  0  0  0  0  0  0  0  0  0
   42.5670   26.6930   43.4110 H   0  0  0  0  0  0  0  0  0  0  0  0
   41.2880   28.3520   42.9190 C   0  0  0  0  0  0  0  0  0  0  0  0
   42.1420   28.9580   42.6640 H   0  0  0  0  0  0  0  0  0  0  0  0
   40.0030   28.8340   42.8280 C   0  0  0  0  0  3  0  0  0  0  0  0
   36.5440   27.4630   43.6800 C   0  0  0  0  0  0  0  0  0  0  0  0
   35.7810   27.1330   42.9170 H   0  0  0  0  0  0  0  0  0  0  0  0
   35.9240   27.8850   44.5000 H   0  0  0  0  0  0  0  0  0  0  0  0
   37.0290   26.5710   44.1170 H   0  0  0  0  0  0  0  0  0  0  0  0
  1 12  1  0  0  0  0
  1 21  1  0  0  0  0
  1  2  1  1  0  0  0
  3  9  1  0  0  0  0
  3  4  1  0  0  0  0
  4  1  1  0  0  0  0
  5  4  2  0  0  0  0
  5 10  1  0  0  0  0
  6  5  1  0  0  0  0
  7  8  1  0  0  0  0
  7  6  2  0  0  0  0
  8  3  2  0  0  0  0
 11  7  1  0  0  0  0
 12 13  1  0  0  0  0
 13 15  2  0  0  0  0
 13 14  1  0  0  0  0
 16 17  1  0  0  0  0
 16 15  1  0  0  0  0
 18 16  2  0  0  0  0
 19 18  1  0  0  0  0
 20 18  1  0  0  0  0
 20 12  2  0  0  0  0
 21 24  1  0  0  0  0
 21 23  1  0  0  0  0
 22 21  1  0  0  0  0
M  END
>  <minimizedAffinity>
-4.34886599

$$$$

 OpenBabel03242523433D

 24 25  0  0  1  0  0  0  0  0999 V2000
   36.4110   30.2770   40.7640 C   0  0  2  0  0  0  0  0  0  0  0  0
   35.8390   31.0290   41.3500 H   0  0  0  0  0  0  0  0  0  0  0  0
   37.7210   32.3250   40.3130 C   0  0  0  0  0  0  0  0  0  0  0  0
   37.4480   30.9900   40.0200 C   0  0  0  0  0  0  0  0  0  0  0  0
   38.2070   30.3680   38.9930 C   0  0  0  0  0  0  0  0  0  0  0  0
   39.1510   31.1240   38.3640 N   0  0  0  0  0  0  0  0  0  0  0  0
   39.3690   32.4020   38.6860 C   0  0  0  0  0  0  0  0  0  0  0  0
   38.6580   32.9930   39.6530 N   0  0  0  0  0  0  0  0  0  0  0  0
   37.1990   32.8870   41.0770 H   0  0  0  0  0  0  0  0  0  0  0  0
   38.0000   29.3340   38.7620 H   0  0  0  0  0  0  0  0  0  0  0  0
   40.1700   32.8250   38.0600 H   0  0  0  0  0  0  0  0  0  0  0  0
   36.9190   29.2750   41.7300 C   0  0  0  0  0  0  0  0  0  0  0  0
   36.3450   28.0280   41.7530 C   0  0  0  0  0  0  0  0  0  0  0  0
   35.5380   27.7000   41.1160 H   0  0  0  0  0  0  0  0  0  0  0  0
   36.7680   27.0420   42.6270 C   0  0  0  0  0  3  0  0  0  0  0  0
   37.8020   27.3190   43.5100 C   0  0  0  0  0  0  0  0  0  0  0  0
   38.1340   26.5480   44.1960 H   0  0  0  0  0  0  0  0  0  0  0  0
   38.3760   28.5660   43.4880 C   0  0  0  0  0  0  0  0  0  0  0  0
   39.1750   28.7360   44.1900 H   0  0  0  0  0  0  0  0  0  0  0  0
   37.9540   29.5440   42.6180 C   0  0  0  0  0  3  0  0  0  0  0  0
   35.4240   29.7050   39.7660 C   0  0  0  0  0  0  0  0  0  0  0  0
   35.7780   29.8430   38.7030 H   0  0  0  0  0  0  0  0  0  0  0  0
   34.4390   30.2200   39.7790 H   0  0  0  0  0  0  0  0  0  0  0  0
   35.1910   28.6380   39.9360 H   0  0  0  0  0  0  0  0  0  0  0  0
  1  2  1  1  0  0  0
  1 12  1  0  0  0  0
  3  9  1  0  0  0  0
  4  3  1  0  0  0  0
  4  1  1  0  0  0  0
  5  4  2  0  0  0  0
  6  7  2  0  0  0  0
  6  5  1  0  0  0  0
  7  8  1  0  0  0  0
  8  3  2  0  0  0  0
 10  5  1  0  0  0  0
 11  7  1  0  0  0  0
 12 13  2  0  0  0  0
 12 20  1  0  0  0  0
 13 15  1  0  0  0  0
 14 13  1  0  0  0  0
 15 16  2  0  0  0  0
 16 17  1  0  0  0  0
 18 16  1  0  0  0  0
 18 19  1  0  0  0  0
 20 18  2  0  0  0  0
 21 23  1  0  0  0  0
 21 24  1  0  0  0  0
 21  1  1  0  0  0  0
 22 21  1  0  0  0  0
M  END
>  <minimizedAffinity>
-4.25399876

$$$$
