
 OpenBabel03242523433D

 24 25  0  0  1  0  0  0  0  0999 V2000
   47.8270   35.1980   41.7240 C   0  0  2  0  0  0  0  0  0  0  0  0
   47.7140   36.2880   41.5370 H   0  0  0  0  0  0  0  0  0  0  0  0
   45.7770   35.5600   43.0580 C   0  0  0  0  0  0  0  0  0  0  0  0
   46.9560   34.8460   42.8430 C   0  0  0  0  0  0  0  0  0  0  0  0
   47.2620   33.7870   43.7380 C   0  0  0  0  0  0  0  0  0  0  0  0
   46.3800   33.5420   44.7480 N   0  0  0  0  0  0  0  0  0  0  0  0
   45.2640   34.2600   44.9060 C   0  0  0  0  0  0  0  0  0  0  0  0
   44.9690   35.2590   44.0660 N   0  0  0  0  0  0  0  0  0  0  0  0
   45.4560   36.3830   42.4330 H   0  0  0  0  0  0  0  0  0  0  0  0
   48.1730   33.2310   43.5760 H   0  0  0  0  0  0  0  0  0  0  0  0
   44.6950   33.9000   45.7770 H   0  0  0  0  0  0  0  0  0  0  0  0
   47.5100   34.5090   40.4510 C   0  0  0  0  0  0  0  0  0  0  0  0
   48.3540   34.6740   39.3810 C   0  0  0  0  0  0  0  0  0  0  0  0
   49.2510   35.2750   39.3790 H   0  0  0  0  0  0  0  0  0  0  0  0
   48.1220   34.0610   38.1620 C   0  0  0  0  0  0  0  0  0  0  0  0
   47.0020   33.2550   38.0130 C   0  0  0  0  0  0  0  0  0  0  0  0
   46.8190   32.7740   37.0590 H   0  0  0  0  0  0  0  0  0  0  0  0
   46.1590   33.0890   39.0830 C   0  0  0  0  0  0  0  0  0  0  0  0
   45.3030   32.4540   38.9210 H   0  0  0  0  0  0  0  0  0  0  0  0
   46.3910   33.6990   40.2930 C   0  0  0  0  0  0  0  0  0  0  0  0
   49.2650   35.0110   42.1670 C   0  0  0  0  0  0  0  0  0  0  0  0
   49.3260   34.5300   43.1870 H   0  0  0  0  0  0  0  0  0  0  0  0
   49.8110   35.9700   42.3010 H   0  0  0  0  0  0  0  0  0  0  0  0
   49.8760   34.4300   41.4540 H   0  0  0  0  0  0  0  0  0  0  0  0
  1  2  1  6  0  0  0
  1 21  1  0  0  0  0
  1  4  1  0  0  0  0
  3  8  1  0  0  0  0
  4  3  2  0  0  0  0
  4  5  1  0  0  0  0
  5  6  2  0  0  0  0
  6  7  1  0  0  0  0
  7 11  1  0  0  0  0
  8  7  2  0  0  0  0
  9  3  1  0  0  0  0
 10  5  1  0  0  0  0
 12  1  1  0  0  0  0
 13 12  2  0  0  0  0
 14 13  1  0  0  0  0
 15 13  1  0  0  0  0
 16 15  2  0  0  0  0
 16 18  1  0  0  0  0
 17 16  1  0  0  0  0
 18 20  2  0  0  0  0
 19 18  1  0  0  0  0
 20 12  1  0  0  0  0
 21 23  1  0  0  0  0
 21 22  1  0  0  0  0
 24 21  1  0  0  0  0
M  END
>  <minimizedAffinity>
-4.61109304

>  <minimizedRMSD>
1.65276337

$$$$
