
 OpenBabel03252506353D

 33 35  0  0  1  0  0  0  0  0999 V2000
   44.5090   35.5340   45.0980 C   0  0  0  0  0  0  0  0  0  0  0  0
   45.1710   35.5080   43.8650 C   0  0  0  0  0  0  0  0  0  0  0  0
   46.0910   34.5340   43.6450 C   0  0  0  0  0  0  0  0  0  0  0  0
   46.3250   33.6360   44.6270 N   0  0  0  0  0  0  0  0  0  0  0  0
   45.6860   33.6710   45.8030 C   0  0  0  0  0  0  0  0  0  0  0  0
   44.7750   34.6090   46.0600 N   0  0  0  0  0  0  0  0  0  0  0  0
   45.9990   32.6890   46.7850 N   0  0  0  0  0  0  0  0  0  0  0  0
   45.2090   32.3970   47.9660 C   0  0  0  0  0  0  0  0  0  0  0  0
   46.2980   32.1380   48.9990 C   0  0  0  0  0  0  0  0  0  0  0  0
   47.6000   31.9990   48.2470 C   0  0  0  0  0  0  0  0  0  0  0  0
   47.1410   31.7970   46.8160 C   0  0  1  0  0  0  0  0  0  0  0  0
   43.7630   36.2930   45.3240 H   0  0  0  0  0  0  0  0  0  0  0  0
   46.5790   34.5330   42.7070 H   0  0  0  0  0  0  0  0  0  0  0  0
   44.5710   31.5000   47.8490 H   0  0  0  0  0  0  0  0  0  0  0  0
   44.5500   33.2530   48.2500 H   0  0  0  0  0  0  0  0  0  0  0  0
   46.0870   31.3030   49.6680 H   0  0  0  0  0  0  0  0  0  0  0  0
   46.3610   33.0690   49.6070 H   0  0  0  0  0  0  0  0  0  0  0  0
   48.0890   31.0590   48.5790 H   0  0  0  0  0  0  0  0  0  0  0  0
   48.2590   32.8630   48.3840 H   0  0  0  0  0  0  0  0  0  0  0  0
   47.8760   32.1230   46.0770 H   0  0  0  0  0  0  0  0  0  0  0  0
   44.7870   36.5480   42.9620 N   0  0  0  0  0  0  0  0  0  0  0  0
   44.5060   37.4910   43.3120 H   0  0  0  0  0  0  0  0  0  0  0  0
   44.7860   36.3640   41.9180 H   0  0  0  0  0  0  0  0  0  0  0  0
   46.6550   30.0690   46.6270 S   0  0  0  0  0  0  0  0  0  0  0  0
   45.4550   29.8520   45.3210 C   0  0  0  0  0  0  0  0  0  0  0  0
   44.4090   28.9970   45.6920 C   0  0  0  0  0  0  0  0  0  0  0  0
   44.3090   28.5040   46.6620 H   0  0  0  0  0  0  0  0  0  0  0  0
   43.3890   28.7120   44.8100 C   0  0  0  0  0  0  0  0  0  0  0  0
   43.4040   29.2760   43.5520 C   0  0  0  0  0  0  0  0  0  0  0  0
   42.6120   29.0680   42.8330 H   0  0  0  0  0  0  0  0  0  0  0  0
   44.4440   30.1250   43.1820 C   0  0  0  0  0  0  0  0  0  0  0  0
   44.4890   30.5850   42.2060 H   0  0  0  0  0  0  0  0  0  0  0  0
   45.4680   30.4150   44.0600 C   0  0  0  0  0  0  0  0  0  0  0  0
  1 12  1  0  0  0  0
  1  6  1  0  0  0  0
  2  1  2  0  0  0  0
  3  2  1  0  0  0  0
  3  4  2  0  0  0  0
  4  5  1  0  0  0  0
  5  6  2  0  0  0  0
  5  7  1  0  0  0  0
  7 11  1  0  0  0  0
  7  8  1  0  0  0  0
  8 15  1  0  0  0  0
  8  9  1  0  0  0  0
  9 17  1  0  0  0  0
  9 16  1  0  0  0  0
 10 19  1  0  0  0  0
 10 18  1  0  0  0  0
 10  9  1  0  0  0  0
 11 20  1  6  0  0  0
 11 10  1  0  0  0  0
 13  3  1  0  0  0  0
 14  8  1  0  0  0  0
 21 22  1  0  0  0  0
 21  2  1  0  0  0  0
 23 21  1  0  0  0  0
 24 11  1  0  0  0  0
 25 26  1  0  0  0  0
 25 24  1  0  0  0  0
 26 27  1  0  0  0  0
 28 26  2  0  0  0  0
 29 28  1  0  0  0  0
 30 29  1  0  0  0  0
 31 29  2  0  0  0  0
 31 33  1  0  0  0  0
 32 31  1  0  0  0  0
 33 25  2  0  0  0  0
M  END
>  <minimizedAffinity>
-5.19264746

>  <minimizedRMSD>
0.737074912

$$$$
