
 OpenBabel03252506353D

 33 35  0  0  1  0  0  0  0  0999 V2000
   44.4800   35.7420   44.9900 C   0  0  0  0  0  0  0  0  0  0  0  0
   45.1340   35.7080   43.7520 C   0  0  0  0  0  0  0  0  0  0  0  0
   46.0300   34.7140   43.5210 C   0  0  0  0  0  0  0  0  0  0  0  0
   46.2490   33.8050   44.4960 N   0  0  0  0  0  0  0  0  0  0  0  0
   45.6180   33.8480   45.6760 C   0  0  0  0  0  0  0  0  0  0  0  0
   44.7300   34.8060   45.9440 N   0  0  0  0  0  0  0  0  0  0  0  0
   45.9140   32.8530   46.6510 N   0  0  0  0  0  0  0  0  0  0  0  0
   45.1250   32.5730   47.8350 C   0  0  0  0  0  0  0  0  0  0  0  0
   46.2130   32.2830   48.8600 C   0  0  0  0  0  0  0  0  0  0  0  0
   47.5060   32.1180   48.0990 C   0  0  0  0  0  0  0  0  0  0  0  0
   47.0340   31.9350   46.6700 C   0  0  1  0  0  0  0  0  0  0  0  0
   43.7540   36.5170   45.2250 H   0  0  0  0  0  0  0  0  0  0  0  0
   46.5120   34.7080   42.5800 H   0  0  0  0  0  0  0  0  0  0  0  0
   44.4650   31.6920   47.7160 H   0  0  0  0  0  0  0  0  0  0  0  0
   44.4860   33.4430   48.1280 H   0  0  0  0  0  0  0  0  0  0  0  0
   45.9860   31.4480   49.5250 H   0  0  0  0  0  0  0  0  0  0  0  0
   46.3010   33.2080   49.4730 H   0  0  0  0  0  0  0  0  0  0  0  0
   47.9760   31.1650   48.4220 H   0  0  0  0  0  0  0  0  0  0  0  0
   48.1870   32.9650   48.2370 H   0  0  0  0  0  0  0  0  0  0  0  0
   47.7730   32.2480   45.9280 H   0  0  0  0  0  0  0  0  0  0  0  0
   44.7690   36.7620   42.8580 N   0  0  0  0  0  0  0  0  0  0  0  0
   44.5120   37.7090   43.2150 H   0  0  0  0  0  0  0  0  0  0  0  0
   44.7570   36.5850   41.8130 H   0  0  0  0  0  0  0  0  0  0  0  0
   46.5070   30.2200   46.4740 S   0  0  0  0  0  0  0  0  0  0  0  0
   47.6290   29.2910   45.4400 C   0  0  0  0  0  0  0  0  0  0  0  0
   48.3300   30.1060   44.5440 C   0  0  0  0  0  0  0  0  0  0  0  0
   48.2270   31.1900   44.4600 H   0  0  0  0  0  0  0  0  0  0  0  0
   49.2440   29.5600   43.6660 C   0  0  0  0  0  3  0  0  0  0  0  0
   49.4620   28.2000   43.6740 C   0  0  0  0  0  0  0  0  0  0  0  0
   50.1770   27.7420   42.9920 H   0  0  0  0  0  0  0  0  0  0  0  0
   48.7650   27.3880   44.5660 C   0  0  0  0  0  0  0  0  0  0  0  0
   48.9110   26.3190   44.6010 H   0  0  0  0  0  0  0  0  0  0  0  0
   47.8500   27.9270   45.4470 C   0  0  0  0  0  3  0  0  0  0  0  0
  1 12  1  0  0  0  0
  1  6  1  0  0  0  0
  2  1  2  0  0  0  0
  3  2  1  0  0  0  0
  3  4  2  0  0  0  0
  4  5  1  0  0  0  0
  5  6  2  0  0  0  0
  5  7  1  0  0  0  0
  7 11  1  0  0  0  0
  7  8  1  0  0  0  0
  8 15  1  0  0  0  0
  8  9  1  0  0  0  0
  9 17  1  0  0  0  0
  9 16  1  0  0  0  0
 10 19  1  0  0  0  0
 10 18  1  0  0  0  0
 10  9  1  0  0  0  0
 11 20  1  6  0  0  0
 11 10  1  0  0  0  0
 13  3  1  0  0  0  0
 14  8  1  0  0  0  0
 21 22  1  0  0  0  0
 21  2  1  0  0  0  0
 23 21  1  0  0  0  0
 24 11  1  0  0  0  0
 25 33  1  0  0  0  0
 25 24  1  0  0  0  0
 26 25  2  0  0  0  0
 27 26  1  0  0  0  0
 28 29  2  0  0  0  0
 28 26  1  0  0  0  0
 29 31  1  0  0  0  0
 30 29  1  0  0  0  0
 31 32  1  0  0  0  0
 31 33  2  0  0  0  0
M  END
>  <minimizedAffinity>
-4.94922209

>  <minimizedRMSD>
2.22344279

$$$$
