
 OpenBabel03252504233D

 32 35  0  0  0  0  0  0  0  0999 V2000
   49.8850   32.9830   41.7970 C   0  0  0  0  0  0  0  0  0  0  0  0
   50.3610   34.1590   42.3470 C   0  0  0  0  0  0  0  0  0  0  0  0
   49.5020   35.2990   42.3360 C   0  0  0  0  0  0  0  0  0  0  0  0
   48.2720   35.1220   41.7780 N   0  0  0  0  0  0  0  0  0  0  0  0
   47.8530   33.9500   41.2540 C   0  0  0  0  0  0  0  0  0  0  0  0
   48.6610   32.8750   41.2620 N   0  0  0  0  0  0  0  0  0  0  0  0
   46.5470   33.8890   40.6960 N   0  0  0  0  0  0  0  0  0  0  0  0
   46.2120   33.3090   39.5190 C   0  0  0  0  0  0  0  0  0  0  0  0
   44.8700   33.4610   39.3410 N   0  0  0  0  0  0  0  0  0  0  0  0
   44.4200   34.1220   40.3980 C   0  0  0  0  0  0  0  0  0  0  0  0
   43.1700   34.5710   40.7960 C   0  0  0  0  0  0  0  0  0  0  0  0
   42.9680   35.2330   41.9380 N   0  0  0  0  0  0  0  0  0  0  0  0
   43.9790   35.5030   42.7780 C   0  0  0  0  0  0  0  0  0  0  0  0
   45.1950   35.0720   42.4040 N   0  0  0  0  0  0  0  0  0  0  0  0
   45.4520   34.4100   41.2790 C   0  0  0  0  0  0  0  0  0  0  0  0
   51.3390   34.3000   42.7900 H   0  0  0  0  0  0  0  0  0  0  0  0
   49.8360   36.2270   42.7520 H   0  0  0  0  0  0  0  0  0  0  0  0
   46.9070   32.8110   38.8430 H   0  0  0  0  0  0  0  0  0  0  0  0
   43.8080   36.0380   43.7020 H   0  0  0  0  0  0  0  0  0  0  0  0
   42.0160   34.3560   40.0060 N   0  0  0  0  0  0  0  0  0  0  0  0
   41.1130   33.9160   40.2990 H   0  0  0  0  0  0  0  0  0  0  0  0
   42.2010   34.7120   39.0530 H   0  0  0  0  0  0  0  0  0  0  0  0
   51.0500   31.5940   41.8550 S   0  0  0  0  0  0  0  0  0  0  0  0
   51.9150   31.4210   40.3030 C   0  0  0  0  0  0  0  0  0  0  0  0
   51.0920   31.5840   39.1930 C   0  0  0  0  0  0  0  0  0  0  0  0
   50.0220   31.7960   39.2200 H   0  0  0  0  0  0  0  0  0  0  0  0
   51.6510   31.4720   37.9210 C   0  0  0  0  0  0  0  0  0  0  0  0
   52.9700   31.2100   37.7200 C   0  0  0  0  0  0  0  0  0  0  0  0
   53.3870   31.1270   36.7270 H   0  0  0  0  0  0  0  0  0  0  0  0
   53.7550   31.0550   38.8360 C   0  0  0  0  0  0  0  0  0  0  0  0
   54.8150   30.8440   38.7630 H   0  0  0  0  0  0  0  0  0  0  0  0
   53.2570   31.1540   40.1190 C   0  0  0  0  0  0  0  0  0  0  0  0
  1 23  1  0  0  0  0
  1  2  1  0  0  0  0
  2 16  1  0  0  0  0
  3  2  2  0  0  0  0
  3 17  1  0  0  0  0
  4  3  1  0  0  0  0
  5  6  1  0  0  0  0
  5  4  2  0  0  0  0
  6  1  2  0  0  0  0
  7  5  1  0  0  0  0
  7 15  1  0  0  0  0
  8  7  1  0  0  0  0
  9  8  2  0  0  0  0
  9 10  1  0  0  0  0
 10 11  2  0  0  0  0
 10 15  1  0  0  0  0
 11 12  1  0  0  0  0
 12 13  2  0  0  0  0
 13 19  1  0  0  0  0
 14 13  1  0  0  0  0
 15 14  2  0  0  0  0
 18  8  1  0  0  0  0
 20 21  1  0  0  0  0
 20 11  1  0  0  0  0
 22 20  1  0  0  0  0
 24 23  1  0  0  0  0
 25 26  1  0  0  0  0
 25 24  2  0  0  0  0
 27 25  1  0  0  0  0
 28 27  2  0  0  0  0
 28 30  1  0  0  0  0
 29 28  1  0  0  0  0
 30 32  2  0  0  0  0
 31 30  1  0  0  0  0
 32 24  1  0  0  0  0
M  END
>  <minimizedAffinity>
-5.50716591

>  <minimizedRMSD>
5.41276169

$$$$
