
 OpenBabel03242517493D

 43 46  0  0  0  0  0  0  0  0999 V2000
   36.9490   28.9400   36.8780 C   0  0  0  0  0  0  0  0  0  0  0  0
   36.8060   28.5430   38.2260 C   0  0  0  0  0  0  0  0  0  0  0  0
   35.5290   28.3030   38.6960 C   0  0  0  0  0  0  0  0  0  0  0  0
   34.4820   28.4560   37.8610 N   0  0  0  0  0  0  0  0  0  0  0  0
   34.6560   28.8410   36.5610 C   0  0  0  0  0  0  0  0  0  0  0  0
   35.8620   29.0860   36.0540 N   0  0  0  0  0  0  0  0  0  0  0  0
   37.9360   29.1280   36.5040 H   0  0  0  0  0  0  0  0  0  0  0  0
   35.3880   27.9940   39.7370 H   0  0  0  0  0  0  0  0  0  0  0  0
   33.4630   28.9900   35.6970 C   0  0  0  0  0  0  0  0  0  0  0  0
   33.5310   29.9310   35.0930 H   0  0  0  0  0  0  0  0  0  0  0  0
   33.4620   28.1800   34.9390 H   0  0  0  0  0  0  0  0  0  0  0  0
   32.1710   28.9940   36.4970 C   0  0  0  0  0  0  0  0  0  0  0  0
   32.4660   28.7890   37.5570 H   0  0  0  0  0  0  0  0  0  0  0  0
   31.6120   28.0830   36.1820 H   0  0  0  0  0  0  0  0  0  0  0  0
   31.4080   30.2320   36.3540 C   0  0  0  0  0  0  0  0  0  0  0  0
   30.6300   30.7300   37.3800 C   0  0  0  0  0  0  0  0  0  0  0  0
   30.5540   30.2120   38.3490 H   0  0  0  0  0  0  0  0  0  0  0  0
   29.9250   31.9030   37.2050 C   0  0  0  0  0  3  0  0  0  0  0  0
   29.9520   32.6290   36.0290 C   0  0  0  0  0  0  0  0  0  0  0  0
   29.4030   33.5500   35.8800 H   0  0  0  0  0  0  0  0  0  0  0  0
   30.7280   32.1370   35.0010 C   0  0  0  0  0  0  0  0  0  0  0  0
   30.7500   32.7060   34.0790 H   0  0  0  0  0  0  0  0  0  0  0  0
   31.4300   30.9650   35.1820 C   0  0  0  0  0  3  0  0  0  0  0  0
   38.2350   28.3660   39.2590 S   0  0  0  0  0  0  0  0  0  0  0  0
   37.7440   28.0240   40.9260 C   0  0  0  0  0  0  0  0  0  0  0  0
   37.4280   26.7540   41.3910 C   0  0  0  0  0  0  0  0  0  0  0  0
   37.0480   26.5620   42.7200 C   0  0  0  0  0  0  0  0  0  0  0  0
   36.9770   27.6080   43.5890 C   0  0  0  0  0  0  0  0  0  0  0  0
   37.2920   28.8740   43.1230 C   0  0  0  0  0  0  0  0  0  0  0  0
   37.6740   29.0960   41.8040 C   0  0  0  0  0  0  0  0  0  0  0  0
   37.4920   25.9450   40.6810 H   0  0  0  0  0  0  0  0  0  0  0  0
   36.8090   25.5560   43.0480 H   0  0  0  0  0  0  0  0  0  0  0  0
   36.6790   27.4220   44.6130 H   0  0  0  0  0  0  0  0  0  0  0  0
   37.2260   29.6760   43.8370 H   0  0  0  0  0  0  0  0  0  0  0  0
   38.0000   30.4280   41.3370 C   0  0  0  0  0  0  0  0  0  0  0  0
   37.1020   31.2700   40.7350 C   0  0  0  0  0  0  0  0  0  0  0  0
   37.4220   32.5490   40.2890 C   0  0  0  0  0  0  0  0  0  0  0  0
   38.6790   32.9790   40.4570 N   0  0  0  0  0  0  0  0  0  0  0  0
   39.5690   32.1570   41.0480 C   0  0  0  0  0  0  0  0  0  0  0  0
   39.2550   30.9150   41.4800 N   0  0  0  0  0  0  0  0  0  0  0  0
   36.0890   30.8990   40.6110 H   0  0  0  0  0  0  0  0  0  0  0  0
   36.6260   33.1090   39.8330 H   0  0  0  0  0  0  0  0  0  0  0  0
   40.6110   32.4590   41.2100 H   0  0  0  0  0  0  0  0  0  0  0  0
  1  2  1  0  0  0  0
  2  3  2  0  0  0  0
  2 24  1  0  0  0  0
  3  8  1  0  0  0  0
  4  3  1  0  0  0  0
  5  4  2  0  0  0  0
  6  5  1  0  0  0  0
  6  1  2  0  0  0  0
  7  1  1  0  0  0  0
  9 12  1  0  0  0  0
  9  5  1  0  0  0  0
 10  9  1  0  0  0  0
 11  9  1  0  0  0  0
 12 13  1  0  0  0  0
 14 12  1  0  0  0  0
 15 12  1  0  0  0  0
 15 16  1  0  0  0  0
 16 17  1  0  0  0  0
 18 16  2  0  0  0  0
 19 18  1  0  0  0  0
 20 19  1  0  0  0  0
 21 23  1  0  0  0  0
 21 19  2  0  0  0  0
 22 21  1  0  0  0  0
 23 15  2  0  0  0  0
 24 25  1  0  0  0  0
 25 26  2  0  0  0  0
 25 30  1  0  0  0  0
 26 27  1  0  0  0  0
 27 32  1  0  0  0  0
 27 28  2  0  0  0  0
 28 33  1  0  0  0  0
 29 28  1  0  0  0  0
 29 34  1  0  0  0  0
 30 29  2  0  0  0  0
 31 26  1  0  0  0  0
 35 40  1  0  0  0  0
 35 30  1  0  0  0  0
 36 35  2  0  0  0  0
 37 38  2  0  0  0  0
 37 36  1  0  0  0  0
 38 39  1  0  0  0  0
 39 43  1  0  0  0  0
 39 40  2  0  0  0  0
 41 36  1  0  0  0  0
 42 37  1  0  0  0  0
M  END
>  <minimizedAffinity>
-6.28381968

$$$$

 OpenBabel03242517493D

 43 46  0  0  0  0  0  0  0  0999 V2000
   38.4100   29.6870   42.2340 C   0  0  0  0  0  0  0  0  0  0  0  0
   37.1170   29.4000   41.7430 C   0  0  0  0  0  0  0  0  0  0  0  0
   36.6010   28.1410   41.9810 C   0  0  0  0  0  0  0  0  0  0  0  0
   37.3430   27.2460   42.6630 N   0  0  0  0  0  0  0  0  0  0  0  0
   38.5910   27.5560   43.1250 C   0  0  0  0  0  0  0  0  0  0  0  0
   39.1380   28.7530   42.9260 N   0  0  0  0  0  0  0  0  0  0  0  0
   38.8180   30.6620   42.0560 H   0  0  0  0  0  0  0  0  0  0  0  0
   35.6010   27.8900   41.6120 H   0  0  0  0  0  0  0  0  0  0  0  0
   39.3520   26.5260   43.8670 C   0  0  0  0  0  0  0  0  0  0  0  0
   39.8070   26.9650   44.7920 H   0  0  0  0  0  0  0  0  0  0  0  0
   38.6460   25.7610   44.2490 H   0  0  0  0  0  0  0  0  0  0  0  0
   40.4410   25.8930   43.0170 C   0  0  0  0  0  0  0  0  0  0  0  0
   41.0740   25.2990   43.7230 H   0  0  0  0  0  0  0  0  0  0  0  0
   41.0990   26.7290   42.6880 H   0  0  0  0  0  0  0  0  0  0  0  0
   39.9170   25.0880   41.9160 C   0  0  0  0  0  0  0  0  0  0  0  0
   38.9640   24.1090   42.1190 C   0  0  0  0  0  0  0  0  0  0  0  0
   38.5600   23.8970   43.1210 H   0  0  0  0  0  0  0  0  0  0  0  0
   38.4950   23.3700   41.0520 C   0  0  0  0  0  3  0  0  0  0  0  0
   38.9370   23.5570   39.7550 C   0  0  0  0  0  0  0  0  0  0  0  0
   38.5770   22.9840   38.9110 H   0  0  0  0  0  0  0  0  0  0  0  0
   39.8880   24.5340   39.5470 C   0  0  0  0  0  0  0  0  0  0  0  0
   40.2340   24.6810   38.5300 H   0  0  0  0  0  0  0  0  0  0  0  0
   40.3520   25.2680   40.6160 C   0  0  0  0  0  3  0  0  0  0  0  0
   36.2080   30.6350   40.8550 S   0  0  0  0  0  0  0  0  0  0  0  0
   36.3800   30.3810   39.1100 C   0  0  0  0  0  0  0  0  0  0  0  0
   35.6670   29.4260   38.3960 C   0  0  0  0  0  0  0  0  0  0  0  0
   35.8570   29.2850   37.0210 C   0  0  0  0  0  0  0  0  0  0  0  0
   36.7410   30.0720   36.3480 C   0  0  0  0  0  0  0  0  0  0  0  0
   37.4520   31.0230   37.0620 C   0  0  0  0  0  0  0  0  0  0  0  0
   37.2840   31.1890   38.4330 C   0  0  0  0  0  0  0  0  0  0  0  0
   34.9750   28.8170   38.9550 H   0  0  0  0  0  0  0  0  0  0  0  0
   35.2820   28.5280   36.4960 H   0  0  0  0  0  0  0  0  0  0  0  0
   36.8630   29.9340   35.2810 H   0  0  0  0  0  0  0  0  0  0  0  0
   38.1400   31.6280   36.4980 H   0  0  0  0  0  0  0  0  0  0  0  0
   38.0360   32.1890   39.1610 C   0  0  0  0  0  0  0  0  0  0  0  0
   37.5550   33.4330   39.4730 C   0  0  0  0  0  0  0  0  0  0  0  0
   38.2850   34.3900   40.1750 C   0  0  0  0  0  0  0  0  0  0  0  0
   39.5270   34.0740   40.5640 N   0  0  0  0  0  0  0  0  0  0  0  0
   40.0080   32.8520   40.2600 C   0  0  0  0  0  0  0  0  0  0  0  0
   39.2960   31.9250   39.5800 N   0  0  0  0  0  0  0  0  0  0  0  0
   36.5460   33.6650   39.1480 H   0  0  0  0  0  0  0  0  0  0  0  0
   37.7920   35.3280   40.3560 H   0  0  0  0  0  0  0  0  0  0  0  0
   41.0180   32.5430   40.5550 H   0  0  0  0  0  0  0  0  0  0  0  0
  1  6  1  0  0  0  0
  2  3  1  0  0  0  0
  2  1  2  0  0  0  0
  3  4  2  0  0  0  0
  4  5  1  0  0  0  0
  5  9  1  0  0  0  0
  6  5  2  0  0  0  0
  7  1  1  0  0  0  0
  8  3  1  0  0  0  0
  9 11  1  0  0  0  0
  9 10  1  0  0  0  0
 12 13  1  0  0  0  0
 12  9  1  0  0  0  0
 14 12  1  0  0  0  0
 15 16  1  0  0  0  0
 15 12  1  0  0  0  0
 16 17  1  0  0  0  0
 18 16  2  0  0  0  0
 19 18  1  0  0  0  0
 20 19  1  0  0  0  0
 21 19  2  0  0  0  0
 21 23  1  0  0  0  0
 22 21  1  0  0  0  0
 23 15  2  0  0  0  0
 24  2  1  0  0  0  0
 25 24  1  0  0  0  0
 26 31  1  0  0  0  0
 26 25  2  0  0  0  0
 27 26  1  0  0  0  0
 28 27  2  0  0  0  0
 28 29  1  0  0  0  0
 29 30  2  0  0  0  0
 30 25  1  0  0  0  0
 30 35  1  0  0  0  0
 32 27  1  0  0  0  0
 33 28  1  0  0  0  0
 34 29  1  0  0  0  0
 35 36  2  0  0  0  0
 35 40  1  0  0  0  0
 36 37  1  0  0  0  0
 37 42  1  0  0  0  0
 37 38  2  0  0  0  0
 39 43  1  0  0  0  0
 39 38  1  0  0  0  0
 40 39  2  0  0  0  0
 41 36  1  0  0  0  0
M  END
>  <minimizedAffinity>
-6.27289867

$$$$

 OpenBabel03242517493D

 43 46  0  0  0  0  0  0  0  0999 V2000
   36.4220   30.0900   38.4870 C   0  0  0  0  0  0  0  0  0  0  0  0
   35.8380   29.9250   39.7630 C   0  0  0  0  0  0  0  0  0  0  0  0
   34.6210   29.2750   39.8350 C   0  0  0  0  0  0  0  0  0  0  0  0
   34.0450   28.8300   38.7010 N   0  0  0  0  0  0  0  0  0  0  0  0
   34.6380   29.0060   37.4820 C   0  0  0  0  0  0  0  0  0  0  0  0
   35.8090   29.6250   37.3520 N   0  0  0  0  0  0  0  0  0  0  0  0
   37.3670   30.5920   38.4200 H   0  0  0  0  0  0  0  0  0  0  0  0
   34.1450   29.1320   40.8110 H   0  0  0  0  0  0  0  0  0  0  0  0
   33.9510   28.4930   36.2760 C   0  0  0  0  0  0  0  0  0  0  0  0
   34.2620   29.0740   35.3700 H   0  0  0  0  0  0  0  0  0  0  0  0
   34.3020   27.4610   36.0710 H   0  0  0  0  0  0  0  0  0  0  0  0
   32.4380   28.5400   36.4130 C   0  0  0  0  0  0  0  0  0  0  0  0
   32.2210   28.3320   37.4900 H   0  0  0  0  0  0  0  0  0  0  0  0
   32.0530   27.6450   35.8720 H   0  0  0  0  0  0  0  0  0  0  0  0
   31.8570   29.7990   35.9530 C   0  0  0  0  0  0  0  0  0  0  0  0
   32.0690   30.2750   34.6740 C   0  0  0  0  0  0  0  0  0  0  0  0
   32.6870   29.7230   33.9490 H   0  0  0  0  0  0  0  0  0  0  0  0
   31.5010   31.4700   34.2790 C   0  0  0  0  0  3  0  0  0  0  0  0
   30.7100   32.2390   35.1120 C   0  0  0  0  0  0  0  0  0  0  0  0
   30.2600   33.1760   34.8130 H   0  0  0  0  0  0  0  0  0  0  0  0
   30.4940   31.7680   36.3900 C   0  0  0  0  0  0  0  0  0  0  0  0
   29.8740   32.3700   37.0430 H   0  0  0  0  0  0  0  0  0  0  0  0
   31.0630   30.5750   36.7790 C   0  0  0  0  0  3  0  0  0  0  0  0
   36.6620   30.5400   41.2060 S   0  0  0  0  0  0  0  0  0  0  0  0
   37.4930   29.2180   42.0430 C   0  0  0  0  0  0  0  0  0  0  0  0
   36.8360   28.2320   42.7680 C   0  0  0  0  0  0  0  0  0  0  0  0
   37.5590   27.2210   43.4010 C   0  0  0  0  0  0  0  0  0  0  0  0
   38.9180   27.1750   43.3270 C   0  0  0  0  0  0  0  0  0  0  0  0
   39.5700   28.1600   42.6030 C   0  0  0  0  0  0  0  0  0  0  0  0
   38.8770   29.1800   41.9610 C   0  0  0  0  0  0  0  0  0  0  0  0
   35.7600   28.2940   42.8100 H   0  0  0  0  0  0  0  0  0  0  0  0
   37.0120   26.4670   43.9590 H   0  0  0  0  0  0  0  0  0  0  0  0
   39.4460   26.3750   43.8310 H   0  0  0  0  0  0  0  0  0  0  0  0
   40.6430   28.0910   42.5650 H   0  0  0  0  0  0  0  0  0  0  0  0
   39.5790   30.2000   41.2100 C   0  0  0  0  0  0  0  0  0  0  0  0
   40.0710   31.3540   41.7590 C   0  0  0  0  0  0  0  0  0  0  0  0
   40.7460   32.3300   41.0300 C   0  0  0  0  0  0  0  0  0  0  0  0
   40.9220   32.1280   39.7190 N   0  0  0  0  0  0  0  0  0  0  0  0
   40.4400   30.9950   39.1690 C   0  0  0  0  0  0  0  0  0  0  0  0
   39.7860   30.0490   39.8810 N   0  0  0  0  0  0  0  0  0  0  0  0
   39.9170   31.4950   42.8240 H   0  0  0  0  0  0  0  0  0  0  0  0
   41.0820   33.1900   41.5810 H   0  0  0  0  0  0  0  0  0  0  0  0
   40.5570   30.7800   38.1000 H   0  0  0  0  0  0  0  0  0  0  0  0
  1  2  1  0  0  0  0
  2  3  2  0  0  0  0
  2 24  1  0  0  0  0
  3  8  1  0  0  0  0
  4  3  1  0  0  0  0
  5  4  2  0  0  0  0
  6  5  1  0  0  0  0
  6  1  2  0  0  0  0
  7  1  1  0  0  0  0
  9 12  1  0  0  0  0
  9  5  1  0  0  0  0
 10  9  1  0  0  0  0
 11  9  1  0  0  0  0
 12 13  1  0  0  0  0
 14 12  1  0  0  0  0
 15 12  1  0  0  0  0
 15 23  1  0  0  0  0
 16 15  2  0  0  0  0
 17 16  1  0  0  0  0
 18 16  1  0  0  0  0
 18 19  2  0  0  0  0
 19 21  1  0  0  0  0
 20 19  1  0  0  0  0
 21 23  2  0  0  0  0
 21 22  1  0  0  0  0
 24 25  1  0  0  0  0
 25 26  1  0  0  0  0
 26 31  1  0  0  0  0
 26 27  2  0  0  0  0
 27 32  1  0  0  0  0
 28 27  1  0  0  0  0
 28 33  1  0  0  0  0
 29 28  2  0  0  0  0
 30 25  2  0  0  0  0
 30 29  1  0  0  0  0
 34 29  1  0  0  0  0
 35 36  1  0  0  0  0
 35 30  1  0  0  0  0
 36 41  1  0  0  0  0
 37 42  1  0  0  0  0
 37 36  2  0  0  0  0
 38 37  1  0  0  0  0
 39 38  2  0  0  0  0
 39 40  1  0  0  0  0
 40 35  2  0  0  0  0
 43 39  1  0  0  0  0
M  END
>  <minimizedAffinity>
-6.12720013

$$$$

 OpenBabel03242517493D

 43 46  0  0  0  0  0  0  0  0999 V2000
   38.8990   31.0440   41.7440 C   0  0  0  0  0  0  0  0  0  0  0  0
   37.7720   31.3520   40.9490 C   0  0  0  0  0  0  0  0  0  0  0  0
   36.6590   30.5430   41.0670 C   0  0  0  0  0  0  0  0  0  0  0  0
   36.6900   29.5030   41.9240 N   0  0  0  0  0  0  0  0  0  0  0  0
   37.7970   29.2330   42.6790 C   0  0  0  0  0  0  0  0  0  0  0  0
   38.8980   29.9780   42.6070 N   0  0  0  0  0  0  0  0  0  0  0  0
   39.7670   31.6660   41.6610 H   0  0  0  0  0  0  0  0  0  0  0  0
   35.7710   30.7580   40.4630 H   0  0  0  0  0  0  0  0  0  0  0  0
   37.7640   28.0750   43.6010 C   0  0  0  0  0  0  0  0  0  0  0  0
   37.7990   28.4210   44.6660 H   0  0  0  0  0  0  0  0  0  0  0  0
   36.7820   27.5690   43.5120 H   0  0  0  0  0  0  0  0  0  0  0  0
   38.9050   27.1050   43.3450 C   0  0  0  0  0  0  0  0  0  0  0  0
   39.3350   26.8650   44.3490 H   0  0  0  0  0  0  0  0  0  0  0  0
   39.7010   27.6940   42.8340 H   0  0  0  0  0  0  0  0  0  0  0  0
   38.4940   25.9120   42.6090 C   0  0  0  0  0  0  0  0  0  0  0  0
   39.4140   25.0080   42.1150 C   0  0  0  0  0  0  0  0  0  0  0  0
   40.4970   25.1530   42.2560 H   0  0  0  0  0  0  0  0  0  0  0  0
   38.9840   23.8920   41.4250 C   0  0  0  0  0  3  0  0  0  0  0  0
   37.6490   23.6180   41.1940 C   0  0  0  0  0  0  0  0  0  0  0  0
   37.3010   22.7480   40.6550 H   0  0  0  0  0  0  0  0  0  0  0  0
   36.7260   24.5170   41.6860 C   0  0  0  0  0  0  0  0  0  0  0  0
   35.6790   24.3030   41.5050 H   0  0  0  0  0  0  0  0  0  0  0  0
   37.1610   25.6290   42.3740 C   0  0  0  0  0  3  0  0  0  0  0  0
   37.8140   32.7390   39.8460 S   0  0  0  0  0  0  0  0  0  0  0  0
   39.3980   32.8450   39.0610 C   0  0  0  0  0  0  0  0  0  0  0  0
   40.3410   33.8210   39.3570 C   0  0  0  0  0  0  0  0  0  0  0  0
   41.5690   33.8400   38.6960 C   0  0  0  0  0  0  0  0  0  0  0  0
   41.8740   32.9110   37.7480 C   0  0  0  0  0  0  0  0  0  0  0  0
   40.9310   31.9380   37.4550 C   0  0  0  0  0  0  0  0  0  0  0  0
   39.6980   31.8920   38.0970 C   0  0  0  0  0  0  0  0  0  0  0  0
   40.0730   34.5440   40.1110 H   0  0  0  0  0  0  0  0  0  0  0  0
   42.2820   34.6180   38.9530 H   0  0  0  0  0  0  0  0  0  0  0  0
   42.8360   32.9560   37.2560 H   0  0  0  0  0  0  0  0  0  0  0  0
   41.2060   31.2200   36.7030 H   0  0  0  0  0  0  0  0  0  0  0  0
   38.7270   30.8680   37.7750 C   0  0  0  0  0  0  0  0  0  0  0  0
   37.6110   31.0830   37.0110 C   0  0  0  0  0  0  0  0  0  0  0  0
   36.6820   30.0910   36.7050 C   0  0  0  0  0  0  0  0  0  0  0  0
   36.8930   28.8600   37.1860 N   0  0  0  0  0  0  0  0  0  0  0  0
   37.9890   28.6400   37.9390 C   0  0  0  0  0  0  0  0  0  0  0  0
   38.8900   29.6050   38.2340 N   0  0  0  0  0  0  0  0  0  0  0  0
   37.4620   32.0890   36.6320 H   0  0  0  0  0  0  0  0  0  0  0  0
   35.8480   30.3910   36.0960 H   0  0  0  0  0  0  0  0  0  0  0  0
   38.2090   27.6500   38.3570 H   0  0  0  0  0  0  0  0  0  0  0  0
  1  6  1  0  0  0  0
  2  3  1  0  0  0  0
  2  1  2  0  0  0  0
  3  4  2  0  0  0  0
  4  5  1  0  0  0  0
  5  9  1  0  0  0  0
  6  5  2  0  0  0  0
  7  1  1  0  0  0  0
  8  3  1  0  0  0  0
  9 10  1  0  0  0  0
 11  9  1  0  0  0  0
 12  9  1  0  0  0  0
 12 13  1  0  0  0  0
 14 12  1  0  0  0  0
 15 12  1  0  0  0  0
 16 17  1  0  0  0  0
 16 15  2  0  0  0  0
 18 16  1  0  0  0  0
 19 18  2  0  0  0  0
 19 21  1  0  0  0  0
 20 19  1  0  0  0  0
 21 23  2  0  0  0  0
 22 21  1  0  0  0  0
 23 15  1  0  0  0  0
 24  2  1  0  0  0  0
 25 26  1  0  0  0  0
 25 24  1  0  0  0  0
 26 31  1  0  0  0  0
 27 32  1  0  0  0  0
 27 26  2  0  0  0  0
 28 27  1  0  0  0  0
 29 28  2  0  0  0  0
 29 30  1  0  0  0  0
 30 25  2  0  0  0  0
 33 28  1  0  0  0  0
 34 29  1  0  0  0  0
 35 30  1  0  0  0  0
 35 40  1  0  0  0  0
 36 35  2  0  0  0  0
 37 36  1  0  0  0  0
 37 38  2  0  0  0  0
 38 39  1  0  0  0  0
 39 40  2  0  0  0  0
 39 43  1  0  0  0  0
 41 36  1  0  0  0  0
 42 37  1  0  0  0  0
M  END
>  <minimizedAffinity>
-6.08095455

$$$$

 OpenBabel03242517493D

 43 46  0  0  0  0  0  0  0  0999 V2000
   35.6910   27.7980   38.8120 C   0  0  0  0  0  0  0  0  0  0  0  0
   37.0180   27.8920   38.3350 C   0  0  0  0  0  0  0  0  0  0  0  0
   37.2080   28.3620   37.0500 C   0  0  0  0  0  0  0  0  0  0  0  0
   36.1360   28.7080   36.3110 N   0  0  0  0  0  0  0  0  0  0  0  0
   34.8660   28.6060   36.8040 C   0  0  0  0  0  0  0  0  0  0  0  0
   34.6210   28.1590   38.0330 N   0  0  0  0  0  0  0  0  0  0  0  0
   35.5320   27.4350   39.8080 H   0  0  0  0  0  0  0  0  0  0  0  0
   38.2260   28.4450   36.6530 H   0  0  0  0  0  0  0  0  0  0  0  0
   33.7330   29.0030   35.9390 C   0  0  0  0  0  0  0  0  0  0  0  0
   33.8490   30.0660   35.6020 H   0  0  0  0  0  0  0  0  0  0  0  0
   33.7710   28.4150   34.9990 H   0  0  0  0  0  0  0  0  0  0  0  0
   32.3920   28.8370   36.6350 C   0  0  0  0  0  0  0  0  0  0  0  0
   32.6280   28.5390   37.6870 H   0  0  0  0  0  0  0  0  0  0  0  0
   31.9220   27.9320   36.1870 H   0  0  0  0  0  0  0  0  0  0  0  0
   31.5540   30.0320   36.5640 C   0  0  0  0  0  0  0  0  0  0  0  0
   30.8000   30.4580   37.6400 C   0  0  0  0  0  0  0  0  0  0  0  0
   30.8020   29.9120   38.5970 H   0  0  0  0  0  0  0  0  0  0  0  0
   30.0210   31.5920   37.5320 C   0  0  0  0  0  3  0  0  0  0  0  0
   29.9480   32.3480   36.3760 C   0  0  0  0  0  0  0  0  0  0  0  0
   29.3410   33.2370   36.2800 H   0  0  0  0  0  0  0  0  0  0  0  0
   30.6990   31.9270   35.2980 C   0  0  0  0  0  0  0  0  0  0  0  0
   30.6420   32.5190   34.3930 H   0  0  0  0  0  0  0  0  0  0  0  0
   31.4750   30.7940   35.4130 C   0  0  0  0  0  3  0  0  0  0  0  0
   38.3730   27.4150   39.3720 S   0  0  0  0  0  0  0  0  0  0  0  0
   37.9880   27.7510   41.0690 C   0  0  0  0  0  0  0  0  0  0  0  0
   38.0360   29.0200   41.6330 C   0  0  0  0  0  0  0  0  0  0  0  0
   37.7190   29.2070   42.9790 C   0  0  0  0  0  0  0  0  0  0  0  0
   37.3580   28.1580   43.7690 C   0  0  0  0  0  0  0  0  0  0  0  0
   37.3110   26.8940   43.2040 C   0  0  0  0  0  0  0  0  0  0  0  0
   37.6210   26.6760   41.8650 C   0  0  0  0  0  0  0  0  0  0  0  0
   38.3260   29.8310   40.9840 H   0  0  0  0  0  0  0  0  0  0  0  0
   37.7670   30.2120   43.3860 H   0  0  0  0  0  0  0  0  0  0  0  0
   37.1180   28.3410   44.8090 H   0  0  0  0  0  0  0  0  0  0  0  0
   37.0200   26.0900   43.8570 H   0  0  0  0  0  0  0  0  0  0  0  0
   37.5660   25.3470   41.2940 C   0  0  0  0  0  0  0  0  0  0  0  0
   38.6160   24.4670   41.2970 C   0  0  0  0  0  0  0  0  0  0  0  0
   38.5550   23.1890   40.7470 C   0  0  0  0  0  0  0  0  0  0  0  0
   37.4050   22.8010   40.1820 N   0  0  0  0  0  0  0  0  0  0  0  0
   36.3660   23.6610   40.1740 C   0  0  0  0  0  0  0  0  0  0  0  0
   36.4290   24.9010   40.7110 N   0  0  0  0  0  0  0  0  0  0  0  0
   39.5370   24.8040   41.7610 H   0  0  0  0  0  0  0  0  0  0  0  0
   39.4500   22.5970   40.8140 H   0  0  0  0  0  0  0  0  0  0  0  0
   35.4020   23.3930   39.7250 H   0  0  0  0  0  0  0  0  0  0  0  0
  1  7  1  0  0  0  0
  2  1  1  0  0  0  0
  2 24  1  0  0  0  0
  3  2  2  0  0  0  0
  4  5  2  0  0  0  0
  4  3  1  0  0  0  0
  5  6  1  0  0  0  0
  6  1  2  0  0  0  0
  8  3  1  0  0  0  0
  9 12  1  0  0  0  0
  9  5  1  0  0  0  0
 10  9  1  0  0  0  0
 11  9  1  0  0  0  0
 12 13  1  0  0  0  0
 14 12  1  0  0  0  0
 15 12  1  0  0  0  0
 15 16  1  0  0  0  0
 16 17  1  0  0  0  0
 18 16  2  0  0  0  0
 19 18  1  0  0  0  0
 20 19  1  0  0  0  0
 21 23  1  0  0  0  0
 21 19  2  0  0  0  0
 22 21  1  0  0  0  0
 23 15  2  0  0  0  0
 24 25  1  0  0  0  0
 25 26  2  0  0  0  0
 25 30  1  0  0  0  0
 26 27  1  0  0  0  0
 27 32  1  0  0  0  0
 27 28  2  0  0  0  0
 28 33  1  0  0  0  0
 29 28  1  0  0  0  0
 29 34  1  0  0  0  0
 30 29  2  0  0  0  0
 31 26  1  0  0  0  0
 35 36  1  0  0  0  0
 35 30  1  0  0  0  0
 36 41  1  0  0  0  0
 37 42  1  0  0  0  0
 37 36  2  0  0  0  0
 38 37  1  0  0  0  0
 39 38  2  0  0  0  0
 39 40  1  0  0  0  0
 40 35  2  0  0  0  0
 43 39  1  0  0  0  0
M  END
>  <minimizedAffinity>
-5.80858135

$$$$

 OpenBabel03242517493D

 43 46  0  0  0  0  0  0  0  0999 V2000
   35.4200   28.8670   38.5160 C   0  0  0  0  0  0  0  0  0  0  0  0
   36.7680   28.8490   38.0930 C   0  0  0  0  0  0  0  0  0  0  0  0
   37.0190   28.9060   36.7360 C   0  0  0  0  0  0  0  0  0  0  0  0
   35.9820   28.9750   35.8780 N   0  0  0  0  0  0  0  0  0  0  0  0
   34.6890   28.9910   36.3200 C   0  0  0  0  0  0  0  0  0  0  0  0
   34.3870   28.9390   37.6160 N   0  0  0  0  0  0  0  0  0  0  0  0
   35.2140   28.8250   39.5670 H   0  0  0  0  0  0  0  0  0  0  0  0
   38.0550   28.8930   36.3800 H   0  0  0  0  0  0  0  0  0  0  0  0
   33.5970   29.0680   35.3250 C   0  0  0  0  0  0  0  0  0  0  0  0
   33.6650   30.0220   34.7400 H   0  0  0  0  0  0  0  0  0  0  0  0
   33.7440   28.2740   34.5650 H   0  0  0  0  0  0  0  0  0  0  0  0
   32.2250   28.9640   35.9680 C   0  0  0  0  0  0  0  0  0  0  0  0
   32.4000   28.5850   37.0060 H   0  0  0  0  0  0  0  0  0  0  0  0
   31.7040   28.1270   35.4490 H   0  0  0  0  0  0  0  0  0  0  0  0
   31.4810   30.2220   35.9460 C   0  0  0  0  0  0  0  0  0  0  0  0
   31.4670   31.0400   34.8340 C   0  0  0  0  0  0  0  0  0  0  0  0
   32.0170   30.7750   33.9170 H   0  0  0  0  0  0  0  0  0  0  0  0
   30.7510   32.2200   34.8530 C   0  0  0  0  0  3  0  0  0  0  0  0
   30.0280   32.6430   35.9530 C   0  0  0  0  0  0  0  0  0  0  0  0
   29.4640   33.5660   35.9800 H   0  0  0  0  0  0  0  0  0  0  0  0
   30.0380   31.8300   37.0670 C   0  0  0  0  0  0  0  0  0  0  0  0
   29.4710   32.1610   37.9290 H   0  0  0  0  0  0  0  0  0  0  0  0
   30.7540   30.6530   37.0400 C   0  0  0  0  0  3  0  0  0  0  0  0
   38.0740   28.7570   39.2880 S   0  0  0  0  0  0  0  0  0  0  0  0
   38.5770   30.3870   39.7660 C   0  0  0  0  0  0  0  0  0  0  0  0
   38.7030   31.4470   38.8770 C   0  0  0  0  0  0  0  0  0  0  0  0
   39.1050   32.7040   39.3290 C   0  0  0  0  0  0  0  0  0  0  0  0
   39.3840   32.9230   40.6440 C   0  0  0  0  0  0  0  0  0  0  0  0
   39.2580   31.8640   41.5290 C   0  0  0  0  0  0  0  0  0  0  0  0
   38.8590   30.6000   41.1080 C   0  0  0  0  0  0  0  0  0  0  0  0
   38.4770   31.2440   37.8430 H   0  0  0  0  0  0  0  0  0  0  0  0
   39.1930   33.5080   38.6060 H   0  0  0  0  0  0  0  0  0  0  0  0
   39.6930   33.9120   40.9590 H   0  0  0  0  0  0  0  0  0  0  0  0
   39.4850   32.0740   42.5590 H   0  0  0  0  0  0  0  0  0  0  0  0
   38.7330   29.5060   42.0500 C   0  0  0  0  0  0  0  0  0  0  0  0
   39.7540   28.6520   42.3720 C   0  0  0  0  0  0  0  0  0  0  0  0
   39.6260   27.6030   43.2790 C   0  0  0  0  0  0  0  0  0  0  0  0
   38.4370   27.4200   43.8670 N   0  0  0  0  0  0  0  0  0  0  0  0
   37.4270   28.2560   43.5550 C   0  0  0  0  0  0  0  0  0  0  0  0
   37.5550   29.2740   42.6740 N   0  0  0  0  0  0  0  0  0  0  0  0
   40.7090   28.8210   41.8830 H   0  0  0  0  0  0  0  0  0  0  0  0
   40.5040   27.0050   43.4450 H   0  0  0  0  0  0  0  0  0  0  0  0
   36.4340   28.1510   44.0080 H   0  0  0  0  0  0  0  0  0  0  0  0
  1  7  1  0  0  0  0
  2  1  1  0  0  0  0
  2 24  1  0  0  0  0
  3  2  2  0  0  0  0
  4  5  2  0  0  0  0
  4  3  1  0  0  0  0
  5  6  1  0  0  0  0
  6  1  2  0  0  0  0
  8  3  1  0  0  0  0
  9 12  1  0  0  0  0
  9  5  1  0  0  0  0
 10  9  1  0  0  0  0
 11  9  1  0  0  0  0
 12 13  1  0  0  0  0
 14 12  1  0  0  0  0
 15 12  1  0  0  0  0
 15 23  1  0  0  0  0
 16 18  1  0  0  0  0
 16 15  2  0  0  0  0
 17 16  1  0  0  0  0
 18 19  2  0  0  0  0
 19 20  1  0  0  0  0
 19 21  1  0  0  0  0
 21 22  1  0  0  0  0
 23 21  2  0  0  0  0
 24 25  1  0  0  0  0
 25 30  1  0  0  0  0
 26 27  1  0  0  0  0
 26 25  2  0  0  0  0
 27 28  2  0  0  0  0
 28 33  1  0  0  0  0
 28 29  1  0  0  0  0
 29 34  1  0  0  0  0
 30 29  2  0  0  0  0
 30 35  1  0  0  0  0
 31 26  1  0  0  0  0
 32 27  1  0  0  0  0
 35 36  2  0  0  0  0
 35 40  1  0  0  0  0
 36 37  1  0  0  0  0
 37 42  1  0  0  0  0
 37 38  2  0  0  0  0
 39 38  1  0  0  0  0
 39 43  1  0  0  0  0
 40 39  2  0  0  0  0
 41 36  1  0  0  0  0
M  END
>  <minimizedAffinity>
-5.77512789

$$$$

 OpenBabel03242517493D

 43 46  0  0  0  0  0  0  0  0999 V2000
   36.2460   28.1770   36.4590 C   0  0  0  0  0  0  0  0  0  0  0  0
   36.0620   28.2150   37.8590 C   0  0  0  0  0  0  0  0  0  0  0  0
   34.8450   28.6600   38.3370 C   0  0  0  0  0  0  0  0  0  0  0  0
   33.8930   29.0380   37.4620 N   0  0  0  0  0  0  0  0  0  0  0  0
   34.1040   28.9890   36.1120 C   0  0  0  0  0  0  0  0  0  0  0  0
   35.2560   28.5690   35.5940 N   0  0  0  0  0  0  0  0  0  0  0  0
   37.1870   27.8320   36.0770 H   0  0  0  0  0  0  0  0  0  0  0  0
   34.6740   28.7000   39.4180 H   0  0  0  0  0  0  0  0  0  0  0  0
   33.0160   29.4180   35.2060 C   0  0  0  0  0  0  0  0  0  0  0  0
   33.0340   30.5310   35.0700 H   0  0  0  0  0  0  0  0  0  0  0  0
   33.2120   29.0180   34.1900 H   0  0  0  0  0  0  0  0  0  0  0  0
   31.6470   28.9920   35.7090 C   0  0  0  0  0  0  0  0  0  0  0  0
   31.8180   28.0750   36.3260 H   0  0  0  0  0  0  0  0  0  0  0  0
   31.0910   28.6270   34.8150 H   0  0  0  0  0  0  0  0  0  0  0  0
   30.9500   30.0440   36.4450 C   0  0  0  0  0  0  0  0  0  0  0  0
   30.8110   31.3200   35.9350 C   0  0  0  0  0  0  0  0  0  0  0  0
   31.2200   31.5940   34.9500 H   0  0  0  0  0  0  0  0  0  0  0  0
   30.1440   32.2860   36.6620 C   0  0  0  0  0  3  0  0  0  0  0  0
   29.5930   32.0440   37.9070 C   0  0  0  0  0  0  0  0  0  0  0  0
   29.0700   32.7920   38.4860 H   0  0  0  0  0  0  0  0  0  0  0  0
   29.7290   30.7710   38.4210 C   0  0  0  0  0  0  0  0  0  0  0  0
   29.2970   30.5810   39.3970 H   0  0  0  0  0  0  0  0  0  0  0  0
   30.3950   29.8120   37.6900 C   0  0  0  0  0  3  0  0  0  0  0  0
   37.3660   27.7000   38.9420 S   0  0  0  0  0  0  0  0  0  0  0  0
   36.9710   26.1340   39.6710 C   0  0  0  0  0  0  0  0  0  0  0  0
   36.4180   25.0730   38.9650 C   0  0  0  0  0  0  0  0  0  0  0  0
   36.1330   23.8690   39.6080 C   0  0  0  0  0  0  0  0  0  0  0  0
   36.3860   23.7020   40.9350 C   0  0  0  0  0  0  0  0  0  0  0  0
   36.9370   24.7620   41.6380 C   0  0  0  0  0  0  0  0  0  0  0  0
   37.2320   25.9750   41.0240 C   0  0  0  0  0  0  0  0  0  0  0  0
   36.2280   25.2340   37.9150 H   0  0  0  0  0  0  0  0  0  0  0  0
   35.7020   23.0610   39.0240 H   0  0  0  0  0  0  0  0  0  0  0  0
   36.1530   22.7530   41.4010 H   0  0  0  0  0  0  0  0  0  0  0  0
   37.1240   24.5950   42.6840 H   0  0  0  0  0  0  0  0  0  0  0  0
   37.8080   27.0700   41.7770 C   0  0  0  0  0  0  0  0  0  0  0  0
   37.0740   27.9700   42.5030 C   0  0  0  0  0  0  0  0  0  0  0  0
   37.6340   29.0210   43.2250 C   0  0  0  0  0  0  0  0  0  0  0  0
   38.9660   29.1580   43.2060 N   0  0  0  0  0  0  0  0  0  0  0  0
   39.6960   28.2760   42.4940 C   0  0  0  0  0  0  0  0  0  0  0  0
   39.1480   27.2570   41.7940 N   0  0  0  0  0  0  0  0  0  0  0  0
   35.9960   27.8380   42.5030 H   0  0  0  0  0  0  0  0  0  0  0  0
   36.9480   29.6570   43.7530 H   0  0  0  0  0  0  0  0  0  0  0  0
   40.7900   28.3440   42.4450 H   0  0  0  0  0  0  0  0  0  0  0  0
  1  2  1  0  0  0  0
  2  3  2  0  0  0  0
  2 24  1  0  0  0  0
  3  8  1  0  0  0  0
  4  3  1  0  0  0  0
  5  4  2  0  0  0  0
  6  5  1  0  0  0  0
  6  1  2  0  0  0  0
  7  1  1  0  0  0  0
  9 12  1  0  0  0  0
  9  5  1  0  0  0  0
 10  9  1  0  0  0  0
 11  9  1  0  0  0  0
 12 13  1  0  0  0  0
 12 15  1  0  0  0  0
 14 12  1  0  0  0  0
 15 23  1  0  0  0  0
 16 15  2  0  0  0  0
 16 18  1  0  0  0  0
 17 16  1  0  0  0  0
 18 19  2  0  0  0  0
 19 21  1  0  0  0  0
 19 20  1  0  0  0  0
 21 22  1  0  0  0  0
 23 21  2  0  0  0  0
 24 25  1  0  0  0  0
 25 30  1  0  0  0  0
 26 27  1  0  0  0  0
 26 25  2  0  0  0  0
 27 28  2  0  0  0  0
 28 33  1  0  0  0  0
 28 29  1  0  0  0  0
 29 34  1  0  0  0  0
 30 29  2  0  0  0  0
 30 35  1  0  0  0  0
 31 26  1  0  0  0  0
 32 27  1  0  0  0  0
 35 40  2  0  0  0  0
 35 36  1  0  0  0  0
 36 41  1  0  0  0  0
 36 37  2  0  0  0  0
 37 42  1  0  0  0  0
 38 37  1  0  0  0  0
 39 38  2  0  0  0  0
 40 39  1  0  0  0  0
 43 39  1  0  0  0  0
M  END
>  <minimizedAffinity>
-5.75875711

$$$$

 OpenBabel03242517493D

 43 46  0  0  0  0  0  0  0  0999 V2000
   38.2720   28.2930   41.1310 C   0  0  0  0  0  0  0  0  0  0  0  0
   37.3660   29.0590   41.8970 C   0  0  0  0  0  0  0  0  0  0  0  0
   37.3020   28.8140   43.2560 C   0  0  0  0  0  0  0  0  0  0  0  0
   38.0950   27.8650   43.7900 N   0  0  0  0  0  0  0  0  0  0  0  0
   38.9620   27.1420   43.0200 C   0  0  0  0  0  0  0  0  0  0  0  0
   39.0670   27.3340   41.7070 N   0  0  0  0  0  0  0  0  0  0  0  0
   38.3310   28.4760   40.0770 H   0  0  0  0  0  0  0  0  0  0  0  0
   36.6080   29.3930   43.8740 H   0  0  0  0  0  0  0  0  0  0  0  0
   39.8050   26.1140   43.6710 C   0  0  0  0  0  0  0  0  0  0  0  0
   40.6510   26.5950   44.2270 H   0  0  0  0  0  0  0  0  0  0  0  0
   39.2140   25.6080   44.4610 H   0  0  0  0  0  0  0  0  0  0  0  0
   40.3600   25.1110   42.6740 C   0  0  0  0  0  0  0  0  0  0  0  0
   39.7150   25.1920   41.7640 H   0  0  0  0  0  0  0  0  0  0  0  0
   40.1300   24.1030   43.0910 H   0  0  0  0  0  0  0  0  0  0  0  0
   41.7770   25.3140   42.3790 C   0  0  0  0  0  0  0  0  0  0  0  0
   42.2410   25.4330   41.0830 C   0  0  0  0  0  0  0  0  0  0  0  0
   41.5590   25.3800   40.2210 H   0  0  0  0  0  0  0  0  0  0  0  0
   43.5870   25.6260   40.8470 C   0  0  0  0  0  3  0  0  0  0  0  0
   44.5250   25.7070   41.8600 C   0  0  0  0  0  0  0  0  0  0  0  0
   45.5820   25.8570   41.6860 H   0  0  0  0  0  0  0  0  0  0  0  0
   44.0670   25.5890   43.1550 C   0  0  0  0  0  0  0  0  0  0  0  0
   44.8020   25.6530   43.9490 H   0  0  0  0  0  0  0  0  0  0  0  0
   42.7220   25.3980   43.3850 C   0  0  0  0  0  3  0  0  0  0  0  0
   36.3570   30.2880   41.1160 S   0  0  0  0  0  0  0  0  0  0  0  0
   36.3750   30.0630   39.3590 C   0  0  0  0  0  0  0  0  0  0  0  0
   35.5980   29.1230   38.6940 C   0  0  0  0  0  0  0  0  0  0  0  0
   35.6660   29.0040   37.3060 C   0  0  0  0  0  0  0  0  0  0  0  0
   36.4910   29.8000   36.5710 C   0  0  0  0  0  0  0  0  0  0  0  0
   37.2650   30.7370   37.2360 C   0  0  0  0  0  0  0  0  0  0  0  0
   37.2190   30.8790   38.6190 C   0  0  0  0  0  0  0  0  0  0  0  0
   34.9550   28.5060   39.3020 H   0  0  0  0  0  0  0  0  0  0  0  0
   35.0440   28.2580   36.8210 H   0  0  0  0  0  0  0  0  0  0  0  0
   36.5170   29.6800   35.4950 H   0  0  0  0  0  0  0  0  0  0  0  0
   37.9040   31.3490   36.6230 H   0  0  0  0  0  0  0  0  0  0  0  0
   38.0370   31.8650   39.2940 C   0  0  0  0  0  0  0  0  0  0  0  0
   39.3030   31.6230   39.7570 C   0  0  0  0  0  0  0  0  0  0  0  0
   40.0840   32.5770   40.4050 C   0  0  0  0  0  0  0  0  0  0  0  0
   39.5660   33.7980   40.5860 N   0  0  0  0  0  0  0  0  0  0  0  0
   38.3200   34.0450   40.1340 C   0  0  0  0  0  0  0  0  0  0  0  0
   37.5650   33.1160   39.5050 N   0  0  0  0  0  0  0  0  0  0  0  0
   39.7020   30.6260   39.5980 H   0  0  0  0  0  0  0  0  0  0  0  0
   41.0620   32.2590   40.7190 H   0  0  0  0  0  0  0  0  0  0  0  0
   37.8490   35.0280   40.2560 H   0  0  0  0  0  0  0  0  0  0  0  0
  1  6  2  0  0  0  0
  1  2  1  0  0  0  0
  2  3  2  0  0  0  0
  3  4  1  0  0  0  0
  3  8  1  0  0  0  0
  5  9  1  0  0  0  0
  5  4  2  0  0  0  0
  6  5  1  0  0  0  0
  7  1  1  0  0  0  0
  9 10  1  0  0  0  0
  9 11  1  0  0  0  0
 12 14  1  0  0  0  0
 12  9  1  0  0  0  0
 13 12  1  0  0  0  0
 15 12  1  0  0  0  0
 15 23  1  0  0  0  0
 16 15  2  0  0  0  0
 17 16  1  0  0  0  0
 18 16  1  0  0  0  0
 18 19  2  0  0  0  0
 19 21  1  0  0  0  0
 20 19  1  0  0  0  0
 21 23  2  0  0  0  0
 21 22  1  0  0  0  0
 24  2  1  0  0  0  0
 25 24  1  0  0  0  0
 26 31  1  0  0  0  0
 26 25  1  0  0  0  0
 27 26  2  0  0  0  0
 28 29  2  0  0  0  0
 28 27  1  0  0  0  0
 29 30  1  0  0  0  0
 30 35  1  0  0  0  0
 30 25  2  0  0  0  0
 32 27  1  0  0  0  0
 33 28  1  0  0  0  0
 34 29  1  0  0  0  0
 35 40  2  0  0  0  0
 35 36  1  0  0  0  0
 36 37  2  0  0  0  0
 37 38  1  0  0  0  0
 37 42  1  0  0  0  0
 39 43  1  0  0  0  0
 39 38  2  0  0  0  0
 40 39  1  0  0  0  0
 41 36  1  0  0  0  0
M  END
>  <minimizedAffinity>
-5.75427961

$$$$

 OpenBabel03242517493D

 43 46  0  0  0  0  0  0  0  0999 V2000
   36.4350   30.0070   38.4600 C   0  0  0  0  0  0  0  0  0  0  0  0
   35.8360   29.8390   39.7280 C   0  0  0  0  0  0  0  0  0  0  0  0
   34.5960   29.2330   39.7790 C   0  0  0  0  0  0  0  0  0  0  0  0
   34.0130   28.8310   38.6320 N   0  0  0  0  0  0  0  0  0  0  0  0
   34.6210   29.0090   37.4210 C   0  0  0  0  0  0  0  0  0  0  0  0
   35.8150   29.5870   37.3110 N   0  0  0  0  0  0  0  0  0  0  0  0
   37.3980   30.4760   38.4090 H   0  0  0  0  0  0  0  0  0  0  0  0
   34.1070   29.0890   40.7480 H   0  0  0  0  0  0  0  0  0  0  0  0
   33.9250   28.5450   36.2000 C   0  0  0  0  0  0  0  0  0  0  0  0
   34.2280   29.1640   35.3160 H   0  0  0  0  0  0  0  0  0  0  0  0
   34.2770   27.5230   35.9490 H   0  0  0  0  0  0  0  0  0  0  0  0
   32.4140   28.5830   36.3510 C   0  0  0  0  0  0  0  0  0  0  0  0
   32.2060   28.3540   37.4260 H   0  0  0  0  0  0  0  0  0  0  0  0
   32.0270   27.6960   35.7970 H   0  0  0  0  0  0  0  0  0  0  0  0
   31.8230   29.8480   35.9200 C   0  0  0  0  0  0  0  0  0  0  0  0
   32.0160   30.3450   34.6460 C   0  0  0  0  0  0  0  0  0  0  0  0
   32.6240   29.8060   33.9030 H   0  0  0  0  0  0  0  0  0  0  0  0
   31.4400   31.5440   34.2780 C   0  0  0  0  0  3  0  0  0  0  0  0
   30.6590   32.2980   35.1340 C   0  0  0  0  0  0  0  0  0  0  0  0
   30.2030   33.2390   34.8570 H   0  0  0  0  0  0  0  0  0  0  0  0
   30.4630   31.8060   36.4080 C   0  0  0  0  0  0  0  0  0  0  0  0
   29.8500   32.3970   37.0790 H   0  0  0  0  0  0  0  0  0  0  0  0
   31.0400   30.6090   36.7690 C   0  0  0  0  0  3  0  0  0  0  0  0
   36.6710   30.3960   41.1880 S   0  0  0  0  0  0  0  0  0  0  0  0
   37.9560   31.5370   40.7570 C   0  0  0  0  0  0  0  0  0  0  0  0
   37.7210   32.8450   40.3520 C   0  0  0  0  0  0  0  0  0  0  0  0
   38.7860   33.6860   40.0290 C   0  0  0  0  0  0  0  0  0  0  0  0
   40.0740   33.2500   40.0990 C   0  0  0  0  0  0  0  0  0  0  0  0
   40.3060   31.9440   40.5030 C   0  0  0  0  0  0  0  0  0  0  0  0
   39.2650   31.0820   40.8330 C   0  0  0  0  0  0  0  0  0  0  0  0
   36.6920   33.1620   40.3050 H   0  0  0  0  0  0  0  0  0  0  0  0
   38.5650   34.7020   39.7160 H   0  0  0  0  0  0  0  0  0  0  0  0
   40.8760   33.9300   39.8410 H   0  0  0  0  0  0  0  0  0  0  0  0
   41.3350   31.6350   40.5490 H   0  0  0  0  0  0  0  0  0  0  0  0
   39.5290   29.7220   41.2520 C   0  0  0  0  0  0  0  0  0  0  0  0
   39.6350   28.6620   40.3920 C   0  0  0  0  0  0  0  0  0  0  0  0
   39.8900   27.3560   40.8030 C   0  0  0  0  0  0  0  0  0  0  0  0
   40.0370   27.1250   42.1140 N   0  0  0  0  0  0  0  0  0  0  0  0
   39.9330   28.1630   42.9680 C   0  0  0  0  0  0  0  0  0  0  0  0
   39.6870   29.4300   42.5650 N   0  0  0  0  0  0  0  0  0  0  0  0
   39.5130   28.8730   39.3340 H   0  0  0  0  0  0  0  0  0  0  0  0
   39.9500   26.6140   40.0270 H   0  0  0  0  0  0  0  0  0  0  0  0
   40.0460   28.0290   44.0510 H   0  0  0  0  0  0  0  0  0  0  0  0
  1  2  1  0  0  0  0
  2  3  2  0  0  0  0
  2 24  1  0  0  0  0
  3  8  1  0  0  0  0
  4  3  1  0  0  0  0
  5  4  2  0  0  0  0
  6  5  1  0  0  0  0
  6  1  2  0  0  0  0
  7  1  1  0  0  0  0
  9 12  1  0  0  0  0
  9  5  1  0  0  0  0
 10  9  1  0  0  0  0
 11  9  1  0  0  0  0
 12 13  1  0  0  0  0
 14 12  1  0  0  0  0
 15 12  1  0  0  0  0
 15 23  1  0  0  0  0
 16 15  2  0  0  0  0
 17 16  1  0  0  0  0
 18 16  1  0  0  0  0
 18 19  2  0  0  0  0
 19 21  1  0  0  0  0
 20 19  1  0  0  0  0
 21 23  2  0  0  0  0
 21 22  1  0  0  0  0
 25 30  1  0  0  0  0
 25 24  1  0  0  0  0
 26 25  2  0  0  0  0
 27 28  2  0  0  0  0
 27 26  1  0  0  0  0
 28 29  1  0  0  0  0
 29 34  1  0  0  0  0
 29 30  2  0  0  0  0
 30 35  1  0  0  0  0
 31 26  1  0  0  0  0
 32 27  1  0  0  0  0
 33 28  1  0  0  0  0
 35 40  1  0  0  0  0
 36 37  1  0  0  0  0
 36 35  2  0  0  0  0
 37 38  2  0  0  0  0
 38 39  1  0  0  0  0
 39 43  1  0  0  0  0
 40 39  2  0  0  0  0
 41 36  1  0  0  0  0
 42 37  1  0  0  0  0
M  END
>  <minimizedAffinity>
-5.74791193

$$$$
