
 OpenBabel03252509313D

 27 28  0  0  0  0  0  0  0  0999 V2000
   50.0280   32.9830   41.4290 O   0  0  0  0  0  0  0  0  0  0  0  0
   49.2160   34.1160   41.9800 P   0  0  2  0  0  0  0  0  0  0  0  0
   50.1290   35.1240   42.9970 O   0  0  0  0  0  0  0  0  0  0  0  0
   51.0590   34.8130   42.9910 H   0  0  0  0  0  0  0  0  0  0  0  0
   47.9480   33.5090   42.9190 O   0  0  0  0  0  0  0  0  0  0  0  0
   46.8660   34.3850   42.7350 C   0  0  0  0  0  0  0  0  0  0  0  0
   46.1820   33.9980   41.9370 H   0  0  0  0  0  0  0  0  0  0  0  0
   47.1830   35.3980   42.4080 H   0  0  0  0  0  0  0  0  0  0  0  0
   45.4800   33.7750   46.1390 C   0  0  0  0  0  0  0  0  0  0  0  0
   46.2490   33.6140   44.9840 C   0  0  0  0  0  0  0  0  0  0  0  0
   46.0860   34.5140   43.9570 C   0  0  0  0  0  0  0  0  0  0  0  0
   45.1700   35.5410   44.1060 N   0  0  0  0  0  0  0  0  0  0  0  0
   44.4410   35.6570   45.2530 C   0  0  0  0  0  0  0  0  0  0  0  0
   44.5930   34.7940   46.2470 N   0  0  0  0  0  0  0  0  0  0  0  0
   45.6660   33.0280   46.8990 H   0  0  0  0  0  0  0  0  0  0  0  0
   46.9710   32.8180   44.8470 H   0  0  0  0  0  0  0  0  0  0  0  0
   43.7300   36.4870   45.3220 H   0  0  0  0  0  0  0  0  0  0  0  0
   48.5790   35.0120   40.7120 O   0  0  0  0  0  0  0  0  0  0  0  0
   48.0690   34.3850   39.5860 C   0  0  0  0  0  0  0  0  0  0  0  0
   48.7090   34.8590   38.4430 C   0  0  0  0  0  0  0  0  0  0  0  0
   49.4890   35.6000   38.3830 H   0  0  0  0  0  0  0  0  0  0  0  0
   48.3640   34.3730   37.1780 C   0  0  0  0  0  3  0  0  0  0  0  0
   47.3790   33.4160   37.0640 C   0  0  0  0  0  0  0  0  0  0  0  0
   47.0630   33.0000   36.1300 H   0  0  0  0  0  0  0  0  0  0  0  0
   46.7450   32.9510   38.2210 C   0  0  0  0  0  0  0  0  0  0  0  0
   45.9560   32.1900   38.1860 H   0  0  0  0  0  0  0  0  0  0  0  0
   47.0870   33.4300   39.4680 C   0  0  0  0  0  3  0  0  0  0  0  0
  2  1  2  6  0  0  0
  2  5  1  0  0  0  0
  2  3  1  0  0  0  0
  4  3  1  0  0  0  0
  6  5  1  0  0  0  0
  6 11  1  0  0  0  0
  7  6  1  0  0  0  0
  8  6  1  0  0  0  0
  9 14  1  0  0  0  0
  9 15  1  0  0  0  0
 10  9  2  0  0  0  0
 11 12  2  0  0  0  0
 11 10  1  0  0  0  0
 12 13  1  0  0  0  0
 13 17  1  0  0  0  0
 13 14  2  0  0  0  0
 16 10  1  0  0  0  0
 18  2  1  0  0  0  0
 19 18  1  0  0  0  0
 20 19  2  0  0  0  0
 21 20  1  0  0  0  0
 22 20  1  0  0  0  0
 23 22  2  0  0  0  0
 23 25  1  0  0  0  0
 24 23  1  0  0  0  0
 25 27  2  0  0  0  0
 26 25  1  0  0  0  0
 27 19  1  0  0  0  0
M  END
>  <minimizedAffinity>
-4.92590761

>  <minimizedRMSD>
1.29208076

$$$$
