
 OpenBabel03252509313D

 27 28  0  0  0  0  0  0  0  0999 V2000
   49.8980   33.0360   41.4890 O   0  0  0  0  0  0  0  0  0  0  0  0
   49.1500   34.0750   42.2690 P   0  0  2  0  0  0  0  0  0  0  0  0
   50.1910   35.1970   43.0040 O   0  0  0  0  0  0  0  0  0  0  0  0
   51.1110   34.9960   42.7290 H   0  0  0  0  0  0  0  0  0  0  0  0
   48.2810   33.3380   43.5180 O   0  0  0  0  0  0  0  0  0  0  0  0
   46.9430   33.2960   43.0960 C   0  0  0  0  0  0  0  0  0  0  0  0
   46.5750   32.2380   43.0730 H   0  0  0  0  0  0  0  0  0  0  0  0
   46.8010   33.6960   42.0700 H   0  0  0  0  0  0  0  0  0  0  0  0
   45.0400   34.3290   46.1270 C   0  0  0  0  0  0  0  0  0  0  0  0
   45.8690   33.5840   45.2870 C   0  0  0  0  0  0  0  0  0  0  0  0
   46.0860   34.0390   44.0070 C   0  0  0  0  0  0  0  0  0  0  0  0
   45.4760   35.2150   43.6030 N   0  0  0  0  0  0  0  0  0  0  0  0
   44.6740   35.9090   44.4610 C   0  0  0  0  0  0  0  0  0  0  0  0
   44.4610   35.4760   45.6960 N   0  0  0  0  0  0  0  0  0  0  0  0
   44.9190   33.9050   47.1160 H   0  0  0  0  0  0  0  0  0  0  0  0
   46.3560   32.6620   45.5820 H   0  0  0  0  0  0  0  0  0  0  0  0
   44.2150   36.8330   44.0930 H   0  0  0  0  0  0  0  0  0  0  0  0
   48.0800   34.8710   41.2520 O   0  0  0  0  0  0  0  0  0  0  0  0
   47.7920   34.3720   39.9920 C   0  0  0  0  0  0  0  0  0  0  0  0
   48.6270   34.9580   39.0430 C   0  0  0  0  0  0  0  0  0  0  0  0
   49.3970   35.6930   39.2070 H   0  0  0  0  0  0  0  0  0  0  0  0
   48.5270   34.6110   37.6910 C   0  0  0  0  0  3  0  0  0  0  0  0
   47.5890   33.6800   37.2970 C   0  0  0  0  0  0  0  0  0  0  0  0
   47.4570   33.3690   36.2840 H   0  0  0  0  0  0  0  0  0  0  0  0
   46.7590   33.1000   38.2620 C   0  0  0  0  0  0  0  0  0  0  0  0
   45.9980   32.3550   38.0030 H   0  0  0  0  0  0  0  0  0  0  0  0
   46.8600   33.4440   39.5940 C   0  0  0  0  0  3  0  0  0  0  0  0
  2  1  2  6  0  0  0
  2  3  1  0  0  0  0
  2  5  1  0  0  0  0
  4  3  1  0  0  0  0
  6  5  1  0  0  0  0
  6 11  1  0  0  0  0
  7  6  1  0  0  0  0
  8  6  1  0  0  0  0
  9 15  1  0  0  0  0
 10 16  1  0  0  0  0
 10  9  2  0  0  0  0
 11 10  1  0  0  0  0
 12 11  2  0  0  0  0
 12 13  1  0  0  0  0
 13 14  2  0  0  0  0
 14  9  1  0  0  0  0
 17 13  1  0  0  0  0
 18  2  1  0  0  0  0
 19 18  1  0  0  0  0
 20 21  1  0  0  0  0
 20 19  2  0  0  0  0
 22 20  1  0  0  0  0
 23 22  2  0  0  0  0
 23 25  1  0  0  0  0
 24 23  1  0  0  0  0
 25 27  2  0  0  0  0
 26 25  1  0  0  0  0
 27 19  1  0  0  0  0
M  END
>  <minimizedAffinity>
-5.08957911

>  <minimizedRMSD>
1.26016879

$$$$
