
 OpenBabel03252509303D

 21 22  0  0  0  0  0  0  0  0999 V2000
   46.8810   32.5470   42.8490 C   0  0  0  0  0  0  0  0  0  0  0  0
   46.0950   33.1020   42.2630 H   0  0  0  0  0  0  0  0  0  0  0  0
   46.8740   31.4700   42.5450 H   0  0  0  0  0  0  0  0  0  0  0  0
   50.5570   32.7020   42.2760 C   0  0  0  0  0  0  0  0  0  0  0  0
   49.2490   32.2020   42.4320 C   0  0  0  0  0  0  0  0  0  0  0  0
   48.2260   33.0970   42.6930 C   0  0  0  0  0  0  0  0  0  0  0  0
   48.5260   34.4180   42.7880 N   0  0  0  0  0  0  0  0  0  0  0  0
   49.7990   34.8810   42.6340 C   0  0  0  0  0  0  0  0  0  0  0  0
   50.7950   34.0160   42.3810 N   0  0  0  0  0  0  0  0  0  0  0  0
   51.3280   31.9920   42.0760 H   0  0  0  0  0  0  0  0  0  0  0  0
   49.0720   31.1390   42.3440 H   0  0  0  0  0  0  0  0  0  0  0  0
   49.9390   35.9670   42.7300 H   0  0  0  0  0  0  0  0  0  0  0  0
   46.5310   32.7050   44.2950 C   0  0  0  0  0  0  0  0  0  0  0  0
   47.0150   31.7920   45.1970 C   0  0  0  0  0  0  0  0  0  0  0  0
   47.6430   30.9780   44.8110 H   0  0  0  0  0  0  0  0  0  0  0  0
   46.8070   31.7660   46.5570 C   0  0  0  0  0  3  0  0  0  0  0  0
   46.0070   32.8060   47.0420 C   0  0  0  0  0  0  0  0  0  0  0  0
   45.8160   32.8240   48.1130 H   0  0  0  0  0  0  0  0  0  0  0  0
   45.4940   33.7550   46.1680 C   0  0  0  0  0  0  0  0  0  0  0  0
   44.8720   34.5530   46.5820 H   0  0  0  0  0  0  0  0  0  0  0  0
   45.7480   33.7130   44.8080 C   0  0  0  0  0  3  0  0  0  0  0  0
  1 13  1  0  0  0  0
  2  1  1  0  0  0  0
  3  1  1  0  0  0  0
  4  9  2  0  0  0  0
  4  5  1  0  0  0  0
  5  6  2  0  0  0  0
  6  7  1  0  0  0  0
  6  1  1  0  0  0  0
  8 12  1  0  0  0  0
  8  7  2  0  0  0  0
  9  8  1  0  0  0  0
 10  4  1  0  0  0  0
 11  5  1  0  0  0  0
 13 21  2  0  0  0  0
 13 14  1  0  0  0  0
 14 16  2  0  0  0  0
 15 14  1  0  0  0  0
 16 17  1  0  0  0  0
 17 18  1  0  0  0  0
 19 20  1  0  0  0  0
 19 17  2  0  0  0  0
 21 19  1  0  0  0  0
M  END
>  <minimizedAffinity>
-3.54015207

>  <minimizedRMSD>
5.63203526

$$$$
