
 OpenBabel03252505113D

 44 47  0  0  1  0  0  0  0  0999 V2000
   44.5590   35.5820   44.6230 C   0  0  0  0  0  0  0  0  0  0  0  0
   45.2380   35.6120   43.3860 C   0  0  0  0  0  0  0  0  0  0  0  0
   46.3450   34.7160   43.2120 C   0  0  0  0  0  0  0  0  0  0  0  0
   46.6850   33.8900   44.2310 N   0  0  0  0  0  0  0  0  0  0  0  0
   46.0110   33.8960   45.3890 C   0  0  0  0  0  0  0  0  0  0  0  0
   44.9430   34.7380   45.6000 N   0  0  0  0  0  0  0  0  0  0  0  0
   43.7270   36.2370   44.7910 H   0  0  0  0  0  0  0  0  0  0  0  0
   44.9280   36.2840   42.6140 H   0  0  0  0  0  0  0  0  0  0  0  0
   46.4270   32.9730   46.4750 C   0  0  2  0  0  0  0  0  0  0  0  0
   46.9530   31.7470   45.7590 C   0  0  0  0  0  0  0  0  0  0  0  0
   46.0850   30.5620   45.7680 C   0  0  0  0  0  0  0  0  0  0  0  0
   45.7850   30.2830   47.2400 C   0  0  0  0  0  0  0  0  0  0  0  0
   45.0040   31.3430   47.8550 C   0  0  0  0  0  0  0  0  0  0  0  0
   45.3800   32.7140   47.4220 C   0  0  0  0  0  0  0  0  0  0  0  0
   47.2770   33.4960   46.9810 H   0  0  0  0  0  0  0  0  0  0  0  0
   47.9140   31.4690   46.2530 H   0  0  0  0  0  0  0  0  0  0  0  0
   47.2420   31.9480   44.7030 H   0  0  0  0  0  0  0  0  0  0  0  0
   46.6720   29.6990   45.4240 H   0  0  0  0  0  0  0  0  0  0  0  0
   45.1440   30.7090   45.2190 H   0  0  0  0  0  0  0  0  0  0  0  0
   46.7210   30.1100   47.7860 H   0  0  0  0  0  0  0  0  0  0  0  0
   45.1270   29.3890   47.2190 H   0  0  0  0  0  0  0  0  0  0  0  0
   44.2110   31.4130   48.5530 H   0  0  0  0  0  0  0  0  0  0  0  0
   44.6960   33.8550   47.9470 N   0  0  0  0  0  0  0  0  0  0  0  0
   45.2900   34.3900   48.6350 H   0  0  0  0  0  0  0  0  0  0  0  0
   43.7380   33.9670   47.5670 H   0  0  0  0  0  0  0  0  0  0  0  0
   47.0610   34.7230   41.9480 C   0  0  0  0  0  0  0  0  0  0  0  0
   48.1790   35.4710   41.8380 C   0  0  0  0  0  0  0  0  0  0  0  0
   48.8310   35.4460   40.5920 C   0  0  0  0  0  0  0  0  0  0  0  0
   48.2550   34.6580   39.6110 C   0  0  0  0  0  0  0  0  0  0  0  0
   47.1150   33.8980   39.7250 C   0  0  0  0  0  0  0  0  0  0  0  0
   46.5380   33.9670   40.9520 N   0  0  0  0  0  0  0  0  0  0  0  0
   48.5950   36.0740   42.6340 H   0  0  0  0  0  0  0  0  0  0  0  0
   49.7350   36.0080   40.3940 H   0  0  0  0  0  0  0  0  0  0  0  0
   48.7790   34.6550   38.6510 H   0  0  0  0  0  0  0  0  0  0  0  0
   46.6240   33.1520   38.6820 O   0  0  0  0  0  0  0  0  0  0  0  0
   47.5280   32.6360   37.7630 C   0  0  0  0  0  0  0  0  0  0  0  0
   47.7450   33.1890   36.5180 C   0  0  0  0  0  0  0  0  0  0  0  0
   47.1860   34.0720   36.2330 H   0  0  0  0  0  0  0  0  0  0  0  0
   48.6720   32.5800   35.6940 C   0  0  0  0  0  0  0  0  0  0  0  0
   49.3480   31.4540   36.1260 C   0  0  0  0  0  0  0  0  0  0  0  0
   50.0730   30.9920   35.4640 H   0  0  0  0  0  0  0  0  0  0  0  0
   49.1270   30.9030   37.3760 C   0  0  0  0  0  0  0  0  0  0  0  0
   49.6640   30.0140   37.7140 H   0  0  0  0  0  0  0  0  0  0  0  0
   48.1950   31.5120   38.2090 C   0  0  0  0  0  0  0  0  0  0  0  0
  1  7  1  0  0  0  0
  1  6  1  0  0  0  0
  2  1  2  0  0  0  0
  3  2  1  0  0  0  0
  3  4  2  0  0  0  0
  4  5  1  0  0  0  0
  5  6  2  0  0  0  0
  5  9  1  0  0  0  0
  8  2  1  0  0  0  0
  9 15  1  1  0  0  0
  9 14  1  0  0  0  0
 10 11  1  0  0  0  0
 10 16  1  0  0  0  0
 10  9  1  0  0  0  0
 11 12  1  0  0  0  0
 12 20  1  0  0  0  0
 12 13  1  0  0  0  0
 13 22  1  0  0  0  0
 14 13  2  0  0  0  0
 14 23  1  0  0  0  0
 17 10  1  0  0  0  0
 18 11  1  0  0  0  0
 19 11  1  0  0  0  0
 21 12  1  0  0  0  0
 23 24  1  0  0  0  0
 25 23  1  0  0  0  0
 26  3  1  0  0  0  0
 27 26  1  0  0  0  0
 27 32  1  0  0  0  0
 28 27  2  0  0  0  0
 29 30  2  0  0  0  0
 29 28  1  0  0  0  0
 30 31  1  0  0  0  0
 31 26  2  0  0  0  0
 33 28  1  0  0  0  0
 34 29  1  0  0  0  0
 35 30  1  0  0  0  0
 36 44  1  0  0  0  0
 36 35  1  0  0  0  0
 37 36  2  0  0  0  0
 38 37  1  0  0  0  0
 39 40  2  0  0  0  0
 39 37  1  0  0  0  0
 40 42  1  0  0  0  0
 41 40  1  0  0  0  0
 42 43  1  0  0  0  0
 42 44  2  0  0  0  0
M  END
>  <minimizedAffinity>
-7.14834595

>  <minimizedRMSD>
0.695661843

$$$$
