
 OpenBabel03252509303D

 21 22  0  0  0  0  0  0  0  0999 V2000
   44.7470   34.3110   42.4970 C   0  0  0  0  0  0  0  0  0  0  0  0
   44.6110   34.9000   43.4470 H   0  0  0  0  0  0  0  0  0  0  0  0
   43.9190   34.5620   41.7880 H   0  0  0  0  0  0  0  0  0  0  0  0
   47.4530   34.1740   39.9440 C   0  0  0  0  0  0  0  0  0  0  0  0
   46.2190   33.9770   40.5940 C   0  0  0  0  0  0  0  0  0  0  0  0
   46.0380   34.5320   41.8490 C   0  0  0  0  0  0  0  0  0  0  0  0
   47.0570   35.2400   42.4000 N   0  0  0  0  0  0  0  0  0  0  0  0
   48.2440   35.4170   41.7540 C   0  0  0  0  0  0  0  0  0  0  0  0
   48.4240   34.8810   40.5360 N   0  0  0  0  0  0  0  0  0  0  0  0
   47.5680   33.7370   38.9770 H   0  0  0  0  0  0  0  0  0  0  0  0
   45.4440   33.4040   40.1030 H   0  0  0  0  0  0  0  0  0  0  0  0
   49.0060   36.0060   42.2850 H   0  0  0  0  0  0  0  0  0  0  0  0
   44.7140   32.8640   42.8790 C   0  0  0  0  0  0  0  0  0  0  0  0
   45.5990   32.4080   43.8210 C   0  0  0  0  0  0  0  0  0  0  0  0
   46.3000   33.1330   44.2560 H   0  0  0  0  0  0  0  0  0  0  0  0
   45.7240   31.1240   44.3020 C   0  0  0  0  0  3  0  0  0  0  0  0
   44.8290   30.2050   43.7430 C   0  0  0  0  0  0  0  0  0  0  0  0
   44.8950   29.1780   44.0960 H   0  0  0  0  0  0  0  0  0  0  0  0
   43.9140   30.6190   42.7860 C   0  0  0  0  0  0  0  0  0  0  0  0
   43.2300   29.8740   42.3710 H   0  0  0  0  0  0  0  0  0  0  0  0
   43.8490   31.9320   42.3520 C   0  0  0  0  0  3  0  0  0  0  0  0
  1 13  1  0  0  0  0
  1  2  1  0  0  0  0
  3  1  1  0  0  0  0
  4  9  2  0  0  0  0
  4  5  1  0  0  0  0
  5  6  2  0  0  0  0
  6  7  1  0  0  0  0
  6  1  1  0  0  0  0
  8 12  1  0  0  0  0
  8  7  2  0  0  0  0
  9  8  1  0  0  0  0
 10  4  1  0  0  0  0
 11  5  1  0  0  0  0
 13 14  1  0  0  0  0
 14 15  1  0  0  0  0
 14 16  2  0  0  0  0
 17 18  1  0  0  0  0
 17 16  1  0  0  0  0
 19 17  2  0  0  0  0
 20 19  1  0  0  0  0
 21 19  1  0  0  0  0
 21 13  2  0  0  0  0
M  END
>  <minimizedAffinity>
-3.00949574

>  <minimizedRMSD>
5.65686369

$$$$
