
 OpenBabel03252509303D

 21 22  0  0  0  0  0  0  0  0999 V2000
   45.7030   33.1730   42.2000 C   0  0  0  0  0  0  0  0  0  0  0  0
   46.1160   32.1470   42.4090 H   0  0  0  0  0  0  0  0  0  0  0  0
   44.8100   33.0810   41.5330 H   0  0  0  0  0  0  0  0  0  0  0  0
   44.3720   35.8870   44.3750 C   0  0  0  0  0  0  0  0  0  0  0  0
   44.7290   35.1450   43.2310 C   0  0  0  0  0  0  0  0  0  0  0  0
   45.3460   33.9190   43.4050 C   0  0  0  0  0  0  0  0  0  0  0  0
   45.5820   33.4830   44.6700 N   0  0  0  0  0  0  0  0  0  0  0  0
   45.2300   34.2170   45.7630 C   0  0  0  0  0  0  0  0  0  0  0  0
   44.6300   35.4080   45.5990 N   0  0  0  0  0  0  0  0  0  0  0  0
   43.8980   36.8290   44.2140 H   0  0  0  0  0  0  0  0  0  0  0  0
   44.5140   35.5440   42.2500 H   0  0  0  0  0  0  0  0  0  0  0  0
   45.4640   33.7780   46.7430 H   0  0  0  0  0  0  0  0  0  0  0  0
   46.7970   33.9510   41.5380 C   0  0  0  0  0  0  0  0  0  0  0  0
   47.6110   34.7390   42.3110 C   0  0  0  0  0  0  0  0  0  0  0  0
   47.4200   34.7630   43.3930 H   0  0  0  0  0  0  0  0  0  0  0  0
   48.6630   35.5220   41.8920 C   0  0  0  0  0  3  0  0  0  0  0  0
   48.8990   35.4870   40.5140 C   0  0  0  0  0  0  0  0  0  0  0  0
   49.7230   36.0930   40.1410 H   0  0  0  0  0  0  0  0  0  0  0  0
   48.1030   34.7040   39.6910 C   0  0  0  0  0  0  0  0  0  0  0  0
   48.3170   34.7020   38.6190 H   0  0  0  0  0  0  0  0  0  0  0  0
   47.0600   33.9410   40.1880 C   0  0  0  0  0  3  0  0  0  0  0  0
  1  2  1  0  0  0  0
  1  6  1  0  0  0  0
  3  1  1  0  0  0  0
  4  9  1  0  0  0  0
  5  6  1  0  0  0  0
  5  4  2  0  0  0  0
  6  7  2  0  0  0  0
  7  8  1  0  0  0  0
  8 12  1  0  0  0  0
  9  8  2  0  0  0  0
 10  4  1  0  0  0  0
 11  5  1  0  0  0  0
 13  1  1  0  0  0  0
 13 14  1  0  0  0  0
 14 15  1  0  0  0  0
 16 14  2  0  0  0  0
 17 16  1  0  0  0  0
 18 17  1  0  0  0  0
 19 21  1  0  0  0  0
 19 17  2  0  0  0  0
 20 19  1  0  0  0  0
 21 13  2  0  0  0  0
M  END
>  <minimizedAffinity>
-4.56555986

>  <minimizedRMSD>
2.0384376

$$$$
