
 OpenBabel03242516313D

 46 50  0  0  0  0  0  0  0  0999 V2000
   36.5270   28.3960   40.3660 C   0  0  0  0  0  0  0  0  0  0  0  0
   36.0360   28.6840   39.1160 N   0  0  0  0  0  0  0  0  0  0  0  0
   35.7680   27.7600   38.2000 C   0  0  0  0  0  0  0  0  0  0  0  0
   35.9940   26.4880   38.5260 N   0  0  0  0  0  0  0  0  0  0  0  0
   36.4720   26.1190   39.7210 C   0  0  0  0  0  0  0  0  0  0  0  0
   36.6960   24.7960   40.0680 C   0  0  0  0  0  0  0  0  0  0  0  0
   37.1690   24.4460   41.2890 C   0  0  0  0  0  0  0  0  0  0  0  0
   37.4390   25.4060   42.2120 C   0  0  0  0  0  0  0  0  0  0  0  0
   37.2360   26.7570   41.9180 C   0  0  0  0  0  0  0  0  0  0  0  0
   36.7560   27.0930   40.6880 C   0  0  0  0  0  0  0  0  0  0  0  0
   35.3840   28.0060   37.2260 H   0  0  0  0  0  0  0  0  0  0  0  0
   36.4820   24.0380   39.3360 H   0  0  0  0  0  0  0  0  0  0  0  0
   37.3240   23.3850   41.5070 H   0  0  0  0  0  0  0  0  0  0  0  0
   37.8190   25.0600   43.1750 H   0  0  0  0  0  0  0  0  0  0  0  0
   37.6120   27.7160   42.9780 C   0  0  0  0  0  0  0  0  0  0  0  0
   37.5930   28.7690   42.7010 H   0  0  0  0  0  0  0  0  0  0  0  0
   37.2410   27.4360   43.9840 H   0  0  0  0  0  0  0  0  0  0  0  0
   39.1110   27.6230   43.2390 C   0  0  0  0  0  0  0  0  0  0  0  0
   39.6910   26.6300   44.0290 C   0  0  0  0  0  0  0  0  0  0  0  0
   38.9740   25.9150   44.4510 H   0  0  0  0  0  0  0  0  0  0  0  0
   41.0340   26.5020   44.2960 C   0  0  0  0  0  3  0  0  0  0  0  0
   41.8580   27.4480   43.7240 C   0  0  0  0  0  0  0  0  0  0  0  0
   42.9250   27.4030   43.8940 H   0  0  0  0  0  0  0  0  0  0  0  0
   41.3790   28.4660   42.9280 C   0  0  0  0  0  0  0  0  0  0  0  0
   42.0340   29.2170   42.4740 H   0  0  0  0  0  0  0  0  0  0  0  0
   40.0200   28.5230   42.7110 C   0  0  0  0  0  3  0  0  0  0  0  0
   36.8060   29.6330   41.5360 S   0  0  0  0  0  0  0  0  0  0  0  0
   39.4440   32.5020   40.6400 C   0  0  0  0  0  0  0  0  0  0  0  0
   38.8330   31.3720   41.1410 C   0  0  0  0  0  0  0  0  0  0  0  0
   37.5280   31.0720   40.8430 C   0  0  0  0  0  0  0  0  0  0  0  0
   36.7930   31.9010   40.0280 C   0  0  0  0  0  0  0  0  0  0  0  0
   37.3420   33.0330   39.5030 C   0  0  0  0  0  0  0  0  0  0  0  0
   38.6560   33.3150   39.8170 C   0  0  0  0  0  0  0  0  0  0  0  0
   39.4240   30.7290   41.7790 H   0  0  0  0  0  0  0  0  0  0  0  0
   35.7650   31.6470   39.8040 H   0  0  0  0  0  0  0  0  0  0  0  0
   36.8130   33.7190   38.8600 H   0  0  0  0  0  0  0  0  0  0  0  0
   39.1150   34.2080   39.4130 H   0  0  0  0  0  0  0  0  0  0  0  0
   42.5930   34.3380   40.7760 C   0  0  0  0  0  0  0  0  0  0  0  0
   43.4430   33.4780   41.5040 C   0  0  0  0  0  0  0  0  0  0  0  0
   42.9290   32.2650   41.9480 C   0  0  0  0  0  0  0  0  0  0  0  0
   41.6240   31.9320   41.6760 N   0  0  0  0  0  0  0  0  0  0  0  0
   40.8340   32.8140   40.9570 C   0  0  0  0  0  0  0  0  0  0  0  0
   41.3080   34.0060   40.5100 N   0  0  0  0  0  0  0  0  0  0  0  0
   43.0320   35.2860   40.4420 H   0  0  0  0  0  0  0  0  0  0  0  0
   44.4610   33.7740   41.6970 H   0  0  0  0  0  0  0  0  0  0  0  0
   43.5530   31.5910   42.5040 H   0  0  0  0  0  0  0  0  0  0  0  0
  1 10  1  0  0  0  0
  1 27  1  0  0  0  0
  2  1  2  0  0  0  0
  3  4  2  0  0  0  0
  3  2  1  0  0  0  0
  4  5  1  0  0  0  0
  5  6  2  0  0  0  0
  5 10  1  0  0  0  0
  6  7  1  0  0  0  0
  7 13  1  0  0  0  0
  7  8  2  0  0  0  0
  8 14  1  0  0  0  0
  9  8  1  0  0  0  0
  9 15  1  0  0  0  0
 10  9  2  0  0  0  0
 11  3  1  0  0  0  0
 12  6  1  0  0  0  0
 15 18  1  0  0  0  0
 15 17  1  0  0  0  0
 16 15  1  0  0  0  0
 18 19  1  0  0  0  0
 19 21  2  0  0  0  0
 19 20  1  0  0  0  0
 22 23  1  0  0  0  0
 22 21  1  0  0  0  0
 24 22  2  0  0  0  0
 25 24  1  0  0  0  0
 26 24  1  0  0  0  0
 26 18  2  0  0  0  0
 28 42  1  0  0  0  0
 28 29  1  0  0  0  0
 29 34  1  0  0  0  0
 30 29  2  0  0  0  0
 30 27  1  0  0  0  0
 31 30  1  0  0  0  0
 32 33  1  0  0  0  0
 32 31  2  0  0  0  0
 33 28  2  0  0  0  0
 35 31  1  0  0  0  0
 36 32  1  0  0  0  0
 37 33  1  0  0  0  0
 38 39  1  0  0  0  0
 39 45  1  0  0  0  0
 39 40  2  0  0  0  0
 40 46  1  0  0  0  0
 41 40  1  0  0  0  0
 42 41  2  0  0  0  0
 43 38  2  0  0  0  0
 43 42  1  0  0  0  0
 44 38  1  0  0  0  0
M  END
>  <minimizedAffinity>
-7.13680935

$$$$

 OpenBabel03242516313D

 46 50  0  0  0  0  0  0  0  0999 V2000
   38.8540   30.0710   42.2730 C   0  0  0  0  0  0  0  0  0  0  0  0
   40.1240   30.2530   42.7630 N   0  0  0  0  0  0  0  0  0  0  0  0
   40.9700   31.1640   42.2950 C   0  0  0  0  0  0  0  0  0  0  0  0
   40.5490   31.9350   41.2940 N   0  0  0  0  0  0  0  0  0  0  0  0
   39.3280   31.8250   40.7560 C   0  0  0  0  0  0  0  0  0  0  0  0
   38.8820   32.6350   39.7240 C   0  0  0  0  0  0  0  0  0  0  0  0
   37.6380   32.5120   39.2030 C   0  0  0  0  0  0  0  0  0  0  0  0
   36.7860   31.5730   39.6940 C   0  0  0  0  0  0  0  0  0  0  0  0
   37.1810   30.7260   40.7340 C   0  0  0  0  0  0  0  0  0  0  0  0
   38.4350   30.8640   41.2490 C   0  0  0  0  0  0  0  0  0  0  0  0
   41.9610   31.2900   42.6930 H   0  0  0  0  0  0  0  0  0  0  0  0
   39.5580   33.3770   39.3360 H   0  0  0  0  0  0  0  0  0  0  0  0
   37.3410   33.1810   38.3900 H   0  0  0  0  0  0  0  0  0  0  0  0
   35.8000   31.5240   39.2320 H   0  0  0  0  0  0  0  0  0  0  0  0
   36.1940   29.7090   41.1530 C   0  0  0  0  0  0  0  0  0  0  0  0
   36.5930   28.8360   41.6660 H   0  0  0  0  0  0  0  0  0  0  0  0
   35.2410   30.1390   41.5210 H   0  0  0  0  0  0  0  0  0  0  0  0
   35.6690   28.9740   39.9250 C   0  0  0  0  0  0  0  0  0  0  0  0
   34.4320   29.2480   39.3390 C   0  0  0  0  0  0  0  0  0  0  0  0
   33.8640   30.0430   39.8380 H   0  0  0  0  0  0  0  0  0  0  0  0
   33.9110   28.6160   38.2350 C   0  0  0  0  0  3  0  0  0  0  0  0
   34.6960   27.6300   37.6760 C   0  0  0  0  0  0  0  0  0  0  0  0
   34.3460   27.0940   36.8040 H   0  0  0  0  0  0  0  0  0  0  0  0
   35.9320   27.2880   38.1820 C   0  0  0  0  0  0  0  0  0  0  0  0
   36.5550   26.5050   37.7380 H   0  0  0  0  0  0  0  0  0  0  0  0
   36.3800   27.9700   39.2920 C   0  0  0  0  0  3  0  0  0  0  0  0
   37.7770   28.9080   42.9560 S   0  0  0  0  0  0  0  0  0  0  0  0
   38.3110   25.0650   41.9850 C   0  0  0  0  0  0  0  0  0  0  0  0
   37.8580   26.3660   42.0500 C   0  0  0  0  0  0  0  0  0  0  0  0
   38.4200   27.2780   42.9070 C   0  0  0  0  0  0  0  0  0  0  0  0
   39.4600   26.9100   43.7290 C   0  0  0  0  0  0  0  0  0  0  0  0
   39.9500   25.6380   43.7110 C   0  0  0  0  0  0  0  0  0  0  0  0
   39.3680   24.7380   42.8410 C   0  0  0  0  0  0  0  0  0  0  0  0
   37.0410   26.6410   41.3970 H   0  0  0  0  0  0  0  0  0  0  0  0
   39.8900   27.6440   44.3980 H   0  0  0  0  0  0  0  0  0  0  0  0
   40.7610   25.2950   44.3330 H   0  0  0  0  0  0  0  0  0  0  0  0
   39.7400   23.7210   42.8080 H   0  0  0  0  0  0  0  0  0  0  0  0
   35.8890   23.5490   39.7180 C   0  0  0  0  0  0  0  0  0  0  0  0
   36.5050   22.3360   39.3430 C   0  0  0  0  0  0  0  0  0  0  0  0
   37.7560   22.0420   39.8720 C   0  0  0  0  0  0  0  0  0  0  0  0
   38.3610   22.9240   40.7350 N   0  0  0  0  0  0  0  0  0  0  0  0
   37.7110   24.1000   41.0690 C   0  0  0  0  0  0  0  0  0  0  0  0
   36.4880   24.4150   40.5680 N   0  0  0  0  0  0  0  0  0  0  0  0
   34.9020   23.7480   39.2800 H   0  0  0  0  0  0  0  0  0  0  0  0
   35.9990   21.6690   38.6640 H   0  0  0  0  0  0  0  0  0  0  0  0
   38.2480   21.1260   39.6050 H   0  0  0  0  0  0  0  0  0  0  0  0
  1  2  1  0  0  0  0
  1 27  1  0  0  0  0
  3 11  1  0  0  0  0
  3  2  2  0  0  0  0
  4  3  1  0  0  0  0
  5 10  1  0  0  0  0
  5  4  2  0  0  0  0
  6  5  1  0  0  0  0
  7  8  1  0  0  0  0
  7  6  2  0  0  0  0
  8  9  2  0  0  0  0
  9 15  1  0  0  0  0
  9 10  1  0  0  0  0
 10  1  2  0  0  0  0
 12  6  1  0  0  0  0
 13  7  1  0  0  0  0
 14  8  1  0  0  0  0
 15 17  1  0  0  0  0
 15 16  1  0  0  0  0
 18 15  1  0  0  0  0
 19 20  1  0  0  0  0
 19 18  1  0  0  0  0
 21 19  2  0  0  0  0
 22 24  2  0  0  0  0
 22 21  1  0  0  0  0
 23 22  1  0  0  0  0
 24 26  1  0  0  0  0
 25 24  1  0  0  0  0
 26 18  2  0  0  0  0
 28 29  2  0  0  0  0
 28 33  1  0  0  0  0
 29 30  1  0  0  0  0
 30 27  1  0  0  0  0
 30 31  2  0  0  0  0
 31 35  1  0  0  0  0
 32 31  1  0  0  0  0
 32 36  1  0  0  0  0
 33 32  2  0  0  0  0
 34 29  1  0  0  0  0
 37 33  1  0  0  0  0
 38 43  1  0  0  0  0
 39 38  2  0  0  0  0
 39 40  1  0  0  0  0
 40 41  2  0  0  0  0
 41 42  1  0  0  0  0
 42 28  1  0  0  0  0
 43 42  2  0  0  0  0
 44 38  1  0  0  0  0
 45 39  1  0  0  0  0
 46 40  1  0  0  0  0
M  END
>  <minimizedAffinity>
-6.97851992

$$$$

 OpenBabel03242516313D

 46 50  0  0  0  0  0  0  0  0999 V2000
   37.7420   30.5480   39.4920 C   0  0  0  0  0  0  0  0  0  0  0  0
   37.7780   31.1300   38.2490 N   0  0  0  0  0  0  0  0  0  0  0  0
   37.4650   30.4900   37.1270 C   0  0  0  0  0  0  0  0  0  0  0  0
   37.1000   29.2130   37.2310 N   0  0  0  0  0  0  0  0  0  0  0  0
   37.0390   28.5680   38.4020 C   0  0  0  0  0  0  0  0  0  0  0  0
   36.6470   27.2440   38.5150 C   0  0  0  0  0  0  0  0  0  0  0  0
   36.5820   26.6160   39.7130 C   0  0  0  0  0  0  0  0  0  0  0  0
   36.9070   27.2860   40.8500 C   0  0  0  0  0  0  0  0  0  0  0  0
   37.3120   28.6230   40.7980 C   0  0  0  0  0  0  0  0  0  0  0  0
   37.3690   29.2420   39.5860 C   0  0  0  0  0  0  0  0  0  0  0  0
   37.4990   30.9650   36.1630 H   0  0  0  0  0  0  0  0  0  0  0  0
   36.3900   26.7140   37.6140 H   0  0  0  0  0  0  0  0  0  0  0  0
   36.2630   25.5690   39.7410 H   0  0  0  0  0  0  0  0  0  0  0  0
   36.8350   26.7240   41.7820 H   0  0  0  0  0  0  0  0  0  0  0  0
   37.6910   29.2370   42.0880 C   0  0  0  0  0  0  0  0  0  0  0  0
   38.2150   30.1900   42.0300 H   0  0  0  0  0  0  0  0  0  0  0  0
   36.9300   29.1080   42.8830 H   0  0  0  0  0  0  0  0  0  0  0  0
   38.8300   28.4410   42.7140 C   0  0  0  0  0  0  0  0  0  0  0  0
   40.1780   28.7430   42.5140 C   0  0  0  0  0  0  0  0  0  0  0  0
   40.3520   29.6100   41.8640 H   0  0  0  0  0  0  0  0  0  0  0  0
   41.2420   28.0580   43.0510 C   0  0  0  0  0  3  0  0  0  0  0  0
   40.9250   26.9830   43.8540 C   0  0  0  0  0  0  0  0  0  0  0  0
   41.7160   26.4020   44.3100 H   0  0  0  0  0  0  0  0  0  0  0  0
   39.6240   26.6060   44.1130 C   0  0  0  0  0  0  0  0  0  0  0  0
   39.3740   25.7520   44.7510 H   0  0  0  0  0  0  0  0  0  0  0  0
   38.6170   27.3460   43.5340 C   0  0  0  0  0  3  0  0  0  0  0  0
   38.1060   31.4430   40.9220 S   0  0  0  0  0  0  0  0  0  0  0  0
   41.0000   34.1420   40.3410 C   0  0  0  0  0  0  0  0  0  0  0  0
   40.3020   32.9770   40.5800 C   0  0  0  0  0  0  0  0  0  0  0  0
   38.9300   32.9530   40.5850 C   0  0  0  0  0  0  0  0  0  0  0  0
   38.2140   34.1040   40.3490 C   0  0  0  0  0  0  0  0  0  0  0  0
   38.8490   35.2860   40.1070 C   0  0  0  0  0  0  0  0  0  0  0  0
   40.2290   35.2860   40.1080 C   0  0  0  0  0  0  0  0  0  0  0  0
   40.8780   32.0800   40.7630 H   0  0  0  0  0  0  0  0  0  0  0  0
   37.1320   34.0650   40.3560 H   0  0  0  0  0  0  0  0  0  0  0  0
   38.3390   36.2170   39.9160 H   0  0  0  0  0  0  0  0  0  0  0  0
   40.7570   36.2120   39.9180 H   0  0  0  0  0  0  0  0  0  0  0  0
   44.4220   34.5530   41.5340 C   0  0  0  0  0  0  0  0  0  0  0  0
   45.2050   34.2290   40.4050 C   0  0  0  0  0  0  0  0  0  0  0  0
   44.5510   33.8670   39.2330 C   0  0  0  0  0  0  0  0  0  0  0  0
   43.1780   33.8320   39.1960 N   0  0  0  0  0  0  0  0  0  0  0  0
   42.4600   34.1600   40.3340 C   0  0  0  0  0  0  0  0  0  0  0  0
   43.0700   34.5170   41.4930 N   0  0  0  0  0  0  0  0  0  0  0  0
   44.9720   34.8330   42.4420 H   0  0  0  0  0  0  0  0  0  0  0  0
   46.2800   34.2690   40.4730 H   0  0  0  0  0  0  0  0  0  0  0  0
   45.1210   33.6160   38.3590 H   0  0  0  0  0  0  0  0  0  0  0  0
  1 10  1  0  0  0  0
  1 27  1  0  0  0  0
  2  1  2  0  0  0  0
  3  4  2  0  0  0  0
  3  2  1  0  0  0  0
  4  5  1  0  0  0  0
  5  6  2  0  0  0  0
  5 10  1  0  0  0  0
  6  7  1  0  0  0  0
  7 13  1  0  0  0  0
  7  8  2  0  0  0  0
  8 14  1  0  0  0  0
  9  8  1  0  0  0  0
  9 15  1  0  0  0  0
 10  9  2  0  0  0  0
 11  3  1  0  0  0  0
 12  6  1  0  0  0  0
 15 18  1  0  0  0  0
 15 17  1  0  0  0  0
 16 15  1  0  0  0  0
 18 26  1  0  0  0  0
 19 18  2  0  0  0  0
 19 21  1  0  0  0  0
 20 19  1  0  0  0  0
 21 22  2  0  0  0  0
 22 24  1  0  0  0  0
 22 23  1  0  0  0  0
 24 25  1  0  0  0  0
 26 24  2  0  0  0  0
 28 29  1  0  0  0  0
 29 30  2  0  0  0  0
 29 34  1  0  0  0  0
 30 27  1  0  0  0  0
 31 35  1  0  0  0  0
 31 30  1  0  0  0  0
 32 33  1  0  0  0  0
 32 31  2  0  0  0  0
 33 28  2  0  0  0  0
 36 32  1  0  0  0  0
 37 33  1  0  0  0  0
 38 44  1  0  0  0  0
 39 45  1  0  0  0  0
 39 38  2  0  0  0  0
 40 39  1  0  0  0  0
 41 40  2  0  0  0  0
 41 42  1  0  0  0  0
 42 28  1  0  0  0  0
 42 43  2  0  0  0  0
 43 38  1  0  0  0  0
 46 40  1  0  0  0  0
M  END
>  <minimizedAffinity>
-6.90606165

$$$$

 OpenBabel03242516313D

 46 50  0  0  0  0  0  0  0  0999 V2000
   37.0870   27.0190   41.1020 C   0  0  0  0  0  0  0  0  0  0  0  0
   36.4780   26.2710   40.1250 N   0  0  0  0  0  0  0  0  0  0  0  0
   36.7650   24.9950   39.8890 C   0  0  0  0  0  0  0  0  0  0  0  0
   37.6970   24.4250   40.6500 N   0  0  0  0  0  0  0  0  0  0  0  0
   38.3410   25.0800   41.6240 C   0  0  0  0  0  0  0  0  0  0  0  0
   39.3020   24.4870   42.4260 C   0  0  0  0  0  0  0  0  0  0  0  0
   39.9320   25.1680   43.4130 C   0  0  0  0  0  0  0  0  0  0  0  0
   39.6270   26.4730   43.6380 C   0  0  0  0  0  0  0  0  0  0  0  0
   38.6670   27.1260   42.8600 C   0  0  0  0  0  0  0  0  0  0  0  0
   38.0400   26.4260   41.8730 C   0  0  0  0  0  0  0  0  0  0  0  0
   36.2760   24.4260   39.1180 H   0  0  0  0  0  0  0  0  0  0  0  0
   39.5430   23.4540   42.2460 H   0  0  0  0  0  0  0  0  0  0  0  0
   40.6810   24.6460   44.0160 H   0  0  0  0  0  0  0  0  0  0  0  0
   40.1690   26.9660   44.4460 H   0  0  0  0  0  0  0  0  0  0  0  0
   38.4520   28.5580   43.1580 C   0  0  0  0  0  0  0  0  0  0  0  0
   37.6680   29.0540   42.5900 H   0  0  0  0  0  0  0  0  0  0  0  0
   38.5550   28.8080   44.2330 H   0  0  0  0  0  0  0  0  0  0  0  0
   39.6180   29.3710   42.6090 C   0  0  0  0  0  0  0  0  0  0  0  0
   40.5000   28.8900   41.6400 C   0  0  0  0  0  0  0  0  0  0  0  0
   40.2820   27.8690   41.3010 H   0  0  0  0  0  0  0  0  0  0  0  0
   41.5650   29.5800   41.1120 C   0  0  0  0  0  3  0  0  0  0  0  0
   41.7610   30.8550   41.5980 C   0  0  0  0  0  0  0  0  0  0  0  0
   42.5810   31.4520   41.2250 H   0  0  0  0  0  0  0  0  0  0  0  0
   40.9440   31.4190   42.5550 C   0  0  0  0  0  0  0  0  0  0  0  0
   41.1000   32.4310   42.9410 H   0  0  0  0  0  0  0  0  0  0  0  0
   39.8980   30.6590   43.0320 C   0  0  0  0  0  3  0  0  0  0  0  0
   36.6360   28.6570   41.4000 S   0  0  0  0  0  0  0  0  0  0  0  0
   37.9910   31.7410   39.2440 C   0  0  0  0  0  0  0  0  0  0  0  0
   37.7040   30.8640   40.2680 C   0  0  0  0  0  0  0  0  0  0  0  0
   36.9880   29.7150   40.0470 C   0  0  0  0  0  0  0  0  0  0  0  0
   36.5370   29.4090   38.7840 C   0  0  0  0  0  0  0  0  0  0  0  0
   36.7890   30.2380   37.7310 C   0  0  0  0  0  0  0  0  0  0  0  0
   37.5110   31.3890   37.9780 C   0  0  0  0  0  0  0  0  0  0  0  0
   38.0660   31.1170   41.2560 H   0  0  0  0  0  0  0  0  0  0  0  0
   35.9750   28.4970   38.6290 H   0  0  0  0  0  0  0  0  0  0  0  0
   36.4600   30.0490   36.7210 H   0  0  0  0  0  0  0  0  0  0  0  0
   37.7240   32.0630   37.1590 H   0  0  0  0  0  0  0  0  0  0  0  0
   40.8150   34.0490   39.3260 C   0  0  0  0  0  0  0  0  0  0  0  0
   40.2710   35.2120   39.9120 C   0  0  0  0  0  0  0  0  0  0  0  0
   38.9300   35.2010   40.2760 C   0  0  0  0  0  0  0  0  0  0  0  0
   38.1710   34.0750   40.0640 N   0  0  0  0  0  0  0  0  0  0  0  0
   38.7560   32.9610   39.4860 C   0  0  0  0  0  0  0  0  0  0  0  0
   40.0640   32.9420   39.1190 N   0  0  0  0  0  0  0  0  0  0  0  0
   41.8760   34.0940   39.0500 H   0  0  0  0  0  0  0  0  0  0  0  0
   40.8990   36.0750   40.0630 H   0  0  0  0  0  0  0  0  0  0  0  0
   38.4900   36.0710   40.7240 H   0  0  0  0  0  0  0  0  0  0  0  0
  1 27  1  0  0  0  0
  1 10  1  0  0  0  0
  2  1  2  0  0  0  0
  3  2  1  0  0  0  0
  3  4  2  0  0  0  0
  4  5  1  0  0  0  0
  5 10  2  0  0  0  0
  5  6  1  0  0  0  0
  6  7  2  0  0  0  0
  7  8  1  0  0  0  0
  7 13  1  0  0  0  0
  8 14  1  0  0  0  0
  9 15  1  0  0  0  0
  9  8  2  0  0  0  0
 10  9  1  0  0  0  0
 11  3  1  0  0  0  0
 12  6  1  0  0  0  0
 15 17  1  0  0  0  0
 16 15  1  0  0  0  0
 18 26  1  0  0  0  0
 18 15  1  0  0  0  0
 19 18  2  0  0  0  0
 20 19  1  0  0  0  0
 21 22  2  0  0  0  0
 21 19  1  0  0  0  0
 22 24  1  0  0  0  0
 23 22  1  0  0  0  0
 24 25  1  0  0  0  0
 24 26  2  0  0  0  0
 28 42  1  0  0  0  0
 28 29  1  0  0  0  0
 29 34  1  0  0  0  0
 30 29  2  0  0  0  0
 30 27  1  0  0  0  0
 31 30  1  0  0  0  0
 32 33  1  0  0  0  0
 32 31  2  0  0  0  0
 33 28  2  0  0  0  0
 35 31  1  0  0  0  0
 36 32  1  0  0  0  0
 37 33  1  0  0  0  0
 38 39  1  0  0  0  0
 39 45  1  0  0  0  0
 39 40  2  0  0  0  0
 40 46  1  0  0  0  0
 41 40  1  0  0  0  0
 42 41  2  0  0  0  0
 43 38  2  0  0  0  0
 43 42  1  0  0  0  0
 44 38  1  0  0  0  0
M  END
>  <minimizedAffinity>
-6.83860302

$$$$

 OpenBabel03242516313D

 46 50  0  0  0  0  0  0  0  0999 V2000
   37.2070   26.9650   38.0520 C   0  0  0  0  0  0  0  0  0  0  0  0
   36.5380   27.2720   36.8920 N   0  0  0  0  0  0  0  0  0  0  0  0
   35.5470   26.5380   36.3980 C   0  0  0  0  0  0  0  0  0  0  0  0
   35.1940   25.4470   37.0760 N   0  0  0  0  0  0  0  0  0  0  0  0
   35.7920   25.0740   38.2140 C   0  0  0  0  0  0  0  0  0  0  0  0
   35.4190   23.9470   38.9290 C   0  0  0  0  0  0  0  0  0  0  0  0
   36.0320   23.5970   40.0850 C   0  0  0  0  0  0  0  0  0  0  0  0
   37.0460   24.3590   40.5740 C   0  0  0  0  0  0  0  0  0  0  0  0
   37.4670   25.5060   39.8950 C   0  0  0  0  0  0  0  0  0  0  0  0
   36.8390   25.8470   38.7360 C   0  0  0  0  0  0  0  0  0  0  0  0
   35.0360   26.7960   35.4870 H   0  0  0  0  0  0  0  0  0  0  0  0
   34.6170   23.3450   38.5400 H   0  0  0  0  0  0  0  0  0  0  0  0
   35.6930   22.6970   40.6070 H   0  0  0  0  0  0  0  0  0  0  0  0
   37.4980   24.0230   41.5080 H   0  0  0  0  0  0  0  0  0  0  0  0
   38.6110   26.2290   40.4910 C   0  0  0  0  0  0  0  0  0  0  0  0
   39.3680   25.6150   40.9750 H   0  0  0  0  0  0  0  0  0  0  0  0
   38.9490   27.0970   39.8910 H   0  0  0  0  0  0  0  0  0  0  0  0
   38.1480   26.9670   41.7420 C   0  0  0  0  0  0  0  0  0  0  0  0
   36.9170   26.7370   42.3570 C   0  0  0  0  0  0  0  0  0  0  0  0
   36.3030   25.9740   41.8620 H   0  0  0  0  0  0  0  0  0  0  0  0
   36.4520   27.3750   43.4820 C   0  0  0  0  0  3  0  0  0  0  0  0
   37.2910   28.3190   44.0330 C   0  0  0  0  0  0  0  0  0  0  0  0
   36.9860   28.8570   44.9210 H   0  0  0  0  0  0  0  0  0  0  0  0
   38.5270   28.6170   43.4990 C   0  0  0  0  0  0  0  0  0  0  0  0
   39.1930   29.3670   43.9380 H   0  0  0  0  0  0  0  0  0  0  0  0
   38.9170   27.9320   42.3690 C   0  0  0  0  0  3  0  0  0  0  0  0
   38.4510   27.9850   38.6770 S   0  0  0  0  0  0  0  0  0  0  0  0
   38.1870   31.7950   39.8630 C   0  0  0  0  0  0  0  0  0  0  0  0
   38.6180   30.6000   39.3280 C   0  0  0  0  0  0  0  0  0  0  0  0
   37.8280   29.4790   39.3510 C   0  0  0  0  0  0  0  0  0  0  0  0
   36.5740   29.5230   39.9140 C   0  0  0  0  0  0  0  0  0  0  0  0
   36.0920   30.6760   40.4600 C   0  0  0  0  0  0  0  0  0  0  0  0
   36.9050   31.7920   40.4260 C   0  0  0  0  0  0  0  0  0  0  0  0
   39.6060   30.5800   38.8870 H   0  0  0  0  0  0  0  0  0  0  0  0
   35.9660   28.6280   39.9220 H   0  0  0  0  0  0  0  0  0  0  0  0
   35.1190   30.7690   40.9140 H   0  0  0  0  0  0  0  0  0  0  0  0
   36.5460   32.7190   40.8520 H   0  0  0  0  0  0  0  0  0  0  0  0
   39.2170   35.2690   40.2770 C   0  0  0  0  0  0  0  0  0  0  0  0
   40.5460   35.2770   39.8020 C   0  0  0  0  0  0  0  0  0  0  0  0
   41.0860   34.0830   39.3400 C   0  0  0  0  0  0  0  0  0  0  0  0
   40.3300   32.9360   39.3540 N   0  0  0  0  0  0  0  0  0  0  0  0
   39.0300   32.9860   39.8320 C   0  0  0  0  0  0  0  0  0  0  0  0
   38.4750   34.1380   40.2900 N   0  0  0  0  0  0  0  0  0  0  0  0
   38.8240   36.2300   40.6350 H   0  0  0  0  0  0  0  0  0  0  0  0
   41.1080   36.1970   39.8050 H   0  0  0  0  0  0  0  0  0  0  0  0
   42.0940   34.0590   38.9720 H   0  0  0  0  0  0  0  0  0  0  0  0
  1 27  1  0  0  0  0
  1 10  1  0  0  0  0
  2  1  2  0  0  0  0
  3  2  1  0  0  0  0
  3  4  2  0  0  0  0
  4  5  1  0  0  0  0
  5 10  2  0  0  0  0
  5  6  1  0  0  0  0
  6  7  2  0  0  0  0
  7  8  1  0  0  0  0
  7 13  1  0  0  0  0
  8 14  1  0  0  0  0
  9 15  1  0  0  0  0
  9  8  2  0  0  0  0
 10  9  1  0  0  0  0
 11  3  1  0  0  0  0
 12  6  1  0  0  0  0
 15 16  1  0  0  0  0
 15 18  1  0  0  0  0
 17 15  1  0  0  0  0
 18 19  2  0  0  0  0
 18 26  1  0  0  0  0
 19 21  1  0  0  0  0
 20 19  1  0  0  0  0
 21 22  2  0  0  0  0
 22 23  1  0  0  0  0
 24 25  1  0  0  0  0
 24 22  1  0  0  0  0
 26 24  2  0  0  0  0
 27 30  1  0  0  0  0
 28 33  1  0  0  0  0
 29 30  1  0  0  0  0
 29 28  2  0  0  0  0
 30 31  2  0  0  0  0
 31 35  1  0  0  0  0
 31 32  1  0  0  0  0
 32 36  1  0  0  0  0
 33 32  2  0  0  0  0
 33 37  1  0  0  0  0
 34 29  1  0  0  0  0
 38 43  1  0  0  0  0
 38 44  1  0  0  0  0
 39 45  1  0  0  0  0
 39 38  2  0  0  0  0
 40 41  2  0  0  0  0
 40 39  1  0  0  0  0
 41 42  1  0  0  0  0
 42 28  1  0  0  0  0
 42 43  2  0  0  0  0
 46 40  1  0  0  0  0
M  END
>  <minimizedAffinity>
-6.82643795

$$$$

 OpenBabel03242516313D

 46 50  0  0  0  0  0  0  0  0999 V2000
   39.5310   27.7950   43.0850 C   0  0  0  0  0  0  0  0  0  0  0  0
   40.8250   27.6230   43.5100 N   0  0  0  0  0  0  0  0  0  0  0  0
   41.4140   26.4360   43.6170 C   0  0  0  0  0  0  0  0  0  0  0  0
   40.6940   25.3630   43.2910 N   0  0  0  0  0  0  0  0  0  0  0  0
   39.4270   25.4390   42.8690 C   0  0  0  0  0  0  0  0  0  0  0  0
   38.6800   24.3270   42.5160 C   0  0  0  0  0  0  0  0  0  0  0  0
   37.4020   24.4310   42.0800 C   0  0  0  0  0  0  0  0  0  0  0  0
   36.8160   25.6530   41.9790 C   0  0  0  0  0  0  0  0  0  0  0  0
   37.5190   26.8110   42.3220 C   0  0  0  0  0  0  0  0  0  0  0  0
   38.8050   26.6910   42.7560 C   0  0  0  0  0  0  0  0  0  0  0  0
   42.4290   26.3230   43.9520 H   0  0  0  0  0  0  0  0  0  0  0  0
   39.1450   23.3600   42.5970 H   0  0  0  0  0  0  0  0  0  0  0  0
   36.8620   23.5170   41.8140 H   0  0  0  0  0  0  0  0  0  0  0  0
   35.7850   25.6690   41.6220 H   0  0  0  0  0  0  0  0  0  0  0  0
   36.7680   28.0810   42.2220 C   0  0  0  0  0  0  0  0  0  0  0  0
   35.7940   28.1010   42.7090 H   0  0  0  0  0  0  0  0  0  0  0  0
   37.4070   28.9830   42.2970 H   0  0  0  0  0  0  0  0  0  0  0  0
   36.2620   28.2600   40.7960 C   0  0  0  0  0  0  0  0  0  0  0  0
   36.9320   27.7640   39.6760 C   0  0  0  0  0  0  0  0  0  0  0  0
   37.8610   27.2280   39.9100 H   0  0  0  0  0  0  0  0  0  0  0  0
   36.5220   27.9000   38.3720 C   0  0  0  0  0  3  0  0  0  0  0  0
   35.3440   28.5890   38.1760 C   0  0  0  0  0  0  0  0  0  0  0  0
   34.9650   28.7300   37.1730 H   0  0  0  0  0  0  0  0  0  0  0  0
   34.6100   29.1160   39.2180 C   0  0  0  0  0  0  0  0  0  0  0  0
   33.6750   29.6630   39.0610 H   0  0  0  0  0  0  0  0  0  0  0  0
   35.0920   28.9360   40.4950 C   0  0  0  0  0  3  0  0  0  0  0  0
   38.8350   29.3640   42.9130 S   0  0  0  0  0  0  0  0  0  0  0  0
   41.4240   31.9670   41.3260 C   0  0  0  0  0  0  0  0  0  0  0  0
   40.7290   31.1480   42.1900 C   0  0  0  0  0  0  0  0  0  0  0  0
   39.6930   30.3620   41.7540 C   0  0  0  0  0  0  0  0  0  0  0  0
   39.3200   30.3750   40.4300 C   0  0  0  0  0  0  0  0  0  0  0  0
   39.9690   31.1650   39.5280 C   0  0  0  0  0  0  0  0  0  0  0  0
   41.0080   31.9480   39.9900 C   0  0  0  0  0  0  0  0  0  0  0  0
   41.0340   31.1470   43.2290 H   0  0  0  0  0  0  0  0  0  0  0  0
   38.5000   29.7480   40.1050 H   0  0  0  0  0  0  0  0  0  0  0  0
   39.7200   31.2150   38.4800 H   0  0  0  0  0  0  0  0  0  0  0  0
   41.5400   32.5840   39.2930 H   0  0  0  0  0  0  0  0  0  0  0  0
   44.4210   32.9620   43.1520 C   0  0  0  0  0  0  0  0  0  0  0  0
   44.6310   34.2950   42.7380 C   0  0  0  0  0  0  0  0  0  0  0  0
   43.7390   34.8490   41.8270 C   0  0  0  0  0  0  0  0  0  0  0  0
   42.6870   34.1020   41.3550 N   0  0  0  0  0  0  0  0  0  0  0  0
   42.5290   32.7980   41.7960 C   0  0  0  0  0  0  0  0  0  0  0  0
   43.3840   32.2290   42.6850 N   0  0  0  0  0  0  0  0  0  0  0  0
   45.1450   32.5570   43.8710 H   0  0  0  0  0  0  0  0  0  0  0  0
   45.4670   34.8500   43.1310 H   0  0  0  0  0  0  0  0  0  0  0  0
   43.8740   35.8610   41.4950 H   0  0  0  0  0  0  0  0  0  0  0  0
  1  2  1  0  0  0  0
  2  3  2  0  0  0  0
  3 11  1  0  0  0  0
  4  3  1  0  0  0  0
  5  4  2  0  0  0  0
  6 12  1  0  0  0  0
  6  5  1  0  0  0  0
  7  6  2  0  0  0  0
  8  7  1  0  0  0  0
  8  9  2  0  0  0  0
  9 10  1  0  0  0  0
 10  5  1  0  0  0  0
 10  1  2  0  0  0  0
 13  7  1  0  0  0  0
 14  8  1  0  0  0  0
 15 17  1  0  0  0  0
 15  9  1  0  0  0  0
 15 16  1  0  0  0  0
 18 15  1  0  0  0  0
 19 20  1  0  0  0  0
 19 18  2  0  0  0  0
 21 19  1  0  0  0  0
 22 21  2  0  0  0  0
 22 24  1  0  0  0  0
 23 22  1  0  0  0  0
 24 26  2  0  0  0  0
 25 24  1  0  0  0  0
 26 18  1  0  0  0  0
 27  1  1  0  0  0  0
 28 42  1  0  0  0  0
 28 29  1  0  0  0  0
 29 34  1  0  0  0  0
 30 29  2  0  0  0  0
 30 27  1  0  0  0  0
 31 30  1  0  0  0  0
 32 33  1  0  0  0  0
 32 31  2  0  0  0  0
 33 28  2  0  0  0  0
 35 31  1  0  0  0  0
 36 32  1  0  0  0  0
 37 33  1  0  0  0  0
 38 44  1  0  0  0  0
 39 45  1  0  0  0  0
 39 38  1  0  0  0  0
 40 39  2  0  0  0  0
 41 42  2  0  0  0  0
 41 40  1  0  0  0  0
 42 43  1  0  0  0  0
 43 38  2  0  0  0  0
 46 40  1  0  0  0  0
M  END
>  <minimizedAffinity>
-6.67238474

$$$$

 OpenBabel03242516313D

 46 50  0  0  0  0  0  0  0  0999 V2000
   36.2530   28.2730   39.8070 C   0  0  0  0  0  0  0  0  0  0  0  0
   35.7740   28.4220   38.5280 N   0  0  0  0  0  0  0  0  0  0  0  0
   35.5540   27.4050   37.7020 C   0  0  0  0  0  0  0  0  0  0  0  0
   35.8180   26.1800   38.1530 N   0  0  0  0  0  0  0  0  0  0  0  0
   36.2870   25.9440   39.3850 C   0  0  0  0  0  0  0  0  0  0  0  0
   36.5490   24.6700   39.8620 C   0  0  0  0  0  0  0  0  0  0  0  0
   37.0130   24.4570   41.1170 C   0  0  0  0  0  0  0  0  0  0  0  0
   37.2340   25.5100   41.9470 C   0  0  0  0  0  0  0  0  0  0  0  0
   36.9900   26.8180   41.5210 C   0  0  0  0  0  0  0  0  0  0  0  0
   36.5200   27.0160   40.2570 C   0  0  0  0  0  0  0  0  0  0  0  0
   35.1780   27.5430   36.7040 H   0  0  0  0  0  0  0  0  0  0  0  0
   36.3740   23.8380   39.2030 H   0  0  0  0  0  0  0  0  0  0  0  0
   37.2010   23.4280   41.4390 H   0  0  0  0  0  0  0  0  0  0  0  0
   37.6080   25.2710   42.9430 H   0  0  0  0  0  0  0  0  0  0  0  0
   37.3140   27.8880   42.4880 C   0  0  0  0  0  0  0  0  0  0  0  0
   37.3460   28.9010   42.0900 H   0  0  0  0  0  0  0  0  0  0  0  0
   36.8630   27.7350   43.4880 H   0  0  0  0  0  0  0  0  0  0  0  0
   38.7860   27.7960   42.8710 C   0  0  0  0  0  0  0  0  0  0  0  0
   39.2890   26.8470   43.7630 C   0  0  0  0  0  0  0  0  0  0  0  0
   38.5300   26.1660   44.1690 H   0  0  0  0  0  0  0  0  0  0  0  0
   40.6040   26.7230   44.1430 C   0  0  0  0  0  3  0  0  0  0  0  0
   41.4840   27.6230   43.5830 C   0  0  0  0  0  0  0  0  0  0  0  0
   42.5340   27.5790   43.8390 H   0  0  0  0  0  0  0  0  0  0  0  0
   41.0840   28.5960   42.6910 C   0  0  0  0  0  0  0  0  0  0  0  0
   41.7840   29.3110   42.2460 H   0  0  0  0  0  0  0  0  0  0  0  0
   39.7480   28.6530   42.3640 C   0  0  0  0  0  3  0  0  0  0  0  0
   36.4690   29.6260   40.8560 S   0  0  0  0  0  0  0  0  0  0  0  0
   39.4820   31.3240   38.8480 C   0  0  0  0  0  0  0  0  0  0  0  0
   38.5830   30.4230   39.3780 C   0  0  0  0  0  0  0  0  0  0  0  0
   37.5590   30.8290   40.1950 C   0  0  0  0  0  0  0  0  0  0  0  0
   37.4050   32.1610   40.5060 C   0  0  0  0  0  0  0  0  0  0  0  0
   38.2620   33.0990   40.0120 C   0  0  0  0  0  0  0  0  0  0  0  0
   39.2850   32.6660   39.1930 C   0  0  0  0  0  0  0  0  0  0  0  0
   38.7170   29.3800   39.1240 H   0  0  0  0  0  0  0  0  0  0  0  0
   36.5900   32.4620   41.1520 H   0  0  0  0  0  0  0  0  0  0  0  0
   38.1890   34.1540   40.2230 H   0  0  0  0  0  0  0  0  0  0  0  0
   39.9790   33.3920   38.7880 H   0  0  0  0  0  0  0  0  0  0  0  0
   41.5880   29.1110   36.8550 C   0  0  0  0  0  0  0  0  0  0  0  0
   42.5820   29.9740   36.3470 C   0  0  0  0  0  0  0  0  0  0  0  0
   42.5250   31.3190   36.6900 C   0  0  0  0  0  0  0  0  0  0  0  0
   41.5170   31.7770   37.5050 N   0  0  0  0  0  0  0  0  0  0  0  0
   40.5670   30.8860   37.9760 C   0  0  0  0  0  0  0  0  0  0  0  0
   40.5970   29.5650   37.6570 N   0  0  0  0  0  0  0  0  0  0  0  0
   41.6640   28.0560   36.5620 H   0  0  0  0  0  0  0  0  0  0  0  0
   43.3570   29.5770   35.7110 H   0  0  0  0  0  0  0  0  0  0  0  0
   43.2680   31.9980   36.3180 H   0  0  0  0  0  0  0  0  0  0  0  0
  1 10  1  0  0  0  0
  1 27  1  0  0  0  0
  2  1  2  0  0  0  0
  3  4  2  0  0  0  0
  3  2  1  0  0  0  0
  4  5  1  0  0  0  0
  5  6  2  0  0  0  0
  5 10  1  0  0  0  0
  6  7  1  0  0  0  0
  7 13  1  0  0  0  0
  7  8  2  0  0  0  0
  8 14  1  0  0  0  0
  9  8  1  0  0  0  0
  9 15  1  0  0  0  0
 10  9  2  0  0  0  0
 11  3  1  0  0  0  0
 12  6  1  0  0  0  0
 15 18  1  0  0  0  0
 15 17  1  0  0  0  0
 16 15  1  0  0  0  0
 18 19  1  0  0  0  0
 19 21  2  0  0  0  0
 19 20  1  0  0  0  0
 22 23  1  0  0  0  0
 22 21  1  0  0  0  0
 24 22  2  0  0  0  0
 25 24  1  0  0  0  0
 26 24  1  0  0  0  0
 26 18  2  0  0  0  0
 28 33  2  0  0  0  0
 28 29  1  0  0  0  0
 29 30  2  0  0  0  0
 30 31  1  0  0  0  0
 30 27  1  0  0  0  0
 31 35  1  0  0  0  0
 32 36  1  0  0  0  0
 32 31  2  0  0  0  0
 33 32  1  0  0  0  0
 34 29  1  0  0  0  0
 37 33  1  0  0  0  0
 38 43  1  0  0  0  0
 39 40  1  0  0  0  0
 39 38  2  0  0  0  0
 40 41  2  0  0  0  0
 41 42  1  0  0  0  0
 42 28  1  0  0  0  0
 43 42  2  0  0  0  0
 44 38  1  0  0  0  0
 45 39  1  0  0  0  0
 46 40  1  0  0  0  0
M  END
>  <minimizedAffinity>
-6.6460886

$$$$

 OpenBabel03242516313D

 46 50  0  0  0  0  0  0  0  0999 V2000
   36.0250   29.3450   39.4940 C   0  0  0  0  0  0  0  0  0  0  0  0
   35.5070   28.1150   39.1680 N   0  0  0  0  0  0  0  0  0  0  0  0
   35.4640   27.6400   37.9280 C   0  0  0  0  0  0  0  0  0  0  0  0
   35.9520   28.4110   36.9580 N   0  0  0  0  0  0  0  0  0  0  0  0
   36.4740   29.6220   37.1860 C   0  0  0  0  0  0  0  0  0  0  0  0
   36.9950   30.4220   36.1810 C   0  0  0  0  0  0  0  0  0  0  0  0
   37.5280   31.6400   36.4390 C   0  0  0  0  0  0  0  0  0  0  0  0
   37.5620   32.1100   37.7140 C   0  0  0  0  0  0  0  0  0  0  0  0
   37.0500   31.3500   38.7690 C   0  0  0  0  0  0  0  0  0  0  0  0
   36.5190   30.1250   38.4940 C   0  0  0  0  0  0  0  0  0  0  0  0
   35.0540   26.6740   37.6940 H   0  0  0  0  0  0  0  0  0  0  0  0
   36.9660   30.0480   35.1730 H   0  0  0  0  0  0  0  0  0  0  0  0
   37.9260   32.2260   35.6050 H   0  0  0  0  0  0  0  0  0  0  0  0
   38.0040   33.0980   37.8550 H   0  0  0  0  0  0  0  0  0  0  0  0
   37.0920   31.9810   40.1050 C   0  0  0  0  0  0  0  0  0  0  0  0
   36.3580   32.7640   40.2890 H   0  0  0  0  0  0  0  0  0  0  0  0
   37.3120   31.2700   40.9260 H   0  0  0  0  0  0  0  0  0  0  0  0
   38.3310   32.8630   40.2100 C   0  0  0  0  0  0  0  0  0  0  0  0
   38.2900   34.2560   40.1270 C   0  0  0  0  0  0  0  0  0  0  0  0
   37.2840   34.6680   39.9790 H   0  0  0  0  0  0  0  0  0  0  0  0
   39.3740   35.0950   40.2140 C   0  0  0  0  0  3  0  0  0  0  0  0
   40.5980   34.4870   40.3990 C   0  0  0  0  0  0  0  0  0  0  0  0
   41.4920   35.0910   40.4770 H   0  0  0  0  0  0  0  0  0  0  0  0
   40.7400   33.1190   40.4940 C   0  0  0  0  0  0  0  0  0  0  0  0
   41.7120   32.6370   40.6410 H   0  0  0  0  0  0  0  0  0  0  0  0
   39.6020   32.3490   40.3960 C   0  0  0  0  0  3  0  0  0  0  0  0
   36.1050   29.8890   41.1290 S   0  0  0  0  0  0  0  0  0  0  0  0
   39.3560   28.4340   42.9490 C   0  0  0  0  0  0  0  0  0  0  0  0
   38.4860   29.1960   42.1990 C   0  0  0  0  0  0  0  0  0  0  0  0
   37.1500   28.8930   42.1240 C   0  0  0  0  0  0  0  0  0  0  0  0
   36.6440   27.8100   42.8050 C   0  0  0  0  0  0  0  0  0  0  0  0
   37.4550   27.0180   43.5630 C   0  0  0  0  0  0  0  0  0  0  0  0
   38.7960   27.3430   43.6220 C   0  0  0  0  0  0  0  0  0  0  0  0
   38.8980   30.0460   41.6700 H   0  0  0  0  0  0  0  0  0  0  0  0
   35.5870   27.5870   42.7340 H   0  0  0  0  0  0  0  0  0  0  0  0
   37.1140   26.1580   44.1160 H   0  0  0  0  0  0  0  0  0  0  0  0
   39.4600   26.7300   44.2180 H   0  0  0  0  0  0  0  0  0  0  0  0
   42.9200   28.0700   43.6340 C   0  0  0  0  0  0  0  0  0  0  0  0
   43.4620   29.3050   43.2190 C   0  0  0  0  0  0  0  0  0  0  0  0
   42.5980   30.2630   42.7010 C   0  0  0  0  0  0  0  0  0  0  0  0
   41.2540   29.9940   42.6040 N   0  0  0  0  0  0  0  0  0  0  0  0
   40.7750   28.7640   43.0280 C   0  0  0  0  0  0  0  0  0  0  0  0
   41.5960   27.8090   43.5380 N   0  0  0  0  0  0  0  0  0  0  0  0
   43.6320   27.3380   44.0370 H   0  0  0  0  0  0  0  0  0  0  0  0
   44.5220   29.4800   43.3110 H   0  0  0  0  0  0  0  0  0  0  0  0
   42.9820   31.2110   42.3770 H   0  0  0  0  0  0  0  0  0  0  0  0
  1 27  1  0  0  0  0
  2  1  1  0  0  0  0
  3  2  2  0  0  0  0
  4  5  2  0  0  0  0
  4  3  1  0  0  0  0
  5 10  1  0  0  0  0
  6  7  2  0  0  0  0
  6  5  1  0  0  0  0
  7  8  1  0  0  0  0
  8 14  1  0  0  0  0
  8  9  2  0  0  0  0
  9 15  1  0  0  0  0
 10  9  1  0  0  0  0
 10  1  2  0  0  0  0
 11  3  1  0  0  0  0
 12  6  1  0  0  0  0
 13  7  1  0  0  0  0
 15 18  1  0  0  0  0
 15 16  1  0  0  0  0
 15 17  1  0  0  0  0
 18 26  1  0  0  0  0
 19 18  2  0  0  0  0
 19 21  1  0  0  0  0
 20 19  1  0  0  0  0
 21 22  2  0  0  0  0
 22 23  1  0  0  0  0
 22 24  1  0  0  0  0
 24 25  1  0  0  0  0
 26 24  2  0  0  0  0
 27 30  1  0  0  0  0
 28 42  1  0  0  0  0
 28 33  1  0  0  0  0
 29 28  2  0  0  0  0
 30 29  1  0  0  0  0
 30 31  2  0  0  0  0
 31 32  1  0  0  0  0
 32 33  2  0  0  0  0
 32 36  1  0  0  0  0
 33 37  1  0  0  0  0
 34 29  1  0  0  0  0
 35 31  1  0  0  0  0
 38 44  1  0  0  0  0
 39 45  1  0  0  0  0
 39 38  2  0  0  0  0
 40 39  1  0  0  0  0
 41 40  2  0  0  0  0
 41 42  1  0  0  0  0
 42 43  2  0  0  0  0
 43 38  1  0  0  0  0
 46 40  1  0  0  0  0
M  END
>  <minimizedAffinity>
-6.49277592

$$$$

 OpenBabel03242516313D

 46 50  0  0  0  0  0  0  0  0999 V2000
   37.2080   26.4500   41.4330 C   0  0  0  0  0  0  0  0  0  0  0  0
   36.6530   25.4680   40.6490 N   0  0  0  0  0  0  0  0  0  0  0  0
   37.0770   24.2090   40.6380 C   0  0  0  0  0  0  0  0  0  0  0  0
   38.0970   23.8980   41.4350 N   0  0  0  0  0  0  0  0  0  0  0  0
   38.6970   24.7920   42.2310 C   0  0  0  0  0  0  0  0  0  0  0  0
   39.7500   24.4680   43.0720 C   0  0  0  0  0  0  0  0  0  0  0  0
   40.3320   25.3890   43.8760 C   0  0  0  0  0  0  0  0  0  0  0  0
   39.8870   26.6730   43.8730 C   0  0  0  0  0  0  0  0  0  0  0  0
   38.8300   27.0590   43.0440 C   0  0  0  0  0  0  0  0  0  0  0  0
   38.2510   26.1210   42.2430 C   0  0  0  0  0  0  0  0  0  0  0  0
   36.6290   23.4540   40.0160 H   0  0  0  0  0  0  0  0  0  0  0  0
   40.1020   23.4520   43.0730 H   0  0  0  0  0  0  0  0  0  0  0  0
   41.1590   25.0750   44.5210 H   0  0  0  0  0  0  0  0  0  0  0  0
   40.3980   27.3660   44.5420 H   0  0  0  0  0  0  0  0  0  0  0  0
   38.4620   28.4900   43.0840 C   0  0  0  0  0  0  0  0  0  0  0  0
   37.6470   28.7940   42.4290 H   0  0  0  0  0  0  0  0  0  0  0  0
   38.5080   28.9330   44.0990 H   0  0  0  0  0  0  0  0  0  0  0  0
   39.5540   29.3140   42.4120 C   0  0  0  0  0  0  0  0  0  0  0  0
   40.5870   28.7500   41.6620 C   0  0  0  0  0  0  0  0  0  0  0  0
   40.5480   27.6560   41.5940 H   0  0  0  0  0  0  0  0  0  0  0  0
   41.5960   29.4450   41.0380 C   0  0  0  0  0  3  0  0  0  0  0  0
   41.5630   30.8160   41.1800 C   0  0  0  0  0  0  0  0  0  0  0  0
   42.3270   31.4230   40.7130 H   0  0  0  0  0  0  0  0  0  0  0  0
   40.5830   31.4660   41.9010 C   0  0  0  0  0  0  0  0  0  0  0  0
   40.5580   32.5540   42.0120 H   0  0  0  0  0  0  0  0  0  0  0  0
   39.6100   30.6940   42.4950 C   0  0  0  0  0  3  0  0  0  0  0  0
   36.5820   28.0580   41.4480 S   0  0  0  0  0  0  0  0  0  0  0  0
   38.0890   30.0170   38.3040 C   0  0  0  0  0  0  0  0  0  0  0  0
   37.9310   29.3640   39.5080 C   0  0  0  0  0  0  0  0  0  0  0  0
   36.7170   28.8530   39.8910 C   0  0  0  0  0  0  0  0  0  0  0  0
   35.6190   28.9820   39.0730 C   0  0  0  0  0  0  0  0  0  0  0  0
   35.7130   29.6180   37.8710 C   0  0  0  0  0  0  0  0  0  0  0  0
   36.9440   30.1250   37.5060 C   0  0  0  0  0  0  0  0  0  0  0  0
   38.8040   29.2690   40.1410 H   0  0  0  0  0  0  0  0  0  0  0  0
   34.6700   28.5710   39.3930 H   0  0  0  0  0  0  0  0  0  0  0  0
   34.8860   29.7480   37.1900 H   0  0  0  0  0  0  0  0  0  0  0  0
   37.0440   30.6340   36.5570 H   0  0  0  0  0  0  0  0  0  0  0  0
   41.5750   30.1040   37.2330 C   0  0  0  0  0  0  0  0  0  0  0  0
   41.8550   31.4830   37.1390 C   0  0  0  0  0  0  0  0  0  0  0  0
   40.8410   32.3840   37.4430 C   0  0  0  0  0  0  0  0  0  0  0  0
   39.6040   31.9210   37.8240 N   0  0  0  0  0  0  0  0  0  0  0  0
   39.3840   30.5560   37.9000 C   0  0  0  0  0  0  0  0  0  0  0  0
   40.3560   29.6520   37.6090 N   0  0  0  0  0  0  0  0  0  0  0  0
   42.3990   29.4220   36.9840 H   0  0  0  0  0  0  0  0  0  0  0  0
   42.8380   31.8080   36.8370 H   0  0  0  0  0  0  0  0  0  0  0  0
   41.0260   33.4390   37.3810 H   0  0  0  0  0  0  0  0  0  0  0  0
  1 27  1  0  0  0  0
  1 10  1  0  0  0  0
  2  1  2  0  0  0  0
  3  2  1  0  0  0  0
  3  4  2  0  0  0  0
  4  5  1  0  0  0  0
  5 10  2  0  0  0  0
  5  6  1  0  0  0  0
  6 12  1  0  0  0  0
  6  7  2  0  0  0  0
  7 13  1  0  0  0  0
  8  7  1  0  0  0  0
  8 14  1  0  0  0  0
  9 15  1  0  0  0  0
  9  8  2  0  0  0  0
 10  9  1  0  0  0  0
 11  3  1  0  0  0  0
 15 17  1  0  0  0  0
 16 15  1  0  0  0  0
 18 26  1  0  0  0  0
 18 15  1  0  0  0  0
 19 18  2  0  0  0  0
 20 19  1  0  0  0  0
 21 22  2  0  0  0  0
 21 19  1  0  0  0  0
 22 24  1  0  0  0  0
 23 22  1  0  0  0  0
 24 25  1  0  0  0  0
 24 26  2  0  0  0  0
 28 29  1  0  0  0  0
 29 30  2  0  0  0  0
 29 34  1  0  0  0  0
 30 27  1  0  0  0  0
 31 35  1  0  0  0  0
 31 30  1  0  0  0  0
 32 31  2  0  0  0  0
 33 32  1  0  0  0  0
 33 28  2  0  0  0  0
 36 32  1  0  0  0  0
 37 33  1  0  0  0  0
 38 43  1  0  0  0  0
 39 38  2  0  0  0  0
 39 40  1  0  0  0  0
 40 41  2  0  0  0  0
 41 42  1  0  0  0  0
 42 28  1  0  0  0  0
 43 42  2  0  0  0  0
 44 38  1  0  0  0  0
 45 39  1  0  0  0  0
 46 40  1  0  0  0  0
M  END
>  <minimizedAffinity>
-6.46378374

$$$$
