
 OpenBabel03252509303D

 21 22  0  0  0  0  0  0  0  0999 V2000
   45.7720   33.2700   42.2190 C   0  0  0  0  0  0  0  0  0  0  0  0
   46.1730   32.2330   42.4010 H   0  0  0  0  0  0  0  0  0  0  0  0
   44.8990   33.2100   41.5230 H   0  0  0  0  0  0  0  0  0  0  0  0
   44.3610   35.8890   44.4570 C   0  0  0  0  0  0  0  0  0  0  0  0
   44.7470   35.1910   43.2960 C   0  0  0  0  0  0  0  0  0  0  0  0
   45.3850   33.9710   43.4420 C   0  0  0  0  0  0  0  0  0  0  0  0
   45.6110   33.5010   44.6950 N   0  0  0  0  0  0  0  0  0  0  0  0
   45.2290   34.1940   45.8050 C   0  0  0  0  0  0  0  0  0  0  0  0
   44.6100   35.3780   45.6690 N   0  0  0  0  0  0  0  0  0  0  0  0
   43.8710   36.8270   44.3180 H   0  0  0  0  0  0  0  0  0  0  0  0
   44.5390   35.6160   42.3250 H   0  0  0  0  0  0  0  0  0  0  0  0
   45.4580   33.7280   46.7750 H   0  0  0  0  0  0  0  0  0  0  0  0
   46.8900   34.0650   41.6200 C   0  0  0  0  0  0  0  0  0  0  0  0
   47.1210   33.9700   40.2720 C   0  0  0  0  0  0  0  0  0  0  0  0
   46.4670   33.3080   39.6880 H   0  0  0  0  0  0  0  0  0  0  0  0
   48.0910   34.6170   39.5400 C   0  0  0  0  0  3  0  0  0  0  0  0
   48.9190   35.4580   40.2890 C   0  0  0  0  0  0  0  0  0  0  0  0
   49.7010   35.9890   39.7490 H   0  0  0  0  0  0  0  0  0  0  0  0
   48.7250   35.5870   41.6570 C   0  0  0  0  0  0  0  0  0  0  0  0
   49.3910   36.2540   42.2120 H   0  0  0  0  0  0  0  0  0  0  0  0
   47.7240   34.9020   42.3250 C   0  0  0  0  0  3  0  0  0  0  0  0
  1  2  1  0  0  0  0
  1  6  1  0  0  0  0
  3  1  1  0  0  0  0
  4  9  1  0  0  0  0
  5  6  1  0  0  0  0
  5  4  2  0  0  0  0
  6  7  2  0  0  0  0
  7  8  1  0  0  0  0
  8 12  1  0  0  0  0
  9  8  2  0  0  0  0
 10  4  1  0  0  0  0
 11  5  1  0  0  0  0
 13  1  1  0  0  0  0
 13 21  1  0  0  0  0
 14 13  2  0  0  0  0
 15 14  1  0  0  0  0
 16 14  1  0  0  0  0
 16 17  2  0  0  0  0
 17 19  1  0  0  0  0
 18 17  1  0  0  0  0
 19 20  1  0  0  0  0
 19 21  2  0  0  0  0
M  END
>  <minimizedAffinity>
-4.55829

>  <minimizedRMSD>
1.95022571

$$$$
