
 OpenBabel03252508053D

 42 45  0  0  1  0  0  0  0  0999 V2000
   36.5390   29.8010   38.4380 C   0  0  0  0  0  0  0  0  0  0  0  0
   35.7800   29.5720   39.5470 C   0  0  0  0  0  0  0  0  0  0  0  0
   34.5310   28.9440   39.3740 C   0  0  0  0  0  0  0  0  0  0  0  0
   34.0460   28.5520   38.1550 C   0  0  0  0  0  0  0  0  0  0  0  0
   34.8120   28.7840   37.0430 C   0  0  0  0  0  0  0  0  0  0  0  0
   36.0220   29.3910   37.2000 C   0  0  0  0  0  0  0  0  0  0  0  0
   33.8580   28.7320   40.1990 H   0  0  0  0  0  0  0  0  0  0  0  0
   33.1040   28.0790   38.0300 H   0  0  0  0  0  0  0  0  0  0  0  0
   34.5130   28.5130   36.0610 H   0  0  0  0  0  0  0  0  0  0  0  0
   36.6420   29.5790   36.3070 H   0  0  0  0  0  0  0  0  0  0  0  0
   38.0670   30.5030   38.5180 S   0  0  0  0  0  0  0  0  0  0  0  0
   38.1570   31.2200   37.1560 O   0  0  0  0  0  0  0  0  0  0  0  0
   39.1530   29.4400   38.5420 O   0  0  0  0  0  0  0  0  0  0  0  0
   38.6590   31.8560   39.2710 C   0  0  0  0  0  0  0  0  0  0  0  0
   37.8320   33.0040   39.3690 C   0  0  0  0  0  0  0  0  0  0  0  0
   36.8490   32.9840   38.9200 H   0  0  0  0  0  0  0  0  0  0  0  0
   38.2450   34.1380   40.0170 C   0  0  0  0  0  3  0  0  0  0  0  0
   39.4850   34.1610   40.5800 C   0  0  0  0  0  0  0  0  0  0  0  0
   39.7500   35.0860   41.0720 H   0  0  0  0  0  0  0  0  0  0  0  0
   40.4080   33.1740   40.5900 C   0  0  0  0  0  0  0  0  0  0  0  0
   41.3890   33.1440   41.0150 H   0  0  0  0  0  0  0  0  0  0  0  0
   39.9040   32.0800   39.9190 C   0  0  0  0  0  3  0  0  0  0  0  0
   36.2020   29.9620   40.8850 C   0  0  0  0  0  0  0  0  0  0  0  0
   35.9250   31.0850   41.4300 O   0  0  0  0  0  0  0  0  0  0  0  0
   36.9680   28.9510   41.5490 C   0  0  0  0  0  0  0  0  0  0  0  0
   38.1470   29.4070   42.2270 C   0  0  0  0  0  0  0  0  0  0  0  0
   38.8930   28.4410   42.8840 C   0  0  0  0  0  0  0  0  0  0  0  0
   38.4720   27.1510   42.8440 N   0  0  0  0  0  0  0  0  0  0  0  0
   37.3350   26.7650   42.1800 C   0  0  0  0  0  0  0  0  0  0  0  0
   36.6440   27.6630   41.5710 N   0  0  0  0  0  0  0  0  0  0  0  0
   38.5460   30.3810   42.3080 H   0  0  0  0  0  0  0  0  0  0  0  0
   39.7890   28.6170   43.4300 H   0  0  0  0  0  0  0  0  0  0  0  0
   36.9550   25.3430   42.2000 C   0  0  1  0  0  0  0  0  0  0  0  0
   36.8280   24.5990   40.8860 C   0  0  0  0  0  0  0  0  0  0  0  0
   38.0230   24.3990   41.7760 C   0  0  1  0  0  0  0  0  0  0  0  0
   36.3350   24.9930   43.0340 H   0  0  0  0  0  0  0  0  0  0  0  0
   36.8930   25.1850   39.9520 H   0  0  0  0  0  0  0  0  0  0  0  0
   36.1250   23.7480   40.9120 H   0  0  0  0  0  0  0  0  0  0  0  0
   38.1760   23.4230   42.2790 H   0  0  0  0  0  0  0  0  0  0  0  0
   39.2360   24.9140   41.1590 N   0  0  0  0  0  0  0  0  0  0  0  0
   39.1480   25.1520   40.1680 H   0  0  0  0  0  0  0  0  0  0  0  0
   39.7690   25.5680   41.7400 H   0  0  0  0  0  0  0  0  0  0  0  0
  1 11  1  0  0  0  0
  1  2  1  0  0  0  0
  2 23  1  0  0  0  0
  3  2  2  0  0  0  0
  3  7  1  0  0  0  0
  4  3  1  0  0  0  0
  5  6  1  0  0  0  0
  5  4  2  0  0  0  0
  6  1  2  0  0  0  0
  8  4  1  0  0  0  0
  9  5  1  0  0  0  0
 10  6  1  0  0  0  0
 11 13  2  0  0  0  0
 11 14  1  0  0  0  0
 12 11  2  0  0  0  0
 14 15  2  0  0  0  0
 14 22  1  0  0  0  0
 15 17  1  0  0  0  0
 16 15  1  0  0  0  0
 17 18  2  0  0  0  0
 18 20  1  0  0  0  0
 18 19  1  0  0  0  0
 20 21  1  0  0  0  0
 22 20  2  0  0  0  0
 23 24  2  0  0  0  0
 23 25  1  0  0  0  0
 25 30  2  0  0  0  0
 25 26  1  0  0  0  0
 26 31  1  0  0  0  0
 26 27  2  0  0  0  0
 27 32  1  0  0  0  0
 28 27  1  0  0  0  0
 29 33  1  0  0  0  0
 29 28  2  0  0  0  0
 30 29  1  0  0  0  0
 33 36  1  1  0  0  0
 34 38  1  0  0  0  0
 34 35  1  0  0  0  0
 34 33  1  0  0  0  0
 35 33  1  0  0  0  0
 35 39  1  1  0  0  0
 37 34  1  0  0  0  0
 40 42  1  0  0  0  0
 40 35  1  0  0  0  0
 41 40  1  0  0  0  0
M  END
>  <minimizedAffinity>
-6.35599566

$$$$

 OpenBabel03252508053D

 42 45  0  0  1  0  0  0  0  0999 V2000
   36.5690   26.9660   39.8080 C   0  0  0  0  0  0  0  0  0  0  0  0
   36.1600   28.1260   40.3970 C   0  0  0  0  0  0  0  0  0  0  0  0
   35.2610   28.9450   39.6860 C   0  0  0  0  0  0  0  0  0  0  0  0
   34.7810   28.6360   38.4420 C   0  0  0  0  0  0  0  0  0  0  0  0
   35.1940   27.4700   37.8540 C   0  0  0  0  0  0  0  0  0  0  0  0
   36.0640   26.6700   38.5330 C   0  0  0  0  0  0  0  0  0  0  0  0
   34.8910   29.8890   40.0730 H   0  0  0  0  0  0  0  0  0  0  0  0
   34.1030   29.2580   37.9110 H   0  0  0  0  0  0  0  0  0  0  0  0
   34.8710   27.1540   36.8930 H   0  0  0  0  0  0  0  0  0  0  0  0
   36.3990   25.7300   38.0640 H   0  0  0  0  0  0  0  0  0  0  0  0
   37.6050   25.8810   40.5730 S   0  0  0  0  0  0  0  0  0  0  0  0
   38.4740   25.3930   39.3970 O   0  0  0  0  0  0  0  0  0  0  0  0
   36.8400   24.6790   41.0990 O   0  0  0  0  0  0  0  0  0  0  0  0
   38.9650   26.0700   41.5020 C   0  0  0  0  0  0  0  0  0  0  0  0
   40.0720   26.7710   40.9630 C   0  0  0  0  0  0  0  0  0  0  0  0
   40.0200   27.1360   39.9460 H   0  0  0  0  0  0  0  0  0  0  0  0
   41.2090   26.9990   41.6940 C   0  0  0  0  0  3  0  0  0  0  0  0
   41.2730   26.5360   42.9740 C   0  0  0  0  0  0  0  0  0  0  0  0
   42.1970   26.7460   43.4920 H   0  0  0  0  0  0  0  0  0  0  0  0
   40.3270   25.8520   43.6540 C   0  0  0  0  0  0  0  0  0  0  0  0
   40.3300   25.4690   44.6530 H   0  0  0  0  0  0  0  0  0  0  0  0
   39.2280   25.6740   42.8410 C   0  0  0  0  0  3  0  0  0  0  0  0
   36.6230   28.5490   41.7110 C   0  0  0  0  0  0  0  0  0  0  0  0
   36.2120   28.0530   42.8150 O   0  0  0  0  0  0  0  0  0  0  0  0
   37.6040   29.5910   41.6510 C   0  0  0  0  0  0  0  0  0  0  0  0
   38.6000   29.5690   42.6820 C   0  0  0  0  0  0  0  0  0  0  0  0
   39.5630   30.5650   42.6320 C   0  0  0  0  0  0  0  0  0  0  0  0
   39.5030   31.4810   41.6320 N   0  0  0  0  0  0  0  0  0  0  0  0
   38.5270   31.4590   40.6670 C   0  0  0  0  0  0  0  0  0  0  0  0
   37.6360   30.5340   40.7160 N   0  0  0  0  0  0  0  0  0  0  0  0
   38.7210   28.9010   43.4920 H   0  0  0  0  0  0  0  0  0  0  0  0
   40.3650   30.6850   43.3200 H   0  0  0  0  0  0  0  0  0  0  0  0
   38.5500   32.4910   39.6180 C   0  0  1  0  0  0  0  0  0  0  0  0
   37.4280   33.5080   39.5640 C   0  0  0  0  0  0  0  0  0  0  0  0
   38.7820   33.8780   40.1020 C   0  0  1  0  0  0  0  0  0  0  0  0
   39.0460   32.2440   38.6710 H   0  0  0  0  0  0  0  0  0  0  0  0
   36.5610   33.3560   40.2320 H   0  0  0  0  0  0  0  0  0  0  0  0
   37.2370   33.9210   38.5580 H   0  0  0  0  0  0  0  0  0  0  0  0
   39.4170   34.5950   39.5440 H   0  0  0  0  0  0  0  0  0  0  0  0
   38.7270   34.1610   41.5280 N   0  0  0  0  0  0  0  0  0  0  0  0
   37.7830   34.2580   41.9120 H   0  0  0  0  0  0  0  0  0  0  0  0
   39.3990   33.6380   42.0960 H   0  0  0  0  0  0  0  0  0  0  0  0
  1  2  1  0  0  0  0
  1 11  1  0  0  0  0
  2 23  1  0  0  0  0
  3  7  1  0  0  0  0
  3  2  2  0  0  0  0
  4  3  1  0  0  0  0
  5  4  2  0  0  0  0
  5  6  1  0  0  0  0
  6  1  2  0  0  0  0
  8  4  1  0  0  0  0
  9  5  1  0  0  0  0
 10  6  1  0  0  0  0
 11 13  2  0  0  0  0
 11 14  1  0  0  0  0
 12 11  2  0  0  0  0
 14 22  1  0  0  0  0
 15 14  2  0  0  0  0
 15 17  1  0  0  0  0
 16 15  1  0  0  0  0
 17 18  2  0  0  0  0
 18 19  1  0  0  0  0
 18 20  1  0  0  0  0
 20 21  1  0  0  0  0
 22 20  2  0  0  0  0
 23 24  2  0  0  0  0
 25 23  1  0  0  0  0
 25 26  1  0  0  0  0
 26 31  1  0  0  0  0
 27 26  2  0  0  0  0
 27 32  1  0  0  0  0
 28 27  1  0  0  0  0
 29 30  1  0  0  0  0
 29 28  2  0  0  0  0
 30 25  2  0  0  0  0
 33 36  1  6  0  0  0
 33 35  1  0  0  0  0
 33 29  1  0  0  0  0
 34 33  1  0  0  0  0
 34 35  1  0  0  0  0
 34 37  1  0  0  0  0
 35 39  1  6  0  0  0
 35 40  1  0  0  0  0
 38 34  1  0  0  0  0
 40 41  1  0  0  0  0
 40 42  1  0  0  0  0
M  END
>  <minimizedAffinity>
-6.2754879

$$$$

 OpenBabel03252508053D

 42 45  0  0  1  0  0  0  0  0999 V2000
   37.3630   29.3110   39.7020 C   0  0  0  0  0  0  0  0  0  0  0  0
   38.3930   29.8430   38.9840 C   0  0  0  0  0  0  0  0  0  0  0  0
   38.1320   30.2550   37.6620 C   0  0  0  0  0  0  0  0  0  0  0  0
   36.9030   30.1490   37.0670 C   0  0  0  0  0  0  0  0  0  0  0  0
   35.8720   29.6140   37.7930 C   0  0  0  0  0  0  0  0  0  0  0  0
   36.1130   29.2120   39.0730 C   0  0  0  0  0  0  0  0  0  0  0  0
   38.8930   30.6790   37.0150 H   0  0  0  0  0  0  0  0  0  0  0  0
   36.7130   30.4610   36.0710 H   0  0  0  0  0  0  0  0  0  0  0  0
   34.8880   29.4960   37.4090 H   0  0  0  0  0  0  0  0  0  0  0  0
   35.2850   28.7820   39.6600 H   0  0  0  0  0  0  0  0  0  0  0  0
   37.5360   28.8230   41.3040 S   0  0  0  0  0  0  0  0  0  0  0  0
   36.1780   28.1460   41.5760 O   0  0  0  0  0  0  0  0  0  0  0  0
   37.6360   30.0240   42.2290 O   0  0  0  0  0  0  0  0  0  0  0  0
   38.3170   27.5530   42.0280 C   0  0  0  0  0  0  0  0  0  0  0  0
   39.3020   27.8220   43.0110 C   0  0  0  0  0  0  0  0  0  0  0  0
   39.5480   28.8500   43.2420 H   0  0  0  0  0  0  0  0  0  0  0  0
   39.9520   26.8170   43.6770 C   0  0  0  0  0  3  0  0  0  0  0  0
   39.6420   25.5230   43.3820 C   0  0  0  0  0  0  0  0  0  0  0  0
   40.1930   24.7800   43.9400 H   0  0  0  0  0  0  0  0  0  0  0  0
   38.7400   25.0730   42.4830 C   0  0  0  0  0  0  0  0  0  0  0  0
   38.4630   24.0750   42.2170 H   0  0  0  0  0  0  0  0  0  0  0  0
   38.1400   26.1510   41.8680 C   0  0  0  0  0  3  0  0  0  0  0  0
   39.7380   29.9850   39.5220 C   0  0  0  0  0  0  0  0  0  0  0  0
   40.4810   29.0070   39.8770 O   0  0  0  0  0  0  0  0  0  0  0  0
   40.1630   31.3500   39.6160 C   0  0  0  0  0  0  0  0  0  0  0  0
   39.1550   32.2890   40.0180 C   0  0  0  0  0  0  0  0  0  0  0  0
   39.5530   33.6130   40.1240 C   0  0  0  0  0  0  0  0  0  0  0  0
   40.8440   33.9320   39.8470 N   0  0  0  0  0  0  0  0  0  0  0  0
   41.7710   32.9940   39.4670 C   0  0  0  0  0  0  0  0  0  0  0  0
   41.3990   31.7670   39.3680 N   0  0  0  0  0  0  0  0  0  0  0  0
   38.1370   32.1310   40.2490 H   0  0  0  0  0  0  0  0  0  0  0  0
   38.9290   34.4250   40.4080 H   0  0  0  0  0  0  0  0  0  0  0  0
   43.1480   33.4340   39.1950 C   0  0  1  0  0  0  0  0  0  0  0  0
   43.9530   32.7150   38.1310 C   0  0  0  0  0  0  0  0  0  0  0  0
   43.3570   34.0700   37.8670 C   0  0  1  0  0  0  0  0  0  0  0  0
   43.7080   33.8940   40.0190 H   0  0  0  0  0  0  0  0  0  0  0  0
   43.5230   31.7980   37.6900 H   0  0  0  0  0  0  0  0  0  0  0  0
   45.0450   32.7490   38.2870 H   0  0  0  0  0  0  0  0  0  0  0  0
   44.0230   34.9460   37.7350 H   0  0  0  0  0  0  0  0  0  0  0  0
   42.3060   34.0010   36.8630 N   0  0  0  0  0  0  0  0  0  0  0  0
   42.2540   33.1140   36.3540 H   0  0  0  0  0  0  0  0  0  0  0  0
   41.4150   34.4190   37.1450 H   0  0  0  0  0  0  0  0  0  0  0  0
  1 11  1  0  0  0  0
  2 23  1  0  0  0  0
  2  1  2  0  0  0  0
  3  2  1  0  0  0  0
  4  3  2  0  0  0  0
  4  5  1  0  0  0  0
  5  6  2  0  0  0  0
  6 10  1  0  0  0  0
  6  1  1  0  0  0  0
  7  3  1  0  0  0  0
  8  4  1  0  0  0  0
  9  5  1  0  0  0  0
 11 12  2  0  0  0  0
 11 14  1  0  0  0  0
 11 13  2  0  0  0  0
 14 15  1  0  0  0  0
 15 16  1  0  0  0  0
 15 17  2  0  0  0  0
 18 17  1  0  0  0  0
 18 19  1  0  0  0  0
 20 18  2  0  0  0  0
 21 20  1  0  0  0  0
 22 14  2  0  0  0  0
 22 20  1  0  0  0  0
 23 25  1  0  0  0  0
 23 24  2  0  0  0  0
 25 26  1  0  0  0  0
 26 27  2  0  0  0  0
 26 31  1  0  0  0  0
 27 32  1  0  0  0  0
 28 27  1  0  0  0  0
 29 28  2  0  0  0  0
 30 29  1  0  0  0  0
 30 25  2  0  0  0  0
 33 29  1  0  0  0  0
 33 36  1  1  0  0  0
 34 38  1  0  0  0  0
 34 33  1  0  0  0  0
 35 39  1  6  0  0  0
 35 34  1  0  0  0  0
 35 33  1  0  0  0  0
 37 34  1  0  0  0  0
 40 42  1  0  0  0  0
 40 35  1  0  0  0  0
 41 40  1  0  0  0  0
M  END
>  <minimizedAffinity>
-6.25956631

$$$$

 OpenBabel03252508053D

 42 45  0  0  1  0  0  0  0  0999 V2000
   37.5630   28.5670   39.7510 C   0  0  0  0  0  0  0  0  0  0  0  0
   37.0780   29.8090   39.4650 C   0  0  0  0  0  0  0  0  0  0  0  0
   36.6720   30.0700   38.1420 C   0  0  0  0  0  0  0  0  0  0  0  0
   36.7390   29.1450   37.1350 C   0  0  0  0  0  0  0  0  0  0  0  0
   37.2260   27.8990   37.4270 C   0  0  0  0  0  0  0  0  0  0  0  0
   37.6220   27.6350   38.7040 C   0  0  0  0  0  0  0  0  0  0  0  0
   36.2830   31.0330   37.8240 H   0  0  0  0  0  0  0  0  0  0  0  0
   36.4310   29.3480   36.1400 H   0  0  0  0  0  0  0  0  0  0  0  0
   37.3120   27.1220   36.7060 H   0  0  0  0  0  0  0  0  0  0  0  0
   38.0150   26.6330   38.9420 H   0  0  0  0  0  0  0  0  0  0  0  0
   38.0390   28.1170   41.3020 S   0  0  0  0  0  0  0  0  0  0  0  0
   36.6810   27.8680   41.9890 O   0  0  0  0  0  0  0  0  0  0  0  0
   38.7040   29.2770   42.0230 O   0  0  0  0  0  0  0  0  0  0  0  0
   38.6260   26.7080   41.9480 C   0  0  0  0  0  0  0  0  0  0  0  0
   39.4980   26.7750   43.0630 C   0  0  0  0  0  0  0  0  0  0  0  0
   39.7890   27.7430   43.4470 H   0  0  0  0  0  0  0  0  0  0  0  0
   39.9830   25.6460   43.6700 C   0  0  0  0  0  3  0  0  0  0  0  0
   39.6160   24.4270   43.1840 C   0  0  0  0  0  0  0  0  0  0  0  0
   40.0370   23.5800   43.7050 H   0  0  0  0  0  0  0  0  0  0  0  0
   38.8020   24.1650   42.1370 C   0  0  0  0  0  0  0  0  0  0  0  0
   38.4870   23.2320   41.7200 H   0  0  0  0  0  0  0  0  0  0  0  0
   38.3660   25.3550   41.5960 C   0  0  0  0  0  3  0  0  0  0  0  0
   36.9790   30.8650   40.4630 C   0  0  0  0  0  0  0  0  0  0  0  0
   36.0790   30.9190   41.3700 O   0  0  0  0  0  0  0  0  0  0  0  0
   38.0050   31.8550   40.3350 C   0  0  0  0  0  0  0  0  0  0  0  0
   37.5530   33.1880   40.0580 C   0  0  0  0  0  0  0  0  0  0  0  0
   38.5330   34.1610   39.9410 C   0  0  0  0  0  0  0  0  0  0  0  0
   39.8330   33.8000   40.0930 N   0  0  0  0  0  0  0  0  0  0  0  0
   40.2150   32.5080   40.3580 C   0  0  0  0  0  0  0  0  0  0  0  0
   39.3040   31.6080   40.4650 N   0  0  0  0  0  0  0  0  0  0  0  0
   36.5710   33.5550   39.9240 H   0  0  0  0  0  0  0  0  0  0  0  0
   38.3620   35.1910   39.7380 H   0  0  0  0  0  0  0  0  0  0  0  0
   41.6490   32.2150   40.5140 C   0  0  1  0  0  0  0  0  0  0  0  0
   42.4340   32.9390   41.5890 C   0  0  0  0  0  0  0  0  0  0  0  0
   42.0150   31.5070   41.7710 C   0  0  1  0  0  0  0  0  0  0  0  0
   42.2020   31.8900   39.6250 H   0  0  0  0  0  0  0  0  0  0  0  0
   41.9320   33.7620   42.1290 H   0  0  0  0  0  0  0  0  0  0  0  0
   43.5100   33.0480   41.3700 H   0  0  0  0  0  0  0  0  0  0  0  0
   42.7830   30.7080   41.7910 H   0  0  0  0  0  0  0  0  0  0  0  0
   41.0310   31.3730   42.8330 N   0  0  0  0  0  0  0  0  0  0  0  0
   40.9100   32.2050   43.4180 H   0  0  0  0  0  0  0  0  0  0  0  0
   40.1760   30.8750   42.5670 H   0  0  0  0  0  0  0  0  0  0  0  0
  1 11  1  0  0  0  0
  2  1  1  0  0  0  0
  2 23  1  0  0  0  0
  3  2  2  0  0  0  0
  4  5  2  0  0  0  0
  4  3  1  0  0  0  0
  5  6  1  0  0  0  0
  6 10  1  0  0  0  0
  6  1  2  0  0  0  0
  7  3  1  0  0  0  0
  8  4  1  0  0  0  0
  9  5  1  0  0  0  0
 11 14  1  0  0  0  0
 11 12  2  0  0  0  0
 11 13  2  0  0  0  0
 14 15  1  0  0  0  0
 15 16  1  0  0  0  0
 15 17  2  0  0  0  0
 18 17  1  0  0  0  0
 18 19  1  0  0  0  0
 20 18  2  0  0  0  0
 21 20  1  0  0  0  0
 22 14  2  0  0  0  0
 22 20  1  0  0  0  0
 23 24  2  0  0  0  0
 25 23  1  0  0  0  0
 25 30  1  0  0  0  0
 26 25  2  0  0  0  0
 27 26  1  0  0  0  0
 27 28  2  0  0  0  0
 28 29  1  0  0  0  0
 29 30  2  0  0  0  0
 29 33  1  0  0  0  0
 31 26  1  0  0  0  0
 32 27  1  0  0  0  0
 33 36  1  6  0  0  0
 33 34  1  0  0  0  0
 33 35  1  0  0  0  0
 34 35  1  0  0  0  0
 34 37  1  0  0  0  0
 35 39  1  6  0  0  0
 35 40  1  0  0  0  0
 38 34  1  0  0  0  0
 40 41  1  0  0  0  0
 42 40  1  0  0  0  0
M  END
>  <minimizedAffinity>
-6.03065825

$$$$

 OpenBabel03252508053D

 42 45  0  0  1  0  0  0  0  0999 V2000
   37.4980   28.2000   37.9390 C   0  0  0  0  0  0  0  0  0  0  0  0
   36.8530   29.4010   37.9310 C   0  0  0  0  0  0  0  0  0  0  0  0
   36.4320   29.9160   36.6890 C   0  0  0  0  0  0  0  0  0  0  0  0
   36.6370   29.2730   35.4980 C   0  0  0  0  0  0  0  0  0  0  0  0
   37.2850   28.0660   35.5110 C   0  0  0  0  0  0  0  0  0  0  0  0
   37.6960   27.5590   36.7070 C   0  0  0  0  0  0  0  0  0  0  0  0
   35.9210   30.8680   36.5870 H   0  0  0  0  0  0  0  0  0  0  0  0
   36.3170   29.6650   34.5650 H   0  0  0  0  0  0  0  0  0  0  0  0
   37.4840   27.5010   34.6330 H   0  0  0  0  0  0  0  0  0  0  0  0
   38.2180   26.5880   36.7220 H   0  0  0  0  0  0  0  0  0  0  0  0
   38.0100   27.4600   39.3620 S   0  0  0  0  0  0  0  0  0  0  0  0
   39.4970   27.8650   39.4110 O   0  0  0  0  0  0  0  0  0  0  0  0
   37.9580   25.9470   39.2350 O   0  0  0  0  0  0  0  0  0  0  0  0
   37.8500   27.8450   40.9660 C   0  0  0  0  0  0  0  0  0  0  0  0
   36.8210   27.2280   41.7210 C   0  0  0  0  0  0  0  0  0  0  0  0
   36.1420   26.5470   41.2270 H   0  0  0  0  0  0  0  0  0  0  0  0
   36.6630   27.4710   43.0600 C   0  0  0  0  0  3  0  0  0  0  0  0
   37.5190   28.3310   43.6800 C   0  0  0  0  0  0  0  0  0  0  0  0
   37.3360   28.4800   44.7340 H   0  0  0  0  0  0  0  0  0  0  0  0
   38.5510   29.0100   43.1310 C   0  0  0  0  0  0  0  0  0  0  0  0
   39.2460   29.6920   43.5730 H   0  0  0  0  0  0  0  0  0  0  0  0
   38.6300   28.7010   41.7900 C   0  0  0  0  0  3  0  0  0  0  0  0
   36.5990   30.1680   39.1430 C   0  0  0  0  0  0  0  0  0  0  0  0
   35.6530   29.9230   39.9670 O   0  0  0  0  0  0  0  0  0  0  0  0
   37.5270   31.2420   39.3310 C   0  0  0  0  0  0  0  0  0  0  0  0
   36.9520   32.5080   39.6860 C   0  0  0  0  0  0  0  0  0  0  0  0
   37.8380   33.5550   39.8830 C   0  0  0  0  0  0  0  0  0  0  0  0
   39.1680   33.3230   39.7310 N   0  0  0  0  0  0  0  0  0  0  0  0
   39.6690   32.0920   39.3900 C   0  0  0  0  0  0  0  0  0  0  0  0
   38.8440   31.1220   39.2070 N   0  0  0  0  0  0  0  0  0  0  0  0
   35.9400   32.7760   39.8230 H   0  0  0  0  0  0  0  0  0  0  0  0
   37.5720   34.5490   40.1480 H   0  0  0  0  0  0  0  0  0  0  0  0
   41.1260   31.9360   39.2560 C   0  0  1  0  0  0  0  0  0  0  0  0
   41.6680   30.8920   38.3000 C   0  0  0  0  0  0  0  0  0  0  0  0
   41.6860   32.3510   37.9410 C   0  0  1  0  0  0  0  0  0  0  0  0
   41.7480   32.1900   40.1220 H   0  0  0  0  0  0  0  0  0  0  0  0
   40.9490   30.1910   37.8390 H   0  0  0  0  0  0  0  0  0  0  0  0
   42.6650   30.5030   38.5700 H   0  0  0  0  0  0  0  0  0  0  0  0
   42.6550   32.8850   37.8590 H   0  0  0  0  0  0  0  0  0  0  0  0
   40.7870   32.6380   36.8340 N   0  0  0  0  0  0  0  0  0  0  0  0
   40.4310   31.8120   36.3440 H   0  0  0  0  0  0  0  0  0  0  0  0
   40.1150   33.3900   37.0090 H   0  0  0  0  0  0  0  0  0  0  0  0
  1 11  1  0  0  0  0
  2  1  1  0  0  0  0
  2 23  1  0  0  0  0
  3  2  2  0  0  0  0
  4  5  2  0  0  0  0
  4  3  1  0  0  0  0
  5  6  1  0  0  0  0
  6 10  1  0  0  0  0
  6  1  2  0  0  0  0
  7  3  1  0  0  0  0
  8  4  1  0  0  0  0
  9  5  1  0  0  0  0
 11 12  2  0  0  0  0
 11 14  1  0  0  0  0
 13 11  2  0  0  0  0
 14 15  2  0  0  0  0
 14 22  1  0  0  0  0
 15 17  1  0  0  0  0
 16 15  1  0  0  0  0
 17 18  2  0  0  0  0
 18 19  1  0  0  0  0
 20 21  1  0  0  0  0
 20 18  1  0  0  0  0
 22 20  2  0  0  0  0
 23 25  1  0  0  0  0
 23 24  2  0  0  0  0
 25 26  1  0  0  0  0
 26 31  1  0  0  0  0
 26 27  2  0  0  0  0
 27 32  1  0  0  0  0
 28 27  1  0  0  0  0
 29 28  2  0  0  0  0
 30 25  2  0  0  0  0
 30 29  1  0  0  0  0
 33 29  1  0  0  0  0
 33 36  1  1  0  0  0
 34 38  1  0  0  0  0
 34 33  1  0  0  0  0
 35 39  1  1  0  0  0
 35 34  1  0  0  0  0
 35 33  1  0  0  0  0
 37 34  1  0  0  0  0
 40 42  1  0  0  0  0
 40 35  1  0  0  0  0
 41 40  1  0  0  0  0
M  END
>  <minimizedAffinity>
-5.95888567

$$$$

 OpenBabel03252508053D

 42 45  0  0  1  0  0  0  0  0999 V2000
   37.6130   27.4210   41.0220 C   0  0  0  0  0  0  0  0  0  0  0  0
   37.2080   28.6530   41.4440 C   0  0  0  0  0  0  0  0  0  0  0  0
   37.4580   29.0060   42.7850 C   0  0  0  0  0  0  0  0  0  0  0  0
   38.0840   28.1780   43.6790 C   0  0  0  0  0  0  0  0  0  0  0  0
   38.4890   26.9420   43.2500 C   0  0  0  0  0  0  0  0  0  0  0  0
   38.2520   26.5910   41.9540 C   0  0  0  0  0  0  0  0  0  0  0  0
   37.1620   29.9600   43.2090 H   0  0  0  0  0  0  0  0  0  0  0  0
   38.2690   28.4500   44.6880 H   0  0  0  0  0  0  0  0  0  0  0  0
   38.9810   26.2390   43.8770 H   0  0  0  0  0  0  0  0  0  0  0  0
   38.5770   25.5970   41.6060 H   0  0  0  0  0  0  0  0  0  0  0  0
   37.4130   26.9000   39.4330 S   0  0  0  0  0  0  0  0  0  0  0  0
   38.0250   25.4860   39.4860 O   0  0  0  0  0  0  0  0  0  0  0  0
   38.2610   27.7250   38.4800 O   0  0  0  0  0  0  0  0  0  0  0  0
   36.1170   26.3100   38.5860 C   0  0  0  0  0  0  0  0  0  0  0  0
   35.2990   27.2140   37.8630 C   0  0  0  0  0  0  0  0  0  0  0  0
   35.5170   28.2730   37.9090 H   0  0  0  0  0  0  0  0  0  0  0  0
   34.2390   26.7860   37.1070 C   0  0  0  0  0  3  0  0  0  0  0  0
   33.9660   25.4520   37.0530 C   0  0  0  0  0  0  0  0  0  0  0  0
   33.1160   25.1830   36.4440 H   0  0  0  0  0  0  0  0  0  0  0  0
   34.6250   24.4460   37.6690 C   0  0  0  0  0  0  0  0  0  0  0  0
   34.4500   23.3910   37.6580 H   0  0  0  0  0  0  0  0  0  0  0  0
   35.6690   24.9730   38.3990 C   0  0  0  0  0  3  0  0  0  0  0  0
   36.5240   29.5990   40.5740 C   0  0  0  0  0  0  0  0  0  0  0  0
   35.3080   29.4820   40.1960 O   0  0  0  0  0  0  0  0  0  0  0  0
   37.3540   30.6960   40.1750 C   0  0  0  0  0  0  0  0  0  0  0  0
   36.7760   32.0000   40.3250 C   0  0  0  0  0  0  0  0  0  0  0  0
   37.5700   33.0730   39.9530 C   0  0  0  0  0  0  0  0  0  0  0  0
   38.8200   32.8290   39.4810 N   0  0  0  0  0  0  0  0  0  0  0  0
   39.3270   31.5590   39.3570 C   0  0  0  0  0  0  0  0  0  0  0  0
   38.5880   30.5660   39.7010 N   0  0  0  0  0  0  0  0  0  0  0  0
   35.8210   32.2810   40.6790 H   0  0  0  0  0  0  0  0  0  0  0  0
   37.2900   34.0980   40.0030 H   0  0  0  0  0  0  0  0  0  0  0  0
   40.6960   31.3940   38.8410 C   0  0  1  0  0  0  0  0  0  0  0  0
   40.9330   30.4560   37.6750 C   0  0  0  0  0  0  0  0  0  0  0  0
   40.9280   31.9460   37.4790 C   0  0  1  0  0  0  0  0  0  0  0  0
   41.5250   31.5370   39.5440 H   0  0  0  0  0  0  0  0  0  0  0  0
   40.0900   29.8250   37.3400 H   0  0  0  0  0  0  0  0  0  0  0  0
   41.9470   30.0210   37.6410 H   0  0  0  0  0  0  0  0  0  0  0  0
   41.8690   32.4680   37.2110 H   0  0  0  0  0  0  0  0  0  0  0  0
   39.7940   32.3710   36.6730 N   0  0  0  0  0  0  0  0  0  0  0  0
   39.2890   31.6140   36.2050 H   0  0  0  0  0  0  0  0  0  0  0  0
   39.2220   33.1110   37.0910 H   0  0  0  0  0  0  0  0  0  0  0  0
  1  2  2  0  0  0  0
  1  6  1  0  0  0  0
  2  3  1  0  0  0  0
  3  7  1  0  0  0  0
  3  4  2  0  0  0  0
  4  8  1  0  0  0  0
  5  4  1  0  0  0  0
  5  9  1  0  0  0  0
  6  5  2  0  0  0  0
 10  6  1  0  0  0  0
 11 12  2  0  0  0  0
 11  1  1  0  0  0  0
 13 11  2  0  0  0  0
 14 11  1  0  0  0  0
 15 16  1  0  0  0  0
 15 14  2  0  0  0  0
 17 15  1  0  0  0  0
 18 17  2  0  0  0  0
 18 20  1  0  0  0  0
 19 18  1  0  0  0  0
 20 22  2  0  0  0  0
 21 20  1  0  0  0  0
 22 14  1  0  0  0  0
 23  2  1  0  0  0  0
 24 23  2  0  0  0  0
 25 26  1  0  0  0  0
 25 23  1  0  0  0  0
 26 31  1  0  0  0  0
 27 32  1  0  0  0  0
 27 26  2  0  0  0  0
 28 27  1  0  0  0  0
 29 28  2  0  0  0  0
 29 30  1  0  0  0  0
 30 25  2  0  0  0  0
 33 29  1  0  0  0  0
 33 36  1  1  0  0  0
 34 33  1  0  0  0  0
 35 39  1  6  0  0  0
 35 34  1  0  0  0  0
 35 33  1  0  0  0  0
 37 34  1  0  0  0  0
 38 34  1  0  0  0  0
 40 42  1  0  0  0  0
 40 35  1  0  0  0  0
 41 40  1  0  0  0  0
M  END
>  <minimizedAffinity>
-5.93347931

$$$$

 OpenBabel03252508053D

 42 45  0  0  1  0  0  0  0  0999 V2000
   37.1880   29.6770   38.4830 C   0  0  0  0  0  0  0  0  0  0  0  0
   36.2060   29.5500   39.4200 C   0  0  0  0  0  0  0  0  0  0  0  0
   34.9480   29.0790   38.9980 C   0  0  0  0  0  0  0  0  0  0  0  0
   34.6650   28.7430   37.7010 C   0  0  0  0  0  0  0  0  0  0  0  0
   35.6540   28.8710   36.7630 C   0  0  0  0  0  0  0  0  0  0  0  0
   36.8760   29.3270   37.1610 C   0  0  0  0  0  0  0  0  0  0  0  0
   34.1070   28.9560   39.6730 H   0  0  0  0  0  0  0  0  0  0  0  0
   33.7140   28.3880   37.3890 H   0  0  0  0  0  0  0  0  0  0  0  0
   35.5200   28.6330   35.7360 H   0  0  0  0  0  0  0  0  0  0  0  0
   37.6750   29.4310   36.4090 H   0  0  0  0  0  0  0  0  0  0  0  0
   38.7460   30.1870   38.8700 S   0  0  0  0  0  0  0  0  0  0  0  0
   39.3110   28.9510   39.5980 O   0  0  0  0  0  0  0  0  0  0  0  0
   38.7100   31.3260   39.8740 O   0  0  0  0  0  0  0  0  0  0  0  0
   40.1490   30.3170   37.9980 C   0  0  0  0  0  0  0  0  0  0  0  0
   40.7310   29.1440   37.4550 C   0  0  0  0  0  0  0  0  0  0  0  0
   40.2670   28.1870   37.6510 H   0  0  0  0  0  0  0  0  0  0  0  0
   41.8660   29.1890   36.6880 C   0  0  0  0  0  3  0  0  0  0  0  0
   42.4490   30.3960   36.4440 C   0  0  0  0  0  0  0  0  0  0  0  0
   43.3420   30.3600   35.8370 H   0  0  0  0  0  0  0  0  0  0  0  0
   42.0450   31.6120   36.8730 C   0  0  0  0  0  0  0  0  0  0  0  0
   42.4660   32.5810   36.7100 H   0  0  0  0  0  0  0  0  0  0  0  0
   40.9030   31.4650   37.6300 C   0  0  0  0  0  3  0  0  0  0  0  0
   36.4050   29.8930   40.8210 C   0  0  0  0  0  0  0  0  0  0  0  0
   36.1330   31.0350   41.3300 O   0  0  0  0  0  0  0  0  0  0  0  0
   36.9400   28.8120   41.5930 C   0  0  0  0  0  0  0  0  0  0  0  0
   37.7940   29.1880   42.6830 C   0  0  0  0  0  0  0  0  0  0  0  0
   38.3120   28.1540   43.4460 C   0  0  0  0  0  0  0  0  0  0  0  0
   37.9860   26.8760   43.1220 N   0  0  0  0  0  0  0  0  0  0  0  0
   37.1630   26.5690   42.0680 C   0  0  0  0  0  0  0  0  0  0  0  0
   36.6850   27.5300   41.3610 N   0  0  0  0  0  0  0  0  0  0  0  0
   38.1000   30.1480   43.0030 H   0  0  0  0  0  0  0  0  0  0  0  0
   38.9580   28.2660   44.2840 H   0  0  0  0  0  0  0  0  0  0  0  0
   36.8610   25.1540   41.7990 C   0  0  1  0  0  0  0  0  0  0  0  0
   37.2210   24.5700   40.4470 C   0  0  0  0  0  0  0  0  0  0  0  0
   38.0490   24.2690   41.6650 C   0  0  1  0  0  0  0  0  0  0  0  0
   36.0100   24.7050   42.3260 H   0  0  0  0  0  0  0  0  0  0  0  0
   37.5740   25.2630   39.6630 H   0  0  0  0  0  0  0  0  0  0  0  0
   36.5880   23.7200   40.1370 H   0  0  0  0  0  0  0  0  0  0  0  0
   38.0640   23.2410   42.0790 H   0  0  0  0  0  0  0  0  0  0  0  0
   39.3760   24.8570   41.5620 N   0  0  0  0  0  0  0  0  0  0  0  0
   39.6200   25.2120   40.6330 H   0  0  0  0  0  0  0  0  0  0  0  0
   39.6510   25.4390   42.3590 H   0  0  0  0  0  0  0  0  0  0  0  0
  1 11  1  0  0  0  0
  1  2  1  0  0  0  0
  2 23  1  0  0  0  0
  3  2  2  0  0  0  0
  3  7  1  0  0  0  0
  4  3  1  0  0  0  0
  5  6  1  0  0  0  0
  5  4  2  0  0  0  0
  6  1  2  0  0  0  0
  8  4  1  0  0  0  0
  9  5  1  0  0  0  0
 10  6  1  0  0  0  0
 11 12  2  0  0  0  0
 11 13  2  0  0  0  0
 14 11  1  0  0  0  0
 15 16  1  0  0  0  0
 15 14  2  0  0  0  0
 17 15  1  0  0  0  0
 18 17  2  0  0  0  0
 18 20  1  0  0  0  0
 19 18  1  0  0  0  0
 20 22  2  0  0  0  0
 21 20  1  0  0  0  0
 22 14  1  0  0  0  0
 23 24  2  0  0  0  0
 23 25  1  0  0  0  0
 25 26  1  0  0  0  0
 26 31  1  0  0  0  0
 26 27  2  0  0  0  0
 27 32  1  0  0  0  0
 28 27  1  0  0  0  0
 29 28  2  0  0  0  0
 30 25  2  0  0  0  0
 30 29  1  0  0  0  0
 33 29  1  0  0  0  0
 33 36  1  1  0  0  0
 34 35  1  0  0  0  0
 34 33  1  0  0  0  0
 35 33  1  0  0  0  0
 35 39  1  1  0  0  0
 37 34  1  0  0  0  0
 38 34  1  0  0  0  0
 40 35  1  0  0  0  0
 40 42  1  0  0  0  0
 41 40  1  0  0  0  0
M  END
>  <minimizedAffinity>
-5.85823202

$$$$

 OpenBabel03252508053D

 42 45  0  0  1  0  0  0  0  0999 V2000
   36.5130   29.2950   38.2490 C   0  0  0  0  0  0  0  0  0  0  0  0
   37.7210   28.9210   37.7410 C   0  0  0  0  0  0  0  0  0  0  0  0
   37.7790   28.5490   36.3830 C   0  0  0  0  0  0  0  0  0  0  0  0
   36.6890   28.5450   35.5550 C   0  0  0  0  0  0  0  0  0  0  0  0
   35.4770   28.9210   36.0700 C   0  0  0  0  0  0  0  0  0  0  0  0
   35.4100   29.2840   37.3820 C   0  0  0  0  0  0  0  0  0  0  0  0
   38.6960   28.2290   35.8980 H   0  0  0  0  0  0  0  0  0  0  0  0
   36.7390   28.2630   34.5330 H   0  0  0  0  0  0  0  0  0  0  0  0
   34.5820   28.9470   35.4980 H   0  0  0  0  0  0  0  0  0  0  0  0
   34.4360   29.5870   37.8010 H   0  0  0  0  0  0  0  0  0  0  0  0
   36.3220   29.8040   39.8430 S   0  0  0  0  0  0  0  0  0  0  0  0
   34.8890   29.3270   40.1570 O   0  0  0  0  0  0  0  0  0  0  0  0
   36.3240   31.3200   39.9330 O   0  0  0  0  0  0  0  0  0  0  0  0
   36.8410   29.2040   41.2980 C   0  0  0  0  0  0  0  0  0  0  0  0
   36.2230   28.0400   41.8210 C   0  0  0  0  0  0  0  0  0  0  0  0
   35.4040   27.5900   41.2780 H   0  0  0  0  0  0  0  0  0  0  0  0
   36.6360   27.4690   42.9970 C   0  0  0  0  0  3  0  0  0  0  0  0
   37.6680   28.0390   43.6800 C   0  0  0  0  0  0  0  0  0  0  0  0
   37.9400   27.5420   44.5990 H   0  0  0  0  0  0  0  0  0  0  0  0
   38.3750   29.1410   43.3430 C   0  0  0  0  0  0  0  0  0  0  0  0
   39.1870   29.6240   43.8430 H   0  0  0  0  0  0  0  0  0  0  0  0
   37.8900   29.6400   42.1530 C   0  0  0  0  0  3  0  0  0  0  0  0
   38.9350   28.8800   38.5430 C   0  0  0  0  0  0  0  0  0  0  0  0
   39.2610   27.9110   39.3110 O   0  0  0  0  0  0  0  0  0  0  0  0
   39.7500   30.0480   38.3880 C   0  0  0  0  0  0  0  0  0  0  0  0
   40.9260   29.8840   37.5830 C   0  0  0  0  0  0  0  0  0  0  0  0
   41.7200   31.0070   37.4140 C   0  0  0  0  0  0  0  0  0  0  0  0
   41.3430   32.1690   38.0090 N   0  0  0  0  0  0  0  0  0  0  0  0
   40.2050   32.2740   38.7700 C   0  0  0  0  0  0  0  0  0  0  0  0
   39.4720   31.2300   38.9250 N   0  0  0  0  0  0  0  0  0  0  0  0
   41.2940   29.0260   37.0890 H   0  0  0  0  0  0  0  0  0  0  0  0
   42.6200   31.0500   36.8500 H   0  0  0  0  0  0  0  0  0  0  0  0
   39.8750   33.5780   39.3670 C   0  0  1  0  0  0  0  0  0  0  0  0
   39.1530   33.6130   40.7000 C   0  0  0  0  0  0  0  0  0  0  0  0
   40.6240   33.9100   40.6090 C   0  0  1  0  0  0  0  0  0  0  0  0
   39.7110   34.4230   38.6880 H   0  0  0  0  0  0  0  0  0  0  0  0
   38.7800   32.6570   41.1100 H   0  0  0  0  0  0  0  0  0  0  0  0
   38.5410   34.5170   40.8610 H   0  0  0  0  0  0  0  0  0  0  0  0
   40.9900   34.9360   40.8150 H   0  0  0  0  0  0  0  0  0  0  0  0
   41.4150   32.8830   41.2690 N   0  0  0  0  0  0  0  0  0  0  0  0
   40.8780   32.2320   41.8490 H   0  0  0  0  0  0  0  0  0  0  0  0
   42.1570   32.4760   40.6940 H   0  0  0  0  0  0  0  0  0  0  0  0
  1 11  1  0  0  0  0
  2  1  1  0  0  0  0
  2 23  1  0  0  0  0
  3  2  2  0  0  0  0
  4  5  2  0  0  0  0
  4  3  1  0  0  0  0
  5  6  1  0  0  0  0
  6 10  1  0  0  0  0
  6  1  2  0  0  0  0
  7  3  1  0  0  0  0
  8  4  1  0  0  0  0
  9  5  1  0  0  0  0
 11 13  2  0  0  0  0
 11 12  2  0  0  0  0
 11 14  1  0  0  0  0
 14 15  2  0  0  0  0
 14 22  1  0  0  0  0
 15 17  1  0  0  0  0
 16 15  1  0  0  0  0
 17 18  2  0  0  0  0
 18 19  1  0  0  0  0
 20 18  1  0  0  0  0
 20 21  1  0  0  0  0
 22 20  2  0  0  0  0
 23 24  2  0  0  0  0
 25 23  1  0  0  0  0
 25 30  1  0  0  0  0
 26 25  2  0  0  0  0
 27 26  1  0  0  0  0
 27 28  2  0  0  0  0
 28 29  1  0  0  0  0
 29 30  2  0  0  0  0
 29 33  1  0  0  0  0
 31 26  1  0  0  0  0
 32 27  1  0  0  0  0
 33 36  1  6  0  0  0
 33 35  1  0  0  0  0
 33 34  1  0  0  0  0
 34 38  1  0  0  0  0
 34 37  1  0  0  0  0
 35 34  1  0  0  0  0
 35 39  1  1  0  0  0
 35 40  1  0  0  0  0
 40 41  1  0  0  0  0
 42 40  1  0  0  0  0
M  END
>  <minimizedAffinity>
-5.84629536

$$$$

 OpenBabel03252508053D

 42 45  0  0  1  0  0  0  0  0999 V2000
   36.6860   26.9250   40.1310 C   0  0  0  0  0  0  0  0  0  0  0  0
   36.3990   28.0540   40.8390 C   0  0  0  0  0  0  0  0  0  0  0  0
   36.5400   28.0080   42.2400 C   0  0  0  0  0  0  0  0  0  0  0  0
   36.9480   26.8920   42.9210 C   0  0  0  0  0  0  0  0  0  0  0  0
   37.2350   25.7600   42.2060 C   0  0  0  0  0  0  0  0  0  0  0  0
   37.1020   25.7940   40.8490 C   0  0  0  0  0  0  0  0  0  0  0  0
   36.3240   28.8560   42.8830 H   0  0  0  0  0  0  0  0  0  0  0  0
   37.0520   26.8640   43.9770 H   0  0  0  0  0  0  0  0  0  0  0  0
   37.5580   24.8530   42.6540 H   0  0  0  0  0  0  0  0  0  0  0  0
   37.3330   24.8850   40.2700 H   0  0  0  0  0  0  0  0  0  0  0  0
   36.6000   26.8660   38.4500 S   0  0  0  0  0  0  0  0  0  0  0  0
   36.0140   25.4600   38.2130 O   0  0  0  0  0  0  0  0  0  0  0  0
   37.9890   26.8870   37.8350 O   0  0  0  0  0  0  0  0  0  0  0  0
   35.5400   27.4960   37.3430 C   0  0  0  0  0  0  0  0  0  0  0  0
   34.2150   26.9930   37.2980 C   0  0  0  0  0  0  0  0  0  0  0  0
   33.9360   26.1860   37.9620 H   0  0  0  0  0  0  0  0  0  0  0  0
   33.2780   27.5020   36.4370 C   0  0  0  0  0  3  0  0  0  0  0  0
   33.6340   28.5170   35.6010 C   0  0  0  0  0  0  0  0  0  0  0  0
   32.8500   28.8680   34.9460 H   0  0  0  0  0  0  0  0  0  0  0  0
   34.8390   29.1210   35.4980 C   0  0  0  0  0  0  0  0  0  0  0  0
   35.1650   29.9160   34.8620 H   0  0  0  0  0  0  0  0  0  0  0  0
   35.7080   28.5460   36.4000 C   0  0  0  0  0  3  0  0  0  0  0  0
   35.9460   29.2860   40.2090 C   0  0  0  0  0  0  0  0  0  0  0  0
   34.7430   29.5050   39.8350 O   0  0  0  0  0  0  0  0  0  0  0  0
   36.9920   30.2500   40.0450 C   0  0  0  0  0  0  0  0  0  0  0  0
   36.6890   31.5790   40.4930 C   0  0  0  0  0  0  0  0  0  0  0  0
   37.6950   32.5220   40.3510 C   0  0  0  0  0  0  0  0  0  0  0  0
   38.8800   32.1370   39.8090 N   0  0  0  0  0  0  0  0  0  0  0  0
   39.1190   30.8510   39.3950 C   0  0  0  0  0  0  0  0  0  0  0  0
   38.1840   29.9780   39.5270 N   0  0  0  0  0  0  0  0  0  0  0  0
   35.8040   31.9630   40.9220 H   0  0  0  0  0  0  0  0  0  0  0  0
   37.6290   33.5450   40.6330 H   0  0  0  0  0  0  0  0  0  0  0  0
   40.4380   30.5270   38.8260 C   0  0  1  0  0  0  0  0  0  0  0  0
   40.5070   29.8750   37.4590 C   0  0  0  0  0  0  0  0  0  0  0  0
   40.8260   31.3330   37.6370 C   0  0  1  0  0  0  0  0  0  0  0  0
   41.2550   30.3120   39.5240 H   0  0  0  0  0  0  0  0  0  0  0  0
   39.5610   29.5420   36.9970 H   0  0  0  0  0  0  0  0  0  0  0  0
   41.4060   29.2550   37.2980 H   0  0  0  0  0  0  0  0  0  0  0  0
   41.8650   31.6910   37.4860 H   0  0  0  0  0  0  0  0  0  0  0  0
   39.8370   32.1770   36.9850 N   0  0  0  0  0  0  0  0  0  0  0  0
   39.1970   31.6840   36.3560 H   0  0  0  0  0  0  0  0  0  0  0  0
   39.4220   32.8960   37.5850 H   0  0  0  0  0  0  0  0  0  0  0  0
  1  2  2  0  0  0  0
  1  6  1  0  0  0  0
  2  3  1  0  0  0  0
  3  7  1  0  0  0  0
  3  4  2  0  0  0  0
  4  8  1  0  0  0  0
  5  9  1  0  0  0  0
  5  4  1  0  0  0  0
  6  5  2  0  0  0  0
 10  6  1  0  0  0  0
 11  1  1  0  0  0  0
 12 11  2  0  0  0  0
 13 11  2  0  0  0  0
 14 11  1  0  0  0  0
 15 14  1  0  0  0  0
 15 16  1  0  0  0  0
 17 15  2  0  0  0  0
 18 17  1  0  0  0  0
 19 18  1  0  0  0  0
 20 18  2  0  0  0  0
 20 22  1  0  0  0  0
 21 20  1  0  0  0  0
 22 14  2  0  0  0  0
 23  2  1  0  0  0  0
 24 23  2  0  0  0  0
 25 23  1  0  0  0  0
 25 26  1  0  0  0  0
 26 31  1  0  0  0  0
 27 26  2  0  0  0  0
 27 32  1  0  0  0  0
 28 27  1  0  0  0  0
 29 30  1  0  0  0  0
 29 28  2  0  0  0  0
 30 25  2  0  0  0  0
 33 29  1  0  0  0  0
 33 36  1  1  0  0  0
 34 35  1  0  0  0  0
 34 33  1  0  0  0  0
 35 39  1  6  0  0  0
 35 33  1  0  0  0  0
 37 34  1  0  0  0  0
 38 34  1  0  0  0  0
 40 42  1  0  0  0  0
 40 35  1  0  0  0  0
 41 40  1  0  0  0  0
M  END
>  <minimizedAffinity>
-5.84331608

$$$$
