
 OpenBabel03242518293D

 21 22  0  0  0  0  0  0  0  0999 V2000
   46.6850   32.6300   44.7130 C   0  0  0  0  0  0  0  0  0  0  0  0
   47.6990   32.2710   44.0840 O   0  0  0  0  0  0  0  0  0  0  0  0
   45.9600   33.8650   44.5880 C   0  0  0  0  0  0  0  0  0  0  0  0
   46.1480   34.4860   43.3500 C   0  0  0  0  0  0  0  0  0  0  0  0
   45.4800   35.6970   43.1330 C   0  0  0  0  0  0  0  0  0  0  0  0
   44.7000   36.1900   44.1270 N   0  0  0  0  0  0  0  0  0  0  0  0
   44.5520   35.5490   45.3100 C   0  0  0  0  0  0  0  0  0  0  0  0
   45.1900   34.3760   45.5350 N   0  0  0  0  0  0  0  0  0  0  0  0
   46.7560   34.1100   42.5650 H   0  0  0  0  0  0  0  0  0  0  0  0
   45.5890   36.2210   42.1970 H   0  0  0  0  0  0  0  0  0  0  0  0
   43.9080   36.0120   46.0520 H   0  0  0  0  0  0  0  0  0  0  0  0
   46.1640   31.7420   45.6680 O   0  0  0  0  0  0  0  0  0  0  0  0
   46.9650   31.3400   46.7290 C   0  0  0  0  0  0  0  0  0  0  0  0
   47.3300   32.2730   47.7020 C   0  0  0  0  0  0  0  0  0  0  0  0
   46.9950   33.3170   47.6410 H   0  0  0  0  0  0  0  0  0  0  0  0
   48.1290   31.8560   48.7550 C   0  0  0  0  0  0  0  0  0  0  0  0
   48.5580   30.5290   48.8360 C   0  0  0  0  0  0  0  0  0  0  0  0
   49.1770   30.1720   49.6360 H   0  0  0  0  0  0  0  0  0  0  0  0
   48.1880   29.6220   47.8680 C   0  0  0  0  0  0  0  0  0  0  0  0
   48.4790   28.5760   47.8560 H   0  0  0  0  0  0  0  0  0  0  0  0
   47.3820   30.0160   46.7960 C   0  0  0  0  0  0  0  0  0  0  0  0
  1 12  1  0  0  0  0
  2  1  2  0  0  0  0
  3  1  1  0  0  0  0
  3  8  1  0  0  0  0
  4  3  2  0  0  0  0
  5  4  1  0  0  0  0
  5  6  2  0  0  0  0
  6  7  1  0  0  0  0
  7  8  2  0  0  0  0
  7 11  1  0  0  0  0
  9  4  1  0  0  0  0
 10  5  1  0  0  0  0
 12 13  1  0  0  0  0
 13 21  2  0  0  0  0
 13 14  1  0  0  0  0
 14 16  2  0  0  0  0
 15 14  1  0  0  0  0
 16 17  1  0  0  0  0
 17 18  1  0  0  0  0
 19 17  2  0  0  0  0
 20 19  1  0  0  0  0
 21 19  1  0  0  0  0
M  END
>  <minimizedAffinity>
-4.30120468

>  <minimizedRMSD>
6.89177561

$$$$
