
 OpenBabel03252502423D

 24 25  0  0  0  0  0  0  0  0999 V2000
   38.9560   29.3470   42.8730 C   0  0  0  0  0  0  0  0  0  0  0  0
   39.6710   28.6900   42.3260 H   0  0  0  0  0  0  0  0  0  0  0  0
   39.4450   29.9630   43.6430 H   0  0  0  0  0  0  0  0  0  0  0  0
   36.2670   30.8720   40.7070 C   0  0  0  0  0  0  0  0  0  0  0  0
   36.9120   29.9900   41.6120 C   0  0  0  0  0  0  0  0  0  0  0  0
   38.2460   30.2440   41.9310 C   0  0  0  0  0  0  0  0  0  0  0  0
   38.8450   31.3340   41.3480 N   0  0  0  0  0  0  0  0  0  0  0  0
   38.2030   32.1410   40.5000 C   0  0  0  0  0  0  0  0  0  0  0  0
   36.9140   31.9150   40.1750 N   0  0  0  0  0  0  0  0  0  0  0  0
   35.2450   30.7340   40.4200 H   0  0  0  0  0  0  0  0  0  0  0  0
   36.3670   29.1530   42.0280 H   0  0  0  0  0  0  0  0  0  0  0  0
   38.8370   32.9500   40.1370 H   0  0  0  0  0  0  0  0  0  0  0  0
   37.9390   28.3900   43.4780 C   0  0  0  0  0  0  0  0  0  0  0  0
   37.8690   28.5630   44.5760 H   0  0  0  0  0  0  0  0  0  0  0  0
   36.9600   28.6450   43.0200 H   0  0  0  0  0  0  0  0  0  0  0  0
   38.2860   26.9950   43.1710 C   0  0  0  0  0  0  0  0  0  0  0  0
   39.4540   26.3690   43.5510 C   0  0  0  0  0  0  0  0  0  0  0  0
   40.1650   26.9340   44.1110 H   0  0  0  0  0  0  0  0  0  0  0  0
   39.7800   25.0600   43.2630 C   0  0  0  0  0  3  0  0  0  0  0  0
   38.8310   24.3390   42.5290 C   0  0  0  0  0  0  0  0  0  0  0  0
   39.0460   23.2980   42.2770 H   0  0  0  0  0  0  0  0  0  0  0  0
   37.6480   24.9400   42.1320 C   0  0  0  0  0  0  0  0  0  0  0  0
   36.9400   24.3460   41.5630 H   0  0  0  0  0  0  0  0  0  0  0  0
   37.3590   26.2490   42.4370 C   0  0  0  0  0  3  0  0  0  0  0  0
  1 13  1  0  0  0  0
  1  3  1  0  0  0  0
  2  1  1  0  0  0  0
  4  5  1  0  0  0  0
  5  6  2  0  0  0  0
  5 11  1  0  0  0  0
  6  1  1  0  0  0  0
  7  6  1  0  0  0  0
  8  7  2  0  0  0  0
  9  8  1  0  0  0  0
  9  4  2  0  0  0  0
 10  4  1  0  0  0  0
 12  8  1  0  0  0  0
 13 14  1  0  0  0  0
 15 13  1  0  0  0  0
 16 13  1  0  0  0  0
 16 17  1  0  0  0  0
 17 18  1  0  0  0  0
 19 17  2  0  0  0  0
 20 19  1  0  0  0  0
 21 20  1  0  0  0  0
 22 24  1  0  0  0  0
 22 20  2  0  0  0  0
 23 22  1  0  0  0  0
 24 16  2  0  0  0  0
M  END
>  <minimizedAffinity>
-4.61201286

$$$$

 OpenBabel03252502423D

 24 25  0  0  0  0  0  0  0  0999 V2000
   37.7220   28.9460   43.2820 C   0  0  0  0  0  0  0  0  0  0  0  0
   38.7630   28.6140   43.5010 H   0  0  0  0  0  0  0  0  0  0  0  0
   37.2240   29.3920   44.1560 H   0  0  0  0  0  0  0  0  0  0  0  0
   38.8440   31.4920   40.7320 C   0  0  0  0  0  0  0  0  0  0  0  0
   38.8970   30.5550   41.7960 C   0  0  0  0  0  0  0  0  0  0  0  0
   37.7090   29.9310   42.1760 C   0  0  0  0  0  0  0  0  0  0  0  0
   36.5660   30.2670   41.4920 N   0  0  0  0  0  0  0  0  0  0  0  0
   36.5570   31.1550   40.4960 C   0  0  0  0  0  0  0  0  0  0  0  0
   37.6920   31.7710   40.1110 N   0  0  0  0  0  0  0  0  0  0  0  0
   39.7190   32.0060   40.3910 H   0  0  0  0  0  0  0  0  0  0  0  0
   39.8410   30.3470   42.2820 H   0  0  0  0  0  0  0  0  0  0  0  0
   35.5620   31.2940   40.0740 H   0  0  0  0  0  0  0  0  0  0  0  0
   37.0080   27.6880   42.8090 C   0  0  0  0  0  0  0  0  0  0  0  0
   36.1040   27.5110   43.4350 H   0  0  0  0  0  0  0  0  0  0  0  0
   36.6790   27.8890   41.7680 H   0  0  0  0  0  0  0  0  0  0  0  0
   37.9150   26.5310   42.8310 C   0  0  0  0  0  0  0  0  0  0  0  0
   37.6780   25.3280   42.2000 C   0  0  0  0  0  0  0  0  0  0  0  0
   36.7690   25.2230   41.6520 H   0  0  0  0  0  0  0  0  0  0  0  0
   38.5290   24.2440   42.2210 C   0  0  0  0  0  3  0  0  0  0  0  0
   39.7150   24.4070   42.9460 C   0  0  0  0  0  0  0  0  0  0  0  0
   40.4190   23.5740   42.9900 H   0  0  0  0  0  0  0  0  0  0  0  0
   39.9820   25.6040   43.5910 C   0  0  0  0  0  0  0  0  0  0  0  0
   40.9130   25.6890   44.1420 H   0  0  0  0  0  0  0  0  0  0  0  0
   39.1080   26.6640   43.5480 C   0  0  0  0  0  3  0  0  0  0  0  0
  1  2  1  0  0  0  0
  1  3  1  0  0  0  0
  4  5  1  0  0  0  0
  5  6  2  0  0  0  0
  5 11  1  0  0  0  0
  6  1  1  0  0  0  0
  7  6  1  0  0  0  0
  8  7  2  0  0  0  0
  9  8  1  0  0  0  0
  9  4  2  0  0  0  0
 10  4  1  0  0  0  0
 12  8  1  0  0  0  0
 13 16  1  0  0  0  0
 13  1  1  0  0  0  0
 13 14  1  0  0  0  0
 15 13  1  0  0  0  0
 16 24  1  0  0  0  0
 17 19  1  0  0  0  0
 17 16  2  0  0  0  0
 18 17  1  0  0  0  0
 19 20  2  0  0  0  0
 20 21  1  0  0  0  0
 20 22  1  0  0  0  0
 22 23  1  0  0  0  0
 24 22  2  0  0  0  0
M  END
>  <minimizedAffinity>
-4.57316589

$$$$

 OpenBabel03252502423D

 24 25  0  0  0  0  0  0  0  0999 V2000
   37.3220   28.4040   43.2530 C   0  0  0  0  0  0  0  0  0  0  0  0
   37.0430   28.7300   44.2820 H   0  0  0  0  0  0  0  0  0  0  0  0
   36.5080   27.8690   42.7400 H   0  0  0  0  0  0  0  0  0  0  0  0
   39.3570   31.1840   41.7110 C   0  0  0  0  0  0  0  0  0  0  0  0
   39.0160   30.0690   42.5200 C   0  0  0  0  0  0  0  0  0  0  0  0
   37.7180   29.5670   42.4260 C   0  0  0  0  0  0  0  0  0  0  0  0
   36.8570   30.1870   41.5530 N   0  0  0  0  0  0  0  0  0  0  0  0
   37.2160   31.2360   40.8080 C   0  0  0  0  0  0  0  0  0  0  0  0
   38.4640   31.7380   40.8820 N   0  0  0  0  0  0  0  0  0  0  0  0
   40.3360   31.6180   41.7350 H   0  0  0  0  0  0  0  0  0  0  0  0
   39.7560   29.6390   43.1820 H   0  0  0  0  0  0  0  0  0  0  0  0
   36.4030   31.5940   40.1780 H   0  0  0  0  0  0  0  0  0  0  0  0
   38.5440   27.5190   43.4470 C   0  0  0  0  0  0  0  0  0  0  0  0
   39.4530   28.0480   43.0820 H   0  0  0  0  0  0  0  0  0  0  0  0
   38.6460   27.3630   44.5420 H   0  0  0  0  0  0  0  0  0  0  0  0
   38.3660   26.2250   42.7730 C   0  0  0  0  0  0  0  0  0  0  0  0
   39.3850   25.3540   42.4510 C   0  0  0  0  0  0  0  0  0  0  0  0
   40.3810   25.6350   42.7080 H   0  0  0  0  0  0  0  0  0  0  0  0
   39.2170   24.1400   41.8190 C   0  0  0  0  0  3  0  0  0  0  0  0
   37.9010   23.7940   41.4930 C   0  0  0  0  0  0  0  0  0  0  0  0
   37.7200   22.8410   40.9910 H   0  0  0  0  0  0  0  0  0  0  0  0
   36.8550   24.6480   41.8030 C   0  0  0  0  0  0  0  0  0  0  0  0
   35.8490   24.3420   41.5330 H   0  0  0  0  0  0  0  0  0  0  0  0
   37.0610   25.8520   42.4340 C   0  0  0  0  0  3  0  0  0  0  0  0
  1 13  1  0  0  0  0
  1  2  1  0  0  0  0
  3  1  1  0  0  0  0
  4 10  1  0  0  0  0
  4  5  1  0  0  0  0
  5 11  1  0  0  0  0
  6  5  2  0  0  0  0
  6  1  1  0  0  0  0
  7  6  1  0  0  0  0
  8  9  1  0  0  0  0
  8  7  2  0  0  0  0
  9  4  2  0  0  0  0
 12  8  1  0  0  0  0
 13 15  1  0  0  0  0
 14 13  1  0  0  0  0
 16 13  1  0  0  0  0
 17 18  1  0  0  0  0
 17 16  1  0  0  0  0
 19 17  2  0  0  0  0
 20 22  2  0  0  0  0
 20 19  1  0  0  0  0
 21 20  1  0  0  0  0
 22 24  1  0  0  0  0
 23 22  1  0  0  0  0
 24 16  2  0  0  0  0
M  END
>  <minimizedAffinity>
-4.47511911

$$$$

 OpenBabel03252502423D

 24 25  0  0  0  0  0  0  0  0999 V2000
   36.1840   27.7960   40.3240 C   0  0  0  0  0  0  0  0  0  0  0  0
   36.6400   27.8510   39.3080 H   0  0  0  0  0  0  0  0  0  0  0  0
   35.5170   26.9290   40.4450 H   0  0  0  0  0  0  0  0  0  0  0  0
   37.9010   27.6050   43.6800 C   0  0  0  0  0  0  0  0  0  0  0  0
   36.8660   27.6630   42.7100 C   0  0  0  0  0  0  0  0  0  0  0  0
   37.2340   27.7350   41.3670 C   0  0  0  0  0  0  0  0  0  0  0  0
   38.5760   27.7450   41.0730 N   0  0  0  0  0  0  0  0  0  0  0  0
   39.5200   27.6890   42.0150 C   0  0  0  0  0  0  0  0  0  0  0  0
   39.1900   27.6190   43.3190 N   0  0  0  0  0  0  0  0  0  0  0  0
   37.6870   27.5480   44.7270 H   0  0  0  0  0  0  0  0  0  0  0  0
   35.8310   27.6500   43.0270 H   0  0  0  0  0  0  0  0  0  0  0  0
   40.5260   27.7090   41.5950 H   0  0  0  0  0  0  0  0  0  0  0  0
   35.4330   29.1100   40.4790 C   0  0  0  0  0  0  0  0  0  0  0  0
   34.4170   29.0170   40.0340 H   0  0  0  0  0  0  0  0  0  0  0  0
   35.3220   29.2790   41.5710 H   0  0  0  0  0  0  0  0  0  0  0  0
   36.1880   30.2190   39.8770 C   0  0  0  0  0  0  0  0  0  0  0  0
   36.5760   30.2860   38.5560 C   0  0  0  0  0  0  0  0  0  0  0  0
   36.3110   29.4750   37.9160 H   0  0  0  0  0  0  0  0  0  0  0  0
   37.2830   31.3260   37.9920 C   0  0  0  0  0  3  0  0  0  0  0  0
   37.6180   32.3790   38.8510 C   0  0  0  0  0  0  0  0  0  0  0  0
   38.1790   33.2240   38.4480 H   0  0  0  0  0  0  0  0  0  0  0  0
   37.2430   32.3410   40.1850 C   0  0  0  0  0  0  0  0  0  0  0  0
   37.5230   33.1770   40.8170 H   0  0  0  0  0  0  0  0  0  0  0  0
   36.5380   31.2850   40.7120 C   0  0  0  0  0  3  0  0  0  0  0  0
  1  3  1  0  0  0  0
  1 13  1  0  0  0  0
  1  6  1  0  0  0  0
  2  1  1  0  0  0  0
  4 10  1  0  0  0  0
  5 11  1  0  0  0  0
  5  4  2  0  0  0  0
  6  5  1  0  0  0  0
  7  6  2  0  0  0  0
  7  8  1  0  0  0  0
  8  9  2  0  0  0  0
  9  4  1  0  0  0  0
 12  8  1  0  0  0  0
 13 15  1  0  0  0  0
 14 13  1  0  0  0  0
 16 13  1  0  0  0  0
 16 24  1  0  0  0  0
 17 16  2  0  0  0  0
 18 17  1  0  0  0  0
 19 17  1  0  0  0  0
 19 20  2  0  0  0  0
 20 22  1  0  0  0  0
 21 20  1  0  0  0  0
 22 24  2  0  0  0  0
 22 23  1  0  0  0  0
M  END
>  <minimizedAffinity>
-4.38492489

$$$$

 OpenBabel03252502423D

 24 25  0  0  0  0  0  0  0  0999 V2000
   36.8470   30.8770   39.5870 C   0  0  0  0  0  0  0  0  0  0  0  0
   35.9830   31.2100   38.9660 H   0  0  0  0  0  0  0  0  0  0  0  0
   37.2900   29.9340   39.2320 H   0  0  0  0  0  0  0  0  0  0  0  0
   38.6380   34.1610   40.0920 C   0  0  0  0  0  0  0  0  0  0  0  0
   37.5990   33.1940   40.0820 C   0  0  0  0  0  0  0  0  0  0  0  0
   37.9030   31.9160   39.6140 C   0  0  0  0  0  0  0  0  0  0  0  0
   39.1900   31.6790   39.1960 N   0  0  0  0  0  0  0  0  0  0  0  0
   40.1400   32.6170   39.2210 C   0  0  0  0  0  0  0  0  0  0  0  0
   39.8700   33.8590   39.6680 N   0  0  0  0  0  0  0  0  0  0  0  0
   38.4710   35.1600   40.4380 H   0  0  0  0  0  0  0  0  0  0  0  0
   36.6110   33.4640   40.4300 H   0  0  0  0  0  0  0  0  0  0  0  0
   41.0960   32.2480   38.8510 H   0  0  0  0  0  0  0  0  0  0  0  0
   36.2800   30.7380   40.9920 C   0  0  0  0  0  0  0  0  0  0  0  0
   36.4090   31.6950   41.5460 H   0  0  0  0  0  0  0  0  0  0  0  0
   35.1920   30.5470   40.8720 H   0  0  0  0  0  0  0  0  0  0  0  0
   36.9080   29.6130   41.7020 C   0  0  0  0  0  0  0  0  0  0  0  0
   38.0380   29.7050   42.4860 C   0  0  0  0  0  0  0  0  0  0  0  0
   38.4960   30.6630   42.5910 H   0  0  0  0  0  0  0  0  0  0  0  0
   38.6270   28.6510   43.1510 C   0  0  0  0  0  3  0  0  0  0  0  0
   38.0070   27.4050   42.9990 C   0  0  0  0  0  0  0  0  0  0  0  0
   38.4390   26.5410   43.5070 H   0  0  0  0  0  0  0  0  0  0  0  0
   36.8700   27.2800   42.2160 C   0  0  0  0  0  0  0  0  0  0  0  0
   36.4200   26.2970   42.1240 H   0  0  0  0  0  0  0  0  0  0  0  0
   36.3110   28.3560   41.5670 C   0  0  0  0  0  3  0  0  0  0  0  0
  1  6  1  0  0  0  0
  1 13  1  0  0  0  0
  2  1  1  0  0  0  0
  3  1  1  0  0  0  0
  4 10  1  0  0  0  0
  5  4  1  0  0  0  0
  5 11  1  0  0  0  0
  6  5  2  0  0  0  0
  7  8  2  0  0  0  0
  7  6  1  0  0  0  0
  8  9  1  0  0  0  0
  9  4  2  0  0  0  0
 12  8  1  0  0  0  0
 13 14  1  0  0  0  0
 13 16  1  0  0  0  0
 15 13  1  0  0  0  0
 16 17  1  0  0  0  0
 17 18  1  0  0  0  0
 17 19  2  0  0  0  0
 20 19  1  0  0  0  0
 20 21  1  0  0  0  0
 22 20  2  0  0  0  0
 23 22  1  0  0  0  0
 24 16  2  0  0  0  0
 24 22  1  0  0  0  0
M  END
>  <minimizedAffinity>
-4.37538004

$$$$

 OpenBabel03252502423D

 24 25  0  0  0  0  0  0  0  0999 V2000
   35.7070   29.1670   40.6910 C   0  0  0  0  0  0  0  0  0  0  0  0
   34.8820   29.5120   41.3570 H   0  0  0  0  0  0  0  0  0  0  0  0
   35.3640   28.4660   39.9150 H   0  0  0  0  0  0  0  0  0  0  0  0
   37.2490   31.3980   38.0660 C   0  0  0  0  0  0  0  0  0  0  0  0
   36.6190   30.2740   38.6610 C   0  0  0  0  0  0  0  0  0  0  0  0
   36.3630   30.3200   40.0310 C   0  0  0  0  0  0  0  0  0  0  0  0
   36.7370   31.4520   40.7120 N   0  0  0  0  0  0  0  0  0  0  0  0
   37.3280   32.4900   40.1150 C   0  0  0  0  0  0  0  0  0  0  0  0
   37.5860   32.4690   38.7930 N   0  0  0  0  0  0  0  0  0  0  0  0
   37.4730   31.4270   37.0190 H   0  0  0  0  0  0  0  0  0  0  0  0
   36.3560   29.4200   38.0510 H   0  0  0  0  0  0  0  0  0  0  0  0
   37.5530   33.2970   40.8130 H   0  0  0  0  0  0  0  0  0  0  0  0
   36.7140   28.5180   41.6290 C   0  0  0  0  0  0  0  0  0  0  0  0
   37.7080   29.0030   41.5060 H   0  0  0  0  0  0  0  0  0  0  0  0
   36.3530   28.7170   42.6600 H   0  0  0  0  0  0  0  0  0  0  0  0
   36.7870   27.0680   41.3970 C   0  0  0  0  0  0  0  0  0  0  0  0
   37.0050   26.1210   42.3750 C   0  0  0  0  0  0  0  0  0  0  0  0
   37.1290   26.4590   43.3790 H   0  0  0  0  0  0  0  0  0  0  0  0
   37.0740   24.7610   42.1570 C   0  0  0  0  0  3  0  0  0  0  0  0
   36.9060   24.3420   40.8320 C   0  0  0  0  0  0  0  0  0  0  0  0
   36.9540   23.2740   40.6120 H   0  0  0  0  0  0  0  0  0  0  0  0
   36.6870   25.2700   39.8260 C   0  0  0  0  0  0  0  0  0  0  0  0
   36.5630   24.9040   38.8130 H   0  0  0  0  0  0  0  0  0  0  0  0
   36.6250   26.6190   40.0830 C   0  0  0  0  0  3  0  0  0  0  0  0
  1  2  1  0  0  0  0
  1 13  1  0  0  0  0
  3  1  1  0  0  0  0
  4  5  2  0  0  0  0
  4  9  1  0  0  0  0
  5  6  1  0  0  0  0
  6  1  1  0  0  0  0
  6  7  2  0  0  0  0
  8  7  1  0  0  0  0
  8 12  1  0  0  0  0
  9  8  2  0  0  0  0
 10  4  1  0  0  0  0
 11  5  1  0  0  0  0
 13 15  1  0  0  0  0
 14 13  1  0  0  0  0
 16 13  1  0  0  0  0
 16 17  1  0  0  0  0
 17 18  1  0  0  0  0
 19 17  2  0  0  0  0
 20 19  1  0  0  0  0
 21 20  1  0  0  0  0
 22 24  1  0  0  0  0
 22 20  2  0  0  0  0
 23 22  1  0  0  0  0
 24 16  2  0  0  0  0
M  END
>  <minimizedAffinity>
-4.36075878

$$$$

 OpenBabel03252502423D

 24 25  0  0  0  0  0  0  0  0999 V2000
   37.8610   28.1250   43.2850 C   0  0  0  0  0  0  0  0  0  0  0  0
   37.5460   28.2980   44.3410 H   0  0  0  0  0  0  0  0  0  0  0  0
   38.5080   28.9270   42.8970 H   0  0  0  0  0  0  0  0  0  0  0  0
   40.5190   25.4570   43.5380 C   0  0  0  0  0  0  0  0  0  0  0  0
   39.8660   26.7090   43.6790 C   0  0  0  0  0  0  0  0  0  0  0  0
   38.5780   26.8350   43.1580 C   0  0  0  0  0  0  0  0  0  0  0  0
   38.0290   25.7370   42.5430 N   0  0  0  0  0  0  0  0  0  0  0  0
   38.6770   24.5750   42.4290 C   0  0  0  0  0  0  0  0  0  0  0  0
   39.9220   24.4290   42.9240 N   0  0  0  0  0  0  0  0  0  0  0  0
   41.5070   25.2940   43.9150 H   0  0  0  0  0  0  0  0  0  0  0  0
   40.3700   27.5250   44.1800 H   0  0  0  0  0  0  0  0  0  0  0  0
   38.0860   23.8200   41.9110 H   0  0  0  0  0  0  0  0  0  0  0  0
   36.5590   28.0260   42.5060 C   0  0  0  0  0  0  0  0  0  0  0  0
   36.3800   26.9690   42.2060 H   0  0  0  0  0  0  0  0  0  0  0  0
   35.7520   28.3330   43.2050 H   0  0  0  0  0  0  0  0  0  0  0  0
   36.5760   28.9220   41.3400 C   0  0  0  0  0  0  0  0  0  0  0  0
   36.5610   30.2990   41.4010 C   0  0  0  0  0  0  0  0  0  0  0  0
   36.5350   30.7560   42.3640 H   0  0  0  0  0  0  0  0  0  0  0  0
   36.5770   31.1390   40.3080 C   0  0  0  0  0  3  0  0  0  0  0  0
   36.6130   30.5160   39.0550 C   0  0  0  0  0  0  0  0  0  0  0  0
   36.6260   31.1420   38.1600 H   0  0  0  0  0  0  0  0  0  0  0  0
   36.6280   29.1330   38.9600 C   0  0  0  0  0  0  0  0  0  0  0  0
   36.6560   28.6900   37.9700 H   0  0  0  0  0  0  0  0  0  0  0  0
   36.6110   28.3280   40.0740 C   0  0  0  0  0  3  0  0  0  0  0  0
  1  2  1  0  0  0  0
  3  1  1  0  0  0  0
  4  5  1  0  0  0  0
  4 10  1  0  0  0  0
  5 11  1  0  0  0  0
  6  1  1  0  0  0  0
  6  5  2  0  0  0  0
  7  6  1  0  0  0  0
  8  7  2  0  0  0  0
  8  9  1  0  0  0  0
  9  4  2  0  0  0  0
 12  8  1  0  0  0  0
 13 15  1  0  0  0  0
 13  1  1  0  0  0  0
 14 13  1  0  0  0  0
 16 17  1  0  0  0  0
 16 13  1  0  0  0  0
 17 18  1  0  0  0  0
 19 17  2  0  0  0  0
 20 19  1  0  0  0  0
 21 20  1  0  0  0  0
 22 20  2  0  0  0  0
 22 24  1  0  0  0  0
 23 22  1  0  0  0  0
 24 16  2  0  0  0  0
M  END
>  <minimizedAffinity>
-4.28580809

$$$$

 OpenBabel03252502423D

 24 25  0  0  0  0  0  0  0  0999 V2000
   36.7270   28.2090   42.5150 C   0  0  0  0  0  0  0  0  0  0  0  0
   35.8140   28.0610   43.1370 H   0  0  0  0  0  0  0  0  0  0  0  0
   37.2370   29.1610   42.7260 H   0  0  0  0  0  0  0  0  0  0  0  0
   38.3950   24.8270   42.3530 C   0  0  0  0  0  0  0  0  0  0  0  0
   37.4520   25.8630   42.1280 C   0  0  0  0  0  0  0  0  0  0  0  0
   37.6880   27.1010   42.7250 C   0  0  0  0  0  0  0  0  0  0  0  0
   38.8210   27.2340   43.4900 N   0  0  0  0  0  0  0  0  0  0  0  0
   39.6850   26.2330   43.6780 C   0  0  0  0  0  0  0  0  0  0  0  0
   39.4780   25.0280   43.1120 N   0  0  0  0  0  0  0  0  0  0  0  0
   38.2740   23.8530   41.9240 H   0  0  0  0  0  0  0  0  0  0  0  0
   36.5840   25.6740   41.5100 H   0  0  0  0  0  0  0  0  0  0  0  0
   40.5220   26.5230   44.3130 H   0  0  0  0  0  0  0  0  0  0  0  0
   36.2290   28.1420   41.0790 C   0  0  0  0  0  0  0  0  0  0  0  0
   36.6920   27.2720   40.5610 H   0  0  0  0  0  0  0  0  0  0  0  0
   35.1340   27.9730   41.1360 H   0  0  0  0  0  0  0  0  0  0  0  0
   36.5040   29.4010   40.3710 C   0  0  0  0  0  0  0  0  0  0  0  0
   36.6180   29.5310   39.0030 C   0  0  0  0  0  0  0  0  0  0  0  0
   36.4990   28.6540   38.4070 H   0  0  0  0  0  0  0  0  0  0  0  0
   36.8760   30.7110   38.3390 C   0  0  0  0  0  3  0  0  0  0  0  0
   37.0280   31.8470   39.1420 C   0  0  0  0  0  0  0  0  0  0  0  0
   37.2330   32.8050   38.6600 H   0  0  0  0  0  0  0  0  0  0  0  0
   36.9190   31.7500   40.5210 C   0  0  0  0  0  0  0  0  0  0  0  0
   37.0440   32.6540   41.1070 H   0  0  0  0  0  0  0  0  0  0  0  0
   36.6620   30.5540   41.1470 C   0  0  0  0  0  3  0  0  0  0  0  0
  1  6  1  0  0  0  0
  1  3  1  0  0  0  0
  1  2  1  0  0  0  0
  4  9  1  0  0  0  0
  5  4  2  0  0  0  0
  5  6  1  0  0  0  0
  6  7  2  0  0  0  0
  7  8  1  0  0  0  0
  8 12  1  0  0  0  0
  9  8  2  0  0  0  0
 10  4  1  0  0  0  0
 11  5  1  0  0  0  0
 13 15  1  0  0  0  0
 13  1  1  0  0  0  0
 14 13  1  0  0  0  0
 16 13  1  0  0  0  0
 16 24  1  0  0  0  0
 17 16  2  0  0  0  0
 18 17  1  0  0  0  0
 19 17  1  0  0  0  0
 19 20  2  0  0  0  0
 20 22  1  0  0  0  0
 21 20  1  0  0  0  0
 22 23  1  0  0  0  0
 22 24  2  0  0  0  0
M  END
>  <minimizedAffinity>
-4.23884153

$$$$

 OpenBabel03252502423D

 24 25  0  0  0  0  0  0  0  0999 V2000
   36.0180   30.0500   40.7490 C   0  0  0  0  0  0  0  0  0  0  0  0
   35.5170   30.8970   41.2730 H   0  0  0  0  0  0  0  0  0  0  0  0
   36.6770   30.3840   39.9330 H   0  0  0  0  0  0  0  0  0  0  0  0
   38.7620   28.9390   43.0890 C   0  0  0  0  0  0  0  0  0  0  0  0
   38.0270   29.7410   42.1780 C   0  0  0  0  0  0  0  0  0  0  0  0
   36.8150   29.2430   41.7010 C   0  0  0  0  0  0  0  0  0  0  0  0
   36.4140   28.0070   42.1470 N   0  0  0  0  0  0  0  0  0  0  0  0
   37.1350   27.2820   43.0050 C   0  0  0  0  0  0  0  0  0  0  0  0
   38.3090   27.7420   43.4800 N   0  0  0  0  0  0  0  0  0  0  0  0
   39.6990   29.2620   43.4930 H   0  0  0  0  0  0  0  0  0  0  0  0
   38.4160   30.7060   41.8780 H   0  0  0  0  0  0  0  0  0  0  0  0
   36.6610   26.3310   43.2440 H   0  0  0  0  0  0  0  0  0  0  0  0
   34.8750   29.1880   40.2330 C   0  0  0  0  0  0  0  0  0  0  0  0
   34.9390   28.1710   40.6830 H   0  0  0  0  0  0  0  0  0  0  0  0
   33.9380   29.6680   40.5840 H   0  0  0  0  0  0  0  0  0  0  0  0
   34.8860   29.1290   38.7640 C   0  0  0  0  0  0  0  0  0  0  0  0
   33.8280   28.7160   37.9810 C   0  0  0  0  0  0  0  0  0  0  0  0
   32.9300   28.4160   38.4730 H   0  0  0  0  0  0  0  0  0  0  0  0
   33.8380   28.6610   36.6040 C   0  0  0  0  0  3  0  0  0  0  0  0
   35.0260   29.0600   35.9810 C   0  0  0  0  0  0  0  0  0  0  0  0
   35.0800   29.0330   34.8910 H   0  0  0  0  0  0  0  0  0  0  0  0
   36.1080   29.4800   36.7400 C   0  0  0  0  0  0  0  0  0  0  0  0
   37.0100   29.7810   36.2190 H   0  0  0  0  0  0  0  0  0  0  0  0
   36.0600   29.5210   38.1130 C   0  0  0  0  0  3  0  0  0  0  0  0
  1  2  1  0  0  0  0
  1  6  1  0  0  0  0
  3  1  1  0  0  0  0
  4  9  1  0  0  0  0
  4 10  1  0  0  0  0
  5  4  2  0  0  0  0
  6  7  2  0  0  0  0
  6  5  1  0  0  0  0
  7  8  1  0  0  0  0
  8 12  1  0  0  0  0
  8  9  2  0  0  0  0
 11  5  1  0  0  0  0
 13 15  1  0  0  0  0
 13 14  1  0  0  0  0
 13  1  1  0  0  0  0
 16 13  1  0  0  0  0
 17 18  1  0  0  0  0
 17 16  2  0  0  0  0
 19 17  1  0  0  0  0
 20 19  2  0  0  0  0
 20 22  1  0  0  0  0
 21 20  1  0  0  0  0
 22 24  2  0  0  0  0
 23 22  1  0  0  0  0
 24 16  1  0  0  0  0
M  END
>  <minimizedAffinity>
-4.20682049

$$$$
