
 OpenBabel03252506593D

 24 25  0  0  0  0  0  0  0  0999 V2000
   45.4630   33.8830   45.8900 C   0  0  0  0  0  0  0  0  0  0  0  0
   45.3310   34.7110   46.5790 H   0  0  0  0  0  0  0  0  0  0  0  0
   44.5410   33.2630   45.9920 H   0  0  0  0  0  0  0  0  0  0  0  0
   45.7360   34.2860   44.5120 C   0  0  0  0  0  0  0  0  0  0  0  0
   46.8540   33.8330   43.8200 C   0  0  0  0  0  0  0  0  0  0  0  0
   47.0360   34.2740   42.4800 C   0  0  0  0  0  0  0  0  0  0  0  0
   46.0970   35.1170   41.9580 N   0  0  0  0  0  0  0  0  0  0  0  0
   45.0210   35.5300   42.6810 C   0  0  0  0  0  0  0  0  0  0  0  0
   44.8510   35.1090   43.9520 N   0  0  0  0  0  0  0  0  0  0  0  0
   47.5600   33.1680   44.2890 H   0  0  0  0  0  0  0  0  0  0  0  0
   47.8880   33.9450   41.9140 H   0  0  0  0  0  0  0  0  0  0  0  0
   44.3050   36.1990   42.2160 H   0  0  0  0  0  0  0  0  0  0  0  0
   46.6240   33.0740   46.3950 C   0  0  0  0  0  0  0  0  0  0  0  0
   47.1500   32.5140   45.5880 H   0  0  0  0  0  0  0  0  0  0  0  0
   47.3080   33.7470   46.9410 H   0  0  0  0  0  0  0  0  0  0  0  0
   46.0640   32.0370   47.3060 C   0  0  0  0  0  0  0  0  0  0  0  0
   45.7630   30.7820   46.8390 C   0  0  0  0  0  0  0  0  0  0  0  0
   45.9320   30.5270   45.7920 H   0  0  0  0  0  0  0  0  0  0  0  0
   45.2380   29.8110   47.6970 C   0  0  0  0  0  0  0  0  0  0  0  0
   45.0160   30.0980   49.0070 C   0  0  0  0  0  0  0  0  0  0  0  0
   44.6080   29.3810   49.7210 H   0  0  0  0  0  0  0  0  0  0  0  0
   45.3050   31.3610   49.5320 C   0  0  0  0  0  0  0  0  0  0  0  0
   45.1390   31.6220   50.5760 H   0  0  0  0  0  0  0  0  0  0  0  0
   45.8250   32.2850   48.6380 C   0  0  0  0  0  0  0  0  0  0  0  0
  1  3  1  0  0  0  0
  1 13  1  0  0  0  0
  1  2  1  0  0  0  0
  4  1  1  0  0  0  0
  5 10  1  0  0  0  0
  5  4  2  0  0  0  0
  6  5  1  0  0  0  0
  7  6  2  0  0  0  0
  7  8  1  0  0  0  0
  8  9  2  0  0  0  0
  9  4  1  0  0  0  0
 11  6  1  0  0  0  0
 12  8  1  0  0  0  0
 13 15  1  0  0  0  0
 13 16  1  0  0  0  0
 14 13  1  0  0  0  0
 16 24  1  0  0  0  0
 17 16  2  0  0  0  0
 17 19  1  0  0  0  0
 18 17  1  0  0  0  0
 19 20  2  0  0  0  0
 20 22  1  0  0  0  0
 20 21  1  0  0  0  0
 22 23  1  0  0  0  0
 24 22  2  0  0  0  0
M  END
>  <minimizedAffinity>
-4.48843145

>  <minimizedRMSD>
6.80700397

$$$$
