
 OpenBabel03252509303D

 21 22  0  0  0  0  0  0  0  0999 V2000
   37.4130   28.4070   43.6790 C   0  0  0  0  0  0  0  0  0  0  0  0
   37.8900   28.6720   44.6650 H   0  0  0  0  0  0  0  0  0  0  0  0
   36.3050   28.3340   43.8150 H   0  0  0  0  0  0  0  0  0  0  0  0
   39.2610   30.9210   41.6480 C   0  0  0  0  0  0  0  0  0  0  0  0
   38.9370   30.0060   42.6690 C   0  0  0  0  0  0  0  0  0  0  0  0
   37.7200   29.3500   42.6060 C   0  0  0  0  0  0  0  0  0  0  0  0
   36.8900   29.6170   41.5650 N   0  0  0  0  0  0  0  0  0  0  0  0
   37.2230   30.5070   40.5880 C   0  0  0  0  0  0  0  0  0  0  0  0
   38.4040   31.1460   40.6450 N   0  0  0  0  0  0  0  0  0  0  0  0
   40.2050   31.4130   41.7200 H   0  0  0  0  0  0  0  0  0  0  0  0
   39.6390   29.8340   43.4730 H   0  0  0  0  0  0  0  0  0  0  0  0
   36.4840   30.6540   39.7880 H   0  0  0  0  0  0  0  0  0  0  0  0
   37.9950   27.0930   43.2590 C   0  0  0  0  0  0  0  0  0  0  0  0
   37.2480   26.2620   42.4630 C   0  0  0  0  0  0  0  0  0  0  0  0
   36.2460   26.6040   42.1660 H   0  0  0  0  0  0  0  0  0  0  0  0
   37.6050   25.0250   41.9760 C   0  0  0  0  0  3  0  0  0  0  0  0
   38.8810   24.5980   42.3570 C   0  0  0  0  0  0  0  0  0  0  0  0
   39.2020   23.6240   41.9930 H   0  0  0  0  0  0  0  0  0  0  0  0
   39.6730   25.4030   43.1620 C   0  0  0  0  0  0  0  0  0  0  0  0
   40.6650   25.0360   43.4410 H   0  0  0  0  0  0  0  0  0  0  0  0
   39.2440   26.6390   43.6140 C   0  0  0  0  0  3  0  0  0  0  0  0
  1  3  1  0  0  0  0
  1  2  1  0  0  0  0
  4 10  1  0  0  0  0
  4  5  1  0  0  0  0
  5 11  1  0  0  0  0
  6  5  2  0  0  0  0
  6  1  1  0  0  0  0
  7  6  1  0  0  0  0
  8  9  1  0  0  0  0
  8  7  2  0  0  0  0
  9  4  2  0  0  0  0
 12  8  1  0  0  0  0
 13 21  1  0  0  0  0
 13  1  1  0  0  0  0
 14 13  2  0  0  0  0
 15 14  1  0  0  0  0
 16 17  2  0  0  0  0
 16 14  1  0  0  0  0
 17 19  1  0  0  0  0
 18 17  1  0  0  0  0
 19 20  1  0  0  0  0
 19 21  2  0  0  0  0
M  END
>  <minimizedAffinity>
-4.39914131

$$$$

 OpenBabel03252509303D

 21 22  0  0  0  0  0  0  0  0999 V2000
   35.4350   28.9230   40.7590 C   0  0  0  0  0  0  0  0  0  0  0  0
   34.9190   28.3550   39.9350 H   0  0  0  0  0  0  0  0  0  0  0  0
   34.6710   29.2820   41.4930 H   0  0  0  0  0  0  0  0  0  0  0  0
   37.9480   26.2640   41.4470 C   0  0  0  0  0  0  0  0  0  0  0  0
   36.9570   27.0300   40.8040 C   0  0  0  0  0  0  0  0  0  0  0  0
   36.4620   28.1490   41.4520 C   0  0  0  0  0  0  0  0  0  0  0  0
   36.9520   28.4580   42.6800 N   0  0  0  0  0  0  0  0  0  0  0  0
   37.9110   27.7020   43.2860 C   0  0  0  0  0  0  0  0  0  0  0  0
   38.3940   26.6160   42.6600 N   0  0  0  0  0  0  0  0  0  0  0  0
   38.3130   25.4070   40.9270 H   0  0  0  0  0  0  0  0  0  0  0  0
   36.6070   26.7340   39.8250 H   0  0  0  0  0  0  0  0  0  0  0  0
   38.2410   28.0360   44.2800 H   0  0  0  0  0  0  0  0  0  0  0  0
   36.1450   30.0710   40.1110 C   0  0  0  0  0  0  0  0  0  0  0  0
   36.4390   29.9970   38.7730 C   0  0  0  0  0  0  0  0  0  0  0  0
   36.1350   29.0890   38.2320 H   0  0  0  0  0  0  0  0  0  0  0  0
   37.0810   30.9400   38.0030 C   0  0  0  0  0  3  0  0  0  0  0  0
   37.4640   32.0920   38.6970 C   0  0  0  0  0  0  0  0  0  0  0  0
   37.9750   32.8640   38.1240 H   0  0  0  0  0  0  0  0  0  0  0  0
   37.1890   32.2130   40.0510 C   0  0  0  0  0  0  0  0  0  0  0  0
   37.5040   33.1280   40.5610 H   0  0  0  0  0  0  0  0  0  0  0  0
   36.5370   31.2180   40.7590 C   0  0  0  0  0  3  0  0  0  0  0  0
  1  6  1  0  0  0  0
  1  3  1  0  0  0  0
  2  1  1  0  0  0  0
  4  9  1  0  0  0  0
  5  4  2  0  0  0  0
  5  6  1  0  0  0  0
  6  7  2  0  0  0  0
  7  8  1  0  0  0  0
  8 12  1  0  0  0  0
  9  8  2  0  0  0  0
 10  4  1  0  0  0  0
 11  5  1  0  0  0  0
 13  1  1  0  0  0  0
 13 21  1  0  0  0  0
 14 13  2  0  0  0  0
 15 14  1  0  0  0  0
 16 17  2  0  0  0  0
 16 14  1  0  0  0  0
 17 19  1  0  0  0  0
 18 17  1  0  0  0  0
 19 20  1  0  0  0  0
 19 21  2  0  0  0  0
M  END
>  <minimizedAffinity>
-4.32165718

$$$$

 OpenBabel03252509303D

 21 22  0  0  0  0  0  0  0  0999 V2000
   37.3670   28.3790   43.6800 C   0  0  0  0  0  0  0  0  0  0  0  0
   37.7120   28.5350   44.7400 H   0  0  0  0  0  0  0  0  0  0  0  0
   36.2490   28.4000   43.6500 H   0  0  0  0  0  0  0  0  0  0  0  0
   37.6670   30.5400   40.6620 C   0  0  0  0  0  0  0  0  0  0  0  0
   37.1730   29.6000   41.5880 C   0  0  0  0  0  0  0  0  0  0  0  0
   37.9050   29.3580   42.7380 C   0  0  0  0  0  0  0  0  0  0  0  0
   39.0680   30.0350   42.9230 N   0  0  0  0  0  0  0  0  0  0  0  0
   39.5280   30.9400   42.0130 C   0  0  0  0  0  0  0  0  0  0  0  0
   38.8210   31.1780   40.8960 N   0  0  0  0  0  0  0  0  0  0  0  0
   37.0840   30.7080   39.7840 H   0  0  0  0  0  0  0  0  0  0  0  0
   36.2400   29.0930   41.3870 H   0  0  0  0  0  0  0  0  0  0  0  0
   40.4800   31.4350   42.2540 H   0  0  0  0  0  0  0  0  0  0  0  0
   37.8960   27.0480   43.2460 C   0  0  0  0  0  0  0  0  0  0  0  0
   39.1730   26.6950   43.6020 C   0  0  0  0  0  0  0  0  0  0  0  0
   39.7540   27.4140   44.1970 H   0  0  0  0  0  0  0  0  0  0  0  0
   39.8340   25.5250   43.3010 C   0  0  0  0  0  3  0  0  0  0  0  0
   39.0880   24.6160   42.5450 C   0  0  0  0  0  0  0  0  0  0  0  0
   39.5740   23.6770   42.2850 H   0  0  0  0  0  0  0  0  0  0  0  0
   37.7920   24.9280   42.1600 C   0  0  0  0  0  0  0  0  0  0  0  0
   37.2390   24.1930   41.5690 H   0  0  0  0  0  0  0  0  0  0  0  0
   37.1940   26.1290   42.5020 C   0  0  0  0  0  3  0  0  0  0  0  0
  1  2  1  0  0  0  0
  3  1  1  0  0  0  0
  4  9  2  0  0  0  0
  4  5  1  0  0  0  0
  5  6  2  0  0  0  0
  6  7  1  0  0  0  0
  6  1  1  0  0  0  0
  8 12  1  0  0  0  0
  8  7  2  0  0  0  0
  9  8  1  0  0  0  0
 10  4  1  0  0  0  0
 11  5  1  0  0  0  0
 13 14  1  0  0  0  0
 13  1  1  0  0  0  0
 14 15  1  0  0  0  0
 16 14  2  0  0  0  0
 17 16  1  0  0  0  0
 18 17  1  0  0  0  0
 19 21  1  0  0  0  0
 19 17  2  0  0  0  0
 20 19  1  0  0  0  0
 21 13  2  0  0  0  0
M  END
>  <minimizedAffinity>
-4.31718254

$$$$

 OpenBabel03252509303D

 21 22  0  0  0  0  0  0  0  0999 V2000
   35.3530   29.0030   40.7080 C   0  0  0  0  0  0  0  0  0  0  0  0
   34.7310   28.4730   39.9320 H   0  0  0  0  0  0  0  0  0  0  0  0
   34.6780   29.4290   41.4920 H   0  0  0  0  0  0  0  0  0  0  0  0
   37.8010   26.2370   41.1710 C   0  0  0  0  0  0  0  0  0  0  0  0
   36.8280   27.0760   40.5950 C   0  0  0  0  0  0  0  0  0  0  0  0
   36.3610   28.1500   41.3330 C   0  0  0  0  0  0  0  0  0  0  0  0
   36.8600   28.3470   42.5810 N   0  0  0  0  0  0  0  0  0  0  0  0
   37.8010   27.5220   43.1200 C   0  0  0  0  0  0  0  0  0  0  0  0
   38.2570   26.4790   42.4070 N   0  0  0  0  0  0  0  0  0  0  0  0
   38.1450   25.4160   40.5820 H   0  0  0  0  0  0  0  0  0  0  0  0
   36.4700   26.8690   39.5960 H   0  0  0  0  0  0  0  0  0  0  0  0
   38.1410   27.7660   44.1370 H   0  0  0  0  0  0  0  0  0  0  0  0
   36.1040   30.0820   39.9930 C   0  0  0  0  0  0  0  0  0  0  0  0
   36.5190   31.1810   40.7030 C   0  0  0  0  0  0  0  0  0  0  0  0
   36.2790   31.2180   41.7740 H   0  0  0  0  0  0  0  0  0  0  0  0
   37.2170   32.2690   40.2290 C   0  0  0  0  0  3  0  0  0  0  0  0
   37.5190   32.2160   38.8650 C   0  0  0  0  0  0  0  0  0  0  0  0
   38.0700   33.0570   38.4490 H   0  0  0  0  0  0  0  0  0  0  0  0
   37.1200   31.1250   38.1060 C   0  0  0  0  0  0  0  0  0  0  0  0
   37.3740   31.1170   37.0420 H   0  0  0  0  0  0  0  0  0  0  0  0
   36.4200   30.0650   38.6550 C   0  0  0  0  0  3  0  0  0  0  0  0
  1  6  1  0  0  0  0
  1  3  1  0  0  0  0
  2  1  1  0  0  0  0
  4  9  1  0  0  0  0
  5  4  2  0  0  0  0
  5  6  1  0  0  0  0
  6  7  2  0  0  0  0
  7  8  1  0  0  0  0
  8 12  1  0  0  0  0
  9  8  2  0  0  0  0
 10  4  1  0  0  0  0
 11  5  1  0  0  0  0
 13 14  1  0  0  0  0
 13  1  1  0  0  0  0
 14 15  1  0  0  0  0
 16 14  2  0  0  0  0
 17 16  1  0  0  0  0
 18 17  1  0  0  0  0
 19 21  1  0  0  0  0
 19 17  2  0  0  0  0
 20 19  1  0  0  0  0
 21 13  2  0  0  0  0
M  END
>  <minimizedAffinity>
-4.28128004

$$$$

 OpenBabel03252509303D

 21 22  0  0  0  0  0  0  0  0999 V2000
   35.4610   28.9850   40.8550 C   0  0  0  0  0  0  0  0  0  0  0  0
   34.7110   29.3150   41.6270 H   0  0  0  0  0  0  0  0  0  0  0  0
   34.9440   28.3590   40.0850 H   0  0  0  0  0  0  0  0  0  0  0  0
   37.1420   30.9970   38.2110 C   0  0  0  0  0  0  0  0  0  0  0  0
   36.4680   29.9460   38.8640 C   0  0  0  0  0  0  0  0  0  0  0  0
   36.1620   30.0910   40.2060 C   0  0  0  0  0  0  0  0  0  0  0  0
   36.5250   31.2380   40.8350 N   0  0  0  0  0  0  0  0  0  0  0  0
   37.1780   32.2420   40.1850 C   0  0  0  0  0  0  0  0  0  0  0  0
   37.4770   32.1060   38.8820 N   0  0  0  0  0  0  0  0  0  0  0  0
   37.3660   30.8610   37.1760 H   0  0  0  0  0  0  0  0  0  0  0  0
   36.2030   29.0570   38.3090 H   0  0  0  0  0  0  0  0  0  0  0  0
   37.4290   33.1300   40.7830 H   0  0  0  0  0  0  0  0  0  0  0  0
   36.5070   28.1970   41.5800 C   0  0  0  0  0  0  0  0  0  0  0  0
   36.9620   27.0290   41.0230 C   0  0  0  0  0  0  0  0  0  0  0  0
   36.5330   26.7220   40.0580 H   0  0  0  0  0  0  0  0  0  0  0  0
   37.9120   26.1720   41.5310 C   0  0  0  0  0  3  0  0  0  0  0  0
   38.4530   26.5680   42.7580 C   0  0  0  0  0  0  0  0  0  0  0  0
   39.2090   25.9180   43.1960 H   0  0  0  0  0  0  0  0  0  0  0  0
   38.0250   27.7420   43.3610 C   0  0  0  0  0  0  0  0  0  0  0  0
   38.4710   28.0210   44.3200 H   0  0  0  0  0  0  0  0  0  0  0  0
   37.0630   28.5540   42.7860 C   0  0  0  0  0  3  0  0  0  0  0  0
  1 13  1  0  0  0  0
  1  2  1  0  0  0  0
  3  1  1  0  0  0  0
  4  5  2  0  0  0  0
  4  9  1  0  0  0  0
  5  6  1  0  0  0  0
  6  7  2  0  0  0  0
  6  1  1  0  0  0  0
  8 12  1  0  0  0  0
  8  7  1  0  0  0  0
  9  8  2  0  0  0  0
 10  4  1  0  0  0  0
 11  5  1  0  0  0  0
 13 21  1  0  0  0  0
 14 16  1  0  0  0  0
 14 13  2  0  0  0  0
 15 14  1  0  0  0  0
 16 17  2  0  0  0  0
 17 18  1  0  0  0  0
 17 19  1  0  0  0  0
 19 20  1  0  0  0  0
 21 19  2  0  0  0  0
M  END
>  <minimizedAffinity>
-4.26833963

$$$$

 OpenBabel03252509303D

 21 22  0  0  0  0  0  0  0  0999 V2000
   35.8470   29.9230   40.7030 C   0  0  0  0  0  0  0  0  0  0  0  0
   35.4440   30.8220   41.2490 H   0  0  0  0  0  0  0  0  0  0  0  0
   34.9920   29.2880   40.3600 H   0  0  0  0  0  0  0  0  0  0  0  0
   37.7290   31.9630   38.2210 C   0  0  0  0  0  0  0  0  0  0  0  0
   36.9100   31.6060   39.3100 C   0  0  0  0  0  0  0  0  0  0  0  0
   36.7000   30.2620   39.5660 C   0  0  0  0  0  0  0  0  0  0  0  0
   37.2920   29.3460   38.7570 N   0  0  0  0  0  0  0  0  0  0  0  0
   38.0800   29.7130   37.7070 C   0  0  0  0  0  0  0  0  0  0  0  0
   38.2860   31.0160   37.4560 N   0  0  0  0  0  0  0  0  0  0  0  0
   37.8740   33.0050   38.0450 H   0  0  0  0  0  0  0  0  0  0  0  0
   36.4670   32.3810   39.9200 H   0  0  0  0  0  0  0  0  0  0  0  0
   38.5130   28.8970   37.1120 H   0  0  0  0  0  0  0  0  0  0  0  0
   36.7170   29.1840   41.6720 C   0  0  0  0  0  0  0  0  0  0  0  0
   36.3930   27.8930   42.0020 C   0  0  0  0  0  0  0  0  0  0  0  0
   35.5000   27.4550   41.5330 H   0  0  0  0  0  0  0  0  0  0  0  0
   37.0620   27.0560   42.8660 C   0  0  0  0  0  3  0  0  0  0  0  0
   38.1960   27.6200   43.4580 C   0  0  0  0  0  0  0  0  0  0  0  0
   38.7550   26.9900   44.1490 H   0  0  0  0  0  0  0  0  0  0  0  0
   38.5640   28.9230   43.1560 C   0  0  0  0  0  0  0  0  0  0  0  0
   39.4570   29.3310   43.6380 H   0  0  0  0  0  0  0  0  0  0  0  0
   37.8380   29.7050   42.2740 C   0  0  0  0  0  3  0  0  0  0  0  0
  1  2  1  0  0  0  0
  1 13  1  0  0  0  0
  3  1  1  0  0  0  0
  4  5  1  0  0  0  0
  5  6  2  0  0  0  0
  5 11  1  0  0  0  0
  6  1  1  0  0  0  0
  7  6  1  0  0  0  0
  8  7  2  0  0  0  0
  9  8  1  0  0  0  0
  9  4  2  0  0  0  0
 10  4  1  0  0  0  0
 12  8  1  0  0  0  0
 13 14  2  0  0  0  0
 13 21  1  0  0  0  0
 14 16  1  0  0  0  0
 15 14  1  0  0  0  0
 16 17  2  0  0  0  0
 17 18  1  0  0  0  0
 19 17  1  0  0  0  0
 19 20  1  0  0  0  0
 21 19  2  0  0  0  0
M  END
>  <minimizedAffinity>
-4.15405989

$$$$

 OpenBabel03252509303D

 21 22  0  0  0  0  0  0  0  0999 V2000
   36.1960   30.8070   41.0460 C   0  0  0  0  0  0  0  0  0  0  0  0
   35.0810   30.6500   41.0590 H   0  0  0  0  0  0  0  0  0  0  0  0
   36.4380   31.7730   41.5570 H   0  0  0  0  0  0  0  0  0  0  0  0
   39.0070   28.9530   42.6350 C   0  0  0  0  0  0  0  0  0  0  0  0
   38.2560   29.9840   42.0360 C   0  0  0  0  0  0  0  0  0  0  0  0
   36.9500   29.7180   41.6630 C   0  0  0  0  0  0  0  0  0  0  0  0
   36.4490   28.4760   41.8890 N   0  0  0  0  0  0  0  0  0  0  0  0
   37.1940   27.4930   42.4680 C   0  0  0  0  0  0  0  0  0  0  0  0
   38.4620   27.7460   42.8320 N   0  0  0  0  0  0  0  0  0  0  0  0
   40.0110   29.1830   42.9130 H   0  0  0  0  0  0  0  0  0  0  0  0
   38.7090   30.9530   41.8830 H   0  0  0  0  0  0  0  0  0  0  0  0
   36.6980   26.5210   42.6070 H   0  0  0  0  0  0  0  0  0  0  0  0
   36.6090   30.8370   39.6070 C   0  0  0  0  0  0  0  0  0  0  0  0
   36.1760   29.8380   38.7730 C   0  0  0  0  0  0  0  0  0  0  0  0
   35.5370   29.0540   39.2040 H   0  0  0  0  0  0  0  0  0  0  0  0
   36.4450   29.6910   37.4310 C   0  0  0  0  0  3  0  0  0  0  0  0
   37.2580   30.6920   36.8900 C   0  0  0  0  0  0  0  0  0  0  0  0
   37.4950   30.6130   35.8300 H   0  0  0  0  0  0  0  0  0  0  0  0
   37.7210   31.7230   37.6940 C   0  0  0  0  0  0  0  0  0  0  0  0
   38.3550   32.4880   37.2360 H   0  0  0  0  0  0  0  0  0  0  0  0
   37.4060   31.8030   39.0390 C   0  0  0  0  0  3  0  0  0  0  0  0
  1  2  1  0  0  0  0
  1  3  1  0  0  0  0
  1  6  1  0  0  0  0
  4  9  1  0  0  0  0
  4 10  1  0  0  0  0
  5  4  2  0  0  0  0
  6  7  2  0  0  0  0
  6  5  1  0  0  0  0
  7  8  1  0  0  0  0
  8 12  1  0  0  0  0
  8  9  2  0  0  0  0
 11  5  1  0  0  0  0
 13  1  1  0  0  0  0
 14 15  1  0  0  0  0
 14 13  2  0  0  0  0
 16 14  1  0  0  0  0
 17 16  2  0  0  0  0
 17 19  1  0  0  0  0
 18 17  1  0  0  0  0
 19 21  2  0  0  0  0
 20 19  1  0  0  0  0
 21 13  1  0  0  0  0
M  END
>  <minimizedAffinity>
-4.14806557

$$$$

 OpenBabel03252509303D

 21 22  0  0  0  0  0  0  0  0999 V2000
   37.1880   27.3550   43.3050 C   0  0  0  0  0  0  0  0  0  0  0  0
   36.3710   28.1160   43.4560 H   0  0  0  0  0  0  0  0  0  0  0  0
   37.2610   26.7090   44.2150 H   0  0  0  0  0  0  0  0  0  0  0  0
   36.8280   24.3190   41.1800 C   0  0  0  0  0  0  0  0  0  0  0  0
   37.0070   25.1490   42.3040 C   0  0  0  0  0  0  0  0  0  0  0  0
   36.9990   26.5210   42.1200 C   0  0  0  0  0  0  0  0  0  0  0  0
   36.8200   27.0070   40.8650 N   0  0  0  0  0  0  0  0  0  0  0  0
   36.6490   26.1860   39.7900 C   0  0  0  0  0  0  0  0  0  0  0  0
   36.6550   24.8540   39.9640 N   0  0  0  0  0  0  0  0  0  0  0  0
   36.8380   23.2650   41.3480 H   0  0  0  0  0  0  0  0  0  0  0  0
   37.1450   24.7020   43.2780 H   0  0  0  0  0  0  0  0  0  0  0  0
   36.5110   26.6780   38.8160 H   0  0  0  0  0  0  0  0  0  0  0  0
   38.4540   28.1210   43.0790 C   0  0  0  0  0  0  0  0  0  0  0  0
   38.3810   29.4760   42.8790 C   0  0  0  0  0  0  0  0  0  0  0  0
   37.3860   29.9420   42.8960 H   0  0  0  0  0  0  0  0  0  0  0  0
   39.4240   30.3470   42.6570 C   0  0  0  0  0  3  0  0  0  0  0  0
   40.6870   29.7470   42.6370 C   0  0  0  0  0  0  0  0  0  0  0  0
   41.5400   30.4010   42.4640 H   0  0  0  0  0  0  0  0  0  0  0  0
   40.8110   28.3790   42.8330 C   0  0  0  0  0  0  0  0  0  0  0  0
   41.8140   27.9450   42.8110 H   0  0  0  0  0  0  0  0  0  0  0  0
   39.7120   27.5660   43.0520 C   0  0  0  0  0  3  0  0  0  0  0  0
  1  2  1  0  0  0  0
  1  3  1  0  0  0  0
  4 10  1  0  0  0  0
  4  5  1  0  0  0  0
  5 11  1  0  0  0  0
  6  5  2  0  0  0  0
  6  1  1  0  0  0  0
  7  6  1  0  0  0  0
  8  9  1  0  0  0  0
  8  7  2  0  0  0  0
  9  4  2  0  0  0  0
 12  8  1  0  0  0  0
 13  1  1  0  0  0  0
 14 15  1  0  0  0  0
 14 13  2  0  0  0  0
 16 14  1  0  0  0  0
 17 16  2  0  0  0  0
 17 19  1  0  0  0  0
 18 17  1  0  0  0  0
 19 21  2  0  0  0  0
 20 19  1  0  0  0  0
 21 13  1  0  0  0  0
M  END
>  <minimizedAffinity>
-4.06707621

$$$$

 OpenBabel03252509303D

 21 22  0  0  0  0  0  0  0  0999 V2000
   37.1820   27.2760   43.0490 C   0  0  0  0  0  0  0  0  0  0  0  0
   36.2240   27.0160   43.5810 H   0  0  0  0  0  0  0  0  0  0  0  0
   37.9630   27.5380   43.8050 H   0  0  0  0  0  0  0  0  0  0  0  0
   37.4450   23.9660   41.3650 C   0  0  0  0  0  0  0  0  0  0  0  0
   36.9940   25.0090   42.1970 C   0  0  0  0  0  0  0  0  0  0  0  0
   37.6750   26.2140   42.1750 C   0  0  0  0  0  0  0  0  0  0  0  0
   38.7490   26.3380   41.3540 N   0  0  0  0  0  0  0  0  0  0  0  0
   39.1700   25.3150   40.5570 C   0  0  0  0  0  0  0  0  0  0  0  0
   38.5120   24.1450   40.5750 N   0  0  0  0  0  0  0  0  0  0  0  0
   36.9030   23.0470   41.4000 H   0  0  0  0  0  0  0  0  0  0  0  0
   36.1310   24.8500   42.8290 H   0  0  0  0  0  0  0  0  0  0  0  0
   40.0500   25.5150   39.9290 H   0  0  0  0  0  0  0  0  0  0  0  0
   36.8770   28.4400   42.1590 C   0  0  0  0  0  0  0  0  0  0  0  0
   35.8310   28.3420   41.2760 C   0  0  0  0  0  0  0  0  0  0  0  0
   35.2580   27.4040   41.2650 H   0  0  0  0  0  0  0  0  0  0  0  0
   35.3960   29.2950   40.3830 C   0  0  0  0  0  3  0  0  0  0  0  0
   36.1290   30.4860   40.4030 C   0  0  0  0  0  0  0  0  0  0  0  0
   35.8180   31.2670   39.7110 H   0  0  0  0  0  0  0  0  0  0  0  0
   37.1960   30.6320   41.2780 C   0  0  0  0  0  0  0  0  0  0  0  0
   37.7460   31.5770   41.2660 H   0  0  0  0  0  0  0  0  0  0  0  0
   37.5730   29.6260   42.1500 C   0  0  0  0  0  3  0  0  0  0  0  0
  1  2  1  0  0  0  0
  1  3  1  0  0  0  0
  4 10  1  0  0  0  0
  4  5  1  0  0  0  0
  5 11  1  0  0  0  0
  6  5  2  0  0  0  0
  6  1  1  0  0  0  0
  7  6  1  0  0  0  0
  8  9  1  0  0  0  0
  8  7  2  0  0  0  0
  9  4  2  0  0  0  0
 12  8  1  0  0  0  0
 13  1  1  0  0  0  0
 14 13  2  0  0  0  0
 15 14  1  0  0  0  0
 16 17  2  0  0  0  0
 16 14  1  0  0  0  0
 17 19  1  0  0  0  0
 18 17  1  0  0  0  0
 19 21  2  0  0  0  0
 20 19  1  0  0  0  0
 21 13  1  0  0  0  0
M  END
>  <minimizedAffinity>
-4.05344629

$$$$
