
 OpenBabel03252508433D

 31 33  0  0  0  0  0  0  0  0999 V2000
   47.2350   34.6690   42.0480 C   0  0  0  0  0  0  0  0  0  0  0  0
   47.6840   33.5740   42.7860 C   0  0  0  0  0  0  0  0  0  0  0  0
   49.0480   33.4900   43.0460 C   0  0  0  0  0  0  0  0  0  0  0  0
   49.8990   34.4530   42.5880 C   0  0  0  0  0  0  0  0  0  0  0  0
   49.4760   35.5350   41.8600 C   0  0  0  0  0  0  0  0  0  0  0  0
   48.1060   35.6000   41.6110 C   0  0  0  0  0  0  0  0  0  0  0  0
   49.4670   32.6670   43.6150 H   0  0  0  0  0  0  0  0  0  0  0  0
   50.9640   34.4030   42.7810 H   0  0  0  0  0  0  0  0  0  0  0  0
   50.0750   36.3380   41.4600 H   0  0  0  0  0  0  0  0  0  0  0  0
   47.6720   36.4120   41.0490 H   0  0  0  0  0  0  0  0  0  0  0  0
   43.5210   35.3230   42.2430 C   0  0  0  0  0  0  0  0  0  0  0  0
   44.8840   35.3410   42.5810 C   0  0  0  0  0  0  0  0  0  0  0  0
   45.8100   34.7060   41.7850 C   0  0  0  0  0  0  0  0  0  0  0  0
   45.2990   34.1010   40.7110 N   0  0  0  0  0  0  0  0  0  0  0  0
   44.0040   34.0620   40.3550 C   0  0  0  0  0  0  0  0  0  0  0  0
   43.1060   34.6880   41.1430 N   0  0  0  0  0  0  0  0  0  0  0  0
   42.7930   35.8080   42.8480 H   0  0  0  0  0  0  0  0  0  0  0  0
   45.2260   35.8540   43.4690 H   0  0  0  0  0  0  0  0  0  0  0  0
   43.6720   33.5480   39.4640 H   0  0  0  0  0  0  0  0  0  0  0  0
   46.7570   32.5320   43.2780 C   0  0  0  0  0  0  0  0  0  0  0  0
   47.2360   31.5430   43.0080 H   0  0  0  0  0  0  0  0  0  0  0  0
   45.8210   32.5180   42.6550 H   0  0  0  0  0  0  0  0  0  0  0  0
   46.4670   32.5170   44.7050 C   0  0  0  0  0  0  0  0  0  0  0  0
   46.8800   31.2860   45.2490 C   0  0  0  0  0  0  0  0  0  0  0  0
   47.3700   30.4490   44.7270 H   0  0  0  0  0  0  0  0  0  0  0  0
   46.7140   30.9440   46.5920 C   0  0  0  0  0  0  0  0  0  0  0  0
   46.1180   31.8420   47.4510 C   0  0  0  0  0  0  0  0  0  0  0  0
   45.9320   31.7030   48.5030 H   0  0  0  0  0  0  0  0  0  0  0  0
   45.6960   33.0610   46.9660 C   0  0  0  0  0  0  0  0  0  0  0  0
   45.2180   33.8700   47.4900 H   0  0  0  0  0  0  0  0  0  0  0  0
   45.8820   33.3510   45.6350 C   0  0  0  0  0  0  0  0  0  0  0  0
  1  2  1  0  0  0  0
  2  3  2  0  0  0  0
  2 20  1  0  0  0  0
  3  7  1  0  0  0  0
  4  8  1  0  0  0  0
  4  3  1  0  0  0  0
  5  4  2  0  0  0  0
  6  5  1  0  0  0  0
  6  1  2  0  0  0  0
  9  5  1  0  0  0  0
 10  6  1  0  0  0  0
 11 12  1  0  0  0  0
 11 17  1  0  0  0  0
 12 18  1  0  0  0  0
 13  1  1  0  0  0  0
 13 12  2  0  0  0  0
 14 13  1  0  0  0  0
 15 14  2  0  0  0  0
 15 16  1  0  0  0  0
 16 11  2  0  0  0  0
 19 15  1  0  0  0  0
 20 23  1  0  0  0  0
 21 20  1  0  0  0  0
 22 20  1  0  0  0  0
 23 24  2  0  0  0  0
 23 31  1  0  0  0  0
 24 26  1  0  0  0  0
 25 24  1  0  0  0  0
 26 27  2  0  0  0  0
 27 28  1  0  0  0  0
 29 27  1  0  0  0  0
 29 30  1  0  0  0  0
 31 29  2  0  0  0  0
M  END
>  <minimizedAffinity>
-5.27197456

>  <minimizedRMSD>
5.18850327

$$$$
