
 OpenBabel03252503003D

 22 23  0  0  0  0  0  0  0  0999 V2000
   41.6870   35.4110   39.6820 C   0  0  0  0  0  0  0  0  0  0  0  0
   42.5690   35.0270   39.1030 H   0  0  0  0  0  0  0  0  0  0  0  0
   41.6820   36.5130   39.4390 H   0  0  0  0  0  0  0  0  0  0  0  0
   40.4300   34.7670   39.2830 C   0  0  0  0  0  0  0  0  0  0  0  0
   40.1040   34.6460   37.9270 C   0  0  0  0  0  0  0  0  0  0  0  0
   40.7460   35.0130   37.1370 H   0  0  0  0  0  0  0  0  0  0  0  0
   38.9080   34.0330   37.5560 C   0  0  0  0  0  0  0  0  0  0  0  0
   38.0410   33.5410   38.5300 C   0  0  0  0  0  0  0  0  0  0  0  0
   37.0930   33.0540   38.2580 H   0  0  0  0  0  0  0  0  0  0  0  0
   38.3280   33.6410   39.8840 C   0  0  0  0  0  0  0  0  0  0  0  0
   37.6700   33.2670   40.6580 H   0  0  0  0  0  0  0  0  0  0  0  0
   39.5220   34.2570   40.1880 C   0  0  0  0  0  0  0  0  0  0  0  0
   42.0410   35.2680   41.4340 S   0  0  0  0  0  0  0  0  0  0  0  0
   44.4360   35.6780   42.7770 C   0  0  0  0  0  0  0  0  0  0  0  0
   43.8280   35.0980   41.6700 C   0  0  0  0  0  0  0  0  0  0  0  0
   44.5730   34.3810   40.7270 C   0  0  0  0  0  0  0  0  0  0  0  0
   45.9110   34.2930   40.9660 N   0  0  0  0  0  0  0  0  0  0  0  0
   46.4600   34.8650   42.0430 C   0  0  0  0  0  0  0  0  0  0  0  0
   45.7750   35.5530   42.9550 N   0  0  0  0  0  0  0  0  0  0  0  0
   43.8740   36.2380   43.5160 H   0  0  0  0  0  0  0  0  0  0  0  0
   44.0410   33.9540   39.8890 H   0  0  0  0  0  0  0  0  0  0  0  0
   47.5410   34.6640   42.0280 H   0  0  0  0  0  0  0  0  0  0  0  0
  1 13  1  0  0  0  0
  2  1  1  0  0  0  0
  3  1  1  0  0  0  0
  4  1  1  0  0  0  0
  4 12  1  0  0  0  0
  5  4  2  0  0  0  0
  6  5  1  0  0  0  0
  7  5  1  0  0  0  0
  7  8  2  0  0  0  0
  8 10  1  0  0  0  0
  9  8  1  0  0  0  0
 10 12  2  0  0  0  0
 10 11  1  0  0  0  0
 13 15  1  0  0  0  0
 14 19  1  0  0  0  0
 14 20  1  0  0  0  0
 15 14  2  0  0  0  0
 16 17  2  0  0  0  0
 16 15  1  0  0  0  0
 17 18  1  0  0  0  0
 18 19  2  0  0  0  0
 21 16  1  0  0  0  0
 22 18  1  0  0  0  0
M  END
>  <minimizedAffinity>
-4.75089407

>  <minimizedRMSD>
3.40406752

$$$$
