
 OpenBabel03252507413D

 25 26  0  0  0  0  0  0  0  0999 V2000
   46.9390   33.3580   42.9620 C   0  0  0  0  0  0  0  0  0  0  0  0
   46.4600   32.3830   42.8660 H   0  0  0  0  0  0  0  0  0  0  0  0
   47.7970   33.1990   43.6710 H   0  0  0  0  0  0  0  0  0  0  0  0
   46.0750   34.3700   43.5830 C   0  0  0  0  0  0  0  0  0  0  0  0
   45.6570   34.0820   44.8950 C   0  0  0  0  0  0  0  0  0  0  0  0
   44.8350   35.0070   45.5350 C   0  0  0  0  0  0  0  0  0  0  0  0
   44.4600   36.1490   44.8890 N   0  0  0  0  0  0  0  0  0  0  0  0
   44.8920   36.3760   43.6240 C   0  0  0  0  0  0  0  0  0  0  0  0
   45.6860   35.5100   42.9730 N   0  0  0  0  0  0  0  0  0  0  0  0
   44.5260   34.7590   46.5500 H   0  0  0  0  0  0  0  0  0  0  0  0
   44.5360   37.3090   43.2100 H   0  0  0  0  0  0  0  0  0  0  0  0
   46.1630   32.5820   45.7130 S   0  0  0  0  0  0  0  0  0  0  0  0
   47.5500   32.5390   45.9060 H   0  0  0  0  0  0  0  0  0  0  0  0
   47.5790   33.8310   41.6740 C   0  0  0  0  0  0  0  0  0  0  0  0
   47.6730   34.9360   41.7260 H   0  0  0  0  0  0  0  0  0  0  0  0
   46.9090   33.5380   40.8520 H   0  0  0  0  0  0  0  0  0  0  0  0
   48.8870   33.1980   41.4670 C   0  0  0  0  0  0  0  0  0  0  0  0
   49.9330   33.5070   42.3280 C   0  0  0  0  0  0  0  0  0  0  0  0
   49.7430   34.2140   43.1320 H   0  0  0  0  0  0  0  0  0  0  0  0
   51.1970   32.9410   42.1860 C   0  0  0  0  0  3  0  0  0  0  0  0
   51.3940   32.0440   41.1430 C   0  0  0  0  0  0  0  0  0  0  0  0
   52.3940   31.6500   41.1000 H   0  0  0  0  0  0  0  0  0  0  0  0
   50.3960   31.6970   40.2570 C   0  0  0  0  0  0  0  0  0  0  0  0
   50.5920   30.9980   39.4650 H   0  0  0  0  0  0  0  0  0  0  0  0
   49.1810   32.3010   40.4700 C   0  0  0  0  0  3  0  0  0  0  0  0
  1  4  1  0  0  0  0
  1  3  1  0  0  0  0
  2  1  1  0  0  0  0
  4  5  1  0  0  0  0
  5  6  2  0  0  0  0
  5 12  1  0  0  0  0
  6 10  1  0  0  0  0
  7  6  1  0  0  0  0
  8  7  2  0  0  0  0
  9  4  2  0  0  0  0
  9  8  1  0  0  0  0
 11  8  1  0  0  0  0
 12 13  1  0  0  0  0
 14 15  1  0  0  0  0
 14  1  1  0  0  0  0
 16 14  1  0  0  0  0
 17 14  1  0  0  0  0
 17 18  1  0  0  0  0
 18 19  1  0  0  0  0
 20 18  2  0  0  0  0
 21 20  1  0  0  0  0
 22 21  1  0  0  0  0
 23 25  1  0  0  0  0
 23 21  2  0  0  0  0
 24 23  1  0  0  0  0
 25 17  2  0  0  0  0
M  END
>  <minimizedAffinity>
-4.20576

>  <minimizedRMSD>
4.57940865

$$$$
