
 OpenBabel03252503003D

 22 23  0  0  0  0  0  0  0  0999 V2000
   43.4730   34.1010   40.8690 C   0  0  0  0  0  0  0  0  0  0  0  0
   43.5340   33.1650   41.4850 H   0  0  0  0  0  0  0  0  0  0  0  0
   44.0780   33.8430   39.9520 H   0  0  0  0  0  0  0  0  0  0  0  0
   42.0930   34.4550   40.5200 C   0  0  0  0  0  0  0  0  0  0  0  0
   41.3160   33.5770   39.7550 C   0  0  0  0  0  0  0  0  0  0  0  0
   41.6900   32.6270   39.3970 H   0  0  0  0  0  0  0  0  0  0  0  0
   40.0040   33.9210   39.4270 C   0  0  0  0  0  3  0  0  0  0  0  0
   39.4690   35.1320   39.8610 C   0  0  0  0  0  0  0  0  0  0  0  0
   38.4360   35.4210   39.6130 H   0  0  0  0  0  0  0  0  0  0  0  0
   40.2040   36.0300   40.6220 C   0  0  0  0  0  0  0  0  0  0  0  0
   39.8100   36.9740   40.9690 H   0  0  0  0  0  0  0  0  0  0  0  0
   41.4930   35.6340   40.9120 C   0  0  0  0  0  3  0  0  0  0  0  0
   44.3550   35.4100   41.7210 S   0  0  0  0  0  0  0  0  0  0  0  0
   44.3770   35.6780   44.4840 C   0  0  0  0  0  0  0  0  0  0  0  0
   44.7340   34.8740   43.4080 C   0  0  0  0  0  0  0  0  0  0  0  0
   45.3840   33.6500   43.6030 C   0  0  0  0  0  0  0  0  0  0  0  0
   45.6380   33.3080   44.8970 N   0  0  0  0  0  0  0  0  0  0  0  0
   45.2790   34.1090   45.9060 C   0  0  0  0  0  0  0  0  0  0  0  0
   44.6600   35.2790   45.7490 N   0  0  0  0  0  0  0  0  0  0  0  0
   43.8740   36.6290   44.3510 H   0  0  0  0  0  0  0  0  0  0  0  0
   45.6340   33.0710   42.7260 H   0  0  0  0  0  0  0  0  0  0  0  0
   45.5820   33.6330   46.8500 H   0  0  0  0  0  0  0  0  0  0  0  0
  1  2  1  0  0  0  0
  1 13  1  0  0  0  0
  3  1  1  0  0  0  0
  4  1  1  0  0  0  0
  4 12  1  0  0  0  0
  5  4  2  0  0  0  0
  6  5  1  0  0  0  0
  7  5  1  0  0  0  0
  7  8  2  0  0  0  0
  8 10  1  0  0  0  0
  9  8  1  0  0  0  0
 10 12  2  0  0  0  0
 10 11  1  0  0  0  0
 13 15  1  0  0  0  0
 14 19  1  0  0  0  0
 15 16  1  0  0  0  0
 15 14  2  0  0  0  0
 16 17  2  0  0  0  0
 17 18  1  0  0  0  0
 18 22  1  0  0  0  0
 19 18  2  0  0  0  0
 20 14  1  0  0  0  0
 21 16  1  0  0  0  0
M  END
>  <minimizedAffinity>
-4.38926649

>  <minimizedRMSD>
2.36453366

$$$$
