
 OpenBabel03252507413D

 25 26  0  0  0  0  0  0  0  0999 V2000
   46.2470   35.1700   42.1810 C   0  0  0  0  0  0  0  0  0  0  0  0
   47.2870   35.4210   41.9690 H   0  0  0  0  0  0  0  0  0  0  0  0
   45.6860   36.1430   42.1160 H   0  0  0  0  0  0  0  0  0  0  0  0
   46.0390   34.6670   43.5450 C   0  0  0  0  0  0  0  0  0  0  0  0
   46.9330   33.6640   43.9600 C   0  0  0  0  0  0  0  0  0  0  0  0
   46.7830   33.1490   45.2460 C   0  0  0  0  0  0  0  0  0  0  0  0
   45.7920   33.6190   46.0590 N   0  0  0  0  0  0  0  0  0  0  0  0
   44.9570   34.5870   45.6070 C   0  0  0  0  0  0  0  0  0  0  0  0
   45.0680   35.1090   44.3750 N   0  0  0  0  0  0  0  0  0  0  0  0
   47.4890   32.3740   45.5430 H   0  0  0  0  0  0  0  0  0  0  0  0
   44.2110   34.8830   46.3310 H   0  0  0  0  0  0  0  0  0  0  0  0
   48.2180   33.0710   42.8770 S   0  0  0  0  0  0  0  0  0  0  0  0
   49.1410   34.0790   42.5680 H   0  0  0  0  0  0  0  0  0  0  0  0
   45.6240   34.2880   41.1190 C   0  0  0  0  0  0  0  0  0  0  0  0
   45.9760   33.2490   41.2900 H   0  0  0  0  0  0  0  0  0  0  0  0
   45.9720   34.6600   40.1440 H   0  0  0  0  0  0  0  0  0  0  0  0
   44.1580   34.3630   41.1600 C   0  0  0  0  0  0  0  0  0  0  0  0
   43.4210   33.1860   41.2030 C   0  0  0  0  0  0  0  0  0  0  0  0
   43.9620   32.2420   41.2060 H   0  0  0  0  0  0  0  0  0  0  0  0
   42.0300   33.1880   41.2440 C   0  0  0  0  0  0  0  0  0  0  0  0
   41.3810   34.4160   41.2380 C   0  0  0  0  0  0  0  0  0  0  0  0
   40.3080   34.3360   41.2700 H   0  0  0  0  0  0  0  0  0  0  0  0
   42.0580   35.6180   41.1960 C   0  0  0  0  0  0  0  0  0  0  0  0
   41.5150   36.5450   41.1940 H   0  0  0  0  0  0  0  0  0  0  0  0
   43.4260   35.5240   41.1590 C   0  0  0  0  0  0  0  0  0  0  0  0
  1  4  1  0  0  0  0
  2  1  1  0  0  0  0
  3  1  1  0  0  0  0
  4  5  2  0  0  0  0
  4  9  1  0  0  0  0
  5  6  1  0  0  0  0
  6 10  1  0  0  0  0
  6  7  2  0  0  0  0
  8  7  1  0  0  0  0
  8 11  1  0  0  0  0
  9  8  2  0  0  0  0
 12  5  1  0  0  0  0
 13 12  1  0  0  0  0
 14 17  1  0  0  0  0
 14 15  1  0  0  0  0
 14  1  1  0  0  0  0
 16 14  1  0  0  0  0
 17 18  1  0  0  0  0
 18 19  1  0  0  0  0
 18 20  2  0  0  0  0
 21 20  1  0  0  0  0
 21 22  1  0  0  0  0
 23 21  2  0  0  0  0
 24 23  1  0  0  0  0
 25 17  2  0  0  0  0
 25 23  1  0  0  0  0
M  END
>  <minimizedAffinity>
-4.21408749

>  <minimizedRMSD>
2.90765738

$$$$
