
 OpenBabel03242513273D

 30 32  0  0  0  0  0  0  0  0999 V2000
   45.0910   33.7190   43.0840 C   0  0  0  0  0  0  0  0  0  0  0  0
   45.5400   33.5160   44.3680 C   0  0  0  0  0  0  0  0  0  0  0  0
   45.2850   34.4990   45.2810 C   0  0  0  0  0  0  0  0  0  0  0  0
   44.6020   35.6560   44.9380 C   0  0  0  0  0  0  0  0  0  0  0  0
   44.1640   35.8400   43.6610 C   0  0  0  0  0  0  0  0  0  0  0  0
   44.4010   34.8660   42.6950 C   0  0  0  0  0  0  0  0  0  0  0  0
   45.6450   34.3280   46.2910 H   0  0  0  0  0  0  0  0  0  0  0  0
   44.4660   36.3550   45.7520 H   0  0  0  0  0  0  0  0  0  0  0  0
   43.6370   36.7400   43.4090 H   0  0  0  0  0  0  0  0  0  0  0  0
   46.5930   30.2710   45.9570 C   0  0  0  0  0  0  0  0  0  0  0  0
   45.8790   31.4620   45.7080 C   0  0  0  0  0  0  0  0  0  0  0  0
   46.2460   32.2850   44.6580 C   0  0  0  0  0  0  0  0  0  0  0  0
   47.3110   31.8720   43.9180 N   0  0  0  0  0  0  0  0  0  0  0  0
   47.9930   30.7380   44.1550 C   0  0  0  0  0  0  0  0  0  0  0  0
   47.6330   29.9380   45.1760 N   0  0  0  0  0  0  0  0  0  0  0  0
   46.3040   29.6270   46.7780 H   0  0  0  0  0  0  0  0  0  0  0  0
   45.0510   31.7310   46.3250 H   0  0  0  0  0  0  0  0  0  0  0  0
   48.8020   30.5760   43.4660 H   0  0  0  0  0  0  0  0  0  0  0  0
   45.3250   32.7520   42.1230 O   0  0  0  0  0  0  0  0  0  0  0  0
   44.8280   31.8730   42.2230 H   0  0  0  0  0  0  0  0  0  0  0  0
   43.9790   35.0100   41.4010 O   0  0  0  0  0  0  0  0  0  0  0  0
   42.7110   35.1550   40.9420 C   0  0  0  0  0  0  0  0  0  0  0  0
   41.5040   35.3590   41.5840 C   0  0  0  0  0  0  0  0  0  0  0  0
   41.6240   35.4100   42.6550 H   0  0  0  0  0  0  0  0  0  0  0  0
   40.3340   35.4750   40.9040 C   0  0  0  0  0  0  0  0  0  0  0  0
   40.2920   35.3970   39.5230 C   0  0  0  0  0  0  0  0  0  0  0  0
   39.3320   35.4980   39.0380 H   0  0  0  0  0  0  0  0  0  0  0  0
   41.4720   35.1950   38.8320 C   0  0  0  0  0  0  0  0  0  0  0  0
   41.4180   35.1360   37.7640 H   0  0  0  0  0  0  0  0  0  0  0  0
   42.6710   35.0750   39.5410 C   0  0  0  0  0  0  0  0  0  0  0  0
  1  2  1  0  0  0  0
  2 12  1  0  0  0  0
  2  3  2  0  0  0  0
  3  7  1  0  0  0  0
  4  3  1  0  0  0  0
  4  8  1  0  0  0  0
  5  4  2  0  0  0  0
  6  1  2  0  0  0  0
  6  5  1  0  0  0  0
  9  5  1  0  0  0  0
 10 16  1  0  0  0  0
 11 10  1  0  0  0  0
 11 17  1  0  0  0  0
 12 11  2  0  0  0  0
 13 14  2  0  0  0  0
 13 12  1  0  0  0  0
 14 15  1  0  0  0  0
 15 10  2  0  0  0  0
 18 14  1  0  0  0  0
 19 20  1  0  0  0  0
 19  1  1  0  0  0  0
 21  6  1  0  0  0  0
 22 21  1  0  0  0  0
 22 23  1  0  0  0  0
 23 24  1  0  0  0  0
 25 23  2  0  0  0  0
 26 25  1  0  0  0  0
 27 26  1  0  0  0  0
 28 26  2  0  0  0  0
 28 30  1  0  0  0  0
 29 28  1  0  0  0  0
 30 22  2  0  0  0  0
M  END
>  <minimizedAffinity>
-5.2537775

>  <minimizedRMSD>
4.32143879

$$$$
