
 OpenBabel03252503003D

 22 23  0  0  0  0  0  0  0  0999 V2000
   43.2440   34.1200   40.4610 C   0  0  0  0  0  0  0  0  0  0  0  0
   42.9970   33.2580   41.1350 H   0  0  0  0  0  0  0  0  0  0  0  0
   44.1820   33.7760   39.9370 H   0  0  0  0  0  0  0  0  0  0  0  0
   42.1700   34.4100   39.5030 C   0  0  0  0  0  0  0  0  0  0  0  0
   41.0480   33.5740   39.4370 C   0  0  0  0  0  0  0  0  0  0  0  0
   40.9290   32.7050   40.0700 H   0  0  0  0  0  0  0  0  0  0  0  0
   40.0310   33.8560   38.5240 C   0  0  0  0  0  3  0  0  0  0  0  0
   40.1300   34.9620   37.6830 C   0  0  0  0  0  0  0  0  0  0  0  0
   39.3390   35.2000   36.9560 H   0  0  0  0  0  0  0  0  0  0  0  0
   41.2260   35.8140   37.7170 C   0  0  0  0  0  0  0  0  0  0  0  0
   41.3250   36.6780   37.0750 H   0  0  0  0  0  0  0  0  0  0  0  0
   42.1970   35.4840   38.6390 C   0  0  0  0  0  3  0  0  0  0  0  0
   43.7010   35.5300   41.4710 S   0  0  0  0  0  0  0  0  0  0  0  0
   44.3120   35.7540   44.1700 C   0  0  0  0  0  0  0  0  0  0  0  0
   44.3770   34.9410   43.0440 C   0  0  0  0  0  0  0  0  0  0  0  0
   44.9570   33.6700   43.1020 C   0  0  0  0  0  0  0  0  0  0  0  0
   45.4440   33.2900   44.3160 N   0  0  0  0  0  0  0  0  0  0  0  0
   45.3630   34.1010   45.3770 C   0  0  0  0  0  0  0  0  0  0  0  0
   44.8170   35.3160   45.3500 N   0  0  0  0  0  0  0  0  0  0  0  0
   43.8670   36.7430   44.1420 H   0  0  0  0  0  0  0  0  0  0  0  0
   44.9760   33.0870   42.1930 H   0  0  0  0  0  0  0  0  0  0  0  0
   45.8170   33.5890   46.2390 H   0  0  0  0  0  0  0  0  0  0  0  0
  1  2  1  0  0  0  0
  1 13  1  0  0  0  0
  3  1  1  0  0  0  0
  4  1  1  0  0  0  0
  5  4  1  0  0  0  0
  5  6  1  0  0  0  0
  7  5  2  0  0  0  0
  8 10  2  0  0  0  0
  8  7  1  0  0  0  0
  9  8  1  0  0  0  0
 10 12  1  0  0  0  0
 11 10  1  0  0  0  0
 12  4  2  0  0  0  0
 13 15  1  0  0  0  0
 14 19  1  0  0  0  0
 15 16  1  0  0  0  0
 15 14  2  0  0  0  0
 16 17  2  0  0  0  0
 17 18  1  0  0  0  0
 18 22  1  0  0  0  0
 19 18  2  0  0  0  0
 20 14  1  0  0  0  0
 21 16  1  0  0  0  0
M  END
>  <minimizedAffinity>
-4.39341974

>  <minimizedRMSD>
1.38707972

$$$$
