
 OpenBabel03252504543D

 21 22  0  0  0  0  0  0  0  0999 V2000
   45.7310   35.5290   42.9770 C   0  0  0  0  0  0  0  0  0  0  0  0
   45.5220   35.4170   44.0780 H   0  0  0  0  0  0  0  0  0  0  0  0
   45.8350   36.6150   42.7310 H   0  0  0  0  0  0  0  0  0  0  0  0
   48.3850   34.2080   40.7250 C   0  0  0  0  0  0  0  0  0  0  0  0
   47.2470   34.8970   41.1870 C   0  0  0  0  0  0  0  0  0  0  0  0
   46.9170   34.8030   42.5280 C   0  0  0  0  0  0  0  0  0  0  0  0
   47.7030   34.0510   43.3400 N   0  0  0  0  0  0  0  0  0  0  0  0
   48.8010   33.3910   42.8720 C   0  0  0  0  0  0  0  0  0  0  0  0
   49.1250   33.4800   41.5710 N   0  0  0  0  0  0  0  0  0  0  0  0
   48.6180   34.2970   39.6870 H   0  0  0  0  0  0  0  0  0  0  0  0
   46.6590   35.4810   40.4920 H   0  0  0  0  0  0  0  0  0  0  0  0
   49.3720   32.8090   43.6080 H   0  0  0  0  0  0  0  0  0  0  0  0
   44.5700   34.9190   42.2550 C   0  0  0  0  0  0  0  0  0  0  0  0
   44.3530   33.5700   42.3690 C   0  0  0  0  0  0  0  0  0  0  0  0
   45.0510   32.9930   42.9930 H   0  0  0  0  0  0  0  0  0  0  0  0
   43.3490   32.8300   41.7880 C   0  0  0  0  0  3  0  0  0  0  0  0
   42.4660   33.5700   40.9950 C   0  0  0  0  0  0  0  0  0  0  0  0
   41.6570   33.0240   40.5160 H   0  0  0  0  0  0  0  0  0  0  0  0
   42.6440   34.9390   40.8490 C   0  0  0  0  0  0  0  0  0  0  0  0
   41.9350   35.4870   40.2220 H   0  0  0  0  0  0  0  0  0  0  0  0
   43.6820   35.6150   41.4670 C   0  0  0  0  0  3  0  0  0  0  0  0
  1  2  1  0  0  0  0
  3  1  1  0  0  0  0
  4  5  2  0  0  0  0
  4  9  1  0  0  0  0
  5  6  1  0  0  0  0
  6  1  1  0  0  0  0
  6  7  2  0  0  0  0
  8  7  1  0  0  0  0
  8 12  1  0  0  0  0
  9  8  2  0  0  0  0
 10  4  1  0  0  0  0
 11  5  1  0  0  0  0
 13 14  1  0  0  0  0
 13  1  1  0  0  0  0
 14 15  1  0  0  0  0
 16 14  2  0  0  0  0
 17 16  1  0  0  0  0
 18 17  1  0  0  0  0
 19 17  2  0  0  0  0
 19 21  1  0  0  0  0
 20 19  1  0  0  0  0
 21 13  2  0  0  0  0
M  END
>  <minimizedAffinity>
-3.69079614

>  <minimizedRMSD>
5.3022871

$$$$
