
 OpenBabel03242518183D

 23 24  0  0  0  0  0  0  0  0999 V2000
   35.8690   29.8300   40.6110 C   0  0  0  0  0  0  0  0  0  0  0  0
   35.0720   29.1490   40.2060 H   0  0  0  0  0  0  0  0  0  0  0  0
   35.3880   30.7070   41.1000 H   0  0  0  0  0  0  0  0  0  0  0  0
   36.6840   29.1620   41.6290 C   0  0  0  0  0  0  0  0  0  0  0  0
   37.7980   29.6750   42.2610 C   0  0  0  0  0  0  0  0  0  0  0  0
   38.1000   30.6730   41.9730 H   0  0  0  0  0  0  0  0  0  0  0  0
   38.4830   28.9240   43.2180 C   0  0  0  0  0  3  0  0  0  0  0  0
   38.0690   27.6480   43.5610 C   0  0  0  0  0  0  0  0  0  0  0  0
   38.6210   27.1100   44.2960 H   0  0  0  0  0  0  0  0  0  0  0  0
   36.9400   27.1210   42.9240 C   0  0  0  0  0  0  0  0  0  0  0  0
   36.6490   26.1300   43.2160 H   0  0  0  0  0  0  0  0  0  0  0  0
   36.2780   27.8810   41.9820 C   0  0  0  0  0  3  0  0  0  0  0  0
   37.5470   32.3020   38.4900 C   0  0  0  0  0  0  0  0  0  0  0  0
   38.2280   31.5080   37.5330 C   0  0  0  0  0  0  0  0  0  0  0  0
   38.0950   30.1450   37.6380 C   0  0  0  0  0  0  0  0  0  0  0  0
   37.3420   29.6390   38.6230 N   0  0  0  0  0  0  0  0  0  0  0  0
   36.7060   30.4080   39.5180 C   0  0  0  0  0  0  0  0  0  0  0  0
   36.8050   31.7500   39.4580 N   0  0  0  0  0  0  0  0  0  0  0  0
   37.5930   33.3990   38.4900 H   0  0  0  0  0  0  0  0  0  0  0  0
   38.6260   29.5810   36.8920 H   0  0  0  0  0  0  0  0  0  0  0  0
   38.9740   32.2470   36.5710 N   0  0  0  0  0  0  0  0  0  0  0  0
   39.7030   32.8840   36.9520 H   0  0  0  0  0  0  0  0  0  0  0  0
   38.7110   32.0730   35.5690 H   0  0  0  0  0  0  0  0  0  0  0  0
  1  3  1  0  0  0  0
  1  4  1  0  0  0  0
  2  1  1  0  0  0  0
  4 12  2  0  0  0  0
  4  5  1  0  0  0  0
  5  7  2  0  0  0  0
  6  5  1  0  0  0  0
  7  8  1  0  0  0  0
  8  9  1  0  0  0  0
 10 11  1  0  0  0  0
 10  8  2  0  0  0  0
 12 10  1  0  0  0  0
 13 18  1  0  0  0  0
 14 15  1  0  0  0  0
 14 13  2  0  0  0  0
 15 16  2  0  0  0  0
 16 17  1  0  0  0  0
 17  1  1  0  0  0  0
 18 17  2  0  0  0  0
 19 13  1  0  0  0  0
 20 15  1  0  0  0  0
 21 22  1  0  0  0  0
 21 14  1  0  0  0  0
 23 21  1  0  0  0  0
M  END
>  <minimizedAffinity>
-4.94429684

$$$$

 OpenBabel03242518183D

 23 24  0  0  0  0  0  0  0  0999 V2000
   35.7660   29.7220   40.6540 C   0  0  0  0  0  0  0  0  0  0  0  0
   35.0160   29.0030   40.2260 H   0  0  0  0  0  0  0  0  0  0  0  0
   35.2290   30.5210   41.2130 H   0  0  0  0  0  0  0  0  0  0  0  0
   36.6660   29.0610   41.6030 C   0  0  0  0  0  0  0  0  0  0  0  0
   37.6810   29.6530   42.3260 C   0  0  0  0  0  0  0  0  0  0  0  0
   37.8250   30.7150   42.1760 H   0  0  0  0  0  0  0  0  0  0  0  0
   38.4650   28.9000   43.2000 C   0  0  0  0  0  3  0  0  0  0  0  0
   38.2530   27.5420   43.3670 C   0  0  0  0  0  0  0  0  0  0  0  0
   38.8750   27.0040   44.0450 H   0  0  0  0  0  0  0  0  0  0  0  0
   37.2250   26.9330   42.6370 C   0  0  0  0  0  0  0  0  0  0  0  0
   37.0900   25.8800   42.7930 H   0  0  0  0  0  0  0  0  0  0  0  0
   36.4610   27.6990   41.7790 C   0  0  0  0  0  3  0  0  0  0  0  0
   37.6460   30.3130   37.5650 C   0  0  0  0  0  0  0  0  0  0  0  0
   37.8940   31.7090   37.5910 C   0  0  0  0  0  0  0  0  0  0  0  0
   37.4100   32.4130   38.6670 C   0  0  0  0  0  0  0  0  0  0  0  0
   36.7390   31.7590   39.6240 N   0  0  0  0  0  0  0  0  0  0  0  0
   36.5160   30.4380   39.5800 C   0  0  0  0  0  0  0  0  0  0  0  0
   36.9690   29.7020   38.5460 N   0  0  0  0  0  0  0  0  0  0  0  0
   37.9910   29.6660   36.7480 H   0  0  0  0  0  0  0  0  0  0  0  0
   37.6210   33.4670   38.6480 H   0  0  0  0  0  0  0  0  0  0  0  0
   38.6260   32.2030   36.4750 N   0  0  0  0  0  0  0  0  0  0  0  0
   38.2040   32.0280   35.5400 H   0  0  0  0  0  0  0  0  0  0  0  0
   39.5220   32.6970   36.7100 H   0  0  0  0  0  0  0  0  0  0  0  0
  1  3  1  0  0  0  0
  1  4  1  0  0  0  0
  2  1  1  0  0  0  0
  4 12  2  0  0  0  0
  4  5  1  0  0  0  0
  5  7  2  0  0  0  0
  6  5  1  0  0  0  0
  7  8  1  0  0  0  0
  8  9  1  0  0  0  0
 10 11  1  0  0  0  0
 10  8  2  0  0  0  0
 12 10  1  0  0  0  0
 13 14  2  0  0  0  0
 13 18  1  0  0  0  0
 14 15  1  0  0  0  0
 15 16  2  0  0  0  0
 17 16  1  0  0  0  0
 17  1  1  0  0  0  0
 18 17  2  0  0  0  0
 19 13  1  0  0  0  0
 20 15  1  0  0  0  0
 21 23  1  0  0  0  0
 21 14  1  0  0  0  0
 22 21  1  0  0  0  0
M  END
>  <minimizedAffinity>
-4.92639303

$$$$

 OpenBabel03242518183D

 23 24  0  0  0  0  0  0  0  0999 V2000
   39.4740   30.6910   42.3820 C   0  0  0  0  0  0  0  0  0  0  0  0
   38.9850   31.5090   42.9790 H   0  0  0  0  0  0  0  0  0  0  0  0
   40.5260   30.5680   42.7230 H   0  0  0  0  0  0  0  0  0  0  0  0
   38.8020   29.4040   42.5800 C   0  0  0  0  0  0  0  0  0  0  0  0
   39.3640   28.2490   43.0840 C   0  0  0  0  0  0  0  0  0  0  0  0
   40.4090   28.3020   43.3610 H   0  0  0  0  0  0  0  0  0  0  0  0
   38.6030   27.0880   43.2200 C   0  0  0  0  0  3  0  0  0  0  0  0
   37.2680   27.0560   42.8540 C   0  0  0  0  0  0  0  0  0  0  0  0
   36.7250   26.1480   42.9740 H   0  0  0  0  0  0  0  0  0  0  0  0
   36.6910   28.2230   42.3410 C   0  0  0  0  0  0  0  0  0  0  0  0
   35.6550   28.1610   42.0690 H   0  0  0  0  0  0  0  0  0  0  0  0
   37.4620   29.3610   42.2160 C   0  0  0  0  0  3  0  0  0  0  0  0
   39.1160   32.5830   39.2650 C   0  0  0  0  0  0  0  0  0  0  0  0
   39.7380   31.7510   38.3000 C   0  0  0  0  0  0  0  0  0  0  0  0
   40.2650   30.5610   38.7420 C   0  0  0  0  0  0  0  0  0  0  0  0
   40.1680   30.2490   40.0410 N   0  0  0  0  0  0  0  0  0  0  0  0
   39.5750   31.0510   40.9360 C   0  0  0  0  0  0  0  0  0  0  0  0
   39.0430   32.2290   40.5540 N   0  0  0  0  0  0  0  0  0  0  0  0
   38.6670   33.5520   39.0090 H   0  0  0  0  0  0  0  0  0  0  0  0
   40.7260   29.9610   37.9790 H   0  0  0  0  0  0  0  0  0  0  0  0
   39.7330   32.2710   36.9750 N   0  0  0  0  0  0  0  0  0  0  0  0
   40.1820   33.2010   36.8490 H   0  0  0  0  0  0  0  0  0  0  0  0
   39.2740   31.6590   36.2550 H   0  0  0  0  0  0  0  0  0  0  0  0
  1  4  1  0  0  0  0
  1  3  1  0  0  0  0
  1  2  1  0  0  0  0
  4  5  1  0  0  0  0
  5  7  2  0  0  0  0
  5  6  1  0  0  0  0
  8  9  1  0  0  0  0
  8  7  1  0  0  0  0
 10  8  2  0  0  0  0
 11 10  1  0  0  0  0
 12 10  1  0  0  0  0
 12  4  2  0  0  0  0
 13 18  1  0  0  0  0
 14 15  1  0  0  0  0
 14 13  2  0  0  0  0
 15 16  2  0  0  0  0
 16 17  1  0  0  0  0
 17  1  1  0  0  0  0
 18 17  2  0  0  0  0
 19 13  1  0  0  0  0
 20 15  1  0  0  0  0
 21 14  1  0  0  0  0
 22 21  1  0  0  0  0
 23 21  1  0  0  0  0
M  END
>  <minimizedAffinity>
-4.56184769

$$$$

 OpenBabel03242518183D

 23 24  0  0  0  0  0  0  0  0999 V2000
   38.2530   28.3680   42.9130 C   0  0  0  0  0  0  0  0  0  0  0  0
   37.6980   28.3110   43.8880 H   0  0  0  0  0  0  0  0  0  0  0  0
   39.3380   28.5070   43.1170 H   0  0  0  0  0  0  0  0  0  0  0  0
   38.1150   27.1310   42.1400 C   0  0  0  0  0  0  0  0  0  0  0  0
   38.8050   26.7910   40.9950 C   0  0  0  0  0  0  0  0  0  0  0  0
   39.5220   27.5150   40.6320 H   0  0  0  0  0  0  0  0  0  0  0  0
   38.5730   25.5720   40.3580 C   0  0  0  0  0  3  0  0  0  0  0  0
   37.6460   24.6690   40.8510 C   0  0  0  0  0  0  0  0  0  0  0  0
   37.4990   23.7490   40.3330 H   0  0  0  0  0  0  0  0  0  0  0  0
   36.9400   25.0060   42.0120 C   0  0  0  0  0  0  0  0  0  0  0  0
   36.2320   24.2810   42.3650 H   0  0  0  0  0  0  0  0  0  0  0  0
   37.1880   26.2170   42.6260 C   0  0  0  0  0  3  0  0  0  0  0  0
   38.4810   31.5690   41.1460 C   0  0  0  0  0  0  0  0  0  0  0  0
   37.1610   31.7800   40.6720 C   0  0  0  0  0  0  0  0  0  0  0  0
   36.2260   30.8190   40.9710 C   0  0  0  0  0  0  0  0  0  0  0  0
   36.5980   29.7470   41.6820 N   0  0  0  0  0  0  0  0  0  0  0  0
   37.8520   29.5680   42.1200 C   0  0  0  0  0  0  0  0  0  0  0  0
   38.8060   30.4800   41.8550 N   0  0  0  0  0  0  0  0  0  0  0  0
   39.2980   32.2790   40.9580 H   0  0  0  0  0  0  0  0  0  0  0  0
   35.2390   31.0180   40.5930 H   0  0  0  0  0  0  0  0  0  0  0  0
   36.9800   32.9840   39.9350 N   0  0  0  0  0  0  0  0  0  0  0  0
   37.5830   33.1000   39.0960 H   0  0  0  0  0  0  0  0  0  0  0  0
   36.2510   33.6380   40.3170 H   0  0  0  0  0  0  0  0  0  0  0  0
  1  3  1  0  0  0  0
  1  2  1  0  0  0  0
  4 12  1  0  0  0  0
  4  1  1  0  0  0  0
  5  4  2  0  0  0  0
  6  5  1  0  0  0  0
  7  8  2  0  0  0  0
  7  5  1  0  0  0  0
  8 10  1  0  0  0  0
  9  8  1  0  0  0  0
 10 11  1  0  0  0  0
 10 12  2  0  0  0  0
 13 18  1  0  0  0  0
 14 15  1  0  0  0  0
 14 13  2  0  0  0  0
 15 16  2  0  0  0  0
 16 17  1  0  0  0  0
 17  1  1  0  0  0  0
 18 17  2  0  0  0  0
 19 13  1  0  0  0  0
 20 15  1  0  0  0  0
 21 23  1  0  0  0  0
 21 14  1  0  0  0  0
 22 21  1  0  0  0  0
M  END
>  <minimizedAffinity>
-4.53917933

$$$$

 OpenBabel03242518183D

 23 24  0  0  0  0  0  0  0  0999 V2000
   35.4020   29.4720   40.4320 C   0  0  0  0  0  0  0  0  0  0  0  0
   34.6060   29.2880   39.6600 H   0  0  0  0  0  0  0  0  0  0  0  0
   34.9300   29.8840   41.3520 H   0  0  0  0  0  0  0  0  0  0  0  0
   36.0820   28.2320   40.8130 C   0  0  0  0  0  0  0  0  0  0  0  0
   36.4500   27.2010   39.9720 C   0  0  0  0  0  0  0  0  0  0  0  0
   36.2110   27.3240   38.9240 H   0  0  0  0  0  0  0  0  0  0  0  0
   37.0970   26.0710   40.4730 C   0  0  0  0  0  3  0  0  0  0  0  0
   37.3860   25.9470   41.8210 C   0  0  0  0  0  0  0  0  0  0  0  0
   37.8810   25.0660   42.1610 H   0  0  0  0  0  0  0  0  0  0  0  0
   37.0160   26.9880   42.6810 C   0  0  0  0  0  0  0  0  0  0  0  0
   37.2570   26.8560   43.7180 H   0  0  0  0  0  0  0  0  0  0  0  0
   36.3780   28.0970   42.1630 C   0  0  0  0  0  3  0  0  0  0  0  0
   37.7960   32.2420   40.5800 C   0  0  0  0  0  0  0  0  0  0  0  0
   38.1370   32.4580   39.2210 C   0  0  0  0  0  0  0  0  0  0  0  0
   37.5360   31.6480   38.2870 C   0  0  0  0  0  0  0  0  0  0  0  0
   36.6730   30.7100   38.6970 N   0  0  0  0  0  0  0  0  0  0  0  0
   36.3660   30.5230   39.9880 C   0  0  0  0  0  0  0  0  0  0  0  0
   36.9270   31.2900   40.9430 N   0  0  0  0  0  0  0  0  0  0  0  0
   38.2230   32.8360   41.3990 H   0  0  0  0  0  0  0  0  0  0  0  0
   37.8210   31.8460   37.2690 H   0  0  0  0  0  0  0  0  0  0  0  0
   39.0740   33.5060   39.0020 N   0  0  0  0  0  0  0  0  0  0  0  0
   39.9880   33.4090   39.4900 H   0  0  0  0  0  0  0  0  0  0  0  0
   38.7460   34.2760   38.3670 H   0  0  0  0  0  0  0  0  0  0  0  0
  1  4  1  0  0  0  0
  1  3  1  0  0  0  0
  2  1  1  0  0  0  0
  4 12  1  0  0  0  0
  5  7  1  0  0  0  0
  5  4  2  0  0  0  0
  6  5  1  0  0  0  0
  7  8  2  0  0  0  0
  8  9  1  0  0  0  0
  8 10  1  0  0  0  0
 10 11  1  0  0  0  0
 12 10  2  0  0  0  0
 13 18  1  0  0  0  0
 13 19  1  0  0  0  0
 14 13  2  0  0  0  0
 15 16  2  0  0  0  0
 15 14  1  0  0  0  0
 16 17  1  0  0  0  0
 17  1  1  0  0  0  0
 17 18  2  0  0  0  0
 20 15  1  0  0  0  0
 21 14  1  0  0  0  0
 21 22  1  0  0  0  0
 23 21  1  0  0  0  0
M  END
>  <minimizedAffinity>
-4.51812744

$$$$

 OpenBabel03242518183D

 23 24  0  0  0  0  0  0  0  0999 V2000
   38.9820   29.0390   40.4370 C   0  0  0  0  0  0  0  0  0  0  0  0
   40.0840   29.0310   40.6580 H   0  0  0  0  0  0  0  0  0  0  0  0
   38.7920   28.4710   39.4990 H   0  0  0  0  0  0  0  0  0  0  0  0
   38.2140   28.3850   41.5000 C   0  0  0  0  0  0  0  0  0  0  0  0
   37.9610   28.8830   42.7620 C   0  0  0  0  0  0  0  0  0  0  0  0
   38.3740   29.8570   42.9870 H   0  0  0  0  0  0  0  0  0  0  0  0
   37.2100   28.1490   43.6800 C   0  0  0  0  0  3  0  0  0  0  0  0
   36.6980   26.9040   43.3570 C   0  0  0  0  0  0  0  0  0  0  0  0
   36.1300   26.3770   44.0890 H   0  0  0  0  0  0  0  0  0  0  0  0
   36.9500   26.3910   42.0790 C   0  0  0  0  0  0  0  0  0  0  0  0
   36.5360   25.4240   41.8650 H   0  0  0  0  0  0  0  0  0  0  0  0
   37.6950   27.1350   41.1870 C   0  0  0  0  0  3  0  0  0  0  0  0
   37.0480   31.7800   38.9630 C   0  0  0  0  0  0  0  0  0  0  0  0
   37.5490   32.9300   39.6240 C   0  0  0  0  0  0  0  0  0  0  0  0
   38.5380   32.7380   40.5580 C   0  0  0  0  0  0  0  0  0  0  0  0
   38.9740   31.4940   40.7970 N   0  0  0  0  0  0  0  0  0  0  0  0
   38.4860   30.4200   40.1610 C   0  0  0  0  0  0  0  0  0  0  0  0
   37.5160   30.5550   39.2360 N   0  0  0  0  0  0  0  0  0  0  0  0
   36.2580   31.8310   38.2030 H   0  0  0  0  0  0  0  0  0  0  0  0
   38.8890   33.6350   41.0340 H   0  0  0  0  0  0  0  0  0  0  0  0
   36.9470   34.1560   39.2210 N   0  0  0  0  0  0  0  0  0  0  0  0
   35.9150   34.2150   39.3350 H   0  0  0  0  0  0  0  0  0  0  0  0
   37.6100   34.8800   38.8470 H   0  0  0  0  0  0  0  0  0  0  0  0
  1  2  1  0  0  0  0
  1  4  1  0  0  0  0
  3  1  1  0  0  0  0
  4  5  1  0  0  0  0
  5  6  1  0  0  0  0
  5  7  2  0  0  0  0
  8  7  1  0  0  0  0
  8  9  1  0  0  0  0
 10  8  2  0  0  0  0
 11 10  1  0  0  0  0
 12  4  2  0  0  0  0
 12 10  1  0  0  0  0
 13 18  2  0  0  0  0
 13 14  1  0  0  0  0
 14 15  2  0  0  0  0
 15 16  1  0  0  0  0
 15 20  1  0  0  0  0
 17  1  1  0  0  0  0
 17 16  2  0  0  0  0
 18 17  1  0  0  0  0
 19 13  1  0  0  0  0
 21 22  1  0  0  0  0
 21 14  1  0  0  0  0
 23 21  1  0  0  0  0
M  END
>  <minimizedAffinity>
-4.50606394

$$$$

 OpenBabel03242518183D

 23 24  0  0  0  0  0  0  0  0999 V2000
   35.6460   28.8860   40.9100 C   0  0  0  0  0  0  0  0  0  0  0  0
   34.8610   29.3020   41.5980 H   0  0  0  0  0  0  0  0  0  0  0  0
   35.1780   28.1350   40.2340 H   0  0  0  0  0  0  0  0  0  0  0  0
   36.2270   29.9280   40.0610 C   0  0  0  0  0  0  0  0  0  0  0  0
   36.4980   29.8370   38.7110 C   0  0  0  0  0  0  0  0  0  0  0  0
   36.2560   28.8970   38.2320 H   0  0  0  0  0  0  0  0  0  0  0  0
   37.0560   30.9140   38.0220 C   0  0  0  0  0  3  0  0  0  0  0  0
   37.3540   32.1030   38.6670 C   0  0  0  0  0  0  0  0  0  0  0  0
   37.7800   32.9000   38.1030 H   0  0  0  0  0  0  0  0  0  0  0  0
   37.0820   32.2040   40.0360 C   0  0  0  0  0  0  0  0  0  0  0  0
   37.3260   33.1400   40.5010 H   0  0  0  0  0  0  0  0  0  0  0  0
   36.5300   31.1250   40.6970 C   0  0  0  0  0  3  0  0  0  0  0  0
   38.2260   26.3990   41.6730 C   0  0  0  0  0  0  0  0  0  0  0  0
   38.6130   26.7210   42.9990 C   0  0  0  0  0  0  0  0  0  0  0  0
   37.9790   27.7820   43.5980 C   0  0  0  0  0  0  0  0  0  0  0  0
   37.0430   28.4520   42.9140 N   0  0  0  0  0  0  0  0  0  0  0  0
   36.6920   28.1300   41.6610 C   0  0  0  0  0  0  0  0  0  0  0  0
   37.2830   27.0980   41.0290 N   0  0  0  0  0  0  0  0  0  0  0  0
   38.6740   25.5690   41.1110 H   0  0  0  0  0  0  0  0  0  0  0  0
   38.3020   27.9920   44.6020 H   0  0  0  0  0  0  0  0  0  0  0  0
   39.6270   25.8820   43.5420 N   0  0  0  0  0  0  0  0  0  0  0  0
   40.5200   25.8430   43.0080 H   0  0  0  0  0  0  0  0  0  0  0  0
   39.3700   25.3850   44.4300 H   0  0  0  0  0  0  0  0  0  0  0  0
  1  2  1  0  0  0  0
  1 17  1  0  0  0  0
  3  1  1  0  0  0  0
  4 12  1  0  0  0  0
  4  1  1  0  0  0  0
  5  4  2  0  0  0  0
  6  5  1  0  0  0  0
  7  8  2  0  0  0  0
  7  5  1  0  0  0  0
  8 10  1  0  0  0  0
  9  8  1  0  0  0  0
 10 11  1  0  0  0  0
 10 12  2  0  0  0  0
 13 14  1  0  0  0  0
 14 21  1  0  0  0  0
 14 15  2  0  0  0  0
 15 20  1  0  0  0  0
 16 15  1  0  0  0  0
 17 16  2  0  0  0  0
 18 17  1  0  0  0  0
 18 13  2  0  0  0  0
 19 13  1  0  0  0  0
 21 23  1  0  0  0  0
 22 21  1  0  0  0  0
M  END
>  <minimizedAffinity>
-4.46947622

$$$$

 OpenBabel03242518183D

 23 24  0  0  0  0  0  0  0  0999 V2000
   37.7450   27.6960   43.6790 C   0  0  0  0  0  0  0  0  0  0  0  0
   37.8950   28.4820   44.4690 H   0  0  0  0  0  0  0  0  0  0  0  0
   36.9710   26.9730   44.0240 H   0  0  0  0  0  0  0  0  0  0  0  0
   37.2650   28.2770   42.4230 C   0  0  0  0  0  0  0  0  0  0  0  0
   36.6350   27.6100   41.3930 C   0  0  0  0  0  0  0  0  0  0  0  0
   36.4820   26.5470   41.5280 H   0  0  0  0  0  0  0  0  0  0  0  0
   36.2280   28.2920   40.2460 C   0  0  0  0  0  3  0  0  0  0  0  0
   36.4420   29.6530   40.1060 C   0  0  0  0  0  0  0  0  0  0  0  0
   36.1150   30.1350   39.2140 H   0  0  0  0  0  0  0  0  0  0  0  0
   37.0800   30.3380   41.1470 C   0  0  0  0  0  0  0  0  0  0  0  0
   37.2280   31.3910   41.0020 H   0  0  0  0  0  0  0  0  0  0  0  0
   37.4740   29.6420   42.2720 C   0  0  0  0  0  3  0  0  0  0  0  0
   41.2880   26.7780   43.5100 C   0  0  0  0  0  0  0  0  0  0  0  0
   41.2580   25.4130   43.1260 C   0  0  0  0  0  0  0  0  0  0  0  0
   40.0230   24.8410   42.9350 C   0  0  0  0  0  0  0  0  0  0  0  0
   38.9260   25.5870   43.1170 N   0  0  0  0  0  0  0  0  0  0  0  0
   38.9770   26.8760   43.4790 C   0  0  0  0  0  0  0  0  0  0  0  0
   40.1630   27.4840   43.6800 N   0  0  0  0  0  0  0  0  0  0  0  0
   42.2250   27.3220   43.6870 H   0  0  0  0  0  0  0  0  0  0  0  0
   40.0460   23.8060   42.6440 H   0  0  0  0  0  0  0  0  0  0  0  0
   42.5390   24.8060   42.9870 N   0  0  0  0  0  0  0  0  0  0  0  0
   43.1470   24.8300   43.8310 H   0  0  0  0  0  0  0  0  0  0  0  0
   42.7400   24.3950   42.0420 H   0  0  0  0  0  0  0  0  0  0  0  0
  1  3  1  0  0  0  0
  1  2  1  0  0  0  0
  4  1  1  0  0  0  0
  5  6  1  0  0  0  0
  5  4  2  0  0  0  0
  7  5  1  0  0  0  0
  8  7  2  0  0  0  0
  8 10  1  0  0  0  0
  9  8  1  0  0  0  0
 10 12  2  0  0  0  0
 11 10  1  0  0  0  0
 12  4  1  0  0  0  0
 13 18  1  0  0  0  0
 13 19  1  0  0  0  0
 14 13  2  0  0  0  0
 15 16  2  0  0  0  0
 15 14  1  0  0  0  0
 16 17  1  0  0  0  0
 17  1  1  0  0  0  0
 17 18  2  0  0  0  0
 20 15  1  0  0  0  0
 21 14  1  0  0  0  0
 21 22  1  0  0  0  0
 23 21  1  0  0  0  0
M  END
>  <minimizedAffinity>
-4.40458345

$$$$

 OpenBabel03242518183D

 23 24  0  0  0  0  0  0  0  0999 V2000
   36.0290   30.2070   40.2480 C   0  0  0  0  0  0  0  0  0  0  0  0
   34.9220   30.3530   40.3810 H   0  0  0  0  0  0  0  0  0  0  0  0
   36.5470   31.1810   40.3920 H   0  0  0  0  0  0  0  0  0  0  0  0
   36.5730   29.2770   41.2410 C   0  0  0  0  0  0  0  0  0  0  0  0
   36.2850   27.9320   41.3580 C   0  0  0  0  0  0  0  0  0  0  0  0
   35.5850   27.5250   40.6410 H   0  0  0  0  0  0  0  0  0  0  0  0
   36.8790   27.1610   42.3560 C   0  0  0  0  0  3  0  0  0  0  0  0
   37.7710   27.7160   43.2590 C   0  0  0  0  0  0  0  0  0  0  0  0
   38.2020   27.0900   44.0060 H   0  0  0  0  0  0  0  0  0  0  0  0
   38.0680   29.0790   43.1480 C   0  0  0  0  0  0  0  0  0  0  0  0
   38.7640   29.4740   43.8640 H   0  0  0  0  0  0  0  0  0  0  0  0
   37.4690   29.8230   42.1510 C   0  0  0  0  0  3  0  0  0  0  0  0
   38.0070   29.3870   37.2750 C   0  0  0  0  0  0  0  0  0  0  0  0
   37.0270   29.0390   36.3120 C   0  0  0  0  0  0  0  0  0  0  0  0
   35.7120   29.0940   36.7050 C   0  0  0  0  0  0  0  0  0  0  0  0
   35.4220   29.4670   37.9580 N   0  0  0  0  0  0  0  0  0  0  0  0
   36.3650   29.7920   38.8540 C   0  0  0  0  0  0  0  0  0  0  0  0
   37.6700   29.7540   38.5180 N   0  0  0  0  0  0  0  0  0  0  0  0
   39.0830   29.3730   37.0570 H   0  0  0  0  0  0  0  0  0  0  0  0
   35.0020   28.8240   35.9440 H   0  0  0  0  0  0  0  0  0  0  0  0
   37.5490   28.6720   35.0390 N   0  0  0  0  0  0  0  0  0  0  0  0
   38.2180   27.8750   35.0340 H   0  0  0  0  0  0  0  0  0  0  0  0
   37.2040   29.2460   34.2300 H   0  0  0  0  0  0  0  0  0  0  0  0
  1  2  1  0  0  0  0
  1  3  1  0  0  0  0
  1  4  1  0  0  0  0
  4  5  2  0  0  0  0
  4 12  1  0  0  0  0
  5  7  1  0  0  0  0
  6  5  1  0  0  0  0
  7  8  2  0  0  0  0
  8  9  1  0  0  0  0
 10  8  1  0  0  0  0
 10 11  1  0  0  0  0
 12 10  2  0  0  0  0
 13 18  1  0  0  0  0
 14 15  1  0  0  0  0
 14 13  2  0  0  0  0
 15 16  2  0  0  0  0
 16 17  1  0  0  0  0
 17  1  1  0  0  0  0
 18 17  2  0  0  0  0
 19 13  1  0  0  0  0
 20 15  1  0  0  0  0
 21 14  1  0  0  0  0
 22 21  1  0  0  0  0
 23 21  1  0  0  0  0
M  END
>  <minimizedAffinity>
-4.34536076

$$$$
