
 OpenBabel03252507413D

 25 26  0  0  0  0  0  0  0  0999 V2000
   47.3750   32.5160   41.9630 C   0  0  0  0  0  0  0  0  0  0  0  0
   47.9030   31.5840   42.1640 H   0  0  0  0  0  0  0  0  0  0  0  0
   46.3090   32.3250   42.2660 H   0  0  0  0  0  0  0  0  0  0  0  0
   47.3390   32.8660   40.5370 C   0  0  0  0  0  0  0  0  0  0  0  0
   46.0740   32.7860   39.9290 C   0  0  0  0  0  0  0  0  0  0  0  0
   45.9790   33.1070   38.5760 C   0  0  0  0  0  0  0  0  0  0  0  0
   47.0940   33.4840   37.8840 N   0  0  0  0  0  0  0  0  0  0  0  0
   48.2890   33.5430   38.5210 C   0  0  0  0  0  0  0  0  0  0  0  0
   48.4230   33.2420   39.8230 N   0  0  0  0  0  0  0  0  0  0  0  0
   44.9880   33.0370   38.1300 H   0  0  0  0  0  0  0  0  0  0  0  0
   49.1030   33.8520   37.8790 H   0  0  0  0  0  0  0  0  0  0  0  0
   44.6360   32.2920   40.8580 S   0  0  0  0  0  0  0  0  0  0  0  0
   44.3370   33.2060   41.8760 H   0  0  0  0  0  0  0  0  0  0  0  0
   47.8340   33.6580   42.8460 C   0  0  0  0  0  0  0  0  0  0  0  0
   48.4010   34.3710   42.2110 H   0  0  0  0  0  0  0  0  0  0  0  0
   48.4840   33.2270   43.6210 H   0  0  0  0  0  0  0  0  0  0  0  0
   46.6950   34.3190   43.4940 C   0  0  0  0  0  0  0  0  0  0  0  0
   46.0920   35.4010   42.8650 C   0  0  0  0  0  0  0  0  0  0  0  0
   46.4890   35.7230   41.9040 H   0  0  0  0  0  0  0  0  0  0  0  0
   45.0080   36.0720   43.4260 C   0  0  0  0  0  3  0  0  0  0  0  0
   44.5340   35.6250   44.6540 C   0  0  0  0  0  0  0  0  0  0  0  0
   43.6970   36.1930   45.0210 H   0  0  0  0  0  0  0  0  0  0  0  0
   45.0900   34.5570   45.3270 C   0  0  0  0  0  0  0  0  0  0  0  0
   44.6900   34.2460   46.2750 H   0  0  0  0  0  0  0  0  0  0  0  0
   46.1530   33.9550   44.7010 C   0  0  0  0  0  3  0  0  0  0  0  0
  1  2  1  0  0  0  0
  1  3  1  0  0  0  0
  1 14  1  0  0  0  0
  4  1  1  0  0  0  0
  5  4  1  0  0  0  0
  5 12  1  0  0  0  0
  6  5  2  0  0  0  0
  7  8  2  0  0  0  0
  7  6  1  0  0  0  0
  8  9  1  0  0  0  0
  9  4  2  0  0  0  0
 10  6  1  0  0  0  0
 11  8  1  0  0  0  0
 12 13  1  0  0  0  0
 14 17  1  0  0  0  0
 14 16  1  0  0  0  0
 15 14  1  0  0  0  0
 17 25  1  0  0  0  0
 18 20  1  0  0  0  0
 18 17  2  0  0  0  0
 19 18  1  0  0  0  0
 20 21  2  0  0  0  0
 21 22  1  0  0  0  0
 21 23  1  0  0  0  0
 23 24  1  0  0  0  0
 25 23  2  0  0  0  0
M  END
>  <minimizedAffinity>
-3.87201333

>  <minimizedRMSD>
4.89723206

$$$$
