
 OpenBabel03252507413D

 25 26  0  0  0  0  0  0  0  0999 V2000
   47.4780   33.9600   39.6900 C   0  0  0  0  0  0  0  0  0  0  0  0
   48.4860   34.3170   39.9020 H   0  0  0  0  0  0  0  0  0  0  0  0
   47.1460   34.5270   38.7770 H   0  0  0  0  0  0  0  0  0  0  0  0
   46.5140   34.2890   40.7490 C   0  0  0  0  0  0  0  0  0  0  0  0
   47.0720   34.7930   41.9370 C   0  0  0  0  0  0  0  0  0  0  0  0
   46.2040   35.1230   42.9760 C   0  0  0  0  0  0  0  0  0  0  0  0
   44.8580   34.9520   42.8220 N   0  0  0  0  0  0  0  0  0  0  0  0
   44.3750   34.4610   41.6550 C   0  0  0  0  0  0  0  0  0  0  0  0
   45.1770   34.1320   40.6290 N   0  0  0  0  0  0  0  0  0  0  0  0
   46.6620   35.5110   43.8850 H   0  0  0  0  0  0  0  0  0  0  0  0
   43.2970   34.3660   41.6420 H   0  0  0  0  0  0  0  0  0  0  0  0
   48.8330   35.0060   42.1080 S   0  0  0  0  0  0  0  0  0  0  0  0
   49.3300   35.9560   41.2070 H   0  0  0  0  0  0  0  0  0  0  0  0
   47.4400   32.5030   39.2810 C   0  0  0  0  0  0  0  0  0  0  0  0
   46.6490   32.0020   39.8780 H   0  0  0  0  0  0  0  0  0  0  0  0
   48.4280   32.0760   39.5120 H   0  0  0  0  0  0  0  0  0  0  0  0
   47.1860   32.3610   37.8430 C   0  0  0  0  0  0  0  0  0  0  0  0
   45.9210   32.6500   37.3460 C   0  0  0  0  0  0  0  0  0  0  0  0
   45.1560   32.9740   38.0490 H   0  0  0  0  0  0  0  0  0  0  0  0
   45.6150   32.5360   35.9930 C   0  0  0  0  0  3  0  0  0  0  0  0
   46.6240   32.1180   35.1330 C   0  0  0  0  0  0  0  0  0  0  0  0
   46.3120   32.0560   34.1040 H   0  0  0  0  0  0  0  0  0  0  0  0
   47.8980   31.8170   35.5650 C   0  0  0  0  0  0  0  0  0  0  0  0
   48.6470   31.4980   34.8640 H   0  0  0  0  0  0  0  0  0  0  0  0
   48.1120   31.9560   36.9130 C   0  0  0  0  0  3  0  0  0  0  0  0
  1  2  1  0  0  0  0
  1  4  1  0  0  0  0
  3  1  1  0  0  0  0
  4  5  1  0  0  0  0
  5 12  1  0  0  0  0
  5  6  2  0  0  0  0
  6 10  1  0  0  0  0
  7  6  1  0  0  0  0
  8  7  2  0  0  0  0
  9  4  2  0  0  0  0
  9  8  1  0  0  0  0
 11  8  1  0  0  0  0
 13 12  1  0  0  0  0
 14 16  1  0  0  0  0
 14  1  1  0  0  0  0
 14 15  1  0  0  0  0
 17 14  1  0  0  0  0
 18 17  1  0  0  0  0
 18 19  1  0  0  0  0
 20 18  2  0  0  0  0
 21 23  2  0  0  0  0
 21 20  1  0  0  0  0
 22 21  1  0  0  0  0
 23 25  1  0  0  0  0
 24 23  1  0  0  0  0
 25 17  2  0  0  0  0
M  END
>  <minimizedAffinity>
-3.15964794

>  <minimizedRMSD>
3.30569839

$$$$
