
 OpenBabel03252507413D

 25 26  0  0  0  0  0  0  0  0999 V2000
   38.7780   29.3950   42.9130 C   0  0  0  0  0  0  0  0  0  0  0  0
   39.3800   29.9880   43.6020 H   0  0  0  0  0  0  0  0  0  0  0  0
   39.5130   28.7620   42.3440 H   0  0  0  0  0  0  0  0  0  0  0  0
   38.0750   30.2070   41.9110 C   0  0  0  0  0  0  0  0  0  0  0  0
   38.8600   31.1770   41.2640 C   0  0  0  0  0  0  0  0  0  0  0  0
   38.2460   31.9780   40.3030 C   0  0  0  0  0  0  0  0  0  0  0  0
   36.9220   31.8070   40.0160 N   0  0  0  0  0  0  0  0  0  0  0  0
   36.2130   30.8560   40.6720 C   0  0  0  0  0  0  0  0  0  0  0  0
   36.7670   30.0640   41.6040 N   0  0  0  0  0  0  0  0  0  0  0  0
   38.8770   32.7210   39.8170 H   0  0  0  0  0  0  0  0  0  0  0  0
   35.1760   30.8070   40.3670 H   0  0  0  0  0  0  0  0  0  0  0  0
   40.5860   31.3770   41.6590 S   0  0  0  0  0  0  0  0  0  0  0  0
   41.3290   30.2350   41.3310 H   0  0  0  0  0  0  0  0  0  0  0  0
   37.8740   28.4060   43.6190 C   0  0  0  0  0  0  0  0  0  0  0  0
   36.8240   28.6680   43.3720 H   0  0  0  0  0  0  0  0  0  0  0  0
   38.0570   28.5130   44.6980 H   0  0  0  0  0  0  0  0  0  0  0  0
   38.1820   27.0270   43.2200 C   0  0  0  0  0  0  0  0  0  0  0  0
   37.2460   26.3080   42.4870 C   0  0  0  0  0  0  0  0  0  0  0  0
   36.3080   26.7990   42.2320 H   0  0  0  0  0  0  0  0  0  0  0  0
   37.4760   24.9980   42.0780 C   0  0  0  0  0  3  0  0  0  0  0  0
   38.6870   24.4120   42.4260 C   0  0  0  0  0  0  0  0  0  0  0  0
   38.7900   23.4000   42.0760 H   0  0  0  0  0  0  0  0  0  0  0  0
   39.6550   25.0740   43.1530 C   0  0  0  0  0  0  0  0  0  0  0  0
   40.5780   24.5820   43.3990 H   0  0  0  0  0  0  0  0  0  0  0  0
   39.3460   26.3610   43.5140 C   0  0  0  0  0  3  0  0  0  0  0  0
  1  2  1  0  0  0  0
  1 14  1  0  0  0  0
  3  1  1  0  0  0  0
  4  1  1  0  0  0  0
  5 12  1  0  0  0  0
  5  4  2  0  0  0  0
  6  5  1  0  0  0  0
  7  6  2  0  0  0  0
  7  8  1  0  0  0  0
  8  9  2  0  0  0  0
  9  4  1  0  0  0  0
 10  6  1  0  0  0  0
 11  8  1  0  0  0  0
 13 12  1  0  0  0  0
 14 16  1  0  0  0  0
 15 14  1  0  0  0  0
 17 25  1  0  0  0  0
 17 14  1  0  0  0  0
 18 17  2  0  0  0  0
 19 18  1  0  0  0  0
 20 21  2  0  0  0  0
 20 18  1  0  0  0  0
 21 23  1  0  0  0  0
 22 21  1  0  0  0  0
 23 24  1  0  0  0  0
 23 25  2  0  0  0  0
M  END
>  <minimizedAffinity>
-4.74336052

$$$$

 OpenBabel03252507413D

 25 26  0  0  0  0  0  0  0  0999 V2000
   36.2460   28.1250   41.8280 C   0  0  0  0  0  0  0  0  0  0  0  0
   36.1870   27.1770   41.2930 H   0  0  0  0  0  0  0  0  0  0  0  0
   35.2350   28.2630   42.3020 H   0  0  0  0  0  0  0  0  0  0  0  0
   36.4450   29.2800   40.9420 C   0  0  0  0  0  0  0  0  0  0  0  0
   36.4930   28.9830   39.5680 C   0  0  0  0  0  0  0  0  0  0  0  0
   36.6790   30.0400   38.6800 C   0  0  0  0  0  0  0  0  0  0  0  0
   36.8080   31.3140   39.1510 N   0  0  0  0  0  0  0  0  0  0  0  0
   36.7550   31.5430   40.4870 C   0  0  0  0  0  0  0  0  0  0  0  0
   36.5760   30.5520   41.3760 N   0  0  0  0  0  0  0  0  0  0  0  0
   36.7120   29.7830   37.6210 H   0  0  0  0  0  0  0  0  0  0  0  0
   36.8690   32.5860   40.7490 H   0  0  0  0  0  0  0  0  0  0  0  0
   36.3200   27.3090   38.9820 S   0  0  0  0  0  0  0  0  0  0  0  0
   35.0560   26.7830   39.2790 H   0  0  0  0  0  0  0  0  0  0  0  0
   37.2190   28.0900   42.9880 C   0  0  0  0  0  0  0  0  0  0  0  0
   36.6330   28.1730   43.9270 H   0  0  0  0  0  0  0  0  0  0  0  0
   37.8910   28.9540   42.8730 H   0  0  0  0  0  0  0  0  0  0  0  0
   38.0200   26.8600   42.9720 C   0  0  0  0  0  0  0  0  0  0  0  0
   39.2300   26.8300   43.6550 C   0  0  0  0  0  0  0  0  0  0  0  0
   39.5430   27.7290   44.1830 H   0  0  0  0  0  0  0  0  0  0  0  0
   40.0360   25.6960   43.6800 C   0  0  0  0  0  3  0  0  0  0  0  0
   39.5960   24.5720   42.9920 C   0  0  0  0  0  0  0  0  0  0  0  0
   40.2720   23.7360   43.0570 H   0  0  0  0  0  0  0  0  0  0  0  0
   38.4050   24.5400   42.2950 C   0  0  0  0  0  0  0  0  0  0  0  0
   38.1040   23.6480   41.7780 H   0  0  0  0  0  0  0  0  0  0  0  0
   37.6730   25.7000   42.3250 C   0  0  0  0  0  3  0  0  0  0  0  0
  1  3  1  0  0  0  0
  1 14  1  0  0  0  0
  2  1  1  0  0  0  0
  4  9  1  0  0  0  0
  4  1  1  0  0  0  0
  5  4  2  0  0  0  0
  6  7  2  0  0  0  0
  6  5  1  0  0  0  0
  7  8  1  0  0  0  0
  8 11  1  0  0  0  0
  8  9  2  0  0  0  0
 10  6  1  0  0  0  0
 12 13  1  0  0  0  0
 12  5  1  0  0  0  0
 14 15  1  0  0  0  0
 16 14  1  0  0  0  0
 17 14  1  0  0  0  0
 17 18  1  0  0  0  0
 18 20  2  0  0  0  0
 18 19  1  0  0  0  0
 21 22  1  0  0  0  0
 21 20  1  0  0  0  0
 23 25  1  0  0  0  0
 23 21  2  0  0  0  0
 24 23  1  0  0  0  0
 25 17  2  0  0  0  0
M  END
>  <minimizedAffinity>
-4.61544132

$$$$

 OpenBabel03252507413D

 25 26  0  0  0  0  0  0  0  0999 V2000
   37.3380   29.0030   42.4570 C   0  0  0  0  0  0  0  0  0  0  0  0
   37.0350   28.3850   41.6110 H   0  0  0  0  0  0  0  0  0  0  0  0
   36.4070   29.5470   42.7770 H   0  0  0  0  0  0  0  0  0  0  0  0
   38.3140   30.0390   42.0960 C   0  0  0  0  0  0  0  0  0  0  0  0
   37.9010   30.9330   41.0920 C   0  0  0  0  0  0  0  0  0  0  0  0
   38.7870   31.9380   40.7090 C   0  0  0  0  0  0  0  0  0  0  0  0
   40.0120   32.0310   41.3040 N   0  0  0  0  0  0  0  0  0  0  0  0
   40.3590   31.1420   42.2670 C   0  0  0  0  0  0  0  0  0  0  0  0
   39.5340   30.1600   42.6650 N   0  0  0  0  0  0  0  0  0  0  0  0
   38.4420   32.6160   39.9300 H   0  0  0  0  0  0  0  0  0  0  0  0
   41.3490   31.3090   42.6680 H   0  0  0  0  0  0  0  0  0  0  0  0
   36.2950   30.7860   40.3340 S   0  0  0  0  0  0  0  0  0  0  0  0
   35.2640   30.9970   41.2590 H   0  0  0  0  0  0  0  0  0  0  0  0
   37.7520   28.1900   43.6660 C   0  0  0  0  0  0  0  0  0  0  0  0
   36.8660   28.0900   44.3280 H   0  0  0  0  0  0  0  0  0  0  0  0
   38.5530   28.7470   44.1720 H   0  0  0  0  0  0  0  0  0  0  0  0
   38.2650   26.8730   43.2690 C   0  0  0  0  0  0  0  0  0  0  0  0
   39.5370   26.4900   43.6800 C   0  0  0  0  0  0  0  0  0  0  0  0
   40.1110   27.1880   44.2870 H   0  0  0  0  0  0  0  0  0  0  0  0
   40.0820   25.2560   43.3380 C   0  0  0  0  0  3  0  0  0  0  0  0
   39.3130   24.3980   42.5620 C   0  0  0  0  0  0  0  0  0  0  0  0
   39.8020   23.4660   42.3390 H   0  0  0  0  0  0  0  0  0  0  0  0
   38.0450   24.7220   42.1240 C   0  0  0  0  0  0  0  0  0  0  0  0
   37.4850   24.0270   41.5250 H   0  0  0  0  0  0  0  0  0  0  0  0
   37.5850   25.9560   42.5070 C   0  0  0  0  0  3  0  0  0  0  0  0
  1  3  1  0  0  0  0
  1 14  1  0  0  0  0
  2  1  1  0  0  0  0
  4  1  1  0  0  0  0
  4  9  1  0  0  0  0
  5  4  2  0  0  0  0
  6  5  1  0  0  0  0
  6  7  2  0  0  0  0
  7  8  1  0  0  0  0
  8  9  2  0  0  0  0
  8 11  1  0  0  0  0
 10  6  1  0  0  0  0
 12  5  1  0  0  0  0
 12 13  1  0  0  0  0
 14 16  1  0  0  0  0
 14 15  1  0  0  0  0
 17 14  1  0  0  0  0
 17 18  1  0  0  0  0
 18 19  1  0  0  0  0
 20 18  2  0  0  0  0
 21 20  1  0  0  0  0
 22 21  1  0  0  0  0
 23 25  1  0  0  0  0
 23 21  2  0  0  0  0
 24 23  1  0  0  0  0
 25 17  2  0  0  0  0
M  END
>  <minimizedAffinity>
-4.53235054

$$$$

 OpenBabel03252507413D

 25 26  0  0  0  0  0  0  0  0999 V2000
   36.9360   28.4030   42.6710 C   0  0  0  0  0  0  0  0  0  0  0  0
   36.0380   28.3760   42.0530 H   0  0  0  0  0  0  0  0  0  0  0  0
   36.5720   28.6000   43.7170 H   0  0  0  0  0  0  0  0  0  0  0  0
   37.8370   29.5130   42.3360 C   0  0  0  0  0  0  0  0  0  0  0  0
   37.3960   30.3550   41.2990 C   0  0  0  0  0  0  0  0  0  0  0  0
   38.2110   31.4260   40.9380 C   0  0  0  0  0  0  0  0  0  0  0  0
   39.3960   31.6310   41.5840 N   0  0  0  0  0  0  0  0  0  0  0  0
   39.7720   30.7880   42.5760 C   0  0  0  0  0  0  0  0  0  0  0  0
   39.0150   29.7450   42.9550 N   0  0  0  0  0  0  0  0  0  0  0  0
   37.8460   32.0620   40.1320 H   0  0  0  0  0  0  0  0  0  0  0  0
   40.7260   31.0430   43.0180 H   0  0  0  0  0  0  0  0  0  0  0  0
   35.8440   30.0620   40.4740 S   0  0  0  0  0  0  0  0  0  0  0  0
   34.7580   30.1980   41.3490 H   0  0  0  0  0  0  0  0  0  0  0  0
   37.6420   27.0650   42.7470 C   0  0  0  0  0  0  0  0  0  0  0  0
   37.4470   26.6350   43.7520 H   0  0  0  0  0  0  0  0  0  0  0  0
   38.7160   27.2580   42.6100 H   0  0  0  0  0  0  0  0  0  0  0  0
   37.1820   26.1610   41.6870 C   0  0  0  0  0  0  0  0  0  0  0  0
   36.9680   24.8210   41.9840 C   0  0  0  0  0  0  0  0  0  0  0  0
   37.1510   24.4870   43.0040 H   0  0  0  0  0  0  0  0  0  0  0  0
   36.5330   23.9120   41.0240 C   0  0  0  0  0  3  0  0  0  0  0  0
   36.3120   24.3840   39.7360 C   0  0  0  0  0  0  0  0  0  0  0  0
   35.9780   23.6230   39.0510 H   0  0  0  0  0  0  0  0  0  0  0  0
   36.5070   25.7030   39.3790 C   0  0  0  0  0  0  0  0  0  0  0  0
   36.3240   26.0230   38.3710 H   0  0  0  0  0  0  0  0  0  0  0  0
   36.9360   26.5290   40.3870 C   0  0  0  0  0  3  0  0  0  0  0  0
  1 14  1  0  0  0  0
  1  3  1  0  0  0  0
  2  1  1  0  0  0  0
  4  1  1  0  0  0  0
  4  9  1  0  0  0  0
  5  4  2  0  0  0  0
  6  5  1  0  0  0  0
  6  7  2  0  0  0  0
  7  8  1  0  0  0  0
  8  9  2  0  0  0  0
  8 11  1  0  0  0  0
 10  6  1  0  0  0  0
 12  5  1  0  0  0  0
 12 13  1  0  0  0  0
 14 15  1  0  0  0  0
 16 14  1  0  0  0  0
 17 18  1  0  0  0  0
 17 14  1  0  0  0  0
 18 19  1  0  0  0  0
 20 18  2  0  0  0  0
 21 20  1  0  0  0  0
 22 21  1  0  0  0  0
 23 21  2  0  0  0  0
 23 25  1  0  0  0  0
 24 23  1  0  0  0  0
 25 17  2  0  0  0  0
M  END
>  <minimizedAffinity>
-4.46662474

$$$$

 OpenBabel03252507413D

 25 26  0  0  0  0  0  0  0  0999 V2000
   36.1970   27.7970   40.1830 C   0  0  0  0  0  0  0  0  0  0  0  0
   35.6260   26.8860   40.0040 H   0  0  0  0  0  0  0  0  0  0  0  0
   36.8990   27.8860   39.3090 H   0  0  0  0  0  0  0  0  0  0  0  0
   37.0430   27.7230   41.3820 C   0  0  0  0  0  0  0  0  0  0  0  0
   38.4190   27.5640   41.1390 C   0  0  0  0  0  0  0  0  0  0  0  0
   39.2700   27.4890   42.2400 C   0  0  0  0  0  0  0  0  0  0  0  0
   38.7610   27.5690   43.5040 N   0  0  0  0  0  0  0  0  0  0  0  0
   37.4260   27.7220   43.6800 C   0  0  0  0  0  0  0  0  0  0  0  0
   36.5720   27.8000   42.6460 N   0  0  0  0  0  0  0  0  0  0  0  0
   40.3310   27.3650   42.0240 H   0  0  0  0  0  0  0  0  0  0  0  0
   37.1330   27.7730   44.7200 H   0  0  0  0  0  0  0  0  0  0  0  0
   39.0550   27.4630   39.4780 S   0  0  0  0  0  0  0  0  0  0  0  0
   38.8390   28.6510   38.7670 H   0  0  0  0  0  0  0  0  0  0  0  0
   35.3470   29.0480   40.1300 C   0  0  0  0  0  0  0  0  0  0  0  0
   34.8810   29.1860   41.1290 H   0  0  0  0  0  0  0  0  0  0  0  0
   34.5760   28.8840   39.3630 H   0  0  0  0  0  0  0  0  0  0  0  0
   36.1480   30.2200   39.7550 C   0  0  0  0  0  0  0  0  0  0  0  0
   36.5530   30.3690   38.4340 C   0  0  0  0  0  0  0  0  0  0  0  0
   36.2580   29.6040   37.7180 H   0  0  0  0  0  0  0  0  0  0  0  0
   37.3140   31.4560   38.0140 C   0  0  0  0  0  3  0  0  0  0  0  0
   37.6670   32.4070   38.9630 C   0  0  0  0  0  0  0  0  0  0  0  0
   38.2550   33.2150   38.5620 H   0  0  0  0  0  0  0  0  0  0  0  0
   37.2960   32.3140   40.2890 C   0  0  0  0  0  0  0  0  0  0  0  0
   37.5920   33.0740   40.9880 H   0  0  0  0  0  0  0  0  0  0  0  0
   36.5470   31.2120   40.6160 C   0  0  0  0  0  3  0  0  0  0  0  0
  1  4  1  0  0  0  0
  2  1  1  0  0  0  0
  3  1  1  0  0  0  0
  4  9  1  0  0  0  0
  5  4  2  0  0  0  0
  5  6  1  0  0  0  0
  6  7  2  0  0  0  0
  7  8  1  0  0  0  0
  8 11  1  0  0  0  0
  9  8  2  0  0  0  0
 10  6  1  0  0  0  0
 12  5  1  0  0  0  0
 13 12  1  0  0  0  0
 14  1  1  0  0  0  0
 14 15  1  0  0  0  0
 16 14  1  0  0  0  0
 17 14  1  0  0  0  0
 17 25  1  0  0  0  0
 18 17  2  0  0  0  0
 19 18  1  0  0  0  0
 20 18  1  0  0  0  0
 20 21  2  0  0  0  0
 21 23  1  0  0  0  0
 22 21  1  0  0  0  0
 23 25  2  0  0  0  0
 23 24  1  0  0  0  0
M  END
>  <minimizedAffinity>
-4.42445087

$$$$

 OpenBabel03252507413D

 25 26  0  0  0  0  0  0  0  0999 V2000
   36.7820   31.0750   39.6970 C   0  0  0  0  0  0  0  0  0  0  0  0
   37.0170   30.1920   39.1020 H   0  0  0  0  0  0  0  0  0  0  0  0
   35.9340   31.5810   39.1570 H   0  0  0  0  0  0  0  0  0  0  0  0
   37.8780   32.0510   39.7430 C   0  0  0  0  0  0  0  0  0  0  0  0
   39.1340   31.5660   39.3350 C   0  0  0  0  0  0  0  0  0  0  0  0
   40.2120   32.4490   39.3580 C   0  0  0  0  0  0  0  0  0  0  0  0
   40.0310   33.7380   39.7680 N   0  0  0  0  0  0  0  0  0  0  0  0
   38.7980   34.1520   40.1520 C   0  0  0  0  0  0  0  0  0  0  0  0
   37.7340   33.3330   40.1430 N   0  0  0  0  0  0  0  0  0  0  0  0
   41.1730   32.0470   39.0370 H   0  0  0  0  0  0  0  0  0  0  0  0
   38.7690   35.1890   40.4570 H   0  0  0  0  0  0  0  0  0  0  0  0
   39.3390   29.8780   38.8040 S   0  0  0  0  0  0  0  0  0  0  0  0
   38.6070   29.6070   37.6410 H   0  0  0  0  0  0  0  0  0  0  0  0
   36.2270   30.7370   41.0650 C   0  0  0  0  0  0  0  0  0  0  0  0
   35.1200   30.7250   40.9900 H   0  0  0  0  0  0  0  0  0  0  0  0
   36.5600   31.5270   41.7540 H   0  0  0  0  0  0  0  0  0  0  0  0
   36.7380   29.4460   41.5410 C   0  0  0  0  0  0  0  0  0  0  0  0
   37.5980   29.4180   42.6320 C   0  0  0  0  0  0  0  0  0  0  0  0
   37.8640   30.3640   43.1000 H   0  0  0  0  0  0  0  0  0  0  0  0
   38.1180   28.2270   43.1320 C   0  0  0  0  0  3  0  0  0  0  0  0
   37.7510   27.0440   42.5040 C   0  0  0  0  0  0  0  0  0  0  0  0
   38.1930   26.1680   42.9460 H   0  0  0  0  0  0  0  0  0  0  0  0
   36.9020   27.0070   41.4160 C   0  0  0  0  0  0  0  0  0  0  0  0
   36.6460   26.0690   40.9620 H   0  0  0  0  0  0  0  0  0  0  0  0
   36.4360   28.2250   40.9900 C   0  0  0  0  0  3  0  0  0  0  0  0
  1  4  1  0  0  0  0
  1 14  1  0  0  0  0
  2  1  1  0  0  0  0
  3  1  1  0  0  0  0
  4  9  1  0  0  0  0
  5  6  1  0  0  0  0
  5  4  2  0  0  0  0
  6  7  2  0  0  0  0
  7  8  1  0  0  0  0
  8 11  1  0  0  0  0
  9  8  2  0  0  0  0
 10  6  1  0  0  0  0
 12  5  1  0  0  0  0
 13 12  1  0  0  0  0
 14 17  1  0  0  0  0
 14 16  1  0  0  0  0
 15 14  1  0  0  0  0
 17 18  1  0  0  0  0
 18 19  1  0  0  0  0
 18 20  2  0  0  0  0
 21 22  1  0  0  0  0
 21 20  1  0  0  0  0
 23 21  2  0  0  0  0
 24 23  1  0  0  0  0
 25 23  1  0  0  0  0
 25 17  2  0  0  0  0
M  END
>  <minimizedAffinity>
-4.38016605

$$$$

 OpenBabel03252507413D

 25 26  0  0  0  0  0  0  0  0999 V2000
   36.1920   28.0670   40.5550 C   0  0  0  0  0  0  0  0  0  0  0  0
   35.4450   27.2880   40.4010 H   0  0  0  0  0  0  0  0  0  0  0  0
   36.7660   28.1250   39.5900 H   0  0  0  0  0  0  0  0  0  0  0  0
   37.1740   27.7310   41.5950 C   0  0  0  0  0  0  0  0  0  0  0  0
   37.6160   26.3960   41.5980 C   0  0  0  0  0  0  0  0  0  0  0  0
   38.5480   26.0200   42.5630 C   0  0  0  0  0  0  0  0  0  0  0  0
   39.0030   26.9360   43.4670 N   0  0  0  0  0  0  0  0  0  0  0  0
   38.5420   28.2100   43.4180 C   0  0  0  0  0  0  0  0  0  0  0  0
   37.6440   28.6130   42.5040 N   0  0  0  0  0  0  0  0  0  0  0  0
   38.8730   24.9810   42.5420 H   0  0  0  0  0  0  0  0  0  0  0  0
   38.9680   28.8500   44.1790 H   0  0  0  0  0  0  0  0  0  0  0  0
   37.0040   25.2230   40.4050 S   0  0  0  0  0  0  0  0  0  0  0  0
   37.3660   25.5750   39.0980 H   0  0  0  0  0  0  0  0  0  0  0  0
   35.5840   29.4430   40.7320 C   0  0  0  0  0  0  0  0  0  0  0  0
   35.6210   29.6950   41.8130 H   0  0  0  0  0  0  0  0  0  0  0  0
   34.5430   29.3840   40.3830 H   0  0  0  0  0  0  0  0  0  0  0  0
   36.2980   30.4450   39.9320 C   0  0  0  0  0  0  0  0  0  0  0  0
   36.5350   30.1940   38.5860 C   0  0  0  0  0  0  0  0  0  0  0  0
   36.1800   29.2530   38.1700 H   0  0  0  0  0  0  0  0  0  0  0  0
   37.2060   31.1030   37.7720 C   0  0  0  0  0  3  0  0  0  0  0  0
   37.6410   32.2900   38.3460 C   0  0  0  0  0  0  0  0  0  0  0  0
   38.1510   32.9400   37.6550 H   0  0  0  0  0  0  0  0  0  0  0  0
   37.4360   32.5970   39.6760 C   0  0  0  0  0  0  0  0  0  0  0  0
   37.7900   33.5280   40.0780 H   0  0  0  0  0  0  0  0  0  0  0  0
   36.7670   31.6460   40.4040 C   0  0  0  0  0  3  0  0  0  0  0  0
  1 14  1  0  0  0  0
  1  4  1  0  0  0  0
  2  1  1  0  0  0  0
  3  1  1  0  0  0  0
  4  5  2  0  0  0  0
  4  9  1  0  0  0  0
  5  6  1  0  0  0  0
  6  7  2  0  0  0  0
  8  7  1  0  0  0  0
  8 11  1  0  0  0  0
  9  8  2  0  0  0  0
 10  6  1  0  0  0  0
 12  5  1  0  0  0  0
 13 12  1  0  0  0  0
 14 15  1  0  0  0  0
 16 14  1  0  0  0  0
 17 25  1  0  0  0  0
 17 14  1  0  0  0  0
 18 17  2  0  0  0  0
 19 18  1  0  0  0  0
 20 21  2  0  0  0  0
 20 18  1  0  0  0  0
 21 23  1  0  0  0  0
 22 21  1  0  0  0  0
 23 24  1  0  0  0  0
 23 25  2  0  0  0  0
M  END
>  <minimizedAffinity>
-4.35256815

$$$$

 OpenBabel03252507413D

 25 26  0  0  0  0  0  0  0  0999 V2000
   36.1420   30.0290   40.9770 C   0  0  0  0  0  0  0  0  0  0  0  0
   36.6750   30.6660   40.2700 H   0  0  0  0  0  0  0  0  0  0  0  0
   35.6050   30.7350   41.6680 H   0  0  0  0  0  0  0  0  0  0  0  0
   37.0370   29.2290   41.8240 C   0  0  0  0  0  0  0  0  0  0  0  0
   38.3490   29.7190   41.9470 C   0  0  0  0  0  0  0  0  0  0  0  0
   39.2420   29.0010   42.7390 C   0  0  0  0  0  0  0  0  0  0  0  0
   38.8320   27.8590   43.3660 N   0  0  0  0  0  0  0  0  0  0  0  0
   37.5550   27.4320   43.2120 C   0  0  0  0  0  0  0  0  0  0  0  0
   36.6640   28.0960   42.4580 N   0  0  0  0  0  0  0  0  0  0  0  0
   40.2520   29.4020   42.8170 H   0  0  0  0  0  0  0  0  0  0  0  0
   37.3400   26.5190   43.7520 H   0  0  0  0  0  0  0  0  0  0  0  0
   38.8540   31.2130   41.1170 S   0  0  0  0  0  0  0  0  0  0  0  0
   38.1530   32.3310   41.5880 H   0  0  0  0  0  0  0  0  0  0  0  0
   35.0480   29.2100   40.3260 C   0  0  0  0  0  0  0  0  0  0  0  0
   34.0720   29.6350   40.6410 H   0  0  0  0  0  0  0  0  0  0  0  0
   35.1560   28.1780   40.6890 H   0  0  0  0  0  0  0  0  0  0  0  0
   35.1790   29.2160   38.8640 C   0  0  0  0  0  0  0  0  0  0  0  0
   34.1360   28.7240   38.0880 C   0  0  0  0  0  0  0  0  0  0  0  0
   33.2500   28.3500   38.5980 H   0  0  0  0  0  0  0  0  0  0  0  0
   34.1970   28.7020   36.6980 C   0  0  0  0  0  3  0  0  0  0  0  0
   35.3470   29.1910   36.0900 C   0  0  0  0  0  0  0  0  0  0  0  0
   35.3200   29.1390   35.0150 H   0  0  0  0  0  0  0  0  0  0  0  0
   36.4150   29.6910   36.8060 C   0  0  0  0  0  0  0  0  0  0  0  0
   37.2850   30.0590   36.2940 H   0  0  0  0  0  0  0  0  0  0  0  0
   36.2710   29.6760   38.1700 C   0  0  0  0  0  3  0  0  0  0  0  0
  1  3  1  0  0  0  0
  1  4  1  0  0  0  0
  2  1  1  0  0  0  0
  4  5  2  0  0  0  0
  4  9  1  0  0  0  0
  5  6  1  0  0  0  0
  6 10  1  0  0  0  0
  6  7  2  0  0  0  0
  8  7  1  0  0  0  0
  8 11  1  0  0  0  0
  9  8  2  0  0  0  0
 12 13  1  0  0  0  0
 12  5  1  0  0  0  0
 14 15  1  0  0  0  0
 14 16  1  0  0  0  0
 14  1  1  0  0  0  0
 17 14  1  0  0  0  0
 18 19  1  0  0  0  0
 18 17  2  0  0  0  0
 20 18  1  0  0  0  0
 21 20  2  0  0  0  0
 21 23  1  0  0  0  0
 22 21  1  0  0  0  0
 23 25  2  0  0  0  0
 24 23  1  0  0  0  0
 25 17  1  0  0  0  0
M  END
>  <minimizedAffinity>
-4.30259609

$$$$

 OpenBabel03252507413D

 25 26  0  0  0  0  0  0  0  0999 V2000
   37.0580   27.2020   42.6910 C   0  0  0  0  0  0  0  0  0  0  0  0
   36.3240   26.9780   43.4650 H   0  0  0  0  0  0  0  0  0  0  0  0
   36.6450   26.7480   41.7480 H   0  0  0  0  0  0  0  0  0  0  0  0
   38.3580   26.5580   42.9200 C   0  0  0  0  0  0  0  0  0  0  0  0
   38.4570   25.2270   42.4770 C   0  0  0  0  0  0  0  0  0  0  0  0
   39.6680   24.5650   42.6680 C   0  0  0  0  0  0  0  0  0  0  0  0
   40.7100   25.2080   43.2700 N   0  0  0  0  0  0  0  0  0  0  0  0
   40.5590   26.4920   43.6790 C   0  0  0  0  0  0  0  0  0  0  0  0
   39.4090   27.1650   43.5120 N   0  0  0  0  0  0  0  0  0  0  0  0
   39.7180   23.5350   42.3150 H   0  0  0  0  0  0  0  0  0  0  0  0
   41.4460   26.9020   44.1420 H   0  0  0  0  0  0  0  0  0  0  0  0
   37.0780   24.4130   41.6930 S   0  0  0  0  0  0  0  0  0  0  0  0
   36.7340   25.0270   40.4820 H   0  0  0  0  0  0  0  0  0  0  0  0
   37.1710   28.6830   42.3940 C   0  0  0  0  0  0  0  0  0  0  0  0
   38.2320   28.9780   42.5380 H   0  0  0  0  0  0  0  0  0  0  0  0
   36.5230   29.2080   43.1110 H   0  0  0  0  0  0  0  0  0  0  0  0
   36.7170   28.9880   41.0320 C   0  0  0  0  0  0  0  0  0  0  0  0
   35.3620   28.9090   40.7360 C   0  0  0  0  0  0  0  0  0  0  0  0
   34.6790   28.6210   41.5330 H   0  0  0  0  0  0  0  0  0  0  0  0
   34.8670   29.1850   39.4640 C   0  0  0  0  0  3  0  0  0  0  0  0
   35.7760   29.5490   38.4790 C   0  0  0  0  0  0  0  0  0  0  0  0
   35.3180   29.7460   37.5240 H   0  0  0  0  0  0  0  0  0  0  0  0
   37.1330   29.6440   38.7110 C   0  0  0  0  0  0  0  0  0  0  0  0
   37.7990   29.9300   37.9190 H   0  0  0  0  0  0  0  0  0  0  0  0
   37.5340   29.3560   39.9910 C   0  0  0  0  0  3  0  0  0  0  0  0
  1  4  1  0  0  0  0
  1  2  1  0  0  0  0
  3  1  1  0  0  0  0
  4  9  1  0  0  0  0
  5  6  1  0  0  0  0
  5  4  2  0  0  0  0
  6  7  2  0  0  0  0
  7  8  1  0  0  0  0
  8 11  1  0  0  0  0
  9  8  2  0  0  0  0
 10  6  1  0  0  0  0
 12  5  1  0  0  0  0
 13 12  1  0  0  0  0
 14 15  1  0  0  0  0
 14  1  1  0  0  0  0
 14 16  1  0  0  0  0
 17 14  1  0  0  0  0
 18 17  1  0  0  0  0
 18 19  1  0  0  0  0
 20 18  2  0  0  0  0
 21 23  2  0  0  0  0
 21 20  1  0  0  0  0
 22 21  1  0  0  0  0
 23 25  1  0  0  0  0
 24 23  1  0  0  0  0
 25 17  2  0  0  0  0
M  END
>  <minimizedAffinity>
-4.25756502

$$$$
