
 OpenBabel03252507413D

 25 26  0  0  0  0  0  0  0  0999 V2000
   47.7850   32.3260   43.6010 C   0  0  0  0  0  0  0  0  0  0  0  0
   47.2710   31.7420   42.8360 H   0  0  0  0  0  0  0  0  0  0  0  0
   48.6500   31.6880   43.9320 H   0  0  0  0  0  0  0  0  0  0  0  0
   46.9670   32.5600   44.7980 C   0  0  0  0  0  0  0  0  0  0  0  0
   46.9770   31.5220   45.7470 C   0  0  0  0  0  0  0  0  0  0  0  0
   46.2180   31.6890   46.9040 C   0  0  0  0  0  0  0  0  0  0  0  0
   45.4960   32.8330   47.0870 N   0  0  0  0  0  0  0  0  0  0  0  0
   45.5220   33.8010   46.1390 C   0  0  0  0  0  0  0  0  0  0  0  0
   46.2400   33.6800   45.0110 N   0  0  0  0  0  0  0  0  0  0  0  0
   46.2430   30.8700   47.6220 H   0  0  0  0  0  0  0  0  0  0  0  0
   44.9150   34.6620   46.3870 H   0  0  0  0  0  0  0  0  0  0  0  0
   47.9300   30.0410   45.4790 S   0  0  0  0  0  0  0  0  0  0  0  0
   49.3040   30.3100   45.4290 H   0  0  0  0  0  0  0  0  0  0  0  0
   48.4170   33.5900   43.0550 C   0  0  0  0  0  0  0  0  0  0  0  0
   49.4670   33.6270   43.4150 H   0  0  0  0  0  0  0  0  0  0  0  0
   47.8410   34.4380   43.4530 H   0  0  0  0  0  0  0  0  0  0  0  0
   48.3590   33.6220   41.5890 C   0  0  0  0  0  0  0  0  0  0  0  0
   48.3100   32.4250   40.8860 C   0  0  0  0  0  0  0  0  0  0  0  0
   48.3160   31.4960   41.4530 H   0  0  0  0  0  0  0  0  0  0  0  0
   48.2540   32.3870   39.4950 C   0  0  0  0  0  3  0  0  0  0  0  0
   48.2470   33.5970   38.8120 C   0  0  0  0  0  0  0  0  0  0  0  0
   48.2020   33.4860   37.7430 H   0  0  0  0  0  0  0  0  0  0  0  0
   48.2940   34.8170   39.4540 C   0  0  0  0  0  0  0  0  0  0  0  0
   48.2880   35.7290   38.8860 H   0  0  0  0  0  0  0  0  0  0  0  0
   48.3490   34.7620   40.8250 C   0  0  0  0  0  3  0  0  0  0  0  0
  1  3  1  0  0  0  0
  1  4  1  0  0  0  0
  2  1  1  0  0  0  0
  4  9  2  0  0  0  0
  4  5  1  0  0  0  0
  5  6  2  0  0  0  0
  6  7  1  0  0  0  0
  6 10  1  0  0  0  0
  8 11  1  0  0  0  0
  8  7  2  0  0  0  0
  9  8  1  0  0  0  0
 12  5  1  0  0  0  0
 13 12  1  0  0  0  0
 14 15  1  0  0  0  0
 14 16  1  0  0  0  0
 14  1  1  0  0  0  0
 17 14  1  0  0  0  0
 18 19  1  0  0  0  0
 18 17  1  0  0  0  0
 20 18  2  0  0  0  0
 21 23  2  0  0  0  0
 21 20  1  0  0  0  0
 22 21  1  0  0  0  0
 23 25  1  0  0  0  0
 24 23  1  0  0  0  0
 25 17  2  0  0  0  0
M  END
>  <minimizedAffinity>
-3.62605572

>  <minimizedRMSD>
3.816401

$$$$
