
 OpenBabel03252506203D

 33 35  0  0  0  0  0  0  0  0999 V2000
   45.0370   35.8060   43.0640 C   0  0  0  0  0  0  0  0  0  0  0  0
   44.4090   35.0240   42.0730 C   0  0  0  0  0  0  0  0  0  0  0  0
   44.2490   33.6580   42.3390 C   0  0  0  0  0  0  0  0  0  0  0  0
   44.6990   33.1630   43.5160 N   0  0  0  0  0  0  0  0  0  0  0  0
   45.3010   33.9590   44.4470 C   0  0  0  0  0  0  0  0  0  0  0  0
   45.4660   35.2700   44.2160 N   0  0  0  0  0  0  0  0  0  0  0  0
   44.0700   35.4600   41.1560 H   0  0  0  0  0  0  0  0  0  0  0  0
   43.7730   33.0010   41.6160 H   0  0  0  0  0  0  0  0  0  0  0  0
   47.7330   32.1810   44.1460 Cl  0  0  0  0  0  0  0  0  0  0  0  0
   46.8620   32.4960   45.6230 C   0  0  0  0  0  0  0  0  0  0  0  0
   45.7490   33.3280   45.6820 C   0  0  0  0  0  0  0  0  0  0  0  0
   45.0610   33.5800   46.8380 C   0  0  0  0  0  0  0  0  0  0  0  0
   45.5210   32.9620   47.9820 C   0  0  0  0  0  0  0  0  0  0  0  0
   46.6060   32.1270   48.0300 C   0  0  0  0  0  0  0  0  0  0  0  0
   47.2550   31.9200   46.8110 C   0  0  0  0  0  0  0  0  0  0  0  0
   44.1940   34.2240   46.9010 H   0  0  0  0  0  0  0  0  0  0  0  0
   44.9850   33.1540   48.9030 H   0  0  0  0  0  0  0  0  0  0  0  0
   46.9690   31.6410   48.9260 H   0  0  0  0  0  0  0  0  0  0  0  0
   48.1180   31.2690   46.7950 H   0  0  0  0  0  0  0  0  0  0  0  0
   45.2120   37.2460   42.7960 C   0  0  0  0  0  3  0  0  0  0  0  0
   45.3690   38.0520   43.8170 C   0  0  0  0  0  3  0  0  0  0  0  0
   45.5500   39.5110   43.5990 C   0  0  0  0  0  0  0  0  0  0  0  0
   44.9560   39.8030   42.7060 H   0  0  0  0  0  0  0  0  0  0  0  0
   46.6020   39.7830   43.3800 H   0  0  0  0  0  0  0  0  0  0  0  0
   45.0840   40.3110   44.7420 C   0  0  0  0  0  0  0  0  0  0  0  0
   45.2050   39.7670   46.0240 C   0  0  0  0  0  0  0  0  0  0  0  0
   45.6380   38.7710   46.1600 H   0  0  0  0  0  0  0  0  0  0  0  0
   44.7850   40.4720   47.1310 C   0  0  0  0  0  3  0  0  0  0  0  0
   44.2320   41.7310   47.0240 C   0  0  0  0  0  0  0  0  0  0  0  0
   43.8940   42.3050   47.8700 H   0  0  0  0  0  0  0  0  0  0  0  0
   44.0980   42.2990   45.7530 C   0  0  0  0  0  0  0  0  0  0  0  0
   43.6750   43.2820   45.5660 H   0  0  0  0  0  0  0  0  0  0  0  0
   44.5270   41.5740   44.6550 C   0  0  0  0  0  3  0  0  0  0  0  0
  1  6  1  0  0  0  0
  2  3  1  0  0  0  0
  2  1  2  0  0  0  0
  3  4  2  0  0  0  0
  4  5  1  0  0  0  0
  5 11  1  0  0  0  0
  6  5  2  0  0  0  0
  7  2  1  0  0  0  0
  8  3  1  0  0  0  0
  9 10  1  0  0  0  0
 10 11  2  0  0  0  0
 10 15  1  0  0  0  0
 11 12  1  0  0  0  0
 12 16  1  0  0  0  0
 12 13  2  0  0  0  0
 13 14  1  0  0  0  0
 13 17  1  0  0  0  0
 14 18  1  0  0  0  0
 15 14  2  0  0  0  0
 19 15  1  0  0  0  0
 20  1  1  0  0  0  0
 20 21  2  0  0  0  0
 22 21  1  0  0  0  0
 22 25  1  0  0  0  0
 23 22  1  0  0  0  0
 24 22  1  0  0  0  0
 25 26  1  0  0  0  0
 26 27  1  0  0  0  0
 26 28  2  0  0  0  0
 29 28  1  0  0  0  0
 29 30  1  0  0  0  0
 31 29  2  0  0  0  0
 32 31  1  0  0  0  0
 33 25  2  0  0  0  0
 33 31  1  0  0  0  0
M  END
>  <minimizedAffinity>
-4.21163511

>  <minimizedRMSD>
3.50134087

$$$$
