
 OpenBabel03242511473D

 44 46  0  0  0  0  0  0  0  0999 V2000
   44.6850   35.7760   44.4710 C   0  0  0  0  0  0  0  0  0  0  0  0
   44.0480   35.8990   43.2140 C   0  0  0  0  0  0  0  0  0  0  0  0
   44.0540   34.7810   42.4050 C   0  0  0  0  0  0  0  0  0  0  0  0
   44.6500   33.6490   42.8300 N   0  0  0  0  0  0  0  0  0  0  0  0
   45.2430   33.5980   44.0490 C   0  0  0  0  0  0  0  0  0  0  0  0
   45.2670   34.6200   44.8530 N   0  0  0  0  0  0  0  0  0  0  0  0
   44.7170   36.6170   45.1570 H   0  0  0  0  0  0  0  0  0  0  0  0
   43.6090   36.8700   43.0040 H   0  0  0  0  0  0  0  0  0  0  0  0
   45.8730   32.3190   44.4400 C   0  0  0  0  0  0  0  0  0  0  0  0
   45.1120   31.5200   44.6070 H   0  0  0  0  0  0  0  0  0  0  0  0
   46.5380   31.9270   43.6400 H   0  0  0  0  0  0  0  0  0  0  0  0
   46.6940   32.5390   45.6750 C   0  0  0  0  0  0  0  0  0  0  0  0
   46.8060   33.6230   45.9180 H   0  0  0  0  0  0  0  0  0  0  0  0
   47.7590   32.1920   45.5280 H   0  0  0  0  0  0  0  0  0  0  0  0
   46.1390   31.8680   46.8330 C   0  0  0  0  0  0  0  0  0  0  0  0
   45.3440   32.3970   47.8370 C   0  0  0  0  0  0  0  0  0  0  0  0
   44.8710   31.6700   48.8840 C   0  0  0  0  0  0  0  0  0  0  0  0
   45.1950   30.3480   48.9500 C   0  0  0  0  0  0  0  0  0  0  0  0
   45.9930   29.7960   47.9520 C   0  0  0  0  0  0  0  0  0  0  0  0
   46.4590   30.5460   46.9100 C   0  0  0  0  0  0  0  0  0  0  0  0
   45.1180   33.4540   47.7310 H   0  0  0  0  0  0  0  0  0  0  0  0
   44.2620   32.1910   49.6020 H   0  0  0  0  0  0  0  0  0  0  0  0
   44.7860   29.8090   49.8160 H   0  0  0  0  0  0  0  0  0  0  0  0
   46.1520   28.7320   48.1660 H   0  0  0  0  0  0  0  0  0  0  0  0
   48.5870   29.4570   46.5500 C   0  0  0  0  0  0  0  0  0  0  0  0
   49.3550   29.8230   47.5320 O   0  0  0  0  0  0  0  0  0  0  0  0
   47.2440   29.6890   46.0720 N   0  0  0  0  0  0  0  0  0  0  0  0
   49.3550   28.8240   46.1150 H   0  0  0  0  0  0  0  0  0  0  0  0
   47.0860   29.1880   45.1960 H   0  0  0  0  0  0  0  0  0  0  0  0
   43.3840   34.9190   41.0900 C   0  0  0  0  0  0  0  0  0  0  0  0
   43.2670   33.8960   40.6770 H   0  0  0  0  0  0  0  0  0  0  0  0
   44.0500   35.5100   40.4150 H   0  0  0  0  0  0  0  0  0  0  0  0
   42.0340   35.6070   41.2270 C   0  0  0  0  0  0  0  0  0  0  0  0
   41.6470   35.3460   42.2340 H   0  0  0  0  0  0  0  0  0  0  0  0
   42.2460   36.6980   41.2820 H   0  0  0  0  0  0  0  0  0  0  0  0
   41.1060   35.2240   40.1480 C   0  0  0  0  0  0  0  0  0  0  0  0
   39.8580   34.7670   40.5830 C   0  0  0  0  0  0  0  0  0  0  0  0
   39.5860   34.6970   41.6340 H   0  0  0  0  0  0  0  0  0  0  0  0
   38.9470   34.3940   39.6030 C   0  0  0  0  0  0  0  0  0  0  0  0
   39.2110   34.4510   38.2490 C   0  0  0  0  0  0  0  0  0  0  0  0
   38.4830   34.1540   37.5250 H   0  0  0  0  0  0  0  0  0  0  0  0
   40.4720   34.9140   37.8600 C   0  0  0  0  0  0  0  0  0  0  0  0
   40.6970   34.9660   36.7910 H   0  0  0  0  0  0  0  0  0  0  0  0
   41.4210   35.3010   38.8080 C   0  0  0  0  0  0  0  0  0  0  0  0
  1  6  1  0  0  0  0
  1  7  1  0  0  0  0
  2  1  2  0  0  0  0
  3  4  2  0  0  0  0
  3  2  1  0  0  0  0
  4  5  1  0  0  0  0
  5  9  1  0  0  0  0
  5  6  2  0  0  0  0
  8  2  1  0  0  0  0
  9 10  1  0  0  0  0
  9 12  1  0  0  0  0
 11  9  1  0  0  0  0
 12 13  1  0  0  0  0
 12 15  1  0  0  0  0
 14 12  1  0  0  0  0
 15 20  2  0  0  0  0
 15 16  1  0  0  0  0
 16 17  2  0  0  0  0
 17 18  1  0  0  0  0
 17 22  1  0  0  0  0
 18 23  1  0  0  0  0
 19 24  1  0  0  0  0
 19 18  2  0  0  0  0
 20 19  1  0  0  0  0
 21 16  1  0  0  0  0
 25 26  2  0  0  0  0
 27 25  1  0  0  0  0
 27 20  1  0  0  0  0
 28 25  1  0  0  0  0
 29 27  1  0  0  0  0
 30 33  1  0  0  0  0
 30  3  1  0  0  0  0
 31 30  1  0  0  0  0
 32 30  1  0  0  0  0
 33 35  1  0  0  0  0
 33 34  1  0  0  0  0
 36 37  1  0  0  0  0
 36 33  1  0  0  0  0
 37 38  1  0  0  0  0
 39 37  2  0  0  0  0
 40 39  1  0  0  0  0
 41 40  1  0  0  0  0
 42 40  2  0  0  0  0
 42 44  1  0  0  0  0
 43 42  1  0  0  0  0
 44 36  2  0  0  0  0
M  END
>  <minimizedAffinity>
-6.2826066

>  <minimizedRMSD>
0.932431102

$$$$
