
 OpenBabel03242513283D

 30 32  0  0  0  0  0  0  0  0999 V2000
   37.7580   29.8210   41.5970 C   0  0  0  0  0  0  0  0  0  0  0  0
   37.4910   30.7000   40.5750 C   0  0  0  0  0  0  0  0  0  0  0  0
   36.3720   30.4660   39.8260 C   0  0  0  0  0  0  0  0  0  0  0  0
   35.5360   29.3890   40.0790 C   0  0  0  0  0  0  0  0  0  0  0  0
   35.8170   28.5270   41.0960 C   0  0  0  0  0  0  0  0  0  0  0  0
   36.9450   28.7260   41.8870 C   0  0  0  0  0  0  0  0  0  0  0  0
   36.1720   31.1670   39.0220 H   0  0  0  0  0  0  0  0  0  0  0  0
   34.6860   29.3150   39.4140 H   0  0  0  0  0  0  0  0  0  0  0  0
   35.1610   27.6980   41.2810 H   0  0  0  0  0  0  0  0  0  0  0  0
   38.8880   34.1580   40.0690 C   0  0  0  0  0  0  0  0  0  0  0  0
   37.9640   33.1120   40.2730 C   0  0  0  0  0  0  0  0  0  0  0  0
   38.4050   31.8040   40.3660 C   0  0  0  0  0  0  0  0  0  0  0  0
   39.7480   31.6150   40.2470 N   0  0  0  0  0  0  0  0  0  0  0  0
   40.6290   32.6120   40.0510 C   0  0  0  0  0  0  0  0  0  0  0  0
   40.1980   33.8830   39.9620 N   0  0  0  0  0  0  0  0  0  0  0  0
   38.5410   35.1820   39.9970 H   0  0  0  0  0  0  0  0  0  0  0  0
   36.9210   33.3240   40.3590 H   0  0  0  0  0  0  0  0  0  0  0  0
   41.6470   32.2730   39.9820 H   0  0  0  0  0  0  0  0  0  0  0  0
   38.8790   30.0150   42.3840 O   0  0  0  0  0  0  0  0  0  0  0  0
   38.8760   30.8230   42.9980 H   0  0  0  0  0  0  0  0  0  0  0  0
   37.2650   27.8840   42.9190 O   0  0  0  0  0  0  0  0  0  0  0  0
   37.9180   26.6970   42.8620 C   0  0  0  0  0  0  0  0  0  0  0  0
   37.6220   25.4980   42.2440 C   0  0  0  0  0  0  0  0  0  0  0  0
   36.6860   25.5430   41.7090 H   0  0  0  0  0  0  0  0  0  0  0  0
   38.4420   24.4190   42.3270 C   0  0  0  0  0  3  0  0  0  0  0  0
   39.6280   24.4680   43.0400 C   0  0  0  0  0  0  0  0  0  0  0  0
   40.2390   23.5780   43.0700 H   0  0  0  0  0  0  0  0  0  0  0  0
   39.9710   25.6450   43.6780 C   0  0  0  0  0  0  0  0  0  0  0  0
   40.8910   25.6620   44.2260 H   0  0  0  0  0  0  0  0  0  0  0  0
   39.1190   26.7500   43.5870 C   0  0  0  0  0  3  0  0  0  0  0  0
  1  6  1  0  0  0  0
  1 19  1  0  0  0  0
  2  1  2  0  0  0  0
  3  4  2  0  0  0  0
  3  2  1  0  0  0  0
  4  5  1  0  0  0  0
  5  9  1  0  0  0  0
  5  6  2  0  0  0  0
  6 21  1  0  0  0  0
  7  3  1  0  0  0  0
  8  4  1  0  0  0  0
 10 11  1  0  0  0  0
 11 17  1  0  0  0  0
 11 12  2  0  0  0  0
 12  2  1  0  0  0  0
 13 12  1  0  0  0  0
 14 13  2  0  0  0  0
 15 14  1  0  0  0  0
 15 10  2  0  0  0  0
 16 10  1  0  0  0  0
 18 14  1  0  0  0  0
 19 20  1  0  0  0  0
 22 21  1  0  0  0  0
 22 30  1  0  0  0  0
 23 25  1  0  0  0  0
 23 22  2  0  0  0  0
 24 23  1  0  0  0  0
 25 26  2  0  0  0  0
 26 27  1  0  0  0  0
 26 28  1  0  0  0  0
 28 29  1  0  0  0  0
 30 28  2  0  0  0  0
M  END
>  <minimizedAffinity>
-5.83297205

$$$$

 OpenBabel03242513283D

 30 32  0  0  0  0  0  0  0  0999 V2000
   37.7810   30.1130   41.4800 C   0  0  0  0  0  0  0  0  0  0  0  0
   37.5550   30.9130   40.3840 C   0  0  0  0  0  0  0  0  0  0  0  0
   36.4430   30.6450   39.6360 C   0  0  0  0  0  0  0  0  0  0  0  0
   35.5740   29.6140   39.9600 C   0  0  0  0  0  0  0  0  0  0  0  0
   35.8150   28.8320   41.0490 C   0  0  0  0  0  0  0  0  0  0  0  0
   36.9350   29.0670   41.8430 C   0  0  0  0  0  0  0  0  0  0  0  0
   36.2750   31.2830   38.7730 H   0  0  0  0  0  0  0  0  0  0  0  0
   34.7340   29.5070   39.2880 H   0  0  0  0  0  0  0  0  0  0  0  0
   35.1350   28.0370   41.2890 H   0  0  0  0  0  0  0  0  0  0  0  0
   40.3630   32.9080   38.8690 C   0  0  0  0  0  0  0  0  0  0  0  0
   39.4590   31.8520   39.1120 C   0  0  0  0  0  0  0  0  0  0  0  0
   38.5010   31.9720   40.1030 C   0  0  0  0  0  0  0  0  0  0  0  0
   38.5030   33.1420   40.7990 N   0  0  0  0  0  0  0  0  0  0  0  0
   39.3650   34.1470   40.5700 C   0  0  0  0  0  0  0  0  0  0  0  0
   40.2950   34.0300   39.6040 N   0  0  0  0  0  0  0  0  0  0  0  0
   41.1120   32.8140   38.0930 H   0  0  0  0  0  0  0  0  0  0  0  0
   39.5080   30.9580   38.5300 H   0  0  0  0  0  0  0  0  0  0  0  0
   39.2140   34.9930   41.2170 H   0  0  0  0  0  0  0  0  0  0  0  0
   38.8930   30.3440   42.2690 O   0  0  0  0  0  0  0  0  0  0  0  0
   38.9010   31.2000   42.8150 H   0  0  0  0  0  0  0  0  0  0  0  0
   37.2150   28.3050   42.9460 O   0  0  0  0  0  0  0  0  0  0  0  0
   38.0370   27.2310   43.0380 C   0  0  0  0  0  0  0  0  0  0  0  0
   39.2450   27.0340   43.6790 C   0  0  0  0  0  0  0  0  0  0  0  0
   39.5720   27.9210   44.2000 H   0  0  0  0  0  0  0  0  0  0  0  0
   39.9040   25.8470   43.6320 C   0  0  0  0  0  3  0  0  0  0  0  0
   39.3940   24.7660   42.9340 C   0  0  0  0  0  0  0  0  0  0  0  0
   39.9630   23.8490   42.9330 H   0  0  0  0  0  0  0  0  0  0  0  0
   38.1880   24.9110   42.2740 C   0  0  0  0  0  0  0  0  0  0  0  0
   37.8100   24.0640   41.7390 H   0  0  0  0  0  0  0  0  0  0  0  0
   37.5170   26.1370   42.3290 C   0  0  0  0  0  3  0  0  0  0  0  0
  1  6  1  0  0  0  0
  1 19  1  0  0  0  0
  2  1  2  0  0  0  0
  3  4  2  0  0  0  0
  3  2  1  0  0  0  0
  4  5  1  0  0  0  0
  5  9  1  0  0  0  0
  5  6  2  0  0  0  0
  6 21  1  0  0  0  0
  7  3  1  0  0  0  0
  8  4  1  0  0  0  0
 10 11  2  0  0  0  0
 10 15  1  0  0  0  0
 11 12  1  0  0  0  0
 12  2  1  0  0  0  0
 12 13  2  0  0  0  0
 14 13  1  0  0  0  0
 14 18  1  0  0  0  0
 15 14  2  0  0  0  0
 16 10  1  0  0  0  0
 17 11  1  0  0  0  0
 19 20  1  0  0  0  0
 21 22  1  0  0  0  0
 22 23  1  0  0  0  0
 23 24  1  0  0  0  0
 25 23  2  0  0  0  0
 26 25  1  0  0  0  0
 27 26  1  0  0  0  0
 28 30  1  0  0  0  0
 28 26  2  0  0  0  0
 29 28  1  0  0  0  0
 30 22  2  0  0  0  0
M  END
>  <minimizedAffinity>
-5.79852962

$$$$

 OpenBabel03242513283D

 30 32  0  0  0  0  0  0  0  0999 V2000
   38.1330   27.7070   41.1780 C   0  0  0  0  0  0  0  0  0  0  0  0
   37.4110   26.7090   41.7910 C   0  0  0  0  0  0  0  0  0  0  0  0
   36.9300   26.9670   43.0440 C   0  0  0  0  0  0  0  0  0  0  0  0
   37.1530   28.1800   43.6770 C   0  0  0  0  0  0  0  0  0  0  0  0
   37.8710   29.1570   43.0550 C   0  0  0  0  0  0  0  0  0  0  0  0
   38.3820   28.9400   41.7770 C   0  0  0  0  0  0  0  0  0  0  0  0
   36.3620   26.1730   43.5180 H   0  0  0  0  0  0  0  0  0  0  0  0
   36.7200   28.2580   44.6650 H   0  0  0  0  0  0  0  0  0  0  0  0
   38.0370   30.0910   43.5560 H   0  0  0  0  0  0  0  0  0  0  0  0
   37.5460   23.0860   40.7820 C   0  0  0  0  0  0  0  0  0  0  0  0
   37.7620   24.2750   41.5110 C   0  0  0  0  0  0  0  0  0  0  0  0
   37.2140   25.4670   41.0730 C   0  0  0  0  0  0  0  0  0  0  0  0
   36.4820   25.4040   39.9280 N   0  0  0  0  0  0  0  0  0  0  0  0
   36.2770   24.2730   39.2320 C   0  0  0  0  0  0  0  0  0  0  0  0
   36.8090   23.1140   39.6600 N   0  0  0  0  0  0  0  0  0  0  0  0
   37.9750   22.1530   41.1270 H   0  0  0  0  0  0  0  0  0  0  0  0
   38.3470   24.2590   42.4050 H   0  0  0  0  0  0  0  0  0  0  0  0
   35.6730   24.4160   38.3540 H   0  0  0  0  0  0  0  0  0  0  0  0
   38.6420   27.4930   39.9100 O   0  0  0  0  0  0  0  0  0  0  0  0
   37.9720   27.4270   39.1500 H   0  0  0  0  0  0  0  0  0  0  0  0
   39.1080   29.8940   41.1160 O   0  0  0  0  0  0  0  0  0  0  0  0
   38.7220   31.1410   40.7520 C   0  0  0  0  0  0  0  0  0  0  0  0
   39.1730   32.3980   41.1080 C   0  0  0  0  0  0  0  0  0  0  0  0
   39.9910   32.3470   41.8090 H   0  0  0  0  0  0  0  0  0  0  0  0
   38.6210   33.5330   40.6060 C   0  0  0  0  0  3  0  0  0  0  0  0
   37.5710   33.4880   39.7040 C   0  0  0  0  0  0  0  0  0  0  0  0
   37.1750   34.4230   39.3400 H   0  0  0  0  0  0  0  0  0  0  0  0
   37.0830   32.2550   39.3160 C   0  0  0  0  0  0  0  0  0  0  0  0
   36.2700   32.2400   38.6190 H   0  0  0  0  0  0  0  0  0  0  0  0
   37.6580   31.0920   39.8380 C   0  0  0  0  0  3  0  0  0  0  0  0
  1  6  2  0  0  0  0
  1  2  1  0  0  0  0
  2  3  2  0  0  0  0
  3  7  1  0  0  0  0
  3  4  1  0  0  0  0
  4  8  1  0  0  0  0
  5  9  1  0  0  0  0
  5  4  2  0  0  0  0
  6  5  1  0  0  0  0
 10 16  1  0  0  0  0
 10 11  1  0  0  0  0
 11 17  1  0  0  0  0
 12 11  2  0  0  0  0
 12  2  1  0  0  0  0
 13 12  1  0  0  0  0
 14 15  1  0  0  0  0
 14 13  2  0  0  0  0
 15 10  2  0  0  0  0
 18 14  1  0  0  0  0
 19  1  1  0  0  0  0
 20 19  1  0  0  0  0
 21  6  1  0  0  0  0
 22 23  1  0  0  0  0
 22 21  1  0  0  0  0
 23 24  1  0  0  0  0
 25 23  2  0  0  0  0
 26 25  1  0  0  0  0
 27 26  1  0  0  0  0
 28 26  2  0  0  0  0
 28 30  1  0  0  0  0
 29 28  1  0  0  0  0
 30 22  2  0  0  0  0
M  END
>  <minimizedAffinity>
-5.48222923

$$$$

 OpenBabel03242513283D

 30 32  0  0  0  0  0  0  0  0999 V2000
   36.2460   28.6560   39.9380 C   0  0  0  0  0  0  0  0  0  0  0  0
   36.2270   29.7430   39.0960 C   0  0  0  0  0  0  0  0  0  0  0  0
   36.5690   30.9530   39.6320 C   0  0  0  0  0  0  0  0  0  0  0  0
   36.9210   31.0880   40.9660 C   0  0  0  0  0  0  0  0  0  0  0  0
   36.9330   30.0000   41.7860 C   0  0  0  0  0  0  0  0  0  0  0  0
   36.5930   28.7460   41.2850 C   0  0  0  0  0  0  0  0  0  0  0  0
   36.5500   31.8030   38.9580 H   0  0  0  0  0  0  0  0  0  0  0  0
   37.1690   32.0980   41.2650 H   0  0  0  0  0  0  0  0  0  0  0  0
   37.2070   30.1180   42.8160 H   0  0  0  0  0  0  0  0  0  0  0  0
   36.3290   29.5330   35.3400 C   0  0  0  0  0  0  0  0  0  0  0  0
   36.7350   29.7520   36.6730 C   0  0  0  0  0  0  0  0  0  0  0  0
   35.8510   29.5310   37.7140 C   0  0  0  0  0  0  0  0  0  0  0  0
   34.6060   29.1060   37.3620 N   0  0  0  0  0  0  0  0  0  0  0  0
   34.2180   28.8990   36.0920 C   0  0  0  0  0  0  0  0  0  0  0  0
   35.0800   29.1130   35.0810 N   0  0  0  0  0  0  0  0  0  0  0  0
   37.0220   29.7050   34.5260 H   0  0  0  0  0  0  0  0  0  0  0  0
   37.7270   30.0850   36.8850 H   0  0  0  0  0  0  0  0  0  0  0  0
   33.2000   28.5630   36.0080 H   0  0  0  0  0  0  0  0  0  0  0  0
   35.9070   27.4090   39.4430 O   0  0  0  0  0  0  0  0  0  0  0  0
   36.5510   26.9860   38.7830 H   0  0  0  0  0  0  0  0  0  0  0  0
   36.5920   27.6260   42.0730 O   0  0  0  0  0  0  0  0  0  0  0  0
   37.6550   26.9190   42.5280 C   0  0  0  0  0  0  0  0  0  0  0  0
   38.7120   27.2500   43.3540 C   0  0  0  0  0  0  0  0  0  0  0  0
   38.6540   28.2750   43.6870 H   0  0  0  0  0  0  0  0  0  0  0  0
   39.6830   26.3580   43.6800 C   0  0  0  0  0  3  0  0  0  0  0  0
   39.6610   25.0600   43.1980 C   0  0  0  0  0  0  0  0  0  0  0  0
   40.4610   24.3970   43.4920 H   0  0  0  0  0  0  0  0  0  0  0  0
   38.6250   24.6780   42.3680 C   0  0  0  0  0  0  0  0  0  0  0  0
   38.6270   23.6700   42.0040 H   0  0  0  0  0  0  0  0  0  0  0  0
   37.6300   25.6040   42.0380 C   0  0  0  0  0  3  0  0  0  0  0  0
  1  6  1  0  0  0  0
  2  3  1  0  0  0  0
  2  1  2  0  0  0  0
  3  4  2  0  0  0  0
  4  8  1  0  0  0  0
  4  5  1  0  0  0  0
  5  9  1  0  0  0  0
  6  5  2  0  0  0  0
  6 21  1  0  0  0  0
  7  3  1  0  0  0  0
 10 11  1  0  0  0  0
 11 17  1  0  0  0  0
 11 12  2  0  0  0  0
 12  2  1  0  0  0  0
 13 12  1  0  0  0  0
 14 13  2  0  0  0  0
 15 10  2  0  0  0  0
 15 14  1  0  0  0  0
 16 10  1  0  0  0  0
 18 14  1  0  0  0  0
 19  1  1  0  0  0  0
 20 19  1  0  0  0  0
 21 22  1  0  0  0  0
 22 23  1  0  0  0  0
 23 25  2  0  0  0  0
 23 24  1  0  0  0  0
 26 27  1  0  0  0  0
 26 25  1  0  0  0  0
 28 26  2  0  0  0  0
 29 28  1  0  0  0  0
 30 28  1  0  0  0  0
 30 22  2  0  0  0  0
M  END
>  <minimizedAffinity>
-5.31664419

$$$$

 OpenBabel03242513283D

 30 32  0  0  0  0  0  0  0  0999 V2000
   39.3960   31.5070   39.6300 C   0  0  0  0  0  0  0  0  0  0  0  0
   39.6260   32.8470   39.4230 C   0  0  0  0  0  0  0  0  0  0  0  0
   38.5660   33.6940   39.5800 C   0  0  0  0  0  0  0  0  0  0  0  0
   37.3080   33.2320   39.9340 C   0  0  0  0  0  0  0  0  0  0  0  0
   37.0970   31.9010   40.1340 C   0  0  0  0  0  0  0  0  0  0  0  0
   38.1480   30.9990   39.9860 C   0  0  0  0  0  0  0  0  0  0  0  0
   38.7600   34.7490   39.4140 H   0  0  0  0  0  0  0  0  0  0  0  0
   36.5550   34.0040   40.0260 H   0  0  0  0  0  0  0  0  0  0  0  0
   36.1180   31.5560   40.4080 H   0  0  0  0  0  0  0  0  0  0  0  0
   43.1580   34.1360   39.5930 C   0  0  0  0  0  0  0  0  0  0  0  0
   41.8630   33.7420   39.9920 C   0  0  0  0  0  0  0  0  0  0  0  0
   40.9650   33.2610   39.0560 C   0  0  0  0  0  0  0  0  0  0  0  0
   41.4110   33.2030   37.7720 N   0  0  0  0  0  0  0  0  0  0  0  0
   42.6440   33.5790   37.3910 C   0  0  0  0  0  0  0  0  0  0  0  0
   43.5170   34.0450   38.3020 N   0  0  0  0  0  0  0  0  0  0  0  0
   43.8610   34.5110   40.3260 H   0  0  0  0  0  0  0  0  0  0  0  0
   41.5720   33.8110   41.0170 H   0  0  0  0  0  0  0  0  0  0  0  0
   42.8180   33.4620   36.3360 H   0  0  0  0  0  0  0  0  0  0  0  0
   40.4370   30.6090   39.4820 O   0  0  0  0  0  0  0  0  0  0  0  0
   41.1820   30.6490   40.1710 H   0  0  0  0  0  0  0  0  0  0  0  0
   37.9800   29.6530   40.1780 O   0  0  0  0  0  0  0  0  0  0  0  0
   37.7130   28.9970   41.3340 C   0  0  0  0  0  0  0  0  0  0  0  0
   37.8210   29.3640   42.6620 C   0  0  0  0  0  0  0  0  0  0  0  0
   38.1900   30.3720   42.7700 H   0  0  0  0  0  0  0  0  0  0  0  0
   37.4900   28.5220   43.6740 C   0  0  0  0  0  3  0  0  0  0  0  0
   37.0210   27.2430   43.4250 C   0  0  0  0  0  0  0  0  0  0  0  0
   36.7740   26.6200   44.2710 H   0  0  0  0  0  0  0  0  0  0  0  0
   36.8940   26.8270   42.1130 C   0  0  0  0  0  0  0  0  0  0  0  0
   36.5310   25.8330   41.9410 H   0  0  0  0  0  0  0  0  0  0  0  0
   37.2390   27.7010   41.0770 C   0  0  0  0  0  3  0  0  0  0  0  0
  1  6  1  0  0  0  0
  2  3  1  0  0  0  0
  2  1  2  0  0  0  0
  3  4  2  0  0  0  0
  4  8  1  0  0  0  0
  4  5  1  0  0  0  0
  5  9  1  0  0  0  0
  6  5  2  0  0  0  0
  6 21  1  0  0  0  0
  7  3  1  0  0  0  0
 10 11  1  0  0  0  0
 10 16  1  0  0  0  0
 11 17  1  0  0  0  0
 12  2  1  0  0  0  0
 12 11  2  0  0  0  0
 13 12  1  0  0  0  0
 14 13  2  0  0  0  0
 14 15  1  0  0  0  0
 15 10  2  0  0  0  0
 18 14  1  0  0  0  0
 19  1  1  0  0  0  0
 19 20  1  0  0  0  0
 21 22  1  0  0  0  0
 22 23  1  0  0  0  0
 23 24  1  0  0  0  0
 23 25  2  0  0  0  0
 26 25  1  0  0  0  0
 26 27  1  0  0  0  0
 28 26  2  0  0  0  0
 29 28  1  0  0  0  0
 30 22  2  0  0  0  0
 30 28  1  0  0  0  0
M  END
>  <minimizedAffinity>
-5.27628946

$$$$

 OpenBabel03242513283D

 30 32  0  0  0  0  0  0  0  0999 V2000
   36.6660   29.9840   39.6370 C   0  0  0  0  0  0  0  0  0  0  0  0
   36.7160   30.5230   38.3730 C   0  0  0  0  0  0  0  0  0  0  0  0
   37.1580   31.8110   38.2610 C   0  0  0  0  0  0  0  0  0  0  0  0
   37.5420   32.5510   39.3690 C   0  0  0  0  0  0  0  0  0  0  0  0
   37.4840   32.0010   40.6140 C   0  0  0  0  0  0  0  0  0  0  0  0
   37.0410   30.6920   40.7780 C   0  0  0  0  0  0  0  0  0  0  0  0
   37.1930   32.2260   37.2580 H   0  0  0  0  0  0  0  0  0  0  0  0
   37.8710   33.5570   39.1450 H   0  0  0  0  0  0  0  0  0  0  0  0
   37.7840   32.5850   41.4630 H   0  0  0  0  0  0  0  0  0  0  0  0
   36.7260   28.5480   35.1690 C   0  0  0  0  0  0  0  0  0  0  0  0
   37.1700   29.3570   36.2360 C   0  0  0  0  0  0  0  0  0  0  0  0
   36.3020   29.6950   37.2600 C   0  0  0  0  0  0  0  0  0  0  0  0
   35.0360   29.2050   37.1570 N   0  0  0  0  0  0  0  0  0  0  0  0
   34.6120   28.4350   36.1400 C   0  0  0  0  0  0  0  0  0  0  0  0
   35.4580   28.1060   35.1470 N   0  0  0  0  0  0  0  0  0  0  0  0
   37.4060   28.2830   34.3700 H   0  0  0  0  0  0  0  0  0  0  0  0
   38.1770   29.7110   36.2610 H   0  0  0  0  0  0  0  0  0  0  0  0
   33.5810   28.1410   36.2290 H   0  0  0  0  0  0  0  0  0  0  0  0
   36.2250   28.6840   39.8030 O   0  0  0  0  0  0  0  0  0  0  0  0
   36.8230   27.9460   39.4460 H   0  0  0  0  0  0  0  0  0  0  0  0
   36.9670   30.1000   42.0110 O   0  0  0  0  0  0  0  0  0  0  0  0
   37.7850   29.1580   42.5400 C   0  0  0  0  0  0  0  0  0  0  0  0
   37.5360   27.9880   43.2330 C   0  0  0  0  0  0  0  0  0  0  0  0
   36.4790   27.8170   43.3620 H   0  0  0  0  0  0  0  0  0  0  0  0
   38.5360   27.1840   43.6770 C   0  0  0  0  0  3  0  0  0  0  0  0
   39.8660   27.4960   43.4550 C   0  0  0  0  0  0  0  0  0  0  0  0
   40.6160   26.8170   43.8330 H   0  0  0  0  0  0  0  0  0  0  0  0
   40.1700   28.6550   42.7670 C   0  0  0  0  0  0  0  0  0  0  0  0
   41.2050   28.8800   42.6070 H   0  0  0  0  0  0  0  0  0  0  0  0
   39.1330   29.4780   42.3140 C   0  0  0  0  0  3  0  0  0  0  0  0
  1 19  1  0  0  0  0
  1  6  1  0  0  0  0
  2  1  2  0  0  0  0
  3  2  1  0  0  0  0
  3  4  2  0  0  0  0
  4  5  1  0  0  0  0
  5  6  2  0  0  0  0
  5  9  1  0  0  0  0
  6 21  1  0  0  0  0
  7  3  1  0  0  0  0
  8  4  1  0  0  0  0
 10 11  1  0  0  0  0
 11 17  1  0  0  0  0
 11 12  2  0  0  0  0
 12  2  1  0  0  0  0
 13 12  1  0  0  0  0
 14 18  1  0  0  0  0
 14 13  2  0  0  0  0
 15 10  2  0  0  0  0
 15 14  1  0  0  0  0
 16 10  1  0  0  0  0
 20 19  1  0  0  0  0
 21 22  1  0  0  0  0
 22 23  1  0  0  0  0
 23 24  1  0  0  0  0
 23 25  2  0  0  0  0
 26 25  1  0  0  0  0
 26 27  1  0  0  0  0
 28 26  2  0  0  0  0
 29 28  1  0  0  0  0
 30 22  2  0  0  0  0
 30 28  1  0  0  0  0
M  END
>  <minimizedAffinity>
-5.21547508

$$$$

 OpenBabel03242513283D

 30 32  0  0  0  0  0  0  0  0999 V2000
   38.7560   30.1560   40.4580 C   0  0  0  0  0  0  0  0  0  0  0  0
   38.4350   31.4200   40.0210 C   0  0  0  0  0  0  0  0  0  0  0  0
   37.1520   31.8430   40.2250 C   0  0  0  0  0  0  0  0  0  0  0  0
   36.2070   31.0410   40.8470 C   0  0  0  0  0  0  0  0  0  0  0  0
   36.5440   29.7910   41.2730 C   0  0  0  0  0  0  0  0  0  0  0  0
   37.8390   29.3160   41.0870 C   0  0  0  0  0  0  0  0  0  0  0  0
   36.9100   32.8420   39.8760 H   0  0  0  0  0  0  0  0  0  0  0  0
   35.2300   31.4930   40.9480 H   0  0  0  0  0  0  0  0  0  0  0  0
   35.8030   29.1800   41.7530 H   0  0  0  0  0  0  0  0  0  0  0  0
   40.9380   34.1280   39.2670 C   0  0  0  0  0  0  0  0  0  0  0  0
   39.9280   33.3920   39.9240 C   0  0  0  0  0  0  0  0  0  0  0  0
   39.4690   32.2050   39.3800 C   0  0  0  0  0  0  0  0  0  0  0  0
   40.0450   31.8210   38.2080 N   0  0  0  0  0  0  0  0  0  0  0  0
   41.0060   32.5220   37.5820 C   0  0  0  0  0  0  0  0  0  0  0  0
   41.4520   33.6750   38.1120 N   0  0  0  0  0  0  0  0  0  0  0  0
   41.2960   35.0560   39.6940 H   0  0  0  0  0  0  0  0  0  0  0  0
   39.5150   33.7460   40.8420 H   0  0  0  0  0  0  0  0  0  0  0  0
   41.3410   32.0640   36.6690 H   0  0  0  0  0  0  0  0  0  0  0  0
   40.0420   29.6820   40.2730 O   0  0  0  0  0  0  0  0  0  0  0  0
   40.7780   30.1230   40.8160 H   0  0  0  0  0  0  0  0  0  0  0  0
   38.2190   28.0670   41.5000 O   0  0  0  0  0  0  0  0  0  0  0  0
   37.6750   26.8710   41.1670 C   0  0  0  0  0  0  0  0  0  0  0  0
   37.2650   26.3360   39.9600 C   0  0  0  0  0  0  0  0  0  0  0  0
   37.4200   27.0240   39.1440 H   0  0  0  0  0  0  0  0  0  0  0  0
   36.7360   25.0890   39.8640 C   0  0  0  0  0  3  0  0  0  0  0  0
   36.5810   24.2830   40.9790 C   0  0  0  0  0  0  0  0  0  0  0  0
   36.1540   23.3010   40.8400 H   0  0  0  0  0  0  0  0  0  0  0  0
   36.9760   24.7710   42.2100 C   0  0  0  0  0  0  0  0  0  0  0  0
   36.8470   24.1330   43.0610 H   0  0  0  0  0  0  0  0  0  0  0  0
   37.5190   26.0560   42.2990 C   0  0  0  0  0  3  0  0  0  0  0  0
  1  6  1  0  0  0  0
  2  3  1  0  0  0  0
  2  1  2  0  0  0  0
  3  4  2  0  0  0  0
  4  8  1  0  0  0  0
  4  5  1  0  0  0  0
  5  9  1  0  0  0  0
  6  5  2  0  0  0  0
  6 21  1  0  0  0  0
  7  3  1  0  0  0  0
 10 16  1  0  0  0  0
 10 11  1  0  0  0  0
 11 17  1  0  0  0  0
 12 11  2  0  0  0  0
 12  2  1  0  0  0  0
 13 12  1  0  0  0  0
 14 15  1  0  0  0  0
 14 13  2  0  0  0  0
 15 10  2  0  0  0  0
 18 14  1  0  0  0  0
 19  1  1  0  0  0  0
 19 20  1  0  0  0  0
 22 21  1  0  0  0  0
 22 30  1  0  0  0  0
 23 22  2  0  0  0  0
 24 23  1  0  0  0  0
 25 23  1  0  0  0  0
 25 26  2  0  0  0  0
 26 28  1  0  0  0  0
 27 26  1  0  0  0  0
 28 30  2  0  0  0  0
 28 29  1  0  0  0  0
M  END
>  <minimizedAffinity>
-5.19731426

$$$$

 OpenBabel03242513283D

 30 32  0  0  0  0  0  0  0  0999 V2000
   37.3880   28.4160   41.0080 C   0  0  0  0  0  0  0  0  0  0  0  0
   37.7100   29.4330   41.8760 C   0  0  0  0  0  0  0  0  0  0  0  0
   37.7020   29.1400   43.2110 C   0  0  0  0  0  0  0  0  0  0  0  0
   37.3860   27.8730   43.6790 C   0  0  0  0  0  0  0  0  0  0  0  0
   37.0700   26.8780   42.8040 C   0  0  0  0  0  0  0  0  0  0  0  0
   37.0640   27.1290   41.4340 C   0  0  0  0  0  0  0  0  0  0  0  0
   37.9580   29.9500   43.8860 H   0  0  0  0  0  0  0  0  0  0  0  0
   37.4160   27.7720   44.7560 H   0  0  0  0  0  0  0  0  0  0  0  0
   36.8270   25.9030   43.1790 H   0  0  0  0  0  0  0  0  0  0  0  0
   39.5380   32.5910   40.9540 C   0  0  0  0  0  0  0  0  0  0  0  0
   39.2660   31.3240   41.5130 C   0  0  0  0  0  0  0  0  0  0  0  0
   38.0300   30.7310   41.3200 C   0  0  0  0  0  0  0  0  0  0  0  0
   37.1350   31.4400   40.5800 N   0  0  0  0  0  0  0  0  0  0  0  0
   37.3930   32.6480   40.0490 C   0  0  0  0  0  0  0  0  0  0  0  0
   38.5950   33.2220   40.2360 N   0  0  0  0  0  0  0  0  0  0  0  0
   40.5060   33.0530   41.1040 H   0  0  0  0  0  0  0  0  0  0  0  0
   40.0110   30.8170   42.0840 H   0  0  0  0  0  0  0  0  0  0  0  0
   36.5660   33.0550   39.4950 H   0  0  0  0  0  0  0  0  0  0  0  0
   37.3810   28.6640   39.6470 O   0  0  0  0  0  0  0  0  0  0  0  0
   38.2780   28.8390   39.2060 H   0  0  0  0  0  0  0  0  0  0  0  0
   36.7520   26.1590   40.5210 O   0  0  0  0  0  0  0  0  0  0  0  0
   37.4960   25.0900   40.1430 C   0  0  0  0  0  0  0  0  0  0  0  0
   38.7280   24.9820   39.5280 C   0  0  0  0  0  0  0  0  0  0  0  0
   39.1590   25.9500   39.3210 H   0  0  0  0  0  0  0  0  0  0  0  0
   39.2900   23.7800   39.2400 C   0  0  0  0  0  3  0  0  0  0  0  0
   38.6520   22.5920   39.5520 C   0  0  0  0  0  0  0  0  0  0  0  0
   39.1480   21.6670   39.2990 H   0  0  0  0  0  0  0  0  0  0  0  0
   37.4160   22.6440   40.1690 C   0  0  0  0  0  0  0  0  0  0  0  0
   36.9380   21.7150   40.4020 H   0  0  0  0  0  0  0  0  0  0  0  0
   36.8460   23.8870   40.4610 C   0  0  0  0  0  3  0  0  0  0  0  0
  1  6  2  0  0  0  0
  1  2  1  0  0  0  0
  2  3  2  0  0  0  0
  3  4  1  0  0  0  0
  3  7  1  0  0  0  0
  4  8  1  0  0  0  0
  5  9  1  0  0  0  0
  5  4  2  0  0  0  0
  6  5  1  0  0  0  0
 10 16  1  0  0  0  0
 10 11  1  0  0  0  0
 11 17  1  0  0  0  0
 12 11  2  0  0  0  0
 12  2  1  0  0  0  0
 13 12  1  0  0  0  0
 14 15  1  0  0  0  0
 14 13  2  0  0  0  0
 15 10  2  0  0  0  0
 18 14  1  0  0  0  0
 19  1  1  0  0  0  0
 20 19  1  0  0  0  0
 21  6  1  0  0  0  0
 22 30  1  0  0  0  0
 22 21  1  0  0  0  0
 23 22  2  0  0  0  0
 24 23  1  0  0  0  0
 25 23  1  0  0  0  0
 25 26  2  0  0  0  0
 26 28  1  0  0  0  0
 27 26  1  0  0  0  0
 28 29  1  0  0  0  0
 28 30  2  0  0  0  0
M  END
>  <minimizedAffinity>
-5.10226774

$$$$

 OpenBabel03242513283D

 30 32  0  0  0  0  0  0  0  0999 V2000
   39.0180   31.5250   41.1360 C   0  0  0  0  0  0  0  0  0  0  0  0
   37.8140   30.8730   41.0070 C   0  0  0  0  0  0  0  0  0  0  0  0
   36.8350   31.5070   40.2950 C   0  0  0  0  0  0  0  0  0  0  0  0
   37.0380   32.7540   39.7220 C   0  0  0  0  0  0  0  0  0  0  0  0
   38.2380   33.3850   39.8620 C   0  0  0  0  0  0  0  0  0  0  0  0
   39.2660   32.7780   40.5780 C   0  0  0  0  0  0  0  0  0  0  0  0
   35.8890   30.9830   40.1990 H   0  0  0  0  0  0  0  0  0  0  0  0
   36.1850   33.1460   39.1860 H   0  0  0  0  0  0  0  0  0  0  0  0
   38.3820   34.3490   39.4140 H   0  0  0  0  0  0  0  0  0  0  0  0
   37.2360   27.1930   41.5380 C   0  0  0  0  0  0  0  0  0  0  0  0
   37.3680   28.4410   40.8940 C   0  0  0  0  0  0  0  0  0  0  0  0
   37.6690   29.5740   41.6290 C   0  0  0  0  0  0  0  0  0  0  0  0
   37.8190   29.3950   42.9700 N   0  0  0  0  0  0  0  0  0  0  0  0
   37.6920   28.2060   43.5850 C   0  0  0  0  0  0  0  0  0  0  0  0
   37.4010   27.1060   42.8680 N   0  0  0  0  0  0  0  0  0  0  0  0
   37.0010   26.3070   40.9620 H   0  0  0  0  0  0  0  0  0  0  0  0
   37.2390   28.5170   39.8360 H   0  0  0  0  0  0  0  0  0  0  0  0
   37.8460   28.2580   44.6480 H   0  0  0  0  0  0  0  0  0  0  0  0
   40.0400   30.9250   41.8480 O   0  0  0  0  0  0  0  0  0  0  0  0
   40.4630   30.0970   41.4400 H   0  0  0  0  0  0  0  0  0  0  0  0
   40.4860   33.3770   40.7430 O   0  0  0  0  0  0  0  0  0  0  0  0
   41.4350   33.6200   39.8050 C   0  0  0  0  0  0  0  0  0  0  0  0
   41.3640   33.8540   38.4450 C   0  0  0  0  0  0  0  0  0  0  0  0
   40.3460   33.8350   38.0880 H   0  0  0  0  0  0  0  0  0  0  0  0
   42.4720   34.0780   37.6910 C   0  0  0  0  0  3  0  0  0  0  0  0
   43.7370   34.0830   38.2520 C   0  0  0  0  0  0  0  0  0  0  0  0
   44.5790   34.2670   37.6020 H   0  0  0  0  0  0  0  0  0  0  0  0
   43.8630   33.8550   39.6090 C   0  0  0  0  0  0  0  0  0  0  0  0
   44.8510   33.8620   40.0240 H   0  0  0  0  0  0  0  0  0  0  0  0
   42.7170   33.6250   40.3770 C   0  0  0  0  0  3  0  0  0  0  0  0
  1 19  1  0  0  0  0
  2  1  1  0  0  0  0
  2 12  1  0  0  0  0
  3  2  2  0  0  0  0
  4  5  2  0  0  0  0
  4  3  1  0  0  0  0
  5  6  1  0  0  0  0
  6 21  1  0  0  0  0
  6  1  2  0  0  0  0
  7  3  1  0  0  0  0
  8  4  1  0  0  0  0
  9  5  1  0  0  0  0
 10 15  1  0  0  0  0
 11 10  2  0  0  0  0
 11 12  1  0  0  0  0
 12 13  2  0  0  0  0
 13 14  1  0  0  0  0
 14 18  1  0  0  0  0
 15 14  2  0  0  0  0
 16 10  1  0  0  0  0
 17 11  1  0  0  0  0
 20 19  1  0  0  0  0
 22 30  1  0  0  0  0
 22 21  1  0  0  0  0
 23 22  2  0  0  0  0
 24 23  1  0  0  0  0
 25 26  2  0  0  0  0
 25 23  1  0  0  0  0
 26 28  1  0  0  0  0
 27 26  1  0  0  0  0
 28 29  1  0  0  0  0
 28 30  2  0  0  0  0
M  END
>  <minimizedAffinity>
-5.09489393

$$$$
