
 OpenBabel03242518083D

 35 37  0  0  1  0  0  0  0  0999 V2000
   46.5110   34.9000   42.1930 N   0  0  0  0  0  0  0  0  0  0  0  0
   47.8240   35.4720   42.0440 C   0  0  0  0  0  0  0  0  0  0  0  0
   48.7360   34.5540   41.3470 C   0  0  0  0  0  0  0  0  0  0  0  0
   48.1250   33.4950   40.5190 C   0  0  0  0  0  0  0  0  0  0  0  0
   46.7210   33.6610   40.0970 C   0  0  0  0  0  0  0  0  0  0  0  0
   45.8420   34.4920   41.0070 C   0  0  1  0  0  0  0  0  0  0  0  0
   48.2030   35.8380   43.0200 H   0  0  0  0  0  0  0  0  0  0  0  0
   47.6850   36.4020   41.4200 H   0  0  0  0  0  0  0  0  0  0  0  0
   49.4240   35.1650   40.6920 H   0  0  0  0  0  0  0  0  0  0  0  0
   49.4410   34.1360   42.1140 H   0  0  0  0  0  0  0  0  0  0  0  0
   48.2280   32.5390   41.0820 H   0  0  0  0  0  0  0  0  0  0  0  0
   48.7480   33.3160   39.5930 H   0  0  0  0  0  0  0  0  0  0  0  0
   46.2310   32.6420   40.0500 H   0  0  0  0  0  0  0  0  0  0  0  0
   46.6750   34.0120   39.0460 H   0  0  0  0  0  0  0  0  0  0  0  0
   45.6730   35.4540   40.4320 H   0  0  0  0  0  0  0  0  0  0  0  0
   45.1020   35.8390   43.9250 C   0  0  0  0  0  0  0  0  0  0  0  0
   45.9450   34.7850   43.4710 C   0  0  0  0  0  0  0  0  0  0  0  0
   46.1500   33.7050   44.3270 C   0  0  0  0  0  0  0  0  0  0  0  0
   45.5310   33.7350   45.5310 N   0  0  0  0  0  0  0  0  0  0  0  0
   44.7460   34.7350   45.9330 C   0  0  0  0  0  0  0  0  0  0  0  0
   44.5190   35.8060   45.1310 N   0  0  0  0  0  0  0  0  0  0  0  0
   44.8730   36.9650   43.0740 N   0  0  0  0  0  0  0  0  0  0  0  0
   46.7920   32.9050   43.9810 H   0  0  0  0  0  0  0  0  0  0  0  0
   44.3080   34.6480   46.9110 H   0  0  0  0  0  0  0  0  0  0  0  0
   43.8790   37.2720   42.9390 H   0  0  0  0  0  0  0  0  0  0  0  0
   45.7780   37.3310   42.6960 H   0  0  0  0  0  0  0  0  0  0  0  0
   44.5050   33.8860   41.1680 C   0  0  0  0  0  0  0  0  0  0  0  0
   44.1960   32.6130   41.5850 C   0  0  0  0  0  0  0  0  0  0  0  0
   45.0080   31.9430   41.8000 H   0  0  0  0  0  0  0  0  0  0  0  0
   42.9230   32.1090   41.7340 C   0  0  0  0  0  0  0  0  0  0  0  0
   41.8450   32.9210   41.4510 C   0  0  0  0  0  0  0  0  0  0  0  0
   40.8680   32.4860   41.5810 H   0  0  0  0  0  0  0  0  0  0  0  0
   42.0540   34.1970   41.0310 C   0  0  0  0  0  0  0  0  0  0  0  0
   41.2240   34.8500   40.8020 H   0  0  0  0  0  0  0  0  0  0  0  0
   43.3380   34.6220   40.9080 C   0  0  0  0  0  0  0  0  0  0  0  0
  1 17  1  0  0  0  0
  2  1  1  0  0  0  0
  2  7  1  0  0  0  0
  3  2  1  0  0  0  0
  3 10  1  0  0  0  0
  4 11  1  0  0  0  0
  4  3  1  0  0  0  0
  5  4  1  0  0  0  0
  5  6  1  0  0  0  0
  6 15  1  6  0  0  0
  6 27  1  0  0  0  0
  6  1  1  0  0  0  0
  8  2  1  0  0  0  0
  9  3  1  0  0  0  0
 12  4  1  0  0  0  0
 13  5  1  0  0  0  0
 14  5  1  0  0  0  0
 16 21  1  0  0  0  0
 17 16  2  0  0  0  0
 17 18  1  0  0  0  0
 18 19  2  0  0  0  0
 19 20  1  0  0  0  0
 20 24  1  0  0  0  0
 21 20  2  0  0  0  0
 22 16  1  0  0  0  0
 23 18  1  0  0  0  0
 25 22  1  0  0  0  0
 26 22  1  0  0  0  0
 27 28  1  0  0  0  0
 28 30  2  0  0  0  0
 28 29  1  0  0  0  0
 31 32  1  0  0  0  0
 31 30  1  0  0  0  0
 33 31  2  0  0  0  0
 34 33  1  0  0  0  0
 35 33  1  0  0  0  0
 35 27  2  0  0  0  0
M  END
>  <minimizedAffinity>
-5.35654259

>  <minimizedRMSD>
0.567404807

$$$$
