
 OpenBabel03242518083D

 35 37  0  0  1  0  0  0  0  0999 V2000
   36.4410   29.0600   39.3540 N   0  0  0  0  0  0  0  0  0  0  0  0
   35.5850   29.2960   38.2210 C   0  0  0  0  0  0  0  0  0  0  0  0
   35.6780   28.2070   37.2390 C   0  0  0  0  0  0  0  0  0  0  0  0
   36.1820   26.9050   37.7200 C   0  0  0  0  0  0  0  0  0  0  0  0
   36.1570   26.6400   39.1720 C   0  0  0  0  0  0  0  0  0  0  0  0
   36.2460   27.8510   40.0760 C   0  0  1  0  0  0  0  0  0  0  0  0
   35.7640   30.3070   37.8010 H   0  0  0  0  0  0  0  0  0  0  0  0
   34.5340   29.3360   38.6330 H   0  0  0  0  0  0  0  0  0  0  0  0
   34.6560   28.0470   36.7870 H   0  0  0  0  0  0  0  0  0  0  0  0
   36.2700   28.5920   36.3670 H   0  0  0  0  0  0  0  0  0  0  0  0
   37.2260   26.8000   37.3470 H   0  0  0  0  0  0  0  0  0  0  0  0
   35.6380   26.0610   37.2030 H   0  0  0  0  0  0  0  0  0  0  0  0
   37.0470   25.9950   39.4400 H   0  0  0  0  0  0  0  0  0  0  0  0
   35.2910   25.9960   39.4290 H   0  0  0  0  0  0  0  0  0  0  0  0
   35.2060   27.9490   40.5170 H   0  0  0  0  0  0  0  0  0  0  0  0
   37.0320   31.0180   40.6520 C   0  0  0  0  0  0  0  0  0  0  0  0
   37.4030   30.0180   39.7090 C   0  0  0  0  0  0  0  0  0  0  0  0
   38.7000   30.0540   39.2020 C   0  0  0  0  0  0  0  0  0  0  0  0
   39.5170   31.0390   39.6440 N   0  0  0  0  0  0  0  0  0  0  0  0
   39.1450   31.9650   40.5290 C   0  0  0  0  0  0  0  0  0  0  0  0
   37.8920   31.9680   41.0470 N   0  0  0  0  0  0  0  0  0  0  0  0
   35.7070   31.0140   41.1900 N   0  0  0  0  0  0  0  0  0  0  0  0
   38.9790   29.2930   38.4850 H   0  0  0  0  0  0  0  0  0  0  0  0
   39.8820   32.6990   40.8040 H   0  0  0  0  0  0  0  0  0  0  0  0
   35.6100   31.0970   42.2310 H   0  0  0  0  0  0  0  0  0  0  0  0
   34.9990   30.9260   40.4230 H   0  0  0  0  0  0  0  0  0  0  0  0
   37.1410   27.6040   41.2230 C   0  0  0  0  0  0  0  0  0  0  0  0
   38.4310   27.1290   41.2060 C   0  0  0  0  0  0  0  0  0  0  0  0
   38.8580   26.8670   40.2540 H   0  0  0  0  0  0  0  0  0  0  0  0
   39.2270   26.9370   42.3140 C   0  0  0  0  0  3  0  0  0  0  0  0
   38.7200   27.2360   43.5600 C   0  0  0  0  0  0  0  0  0  0  0  0
   39.3760   27.0710   44.3980 H   0  0  0  0  0  0  0  0  0  0  0  0
   37.4520   27.7120   43.6760 C   0  0  0  0  0  0  0  0  0  0  0  0
   37.0340   27.9520   44.6440 H   0  0  0  0  0  0  0  0  0  0  0  0
   36.7280   27.8750   42.5390 C   0  0  0  0  0  3  0  0  0  0  0  0
  1 17  1  0  0  0  0
  1  6  1  0  0  0  0
  2  8  1  0  0  0  0
  2  1  1  0  0  0  0
  3  4  1  0  0  0  0
  3  2  1  0  0  0  0
  4  5  1  0  0  0  0
  5 14  1  0  0  0  0
  5 13  1  0  0  0  0
  5  6  1  0  0  0  0
  6 15  1  1  0  0  0
  6 27  1  0  0  0  0
  7  2  1  0  0  0  0
  9  3  1  0  0  0  0
 10  3  1  0  0  0  0
 11  4  1  0  0  0  0
 12  4  1  0  0  0  0
 16 21  1  0  0  0  0
 16 22  1  0  0  0  0
 17 16  2  0  0  0  0
 18 19  2  0  0  0  0
 18 17  1  0  0  0  0
 19 20  1  0  0  0  0
 20 24  1  0  0  0  0
 20 21  2  0  0  0  0
 22 25  1  0  0  0  0
 23 18  1  0  0  0  0
 26 22  1  0  0  0  0
 27 35  1  0  0  0  0
 28 27  2  0  0  0  0
 28 30  1  0  0  0  0
 29 28  1  0  0  0  0
 30 31  2  0  0  0  0
 31 33  1  0  0  0  0
 31 32  1  0  0  0  0
 33 34  1  0  0  0  0
 35 33  2  0  0  0  0
M  END
>  <minimizedAffinity>
-5.47689295

$$$$

 OpenBabel03242518083D

 35 37  0  0  1  0  0  0  0  0999 V2000
   37.9640   29.4200   41.8340 N   0  0  0  0  0  0  0  0  0  0  0  0
   38.8250   29.8890   42.8890 C   0  0  0  0  0  0  0  0  0  0  0  0
   39.7250   30.9500   42.4190 C   0  0  0  0  0  0  0  0  0  0  0  0
   39.3270   31.6830   41.2000 C   0  0  0  0  0  0  0  0  0  0  0  0
   37.9130   31.6240   40.7820 C   0  0  0  0  0  0  0  0  0  0  0  0
   37.1450   30.3840   41.1860 C   0  0  1  0  0  0  0  0  0  0  0  0
   39.3380   29.0380   43.3800 H   0  0  0  0  0  0  0  0  0  0  0  0
   38.1380   30.3090   43.6810 H   0  0  0  0  0  0  0  0  0  0  0  0
   39.8630   31.6970   43.2540 H   0  0  0  0  0  0  0  0  0  0  0  0
   40.7500   30.5020   42.3240 H   0  0  0  0  0  0  0  0  0  0  0  0
   39.9710   31.3130   40.3700 H   0  0  0  0  0  0  0  0  0  0  0  0
   39.6190   32.7710   41.2870 H   0  0  0  0  0  0  0  0  0  0  0  0
   37.8660   31.6550   39.6510 H   0  0  0  0  0  0  0  0  0  0  0  0
   37.3850   32.5530   41.0810 H   0  0  0  0  0  0  0  0  0  0  0  0
   36.4370   30.7440   41.9950 H   0  0  0  0  0  0  0  0  0  0  0  0
   37.0940   27.1970   42.2470 C   0  0  0  0  0  0  0  0  0  0  0  0
   37.9520   28.0570   41.5030 C   0  0  0  0  0  0  0  0  0  0  0  0
   38.7210   27.4870   40.4900 C   0  0  0  0  0  0  0  0  0  0  0  0
   38.5970   26.1550   40.2860 N   0  0  0  0  0  0  0  0  0  0  0  0
   37.7860   25.3700   40.9970 C   0  0  0  0  0  0  0  0  0  0  0  0
   37.0200   25.8830   41.9920 N   0  0  0  0  0  0  0  0  0  0  0  0
   36.2940   27.7470   43.2960 N   0  0  0  0  0  0  0  0  0  0  0  0
   39.3720   28.1420   39.9260 H   0  0  0  0  0  0  0  0  0  0  0  0
   37.7730   24.3260   40.7430 H   0  0  0  0  0  0  0  0  0  0  0  0
   35.2760   27.4930   43.3100 H   0  0  0  0  0  0  0  0  0  0  0  0
   36.8760   28.3500   43.9250 H   0  0  0  0  0  0  0  0  0  0  0  0
   36.2810   29.9020   40.0910 C   0  0  0  0  0  0  0  0  0  0  0  0
   35.0260   29.3480   40.1830 C   0  0  0  0  0  0  0  0  0  0  0  0
   34.6080   29.2090   41.1640 H   0  0  0  0  0  0  0  0  0  0  0  0
   34.2560   28.9330   39.1190 C   0  0  0  0  0  3  0  0  0  0  0  0
   34.7550   29.0690   37.8400 C   0  0  0  0  0  0  0  0  0  0  0  0
   34.1200   28.7320   37.0380 H   0  0  0  0  0  0  0  0  0  0  0  0
   35.9890   29.6060   37.6510 C   0  0  0  0  0  0  0  0  0  0  0  0
   36.3990   29.7210   36.6580 H   0  0  0  0  0  0  0  0  0  0  0  0
   36.6880   29.9930   38.7500 C   0  0  0  0  0  3  0  0  0  0  0  0
  1  2  1  0  0  0  0
  2  7  1  0  0  0  0
  2  8  1  0  0  0  0
  3  2  1  0  0  0  0
  3  9  1  0  0  0  0
  4 12  1  0  0  0  0
  4  3  1  0  0  0  0
  5 14  1  0  0  0  0
  5  6  1  0  0  0  0
  5  4  1  0  0  0  0
  6  1  1  0  0  0  0
  6 15  1  1  0  0  0
 10  3  1  0  0  0  0
 11  4  1  0  0  0  0
 13  5  1  0  0  0  0
 16 22  1  0  0  0  0
 17  1  1  0  0  0  0
 17 16  2  0  0  0  0
 18 17  1  0  0  0  0
 19 18  2  0  0  0  0
 19 20  1  0  0  0  0
 20 21  2  0  0  0  0
 21 16  1  0  0  0  0
 22 25  1  0  0  0  0
 22 26  1  0  0  0  0
 23 18  1  0  0  0  0
 24 20  1  0  0  0  0
 27 28  1  0  0  0  0
 27  6  1  0  0  0  0
 28 29  1  0  0  0  0
 30 28  2  0  0  0  0
 31 30  1  0  0  0  0
 32 31  1  0  0  0  0
 33 31  2  0  0  0  0
 33 35  1  0  0  0  0
 34 33  1  0  0  0  0
 35 27  2  0  0  0  0
M  END
>  <minimizedAffinity>
-5.44264507

$$$$

 OpenBabel03242518083D

 35 37  0  0  1  0  0  0  0  0999 V2000
   38.2140   29.2080   41.4660 N   0  0  0  0  0  0  0  0  0  0  0  0
   38.5930   29.1520   42.8530 C   0  0  0  0  0  0  0  0  0  0  0  0
   37.5270   28.5680   43.6800 C   0  0  0  0  0  0  0  0  0  0  0  0
   36.5240   27.7290   42.9940 C   0  0  0  0  0  0  0  0  0  0  0  0
   36.8610   27.1840   41.6650 C   0  0  0  0  0  0  0  0  0  0  0  0
   37.8460   27.9860   40.8410 C   0  0  1  0  0  0  0  0  0  0  0  0
   38.9490   30.1430   43.2010 H   0  0  0  0  0  0  0  0  0  0  0  0
   39.5030   28.4850   42.8960 H   0  0  0  0  0  0  0  0  0  0  0  0
   38.0060   27.9530   44.4960 H   0  0  0  0  0  0  0  0  0  0  0  0
   37.0530   29.4060   44.2560 H   0  0  0  0  0  0  0  0  0  0  0  0
   35.5910   28.3330   42.9160 H   0  0  0  0  0  0  0  0  0  0  0  0
   36.2180   26.8670   43.6570 H   0  0  0  0  0  0  0  0  0  0  0  0
   35.9180   27.1310   41.0420 H   0  0  0  0  0  0  0  0  0  0  0  0
   37.1650   26.1210   41.7520 H   0  0  0  0  0  0  0  0  0  0  0  0
   38.7940   27.3640   40.8550 H   0  0  0  0  0  0  0  0  0  0  0  0
   37.0450   31.2150   40.7760 C   0  0  0  0  0  0  0  0  0  0  0  0
   38.2380   30.4380   40.7890 C   0  0  0  0  0  0  0  0  0  0  0  0
   39.3540   30.9510   40.1320 C   0  0  0  0  0  0  0  0  0  0  0  0
   39.2230   32.1550   39.5270 N   0  0  0  0  0  0  0  0  0  0  0  0
   38.0940   32.8640   39.5280 C   0  0  0  0  0  0  0  0  0  0  0  0
   36.9840   32.4020   40.1560 N   0  0  0  0  0  0  0  0  0  0  0  0
   35.8790   30.7170   41.4370 N   0  0  0  0  0  0  0  0  0  0  0  0
   40.2590   30.3580   40.1430 H   0  0  0  0  0  0  0  0  0  0  0  0
   38.1110   33.8080   39.0130 H   0  0  0  0  0  0  0  0  0  0  0  0
   35.3750   31.3710   42.0840 H   0  0  0  0  0  0  0  0  0  0  0  0
   35.6950   29.7240   41.1600 H   0  0  0  0  0  0  0  0  0  0  0  0
   37.4380   28.0530   39.4250 C   0  0  0  0  0  0  0  0  0  0  0  0
   38.2440   28.0800   38.3100 C   0  0  0  0  0  0  0  0  0  0  0  0
   39.3090   28.0820   38.4600 H   0  0  0  0  0  0  0  0  0  0  0  0
   37.8030   28.1230   37.0070 C   0  0  0  0  0  3  0  0  0  0  0  0
   36.4460   28.1430   36.7610 C   0  0  0  0  0  0  0  0  0  0  0  0
   36.1450   28.1770   35.7270 H   0  0  0  0  0  0  0  0  0  0  0  0
   35.5720   28.1200   37.8010 C   0  0  0  0  0  0  0  0  0  0  0  0
   34.5050   28.1360   37.6310 H   0  0  0  0  0  0  0  0  0  0  0  0
   36.0820   28.0770   39.0590 C   0  0  0  0  0  3  0  0  0  0  0  0
  1  2  1  0  0  0  0
  2  8  1  0  0  0  0
  2  7  1  0  0  0  0
  2  3  1  0  0  0  0
  3 10  1  0  0  0  0
  3  9  1  0  0  0  0
  4 12  1  0  0  0  0
  4  3  1  0  0  0  0
  5 14  1  0  0  0  0
  5  4  1  0  0  0  0
  6 15  1  6  0  0  0
  6  1  1  0  0  0  0
  6  5  1  0  0  0  0
 11  4  1  0  0  0  0
 13  5  1  0  0  0  0
 16 17  1  0  0  0  0
 16 22  1  0  0  0  0
 17  1  1  0  0  0  0
 18 23  1  0  0  0  0
 18 17  2  0  0  0  0
 19 20  2  0  0  0  0
 19 18  1  0  0  0  0
 20 21  1  0  0  0  0
 21 16  2  0  0  0  0
 22 25  1  0  0  0  0
 24 20  1  0  0  0  0
 26 22  1  0  0  0  0
 27  6  1  0  0  0  0
 28 29  1  0  0  0  0
 28 27  2  0  0  0  0
 30 28  1  0  0  0  0
 31 30  2  0  0  0  0
 31 33  1  0  0  0  0
 32 31  1  0  0  0  0
 33 35  2  0  0  0  0
 34 33  1  0  0  0  0
 35 27  1  0  0  0  0
M  END
>  <minimizedAffinity>
-5.28870916

$$$$

 OpenBabel03242518083D

 35 37  0  0  1  0  0  0  0  0999 V2000
   37.5600   30.2950   40.9510 N   0  0  0  0  0  0  0  0  0  0  0  0
   36.1440   30.2260   40.7000 C   0  0  0  0  0  0  0  0  0  0  0  0
   35.6170   28.8780   40.9540 C   0  0  0  0  0  0  0  0  0  0  0  0
   36.4110   27.9970   41.8330 C   0  0  0  0  0  0  0  0  0  0  0  0
   37.4140   28.6160   42.7210 C   0  0  0  0  0  0  0  0  0  0  0  0
   38.0100   29.9250   42.2480 C   0  0  1  0  0  0  0  0  0  0  0  0
   35.9070   30.6280   39.6940 H   0  0  0  0  0  0  0  0  0  0  0  0
   35.6690   30.9520   41.4220 H   0  0  0  0  0  0  0  0  0  0  0  0
   34.5810   28.9780   41.3920 H   0  0  0  0  0  0  0  0  0  0  0  0
   35.4120   28.4060   39.9570 H   0  0  0  0  0  0  0  0  0  0  0  0
   36.9130   27.2480   41.1790 H   0  0  0  0  0  0  0  0  0  0  0  0
   35.7260   27.3630   42.4700 H   0  0  0  0  0  0  0  0  0  0  0  0
   38.2890   27.9070   42.8320 H   0  0  0  0  0  0  0  0  0  0  0  0
   37.0170   28.6920   43.7540 H   0  0  0  0  0  0  0  0  0  0  0  0
   37.5570   30.7040   42.9370 H   0  0  0  0  0  0  0  0  0  0  0  0
   38.6040   32.1350   39.7710 C   0  0  0  0  0  0  0  0  0  0  0  0
   38.4250   30.7310   39.9360 C   0  0  0  0  0  0  0  0  0  0  0  0
   39.1230   29.8830   39.0800 C   0  0  0  0  0  0  0  0  0  0  0  0
   39.9240   30.4550   38.1500 N   0  0  0  0  0  0  0  0  0  0  0  0
   40.0760   31.7730   38.0150 C   0  0  0  0  0  0  0  0  0  0  0  0
   39.4150   32.6350   38.8270 N   0  0  0  0  0  0  0  0  0  0  0  0
   37.9000   33.0350   40.6290 N   0  0  0  0  0  0  0  0  0  0  0  0
   38.9850   28.8180   39.2070 H   0  0  0  0  0  0  0  0  0  0  0  0
   40.7400   32.1100   37.2400 H   0  0  0  0  0  0  0  0  0  0  0  0
   38.4540   33.8020   41.0820 H   0  0  0  0  0  0  0  0  0  0  0  0
   36.8850   32.7790   40.6780 H   0  0  0  0  0  0  0  0  0  0  0  0
   39.4640   29.9770   42.4930 C   0  0  0  0  0  0  0  0  0  0  0  0
   40.2450   31.0840   42.7290 C   0  0  0  0  0  0  0  0  0  0  0  0
   39.7700   32.0480   42.7080 H   0  0  0  0  0  0  0  0  0  0  0  0
   41.6010   31.0680   42.9710 C   0  0  0  0  0  3  0  0  0  0  0  0
   42.2630   29.8580   42.9870 C   0  0  0  0  0  0  0  0  0  0  0  0
   43.3220   29.8920   43.1800 H   0  0  0  0  0  0  0  0  0  0  0  0
   41.5720   28.7090   42.7630 C   0  0  0  0  0  0  0  0  0  0  0  0
   42.0710   27.7500   42.7700 H   0  0  0  0  0  0  0  0  0  0  0  0
   40.2370   28.8050   42.5310 C   0  0  0  0  0  3  0  0  0  0  0  0
  1  6  1  0  0  0  0
  2  1  1  0  0  0  0
  2  3  1  0  0  0  0
  2  8  1  0  0  0  0
  3  9  1  0  0  0  0
  3  4  1  0  0  0  0
  4 12  1  0  0  0  0
  4  5  1  0  0  0  0
  5 13  1  0  0  0  0
  5 14  1  0  0  0  0
  6 27  1  0  0  0  0
  6  5  1  0  0  0  0
  6 15  1  1  0  0  0
  7  2  1  0  0  0  0
 10  3  1  0  0  0  0
 11  4  1  0  0  0  0
 16 17  1  0  0  0  0
 16 22  1  0  0  0  0
 17  1  1  0  0  0  0
 18 23  1  0  0  0  0
 18 17  2  0  0  0  0
 19 18  1  0  0  0  0
 20 19  2  0  0  0  0
 20 21  1  0  0  0  0
 21 16  2  0  0  0  0
 22 26  1  0  0  0  0
 22 25  1  0  0  0  0
 24 20  1  0  0  0  0
 27 35  2  0  0  0  0
 27 28  1  0  0  0  0
 28 30  2  0  0  0  0
 29 28  1  0  0  0  0
 30 31  1  0  0  0  0
 31 32  1  0  0  0  0
 33 34  1  0  0  0  0
 33 31  2  0  0  0  0
 35 33  1  0  0  0  0
M  END
>  <minimizedAffinity>
-5.19452381

$$$$

 OpenBabel03242518083D

 35 37  0  0  1  0  0  0  0  0999 V2000
   38.2010   30.6940   39.6900 N   0  0  0  0  0  0  0  0  0  0  0  0
   38.4100   31.8670   38.8830 C   0  0  0  0  0  0  0  0  0  0  0  0
   38.4700   33.0830   39.7050 C   0  0  0  0  0  0  0  0  0  0  0  0
   38.7950   32.9150   41.1360 C   0  0  0  0  0  0  0  0  0  0  0  0
   39.4390   31.6570   41.5630 C   0  0  0  0  0  0  0  0  0  0  0  0
   39.1460   30.4350   40.7190 C   0  0  1  0  0  0  0  0  0  0  0  0
   37.6700   31.9100   38.0580 H   0  0  0  0  0  0  0  0  0  0  0  0
   39.4050   31.7150   38.3710 H   0  0  0  0  0  0  0  0  0  0  0  0
   39.2290   33.7850   39.2490 H   0  0  0  0  0  0  0  0  0  0  0  0
   37.5070   33.6380   39.5540 H   0  0  0  0  0  0  0  0  0  0  0  0
   37.8470   33.0530   41.7050 H   0  0  0  0  0  0  0  0  0  0  0  0
   39.4370   33.7730   41.4940 H   0  0  0  0  0  0  0  0  0  0  0  0
   39.0800   31.3990   42.6050 H   0  0  0  0  0  0  0  0  0  0  0  0
   40.5290   31.8120   41.7020 H   0  0  0  0  0  0  0  0  0  0  0  0
   40.1180   30.2360   40.1680 H   0  0  0  0  0  0  0  0  0  0  0  0
   35.9030   30.0810   40.1540 C   0  0  0  0  0  0  0  0  0  0  0  0
   37.1070   29.8560   39.4260 C   0  0  0  0  0  0  0  0  0  0  0  0
   37.1170   28.8190   38.4960 C   0  0  0  0  0  0  0  0  0  0  0  0
   35.9800   28.0990   38.3510 N   0  0  0  0  0  0  0  0  0  0  0  0
   34.8650   28.3290   39.0450 C   0  0  0  0  0  0  0  0  0  0  0  0
   34.8110   29.3280   39.9610 N   0  0  0  0  0  0  0  0  0  0  0  0
   35.8590   31.1340   41.1200 N   0  0  0  0  0  0  0  0  0  0  0  0
   38.0330   28.6490   37.9450 H   0  0  0  0  0  0  0  0  0  0  0  0
   34.0250   27.6910   38.8420 H   0  0  0  0  0  0  0  0  0  0  0  0
   35.0420   31.7910   41.0790 H   0  0  0  0  0  0  0  0  0  0  0  0
   36.6900   31.0870   41.7550 H   0  0  0  0  0  0  0  0  0  0  0  0
   38.9160   29.2420   41.5570 C   0  0  0  0  0  0  0  0  0  0  0  0
   39.2940   27.9440   41.3060 C   0  0  0  0  0  0  0  0  0  0  0  0
   39.7960   27.7370   40.3790 H   0  0  0  0  0  0  0  0  0  0  0  0
   39.0660   26.8710   42.1400 C   0  0  0  0  0  3  0  0  0  0  0  0
   38.4070   27.0790   43.3320 C   0  0  0  0  0  0  0  0  0  0  0  0
   38.2500   26.2130   43.9530 H   0  0  0  0  0  0  0  0  0  0  0  0
   37.9940   28.3310   43.6650 C   0  0  0  0  0  0  0  0  0  0  0  0
   37.4740   28.5160   44.5940 H   0  0  0  0  0  0  0  0  0  0  0  0
   38.2550   29.3390   42.7930 C   0  0  0  0  0  3  0  0  0  0  0  0
  1  6  1  0  0  0  0
  2  1  1  0  0  0  0
  2  3  1  0  0  0  0
  3  4  1  0  0  0  0
  4 12  1  0  0  0  0
  4  5  1  0  0  0  0
  4 11  1  0  0  0  0
  5 14  1  0  0  0  0
  5 13  1  0  0  0  0
  6 15  1  6  0  0  0
  6 27  1  0  0  0  0
  6  5  1  0  0  0  0
  7  2  1  0  0  0  0
  8  2  1  0  0  0  0
  9  3  1  0  0  0  0
 10  3  1  0  0  0  0
 16 22  1  0  0  0  0
 17  1  1  0  0  0  0
 17 16  2  0  0  0  0
 18 17  1  0  0  0  0
 19 18  2  0  0  0  0
 19 20  1  0  0  0  0
 20 21  2  0  0  0  0
 21 16  1  0  0  0  0
 22 26  1  0  0  0  0
 23 18  1  0  0  0  0
 24 20  1  0  0  0  0
 25 22  1  0  0  0  0
 27 35  1  0  0  0  0
 28 27  2  0  0  0  0
 28 30  1  0  0  0  0
 29 28  1  0  0  0  0
 30 31  2  0  0  0  0
 31 33  1  0  0  0  0
 31 32  1  0  0  0  0
 33 34  1  0  0  0  0
 35 33  2  0  0  0  0
M  END
>  <minimizedAffinity>
-5.18600559

$$$$

 OpenBabel03242518083D

 35 37  0  0  1  0  0  0  0  0999 V2000
   36.9320   28.6220   41.3470 N   0  0  0  0  0  0  0  0  0  0  0  0
   36.5550   27.5420   42.2220 C   0  0  0  0  0  0  0  0  0  0  0  0
   37.6780   27.1180   43.0690 C   0  0  0  0  0  0  0  0  0  0  0  0
   38.7780   28.0840   43.2660 C   0  0  0  0  0  0  0  0  0  0  0  0
   38.5150   29.5090   42.9830 C   0  0  0  0  0  0  0  0  0  0  0  0
   37.4450   29.8010   41.9520 C   0  0  1  0  0  0  0  0  0  0  0  0
   36.0810   26.7210   41.6460 H   0  0  0  0  0  0  0  0  0  0  0  0
   35.7300   27.9510   42.8760 H   0  0  0  0  0  0  0  0  0  0  0  0
   37.2710   26.8320   44.0830 H   0  0  0  0  0  0  0  0  0  0  0  0
   38.0460   26.1360   42.6700 H   0  0  0  0  0  0  0  0  0  0  0  0
   39.6330   27.7380   42.6410 H   0  0  0  0  0  0  0  0  0  0  0  0
   39.1800   28.0070   44.3190 H   0  0  0  0  0  0  0  0  0  0  0  0
   39.4610   29.9810   42.5810 H   0  0  0  0  0  0  0  0  0  0  0  0
   38.3390   30.0610   43.9290 H   0  0  0  0  0  0  0  0  0  0  0  0
   36.5780   30.2100   42.5570 H   0  0  0  0  0  0  0  0  0  0  0  0
   35.5080   28.8470   39.4000 C   0  0  0  0  0  0  0  0  0  0  0  0
   36.7650   28.4820   39.9610 C   0  0  0  0  0  0  0  0  0  0  0  0
   37.7500   28.0120   39.0940 C   0  0  0  0  0  0  0  0  0  0  0  0
   37.4400   27.9370   37.7790 N   0  0  0  0  0  0  0  0  0  0  0  0
   36.2550   28.2850   37.2770 C   0  0  0  0  0  0  0  0  0  0  0  0
   35.2670   28.7470   38.0850 N   0  0  0  0  0  0  0  0  0  0  0  0
   34.4730   29.3290   40.2600 N   0  0  0  0  0  0  0  0  0  0  0  0
   38.7040   27.7350   39.5230 H   0  0  0  0  0  0  0  0  0  0  0  0
   36.1260   28.1810   36.2150 H   0  0  0  0  0  0  0  0  0  0  0  0
   33.9800   30.2100   39.9750 H   0  0  0  0  0  0  0  0  0  0  0  0
   34.3570   28.6960   41.0870 H   0  0  0  0  0  0  0  0  0  0  0  0
   37.8500   30.8960   41.0490 C   0  0  0  0  0  0  0  0  0  0  0  0
   37.0620   31.8880   40.5140 C   0  0  0  0  0  0  0  0  0  0  0  0
   36.0120   31.8730   40.7400 H   0  0  0  0  0  0  0  0  0  0  0  0
   37.5030   32.8990   39.6890 C   0  0  0  0  0  3  0  0  0  0  0  0
   38.8380   32.9520   39.3510 C   0  0  0  0  0  0  0  0  0  0  0  0
   39.1390   33.7590   38.7040 H   0  0  0  0  0  0  0  0  0  0  0  0
   39.6940   32.0120   39.8320 C   0  0  0  0  0  0  0  0  0  0  0  0
   40.7440   32.0340   39.5790 H   0  0  0  0  0  0  0  0  0  0  0  0
   39.1850   31.0450   40.6400 C   0  0  0  0  0  3  0  0  0  0  0  0
  1  6  1  0  0  0  0
  1  2  1  0  0  0  0
  2  8  1  0  0  0  0
  2  3  1  0  0  0  0
  3  4  1  0  0  0  0
  3  9  1  0  0  0  0
  4 12  1  0  0  0  0
  5  4  1  0  0  0  0
  5 14  1  0  0  0  0
  6 15  1  1  0  0  0
  6  5  1  0  0  0  0
  7  2  1  0  0  0  0
 10  3  1  0  0  0  0
 11  4  1  0  0  0  0
 13  5  1  0  0  0  0
 16 17  1  0  0  0  0
 16 22  1  0  0  0  0
 17  1  1  0  0  0  0
 18 23  1  0  0  0  0
 18 17  2  0  0  0  0
 19 18  1  0  0  0  0
 20 19  2  0  0  0  0
 20 21  1  0  0  0  0
 21 16  2  0  0  0  0
 22 26  1  0  0  0  0
 24 20  1  0  0  0  0
 25 22  1  0  0  0  0
 27  6  1  0  0  0  0
 28 29  1  0  0  0  0
 28 27  2  0  0  0  0
 30 28  1  0  0  0  0
 31 30  2  0  0  0  0
 31 33  1  0  0  0  0
 32 31  1  0  0  0  0
 33 35  2  0  0  0  0
 34 33  1  0  0  0  0
 35 27  1  0  0  0  0
M  END
>  <minimizedAffinity>
-5.15690041

$$$$

 OpenBabel03242518083D

 35 37  0  0  1  0  0  0  0  0999 V2000
   38.4010   29.8000   41.5480 N   0  0  0  0  0  0  0  0  0  0  0  0
   38.0910   28.6870   42.4080 C   0  0  0  0  0  0  0  0  0  0  0  0
   39.3080   28.0030   42.8640 C   0  0  0  0  0  0  0  0  0  0  0  0
   40.5710   28.7670   42.8130 C   0  0  0  0  0  0  0  0  0  0  0  0
   40.4940   30.2380   42.7280 C   0  0  0  0  0  0  0  0  0  0  0  0
   39.2560   30.8080   42.0700 C   0  0  1  0  0  0  0  0  0  0  0  0
   37.3450   28.0210   41.9300 H   0  0  0  0  0  0  0  0  0  0  0  0
   37.5560   29.1290   43.2990 H   0  0  0  0  0  0  0  0  0  0  0  0
   39.1450   27.6570   43.9270 H   0  0  0  0  0  0  0  0  0  0  0  0
   39.3790   27.0350   42.3030 H   0  0  0  0  0  0  0  0  0  0  0  0
   41.1540   28.3800   41.9470 H   0  0  0  0  0  0  0  0  0  0  0  0
   41.2220   28.5030   43.6990 H   0  0  0  0  0  0  0  0  0  0  0  0
   41.3650   30.6140   42.1110 H   0  0  0  0  0  0  0  0  0  0  0  0
   40.6780   30.6900   43.7250 H   0  0  0  0  0  0  0  0  0  0  0  0
   38.6670   31.2620   42.9270 H   0  0  0  0  0  0  0  0  0  0  0  0
   36.5490   30.4260   40.1170 C   0  0  0  0  0  0  0  0  0  0  0  0
   37.8470   29.8570   40.2600 C   0  0  0  0  0  0  0  0  0  0  0  0
   38.4830   29.3960   39.1090 C   0  0  0  0  0  0  0  0  0  0  0  0
   37.8210   29.5240   37.9360 N   0  0  0  0  0  0  0  0  0  0  0  0
   36.6050   30.0610   37.8280 C   0  0  0  0  0  0  0  0  0  0  0  0
   35.9490   30.5210   38.9220 N   0  0  0  0  0  0  0  0  0  0  0  0
   35.8650   30.9050   41.2780 N   0  0  0  0  0  0  0  0  0  0  0  0
   39.4690   28.9640   39.2210 H   0  0  0  0  0  0  0  0  0  0  0  0
   36.1790   30.1080   36.8420 H   0  0  0  0  0  0  0  0  0  0  0  0
   35.4420   31.8630   41.2270 H   0  0  0  0  0  0  0  0  0  0  0  0
   35.8900   30.1880   42.0410 H   0  0  0  0  0  0  0  0  0  0  0  0
   39.5870   31.9340   41.1770 C   0  0  0  0  0  0  0  0  0  0  0  0
   38.8610   33.0800   40.9520 C   0  0  0  0  0  0  0  0  0  0  0  0
   37.9150   33.1830   41.4530 H   0  0  0  0  0  0  0  0  0  0  0  0
   39.2330   34.1110   40.1180 C   0  0  0  0  0  3  0  0  0  0  0  0
   40.4280   34.0200   39.4350 C   0  0  0  0  0  0  0  0  0  0  0  0
   40.6790   34.8470   38.7930 H   0  0  0  0  0  0  0  0  0  0  0  0
   41.2130   32.9220   39.5930 C   0  0  0  0  0  0  0  0  0  0  0  0
   42.1520   32.8290   39.0670 H   0  0  0  0  0  0  0  0  0  0  0  0
   40.7790   31.9470   40.4340 C   0  0  0  0  0  3  0  0  0  0  0  0
  1  6  1  0  0  0  0
  1  2  1  0  0  0  0
  2  3  1  0  0  0  0
  2  8  1  0  0  0  0
  3  9  1  0  0  0  0
  4  3  1  0  0  0  0
  4 12  1  0  0  0  0
  5  4  1  0  0  0  0
  5 14  1  0  0  0  0
  6  5  1  0  0  0  0
  6 15  1  1  0  0  0
  7  2  1  0  0  0  0
 10  3  1  0  0  0  0
 11  4  1  0  0  0  0
 13  5  1  0  0  0  0
 16 17  1  0  0  0  0
 16 22  1  0  0  0  0
 17  1  1  0  0  0  0
 18 23  1  0  0  0  0
 18 17  2  0  0  0  0
 19 18  1  0  0  0  0
 20 19  2  0  0  0  0
 20 21  1  0  0  0  0
 21 16  2  0  0  0  0
 22 26  1  0  0  0  0
 24 20  1  0  0  0  0
 25 22  1  0  0  0  0
 27  6  1  0  0  0  0
 28 27  1  0  0  0  0
 28 29  1  0  0  0  0
 30 28  2  0  0  0  0
 31 33  2  0  0  0  0
 31 30  1  0  0  0  0
 32 31  1  0  0  0  0
 33 35  1  0  0  0  0
 34 33  1  0  0  0  0
 35 27  2  0  0  0  0
M  END
>  <minimizedAffinity>
-5.07640123

$$$$

 OpenBabel03242518083D

 35 37  0  0  1  0  0  0  0  0999 V2000
   37.3520   28.6500   39.2050 N   0  0  0  0  0  0  0  0  0  0  0  0
   36.8040   27.4130   38.7130 C   0  0  0  0  0  0  0  0  0  0  0  0
   35.4390   27.5940   38.1990 C   0  0  0  0  0  0  0  0  0  0  0  0
   35.0390   28.9630   37.8150 C   0  0  0  0  0  0  0  0  0  0  0  0
   36.1010   29.9560   37.5610 C   0  0  0  0  0  0  0  0  0  0  0  0
   37.4060   29.7430   38.2980 C   0  0  1  0  0  0  0  0  0  0  0  0
   36.9030   26.6130   39.4740 H   0  0  0  0  0  0  0  0  0  0  0  0
   37.4800   27.0930   37.8660 H   0  0  0  0  0  0  0  0  0  0  0  0
   35.3030   26.9200   37.3040 H   0  0  0  0  0  0  0  0  0  0  0  0
   34.7360   27.1450   38.9490 H   0  0  0  0  0  0  0  0  0  0  0  0
   34.3640   29.3440   38.6150 H   0  0  0  0  0  0  0  0  0  0  0  0
   34.3680   28.9320   36.9060 H   0  0  0  0  0  0  0  0  0  0  0  0
   35.7320   30.9750   37.8860 H   0  0  0  0  0  0  0  0  0  0  0  0
   36.2580   30.0800   36.4700 H   0  0  0  0  0  0  0  0  0  0  0  0
   38.1310   29.4080   37.4930 H   0  0  0  0  0  0  0  0  0  0  0  0
   36.9080   29.1610   41.5310 C   0  0  0  0  0  0  0  0  0  0  0  0
   37.8190   28.7260   40.5250 C   0  0  0  0  0  0  0  0  0  0  0  0
   39.1140   28.4010   40.9210 C   0  0  0  0  0  0  0  0  0  0  0  0
   39.4150   28.5210   42.2350 N   0  0  0  0  0  0  0  0  0  0  0  0
   38.5440   28.9300   43.1580 C   0  0  0  0  0  0  0  0  0  0  0  0
   37.2730   29.2580   42.8170 N   0  0  0  0  0  0  0  0  0  0  0  0
   35.5720   29.5070   41.1600 N   0  0  0  0  0  0  0  0  0  0  0  0
   39.8040   28.0710   40.1550 H   0  0  0  0  0  0  0  0  0  0  0  0
   38.8990   28.9870   44.1720 H   0  0  0  0  0  0  0  0  0  0  0  0
   34.7920   29.0950   41.7280 H   0  0  0  0  0  0  0  0  0  0  0  0
   35.5740   30.1540   40.3370 H   0  0  0  0  0  0  0  0  0  0  0  0
   37.9490   31.0150   38.8140 C   0  0  0  0  0  0  0  0  0  0  0  0
   39.2680   31.3870   38.9370 C   0  0  0  0  0  0  0  0  0  0  0  0
   40.0200   30.6710   38.6580 H   0  0  0  0  0  0  0  0  0  0  0  0
   39.7140   32.6010   39.4090 C   0  0  0  0  0  3  0  0  0  0  0  0
   38.7910   33.5470   39.8000 C   0  0  0  0  0  0  0  0  0  0  0  0
   39.1840   34.4810   40.1630 H   0  0  0  0  0  0  0  0  0  0  0  0
   37.4630   33.2680   39.7150 C   0  0  0  0  0  0  0  0  0  0  0  0
   36.7220   33.9940   40.0180 H   0  0  0  0  0  0  0  0  0  0  0  0
   37.0990   32.0490   39.2390 C   0  0  0  0  0  3  0  0  0  0  0  0
  1 17  1  0  0  0  0
  2  1  1  0  0  0  0
  2  7  1  0  0  0  0
  3  2  1  0  0  0  0
  3 10  1  0  0  0  0
  4  3  1  0  0  0  0
  4 11  1  0  0  0  0
  5  4  1  0  0  0  0
  5 13  1  0  0  0  0
  5  6  1  0  0  0  0
  6 15  1  6  0  0  0
  6 27  1  0  0  0  0
  6  1  1  0  0  0  0
  8  2  1  0  0  0  0
  9  3  1  0  0  0  0
 12  4  1  0  0  0  0
 14  5  1  0  0  0  0
 16 21  1  0  0  0  0
 17 18  1  0  0  0  0
 17 16  2  0  0  0  0
 18 19  2  0  0  0  0
 19 20  1  0  0  0  0
 20 24  1  0  0  0  0
 21 20  2  0  0  0  0
 22 16  1  0  0  0  0
 22 25  1  0  0  0  0
 23 18  1  0  0  0  0
 26 22  1  0  0  0  0
 27 28  2  0  0  0  0
 27 35  1  0  0  0  0
 28 30  1  0  0  0  0
 29 28  1  0  0  0  0
 30 31  2  0  0  0  0
 31 32  1  0  0  0  0
 33 31  1  0  0  0  0
 33 34  1  0  0  0  0
 35 33  2  0  0  0  0
M  END
>  <minimizedAffinity>
-5.07502651

$$$$

 OpenBabel03242518083D

 35 37  0  0  1  0  0  0  0  0999 V2000
   37.4900   28.7940   41.6980 N   0  0  0  0  0  0  0  0  0  0  0  0
   36.5250   27.9540   42.3600 C   0  0  0  0  0  0  0  0  0  0  0  0
   37.1490   26.7350   42.8930 C   0  0  0  0  0  0  0  0  0  0  0  0
   38.6080   26.7650   43.1160 C   0  0  0  0  0  0  0  0  0  0  0  0
   39.2740   28.0790   43.2060 C   0  0  0  0  0  0  0  0  0  0  0  0
   38.6140   29.2170   42.4570 C   0  0  1  0  0  0  0  0  0  0  0  0
   35.6520   27.7710   41.7020 H   0  0  0  0  0  0  0  0  0  0  0  0
   36.1200   28.5690   43.2160 H   0  0  0  0  0  0  0  0  0  0  0  0
   36.6450   26.4760   43.8710 H   0  0  0  0  0  0  0  0  0  0  0  0
   36.8410   25.8840   42.2310 H   0  0  0  0  0  0  0  0  0  0  0  0
   39.0760   26.1720   42.2980 H   0  0  0  0  0  0  0  0  0  0  0  0
   38.8730   26.1770   44.0440 H   0  0  0  0  0  0  0  0  0  0  0  0
   40.3140   27.9910   42.7680 H   0  0  0  0  0  0  0  0  0  0  0  0
   39.4680   28.3390   44.2670 H   0  0  0  0  0  0  0  0  0  0  0  0
   38.1750   29.8710   43.2730 H   0  0  0  0  0  0  0  0  0  0  0  0
   36.4370   30.2900   40.1100 C   0  0  0  0  0  0  0  0  0  0  0  0
   37.2810   29.1700   40.3630 C   0  0  0  0  0  0  0  0  0  0  0  0
   37.8470   28.5240   39.2660 C   0  0  0  0  0  0  0  0  0  0  0  0
   37.5540   29.0080   38.0360 N   0  0  0  0  0  0  0  0  0  0  0  0
   36.7610   30.0590   37.8250 C   0  0  0  0  0  0  0  0  0  0  0  0
   36.1880   30.7170   38.8630 N   0  0  0  0  0  0  0  0  0  0  0  0
   35.8360   30.9740   41.2110 N   0  0  0  0  0  0  0  0  0  0  0  0
   38.4870   27.6740   39.4610 H   0  0  0  0  0  0  0  0  0  0  0  0
   36.6020   30.3510   36.8030 H   0  0  0  0  0  0  0  0  0  0  0  0
   35.9130   32.0200   41.2290 H   0  0  0  0  0  0  0  0  0  0  0  0
   35.3860   30.2920   41.8660 H   0  0  0  0  0  0  0  0  0  0  0  0
   39.6100   30.0590   41.7670 C   0  0  0  0  0  0  0  0  0  0  0  0
   40.7530   29.6600   41.1140 C   0  0  0  0  0  0  0  0  0  0  0  0
   40.9920   28.6120   41.1160 H   0  0  0  0  0  0  0  0  0  0  0  0
   41.6370   30.4950   40.4690 C   0  0  0  0  0  3  0  0  0  0  0  0
   41.3880   31.8510   40.4560 C   0  0  0  0  0  0  0  0  0  0  0  0
   42.1060   32.4660   39.9400 H   0  0  0  0  0  0  0  0  0  0  0  0
   40.2820   32.3390   41.0760 C   0  0  0  0  0  0  0  0  0  0  0  0
   40.0680   33.3980   41.0790 H   0  0  0  0  0  0  0  0  0  0  0  0
   39.4560   31.4540   41.6920 C   0  0  0  0  0  3  0  0  0  0  0  0
  1  2  1  0  0  0  0
  1  6  1  0  0  0  0
  2  3  1  0  0  0  0
  2  8  1  0  0  0  0
  3  4  1  0  0  0  0
  3  9  1  0  0  0  0
  4  5  1  0  0  0  0
  4 12  1  0  0  0  0
  5 14  1  0  0  0  0
  6  5  1  0  0  0  0
  6 15  1  1  0  0  0
  7  2  1  0  0  0  0
 10  3  1  0  0  0  0
 11  4  1  0  0  0  0
 13  5  1  0  0  0  0
 16 17  1  0  0  0  0
 16 22  1  0  0  0  0
 17  1  1  0  0  0  0
 18 23  1  0  0  0  0
 18 17  2  0  0  0  0
 19 18  1  0  0  0  0
 20 19  2  0  0  0  0
 20 21  1  0  0  0  0
 21 16  2  0  0  0  0
 22 25  1  0  0  0  0
 22 26  1  0  0  0  0
 24 20  1  0  0  0  0
 27  6  1  0  0  0  0
 28 29  1  0  0  0  0
 28 27  2  0  0  0  0
 30 28  1  0  0  0  0
 31 30  2  0  0  0  0
 31 33  1  0  0  0  0
 32 31  1  0  0  0  0
 33 34  1  0  0  0  0
 33 35  2  0  0  0  0
 35 27  1  0  0  0  0
M  END
>  <minimizedAffinity>
-5.04712105

$$$$
