
 OpenBabel03252508163D

 37 40  0  0  1  0  0  0  0  0999 V2000
   37.9040   28.5800   42.7150 C   0  0  0  0  0  3  0  0  0  0  0  0
   39.0820   28.0920   42.7500 C   0  0  0  0  0  3  0  0  0  0  0  0
   36.2970   31.1740   40.6590 C   0  0  0  0  0  0  0  0  0  0  0  0
   37.3250   32.0730   40.4110 C   0  0  0  0  0  0  0  0  0  0  0  0
   38.5320   31.7760   40.9660 C   0  0  0  0  0  0  0  0  0  0  0  0
   38.6840   30.6510   41.7150 N   0  0  0  0  0  0  0  0  0  0  0  0
   37.6730   29.7920   41.9420 C   0  0  0  0  0  0  0  0  0  0  0  0
   36.4970   30.0880   41.3990 N   0  0  0  0  0  0  0  0  0  0  0  0
   35.3140   31.3270   40.2640 H   0  0  0  0  0  0  0  0  0  0  0  0
   37.1600   32.9550   39.8090 H   0  0  0  0  0  0  0  0  0  0  0  0
   39.7010   32.6290   40.7900 C   0  0  0  0  0  0  0  0  0  0  0  0
   39.6580   33.9110   40.2960 C   0  0  0  0  0  0  0  0  0  0  0  0
   38.7120   34.3340   40.0120 H   0  0  0  0  0  0  0  0  0  0  0  0
   40.7680   34.7120   40.1320 C   0  0  0  0  0  3  0  0  0  0  0  0
   42.0140   34.2260   40.4760 C   0  0  0  0  0  0  0  0  0  0  0  0
   42.9190   34.8100   40.3700 H   0  0  0  0  0  0  0  0  0  0  0  0
   42.1200   32.9460   40.9790 C   0  0  0  0  0  0  0  0  0  0  0  0
   43.0600   32.4860   41.2750 H   0  0  0  0  0  0  0  0  0  0  0  0
   40.9700   32.1960   41.1180 C   0  0  0  0  0  3  0  0  0  0  0  0
   39.2420   26.8210   43.5700 C   0  0  0  0  0  0  0  0  0  0  0  0
   38.2630   26.5270   43.9910 H   0  0  0  0  0  0  0  0  0  0  0  0
   40.0030   27.0780   44.3420 H   0  0  0  0  0  0  0  0  0  0  0  0
   39.8450   25.7370   42.7170 C   0  0  1  0  0  0  0  0  0  0  0  0
   39.7840   24.3530   43.2620 C   0  0  0  0  0  0  0  0  0  0  0  0
   38.9650   24.7040   42.1170 C   0  0  1  0  0  0  0  0  0  0  0  0
   40.7360   26.0190   42.1320 H   0  0  0  0  0  0  0  0  0  0  0  0
   40.6720   23.6860   43.1640 H   0  0  0  0  0  0  0  0  0  0  0  0
   39.3000   24.2130   44.2570 H   0  0  0  0  0  0  0  0  0  0  0  0
   39.3200   24.2650   41.1350 H   0  0  0  0  0  0  0  0  0  0  0  0
   37.5030   24.9370   42.1410 C   0  0  0  0  0  0  0  0  0  0  0  0
   36.7030   24.0860   41.1210 C   0  0  0  0  0  0  0  0  0  0  0  0
   36.8880   25.5320   40.8620 C   0  0  0  0  0  0  0  0  0  0  0  0
   36.9820   25.1420   43.0960 H   0  0  0  0  0  0  0  0  0  0  0  0
   37.2660   23.3860   40.4780 H   0  0  0  0  0  0  0  0  0  0  0  0
   35.7200   23.7160   41.4800 H   0  0  0  0  0  0  0  0  0  0  0  0
   37.6060   25.8360   40.0810 H   0  0  0  0  0  0  0  0  0  0  0  0
   36.0500   26.2420   40.9970 H   0  0  0  0  0  0  0  0  0  0  0  0
  1  2  2  0  0  0  0
  2 20  1  0  0  0  0
  3  8  1  0  0  0  0
  4  3  2  0  0  0  0
  4  5  1  0  0  0  0
  5  6  2  0  0  0  0
  6  7  1  0  0  0  0
  7  1  1  0  0  0  0
  8  7  2  0  0  0  0
  9  3  1  0  0  0  0
 10  4  1  0  0  0  0
 11  5  1  0  0  0  0
 11 19  1  0  0  0  0
 12 11  2  0  0  0  0
 13 12  1  0  0  0  0
 14 12  1  0  0  0  0
 14 15  2  0  0  0  0
 15 17  1  0  0  0  0
 16 15  1  0  0  0  0
 17 19  2  0  0  0  0
 17 18  1  0  0  0  0
 20 21  1  0  0  0  0
 20 22  1  0  0  0  0
 23 26  1  6  0  0  0
 23 24  1  0  0  0  0
 23 20  1  0  0  0  0
 24 28  1  0  0  0  0
 25 29  1  6  0  0  0
 25 30  1  0  0  0  0
 25 23  1  0  0  0  0
 25 24  1  0  0  0  0
 27 24  1  0  0  0  0
 30 33  1  0  0  0  0
 31 35  1  0  0  0  0
 31 30  1  0  0  0  0
 32 37  1  0  0  0  0
 32 31  1  0  0  0  0
 32 30  1  0  0  0  0
 34 31  1  0  0  0  0
 36 32  1  0  0  0  0
M  END
>  <minimizedAffinity>
-5.58752394

$$$$

 OpenBabel03252508163D

 37 40  0  0  1  0  0  0  0  0999 V2000
   38.9580   30.7010   41.1340 C   0  0  0  0  0  3  0  0  0  0  0  0
   37.7320   30.4320   41.3610 C   0  0  0  0  0  3  0  0  0  0  0  0
   38.7950   34.3000   40.3910 C   0  0  0  0  0  0  0  0  0  0  0  0
   40.1290   34.6810   40.3410 C   0  0  0  0  0  0  0  0  0  0  0  0
   41.0430   33.7010   40.5780 C   0  0  0  0  0  0  0  0  0  0  0  0
   40.6360   32.4320   40.8450 N   0  0  0  0  0  0  0  0  0  0  0  0
   39.3360   32.0840   40.8880 C   0  0  0  0  0  0  0  0  0  0  0  0
   38.4470   33.0450   40.6570 N   0  0  0  0  0  0  0  0  0  0  0  0
   38.0070   35.0040   40.2190 H   0  0  0  0  0  0  0  0  0  0  0  0
   40.4080   35.7010   40.1240 H   0  0  0  0  0  0  0  0  0  0  0  0
   42.4790   33.9560   40.5580 C   0  0  0  0  0  0  0  0  0  0  0  0
   43.2920   33.7250   39.4740 C   0  0  0  0  0  0  0  0  0  0  0  0
   42.8650   33.3320   38.5710 H   0  0  0  0  0  0  0  0  0  0  0  0
   44.6500   33.9670   39.4630 C   0  0  0  0  0  3  0  0  0  0  0  0
   45.2590   34.4720   40.5940 C   0  0  0  0  0  0  0  0  0  0  0  0
   46.3200   34.6820   40.6430 H   0  0  0  0  0  0  0  0  0  0  0  0
   44.4940   34.7240   41.7140 C   0  0  0  0  0  0  0  0  0  0  0  0
   44.8930   35.1210   42.6450 H   0  0  0  0  0  0  0  0  0  0  0  0
   43.1410   34.4600   41.6600 C   0  0  0  0  0  3  0  0  0  0  0  0
   37.4180   28.9660   41.6190 C   0  0  0  0  0  0  0  0  0  0  0  0
   38.2170   28.3360   41.1890 H   0  0  0  0  0  0  0  0  0  0  0  0
   36.4190   28.8060   41.1490 H   0  0  0  0  0  0  0  0  0  0  0  0
   37.2390   28.7350   43.0960 C   0  0  1  0  0  0  0  0  0  0  0  0
   36.6090   27.4480   43.4940 C   0  0  0  0  0  0  0  0  0  0  0  0
   38.0160   27.6660   43.7670 C   0  0  1  0  0  0  0  0  0  0  0  0
   37.0110   29.6280   43.7020 H   0  0  0  0  0  0  0  0  0  0  0  0
   35.8490   27.4380   44.3090 H   0  0  0  0  0  0  0  0  0  0  0  0
   36.3130   26.7450   42.6790 H   0  0  0  0  0  0  0  0  0  0  0  0
   38.2590   27.8440   44.8590 H   0  0  0  0  0  0  0  0  0  0  0  0
   39.1440   27.0550   43.0250 C   0  0  0  0  0  0  0  0  0  0  0  0
   40.1770   26.3250   43.9220 C   0  0  0  0  0  0  0  0  0  0  0  0
   40.5420   27.6270   43.3210 C   0  0  0  0  0  0  0  0  0  0  0  0
   38.9820   26.6040   42.0280 H   0  0  0  0  0  0  0  0  0  0  0  0
   39.9970   26.3080   45.0110 H   0  0  0  0  0  0  0  0  0  0  0  0
   40.5980   25.3900   43.4950 H   0  0  0  0  0  0  0  0  0  0  0  0
   40.5680   28.5160   43.9750 H   0  0  0  0  0  0  0  0  0  0  0  0
   41.2470   27.6810   42.4690 H   0  0  0  0  0  0  0  0  0  0  0  0
  1  2  2  0  0  0  0
  2 20  1  0  0  0  0
  3  8  1  0  0  0  0
  4  3  2  0  0  0  0
  4  5  1  0  0  0  0
  5  6  2  0  0  0  0
  6  7  1  0  0  0  0
  7  1  1  0  0  0  0
  8  7  2  0  0  0  0
  9  3  1  0  0  0  0
 10  4  1  0  0  0  0
 11  5  1  0  0  0  0
 11 19  1  0  0  0  0
 12 11  2  0  0  0  0
 13 12  1  0  0  0  0
 14 12  1  0  0  0  0
 14 15  2  0  0  0  0
 15 16  1  0  0  0  0
 15 17  1  0  0  0  0
 17 18  1  0  0  0  0
 19 17  2  0  0  0  0
 20 23  1  0  0  0  0
 21 20  1  0  0  0  0
 22 20  1  0  0  0  0
 23 24  1  0  0  0  0
 23 26  1  1  0  0  0
 23 25  1  0  0  0  0
 24 25  1  0  0  0  0
 24 27  1  0  0  0  0
 25 29  1  1  0  0  0
 28 24  1  0  0  0  0
 30 32  1  0  0  0  0
 30 25  1  0  0  0  0
 30 31  1  0  0  0  0
 31 34  1  0  0  0  0
 32 31  1  0  0  0  0
 32 36  1  0  0  0  0
 33 30  1  0  0  0  0
 35 31  1  0  0  0  0
 37 32  1  0  0  0  0
M  END
>  <minimizedAffinity>
-5.47717619

$$$$

 OpenBabel03252508163D

 37 40  0  0  1  0  0  0  0  0999 V2000
   34.4750   28.0730   37.0900 C   0  0  0  0  0  3  0  0  0  0  0  0
   33.4640   28.6620   37.5970 C   0  0  0  0  0  3  0  0  0  0  0  0
   36.3280   25.2110   38.4730 C   0  0  0  0  0  0  0  0  0  0  0  0
   36.8230   25.6960   39.6750 C   0  0  0  0  0  0  0  0  0  0  0  0
   36.5220   26.9900   39.9710 C   0  0  0  0  0  0  0  0  0  0  0  0
   35.7770   27.7350   39.1120 N   0  0  0  0  0  0  0  0  0  0  0  0
   35.3060   27.2430   37.9500 C   0  0  0  0  0  0  0  0  0  0  0  0
   35.6030   25.9800   37.6660 N   0  0  0  0  0  0  0  0  0  0  0  0
   36.5150   24.2050   38.1570 H   0  0  0  0  0  0  0  0  0  0  0  0
   37.4110   25.0690   40.3290 H   0  0  0  0  0  0  0  0  0  0  0  0
   36.9750   27.6330   41.1990 C   0  0  0  0  0  0  0  0  0  0  0  0
   37.5880   28.8620   41.2500 C   0  0  0  0  0  0  0  0  0  0  0  0
   37.7570   29.4040   40.3380 H   0  0  0  0  0  0  0  0  0  0  0  0
   38.0140   29.4640   42.4150 C   0  0  0  0  0  3  0  0  0  0  0  0
   37.8270   28.8180   43.6210 C   0  0  0  0  0  0  0  0  0  0  0  0
   38.1400   29.2420   44.5660 H   0  0  0  0  0  0  0  0  0  0  0  0
   37.2170   27.5810   43.6330 C   0  0  0  0  0  0  0  0  0  0  0  0
   37.0300   27.0050   44.5370 H   0  0  0  0  0  0  0  0  0  0  0  0
   36.8140   27.0340   42.4320 C   0  0  0  0  0  3  0  0  0  0  0  0
   32.6400   29.5010   36.6330 C   0  0  0  0  0  0  0  0  0  0  0  0
   32.8770   29.2090   35.5940 H   0  0  0  0  0  0  0  0  0  0  0  0
   32.9120   30.5550   36.8760 H   0  0  0  0  0  0  0  0  0  0  0  0
   31.1760   29.3520   36.9500 C   0  0  1  0  0  0  0  0  0  0  0  0
   30.6690   30.1170   38.1200 C   0  0  0  0  0  0  0  0  0  0  0  0
   30.2710   30.5140   36.7830 C   0  0  1  0  0  0  0  0  0  0  0  0
   30.7370   28.3590   36.7560 H   0  0  0  0  0  0  0  0  0  0  0  0
   29.9540   29.6320   38.8240 H   0  0  0  0  0  0  0  0  0  0  0  0
   31.4010   30.7460   38.6810 H   0  0  0  0  0  0  0  0  0  0  0  0
   29.1960   30.2680   36.5230 H   0  0  0  0  0  0  0  0  0  0  0  0
   30.7800   31.6930   36.0450 C   0  0  0  0  0  0  0  0  0  0  0  0
   29.6840   32.5150   35.3200 C   0  0  0  0  0  0  0  0  0  0  0  0
   30.5960   31.6700   34.5170 C   0  0  0  0  0  0  0  0  0  0  0  0
   31.6260   32.2830   36.4440 H   0  0  0  0  0  0  0  0  0  0  0  0
   28.6370   32.1760   35.4110 H   0  0  0  0  0  0  0  0  0  0  0  0
   29.8300   33.6160   35.3340 H   0  0  0  0  0  0  0  0  0  0  0  0
   30.2020   30.7300   34.0950 H   0  0  0  0  0  0  0  0  0  0  0  0
   31.4040   32.1250   33.9130 H   0  0  0  0  0  0  0  0  0  0  0  0
  1  2  2  0  0  0  0
  1  7  1  0  0  0  0
  3  4  1  0  0  0  0
  4  5  2  0  0  0  0
  4 10  1  0  0  0  0
  5 11  1  0  0  0  0
  6  5  1  0  0  0  0
  7  6  2  0  0  0  0
  8  7  1  0  0  0  0
  8  3  2  0  0  0  0
  9  3  1  0  0  0  0
 11 12  2  0  0  0  0
 11 19  1  0  0  0  0
 12 14  1  0  0  0  0
 13 12  1  0  0  0  0
 14 15  2  0  0  0  0
 15 17  1  0  0  0  0
 15 16  1  0  0  0  0
 17 18  1  0  0  0  0
 19 17  2  0  0  0  0
 20 22  1  0  0  0  0
 20 23  1  0  0  0  0
 20  2  1  0  0  0  0
 21 20  1  0  0  0  0
 23 26  1  6  0  0  0
 23 24  1  0  0  0  0
 24 28  1  0  0  0  0
 24 27  1  0  0  0  0
 25 29  1  6  0  0  0
 25 23  1  0  0  0  0
 25 24  1  0  0  0  0
 30 33  1  0  0  0  0
 30 25  1  0  0  0  0
 31 35  1  0  0  0  0
 31 34  1  0  0  0  0
 31 30  1  0  0  0  0
 32 31  1  0  0  0  0
 32 30  1  0  0  0  0
 36 32  1  0  0  0  0
 37 32  1  0  0  0  0
M  END
>  <minimizedAffinity>
-5.28703976

$$$$

 OpenBabel03252508163D

 37 40  0  0  1  0  0  0  0  0999 V2000
   38.5300   28.9670   41.8820 C   0  0  0  0  0  3  0  0  0  0  0  0
   37.7300   28.5110   42.7640 C   0  0  0  0  0  3  0  0  0  0  0  0
   37.6420   32.1930   40.3510 C   0  0  0  0  0  0  0  0  0  0  0  0
   37.0180   31.8280   39.1670 C   0  0  0  0  0  0  0  0  0  0  0  0
   36.9320   30.4930   38.9180 C   0  0  0  0  0  0  0  0  0  0  0  0
   37.4410   29.5950   39.8040 N   0  0  0  0  0  0  0  0  0  0  0  0
   38.0420   29.9720   40.9480 C   0  0  0  0  0  0  0  0  0  0  0  0
   38.1240   31.2770   41.1860 N   0  0  0  0  0  0  0  0  0  0  0  0
   37.7550   33.2200   40.6290 H   0  0  0  0  0  0  0  0  0  0  0  0
   36.6260   32.5740   38.4910 H   0  0  0  0  0  0  0  0  0  0  0  0
   36.3030   29.9640   37.7130 C   0  0  0  0  0  0  0  0  0  0  0  0
   35.1090   29.2830   37.6970 C   0  0  0  0  0  0  0  0  0  0  0  0
   34.5860   29.1170   38.6200 H   0  0  0  0  0  0  0  0  0  0  0  0
   34.5210   28.7850   36.5540 C   0  0  0  0  0  3  0  0  0  0  0  0
   35.1440   28.9650   35.3350 C   0  0  0  0  0  0  0  0  0  0  0  0
   34.7290   28.5970   34.4060 H   0  0  0  0  0  0  0  0  0  0  0  0
   36.3460   29.6410   35.2880 C   0  0  0  0  0  0  0  0  0  0  0  0
   36.9020   29.8270   34.3720 H   0  0  0  0  0  0  0  0  0  0  0  0
   36.8810   30.1140   36.4680 C   0  0  0  0  0  3  0  0  0  0  0  0
   38.3150   27.4720   43.7080 C   0  0  0  0  0  0  0  0  0  0  0  0
   37.5110   26.8010   44.0620 H   0  0  0  0  0  0  0  0  0  0  0  0
   38.7920   28.0680   44.5200 H   0  0  0  0  0  0  0  0  0  0  0  0
   39.4240   26.7230   43.0180 C   0  0  1  0  0  0  0  0  0  0  0  0
   39.9110   25.4900   43.6930 C   0  0  0  0  0  0  0  0  0  0  0  0
   39.1570   25.3750   42.4600 C   0  0  1  0  0  0  0  0  0  0  0  0
   40.1620   27.3380   42.4770 H   0  0  0  0  0  0  0  0  0  0  0  0
   41.0060   25.2830   43.7320 H   0  0  0  0  0  0  0  0  0  0  0  0
   39.4270   25.2060   44.6580 H   0  0  0  0  0  0  0  0  0  0  0  0
   39.7780   25.0840   41.5570 H   0  0  0  0  0  0  0  0  0  0  0  0
   37.7480   24.9350   42.3480 C   0  0  0  0  0  0  0  0  0  0  0  0
   37.5080   23.8190   41.2970 C   0  0  0  0  0  0  0  0  0  0  0  0
   37.0580   25.1960   40.9970 C   0  0  0  0  0  0  0  0  0  0  0  0
   37.1020   24.8850   43.2440 H   0  0  0  0  0  0  0  0  0  0  0  0
   38.3800   23.4420   40.7350 H   0  0  0  0  0  0  0  0  0  0  0  0
   36.7600   23.0500   41.5850 H   0  0  0  0  0  0  0  0  0  0  0  0
   37.6390   25.7890   40.2690 H   0  0  0  0  0  0  0  0  0  0  0  0
   35.9840   25.4610   41.0300 H   0  0  0  0  0  0  0  0  0  0  0  0
  1  2  2  0  0  0  0
  2 20  1  0  0  0  0
  3  9  1  0  0  0  0
  3  8  1  0  0  0  0
  4  3  2  0  0  0  0
  5  4  1  0  0  0  0
  5  6  2  0  0  0  0
  6  7  1  0  0  0  0
  7  8  2  0  0  0  0
  7  1  1  0  0  0  0
 10  4  1  0  0  0  0
 11  5  1  0  0  0  0
 12 11  1  0  0  0  0
 12 13  1  0  0  0  0
 14 12  2  0  0  0  0
 15 14  1  0  0  0  0
 16 15  1  0  0  0  0
 17 15  2  0  0  0  0
 17 19  1  0  0  0  0
 18 17  1  0  0  0  0
 19 11  2  0  0  0  0
 20 21  1  0  0  0  0
 20 22  1  0  0  0  0
 23 26  1  6  0  0  0
 23 24  1  0  0  0  0
 23 20  1  0  0  0  0
 24 27  1  0  0  0  0
 24 28  1  0  0  0  0
 25 29  1  6  0  0  0
 25 23  1  0  0  0  0
 25 24  1  0  0  0  0
 30 25  1  0  0  0  0
 30 33  1  0  0  0  0
 31 35  1  0  0  0  0
 31 30  1  0  0  0  0
 32 37  1  0  0  0  0
 32 31  1  0  0  0  0
 32 30  1  0  0  0  0
 34 31  1  0  0  0  0
 36 32  1  0  0  0  0
M  END
>  <minimizedAffinity>
-5.2262373

$$$$

 OpenBabel03252508163D

 37 40  0  0  1  0  0  0  0  0999 V2000
   37.1140   31.7050   40.6420 C   0  0  0  0  0  3  0  0  0  0  0  0
   36.8800   30.6550   39.9580 C   0  0  0  0  0  3  0  0  0  0  0  0
   39.3800   34.5810   40.2820 C   0  0  0  0  0  0  0  0  0  0  0  0
   40.3940   34.0940   39.4700 C   0  0  0  0  0  0  0  0  0  0  0  0
   40.2830   32.7950   39.0820 C   0  0  0  0  0  0  0  0  0  0  0  0
   39.2230   32.0460   39.4870 N   0  0  0  0  0  0  0  0  0  0  0  0
   38.2490   32.5390   40.2750 C   0  0  0  0  0  0  0  0  0  0  0  0
   38.3630   33.8090   40.6520 N   0  0  0  0  0  0  0  0  0  0  0  0
   39.3850   35.5920   40.6360 H   0  0  0  0  0  0  0  0  0  0  0  0
   41.2190   34.7250   39.1710 H   0  0  0  0  0  0  0  0  0  0  0  0
   41.2740   32.1490   38.2290 C   0  0  0  0  0  0  0  0  0  0  0  0
   42.4980   32.6910   37.9150 C   0  0  0  0  0  0  0  0  0  0  0  0
   42.7650   33.6530   38.3120 H   0  0  0  0  0  0  0  0  0  0  0  0
   43.4300   32.0750   37.1070 C   0  0  0  0  0  3  0  0  0  0  0  0
   43.1470   30.8370   36.5640 C   0  0  0  0  0  0  0  0  0  0  0  0
   43.8400   30.3070   35.9250 H   0  0  0  0  0  0  0  0  0  0  0  0
   41.9340   30.2430   36.8440 C   0  0  0  0  0  0  0  0  0  0  0  0
   41.6310   29.2710   36.4590 H   0  0  0  0  0  0  0  0  0  0  0  0
   41.0450   30.9120   37.6600 C   0  0  0  0  0  3  0  0  0  0  0  0
   35.6720   29.8410   40.3970 C   0  0  0  0  0  0  0  0  0  0  0  0
   34.7730   30.1940   39.8570 H   0  0  0  0  0  0  0  0  0  0  0  0
   35.6190   29.9890   41.5000 H   0  0  0  0  0  0  0  0  0  0  0  0
   35.9350   28.3760   40.1720 C   0  0  1  0  0  0  0  0  0  0  0  0
   37.3540   27.9810   39.9620 C   0  0  0  0  0  0  0  0  0  0  0  0
   36.6840   27.6030   41.1920 C   0  0  1  0  0  0  0  0  0  0  0  0
   35.1600   27.8250   39.6120 H   0  0  0  0  0  0  0  0  0  0  0  0
   37.6030   27.2310   39.1770 H   0  0  0  0  0  0  0  0  0  0  0  0
   38.1220   28.7900   39.9850 H   0  0  0  0  0  0  0  0  0  0  0  0
   36.4250   26.5030   41.2640 H   0  0  0  0  0  0  0  0  0  0  0  0
   36.8980   28.2270   42.5180 C   0  0  0  0  0  0  0  0  0  0  0  0
   37.8440   27.4300   43.4530 C   0  0  0  0  0  0  0  0  0  0  0  0
   36.3910   27.4310   43.7340 C   0  0  0  0  0  0  0  0  0  0  0  0
   36.9510   29.3270   42.6200 H   0  0  0  0  0  0  0  0  0  0  0  0
   38.2800   26.4900   43.0700 H   0  0  0  0  0  0  0  0  0  0  0  0
   38.5220   28.0470   44.0800 H   0  0  0  0  0  0  0  0  0  0  0  0
   35.8130   26.5190   43.5030 H   0  0  0  0  0  0  0  0  0  0  0  0
   35.9770   28.0190   44.5750 H   0  0  0  0  0  0  0  0  0  0  0  0
  2 20  1  0  0  0  0
  2  1  2  0  0  0  0
  3  9  1  0  0  0  0
  3  8  1  0  0  0  0
  4  3  2  0  0  0  0
  5  4  1  0  0  0  0
  5  6  2  0  0  0  0
  6  7  1  0  0  0  0
  7  1  1  0  0  0  0
  7  8  2  0  0  0  0
 10  4  1  0  0  0  0
 11  5  1  0  0  0  0
 12 11  1  0  0  0  0
 12 13  1  0  0  0  0
 14 12  2  0  0  0  0
 15 17  2  0  0  0  0
 15 14  1  0  0  0  0
 16 15  1  0  0  0  0
 17 19  1  0  0  0  0
 18 17  1  0  0  0  0
 19 11  2  0  0  0  0
 20 22  1  0  0  0  0
 21 20  1  0  0  0  0
 23 26  1  6  0  0  0
 23 20  1  0  0  0  0
 23 25  1  0  0  0  0
 24 28  1  0  0  0  0
 24 23  1  0  0  0  0
 24 25  1  0  0  0  0
 25 29  1  1  0  0  0
 25 30  1  0  0  0  0
 27 24  1  0  0  0  0
 30 33  1  0  0  0  0
 30 31  1  0  0  0  0
 30 32  1  0  0  0  0
 31 32  1  0  0  0  0
 31 35  1  0  0  0  0
 32 37  1  0  0  0  0
 34 31  1  0  0  0  0
 36 32  1  0  0  0  0
M  END
>  <minimizedAffinity>
-5.21073389

$$$$

 OpenBabel03252508163D

 37 40  0  0  1  0  0  0  0  0999 V2000
   34.4270   28.9850   39.2970 C   0  0  0  0  0  3  0  0  0  0  0  0
   34.6960   28.3540   38.2220 C   0  0  0  0  0  3  0  0  0  0  0  0
   36.8670   30.6930   41.4580 C   0  0  0  0  0  0  0  0  0  0  0  0
   37.6090   29.6500   41.9940 C   0  0  0  0  0  0  0  0  0  0  0  0
   37.2460   28.3950   41.6140 C   0  0  0  0  0  0  0  0  0  0  0  0
   36.2080   28.2110   40.7550 N   0  0  0  0  0  0  0  0  0  0  0  0
   35.5010   29.2380   40.2470 C   0  0  0  0  0  0  0  0  0  0  0  0
   35.8590   30.4610   40.6220 N   0  0  0  0  0  0  0  0  0  0  0  0
   37.0800   31.7130   41.7020 H   0  0  0  0  0  0  0  0  0  0  0  0
   38.4280   29.8410   42.6720 H   0  0  0  0  0  0  0  0  0  0  0  0
   37.9360   27.2050   42.0970 C   0  0  0  0  0  0  0  0  0  0  0  0
   37.7050   25.9320   41.6330 C   0  0  0  0  0  0  0  0  0  0  0  0
   36.9710   25.7780   40.8640 H   0  0  0  0  0  0  0  0  0  0  0  0
   38.3610   24.8110   42.0950 C   0  0  0  0  0  3  0  0  0  0  0  0
   39.3150   24.9410   43.0840 C   0  0  0  0  0  0  0  0  0  0  0  0
   39.8620   24.0980   43.4850 H   0  0  0  0  0  0  0  0  0  0  0  0
   39.5910   26.1950   43.5900 C   0  0  0  0  0  0  0  0  0  0  0  0
   40.3270   26.3870   44.3690 H   0  0  0  0  0  0  0  0  0  0  0  0
   38.8990   27.2760   43.0840 C   0  0  0  0  0  3  0  0  0  0  0  0
   33.5250   28.1380   37.2760 C   0  0  0  0  0  0  0  0  0  0  0  0
   32.6170   27.9020   37.8610 H   0  0  0  0  0  0  0  0  0  0  0  0
   33.8550   27.3100   36.6060 H   0  0  0  0  0  0  0  0  0  0  0  0
   33.3440   29.3500   36.4030 C   0  0  1  0  0  0  0  0  0  0  0  0
   32.6250   29.1410   35.1170 C   0  0  0  0  0  0  0  0  0  0  0  0
   31.9820   29.8930   36.1780 C   0  0  1  0  0  0  0  0  0  0  0  0
   34.1660   30.0860   36.4170 H   0  0  0  0  0  0  0  0  0  0  0  0
   32.9990   29.6370   34.1920 H   0  0  0  0  0  0  0  0  0  0  0  0
   32.2710   28.1070   34.8880 H   0  0  0  0  0  0  0  0  0  0  0  0
   31.9200   31.0080   35.9900 H   0  0  0  0  0  0  0  0  0  0  0  0
   30.8860   29.3990   37.0440 C   0  0  0  0  0  0  0  0  0  0  0  0
   29.7270   30.4100   37.2460 C   0  0  0  0  0  0  0  0  0  0  0  0
   30.6660   30.1600   38.3630 C   0  0  0  0  0  0  0  0  0  0  0  0
   30.5850   28.3350   37.0170 H   0  0  0  0  0  0  0  0  0  0  0  0
   29.8000   31.3880   36.7390 H   0  0  0  0  0  0  0  0  0  0  0  0
   28.7100   29.9650   37.2770 H   0  0  0  0  0  0  0  0  0  0  0  0
   31.4140   30.9360   38.6000 H   0  0  0  0  0  0  0  0  0  0  0  0
   30.3570   29.5580   39.2390 H   0  0  0  0  0  0  0  0  0  0  0  0
  1  7  1  0  0  0  0
  2  1  2  0  0  0  0
  3  9  1  0  0  0  0
  3  4  1  0  0  0  0
  4 10  1  0  0  0  0
  5  4  2  0  0  0  0
  5 11  1  0  0  0  0
  6  5  1  0  0  0  0
  7  8  1  0  0  0  0
  7  6  2  0  0  0  0
  8  3  2  0  0  0  0
 11 19  1  0  0  0  0
 12 14  1  0  0  0  0
 12 11  2  0  0  0  0
 13 12  1  0  0  0  0
 14 15  2  0  0  0  0
 15 16  1  0  0  0  0
 15 17  1  0  0  0  0
 17 18  1  0  0  0  0
 19 17  2  0  0  0  0
 20 21  1  0  0  0  0
 20  2  1  0  0  0  0
 22 20  1  0  0  0  0
 23 26  1  6  0  0  0
 23 20  1  0  0  0  0
 24 25  1  0  0  0  0
 24 23  1  0  0  0  0
 25 29  1  6  0  0  0
 25 23  1  0  0  0  0
 25 30  1  0  0  0  0
 27 24  1  0  0  0  0
 28 24  1  0  0  0  0
 30 31  1  0  0  0  0
 30 32  1  0  0  0  0
 31 35  1  0  0  0  0
 31 32  1  0  0  0  0
 32 36  1  0  0  0  0
 32 37  1  0  0  0  0
 33 30  1  0  0  0  0
 34 31  1  0  0  0  0
M  END
>  <minimizedAffinity>
-5.15293407

$$$$

 OpenBabel03252508163D

 37 40  0  0  1  0  0  0  0  0999 V2000
   35.4640   27.9590   38.0370 C   0  0  0  0  0  3  0  0  0  0  0  0
   35.7220   27.0910   38.9340 C   0  0  0  0  0  3  0  0  0  0  0  0
   32.7050   26.6730   35.9710 C   0  0  0  0  0  0  0  0  0  0  0  0
   31.8490   27.7600   35.8620 C   0  0  0  0  0  0  0  0  0  0  0  0
   32.2310   28.8950   36.5080 C   0  0  0  0  0  0  0  0  0  0  0  0
   33.3940   28.9240   37.2130 N   0  0  0  0  0  0  0  0  0  0  0  0
   34.2100   27.8570   37.3060 C   0  0  0  0  0  0  0  0  0  0  0  0
   33.8310   26.7510   36.6730 N   0  0  0  0  0  0  0  0  0  0  0  0
   32.4840   25.7390   35.4970 H   0  0  0  0  0  0  0  0  0  0  0  0
   30.9350   27.6930   35.2900 H   0  0  0  0  0  0  0  0  0  0  0  0
   31.4320   30.1140   36.4800 C   0  0  0  0  0  0  0  0  0  0  0  0
   30.6940   30.5810   37.5420 C   0  0  0  0  0  0  0  0  0  0  0  0
   30.6890   30.0290   38.4630 H   0  0  0  0  0  0  0  0  0  0  0  0
   29.9390   31.7350   37.5080 C   0  0  0  0  0  3  0  0  0  0  0  0
   29.9020   32.4890   36.3520 C   0  0  0  0  0  0  0  0  0  0  0  0
   29.3290   33.4030   36.2680 H   0  0  0  0  0  0  0  0  0  0  0  0
   30.6240   32.0700   35.2530 C   0  0  0  0  0  0  0  0  0  0  0  0
   30.6510   32.6040   34.3050 H   0  0  0  0  0  0  0  0  0  0  0  0
   31.3580   30.9070   35.3530 C   0  0  0  0  0  3  0  0  0  0  0  0
   37.0460   27.2700   39.6610 C   0  0  0  0  0  0  0  0  0  0  0  0
   37.0190   28.2030   40.2540 H   0  0  0  0  0  0  0  0  0  0  0  0
   37.8130   27.2760   38.8510 H   0  0  0  0  0  0  0  0  0  0  0  0
   37.3290   26.0600   40.5110 C   0  0  1  0  0  0  0  0  0  0  0  0
   38.6880   25.9740   41.1110 C   0  0  0  0  0  0  0  0  0  0  0  0
   37.5460   26.2260   41.9690 C   0  0  1  0  0  0  0  0  0  0  0  0
   36.8480   25.1200   40.1930 H   0  0  0  0  0  0  0  0  0  0  0  0
   39.2220   24.9960   41.1200 H   0  0  0  0  0  0  0  0  0  0  0  0
   39.4010   26.8050   40.8920 H   0  0  0  0  0  0  0  0  0  0  0  0
   37.2430   25.3470   42.6150 H   0  0  0  0  0  0  0  0  0  0  0  0
   37.1970   27.5300   42.5800 C   0  0  0  0  0  0  0  0  0  0  0  0
   37.7150   27.7150   44.0300 C   0  0  0  0  0  0  0  0  0  0  0  0
   36.2710   27.4790   43.8080 C   0  0  0  0  0  0  0  0  0  0  0  0
   37.1730   28.4500   41.9660 H   0  0  0  0  0  0  0  0  0  0  0  0
   38.2950   26.8910   44.4810 H   0  0  0  0  0  0  0  0  0  0  0  0
   38.0690   28.7370   44.2790 H   0  0  0  0  0  0  0  0  0  0  0  0
   35.8600   26.4850   44.0580 H   0  0  0  0  0  0  0  0  0  0  0  0
   35.5400   28.3020   43.9140 H   0  0  0  0  0  0  0  0  0  0  0  0
  1  2  2  0  0  0  0
  2 20  1  0  0  0  0
  3  8  1  0  0  0  0
  4  3  2  0  0  0  0
  4  5  1  0  0  0  0
  5  6  2  0  0  0  0
  6  7  1  0  0  0  0
  7  1  1  0  0  0  0
  8  7  2  0  0  0  0
  9  3  1  0  0  0  0
 10  4  1  0  0  0  0
 11  5  1  0  0  0  0
 11 12  1  0  0  0  0
 12 13  1  0  0  0  0
 14 12  2  0  0  0  0
 15 14  1  0  0  0  0
 16 15  1  0  0  0  0
 17 19  1  0  0  0  0
 17 15  2  0  0  0  0
 18 17  1  0  0  0  0
 19 11  2  0  0  0  0
 20 21  1  0  0  0  0
 20 23  1  0  0  0  0
 22 20  1  0  0  0  0
 23 26  1  6  0  0  0
 23 24  1  0  0  0  0
 23 25  1  0  0  0  0
 24 27  1  0  0  0  0
 24 25  1  0  0  0  0
 25 30  1  0  0  0  0
 25 29  1  1  0  0  0
 28 24  1  0  0  0  0
 30 32  1  0  0  0  0
 30 31  1  0  0  0  0
 31 35  1  0  0  0  0
 31 34  1  0  0  0  0
 32 37  1  0  0  0  0
 32 31  1  0  0  0  0
 32 36  1  0  0  0  0
 33 30  1  0  0  0  0
M  END
>  <minimizedAffinity>
-5.11351919

$$$$

 OpenBabel03252508163D

 37 40  0  0  1  0  0  0  0  0999 V2000
   33.8750   29.0580   37.5930 C   0  0  0  0  0  3  0  0  0  0  0  0
   33.6200   28.9230   36.3510 C   0  0  0  0  0  3  0  0  0  0  0  0
   37.5480   29.2720   37.5680 C   0  0  0  0  0  0  0  0  0  0  0  0
   37.8940   29.0450   38.8930 C   0  0  0  0  0  0  0  0  0  0  0  0
   36.8630   28.8420   39.7580 C   0  0  0  0  0  0  0  0  0  0  0  0
   35.5790   28.8660   39.3130 N   0  0  0  0  0  0  0  0  0  0  0  0
   35.2660   29.0870   38.0220 C   0  0  0  0  0  0  0  0  0  0  0  0
   36.2760   29.2870   37.1820 N   0  0  0  0  0  0  0  0  0  0  0  0
   38.2930   29.4430   36.8190 H   0  0  0  0  0  0  0  0  0  0  0  0
   38.9290   29.0330   39.2040 H   0  0  0  0  0  0  0  0  0  0  0  0
   37.0770   28.5910   41.1790 C   0  0  0  0  0  0  0  0  0  0  0  0
   37.8080   29.4080   42.0090 C   0  0  0  0  0  0  0  0  0  0  0  0
   38.2620   30.2950   41.6070 H   0  0  0  0  0  0  0  0  0  0  0  0
   38.0060   29.1640   43.3510 C   0  0  0  0  0  3  0  0  0  0  0  0
   37.4490   28.0400   43.9270 C   0  0  0  0  0  0  0  0  0  0  0  0
   37.5700   27.7990   44.9750 H   0  0  0  0  0  0  0  0  0  0  0  0
   36.7040   27.1820   43.1440 C   0  0  0  0  0  0  0  0  0  0  0  0
   36.2310   26.2770   43.5170 H   0  0  0  0  0  0  0  0  0  0  0  0
   36.5440   27.4840   41.8080 C   0  0  0  0  0  3  0  0  0  0  0  0
   32.1460   28.9120   35.9800 C   0  0  0  0  0  0  0  0  0  0  0  0
   31.5720   28.3840   36.7630 H   0  0  0  0  0  0  0  0  0  0  0  0
   32.1100   28.4120   34.9840 H   0  0  0  0  0  0  0  0  0  0  0  0
   31.6620   30.3220   35.7690 C   0  0  1  0  0  0  0  0  0  0  0  0
   30.4290   30.4850   34.9520 C   0  0  0  0  0  0  0  0  0  0  0  0
   30.3800   30.7530   36.3770 C   0  0  1  0  0  0  0  0  0  0  0  0
   32.4430   31.0950   35.6790 H   0  0  0  0  0  0  0  0  0  0  0  0
   30.3750   31.3060   34.2000 H   0  0  0  0  0  0  0  0  0  0  0  0
   29.9500   29.5590   34.5530 H   0  0  0  0  0  0  0  0  0  0  0  0
   30.3050   31.8510   36.6440 H   0  0  0  0  0  0  0  0  0  0  0  0
   29.7640   29.8750   37.3990 C   0  0  0  0  0  0  0  0  0  0  0  0
   28.9460   30.6280   38.4790 C   0  0  0  0  0  0  0  0  0  0  0  0
   30.2630   30.0590   38.8430 C   0  0  0  0  0  0  0  0  0  0  0  0
   29.3740   28.8780   37.1210 H   0  0  0  0  0  0  0  0  0  0  0  0
   28.8780   31.7280   38.4040 H   0  0  0  0  0  0  0  0  0  0  0  0
   28.0190   30.1170   38.8140 H   0  0  0  0  0  0  0  0  0  0  0  0
   31.1140   30.7510   38.9720 H   0  0  0  0  0  0  0  0  0  0  0  0
   30.3330   29.1470   39.4650 H   0  0  0  0  0  0  0  0  0  0  0  0
  1  7  1  0  0  0  0
  2  1  2  0  0  0  0
  3  4  1  0  0  0  0
  4 10  1  0  0  0  0
  4  5  2  0  0  0  0
  5 11  1  0  0  0  0
  6  5  1  0  0  0  0
  7  6  2  0  0  0  0
  8  3  2  0  0  0  0
  8  7  1  0  0  0  0
  9  3  1  0  0  0  0
 11 19  2  0  0  0  0
 11 12  1  0  0  0  0
 12 14  2  0  0  0  0
 13 12  1  0  0  0  0
 14 15  1  0  0  0  0
 15 16  1  0  0  0  0
 17 18  1  0  0  0  0
 17 15  2  0  0  0  0
 19 17  1  0  0  0  0
 20  2  1  0  0  0  0
 20 21  1  0  0  0  0
 22 20  1  0  0  0  0
 23 26  1  6  0  0  0
 23 20  1  0  0  0  0
 23 25  1  0  0  0  0
 24 23  1  0  0  0  0
 24 25  1  0  0  0  0
 25 29  1  1  0  0  0
 25 30  1  0  0  0  0
 27 24  1  0  0  0  0
 28 24  1  0  0  0  0
 30 31  1  0  0  0  0
 30 32  1  0  0  0  0
 31 35  1  0  0  0  0
 31 32  1  0  0  0  0
 32 36  1  0  0  0  0
 32 37  1  0  0  0  0
 33 30  1  0  0  0  0
 34 31  1  0  0  0  0
M  END
>  <minimizedAffinity>
-5.10532188

$$$$

 OpenBabel03252508163D

 37 40  0  0  1  0  0  0  0  0999 V2000
   39.3350   32.3330   40.3780 C   0  0  0  0  0  3  0  0  0  0  0  0
   39.0810   33.5550   40.6380 C   0  0  0  0  0  3  0  0  0  0  0  0
   36.1710   30.5870   41.0730 C   0  0  0  0  0  0  0  0  0  0  0  0
   36.5820   29.3780   41.6160 C   0  0  0  0  0  0  0  0  0  0  0  0
   37.9260   29.1880   41.7160 C   0  0  0  0  0  0  0  0  0  0  0  0
   38.7880   30.1520   41.2950 N   0  0  0  0  0  0  0  0  0  0  0  0
   38.3680   31.3180   40.7710 C   0  0  0  0  0  0  0  0  0  0  0  0
   37.0540   31.4980   40.6750 N   0  0  0  0  0  0  0  0  0  0  0  0
   35.1340   30.8230   40.9550 H   0  0  0  0  0  0  0  0  0  0  0  0
   35.8620   28.6400   41.9390 H   0  0  0  0  0  0  0  0  0  0  0  0
   38.5010   27.9660   42.2660 C   0  0  0  0  0  0  0  0  0  0  0  0
   39.4350   27.9350   43.2750 C   0  0  0  0  0  0  0  0  0  0  0  0
   39.7800   28.8590   43.7000 H   0  0  0  0  0  0  0  0  0  0  0  0
   39.9750   26.7760   43.7900 C   0  0  0  0  0  3  0  0  0  0  0  0
   39.5740   25.5560   43.2840 C   0  0  0  0  0  0  0  0  0  0  0  0
   39.9620   24.6140   43.6500 H   0  0  0  0  0  0  0  0  0  0  0  0
   38.6380   25.5230   42.2710 C   0  0  0  0  0  0  0  0  0  0  0  0
   38.2670   24.6070   41.8160 H   0  0  0  0  0  0  0  0  0  0  0  0
   38.1370   26.7190   41.8000 C   0  0  0  0  0  3  0  0  0  0  0  0
   40.1330   34.5550   40.1890 C   0  0  0  0  0  0  0  0  0  0  0  0
   40.5590   35.0670   41.0720 H   0  0  0  0  0  0  0  0  0  0  0  0
   39.5930   35.2380   39.4930 H   0  0  0  0  0  0  0  0  0  0  0  0
   41.1860   33.8560   39.3710 C   0  0  1  0  0  0  0  0  0  0  0  0
   42.0740   34.7230   38.5510 C   0  0  0  0  0  0  0  0  0  0  0  0
   42.6180   34.0420   39.7110 C   0  0  1  0  0  0  0  0  0  0  0  0
   40.9060   32.8720   38.9590 H   0  0  0  0  0  0  0  0  0  0  0  0
   42.3370   34.4130   37.5130 H   0  0  0  0  0  0  0  0  0  0  0  0
   41.9020   35.8250   38.5950 H   0  0  0  0  0  0  0  0  0  0  0  0
   43.3000   33.1720   39.4650 H   0  0  0  0  0  0  0  0  0  0  0  0
   42.9490   34.6770   41.0070 C   0  0  0  0  0  0  0  0  0  0  0  0
   44.4270   34.5050   41.4440 C   0  0  0  0  0  0  0  0  0  0  0  0
   43.3770   33.7270   42.1400 C   0  0  0  0  0  0  0  0  0  0  0  0
   42.4780   35.6340   41.3010 H   0  0  0  0  0  0  0  0  0  0  0  0
   45.1030   33.9470   40.7730 H   0  0  0  0  0  0  0  0  0  0  0  0
   44.8780   35.3860   41.9480 H   0  0  0  0  0  0  0  0  0  0  0  0
   43.2930   32.6480   41.9190 H   0  0  0  0  0  0  0  0  0  0  0  0
   43.0570   33.9970   43.1640 H   0  0  0  0  0  0  0  0  0  0  0  0
  1  2  2  0  0  0  0
  1  7  1  0  0  0  0
  3  4  1  0  0  0  0
  4  5  2  0  0  0  0
  4 10  1  0  0  0  0
  5 11  1  0  0  0  0
  6  5  1  0  0  0  0
  7  6  2  0  0  0  0
  8  7  1  0  0  0  0
  8  3  2  0  0  0  0
  9  3  1  0  0  0  0
 11 12  1  0  0  0  0
 12 13  1  0  0  0  0
 12 14  2  0  0  0  0
 15 16  1  0  0  0  0
 15 14  1  0  0  0  0
 17 15  2  0  0  0  0
 18 17  1  0  0  0  0
 19 11  2  0  0  0  0
 19 17  1  0  0  0  0
 20  2  1  0  0  0  0
 20 21  1  0  0  0  0
 22 20  1  0  0  0  0
 23 26  1  6  0  0  0
 23 25  1  0  0  0  0
 23 20  1  0  0  0  0
 24 28  1  0  0  0  0
 24 23  1  0  0  0  0
 24 25  1  0  0  0  0
 25 29  1  6  0  0  0
 25 30  1  0  0  0  0
 27 24  1  0  0  0  0
 30 33  1  0  0  0  0
 30 31  1  0  0  0  0
 30 32  1  0  0  0  0
 31 35  1  0  0  0  0
 31 32  1  0  0  0  0
 32 37  1  0  0  0  0
 34 31  1  0  0  0  0
 36 32  1  0  0  0  0
M  END
>  <minimizedAffinity>
-5.09960747

$$$$
