
 OpenBabel03252506493D

 29 31  0  0  0  0  0  0  0  0999 V2000
   38.1460   26.7080   43.0360 C   0  0  0  0  0  0  0  0  0  0  0  0
   39.3650   26.3660   43.6340 C   0  0  0  0  0  0  0  0  0  0  0  0
   39.9570   25.1410   43.2970 C   0  0  0  0  0  0  0  0  0  0  0  0
   39.3060   24.3450   42.4010 N   0  0  0  0  0  0  0  0  0  0  0  0
   38.1350   24.7110   41.8500 C   0  0  0  0  0  0  0  0  0  0  0  0
   37.5360   25.8790   42.1480 N   0  0  0  0  0  0  0  0  0  0  0  0
   39.8620   27.0000   44.3350 H   0  0  0  0  0  0  0  0  0  0  0  0
   40.9040   24.8350   43.7370 H   0  0  0  0  0  0  0  0  0  0  0  0
   37.5300   23.7800   40.9040 C   0  0  0  0  0  0  0  0  0  0  0  0
   38.1770   22.6690   40.4060 C   0  0  0  0  0  0  0  0  0  0  0  0
   39.2030   22.4620   40.7320 H   0  0  0  0  0  0  0  0  0  0  0  0
   37.6080   21.7860   39.5110 C   0  0  0  0  0  3  0  0  0  0  0  0
   36.3160   22.0300   39.0890 C   0  0  0  0  0  0  0  0  0  0  0  0
   35.7750   21.4060   38.3920 H   0  0  0  0  0  0  0  0  0  0  0  0
   35.6320   23.1440   39.5710 C   0  0  0  0  0  0  0  0  0  0  0  0
   34.6100   23.3620   39.2550 H   0  0  0  0  0  0  0  0  0  0  0  0
   36.2350   24.0230   40.4790 C   0  0  0  0  0  3  0  0  0  0  0  0
   37.4760   28.2910   43.5330 S   0  0  0  0  0  0  0  0  0  0  0  0
   35.7880   29.3760   41.0440 Cl  0  0  0  0  0  0  0  0  0  0  0  0
   37.3350   30.1450   41.4130 C   0  0  0  0  0  0  0  0  0  0  0  0
   37.9880   29.6240   42.4870 C   0  0  0  0  0  0  0  0  0  0  0  0
   39.2110   30.1810   42.8360 C   0  0  0  0  0  0  0  0  0  0  0  0
   39.7200   31.2460   42.0770 C   0  0  0  0  0  0  0  0  0  0  0  0
   39.0520   31.7690   40.9900 C   0  0  0  0  0  0  0  0  0  0  0  0
   37.8210   31.1890   40.6590 C   0  0  0  0  0  0  0  0  0  0  0  0
   36.8780   31.7670   39.2980 Cl  0  0  0  0  0  0  0  0  0  0  0  0
   39.8130   29.8610   43.6530 H   0  0  0  0  0  0  0  0  0  0  0  0
   40.6690   31.7050   42.3200 H   0  0  0  0  0  0  0  0  0  0  0  0
   39.4390   32.5770   40.4160 H   0  0  0  0  0  0  0  0  0  0  0  0
  1 18  1  0  0  0  0
  1  2  1  0  0  0  0
  2  7  1  0  0  0  0
  3  2  2  0  0  0  0
  3  8  1  0  0  0  0
  4  3  1  0  0  0  0
  5  6  1  0  0  0  0
  5  4  2  0  0  0  0
  6  1  2  0  0  0  0
  9  5  1  0  0  0  0
 10 11  1  0  0  0  0
 10  9  2  0  0  0  0
 12 10  1  0  0  0  0
 13 12  2  0  0  0  0
 13 15  1  0  0  0  0
 14 13  1  0  0  0  0
 15 17  2  0  0  0  0
 16 15  1  0  0  0  0
 17  9  1  0  0  0  0
 19 20  1  0  0  0  0
 20 21  1  0  0  0  0
 21 22  2  0  0  0  0
 21 18  1  0  0  0  0
 22 27  1  0  0  0  0
 23 28  1  0  0  0  0
 23 22  1  0  0  0  0
 24 23  2  0  0  0  0
 25 24  1  0  0  0  0
 25 20  2  0  0  0  0
 26 25  1  0  0  0  0
 29 24  1  0  0  0  0
M  END
>  <minimizedAffinity>
-5.80237007

$$$$

 OpenBabel03252506493D

 29 31  0  0  0  0  0  0  0  0999 V2000
   38.2680   26.8430   43.0250 C   0  0  0  0  0  0  0  0  0  0  0  0
   39.4480   26.4690   43.6790 C   0  0  0  0  0  0  0  0  0  0  0  0
   39.9960   25.2090   43.4040 C   0  0  0  0  0  0  0  0  0  0  0  0
   39.3430   24.4110   42.5110 N   0  0  0  0  0  0  0  0  0  0  0  0
   38.2100   24.8090   41.9040 C   0  0  0  0  0  0  0  0  0  0  0  0
   37.6540   26.0120   42.1410 N   0  0  0  0  0  0  0  0  0  0  0  0
   39.9480   27.1050   44.3760 H   0  0  0  0  0  0  0  0  0  0  0  0
   40.9120   24.8760   43.8890 H   0  0  0  0  0  0  0  0  0  0  0  0
   37.5990   23.8740   40.9670 C   0  0  0  0  0  0  0  0  0  0  0  0
   36.3440   24.0490   40.4230 C   0  0  0  0  0  0  0  0  0  0  0  0
   35.7650   24.9370   40.7020 H   0  0  0  0  0  0  0  0  0  0  0  0
   35.7620   23.1670   39.5360 C   0  0  0  0  0  3  0  0  0  0  0  0
   36.4760   22.0440   39.1720 C   0  0  0  0  0  0  0  0  0  0  0  0
   36.1190   21.2890   38.4860 H   0  0  0  0  0  0  0  0  0  0  0  0
   37.7490   21.8340   39.7030 C   0  0  0  0  0  0  0  0  0  0  0  0
   38.3360   20.9540   39.4330 H   0  0  0  0  0  0  0  0  0  0  0  0
   38.3140   22.7460   40.6010 C   0  0  0  0  0  3  0  0  0  0  0  0
   37.6530   28.4700   43.4450 S   0  0  0  0  0  0  0  0  0  0  0  0
   39.6290   30.8090   42.5260 Cl  0  0  0  0  0  0  0  0  0  0  0  0
   38.1730   30.5140   41.5710 C   0  0  0  0  0  0  0  0  0  0  0  0
   37.3870   29.5020   42.0300 C   0  0  0  0  0  0  0  0  0  0  0  0
   36.2250   29.2130   41.3280 C   0  0  0  0  0  0  0  0  0  0  0  0
   35.9090   29.9650   40.1870 C   0  0  0  0  0  0  0  0  0  0  0  0
   36.7100   30.9900   39.7280 C   0  0  0  0  0  0  0  0  0  0  0  0
   37.8760   31.2610   40.4540 C   0  0  0  0  0  0  0  0  0  0  0  0
   38.9750   32.5390   39.9690 Cl  0  0  0  0  0  0  0  0  0  0  0  0
   35.5330   28.4470   41.5880 H   0  0  0  0  0  0  0  0  0  0  0  0
   35.0120   29.7680   39.6160 H   0  0  0  0  0  0  0  0  0  0  0  0
   36.4690   31.5600   38.8630 H   0  0  0  0  0  0  0  0  0  0  0  0
  1 18  1  0  0  0  0
  1  2  1  0  0  0  0
  2  7  1  0  0  0  0
  3  2  2  0  0  0  0
  3  8  1  0  0  0  0
  4  3  1  0  0  0  0
  5  6  1  0  0  0  0
  5  4  2  0  0  0  0
  6  1  2  0  0  0  0
  9  5  1  0  0  0  0
 10 11  1  0  0  0  0
 10  9  2  0  0  0  0
 12 10  1  0  0  0  0
 13 12  2  0  0  0  0
 13 15  1  0  0  0  0
 14 13  1  0  0  0  0
 15 17  2  0  0  0  0
 16 15  1  0  0  0  0
 17  9  1  0  0  0  0
 20 21  1  0  0  0  0
 20 19  1  0  0  0  0
 21 18  1  0  0  0  0
 22 27  1  0  0  0  0
 22 21  2  0  0  0  0
 23 22  1  0  0  0  0
 24 23  2  0  0  0  0
 24 25  1  0  0  0  0
 25 20  2  0  0  0  0
 26 25  1  0  0  0  0
 28 23  1  0  0  0  0
 29 24  1  0  0  0  0
M  END
>  <minimizedAffinity>
-5.73262691

$$$$

 OpenBabel03252506493D

 29 31  0  0  0  0  0  0  0  0999 V2000
   36.5220   28.8170   41.5450 C   0  0  0  0  0  0  0  0  0  0  0  0
   37.1430   30.0560   41.7440 C   0  0  0  0  0  0  0  0  0  0  0  0
   37.0840   31.0090   40.7190 C   0  0  0  0  0  0  0  0  0  0  0  0
   36.4210   30.6740   39.5750 N   0  0  0  0  0  0  0  0  0  0  0  0
   35.8380   29.4710   39.4230 C   0  0  0  0  0  0  0  0  0  0  0  0
   35.8730   28.5300   40.3860 N   0  0  0  0  0  0  0  0  0  0  0  0
   37.6580   30.3050   42.6470 H   0  0  0  0  0  0  0  0  0  0  0  0
   37.5520   31.9850   40.8310 H   0  0  0  0  0  0  0  0  0  0  0  0
   35.1570   29.2220   38.1580 C   0  0  0  0  0  0  0  0  0  0  0  0
   35.7680   29.3330   36.9270 C   0  0  0  0  0  0  0  0  0  0  0  0
   36.8240   29.6240   36.8840 H   0  0  0  0  0  0  0  0  0  0  0  0
   35.1270   29.0980   35.7280 C   0  0  0  0  0  3  0  0  0  0  0  0
   33.7970   28.7300   35.7620 C   0  0  0  0  0  0  0  0  0  0  0  0
   33.2000   28.5220   34.8860 H   0  0  0  0  0  0  0  0  0  0  0  0
   33.1470   28.6080   36.9890 C   0  0  0  0  0  0  0  0  0  0  0  0
   32.0960   28.3190   37.0460 H   0  0  0  0  0  0  0  0  0  0  0  0
   33.8230   28.8530   38.1900 C   0  0  0  0  0  3  0  0  0  0  0  0
   36.6550   27.6730   42.9140 S   0  0  0  0  0  0  0  0  0  0  0  0
   39.8060   27.6000   43.4480 Cl  0  0  0  0  0  0  0  0  0  0  0  0
   39.0360   26.1690   42.7580 C   0  0  0  0  0  0  0  0  0  0  0  0
   37.6940   26.2830   42.5630 C   0  0  0  0  0  0  0  0  0  0  0  0
   37.0210   25.1950   42.0230 C   0  0  0  0  0  0  0  0  0  0  0  0
   37.7410   24.0350   41.7040 C   0  0  0  0  0  0  0  0  0  0  0  0
   39.1010   23.9250   41.9040 C   0  0  0  0  0  0  0  0  0  0  0  0
   39.7560   25.0370   42.4490 C   0  0  0  0  0  0  0  0  0  0  0  0
   41.4830   25.0200   42.7500 Cl  0  0  0  0  0  0  0  0  0  0  0  0
   35.9750   25.1650   41.8260 H   0  0  0  0  0  0  0  0  0  0  0  0
   37.2500   23.1680   41.2820 H   0  0  0  0  0  0  0  0  0  0  0  0
   39.6460   23.0450   41.6610 H   0  0  0  0  0  0  0  0  0  0  0  0
  1  2  1  0  0  0  0
  1 18  1  0  0  0  0
  2  7  1  0  0  0  0
  3  8  1  0  0  0  0
  3  2  2  0  0  0  0
  4  3  1  0  0  0  0
  5  4  2  0  0  0  0
  5  6  1  0  0  0  0
  6  1  2  0  0  0  0
  9 17  1  0  0  0  0
  9  5  1  0  0  0  0
 10  9  2  0  0  0  0
 11 10  1  0  0  0  0
 12 13  2  0  0  0  0
 12 10  1  0  0  0  0
 13 15  1  0  0  0  0
 14 13  1  0  0  0  0
 15 16  1  0  0  0  0
 15 17  2  0  0  0  0
 20 19  1  0  0  0  0
 21 20  1  0  0  0  0
 21 18  1  0  0  0  0
 22 21  2  0  0  0  0
 23 24  2  0  0  0  0
 23 22  1  0  0  0  0
 24 25  1  0  0  0  0
 25 26  1  0  0  0  0
 25 20  2  0  0  0  0
 27 22  1  0  0  0  0
 28 23  1  0  0  0  0
 29 24  1  0  0  0  0
M  END
>  <minimizedAffinity>
-5.5857439

$$$$

 OpenBabel03252506493D

 29 31  0  0  0  0  0  0  0  0999 V2000
   33.9770   27.7060   37.1710 C   0  0  0  0  0  0  0  0  0  0  0  0
   33.4730   26.5430   36.5740 C   0  0  0  0  0  0  0  0  0  0  0  0
   32.2750   26.6240   35.8540 C   0  0  0  0  0  0  0  0  0  0  0  0
   31.6600   27.8390   35.7740 N   0  0  0  0  0  0  0  0  0  0  0  0
   32.1770   28.9330   36.3630 C   0  0  0  0  0  0  0  0  0  0  0  0
   33.3270   28.8950   37.0630 N   0  0  0  0  0  0  0  0  0  0  0  0
   33.9670   25.5980   36.6450 H   0  0  0  0  0  0  0  0  0  0  0  0
   31.8470   25.7460   35.3730 H   0  0  0  0  0  0  0  0  0  0  0  0
   31.4340   30.1780   36.2120 C   0  0  0  0  0  0  0  0  0  0  0  0
   30.6770   30.7430   37.2160 C   0  0  0  0  0  0  0  0  0  0  0  0
   30.6240   30.2370   38.1870 H   0  0  0  0  0  0  0  0  0  0  0  0
   29.9730   31.9210   37.0780 C   0  0  0  0  0  3  0  0  0  0  0  0
   30.0290   32.5730   35.8620 C   0  0  0  0  0  0  0  0  0  0  0  0
   29.5180   33.5000   35.6430 H   0  0  0  0  0  0  0  0  0  0  0  0
   30.7840   32.0310   34.8230 C   0  0  0  0  0  0  0  0  0  0  0  0
   30.8470   32.5250   33.8520 H   0  0  0  0  0  0  0  0  0  0  0  0
   31.4890   30.8340   34.9930 C   0  0  0  0  0  3  0  0  0  0  0  0
   35.5110   27.4950   38.0660 S   0  0  0  0  0  0  0  0  0  0  0  0
   36.7330   30.1820   36.8370 Cl  0  0  0  0  0  0  0  0  0  0  0  0
   36.4850   30.0910   38.5830 C   0  0  0  0  0  0  0  0  0  0  0  0
   35.9610   28.9150   39.0230 C   0  0  0  0  0  0  0  0  0  0  0  0
   35.7380   28.7730   40.3870 C   0  0  0  0  0  0  0  0  0  0  0  0
   36.0570   29.8340   41.2460 C   0  0  0  0  0  0  0  0  0  0  0  0
   36.5870   31.0240   40.7940 C   0  0  0  0  0  0  0  0  0  0  0  0
   36.8020   31.1410   39.4140 C   0  0  0  0  0  0  0  0  0  0  0  0
   37.4710   32.6050   38.7180 Cl  0  0  0  0  0  0  0  0  0  0  0  0
   35.3340   27.9030   40.8480 H   0  0  0  0  0  0  0  0  0  0  0  0
   35.8960   29.7590   42.3140 H   0  0  0  0  0  0  0  0  0  0  0  0
   36.8280   31.8280   41.4470 H   0  0  0  0  0  0  0  0  0  0  0  0
  1 18  1  0  0  0  0
  2  7  1  0  0  0  0
  2  1  2  0  0  0  0
  3  2  1  0  0  0  0
  4  3  2  0  0  0  0
  4  5  1  0  0  0  0
  5  6  2  0  0  0  0
  6  1  1  0  0  0  0
  8  3  1  0  0  0  0
  9  5  1  0  0  0  0
  9 10  1  0  0  0  0
 10 11  1  0  0  0  0
 12 10  2  0  0  0  0
 13 12  1  0  0  0  0
 14 13  1  0  0  0  0
 15 17  1  0  0  0  0
 15 13  2  0  0  0  0
 16 15  1  0  0  0  0
 17  9  2  0  0  0  0
 18 21  1  0  0  0  0
 19 20  1  0  0  0  0
 20 21  2  0  0  0  0
 20 25  1  0  0  0  0
 21 22  1  0  0  0  0
 22 27  1  0  0  0  0
 22 23  2  0  0  0  0
 23 28  1  0  0  0  0
 24 23  1  0  0  0  0
 24 29  1  0  0  0  0
 25 24  2  0  0  0  0
 26 25  1  0  0  0  0
M  END
>  <minimizedAffinity>
-5.45578146

$$$$

 OpenBabel03252506493D

 29 31  0  0  0  0  0  0  0  0999 V2000
   38.6010   30.4600   41.3050 C   0  0  0  0  0  0  0  0  0  0  0  0
   39.3200   31.6450   41.1060 C   0  0  0  0  0  0  0  0  0  0  0  0
   39.1990   32.3040   39.8760 C   0  0  0  0  0  0  0  0  0  0  0  0
   38.3840   31.7500   38.9330 N   0  0  0  0  0  0  0  0  0  0  0  0
   37.7110   30.6090   39.1640 C   0  0  0  0  0  0  0  0  0  0  0  0
   37.8000   29.9470   40.3340 N   0  0  0  0  0  0  0  0  0  0  0  0
   39.9550   32.0670   41.8540 H   0  0  0  0  0  0  0  0  0  0  0  0
   39.7390   33.2280   39.6780 H   0  0  0  0  0  0  0  0  0  0  0  0
   36.8680   30.1080   38.0850 C   0  0  0  0  0  0  0  0  0  0  0  0
   37.1990   30.2050   36.7500 C   0  0  0  0  0  0  0  0  0  0  0  0
   38.1460   30.6820   36.4720 H   0  0  0  0  0  0  0  0  0  0  0  0
   36.4050   29.7330   35.7250 C   0  0  0  0  0  3  0  0  0  0  0  0
   35.2090   29.1280   36.0550 C   0  0  0  0  0  0  0  0  0  0  0  0
   34.5110   28.7230   35.3360 H   0  0  0  0  0  0  0  0  0  0  0  0
   34.8410   29.0120   37.3950 C   0  0  0  0  0  0  0  0  0  0  0  0
   33.9020   28.5390   37.6860 H   0  0  0  0  0  0  0  0  0  0  0  0
   35.6680   29.5010   38.4140 C   0  0  0  0  0  3  0  0  0  0  0  0
   38.8240   29.6980   42.9090 S   0  0  0  0  0  0  0  0  0  0  0  0
   36.3870   27.7080   42.3420 Cl  0  0  0  0  0  0  0  0  0  0  0  0
   37.9940   27.0210   42.5950 C   0  0  0  0  0  0  0  0  0  0  0  0
   38.9740   27.9360   42.8290 C   0  0  0  0  0  0  0  0  0  0  0  0
   40.2640   27.4670   43.0350 C   0  0  0  0  0  0  0  0  0  0  0  0
   40.5050   26.0860   42.9950 C   0  0  0  0  0  0  0  0  0  0  0  0
   39.5080   25.1640   42.7570 C   0  0  0  0  0  0  0  0  0  0  0  0
   38.2150   25.6630   42.5520 C   0  0  0  0  0  0  0  0  0  0  0  0
   36.8630   24.5910   42.2410 Cl  0  0  0  0  0  0  0  0  0  0  0  0
   41.1110   28.0830   43.2270 H   0  0  0  0  0  0  0  0  0  0  0  0
   41.4980   25.6840   43.1520 H   0  0  0  0  0  0  0  0  0  0  0  0
   39.6920   24.1170   42.7270 H   0  0  0  0  0  0  0  0  0  0  0  0
  1 18  1  0  0  0  0
  2  1  1  0  0  0  0
  2  7  1  0  0  0  0
  3  2  2  0  0  0  0
  4  5  2  0  0  0  0
  4  3  1  0  0  0  0
  5  6  1  0  0  0  0
  6  1  2  0  0  0  0
  8  3  1  0  0  0  0
  9 17  1  0  0  0  0
  9  5  1  0  0  0  0
 10  9  2  0  0  0  0
 11 10  1  0  0  0  0
 12 13  2  0  0  0  0
 12 10  1  0  0  0  0
 13 15  1  0  0  0  0
 14 13  1  0  0  0  0
 15 16  1  0  0  0  0
 15 17  2  0  0  0  0
 19 20  1  0  0  0  0
 20 21  1  0  0  0  0
 21 18  1  0  0  0  0
 21 22  2  0  0  0  0
 22 27  1  0  0  0  0
 23 22  1  0  0  0  0
 23 28  1  0  0  0  0
 24 23  2  0  0  0  0
 25 20  2  0  0  0  0
 25 24  1  0  0  0  0
 26 25  1  0  0  0  0
 29 24  1  0  0  0  0
M  END
>  <minimizedAffinity>
-5.396595

$$$$

 OpenBabel03252506493D

 29 31  0  0  0  0  0  0  0  0999 V2000
   36.6250   29.8040   39.2010 C   0  0  0  0  0  0  0  0  0  0  0  0
   36.2060   29.5080   37.8980 C   0  0  0  0  0  0  0  0  0  0  0  0
   36.8360   30.1560   36.8270 C   0  0  0  0  0  0  0  0  0  0  0  0
   37.8280   31.0460   37.1160 N   0  0  0  0  0  0  0  0  0  0  0  0
   38.2010   31.3020   38.3830 C   0  0  0  0  0  0  0  0  0  0  0  0
   37.6190   30.6990   39.4380 N   0  0  0  0  0  0  0  0  0  0  0  0
   35.4270   28.8080   37.6870 H   0  0  0  0  0  0  0  0  0  0  0  0
   36.5430   29.9560   35.7980 H   0  0  0  0  0  0  0  0  0  0  0  0
   39.2720   32.2720   38.5740 C   0  0  0  0  0  0  0  0  0  0  0  0
   40.4020   32.3270   37.7860 C   0  0  0  0  0  0  0  0  0  0  0  0
   40.5120   31.6060   36.9670 H   0  0  0  0  0  0  0  0  0  0  0  0
   41.4190   33.2430   37.9630 C   0  0  0  0  0  3  0  0  0  0  0  0
   41.2990   34.1580   38.9890 C   0  0  0  0  0  0  0  0  0  0  0  0
   42.0320   34.9180   39.2170 H   0  0  0  0  0  0  0  0  0  0  0  0
   40.1690   34.1330   39.8060 C   0  0  0  0  0  0  0  0  0  0  0  0
   40.0470   34.8440   40.6250 H   0  0  0  0  0  0  0  0  0  0  0  0
   39.1540   33.1920   39.6030 C   0  0  0  0  0  3  0  0  0  0  0  0
   35.7570   28.9220   40.4940 S   0  0  0  0  0  0  0  0  0  0  0  0
   36.6530   25.8720   40.1550 Cl  0  0  0  0  0  0  0  0  0  0  0  0
   37.2700   26.7820   41.5370 C   0  0  0  0  0  0  0  0  0  0  0  0
   36.8410   28.0720   41.6060 C   0  0  0  0  0  0  0  0  0  0  0  0
   37.2870   28.8480   42.6670 C   0  0  0  0  0  0  0  0  0  0  0  0
   38.1520   28.2810   43.6150 C   0  0  0  0  0  0  0  0  0  0  0  0
   38.5830   26.9730   43.5380 C   0  0  0  0  0  0  0  0  0  0  0  0
   38.1180   26.2120   42.4580 C   0  0  0  0  0  0  0  0  0  0  0  0
   38.5960   24.5370   42.2520 Cl  0  0  0  0  0  0  0  0  0  0  0  0
   37.0220   29.8670   42.8280 H   0  0  0  0  0  0  0  0  0  0  0  0
   38.5200   28.8560   44.4540 H   0  0  0  0  0  0  0  0  0  0  0  0
   39.2390   26.5440   44.2570 H   0  0  0  0  0  0  0  0  0  0  0  0
  1  6  1  0  0  0  0
  1 18  1  0  0  0  0
  2  1  2  0  0  0  0
  3  4  2  0  0  0  0
  3  2  1  0  0  0  0
  4  5  1  0  0  0  0
  5  9  1  0  0  0  0
  5  6  2  0  0  0  0
  7  2  1  0  0  0  0
  8  3  1  0  0  0  0
  9 17  1  0  0  0  0
 10 12  1  0  0  0  0
 10  9  2  0  0  0  0
 11 10  1  0  0  0  0
 12 13  2  0  0  0  0
 13 14  1  0  0  0  0
 13 15  1  0  0  0  0
 15 16  1  0  0  0  0
 17 15  2  0  0  0  0
 18 21  1  0  0  0  0
 19 20  1  0  0  0  0
 20 21  2  0  0  0  0
 20 25  1  0  0  0  0
 21 22  1  0  0  0  0
 22 27  1  0  0  0  0
 22 23  2  0  0  0  0
 23 28  1  0  0  0  0
 24 23  1  0  0  0  0
 24 29  1  0  0  0  0
 25 24  2  0  0  0  0
 26 25  1  0  0  0  0
M  END
>  <minimizedAffinity>
-5.37990141

$$$$

 OpenBabel03252506493D

 29 31  0  0  0  0  0  0  0  0999 V2000
   38.0760   31.2490   39.4970 C   0  0  0  0  0  0  0  0  0  0  0  0
   37.1980   32.2820   39.8480 C   0  0  0  0  0  0  0  0  0  0  0  0
   37.7060   33.5830   39.9660 C   0  0  0  0  0  0  0  0  0  0  0  0
   39.0370   33.7700   39.7340 N   0  0  0  0  0  0  0  0  0  0  0  0
   39.8470   32.7500   39.4000 C   0  0  0  0  0  0  0  0  0  0  0  0
   39.3960   31.4870   39.2750 N   0  0  0  0  0  0  0  0  0  0  0  0
   36.1580   32.1200   40.0270 H   0  0  0  0  0  0  0  0  0  0  0  0
   37.0600   34.4160   40.2360 H   0  0  0  0  0  0  0  0  0  0  0  0
   41.2520   33.0670   39.1740 C   0  0  0  0  0  0  0  0  0  0  0  0
   41.7000   33.8570   38.1370 C   0  0  0  0  0  0  0  0  0  0  0  0
   40.9680   34.2770   37.4370 H   0  0  0  0  0  0  0  0  0  0  0  0
   43.0280   34.1600   37.9200 C   0  0  0  0  0  3  0  0  0  0  0  0
   43.9640   33.6420   38.7920 C   0  0  0  0  0  0  0  0  0  0  0  0
   45.0290   33.8140   38.7180 H   0  0  0  0  0  0  0  0  0  0  0  0
   43.5480   32.8380   39.8530 C   0  0  0  0  0  0  0  0  0  0  0  0
   44.2660   32.4150   40.5580 H   0  0  0  0  0  0  0  0  0  0  0  0
   42.1930   32.5480   40.0480 C   0  0  0  0  0  3  0  0  0  0  0  0
   37.3270   29.6290   39.3710 S   0  0  0  0  0  0  0  0  0  0  0  0
   36.6660   26.5110   39.6210 Cl  0  0  0  0  0  0  0  0  0  0  0  0
   37.1170   27.3960   41.0810 C   0  0  0  0  0  0  0  0  0  0  0  0
   37.3820   28.7160   40.8870 C   0  0  0  0  0  0  0  0  0  0  0  0
   37.7450   29.4740   41.9930 C   0  0  0  0  0  0  0  0  0  0  0  0
   37.8220   28.8580   43.2500 C   0  0  0  0  0  0  0  0  0  0  0  0
   37.5520   27.5190   43.4390 C   0  0  0  0  0  0  0  0  0  0  0  0
   37.1880   26.7770   42.3080 C   0  0  0  0  0  0  0  0  0  0  0  0
   36.8210   25.0660   42.4210 Cl  0  0  0  0  0  0  0  0  0  0  0  0
   37.9750   30.5130   41.9670 H   0  0  0  0  0  0  0  0  0  0  0  0
   38.1010   29.4180   44.1330 H   0  0  0  0  0  0  0  0  0  0  0  0
   37.6110   27.0530   44.3940 H   0  0  0  0  0  0  0  0  0  0  0  0
  1  2  1  0  0  0  0
  2  3  2  0  0  0  0
  2  7  1  0  0  0  0
  3  8  1  0  0  0  0
  4  3  1  0  0  0  0
  5  4  2  0  0  0  0
  6  5  1  0  0  0  0
  6  1  2  0  0  0  0
  9  5  1  0  0  0  0
  9 17  1  0  0  0  0
 10  9  2  0  0  0  0
 11 10  1  0  0  0  0
 12 10  1  0  0  0  0
 12 13  2  0  0  0  0
 13 15  1  0  0  0  0
 14 13  1  0  0  0  0
 15 17  2  0  0  0  0
 15 16  1  0  0  0  0
 18  1  1  0  0  0  0
 18 21  1  0  0  0  0
 19 20  1  0  0  0  0
 20 25  1  0  0  0  0
 21 20  2  0  0  0  0
 21 22  1  0  0  0  0
 22 23  2  0  0  0  0
 23 24  1  0  0  0  0
 23 28  1  0  0  0  0
 24 29  1  0  0  0  0
 25 26  1  0  0  0  0
 25 24  2  0  0  0  0
 27 22  1  0  0  0  0
M  END
>  <minimizedAffinity>
-5.37965775

$$$$

 OpenBabel03252506493D

 29 31  0  0  0  0  0  0  0  0999 V2000
   37.2800   28.5680   41.9020 C   0  0  0  0  0  0  0  0  0  0  0  0
   38.0310   28.6010   43.0840 C   0  0  0  0  0  0  0  0  0  0  0  0
   38.5860   27.4050   43.5590 C   0  0  0  0  0  0  0  0  0  0  0  0
   38.3600   26.2680   42.8400 N   0  0  0  0  0  0  0  0  0  0  0  0
   37.6310   26.2800   41.7100 C   0  0  0  0  0  0  0  0  0  0  0  0
   37.0820   27.4090   41.2210 N   0  0  0  0  0  0  0  0  0  0  0  0
   38.2000   29.5000   43.6360 H   0  0  0  0  0  0  0  0  0  0  0  0
   39.1780   27.3840   44.4720 H   0  0  0  0  0  0  0  0  0  0  0  0
   37.4550   25.0050   41.0240 C   0  0  0  0  0  0  0  0  0  0  0  0
   36.4120   24.7390   40.1630 C   0  0  0  0  0  0  0  0  0  0  0  0
   35.6680   25.5220   39.9740 H   0  0  0  0  0  0  0  0  0  0  0  0
   36.2410   23.5350   39.5110 C   0  0  0  0  0  3  0  0  0  0  0  0
   37.1690   22.5370   39.7350 C   0  0  0  0  0  0  0  0  0  0  0  0
   37.1330   21.5580   39.2800 H   0  0  0  0  0  0  0  0  0  0  0  0
   38.2370   22.7710   40.6010 C   0  0  0  0  0  0  0  0  0  0  0  0
   38.9850   22.0000   40.7970 H   0  0  0  0  0  0  0  0  0  0  0  0
   38.3840   24.0030   41.2470 C   0  0  0  0  0  3  0  0  0  0  0  0
   36.6180   30.1470   41.3820 S   0  0  0  0  0  0  0  0  0  0  0  0
   39.2660   31.9380   41.3800 Cl  0  0  0  0  0  0  0  0  0  0  0  0
   38.5130   31.5460   39.8310 C   0  0  0  0  0  0  0  0  0  0  0  0
   37.3920   30.7800   39.9210 C   0  0  0  0  0  0  0  0  0  0  0  0
   36.7470   30.4320   38.7420 C   0  0  0  0  0  0  0  0  0  0  0  0
   37.2690   30.8780   37.5190 C   0  0  0  0  0  0  0  0  0  0  0  0
   38.4060   31.6530   37.4350 C   0  0  0  0  0  0  0  0  0  0  0  0
   39.0380   31.9910   38.6390 C   0  0  0  0  0  0  0  0  0  0  0  0
   40.4900   32.9730   38.6620 Cl  0  0  0  0  0  0  0  0  0  0  0  0
   35.8650   29.8390   38.6840 H   0  0  0  0  0  0  0  0  0  0  0  0
   36.7930   30.6260   36.5800 H   0  0  0  0  0  0  0  0  0  0  0  0
   38.8010   31.9910   36.5070 H   0  0  0  0  0  0  0  0  0  0  0  0
  1  2  1  0  0  0  0
  2  3  2  0  0  0  0
  2  7  1  0  0  0  0
  3  8  1  0  0  0  0
  4  3  1  0  0  0  0
  5  4  2  0  0  0  0
  6  5  1  0  0  0  0
  6  1  2  0  0  0  0
  9 17  1  0  0  0  0
  9  5  1  0  0  0  0
 10  9  2  0  0  0  0
 11 10  1  0  0  0  0
 12 13  2  0  0  0  0
 12 10  1  0  0  0  0
 13 15  1  0  0  0  0
 14 13  1  0  0  0  0
 15 16  1  0  0  0  0
 15 17  2  0  0  0  0
 18  1  1  0  0  0  0
 20 21  1  0  0  0  0
 20 19  1  0  0  0  0
 21 18  1  0  0  0  0
 22 21  2  0  0  0  0
 23 22  1  0  0  0  0
 24 23  2  0  0  0  0
 24 25  1  0  0  0  0
 25 26  1  0  0  0  0
 25 20  2  0  0  0  0
 27 22  1  0  0  0  0
 28 23  1  0  0  0  0
 29 24  1  0  0  0  0
M  END
>  <minimizedAffinity>
-5.32805061

$$$$

 OpenBabel03252506493D

 29 31  0  0  0  0  0  0  0  0999 V2000
   34.8710   28.1230   37.5020 C   0  0  0  0  0  0  0  0  0  0  0  0
   34.6080   26.8870   36.8980 C   0  0  0  0  0  0  0  0  0  0  0  0
   33.3500   26.6770   36.3200 C   0  0  0  0  0  0  0  0  0  0  0  0
   32.4430   27.6950   36.3790 N   0  0  0  0  0  0  0  0  0  0  0  0
   32.7350   28.8670   36.9700 C   0  0  0  0  0  0  0  0  0  0  0  0
   33.9340   29.1070   37.5370 N   0  0  0  0  0  0  0  0  0  0  0  0
   35.3290   26.0990   36.8590 H   0  0  0  0  0  0  0  0  0  0  0  0
   33.1020   25.7330   35.8390 H   0  0  0  0  0  0  0  0  0  0  0  0
   31.6900   29.8840   36.9750 C   0  0  0  0  0  0  0  0  0  0  0  0
   30.8610   30.1220   38.0510 C   0  0  0  0  0  0  0  0  0  0  0  0
   30.9860   29.5210   38.9590 H   0  0  0  0  0  0  0  0  0  0  0  0
   29.8710   31.0830   38.0590 C   0  0  0  0  0  3  0  0  0  0  0  0
   29.6990   31.8500   36.9250 C   0  0  0  0  0  0  0  0  0  0  0  0
   28.9570   32.6290   36.8210 H   0  0  0  0  0  0  0  0  0  0  0  0
   30.5190   31.6370   35.8170 C   0  0  0  0  0  0  0  0  0  0  0  0
   30.4060   32.2280   34.9070 H   0  0  0  0  0  0  0  0  0  0  0  0
   31.5160   30.6550   35.8380 C   0  0  0  0  0  3  0  0  0  0  0  0
   36.5060   28.2880   38.2090 S   0  0  0  0  0  0  0  0  0  0  0  0
   36.5660   29.5930   41.1280 Cl  0  0  0  0  0  0  0  0  0  0  0  0
   36.7510   27.8420   40.9830 C   0  0  0  0  0  0  0  0  0  0  0  0
   36.7140   27.3690   39.7080 C   0  0  0  0  0  0  0  0  0  0  0  0
   36.8520   26.0010   39.5190 C   0  0  0  0  0  0  0  0  0  0  0  0
   37.0230   25.1690   40.6360 C   0  0  0  0  0  0  0  0  0  0  0  0
   37.0600   25.6550   41.9260 C   0  0  0  0  0  0  0  0  0  0  0  0
   36.9180   27.0400   42.0890 C   0  0  0  0  0  0  0  0  0  0  0  0
   36.9490   27.7770   43.6800 Cl  0  0  0  0  0  0  0  0  0  0  0  0
   36.8390   25.5140   38.5730 H   0  0  0  0  0  0  0  0  0  0  0  0
   37.1340   24.0980   40.5260 H   0  0  0  0  0  0  0  0  0  0  0  0
   37.1900   25.0240   42.7720 H   0  0  0  0  0  0  0  0  0  0  0  0
  1  6  1  0  0  0  0
  1 18  1  0  0  0  0
  2  1  2  0  0  0  0
  3  4  2  0  0  0  0
  3  2  1  0  0  0  0
  4  5  1  0  0  0  0
  5  9  1  0  0  0  0
  5  6  2  0  0  0  0
  7  2  1  0  0  0  0
  8  3  1  0  0  0  0
  9 10  1  0  0  0  0
 10 12  2  0  0  0  0
 10 11  1  0  0  0  0
 13 12  1  0  0  0  0
 14 13  1  0  0  0  0
 15 17  1  0  0  0  0
 15 13  2  0  0  0  0
 16 15  1  0  0  0  0
 17  9  2  0  0  0  0
 18 21  1  0  0  0  0
 20 19  1  0  0  0  0
 20 25  1  0  0  0  0
 21 20  2  0  0  0  0
 22 21  1  0  0  0  0
 22 23  2  0  0  0  0
 23 24  1  0  0  0  0
 24 25  2  0  0  0  0
 24 29  1  0  0  0  0
 25 26  1  0  0  0  0
 27 22  1  0  0  0  0
 28 23  1  0  0  0  0
M  END
>  <minimizedAffinity>
-5.2709341

$$$$
