
 OpenBabel03252506023D

 28 30  0  0  0  0  0  0  0  0999 V2000
   44.8090   36.3410   42.9080 Cl  0  0  0  0  0  0  0  0  0  0  0  0
   45.4190   35.1100   43.9680 C   0  0  0  0  0  0  0  0  0  0  0  0
   46.4590   34.3010   43.5700 C   0  0  0  0  0  0  0  0  0  0  0  0
   46.8570   33.3630   44.4850 C   0  0  0  0  0  0  0  0  0  0  0  0
   46.3290   33.1590   45.7350 C   0  0  0  0  0  0  0  0  0  0  0  0
   45.2870   33.9900   46.1010 C   0  0  0  0  0  0  0  0  0  0  0  0
   44.6190   33.7490   47.6970 Cl  0  0  0  0  0  0  0  0  0  0  0  0
   44.8330   34.9600   45.2250 C   0  0  0  0  0  0  0  0  0  0  0  0
   47.6900   32.7130   44.1710 H   0  0  0  0  0  0  0  0  0  0  0  0
   44.0110   35.5990   45.5400 H   0  0  0  0  0  0  0  0  0  0  0  0
   48.7820   35.4110   40.9780 C   0  0  0  0  0  0  0  0  0  0  0  0
   48.3300   34.7190   39.8400 C   0  0  0  0  0  0  0  0  0  0  0  0
   47.2190   33.8660   39.9690 C   0  0  0  0  0  0  0  0  0  0  0  0
   46.6410   33.7580   41.1960 N   0  0  0  0  0  0  0  0  0  0  0  0
   47.0920   34.4310   42.2700 C   0  0  0  0  0  0  0  0  0  0  0  0
   48.1600   35.2530   42.1570 N   0  0  0  0  0  0  0  0  0  0  0  0
   49.6400   36.0490   40.8100 H   0  0  0  0  0  0  0  0  0  0  0  0
   48.7540   34.7750   38.8610 H   0  0  0  0  0  0  0  0  0  0  0  0
   46.8090   33.2990   39.1430 H   0  0  0  0  0  0  0  0  0  0  0  0
   46.8880   32.1020   46.5760 C   0  0  0  0  0  0  0  0  0  0  0  0
   46.8590   30.7620   46.2470 C   0  0  0  0  0  0  0  0  0  0  0  0
   46.3980   30.4630   45.3140 H   0  0  0  0  0  0  0  0  0  0  0  0
   47.3900   29.7740   47.0500 C   0  0  0  0  0  0  0  0  0  0  0  0
   47.9660   30.2120   48.2290 C   0  0  0  0  0  0  0  0  0  0  0  0
   48.3910   29.4450   48.8760 H   0  0  0  0  0  0  0  0  0  0  0  0
   48.0400   31.5280   48.6380 C   0  0  0  0  0  0  0  0  0  0  0  0
   48.5100   31.7790   49.5810 H   0  0  0  0  0  0  0  0  0  0  0  0
   47.4860   32.4820   47.7860 C   0  0  0  0  0  0  0  0  0  0  0  0
  1  2  1  0  0  0  0
  2  8  1  0  0  0  0
  3  2  2  0  0  0  0
  3  4  1  0  0  0  0
  4  5  2  0  0  0  0
  5  6  1  0  0  0  0
  5 20  1  0  0  0  0
  6  7  1  0  0  0  0
  8 10  1  0  0  0  0
  8  6  2  0  0  0  0
  9  4  1  0  0  0  0
 11 16  1  0  0  0  0
 12 13  1  0  0  0  0
 12 11  2  0  0  0  0
 13 14  2  0  0  0  0
 14 15  1  0  0  0  0
 15  3  1  0  0  0  0
 16 15  2  0  0  0  0
 17 11  1  0  0  0  0
 18 12  1  0  0  0  0
 19 13  1  0  0  0  0
 20 28  1  0  0  0  0
 21 20  2  0  0  0  0
 21 23  1  0  0  0  0
 22 21  1  0  0  0  0
 23 24  2  0  0  0  0
 24 26  1  0  0  0  0
 24 25  1  0  0  0  0
 26 27  1  0  0  0  0
 28 26  2  0  0  0  0
M  END
>  <minimizedAffinity>
-5.98704815

>  <minimizedRMSD>
1.04101121

$$$$
