
 OpenBabel03242516073D

 36 39  0  0  0  0  0  0  0  0999 V2000
   38.5560   28.2230   39.5580 Cl  0  0  0  0  0  0  0  0  0  0  0  0
   37.9260   27.9310   41.1530 C   0  0  0  0  0  0  0  0  0  0  0  0
   37.5340   26.6830   41.5550 C   0  0  0  0  0  0  0  0  0  0  0  0
   37.0500   26.5790   42.8400 C   0  0  0  0  0  0  0  0  0  0  0  0
   36.9570   27.6300   43.6750 C   0  0  0  0  0  0  0  0  0  0  0  0
   37.3480   28.8820   43.2740 C   0  0  0  0  0  0  0  0  0  0  0  0
   37.8420   29.0220   41.9790 C   0  0  0  0  0  0  0  0  0  0  0  0
   36.7360   25.6000   43.1760 H   0  0  0  0  0  0  0  0  0  0  0  0
   36.5660   27.4820   44.6780 H   0  0  0  0  0  0  0  0  0  0  0  0
   37.2650   29.7140   43.9590 H   0  0  0  0  0  0  0  0  0  0  0  0
   36.8000   24.1920   38.8040 C   0  0  0  0  0  0  0  0  0  0  0  0
   36.6530   25.2610   39.6980 C   0  0  0  0  0  0  0  0  0  0  0  0
   37.6550   25.5870   40.6200 C   0  0  0  0  0  0  0  0  0  0  0  0
   38.7680   24.7950   40.5800 N   0  0  0  0  0  0  0  0  0  0  0  0
   38.8830   23.7750   39.7130 C   0  0  0  0  0  0  0  0  0  0  0  0
   37.9290   23.4760   38.8450 N   0  0  0  0  0  0  0  0  0  0  0  0
   35.9710   24.0250   38.1370 H   0  0  0  0  0  0  0  0  0  0  0  0
   35.7580   25.8680   39.7030 H   0  0  0  0  0  0  0  0  0  0  0  0
   39.8230   23.2370   39.8000 H   0  0  0  0  0  0  0  0  0  0  0  0
   38.2700   30.3700   41.5290 C   0  0  0  0  0  0  0  0  0  0  0  0
   39.5640   30.8630   41.7360 C   0  0  0  0  0  0  0  0  0  0  0  0
   39.5150   32.5180   40.9960 S   0  0  0  0  0  0  0  0  0  0  0  0
   37.6790   32.2760   40.5000 C   0  0  0  0  0  0  0  0  0  0  0  0
   37.5250   31.2370   40.9040 N   0  0  0  0  0  0  0  0  0  0  0  0
   36.8770   33.2320   39.8190 N   0  0  0  0  0  0  0  0  0  0  0  0
   37.2380   33.4660   38.8550 H   0  0  0  0  0  0  0  0  0  0  0  0
   36.0660   33.5080   40.4450 H   0  0  0  0  0  0  0  0  0  0  0  0
   40.7280   30.2410   42.3910 C   0  0  0  0  0  0  0  0  0  0  0  0
   41.6700   31.1420   42.8840 C   0  0  0  0  0  0  0  0  0  0  0  0
   41.6160   32.2210   42.8240 H   0  0  0  0  0  0  0  0  0  0  0  0
   42.7990   30.6600   43.5180 C   0  0  0  0  0  3  0  0  0  0  0  0
   43.0240   29.2960   43.6790 C   0  0  0  0  0  0  0  0  0  0  0  0
   43.9110   28.9020   44.1780 H   0  0  0  0  0  0  0  0  0  0  0  0
   42.0700   28.4250   43.1810 C   0  0  0  0  0  0  0  0  0  0  0  0
   42.1610   27.3530   43.2600 H   0  0  0  0  0  0  0  0  0  0  0  0
   40.9320   28.8710   42.5430 C   0  0  0  0  0  3  0  0  0  0  0  0
  1  2  1  0  0  0  0
  2  3  2  0  0  0  0
  2  7  1  0  0  0  0
  3  4  1  0  0  0  0
  4  8  1  0  0  0  0
  4  5  2  0  0  0  0
  5  9  1  0  0  0  0
  6  5  1  0  0  0  0
  6 10  1  0  0  0  0
  7  6  2  0  0  0  0
 11 16  2  0  0  0  0
 11 12  1  0  0  0  0
 12 18  1  0  0  0  0
 12 13  2  0  0  0  0
 13  3  1  0  0  0  0
 14 13  1  0  0  0  0
 15 19  1  0  0  0  0
 15 14  2  0  0  0  0
 16 15  1  0  0  0  0
 17 11  1  0  0  0  0
 20 21  2  0  0  0  0
 20  7  1  0  0  0  0
 21 28  1  0  0  0  0
 22 21  1  0  0  0  0
 23 24  2  0  0  0  0
 23 22  1  0  0  0  0
 24 20  1  0  0  0  0
 25 27  1  0  0  0  0
 25 23  1  0  0  0  0
 26 25  1  0  0  0  0
 28 36  2  0  0  0  0
 28 29  1  0  0  0  0
 29 31  2  0  0  0  0
 30 29  1  0  0  0  0
 31 32  1  0  0  0  0
 32 33  1  0  0  0  0
 34 35  1  0  0  0  0
 34 32  2  0  0  0  0
 36 34  1  0  0  0  0
M  END
>  <minimizedAffinity>
-6.35802031

$$$$

 OpenBabel03242516073D

 36 39  0  0  0  0  0  0  0  0999 V2000
   40.6970   30.5660   38.5880 Cl  0  0  0  0  0  0  0  0  0  0  0  0
   39.4300   31.6590   39.0620 C   0  0  0  0  0  0  0  0  0  0  0  0
   39.7030   32.8850   39.6060 C   0  0  0  0  0  0  0  0  0  0  0  0
   38.6150   33.6600   39.9420 C   0  0  0  0  0  0  0  0  0  0  0  0
   37.3440   33.2580   39.7580 C   0  0  0  0  0  0  0  0  0  0  0  0
   37.0690   32.0290   39.2140 C   0  0  0  0  0  0  0  0  0  0  0  0
   38.1470   31.2200   38.8630 C   0  0  0  0  0  0  0  0  0  0  0  0
   38.8110   34.6330   40.3720 H   0  0  0  0  0  0  0  0  0  0  0  0
   36.5290   33.9170   40.0440 H   0  0  0  0  0  0  0  0  0  0  0  0
   36.0400   31.7240   39.0740 H   0  0  0  0  0  0  0  0  0  0  0  0
   43.1030   33.5140   41.1390 C   0  0  0  0  0  0  0  0  0  0  0  0
   41.7620   33.1320   41.0000 C   0  0  0  0  0  0  0  0  0  0  0  0
   41.0850   33.2700   39.7820 C   0  0  0  0  0  0  0  0  0  0  0  0
   41.8220   33.7980   38.7580 N   0  0  0  0  0  0  0  0  0  0  0  0
   43.1070   34.1570   38.9200 C   0  0  0  0  0  0  0  0  0  0  0  0
   43.7360   34.0210   40.0760 N   0  0  0  0  0  0  0  0  0  0  0  0
   43.5300   33.3680   42.1170 H   0  0  0  0  0  0  0  0  0  0  0  0
   41.2080   32.7180   41.8310 H   0  0  0  0  0  0  0  0  0  0  0  0
   43.5600   34.5590   38.0180 H   0  0  0  0  0  0  0  0  0  0  0  0
   37.8660   29.8870   38.2730 C   0  0  0  0  0  0  0  0  0  0  0  0
   37.6900   28.7360   39.0500 C   0  0  0  0  0  0  0  0  0  0  0  0
   37.3810   27.4360   37.8250 S   0  0  0  0  0  0  0  0  0  0  0  0
   37.5430   28.7020   36.3930 C   0  0  0  0  0  0  0  0  0  0  0  0
   37.7490   29.6270   37.0020 N   0  0  0  0  0  0  0  0  0  0  0  0
   37.4140   28.4020   35.0100 N   0  0  0  0  0  0  0  0  0  0  0  0
   36.4570   28.0400   34.7510 H   0  0  0  0  0  0  0  0  0  0  0  0
   38.3340   28.6150   34.5250 H   0  0  0  0  0  0  0  0  0  0  0  0
   37.7340   28.5570   40.5110 C   0  0  0  0  0  0  0  0  0  0  0  0
   36.5290   28.1560   41.0850 C   0  0  0  0  0  0  0  0  0  0  0  0
   35.6000   27.9740   40.5620 H   0  0  0  0  0  0  0  0  0  0  0  0
   36.4640   27.9590   42.4510 C   0  0  0  0  0  3  0  0  0  0  0  0
   37.5710   28.1500   43.2740 C   0  0  0  0  0  0  0  0  0  0  0  0
   37.5340   27.9970   44.3540 H   0  0  0  0  0  0  0  0  0  0  0  0
   38.7540   28.5470   42.6750 C   0  0  0  0  0  0  0  0  0  0  0  0
   39.6610   28.7190   43.2330 H   0  0  0  0  0  0  0  0  0  0  0  0
   38.8550   28.7530   41.3160 C   0  0  0  0  0  3  0  0  0  0  0  0
  1  2  1  0  0  0  0
  2  3  1  0  0  0  0
  3 13  1  0  0  0  0
  3  4  2  0  0  0  0
  4  8  1  0  0  0  0
  5  4  1  0  0  0  0
  5  9  1  0  0  0  0
  6  5  2  0  0  0  0
  7  2  2  0  0  0  0
  7  6  1  0  0  0  0
 10  6  1  0  0  0  0
 11 17  1  0  0  0  0
 12 11  1  0  0  0  0
 12 18  1  0  0  0  0
 13 12  2  0  0  0  0
 14 15  2  0  0  0  0
 14 13  1  0  0  0  0
 15 16  1  0  0  0  0
 16 11  2  0  0  0  0
 19 15  1  0  0  0  0
 20  7  1  0  0  0  0
 20 21  2  0  0  0  0
 21 28  1  0  0  0  0
 22 21  1  0  0  0  0
 23 24  2  0  0  0  0
 23 22  1  0  0  0  0
 24 20  1  0  0  0  0
 25 23  1  0  0  0  0
 26 25  1  0  0  0  0
 27 25  1  0  0  0  0
 28 29  2  0  0  0  0
 28 36  1  0  0  0  0
 29 31  1  0  0  0  0
 30 29  1  0  0  0  0
 31 32  2  0  0  0  0
 32 33  1  0  0  0  0
 34 35  1  0  0  0  0
 34 32  1  0  0  0  0
 36 34  2  0  0  0  0
M  END
>  <minimizedAffinity>
-6.08287287

$$$$

 OpenBabel03242516073D

 36 39  0  0  0  0  0  0  0  0999 V2000
   38.3580   27.1320   39.3530 Cl  0  0  0  0  0  0  0  0  0  0  0  0
   37.7970   27.3260   40.9880 C   0  0  0  0  0  0  0  0  0  0  0  0
   37.3650   26.2620   41.7320 C   0  0  0  0  0  0  0  0  0  0  0  0
   36.9440   26.5430   43.0130 C   0  0  0  0  0  0  0  0  0  0  0  0
   36.9460   27.7860   43.5290 C   0  0  0  0  0  0  0  0  0  0  0  0
   37.3770   28.8540   42.7840 C   0  0  0  0  0  0  0  0  0  0  0  0
   37.8100   28.6040   41.4840 C   0  0  0  0  0  0  0  0  0  0  0  0
   36.6000   25.7150   43.6170 H   0  0  0  0  0  0  0  0  0  0  0  0
   36.6000   27.9420   44.5470 H   0  0  0  0  0  0  0  0  0  0  0  0
   37.3710   29.8460   43.2160 H   0  0  0  0  0  0  0  0  0  0  0  0
   38.4510   22.7950   40.6790 C   0  0  0  0  0  0  0  0  0  0  0  0
   38.4620   24.0640   41.2720 C   0  0  0  0  0  0  0  0  0  0  0  0
   37.3840   24.9470   41.1330 C   0  0  0  0  0  0  0  0  0  0  0  0
   36.3390   24.4810   40.3850 N   0  0  0  0  0  0  0  0  0  0  0  0
   36.3540   23.2590   39.8260 C   0  0  0  0  0  0  0  0  0  0  0  0
   37.3800   22.4330   39.9660 N   0  0  0  0  0  0  0  0  0  0  0  0
   39.3290   22.1950   40.8470 H   0  0  0  0  0  0  0  0  0  0  0  0
   39.3070   24.4020   41.8580 H   0  0  0  0  0  0  0  0  0  0  0  0
   35.4540   23.0300   39.2620 H   0  0  0  0  0  0  0  0  0  0  0  0
   38.2800   29.7490   40.6640 C   0  0  0  0  0  0  0  0  0  0  0  0
   37.5760   30.2260   39.5520 C   0  0  0  0  0  0  0  0  0  0  0  0
   38.5960   31.6020   38.9580 S   0  0  0  0  0  0  0  0  0  0  0  0
   39.8670   31.3090   40.3630 C   0  0  0  0  0  0  0  0  0  0  0  0
   39.3690   30.4350   40.8690 N   0  0  0  0  0  0  0  0  0  0  0  0
   41.0520   32.0660   40.5730 N   0  0  0  0  0  0  0  0  0  0  0  0
   40.8630   33.0830   40.7830 H   0  0  0  0  0  0  0  0  0  0  0  0
   41.8920   31.4250   40.4710 H   0  0  0  0  0  0  0  0  0  0  0  0
   36.3110   29.7640   38.9560 C   0  0  0  0  0  0  0  0  0  0  0  0
   35.2460   29.6730   39.8510 C   0  0  0  0  0  0  0  0  0  0  0  0
   35.2750   29.9060   40.9070 H   0  0  0  0  0  0  0  0  0  0  0  0
   34.0130   29.2500   39.3920 C   0  0  0  0  0  3  0  0  0  0  0  0
   33.8020   28.9110   38.0580 C   0  0  0  0  0  0  0  0  0  0  0  0
   32.8330   28.5770   37.6830 H   0  0  0  0  0  0  0  0  0  0  0  0
   34.8790   29.0120   37.1940 C   0  0  0  0  0  0  0  0  0  0  0  0
   34.8090   28.7710   36.1450 H   0  0  0  0  0  0  0  0  0  0  0  0
   36.1230   29.4300   37.6170 C   0  0  0  0  0  3  0  0  0  0  0  0
  1  2  1  0  0  0  0
  2  7  2  0  0  0  0
  2  3  1  0  0  0  0
  3  4  2  0  0  0  0
  4  5  1  0  0  0  0
  4  8  1  0  0  0  0
  5  9  1  0  0  0  0
  6 10  1  0  0  0  0
  6  5  2  0  0  0  0
  7  6  1  0  0  0  0
 11 17  1  0  0  0  0
 11 12  1  0  0  0  0
 12 18  1  0  0  0  0
 13 12  2  0  0  0  0
 13  3  1  0  0  0  0
 14 13  1  0  0  0  0
 15 16  1  0  0  0  0
 15 14  2  0  0  0  0
 16 11  2  0  0  0  0
 19 15  1  0  0  0  0
 20 24  1  0  0  0  0
 20  7  1  0  0  0  0
 21 20  2  0  0  0  0
 22 21  1  0  0  0  0
 22 23  1  0  0  0  0
 23 25  1  0  0  0  0
 23 24  2  0  0  0  0
 25 26  1  0  0  0  0
 27 25  1  0  0  0  0
 28 21  1  0  0  0  0
 28 29  1  0  0  0  0
 29 30  1  0  0  0  0
 31 29  2  0  0  0  0
 32 31  1  0  0  0  0
 33 32  1  0  0  0  0
 34 36  1  0  0  0  0
 34 32  2  0  0  0  0
 35 34  1  0  0  0  0
 36 28  2  0  0  0  0
M  END
>  <minimizedAffinity>
-6.05538034

$$$$

 OpenBabel03242516073D

 36 39  0  0  0  0  0  0  0  0999 V2000
   39.6970   28.9130   39.3070 Cl  0  0  0  0  0  0  0  0  0  0  0  0
   39.1740   28.5400   40.9230 C   0  0  0  0  0  0  0  0  0  0  0  0
   39.3430   27.2950   41.4650 C   0  0  0  0  0  0  0  0  0  0  0  0
   38.8860   27.1220   42.7530 C   0  0  0  0  0  0  0  0  0  0  0  0
   38.3020   28.1060   43.4610 C   0  0  0  0  0  0  0  0  0  0  0  0
   38.1310   29.3550   42.9190 C   0  0  0  0  0  0  0  0  0  0  0  0
   38.5820   29.5620   41.6170 C   0  0  0  0  0  0  0  0  0  0  0  0
   39.0120   26.1450   43.1990 H   0  0  0  0  0  0  0  0  0  0  0  0
   37.9620   27.9060   44.4730 H   0  0  0  0  0  0  0  0  0  0  0  0
   37.6580   30.1320   43.5040 H   0  0  0  0  0  0  0  0  0  0  0  0
   39.8990   24.3900   39.1060 C   0  0  0  0  0  0  0  0  0  0  0  0
   39.2550   25.3700   39.8730 C   0  0  0  0  0  0  0  0  0  0  0  0
   39.9770   26.2730   40.6640 C   0  0  0  0  0  0  0  0  0  0  0  0
   41.3350   26.1250   40.6290 N   0  0  0  0  0  0  0  0  0  0  0  0
   41.9280   25.1750   39.8840 C   0  0  0  0  0  0  0  0  0  0  0  0
   41.2340   24.3280   39.1410 N   0  0  0  0  0  0  0  0  0  0  0  0
   39.2510   23.7470   38.5340 H   0  0  0  0  0  0  0  0  0  0  0  0
   38.1770   25.4600   39.8770 H   0  0  0  0  0  0  0  0  0  0  0  0
   43.0120   25.1810   39.9590 H   0  0  0  0  0  0  0  0  0  0  0  0
   38.4040   30.9080   41.0160 C   0  0  0  0  0  0  0  0  0  0  0  0
   37.3750   31.2060   40.1140 C   0  0  0  0  0  0  0  0  0  0  0  0
   37.6440   32.9550   39.7210 S   0  0  0  0  0  0  0  0  0  0  0  0
   39.1670   33.0160   40.8860 C   0  0  0  0  0  0  0  0  0  0  0  0
   39.1550   31.9480   41.2430 N   0  0  0  0  0  0  0  0  0  0  0  0
   39.9770   34.1590   41.1230 N   0  0  0  0  0  0  0  0  0  0  0  0
   39.4490   34.9590   41.5650 H   0  0  0  0  0  0  0  0  0  0  0  0
   40.9660   33.9530   40.7960 H   0  0  0  0  0  0  0  0  0  0  0  0
   36.3050   30.3510   39.5740 C   0  0  0  0  0  0  0  0  0  0  0  0
   36.3810   30.1200   38.2020 C   0  0  0  0  0  0  0  0  0  0  0  0
   37.1350   30.5060   37.5290 H   0  0  0  0  0  0  0  0  0  0  0  0
   35.4240   29.3290   37.5960 C   0  0  0  0  0  3  0  0  0  0  0  0
   34.3830   28.7530   38.3180 C   0  0  0  0  0  0  0  0  0  0  0  0
   33.6210   28.1250   37.8520 H   0  0  0  0  0  0  0  0  0  0  0  0
   34.3340   28.9990   39.6790 C   0  0  0  0  0  0  0  0  0  0  0  0
   33.5640   28.5950   40.3180 H   0  0  0  0  0  0  0  0  0  0  0  0
   35.2720   29.7840   40.3170 C   0  0  0  0  0  3  0  0  0  0  0  0
  1  2  1  0  0  0  0
  2  3  2  0  0  0  0
  2  7  1  0  0  0  0
  3  4  1  0  0  0  0
  4  8  1  0  0  0  0
  4  5  2  0  0  0  0
  5  9  1  0  0  0  0
  6  5  1  0  0  0  0
  6 10  1  0  0  0  0
  7  6  2  0  0  0  0
 11 16  2  0  0  0  0
 11 12  1  0  0  0  0
 12 18  1  0  0  0  0
 12 13  2  0  0  0  0
 13  3  1  0  0  0  0
 14 13  1  0  0  0  0
 15 19  1  0  0  0  0
 15 14  2  0  0  0  0
 16 15  1  0  0  0  0
 17 11  1  0  0  0  0
 20 24  1  0  0  0  0
 20  7  1  0  0  0  0
 21 20  2  0  0  0  0
 22 21  1  0  0  0  0
 22 23  1  0  0  0  0
 23 25  1  0  0  0  0
 23 24  2  0  0  0  0
 25 26  1  0  0  0  0
 27 25  1  0  0  0  0
 28 21  1  0  0  0  0
 28 36  1  0  0  0  0
 29 28  2  0  0  0  0
 30 29  1  0  0  0  0
 31 29  1  0  0  0  0
 31 32  2  0  0  0  0
 32 34  1  0  0  0  0
 33 32  1  0  0  0  0
 34 36  2  0  0  0  0
 34 35  1  0  0  0  0
M  END
>  <minimizedAffinity>
-6.01873159

$$$$

 OpenBabel03242516073D

 36 39  0  0  0  0  0  0  0  0999 V2000
   39.7670   26.7850   40.5690 Cl  0  0  0  0  0  0  0  0  0  0  0  0
   38.5620   27.1530   41.7690 C   0  0  0  0  0  0  0  0  0  0  0  0
   37.4680   26.3530   41.9590 C   0  0  0  0  0  0  0  0  0  0  0  0
   36.5840   26.7510   42.9380 C   0  0  0  0  0  0  0  0  0  0  0  0
   36.7620   27.8590   43.6800 C   0  0  0  0  0  0  0  0  0  0  0  0
   37.8580   28.6620   43.4890 C   0  0  0  0  0  0  0  0  0  0  0  0
   38.7720   28.2890   42.5060 C   0  0  0  0  0  0  0  0  0  0  0  0
   35.7140   26.1300   43.1040 H   0  0  0  0  0  0  0  0  0  0  0  0
   36.0280   28.1180   44.4370 H   0  0  0  0  0  0  0  0  0  0  0  0
   37.9830   29.5500   44.0950 H   0  0  0  0  0  0  0  0  0  0  0  0
   36.4280   23.9900   39.1950 C   0  0  0  0  0  0  0  0  0  0  0  0
   36.5480   25.1500   39.9710 C   0  0  0  0  0  0  0  0  0  0  0  0
   37.3240   25.1730   41.1380 C   0  0  0  0  0  0  0  0  0  0  0  0
   37.9430   23.9960   41.4530 N   0  0  0  0  0  0  0  0  0  0  0  0
   37.8100   22.8970   40.6900 C   0  0  0  0  0  0  0  0  0  0  0  0
   37.0730   22.8880   39.5900 N   0  0  0  0  0  0  0  0  0  0  0  0
   35.8080   24.0780   38.3190 H   0  0  0  0  0  0  0  0  0  0  0  0
   36.0440   26.0650   39.6930 H   0  0  0  0  0  0  0  0  0  0  0  0
   38.3600   22.0400   41.0680 H   0  0  0  0  0  0  0  0  0  0  0  0
   39.9630   29.1470   42.2880 C   0  0  0  0  0  0  0  0  0  0  0  0
   39.9850   30.1890   41.3520 C   0  0  0  0  0  0  0  0  0  0  0  0
   41.6560   30.8750   41.5170 S   0  0  0  0  0  0  0  0  0  0  0  0
   42.0810   29.5970   42.8820 C   0  0  0  0  0  0  0  0  0  0  0  0
   41.0990   29.0470   42.9170 N   0  0  0  0  0  0  0  0  0  0  0  0
   43.3270   29.5000   43.5600 N   0  0  0  0  0  0  0  0  0  0  0  0
   43.5650   30.3640   44.1170 H   0  0  0  0  0  0  0  0  0  0  0  0
   43.7570   28.5520   43.3530 H   0  0  0  0  0  0  0  0  0  0  0  0
   38.9410   30.6610   40.4270 C   0  0  0  0  0  0  0  0  0  0  0  0
   38.9620   30.0590   39.1700 C   0  0  0  0  0  0  0  0  0  0  0  0
   39.6580   29.3020   38.8340 H   0  0  0  0  0  0  0  0  0  0  0  0
   38.0230   30.4310   38.2270 C   0  0  0  0  0  3  0  0  0  0  0  0
   37.0530   31.3920   38.4970 C   0  0  0  0  0  0  0  0  0  0  0  0
   36.3050   31.6950   37.7620 H   0  0  0  0  0  0  0  0  0  0  0  0
   37.0570   31.9710   39.7540 C   0  0  0  0  0  0  0  0  0  0  0  0
   36.3440   32.7240   40.0520 H   0  0  0  0  0  0  0  0  0  0  0  0
   37.9790   31.6250   40.7190 C   0  0  0  0  0  3  0  0  0  0  0  0
  1  2  1  0  0  0  0
  2  3  2  0  0  0  0
  2  7  1  0  0  0  0
  3  4  1  0  0  0  0
  4  8  1  0  0  0  0
  4  5  2  0  0  0  0
  5  9  1  0  0  0  0
  6  5  1  0  0  0  0
  6 10  1  0  0  0  0
  7  6  2  0  0  0  0
 11 16  2  0  0  0  0
 11 12  1  0  0  0  0
 12 13  2  0  0  0  0
 13 14  1  0  0  0  0
 13  3  1  0  0  0  0
 15 19  1  0  0  0  0
 15 14  2  0  0  0  0
 16 15  1  0  0  0  0
 17 11  1  0  0  0  0
 18 12  1  0  0  0  0
 20  7  1  0  0  0  0
 20 24  1  0  0  0  0
 21 22  1  0  0  0  0
 21 20  2  0  0  0  0
 22 23  1  0  0  0  0
 23 24  2  0  0  0  0
 23 25  1  0  0  0  0
 25 26  1  0  0  0  0
 27 25  1  0  0  0  0
 28 36  1  0  0  0  0
 28 21  1  0  0  0  0
 29 28  2  0  0  0  0
 30 29  1  0  0  0  0
 31 32  2  0  0  0  0
 31 29  1  0  0  0  0
 32 34  1  0  0  0  0
 33 32  1  0  0  0  0
 34 35  1  0  0  0  0
 34 36  2  0  0  0  0
M  END
>  <minimizedAffinity>
-5.80168486

$$$$

 OpenBabel03242516073D

 36 39  0  0  0  0  0  0  0  0999 V2000
   37.9920   27.5490   39.1740 Cl  0  0  0  0  0  0  0  0  0  0  0  0
   37.6770   27.8460   40.8580 C   0  0  0  0  0  0  0  0  0  0  0  0
   37.6580   29.1130   41.3750 C   0  0  0  0  0  0  0  0  0  0  0  0
   37.3980   29.2180   42.7240 C   0  0  0  0  0  0  0  0  0  0  0  0
   37.1720   28.1520   43.5120 C   0  0  0  0  0  0  0  0  0  0  0  0
   37.1910   26.8810   42.9960 C   0  0  0  0  0  0  0  0  0  0  0  0
   37.4510   26.7390   41.6340 C   0  0  0  0  0  0  0  0  0  0  0  0
   37.3780   30.2120   43.1500 H   0  0  0  0  0  0  0  0  0  0  0  0
   36.9730   28.3020   44.5690 H   0  0  0  0  0  0  0  0  0  0  0  0
   37.0070   26.0360   43.6460 H   0  0  0  0  0  0  0  0  0  0  0  0
   37.1490   32.0170   39.0050 C   0  0  0  0  0  0  0  0  0  0  0  0
   36.8770   30.9420   39.8620 C   0  0  0  0  0  0  0  0  0  0  0  0
   37.9060   30.2250   40.4860 C   0  0  0  0  0  0  0  0  0  0  0  0
   39.1730   30.6480   40.1980 N   0  0  0  0  0  0  0  0  0  0  0  0
   39.4060   31.6820   39.3710 C   0  0  0  0  0  0  0  0  0  0  0  0
   38.4250   32.3520   38.7870 N   0  0  0  0  0  0  0  0  0  0  0  0
   36.2880   32.5000   38.5760 H   0  0  0  0  0  0  0  0  0  0  0  0
   35.8620   30.6330   40.0680 H   0  0  0  0  0  0  0  0  0  0  0  0
   40.4620   31.9010   39.2400 H   0  0  0  0  0  0  0  0  0  0  0  0
   37.4750   25.3700   41.0600 C   0  0  0  0  0  0  0  0  0  0  0  0
   38.6390   24.5940   40.9980 C   0  0  0  0  0  0  0  0  0  0  0  0
   38.0850   23.0540   40.2190 S   0  0  0  0  0  0  0  0  0  0  0  0
   36.2920   23.7240   40.0950 C   0  0  0  0  0  0  0  0  0  0  0  0
   36.4530   24.7370   40.5600 N   0  0  0  0  0  0  0  0  0  0  0  0
   35.1860   23.0210   39.5450 N   0  0  0  0  0  0  0  0  0  0  0  0
   34.9540   22.1350   40.0710 H   0  0  0  0  0  0  0  0  0  0  0  0
   34.8240   23.5550   38.7020 H   0  0  0  0  0  0  0  0  0  0  0  0
   40.0110   24.8980   41.4380 C   0  0  0  0  0  0  0  0  0  0  0  0
   40.8930   25.2260   40.4100 C   0  0  0  0  0  0  0  0  0  0  0  0
   40.6580   25.2720   39.3550 H   0  0  0  0  0  0  0  0  0  0  0  0
   42.2060   25.5290   40.7170 C   0  0  0  0  0  3  0  0  0  0  0  0
   42.6750   25.5180   42.0270 C   0  0  0  0  0  0  0  0  0  0  0  0
   43.7090   25.7560   42.2840 H   0  0  0  0  0  0  0  0  0  0  0  0
   41.7750   25.1890   43.0270 C   0  0  0  0  0  0  0  0  0  0  0  0
   42.0500   25.1540   44.0700 H   0  0  0  0  0  0  0  0  0  0  0  0
   40.4590   24.8810   42.7570 C   0  0  0  0  0  3  0  0  0  0  0  0
  1  2  1  0  0  0  0
  2  3  2  0  0  0  0
  2  7  1  0  0  0  0
  3  4  1  0  0  0  0
  4  8  1  0  0  0  0
  4  5  2  0  0  0  0
  5  9  1  0  0  0  0
  6  5  1  0  0  0  0
  6 10  1  0  0  0  0
  7  6  2  0  0  0  0
 11 12  1  0  0  0  0
 12 18  1  0  0  0  0
 12 13  2  0  0  0  0
 13  3  1  0  0  0  0
 14 13  1  0  0  0  0
 15 14  2  0  0  0  0
 16 11  2  0  0  0  0
 16 15  1  0  0  0  0
 17 11  1  0  0  0  0
 19 15  1  0  0  0  0
 20  7  1  0  0  0  0
 21 20  2  0  0  0  0
 21 28  1  0  0  0  0
 22 21  1  0  0  0  0
 23 22  1  0  0  0  0
 23 24  2  0  0  0  0
 24 20  1  0  0  0  0
 25 26  1  0  0  0  0
 25 23  1  0  0  0  0
 27 25  1  0  0  0  0
 28 36  1  0  0  0  0
 29 31  1  0  0  0  0
 29 28  2  0  0  0  0
 30 29  1  0  0  0  0
 31 32  2  0  0  0  0
 32 33  1  0  0  0  0
 32 34  1  0  0  0  0
 34 35  1  0  0  0  0
 36 34  2  0  0  0  0
M  END
>  <minimizedAffinity>
-5.78574133

$$$$

 OpenBabel03242516073D

 36 39  0  0  0  0  0  0  0  0999 V2000
   38.3130   28.9920   38.0490 Cl  0  0  0  0  0  0  0  0  0  0  0  0
   36.7120   29.0220   38.7260 C   0  0  0  0  0  0  0  0  0  0  0  0
   35.5960   28.9290   37.9400 C   0  0  0  0  0  0  0  0  0  0  0  0
   34.3830   28.9660   38.5930 C   0  0  0  0  0  0  0  0  0  0  0  0
   34.2750   29.0870   39.9290 C   0  0  0  0  0  0  0  0  0  0  0  0
   35.3920   29.1810   40.7180 C   0  0  0  0  0  0  0  0  0  0  0  0
   36.6340   29.1470   40.0890 C   0  0  0  0  0  0  0  0  0  0  0  0
   33.4900   28.8930   37.9880 H   0  0  0  0  0  0  0  0  0  0  0  0
   33.2880   29.1100   40.3840 H   0  0  0  0  0  0  0  0  0  0  0  0
   35.2840   29.2780   41.7900 H   0  0  0  0  0  0  0  0  0  0  0  0
   35.7040   27.5080   34.4350 C   0  0  0  0  0  0  0  0  0  0  0  0
   35.5290   27.6030   35.8230 C   0  0  0  0  0  0  0  0  0  0  0  0
   35.7670   28.8000   36.5110 C   0  0  0  0  0  0  0  0  0  0  0  0
   36.1750   29.8490   35.7360 N   0  0  0  0  0  0  0  0  0  0  0  0
   36.3350   29.7310   34.4070 C   0  0  0  0  0  0  0  0  0  0  0  0
   36.1070   28.5940   33.7680 N   0  0  0  0  0  0  0  0  0  0  0  0
   35.4950   26.5440   34.0050 H   0  0  0  0  0  0  0  0  0  0  0  0
   35.2050   26.7520   36.4060 H   0  0  0  0  0  0  0  0  0  0  0  0
   36.6630   30.6490   33.9280 H   0  0  0  0  0  0  0  0  0  0  0  0
   37.8540   29.2480   40.9290 C   0  0  0  0  0  0  0  0  0  0  0  0
   38.4610   28.1340   41.5220 C   0  0  0  0  0  0  0  0  0  0  0  0
   39.8760   28.8390   42.4090 S   0  0  0  0  0  0  0  0  0  0  0  0
   39.4100   30.6020   41.8160 C   0  0  0  0  0  0  0  0  0  0  0  0
   38.4950   30.3470   41.2120 N   0  0  0  0  0  0  0  0  0  0  0  0
   40.1190   31.7930   42.1340 N   0  0  0  0  0  0  0  0  0  0  0  0
   41.1100   31.7960   41.7710 H   0  0  0  0  0  0  0  0  0  0  0  0
   39.4780   32.4380   42.6810 H   0  0  0  0  0  0  0  0  0  0  0  0
   38.0890   26.7100   41.4760 C   0  0  0  0  0  0  0  0  0  0  0  0
   38.7280   25.9730   40.4810 C   0  0  0  0  0  0  0  0  0  0  0  0
   39.4480   26.3500   39.7670 H   0  0  0  0  0  0  0  0  0  0  0  0
   38.4500   24.6250   40.3540 C   0  0  0  0  0  3  0  0  0  0  0  0
   37.5460   23.9800   41.1930 C   0  0  0  0  0  0  0  0  0  0  0  0
   37.3170   22.9160   41.1040 H   0  0  0  0  0  0  0  0  0  0  0  0
   36.9270   24.7380   42.1720 C   0  0  0  0  0  0  0  0  0  0  0  0
   36.2130   24.3230   42.8670 H   0  0  0  0  0  0  0  0  0  0  0  0
   37.1810   26.0840   42.3280 C   0  0  0  0  0  3  0  0  0  0  0  0
  1  2  1  0  0  0  0
  2  7  1  0  0  0  0
  3  4  1  0  0  0  0
  3  2  2  0  0  0  0
  4  5  2  0  0  0  0
  5  9  1  0  0  0  0
  5  6  1  0  0  0  0
  6 10  1  0  0  0  0
  7  6  2  0  0  0  0
  7 20  1  0  0  0  0
  8  4  1  0  0  0  0
 11 12  1  0  0  0  0
 12 18  1  0  0  0  0
 12 13  2  0  0  0  0
 13  3  1  0  0  0  0
 14 13  1  0  0  0  0
 15 14  2  0  0  0  0
 16 15  1  0  0  0  0
 16 11  2  0  0  0  0
 17 11  1  0  0  0  0
 19 15  1  0  0  0  0
 20 24  1  0  0  0  0
 20 21  2  0  0  0  0
 21 22  1  0  0  0  0
 23 25  1  0  0  0  0
 23 22  1  0  0  0  0
 24 23  2  0  0  0  0
 25 27  1  0  0  0  0
 26 25  1  0  0  0  0
 28 21  1  0  0  0  0
 28 36  1  0  0  0  0
 29 28  2  0  0  0  0
 30 29  1  0  0  0  0
 31 29  1  0  0  0  0
 31 32  2  0  0  0  0
 32 34  1  0  0  0  0
 33 32  1  0  0  0  0
 34 36  2  0  0  0  0
 34 35  1  0  0  0  0
M  END
>  <minimizedAffinity>
-5.74946785

$$$$

 OpenBabel03242516073D

 36 39  0  0  0  0  0  0  0  0999 V2000
   39.7880   25.4800   40.3890 Cl  0  0  0  0  0  0  0  0  0  0  0  0
   38.8420   26.2480   41.6310 C   0  0  0  0  0  0  0  0  0  0  0  0
   37.4740   26.2520   41.5950 C   0  0  0  0  0  0  0  0  0  0  0  0
   36.8380   26.8930   42.6350 C   0  0  0  0  0  0  0  0  0  0  0  0
   37.5000   27.4900   43.6420 C   0  0  0  0  0  0  0  0  0  0  0  0
   38.8720   27.4880   43.6800 C   0  0  0  0  0  0  0  0  0  0  0  0
   39.5460   26.8470   42.6420 C   0  0  0  0  0  0  0  0  0  0  0  0
   35.7570   26.9060   42.6240 H   0  0  0  0  0  0  0  0  0  0  0  0
   36.9400   27.9800   44.4330 H   0  0  0  0  0  0  0  0  0  0  0  0
   39.3860   27.9740   44.4980 H   0  0  0  0  0  0  0  0  0  0  0  0
   35.7530   23.6500   39.4560 C   0  0  0  0  0  0  0  0  0  0  0  0
   36.3950   24.2590   40.5420 C   0  0  0  0  0  0  0  0  0  0  0  0
   36.8110   25.5960   40.4920 C   0  0  0  0  0  0  0  0  0  0  0  0
   36.5460   26.2470   39.3200 N   0  0  0  0  0  0  0  0  0  0  0  0
   35.9290   25.6380   38.2920 C   0  0  0  0  0  0  0  0  0  0  0  0
   35.5400   24.3740   38.3520 N   0  0  0  0  0  0  0  0  0  0  0  0
   35.4740   22.6190   39.5980 H   0  0  0  0  0  0  0  0  0  0  0  0
   36.5890   23.7140   41.4560 H   0  0  0  0  0  0  0  0  0  0  0  0
   35.7880   26.2830   37.4290 H   0  0  0  0  0  0  0  0  0  0  0  0
   41.0310   26.8360   42.6680 C   0  0  0  0  0  0  0  0  0  0  0  0
   41.8050   27.9070   42.2080 C   0  0  0  0  0  0  0  0  0  0  0  0
   43.5090   27.3490   42.4770 S   0  0  0  0  0  0  0  0  0  0  0  0
   42.8850   25.6870   43.2010 C   0  0  0  0  0  0  0  0  0  0  0  0
   41.7760   25.8620   43.1080 N   0  0  0  0  0  0  0  0  0  0  0  0
   43.7110   24.6330   43.6770 N   0  0  0  0  0  0  0  0  0  0  0  0
   44.3080   24.9130   44.5010 H   0  0  0  0  0  0  0  0  0  0  0  0
   43.5420   23.7690   43.0840 H   0  0  0  0  0  0  0  0  0  0  0  0
   41.3970   29.2000   41.6310 C   0  0  0  0  0  0  0  0  0  0  0  0
   41.4850   30.2810   42.5070 C   0  0  0  0  0  0  0  0  0  0  0  0
   41.8160   30.2460   43.5360 H   0  0  0  0  0  0  0  0  0  0  0  0
   41.1260   31.5390   42.0640 C   0  0  0  0  0  3  0  0  0  0  0  0
   40.6780   31.7600   40.7650 C   0  0  0  0  0  0  0  0  0  0  0  0
   40.3920   32.7490   40.4010 H   0  0  0  0  0  0  0  0  0  0  0  0
   40.6030   30.6670   39.9180 C   0  0  0  0  0  0  0  0  0  0  0  0
   40.2670   30.7440   38.8960 H   0  0  0  0  0  0  0  0  0  0  0  0
   40.9520   29.3980   40.3260 C   0  0  0  0  0  3  0  0  0  0  0  0
  1  2  1  0  0  0  0
  2  7  1  0  0  0  0
  3  2  2  0  0  0  0
  3  4  1  0  0  0  0
  4  5  2  0  0  0  0
  5  6  1  0  0  0  0
  5  9  1  0  0  0  0
  6 10  1  0  0  0  0
  7 20  1  0  0  0  0
  7  6  2  0  0  0  0
  8  4  1  0  0  0  0
 11 17  1  0  0  0  0
 11 12  1  0  0  0  0
 12 18  1  0  0  0  0
 13 12  2  0  0  0  0
 13  3  1  0  0  0  0
 14 13  1  0  0  0  0
 15 16  1  0  0  0  0
 15 14  2  0  0  0  0
 16 11  2  0  0  0  0
 19 15  1  0  0  0  0
 20 24  1  0  0  0  0
 21 22  1  0  0  0  0
 21 20  2  0  0  0  0
 22 23  1  0  0  0  0
 23 25  1  0  0  0  0
 24 23  2  0  0  0  0
 25 26  1  0  0  0  0
 27 25  1  0  0  0  0
 28 21  1  0  0  0  0
 28 29  1  0  0  0  0
 29 30  1  0  0  0  0
 31 29  2  0  0  0  0
 32 31  1  0  0  0  0
 33 32  1  0  0  0  0
 34 36  1  0  0  0  0
 34 32  2  0  0  0  0
 35 34  1  0  0  0  0
 36 28  2  0  0  0  0
M  END
>  <minimizedAffinity>
-5.59056568

$$$$

 OpenBabel03242516073D

 36 39  0  0  0  0  0  0  0  0999 V2000
   39.6650   27.1490   39.9910 Cl  0  0  0  0  0  0  0  0  0  0  0  0
   38.6540   27.3910   41.3850 C   0  0  0  0  0  0  0  0  0  0  0  0
   39.1520   27.3160   42.6570 C   0  0  0  0  0  0  0  0  0  0  0  0
   38.2530   27.5250   43.6790 C   0  0  0  0  0  0  0  0  0  0  0  0
   36.9510   27.7890   43.4660 C   0  0  0  0  0  0  0  0  0  0  0  0
   36.4490   27.8640   42.1920 C   0  0  0  0  0  0  0  0  0  0  0  0
   37.3330   27.6570   41.1350 C   0  0  0  0  0  0  0  0  0  0  0  0
   38.6290   27.4710   44.6920 H   0  0  0  0  0  0  0  0  0  0  0  0
   36.2920   27.9450   44.3160 H   0  0  0  0  0  0  0  0  0  0  0  0
   35.3990   28.0770   42.0420 H   0  0  0  0  0  0  0  0  0  0  0  0
   42.8870   27.7260   43.1020 C   0  0  0  0  0  0  0  0  0  0  0  0
   41.5310   28.0340   42.9320 C   0  0  0  0  0  0  0  0  0  0  0  0
   40.5580   27.0300   42.8320 C   0  0  0  0  0  0  0  0  0  0  0  0
   41.0290   25.7500   42.9120 N   0  0  0  0  0  0  0  0  0  0  0  0
   42.3360   25.4820   43.0740 C   0  0  0  0  0  0  0  0  0  0  0  0
   43.2460   26.4390   43.1670 N   0  0  0  0  0  0  0  0  0  0  0  0
   43.5520   28.5700   43.1660 H   0  0  0  0  0  0  0  0  0  0  0  0
   41.1920   29.0600   42.8730 H   0  0  0  0  0  0  0  0  0  0  0  0
   42.5570   24.4190   43.1210 H   0  0  0  0  0  0  0  0  0  0  0  0
   36.8060   27.7340   39.7500 C   0  0  0  0  0  0  0  0  0  0  0  0
   36.8510   28.9070   38.9860 C   0  0  0  0  0  0  0  0  0  0  0  0
   36.0840   28.4240   37.4150 S   0  0  0  0  0  0  0  0  0  0  0  0
   35.8120   26.6390   38.0610 C   0  0  0  0  0  0  0  0  0  0  0  0
   36.2550   26.7560   39.0890 N   0  0  0  0  0  0  0  0  0  0  0  0
   35.2080   25.5810   37.3280 N   0  0  0  0  0  0  0  0  0  0  0  0
   35.7440   25.3200   36.4570 H   0  0  0  0  0  0  0  0  0  0  0  0
   34.3250   25.2740   37.8320 H   0  0  0  0  0  0  0  0  0  0  0  0
   37.3770   30.2420   39.3190 C   0  0  0  0  0  0  0  0  0  0  0  0
   38.6550   30.5020   38.8280 C   0  0  0  0  0  0  0  0  0  0  0  0
   39.2670   29.8270   38.2440 H   0  0  0  0  0  0  0  0  0  0  0  0
   39.2400   31.7280   39.0840 C   0  0  0  0  0  3  0  0  0  0  0  0
   38.5890   32.7130   39.8210 C   0  0  0  0  0  0  0  0  0  0  0  0
   39.0390   33.6850   40.0300 H   0  0  0  0  0  0  0  0  0  0  0  0
   37.3200   32.4250   40.2940 C   0  0  0  0  0  0  0  0  0  0  0  0
   36.7410   33.1270   40.8740 H   0  0  0  0  0  0  0  0  0  0  0  0
   36.7060   31.2130   40.0580 C   0  0  0  0  0  3  0  0  0  0  0  0
  1  2  1  0  0  0  0
  2  3  1  0  0  0  0
  3 13  1  0  0  0  0
  3  4  2  0  0  0  0
  4  8  1  0  0  0  0
  5  4  1  0  0  0  0
  5  9  1  0  0  0  0
  6  5  2  0  0  0  0
  7  2  2  0  0  0  0
  7  6  1  0  0  0  0
 10  6  1  0  0  0  0
 11 17  1  0  0  0  0
 11 16  1  0  0  0  0
 12 11  2  0  0  0  0
 13 14  2  0  0  0  0
 13 12  1  0  0  0  0
 14 15  1  0  0  0  0
 15 19  1  0  0  0  0
 15 16  2  0  0  0  0
 18 12  1  0  0  0  0
 20  7  1  0  0  0  0
 21 28  1  0  0  0  0
 21 20  2  0  0  0  0
 22 23  1  0  0  0  0
 22 21  1  0  0  0  0
 23 24  2  0  0  0  0
 24 20  1  0  0  0  0
 25 27  1  0  0  0  0
 25 23  1  0  0  0  0
 26 25  1  0  0  0  0
 28 36  1  0  0  0  0
 29 31  1  0  0  0  0
 29 28  2  0  0  0  0
 30 29  1  0  0  0  0
 31 32  2  0  0  0  0
 32 33  1  0  0  0  0
 32 34  1  0  0  0  0
 34 35  1  0  0  0  0
 36 34  2  0  0  0  0
M  END
>  <minimizedAffinity>
-5.58799314

$$$$
