
 OpenBabel03242516053D

 36 39  0  0  0  0  0  0  0  0999 V2000
   45.2390   33.0220   41.1670 Cl  0  0  0  0  0  0  0  0  0  0  0  0
   46.6550   34.0240   41.0500 C   0  0  0  0  0  0  0  0  0  0  0  0
   47.0330   34.8570   42.0680 C   0  0  0  0  0  0  0  0  0  0  0  0
   48.1730   35.6020   41.8560 C   0  0  0  0  0  0  0  0  0  0  0  0
   48.8920   35.5340   40.7220 C   0  0  0  0  0  0  0  0  0  0  0  0
   48.5140   34.7000   39.7000 C   0  0  0  0  0  0  0  0  0  0  0  0
   47.3660   33.9330   39.8820 C   0  0  0  0  0  0  0  0  0  0  0  0
   48.4880   36.2650   42.6500 H   0  0  0  0  0  0  0  0  0  0  0  0
   49.7820   36.1480   40.6160 H   0  0  0  0  0  0  0  0  0  0  0  0
   49.1050   34.6600   38.7950 H   0  0  0  0  0  0  0  0  0  0  0  0
   44.4700   35.8660   44.6610 C   0  0  0  0  0  0  0  0  0  0  0  0
   45.2370   35.8580   43.4880 C   0  0  0  0  0  0  0  0  0  0  0  0
   46.2270   34.8920   43.2670 C   0  0  0  0  0  0  0  0  0  0  0  0
   46.3840   33.9750   44.2680 N   0  0  0  0  0  0  0  0  0  0  0  0
   45.6360   34.0060   45.3840 C   0  0  0  0  0  0  0  0  0  0  0  0
   44.7030   34.9240   45.5810 N   0  0  0  0  0  0  0  0  0  0  0  0
   43.7360   36.6500   44.7320 H   0  0  0  0  0  0  0  0  0  0  0  0
   45.0860   36.5990   42.7150 H   0  0  0  0  0  0  0  0  0  0  0  0
   45.8760   33.2140   46.0870 H   0  0  0  0  0  0  0  0  0  0  0  0
   46.9430   33.0260   38.7850 C   0  0  0  0  0  0  0  0  0  0  0  0
   47.2710   31.6640   38.7590 C   0  0  0  0  0  0  0  0  0  0  0  0
   46.5080   31.0710   37.2240 S   0  0  0  0  0  0  0  0  0  0  0  0
   45.8360   32.8260   36.8420 C   0  0  0  0  0  0  0  0  0  0  0  0
   46.2370   33.3660   37.7450 N   0  0  0  0  0  0  0  0  0  0  0  0
   45.0670   33.1830   35.7010 N   0  0  0  0  0  0  0  0  0  0  0  0
   44.1410   32.6790   35.6500 H   0  0  0  0  0  0  0  0  0  0  0  0
   45.6060   33.9000   35.1340 H   0  0  0  0  0  0  0  0  0  0  0  0
   48.0450   30.8520   39.7130 C   0  0  0  0  0  0  0  0  0  0  0  0
   49.4220   30.8600   39.5000 C   0  0  0  0  0  0  0  0  0  0  0  0
   49.9460   31.3940   38.7180 H   0  0  0  0  0  0  0  0  0  0  0  0
   50.2400   30.1300   40.3410 C   0  0  0  0  0  0  0  0  0  0  0  0
   49.7270   29.3840   41.3990 C   0  0  0  0  0  0  0  0  0  0  0  0
   50.3610   28.8040   42.0710 H   0  0  0  0  0  0  0  0  0  0  0  0
   48.3550   29.3970   41.5860 C   0  0  0  0  0  0  0  0  0  0  0  0
   47.8700   28.8500   42.3780 H   0  0  0  0  0  0  0  0  0  0  0  0
   47.5090   30.1140   40.7660 C   0  0  0  0  0  0  0  0  0  0  0  0
  2  1  1  0  0  0  0
  2  3  1  0  0  0  0
  3 13  1  0  0  0  0
  4  3  2  0  0  0  0
  4  8  1  0  0  0  0
  5  4  1  0  0  0  0
  6  7  1  0  0  0  0
  6  5  2  0  0  0  0
  7  2  2  0  0  0  0
  9  5  1  0  0  0  0
 10  6  1  0  0  0  0
 11 17  1  0  0  0  0
 11 16  1  0  0  0  0
 12 11  2  0  0  0  0
 13 12  1  0  0  0  0
 13 14  2  0  0  0  0
 14 15  1  0  0  0  0
 15 16  2  0  0  0  0
 15 19  1  0  0  0  0
 18 12  1  0  0  0  0
 20  7  1  0  0  0  0
 21 20  2  0  0  0  0
 21 28  1  0  0  0  0
 22 21  1  0  0  0  0
 23 22  1  0  0  0  0
 23 24  2  0  0  0  0
 24 20  1  0  0  0  0
 25 23  1  0  0  0  0
 26 25  1  0  0  0  0
 27 25  1  0  0  0  0
 28 36  1  0  0  0  0
 29 28  2  0  0  0  0
 29 31  1  0  0  0  0
 30 29  1  0  0  0  0
 31 32  2  0  0  0  0
 32 34  1  0  0  0  0
 32 33  1  0  0  0  0
 34 35  1  0  0  0  0
 36 34  2  0  0  0  0
M  END
>  <minimizedAffinity>
-6.01922989

>  <minimizedRMSD>
0.6776039

$$$$
