
 OpenBabel03252509243D

 27 29  0  0  1  0  0  0  0  0999 V2000
   46.5440   34.7240   42.0100 C   0  0  1  0  0  0  0  0  0  0  0  0
   47.9900   35.2810   41.9840 C   0  0  0  0  0  0  0  0  0  0  0  0
   47.5770   33.8070   41.6890 C   0  0  2  0  0  0  0  0  0  0  0  0
   45.8860   35.2160   41.2680 H   0  0  0  0  0  0  0  0  0  0  0  0
   48.3120   35.8350   41.0860 H   0  0  0  0  0  0  0  0  0  0  0  0
   48.5100   35.4830   42.9120 H   0  0  0  0  0  0  0  0  0  0  0  0
   47.9510   33.1020   42.4660 H   0  0  0  0  0  0  0  0  0  0  0  0
   47.7320   33.3590   40.2650 C   0  0  0  0  0  0  0  0  0  0  0  0
   46.7010   33.5810   39.3730 C   0  0  0  0  0  0  0  0  0  0  0  0
   45.7850   34.0650   39.6620 H   0  0  0  0  0  0  0  0  0  0  0  0
   46.8390   33.1660   38.0430 C   0  0  0  0  0  3  0  0  0  0  0  0
   48.0370   32.5500   37.7320 C   0  0  0  0  0  0  0  0  0  0  0  0
   48.1480   32.2230   36.6910 H   0  0  0  0  0  0  0  0  0  0  0  0
   49.0920   32.3110   38.5980 C   0  0  0  0  0  0  0  0  0  0  0  0
   49.9730   31.8160   38.2140 H   0  0  0  0  0  0  0  0  0  0  0  0
   48.9160   32.7390   39.9170 C   0  0  0  0  0  3  0  0  0  0  0  0
   44.5320   35.6110   45.0480 C   0  0  0  0  0  0  0  0  0  0  0  0
   45.0700   35.7110   43.7160 C   0  0  0  0  0  0  0  0  0  0  0  0
   45.9950   34.7490   43.4100 C   0  0  0  0  0  0  0  0  0  0  0  0
   46.3710   33.7760   44.3130 N   0  0  0  0  0  0  0  0  0  0  0  0
   45.8380   33.7280   45.5470 C   0  0  0  0  0  0  0  0  0  0  0  0
   44.9130   34.6530   45.9130 N   0  0  0  0  0  0  0  0  0  0  0  0
   43.7960   36.3480   45.3410 H   0  0  0  0  0  0  0  0  0  0  0  0
   46.2340   32.9110   46.1330 H   0  0  0  0  0  0  0  0  0  0  0  0
   44.6890   36.7320   42.8130 N   0  0  0  0  0  0  0  0  0  0  0  0
   45.1780   37.6280   43.0660 H   0  0  0  0  0  0  0  0  0  0  0  0
   44.0530   36.7430   42.0050 H   0  0  0  0  0  0  0  0  0  0  0  0
  1  4  1  6  0  0  0
  1 19  1  0  0  0  0
  2  1  1  0  0  0  0
  2  6  1  0  0  0  0
  3  2  1  0  0  0  0
  3  1  1  0  0  0  0
  3  7  1  1  0  0  0
  5  2  1  0  0  0  0
  8  3  1  0  0  0  0
  9 10  1  0  0  0  0
  9  8  2  0  0  0  0
 11  9  1  0  0  0  0
 12 11  2  0  0  0  0
 12 14  1  0  0  0  0
 13 12  1  0  0  0  0
 14 16  2  0  0  0  0
 15 14  1  0  0  0  0
 16  8  1  0  0  0  0
 17 23  1  0  0  0  0
 17 22  1  0  0  0  0
 18 17  2  0  0  0  0
 19 18  1  0  0  0  0
 19 20  2  0  0  0  0
 20 21  1  0  0  0  0
 21 22  2  0  0  0  0
 21 24  1  0  0  0  0
 25 26  1  0  0  0  0
 25 18  1  0  0  0  0
 27 25  1  0  0  0  0
M  END
>  <minimizedAffinity>
-4.7498517

>  <minimizedRMSD>
0.580956459

$$$$
