
 OpenBabel03242520343D

 28 30  0  0  1  0  0  0  0  0999 V2000
   36.9940   27.7120   42.7310 C   0  0  0  0  0  0  0  0  0  0  0  0
   37.0810   26.6750   41.7460 C   0  0  0  0  0  0  0  0  0  0  0  0
   37.3910   27.0450   40.4510 C   0  0  0  0  0  0  0  0  0  0  0  0
   37.5940   28.3690   40.1940 N   0  0  0  0  0  0  0  0  0  0  0  0
   37.5100   29.3190   41.1190 C   0  0  0  0  0  0  0  0  0  0  0  0
   37.2060   28.9720   42.3930 N   0  0  0  0  0  0  0  0  0  0  0  0
   36.7530   27.4360   43.7380 H   0  0  0  0  0  0  0  0  0  0  0  0
   37.4630   26.2950   39.6930 H   0  0  0  0  0  0  0  0  0  0  0  0
   37.7410   30.7160   40.7640 C   0  0  0  0  0  0  0  0  0  0  0  0
   36.8780   31.3680   39.8920 C   0  0  0  0  0  0  0  0  0  0  0  0
   36.0430   30.8050   39.4950 H   0  0  0  0  0  0  0  0  0  0  0  0
   37.1170   32.6910   39.5710 C   0  0  0  0  0  3  0  0  0  0  0  0
   38.2180   33.2900   40.1480 C   0  0  0  0  0  0  0  0  0  0  0  0
   38.4370   34.3410   39.9130 H   0  0  0  0  0  0  0  0  0  0  0  0
   39.1100   32.6870   41.0220 C   0  0  0  0  0  0  0  0  0  0  0  0
   39.9460   33.2360   41.4260 H   0  0  0  0  0  0  0  0  0  0  0  0
   38.8350   31.3530   41.3220 C   0  0  0  0  0  3  0  0  0  0  0  0
   36.8360   25.2440   42.0870 C   0  0  1  0  0  0  0  0  0  0  0  0
   37.3620   24.1920   41.2430 C   0  0  0  0  0  0  0  0  0  0  0  0
   38.0210   24.4090   42.5560 C   0  0  1  0  0  0  0  0  0  0  0  0
   35.8960   25.1090   42.6410 H   0  0  0  0  0  0  0  0  0  0  0  0
   37.9710   24.5140   40.3480 H   0  0  0  0  0  0  0  0  0  0  0  0
   36.8000   23.2590   41.0400 H   0  0  0  0  0  0  0  0  0  0  0  0
   37.7790   23.6790   43.3510 H   0  0  0  0  0  0  0  0  0  0  0  0
   39.3780   25.0140   42.6440 C   0  0  0  0  0  0  0  0  0  0  0  0
   39.4140   26.0800   43.5280 F   0  0  0  0  0  0  0  0  0  0  0  0
   39.8230   25.4460   41.3960 F   0  0  0  0  0  0  0  0  0  0  0  0
   40.2430   24.0660   43.1220 F   0  0  0  0  0  0  0  0  0  0  0  0
  1  7  1  0  0  0  0
  2 18  1  0  0  0  0
  2  1  2  0  0  0  0
  3  2  1  0  0  0  0
  4  3  2  0  0  0  0
  4  5  1  0  0  0  0
  5  6  2  0  0  0  0
  6  1  1  0  0  0  0
  8  3  1  0  0  0  0
  9  5  1  0  0  0  0
  9 17  1  0  0  0  0
 10  9  2  0  0  0  0
 11 10  1  0  0  0  0
 12 10  1  0  0  0  0
 12 13  2  0  0  0  0
 13 15  1  0  0  0  0
 14 13  1  0  0  0  0
 15 17  2  0  0  0  0
 15 16  1  0  0  0  0
 18 20  1  0  0  0  0
 18 21  1  1  0  0  0
 19 18  1  0  0  0  0
 19 20  1  0  0  0  0
 20 25  1  0  0  0  0
 20 24  1  1  0  0  0
 22 19  1  0  0  0  0
 23 19  1  0  0  0  0
 25 28  1  0  0  0  0
 25 26  1  0  0  0  0
 27 25  1  0  0  0  0
M  END
>  <minimizedAffinity>
-5.25869322

$$$$

 OpenBabel03242520343D

 28 30  0  0  1  0  0  0  0  0999 V2000
   37.4350   27.0760   40.3900 C   0  0  0  0  0  0  0  0  0  0  0  0
   37.0510   26.6800   41.7130 C   0  0  0  0  0  0  0  0  0  0  0  0
   36.9220   27.6720   42.6670 C   0  0  0  0  0  0  0  0  0  0  0  0
   37.1680   28.9590   42.2890 N   0  0  0  0  0  0  0  0  0  0  0  0
   37.5220   29.3100   41.0580 C   0  0  0  0  0  0  0  0  0  0  0  0
   37.6530   28.3490   40.1120 N   0  0  0  0  0  0  0  0  0  0  0  0
   37.5380   26.3140   39.6440 H   0  0  0  0  0  0  0  0  0  0  0  0
   36.6380   27.4090   43.6630 H   0  0  0  0  0  0  0  0  0  0  0  0
   37.7670   30.7110   40.7330 C   0  0  0  0  0  0  0  0  0  0  0  0
   38.8390   31.3860   41.3050 C   0  0  0  0  0  0  0  0  0  0  0  0
   39.4720   30.8350   41.9890 H   0  0  0  0  0  0  0  0  0  0  0  0
   39.0510   32.7120   40.9810 C   0  0  0  0  0  3  0  0  0  0  0  0
   38.1680   33.2930   40.0940 C   0  0  0  0  0  0  0  0  0  0  0  0
   38.3080   34.3470   39.8160 H   0  0  0  0  0  0  0  0  0  0  0  0
   37.0850   32.6690   39.4950 C   0  0  0  0  0  0  0  0  0  0  0  0
   36.4450   33.2040   38.8120 H   0  0  0  0  0  0  0  0  0  0  0  0
   36.9040   31.3310   39.8470 C   0  0  0  0  0  3  0  0  0  0  0  0
   36.8090   25.2520   42.0670 C   0  0  1  0  0  0  0  0  0  0  0  0
   37.3060   24.1930   41.2140 C   0  0  0  0  0  0  0  0  0  0  0  0
   38.0010   24.4120   42.5080 C   0  0  1  0  0  0  0  0  0  0  0  0
   35.8830   25.1240   42.6480 H   0  0  0  0  0  0  0  0  0  0  0  0
   37.8910   24.5070   40.3020 H   0  0  0  0  0  0  0  0  0  0  0  0
   36.7330   23.2620   41.0320 H   0  0  0  0  0  0  0  0  0  0  0  0
   37.7770   23.6880   43.3130 H   0  0  0  0  0  0  0  0  0  0  0  0
   39.3630   25.0110   42.5560 C   0  0  0  0  0  0  0  0  0  0  0  0
   39.4190   26.1060   43.4030 F   0  0  0  0  0  0  0  0  0  0  0  0
   39.7930   25.3980   41.2870 F   0  0  0  0  0  0  0  0  0  0  0  0
   40.2290   24.0740   43.0530 F   0  0  0  0  0  0  0  0  0  0  0  0
  1  2  1  0  0  0  0
  2 18  1  0  0  0  0
  2  3  2  0  0  0  0
  3  8  1  0  0  0  0
  4  3  1  0  0  0  0
  5  4  2  0  0  0  0
  6  1  2  0  0  0  0
  6  5  1  0  0  0  0
  7  1  1  0  0  0  0
  9  5  1  0  0  0  0
  9 10  1  0  0  0  0
 10 11  1  0  0  0  0
 12 10  2  0  0  0  0
 13 12  1  0  0  0  0
 14 13  1  0  0  0  0
 15 17  1  0  0  0  0
 15 13  2  0  0  0  0
 16 15  1  0  0  0  0
 17  9  2  0  0  0  0
 18 20  1  0  0  0  0
 18 21  1  1  0  0  0
 19 18  1  0  0  0  0
 19 20  1  0  0  0  0
 20 25  1  0  0  0  0
 20 24  1  1  0  0  0
 22 19  1  0  0  0  0
 23 19  1  0  0  0  0
 25 28  1  0  0  0  0
 25 26  1  0  0  0  0
 27 25  1  0  0  0  0
M  END
>  <minimizedAffinity>
-5.22988653

$$$$

 OpenBabel03242520343D

 28 30  0  0  1  0  0  0  0  0999 V2000
   39.4220   28.0990   40.4910 C   0  0  0  0  0  0  0  0  0  0  0  0
   39.4890   27.7570   41.8810 C   0  0  0  0  0  0  0  0  0  0  0  0
   39.2170   28.7540   42.8000 C   0  0  0  0  0  0  0  0  0  0  0  0
   38.9030   29.9940   42.3260 N   0  0  0  0  0  0  0  0  0  0  0  0
   38.8440   30.2940   41.0330 C   0  0  0  0  0  0  0  0  0  0  0  0
   39.1090   29.3280   40.1210 N   0  0  0  0  0  0  0  0  0  0  0  0
   39.6310   27.3330   39.7710 H   0  0  0  0  0  0  0  0  0  0  0  0
   39.2590   28.5320   43.8440 H   0  0  0  0  0  0  0  0  0  0  0  0
   38.5010   31.6460   40.6050 C   0  0  0  0  0  0  0  0  0  0  0  0
   37.3990   31.8630   39.7860 C   0  0  0  0  0  0  0  0  0  0  0  0
   36.8190   31.0000   39.4860 H   0  0  0  0  0  0  0  0  0  0  0  0
   37.0930   33.1520   39.3940 C   0  0  0  0  0  3  0  0  0  0  0  0
   37.9170   34.1610   39.8510 C   0  0  0  0  0  0  0  0  0  0  0  0
   37.7020   35.1980   39.5560 H   0  0  0  0  0  0  0  0  0  0  0  0
   39.0260   34.0020   40.6670 C   0  0  0  0  0  0  0  0  0  0  0  0
   39.6140   34.8520   40.9740 H   0  0  0  0  0  0  0  0  0  0  0  0
   39.3020   32.6860   41.0410 C   0  0  0  0  0  3  0  0  0  0  0  0
   39.8500   26.3850   42.3380 C   0  0  1  0  0  0  0  0  0  0  0  0
   39.4930   25.9400   43.6690 C   0  0  0  0  0  0  0  0  0  0  0  0
   38.7240   25.3760   42.5300 C   0  0  1  0  0  0  0  0  0  0  0  0
   40.7580   26.0120   41.8400 H   0  0  0  0  0  0  0  0  0  0  0  0
   38.9200   26.6700   44.3120 H   0  0  0  0  0  0  0  0  0  0  0  0
   40.1580   25.2950   44.2760 H   0  0  0  0  0  0  0  0  0  0  0  0
   38.9810   24.3430   42.2310 H   0  0  0  0  0  0  0  0  0  0  0  0
   37.3110   25.7740   42.2850 C   0  0  0  0  0  0  0  0  0  0  0  0
   37.1030   26.1720   40.9750 F   0  0  0  0  0  0  0  0  0  0  0  0
   36.9180   26.8040   43.1390 F   0  0  0  0  0  0  0  0  0  0  0  0
   36.5120   24.6840   42.5060 F   0  0  0  0  0  0  0  0  0  0  0  0
  1  2  1  0  0  0  0
  2 18  1  0  0  0  0
  2  3  2  0  0  0  0
  3  8  1  0  0  0  0
  4  3  1  0  0  0  0
  5  4  2  0  0  0  0
  6  1  2  0  0  0  0
  6  5  1  0  0  0  0
  7  1  1  0  0  0  0
  9  5  1  0  0  0  0
  9 17  1  0  0  0  0
 10  9  2  0  0  0  0
 11 10  1  0  0  0  0
 12 10  1  0  0  0  0
 12 13  2  0  0  0  0
 13 15  1  0  0  0  0
 14 13  1  0  0  0  0
 15 16  1  0  0  0  0
 15 17  2  0  0  0  0
 18 21  1  6  0  0  0
 18 20  1  0  0  0  0
 18 19  1  0  0  0  0
 19 23  1  0  0  0  0
 19 22  1  0  0  0  0
 20 24  1  6  0  0  0
 20 19  1  0  0  0  0
 25 28  1  0  0  0  0
 25 20  1  0  0  0  0
 25 27  1  0  0  0  0
 26 25  1  0  0  0  0
M  END
>  <minimizedAffinity>
-5.18458509

$$$$

 OpenBabel03242520343D

 28 30  0  0  1  0  0  0  0  0999 V2000
   38.0140   29.9620   42.2560 C   0  0  0  0  0  0  0  0  0  0  0  0
   38.9080   30.4940   41.2700 C   0  0  0  0  0  0  0  0  0  0  0  0
   39.2550   29.6760   40.2120 C   0  0  0  0  0  0  0  0  0  0  0  0
   38.7250   28.4200   40.1720 N   0  0  0  0  0  0  0  0  0  0  0  0
   37.8960   27.9420   41.0940 C   0  0  0  0  0  0  0  0  0  0  0  0
   37.5480   28.7310   42.1380 N   0  0  0  0  0  0  0  0  0  0  0  0
   37.7400   30.5880   43.0810 H   0  0  0  0  0  0  0  0  0  0  0  0
   39.9200   30.0430   39.4600 H   0  0  0  0  0  0  0  0  0  0  0  0
   37.3710   26.5850   40.9800 C   0  0  0  0  0  0  0  0  0  0  0  0
   36.8870   26.1210   39.7630 C   0  0  0  0  0  0  0  0  0  0  0  0
   36.9170   26.7980   38.9190 H   0  0  0  0  0  0  0  0  0  0  0  0
   36.3960   24.8320   39.6800 C   0  0  0  0  0  3  0  0  0  0  0  0
   36.4180   24.0740   40.8330 C   0  0  0  0  0  0  0  0  0  0  0  0
   36.0330   23.0450   40.8010 H   0  0  0  0  0  0  0  0  0  0  0  0
   36.8880   24.4860   42.0710 C   0  0  0  0  0  0  0  0  0  0  0  0
   36.8650   23.8220   42.9210 H   0  0  0  0  0  0  0  0  0  0  0  0
   37.3750   25.7920   42.1140 C   0  0  0  0  0  3  0  0  0  0  0  0
   39.4650   31.8730   41.3750 C   0  0  1  0  0  0  0  0  0  0  0  0
   40.0390   32.5190   40.2140 C   0  0  0  0  0  0  0  0  0  0  0  0
   38.7140   33.0010   40.6790 C   0  0  1  0  0  0  0  0  0  0  0  0
   39.8390   32.0890   42.3880 H   0  0  0  0  0  0  0  0  0  0  0  0
   40.0190   31.9380   39.2470 H   0  0  0  0  0  0  0  0  0  0  0  0
   40.9330   33.1710   40.2810 H   0  0  0  0  0  0  0  0  0  0  0  0
   38.7090   33.9570   41.2350 H   0  0  0  0  0  0  0  0  0  0  0  0
   37.4760   32.7130   39.9050 C   0  0  0  0  0  0  0  0  0  0  0  0
   36.5260   32.0560   40.6690 F   0  0  0  0  0  0  0  0  0  0  0  0
   37.7530   31.9480   38.7720 F   0  0  0  0  0  0  0  0  0  0  0  0
   36.9250   33.9030   39.5130 F   0  0  0  0  0  0  0  0  0  0  0  0
  1  7  1  0  0  0  0
  2 18  1  0  0  0  0
  2  1  2  0  0  0  0
  3  2  1  0  0  0  0
  4  3  2  0  0  0  0
  4  5  1  0  0  0  0
  5  6  2  0  0  0  0
  6  1  1  0  0  0  0
  8  3  1  0  0  0  0
  9  5  1  0  0  0  0
  9 17  1  0  0  0  0
 10  9  2  0  0  0  0
 11 10  1  0  0  0  0
 12 10  1  0  0  0  0
 12 13  2  0  0  0  0
 13 15  1  0  0  0  0
 14 13  1  0  0  0  0
 15 17  2  0  0  0  0
 15 16  1  0  0  0  0
 18 21  1  1  0  0  0
 19 23  1  0  0  0  0
 19 20  1  0  0  0  0
 19 18  1  0  0  0  0
 20 24  1  1  0  0  0
 20 18  1  0  0  0  0
 22 19  1  0  0  0  0
 25 26  1  0  0  0  0
 25 20  1  0  0  0  0
 27 25  1  0  0  0  0
 28 25  1  0  0  0  0
M  END
>  <minimizedAffinity>
-5.16540718

$$$$

 OpenBabel03242520343D

 28 30  0  0  1  0  0  0  0  0999 V2000
   38.7970   30.4700   41.3500 C   0  0  0  0  0  0  0  0  0  0  0  0
   37.4330   30.7040   40.9770 C   0  0  0  0  0  0  0  0  0  0  0  0
   36.5520   29.6440   41.0750 C   0  0  0  0  0  0  0  0  0  0  0  0
   37.0350   28.4480   41.5190 N   0  0  0  0  0  0  0  0  0  0  0  0
   38.3030   28.2480   41.8620 C   0  0  0  0  0  0  0  0  0  0  0  0
   39.1790   29.2780   41.7700 N   0  0  0  0  0  0  0  0  0  0  0  0
   39.4880   31.2860   41.2770 H   0  0  0  0  0  0  0  0  0  0  0  0
   35.5280   29.7850   40.8040 H   0  0  0  0  0  0  0  0  0  0  0  0
   38.7420   26.9370   42.3280 C   0  0  0  0  0  0  0  0  0  0  0  0
   39.7780   26.8330   43.2500 C   0  0  0  0  0  0  0  0  0  0  0  0
   40.2340   27.7500   43.5990 H   0  0  0  0  0  0  0  0  0  0  0  0
   40.1760   25.5810   43.6770 C   0  0  0  0  0  3  0  0  0  0  0  0
   39.5070   24.4940   43.1520 C   0  0  0  0  0  0  0  0  0  0  0  0
   39.8010   23.4830   43.4710 H   0  0  0  0  0  0  0  0  0  0  0  0
   38.4710   24.5400   42.2330 C   0  0  0  0  0  0  0  0  0  0  0  0
   38.0060   23.6350   41.8750 H   0  0  0  0  0  0  0  0  0  0  0  0
   38.0970   25.8210   41.8260 C   0  0  0  0  0  3  0  0  0  0  0  0
   36.9680   32.0320   40.4860 C   0  0  1  0  0  0  0  0  0  0  0  0
   37.9240   33.0140   40.0170 C   0  0  0  0  0  0  0  0  0  0  0  0
   37.0920   32.3270   38.9970 C   0  0  1  0  0  0  0  0  0  0  0  0
   36.0280   32.3420   40.9670 H   0  0  0  0  0  0  0  0  0  0  0  0
   39.0110   32.7090   40.0250 H   0  0  0  0  0  0  0  0  0  0  0  0
   37.8020   34.0980   40.2100 H   0  0  0  0  0  0  0  0  0  0  0  0
   36.2530   32.9120   38.5760 H   0  0  0  0  0  0  0  0  0  0  0  0
   37.6820   31.3160   38.0780 C   0  0  0  0  0  0  0  0  0  0  0  0
   36.9710   30.1270   38.0890 F   0  0  0  0  0  0  0  0  0  0  0  0
   39.0120   31.0500   38.4020 F   0  0  0  0  0  0  0  0  0  0  0  0
   37.6240   31.8070   36.8010 F   0  0  0  0  0  0  0  0  0  0  0  0
  1  6  1  0  0  0  0
  2  3  1  0  0  0  0
  2  1  2  0  0  0  0
  3  4  2  0  0  0  0
  4  5  1  0  0  0  0
  5  9  1  0  0  0  0
  6  5  2  0  0  0  0
  7  1  1  0  0  0  0
  8  3  1  0  0  0  0
  9 10  1  0  0  0  0
 10 11  1  0  0  0  0
 10 12  2  0  0  0  0
 13 14  1  0  0  0  0
 13 12  1  0  0  0  0
 15 13  2  0  0  0  0
 16 15  1  0  0  0  0
 17 15  1  0  0  0  0
 17  9  2  0  0  0  0
 18 21  1  1  0  0  0
 18  2  1  0  0  0  0
 19 22  1  0  0  0  0
 19 23  1  0  0  0  0
 19 18  1  0  0  0  0
 20 24  1  6  0  0  0
 20 19  1  0  0  0  0
 20 18  1  0  0  0  0
 25 26  1  0  0  0  0
 25 27  1  0  0  0  0
 25 20  1  0  0  0  0
 28 25  1  0  0  0  0
M  END
>  <minimizedAffinity>
-5.14920521

$$$$

 OpenBabel03242520343D

 28 30  0  0  1  0  0  0  0  0999 V2000
   38.2140   29.8230   40.6110 C   0  0  0  0  0  0  0  0  0  0  0  0
   37.0000   30.5640   40.4390 C   0  0  0  0  0  0  0  0  0  0  0  0
   35.8130   29.8550   40.4250 C   0  0  0  0  0  0  0  0  0  0  0  0
   35.8740   28.5010   40.5760 N   0  0  0  0  0  0  0  0  0  0  0  0
   37.0100   27.8290   40.7360 C   0  0  0  0  0  0  0  0  0  0  0  0
   38.1810   28.5100   40.7510 N   0  0  0  0  0  0  0  0  0  0  0  0
   39.1390   30.3640   40.6230 H   0  0  0  0  0  0  0  0  0  0  0  0
   34.8900   30.3780   40.2970 H   0  0  0  0  0  0  0  0  0  0  0  0
   36.9910   26.3780   40.8920 C   0  0  0  0  0  0  0  0  0  0  0  0
   37.3480   25.8000   42.1040 C   0  0  0  0  0  0  0  0  0  0  0  0
   37.6340   26.4610   42.9120 H   0  0  0  0  0  0  0  0  0  0  0  0
   37.3220   24.4230   42.2270 C   0  0  0  0  0  3  0  0  0  0  0  0
   36.9380   23.6980   41.1180 C   0  0  0  0  0  0  0  0  0  0  0  0
   36.9080   22.6010   41.1830 H   0  0  0  0  0  0  0  0  0  0  0  0
   36.5730   24.2230   39.8880 C   0  0  0  0  0  0  0  0  0  0  0  0
   36.2860   23.5770   39.0730 H   0  0  0  0  0  0  0  0  0  0  0  0
   36.6110   25.6150   39.8020 C   0  0  0  0  0  3  0  0  0  0  0  0
   36.9990   32.0450   40.2660 C   0  0  1  0  0  0  0  0  0  0  0  0
   38.2330   32.7480   39.9880 C   0  0  0  0  0  0  0  0  0  0  0  0
   37.2640   32.6020   38.8730 C   0  0  1  0  0  0  0  0  0  0  0  0
   36.1890   32.5240   40.8360 H   0  0  0  0  0  0  0  0  0  0  0  0
   39.1660   32.1200   39.8910 H   0  0  0  0  0  0  0  0  0  0  0  0
   38.4550   33.7460   40.4160 H   0  0  0  0  0  0  0  0  0  0  0  0
   36.6700   33.5000   38.6190 H   0  0  0  0  0  0  0  0  0  0  0  0
   37.5350   31.6800   37.7350 C   0  0  0  0  0  0  0  0  0  0  0  0
   36.5690   30.6940   37.6250 F   0  0  0  0  0  0  0  0  0  0  0  0
   38.7860   31.0760   37.8580 F   0  0  0  0  0  0  0  0  0  0  0  0
   37.5030   32.4060   36.5750 F   0  0  0  0  0  0  0  0  0  0  0  0
  1  7  1  0  0  0  0
  1  6  1  0  0  0  0
  2  1  2  0  0  0  0
  3  2  1  0  0  0  0
  3  4  2  0  0  0  0
  4  5  1  0  0  0  0
  5  6  2  0  0  0  0
  5  9  1  0  0  0  0
  8  3  1  0  0  0  0
  9 10  1  0  0  0  0
 10 12  2  0  0  0  0
 10 11  1  0  0  0  0
 13 14  1  0  0  0  0
 13 12  1  0  0  0  0
 15 13  2  0  0  0  0
 16 15  1  0  0  0  0
 17 15  1  0  0  0  0
 17  9  2  0  0  0  0
 18  2  1  0  0  0  0
 18 21  1  1  0  0  0
 19 18  1  0  0  0  0
 19 23  1  0  0  0  0
 20 24  1  6  0  0  0
 20 19  1  0  0  0  0
 20 18  1  0  0  0  0
 22 19  1  0  0  0  0
 25 27  1  0  0  0  0
 25 20  1  0  0  0  0
 26 25  1  0  0  0  0
 28 25  1  0  0  0  0
M  END
>  <minimizedAffinity>
-5.12064695

$$$$

 OpenBabel03242520343D

 28 30  0  0  1  0  0  0  0  0999 V2000
   37.8540   29.1810   39.9030 C   0  0  0  0  0  0  0  0  0  0  0  0
   37.2310   29.0160   41.1830 C   0  0  0  0  0  0  0  0  0  0  0  0
   35.8580   28.8630   41.2120 C   0  0  0  0  0  0  0  0  0  0  0  0
   35.1860   28.8790   40.0250 N   0  0  0  0  0  0  0  0  0  0  0  0
   35.7800   29.0330   38.8460 C   0  0  0  0  0  0  0  0  0  0  0  0
   37.1250   29.1840   38.8020 N   0  0  0  0  0  0  0  0  0  0  0  0
   38.9190   29.3000   39.8710 H   0  0  0  0  0  0  0  0  0  0  0  0
   35.3620   28.7390   42.1510 H   0  0  0  0  0  0  0  0  0  0  0  0
   34.9900   29.0390   37.6190 C   0  0  0  0  0  0  0  0  0  0  0  0
   35.6140   29.1860   36.3860 C   0  0  0  0  0  0  0  0  0  0  0  0
   36.6900   29.2950   36.3770 H   0  0  0  0  0  0  0  0  0  0  0  0
   34.8450   29.1890   35.2370 C   0  0  0  0  0  3  0  0  0  0  0  0
   33.4810   29.0410   35.3920 C   0  0  0  0  0  0  0  0  0  0  0  0
   32.8410   29.0390   34.4980 H   0  0  0  0  0  0  0  0  0  0  0  0
   32.8090   28.8910   36.5950 C   0  0  0  0  0  0  0  0  0  0  0  0
   31.7360   28.7820   36.6200 H   0  0  0  0  0  0  0  0  0  0  0  0
   33.6180   28.8930   37.7300 C   0  0  0  0  0  3  0  0  0  0  0  0
   38.0190   29.0190   42.4480 C   0  0  1  0  0  0  0  0  0  0  0  0
   37.4330   28.5220   43.6750 C   0  0  0  0  0  0  0  0  0  0  0  0
   38.4630   27.6770   43.0180 C   0  0  1  0  0  0  0  0  0  0  0  0
   38.7680   29.8260   42.4640 H   0  0  0  0  0  0  0  0  0  0  0  0
   36.3800   28.1210   43.6100 H   0  0  0  0  0  0  0  0  0  0  0  0
   37.6320   28.9910   44.6590 H   0  0  0  0  0  0  0  0  0  0  0  0
   39.4690   27.6860   43.4770 H   0  0  0  0  0  0  0  0  0  0  0  0
   38.0930   26.4110   42.3290 C   0  0  0  0  0  0  0  0  0  0  0  0
   38.5230   26.3910   41.0130 F   0  0  0  0  0  0  0  0  0  0  0  0
   36.7140   26.2010   42.3580 F   0  0  0  0  0  0  0  0  0  0  0  0
   38.7140   25.3730   42.9710 F   0  0  0  0  0  0  0  0  0  0  0  0
  1  2  1  0  0  0  0
  2  3  2  0  0  0  0
  2 18  1  0  0  0  0
  3  8  1  0  0  0  0
  4  3  1  0  0  0  0
  5  4  2  0  0  0  0
  6  5  1  0  0  0  0
  6  1  2  0  0  0  0
  7  1  1  0  0  0  0
  9 17  1  0  0  0  0
  9  5  1  0  0  0  0
 10  9  2  0  0  0  0
 11 10  1  0  0  0  0
 12 13  2  0  0  0  0
 12 10  1  0  0  0  0
 13 15  1  0  0  0  0
 14 13  1  0  0  0  0
 15 16  1  0  0  0  0
 15 17  2  0  0  0  0
 18 21  1  1  0  0  0
 18 20  1  0  0  0  0
 18 19  1  0  0  0  0
 19 23  1  0  0  0  0
 20 24  1  1  0  0  0
 20 19  1  0  0  0  0
 22 19  1  0  0  0  0
 25 27  1  0  0  0  0
 25 28  1  0  0  0  0
 25 20  1  0  0  0  0
 26 25  1  0  0  0  0
M  END
>  <minimizedAffinity>
-4.94968462

$$$$

 OpenBabel03242520343D

 28 30  0  0  1  0  0  0  0  0999 V2000
   38.0470   29.8620   38.8080 C   0  0  0  0  0  0  0  0  0  0  0  0
   37.3830   30.9440   39.4720 C   0  0  0  0  0  0  0  0  0  0  0  0
   36.5980   30.6380   40.5680 C   0  0  0  0  0  0  0  0  0  0  0  0
   36.5070   29.3310   40.9450 N   0  0  0  0  0  0  0  0  0  0  0  0
   37.1300   28.3390   40.3180 C   0  0  0  0  0  0  0  0  0  0  0  0
   37.9020   28.6230   39.2420 N   0  0  0  0  0  0  0  0  0  0  0  0
   38.6580   30.0900   37.9570 H   0  0  0  0  0  0  0  0  0  0  0  0
   36.0890   31.4230   41.0850 H   0  0  0  0  0  0  0  0  0  0  0  0
   36.9810   26.9640   40.7840 C   0  0  0  0  0  0  0  0  0  0  0  0
   37.0940   26.6670   42.1370 C   0  0  0  0  0  0  0  0  0  0  0  0
   37.2940   27.4860   42.8170 H   0  0  0  0  0  0  0  0  0  0  0  0
   36.9490   25.3580   42.5550 C   0  0  0  0  0  3  0  0  0  0  0  0
   36.6960   24.4110   41.5830 C   0  0  0  0  0  0  0  0  0  0  0  0
   36.5760   23.3600   41.8820 H   0  0  0  0  0  0  0  0  0  0  0  0
   36.5740   24.6510   40.2230 C   0  0  0  0  0  0  0  0  0  0  0  0
   36.3760   23.8460   39.5340 H   0  0  0  0  0  0  0  0  0  0  0  0
   36.7270   25.9840   39.8410 C   0  0  0  0  0  3  0  0  0  0  0  0
   37.5130   32.3540   39.0040 C   0  0  1  0  0  0  0  0  0  0  0  0
   37.3240   33.4510   39.9290 C   0  0  0  0  0  0  0  0  0  0  0  0
   38.7120   33.1600   39.4870 C   0  0  1  0  0  0  0  0  0  0  0  0
   37.2530   32.4590   37.9400 H   0  0  0  0  0  0  0  0  0  0  0  0
   37.1020   33.1800   41.0020 H   0  0  0  0  0  0  0  0  0  0  0  0
   36.8240   34.3950   39.6340 H   0  0  0  0  0  0  0  0  0  0  0  0
   39.1380   33.8440   38.7300 H   0  0  0  0  0  0  0  0  0  0  0  0
   39.7020   32.5490   40.4160 C   0  0  0  0  0  0  0  0  0  0  0  0
   40.3690   31.4830   39.8360 F   0  0  0  0  0  0  0  0  0  0  0  0
   39.0930   32.1150   41.5930 F   0  0  0  0  0  0  0  0  0  0  0  0
   40.6440   33.4930   40.7240 F   0  0  0  0  0  0  0  0  0  0  0  0
  1  6  2  0  0  0  0
  1  2  1  0  0  0  0
  2  3  2  0  0  0  0
  3  4  1  0  0  0  0
  3  8  1  0  0  0  0
  5  9  1  0  0  0  0
  5  4  2  0  0  0  0
  6  5  1  0  0  0  0
  7  1  1  0  0  0  0
  9 10  1  0  0  0  0
 10 12  2  0  0  0  0
 10 11  1  0  0  0  0
 13 14  1  0  0  0  0
 13 12  1  0  0  0  0
 15 13  2  0  0  0  0
 16 15  1  0  0  0  0
 17 15  1  0  0  0  0
 17  9  2  0  0  0  0
 18 21  1  6  0  0  0
 18  2  1  0  0  0  0
 18 20  1  0  0  0  0
 18 19  1  0  0  0  0
 19 22  1  0  0  0  0
 20 24  1  6  0  0  0
 20 19  1  0  0  0  0
 20 25  1  0  0  0  0
 23 19  1  0  0  0  0
 25 28  1  0  0  0  0
 25 27  1  0  0  0  0
 26 25  1  0  0  0  0
M  END
>  <minimizedAffinity>
-4.91382265

$$$$

 OpenBabel03242520343D

 28 30  0  0  1  0  0  0  0  0999 V2000
   40.5560   31.6330   41.3880 C   0  0  0  0  0  0  0  0  0  0  0  0
   39.7870   32.6950   40.8100 C   0  0  0  0  0  0  0  0  0  0  0  0
   38.4280   32.4920   40.6600 C   0  0  0  0  0  0  0  0  0  0  0  0
   37.9080   31.3000   41.0690 N   0  0  0  0  0  0  0  0  0  0  0  0
   38.6360   30.3250   41.6040 C   0  0  0  0  0  0  0  0  0  0  0  0
   39.9700   30.5080   41.7570 N   0  0  0  0  0  0  0  0  0  0  0  0
   41.6110   31.7800   41.5090 H   0  0  0  0  0  0  0  0  0  0  0  0
   37.8260   33.2650   40.2320 H   0  0  0  0  0  0  0  0  0  0  0  0
   38.0050   29.0760   42.0170 C   0  0  0  0  0  0  0  0  0  0  0  0
   37.5190   28.9320   43.3110 C   0  0  0  0  0  0  0  0  0  0  0  0
   37.6280   29.7720   43.9850 H   0  0  0  0  0  0  0  0  0  0  0  0
   36.9250   27.7400   43.6800 C   0  0  0  0  0  3  0  0  0  0  0  0
   36.8510   26.7500   42.7210 C   0  0  0  0  0  0  0  0  0  0  0  0
   36.3850   25.7900   42.9820 H   0  0  0  0  0  0  0  0  0  0  0  0
   37.3190   26.8400   41.4190 C   0  0  0  0  0  0  0  0  0  0  0  0
   37.2180   26.0120   40.7360 H   0  0  0  0  0  0  0  0  0  0  0  0
   37.9110   28.0580   41.0850 C   0  0  0  0  0  3  0  0  0  0  0  0
   40.4150   33.9730   40.3710 C   0  0  1  0  0  0  0  0  0  0  0  0
   41.8550   34.0800   40.2630 C   0  0  0  0  0  0  0  0  0  0  0  0
   41.0780   34.0090   38.9990 C   0  0  1  0  0  0  0  0  0  0  0  0
   39.8000   34.8460   40.6360 H   0  0  0  0  0  0  0  0  0  0  0  0
   42.4530   33.1540   40.5040 H   0  0  0  0  0  0  0  0  0  0  0  0
   42.4020   35.0030   40.5380 H   0  0  0  0  0  0  0  0  0  0  0  0
   40.9450   34.9610   38.4520 H   0  0  0  0  0  0  0  0  0  0  0  0
   41.1070   32.7880   38.1480 C   0  0  0  0  0  0  0  0  0  0  0  0
   39.8330   32.3480   37.8290 F   0  0  0  0  0  0  0  0  0  0  0  0
   41.8010   31.7510   38.7700 F   0  0  0  0  0  0  0  0  0  0  0  0
   41.7320   33.0980   36.9700 F   0  0  0  0  0  0  0  0  0  0  0  0
  1  7  1  0  0  0  0
  1  6  1  0  0  0  0
  2  1  2  0  0  0  0
  3  2  1  0  0  0  0
  3  4  2  0  0  0  0
  4  5  1  0  0  0  0
  5  6  2  0  0  0  0
  5  9  1  0  0  0  0
  8  3  1  0  0  0  0
  9 10  1  0  0  0  0
 10 12  2  0  0  0  0
 10 11  1  0  0  0  0
 13 14  1  0  0  0  0
 13 12  1  0  0  0  0
 15 13  2  0  0  0  0
 16 15  1  0  0  0  0
 17 15  1  0  0  0  0
 17  9  2  0  0  0  0
 18 21  1  1  0  0  0
 18  2  1  0  0  0  0
 19 18  1  0  0  0  0
 19 22  1  0  0  0  0
 19 23  1  0  0  0  0
 20 24  1  6  0  0  0
 20 19  1  0  0  0  0
 20 18  1  0  0  0  0
 25 27  1  0  0  0  0
 25 20  1  0  0  0  0
 26 25  1  0  0  0  0
 28 25  1  0  0  0  0
M  END
>  <minimizedAffinity>
-4.91050816

$$$$
