
 OpenBabel03252509243D

 27 29  0  0  1  0  0  0  0  0999 V2000
   46.5250   34.7390   42.0170 C   0  0  1  0  0  0  0  0  0  0  0  0
   47.9800   35.2720   41.9910 C   0  0  0  0  0  0  0  0  0  0  0  0
   47.5410   33.8080   41.6820 C   0  0  2  0  0  0  0  0  0  0  0  0
   45.8720   35.2500   41.2830 H   0  0  0  0  0  0  0  0  0  0  0  0
   48.3070   35.8310   41.0980 H   0  0  0  0  0  0  0  0  0  0  0  0
   48.5070   35.4560   42.9190 H   0  0  0  0  0  0  0  0  0  0  0  0
   47.9070   33.0890   42.4490 H   0  0  0  0  0  0  0  0  0  0  0  0
   47.6840   33.3730   40.2520 C   0  0  0  0  0  0  0  0  0  0  0  0
   48.8770   32.8180   39.8340 C   0  0  0  0  0  0  0  0  0  0  0  0
   49.7130   32.6840   40.4980 H   0  0  0  0  0  0  0  0  0  0  0  0
   49.0190   32.4100   38.5030 C   0  0  0  0  0  3  0  0  0  0  0  0
   47.9100   32.6070   37.6980 C   0  0  0  0  0  0  0  0  0  0  0  0
   48.0180   32.2890   36.6550 H   0  0  0  0  0  0  0  0  0  0  0  0
   46.7000   33.1600   38.0810 C   0  0  0  0  0  0  0  0  0  0  0  0
   45.9190   33.2530   37.3410 H   0  0  0  0  0  0  0  0  0  0  0  0
   46.5990   33.5560   39.4190 C   0  0  0  0  0  3  0  0  0  0  0  0
   44.5270   35.6150   45.0680 C   0  0  0  0  0  0  0  0  0  0  0  0
   45.0600   35.7200   43.7340 C   0  0  0  0  0  0  0  0  0  0  0  0
   45.9810   34.7580   43.4190 C   0  0  0  0  0  0  0  0  0  0  0  0
   46.3590   33.7790   44.3160 N   0  0  0  0  0  0  0  0  0  0  0  0
   45.8310   33.7250   45.5510 C   0  0  0  0  0  0  0  0  0  0  0  0
   44.9090   34.6500   45.9260 N   0  0  0  0  0  0  0  0  0  0  0  0
   43.7940   36.3510   45.3680 H   0  0  0  0  0  0  0  0  0  0  0  0
   46.2260   32.9040   46.1310 H   0  0  0  0  0  0  0  0  0  0  0  0
   44.6780   36.7470   42.8380 N   0  0  0  0  0  0  0  0  0  0  0  0
   45.1700   37.6400   43.0940 H   0  0  0  0  0  0  0  0  0  0  0  0
   44.0390   36.7640   42.0330 H   0  0  0  0  0  0  0  0  0  0  0  0
  1  4  1  6  0  0  0
  1 19  1  0  0  0  0
  2  1  1  0  0  0  0
  2  6  1  0  0  0  0
  3  2  1  0  0  0  0
  3  1  1  0  0  0  0
  3  7  1  1  0  0  0
  5  2  1  0  0  0  0
  8  3  1  0  0  0  0
  9  8  1  0  0  0  0
  9 10  1  0  0  0  0
 11  9  2  0  0  0  0
 12 14  2  0  0  0  0
 12 11  1  0  0  0  0
 13 12  1  0  0  0  0
 14 16  1  0  0  0  0
 15 14  1  0  0  0  0
 16  8  2  0  0  0  0
 17 23  1  0  0  0  0
 17 22  1  0  0  0  0
 18 17  2  0  0  0  0
 19 18  1  0  0  0  0
 19 20  2  0  0  0  0
 20 21  1  0  0  0  0
 21 22  2  0  0  0  0
 21 24  1  0  0  0  0
 25 26  1  0  0  0  0
 25 18  1  0  0  0  0
 27 25  1  0  0  0  0
M  END
>  <minimizedAffinity>
-4.75250864

>  <minimizedRMSD>
0.538435459

$$$$
