
 OpenBabel03252506393D

 44 47  0  0  1  0  0  0  0  0999 V2000
   43.3250   34.1570   37.8490 C   0  0  0  0  0  0  0  0  0  0  0  0
   43.8330   32.9550   37.3020 C   0  0  0  0  0  0  0  0  0  0  0  0
   43.1230   31.8130   37.4450 C   0  0  0  0  0  0  0  0  0  0  0  0
   41.9440   31.8880   38.1170 N   0  0  0  0  0  0  0  0  0  0  0  0
   41.4740   33.0190   38.6250 C   0  0  0  0  0  0  0  0  0  0  0  0
   42.1530   34.1610   38.5000 N   0  0  0  0  0  0  0  0  0  0  0  0
   40.2130   32.9900   39.3180 N   0  0  0  0  0  0  0  0  0  0  0  0
   39.4860   34.1490   39.7010 C   0  0  0  0  0  0  0  0  0  0  0  0
   38.8860   33.7530   41.0390 C   0  0  0  0  0  0  0  0  0  0  0  0
   39.1920   32.3020   41.2220 C   0  0  0  0  0  0  0  0  0  0  0  0
   39.4720   31.8490   39.7880 C   0  0  1  0  0  0  0  0  0  0  0  0
   43.9070   35.0500   37.7210 H   0  0  0  0  0  0  0  0  0  0  0  0
   43.4830   30.8810   37.0420 H   0  0  0  0  0  0  0  0  0  0  0  0
   38.8160   34.6720   39.0970 H   0  0  0  0  0  0  0  0  0  0  0  0
   40.2690   34.9170   40.0050 H   0  0  0  0  0  0  0  0  0  0  0  0
   39.1310   34.4110   41.8680 H   0  0  0  0  0  0  0  0  0  0  0  0
   37.7670   33.8200   40.9020 H   0  0  0  0  0  0  0  0  0  0  0  0
   38.3380   31.7780   41.6720 H   0  0  0  0  0  0  0  0  0  0  0  0
   40.0840   32.2300   41.8660 H   0  0  0  0  0  0  0  0  0  0  0  0
   40.0840   30.9300   39.8880 H   0  0  0  0  0  0  0  0  0  0  0  0
   45.0910   33.0200   36.6150 N   0  0  0  0  0  0  0  0  0  0  0  0
   45.7140   32.1790   36.7600 H   0  0  0  0  0  0  0  0  0  0  0  0
   45.4280   33.7930   36.0120 H   0  0  0  0  0  0  0  0  0  0  0  0
   37.9270   31.6550   38.9320 S   0  0  0  0  0  0  0  0  0  0  0  0
   38.8450   28.4610   39.1960 O   0  0  0  0  0  0  0  0  0  0  0  0
   37.7310   28.9500   39.4430 C   0  0  0  0  0  0  0  0  0  0  0  0
   36.9880   30.2290   39.2960 C   0  0  1  0  0  0  0  0  0  0  0  0
   36.2020   30.2760   40.5820 C   0  0  0  0  0  0  0  0  0  0  0  0
   35.5600   28.8870   40.4800 C   0  0  0  0  0  0  0  0  0  0  0  0
   36.7360   28.1220   40.0760 N   0  0  0  0  0  0  0  0  0  0  0  0
   36.1970   29.9090   38.5670 H   0  0  0  0  0  0  0  0  0  0  0  0
   36.8570   30.2690   41.4720 H   0  0  0  0  0  0  0  0  0  0  0  0
   35.4440   31.0700   40.6180 H   0  0  0  0  0  0  0  0  0  0  0  0
   34.7730   28.8810   39.7100 H   0  0  0  0  0  0  0  0  0  0  0  0
   35.1960   28.6010   41.4870 H   0  0  0  0  0  0  0  0  0  0  0  0
   36.7200   26.7200   40.3600 C   0  0  0  0  0  0  0  0  0  0  0  0
   36.5250   25.7080   39.4760 C   0  0  0  0  0  0  0  0  0  0  0  0
   36.3670   25.9870   38.4540 H   0  0  0  0  0  0  0  0  0  0  0  0
   36.5420   24.3930   39.9370 C   0  0  0  0  0  3  0  0  0  0  0  0
   36.7580   24.1340   41.2950 C   0  0  0  0  0  0  0  0  0  0  0  0
   36.7790   23.1310   41.6920 H   0  0  0  0  0  0  0  0  0  0  0  0
   36.9550   25.1680   42.1870 C   0  0  0  0  0  0  0  0  0  0  0  0
   37.1230   24.9560   43.2460 H   0  0  0  0  0  0  0  0  0  0  0  0
   36.9350   26.4680   41.7150 C   0  0  0  0  0  3  0  0  0  0  0  0
  1  6  1  0  0  0  0
  2  3  1  0  0  0  0
  2  1  2  0  0  0  0
  3  4  2  0  0  0  0
  4  5  1  0  0  0  0
  5  7  1  0  0  0  0
  6  5  2  0  0  0  0
  7  8  1  0  0  0  0
  7 11  1  0  0  0  0
  8 15  1  0  0  0  0
  8  9  1  0  0  0  0
  9 10  1  0  0  0  0
  9 16  1  0  0  0  0
 10 18  1  0  0  0  0
 10 19  1  0  0  0  0
 11 20  1  6  0  0  0
 11 10  1  0  0  0  0
 12  1  1  0  0  0  0
 13  3  1  0  0  0  0
 14  8  1  0  0  0  0
 17  9  1  0  0  0  0
 21 22  1  0  0  0  0
 21  2  1  0  0  0  0
 23 21  1  0  0  0  0
 24 27  1  0  0  0  0
 24 11  1  0  0  0  0
 25 26  2  0  0  0  0
 26 30  1  0  0  0  0
 27 31  1  6  0  0  0
 27 26  1  0  0  0  0
 27 28  1  0  0  0  0
 28 33  1  0  0  0  0
 28 32  1  0  0  0  0
 29 28  1  0  0  0  0
 29 35  1  0  0  0  0
 30 36  1  0  0  0  0
 30 29  1  0  0  0  0
 34 29  1  0  0  0  0
 36 44  1  0  0  0  0
 37 39  1  0  0  0  0
 37 36  2  0  0  0  0
 38 37  1  0  0  0  0
 39 40  2  0  0  0  0
 40 41  1  0  0  0  0
 40 42  1  0  0  0  0
 42 43  1  0  0  0  0
 44 42  2  0  0  0  0
M  END
>  <minimizedAffinity>
-5.8603735

$$$$

 OpenBabel03252506393D

 44 47  0  0  1  0  0  0  0  0999 V2000
   38.6360   27.1850   36.2000 C   0  0  0  0  0  0  0  0  0  0  0  0
   37.4490   27.9100   35.9420 C   0  0  0  0  0  0  0  0  0  0  0  0
   36.4800   27.9480   36.8840 C   0  0  0  0  0  0  0  0  0  0  0  0
   36.7070   27.2770   38.0430 N   0  0  0  0  0  0  0  0  0  0  0  0
   37.8230   26.6000   38.2780 C   0  0  0  0  0  0  0  0  0  0  0  0
   38.7960   26.5440   37.3670 N   0  0  0  0  0  0  0  0  0  0  0  0
   37.9640   25.9230   39.5400 N   0  0  0  0  0  0  0  0  0  0  0  0
   39.1810   25.3670   40.0170 C   0  0  0  0  0  0  0  0  0  0  0  0
   38.7270   24.1080   40.7360 C   0  0  0  0  0  0  0  0  0  0  0  0
   37.2340   24.1530   40.7540 C   0  0  0  0  0  0  0  0  0  0  0  0
   36.9530   25.6390   40.5260 C   0  0  1  0  0  0  0  0  0  0  0  0
   39.3900   27.1700   35.4360 H   0  0  0  0  0  0  0  0  0  0  0  0
   35.5650   28.4910   36.7170 H   0  0  0  0  0  0  0  0  0  0  0  0
   39.9230   25.8850   40.5370 H   0  0  0  0  0  0  0  0  0  0  0  0
   39.7060   24.9450   39.0990 H   0  0  0  0  0  0  0  0  0  0  0  0
   39.1830   23.1870   40.3860 H   0  0  0  0  0  0  0  0  0  0  0  0
   39.0550   24.2370   41.8090 H   0  0  0  0  0  0  0  0  0  0  0  0
   36.8450   23.7920   41.7170 H   0  0  0  0  0  0  0  0  0  0  0  0
   36.8730   23.5250   39.9220 H   0  0  0  0  0  0  0  0  0  0  0  0
   35.9190   25.6810   40.1280 H   0  0  0  0  0  0  0  0  0  0  0  0
   37.3420   28.5750   34.6750 N   0  0  0  0  0  0  0  0  0  0  0  0
   36.3740   28.5610   34.2510 H   0  0  0  0  0  0  0  0  0  0  0  0
   38.1060   29.0500   34.1580 H   0  0  0  0  0  0  0  0  0  0  0  0
   37.2300   26.5190   42.0440 S   0  0  0  0  0  0  0  0  0  0  0  0
   39.4270   28.8610   41.1510 O   0  0  0  0  0  0  0  0  0  0  0  0
   38.2310   29.0180   41.4420 C   0  0  0  0  0  0  0  0  0  0  0  0
   37.0810   28.2570   41.9970 C   0  0  1  0  0  0  0  0  0  0  0  0
   35.9350   28.7920   41.1750 C   0  0  0  0  0  0  0  0  0  0  0  0
   36.1840   30.2840   41.4250 C   0  0  0  0  0  0  0  0  0  0  0  0
   37.6290   30.3100   41.2250 N   0  0  0  0  0  0  0  0  0  0  0  0
   36.9340   28.8080   42.9630 H   0  0  0  0  0  0  0  0  0  0  0  0
   36.0770   28.6130   40.0940 H   0  0  0  0  0  0  0  0  0  0  0  0
   34.9430   28.4830   41.5320 H   0  0  0  0  0  0  0  0  0  0  0  0
   35.8990   30.5570   42.4520 H   0  0  0  0  0  0  0  0  0  0  0  0
   35.6400   30.8590   40.6480 H   0  0  0  0  0  0  0  0  0  0  0  0
   38.2060   31.5670   40.8600 C   0  0  0  0  0  0  0  0  0  0  0  0
   39.4610   32.0040   41.1370 C   0  0  0  0  0  0  0  0  0  0  0  0
   40.0910   31.3370   41.6890 H   0  0  0  0  0  0  0  0  0  0  0  0
   39.8510   33.2680   40.6970 C   0  0  0  0  0  3  0  0  0  0  0  0
   38.9510   34.0640   39.9820 C   0  0  0  0  0  0  0  0  0  0  0  0
   39.2140   35.0480   39.6240 H   0  0  0  0  0  0  0  0  0  0  0  0
   37.6770   33.6140   39.7040 C   0  0  0  0  0  0  0  0  0  0  0  0
   36.9810   34.2440   39.1440 H   0  0  0  0  0  0  0  0  0  0  0  0
   37.3040   32.3580   40.1460 C   0  0  0  0  0  3  0  0  0  0  0  0
  1  6  1  0  0  0  0
  2  1  2  0  0  0  0
  2  3  1  0  0  0  0
  3  4  2  0  0  0  0
  4  5  1  0  0  0  0
  5  7  1  0  0  0  0
  6  5  2  0  0  0  0
  7  8  1  0  0  0  0
  7 11  1  0  0  0  0
  8 14  1  0  0  0  0
  8  9  1  0  0  0  0
  9 10  1  0  0  0  0
  9 17  1  0  0  0  0
 10 18  1  0  0  0  0
 11 20  1  6  0  0  0
 11 10  1  0  0  0  0
 11 24  1  0  0  0  0
 12  1  1  0  0  0  0
 13  3  1  0  0  0  0
 15  8  1  0  0  0  0
 16  9  1  0  0  0  0
 19 10  1  0  0  0  0
 21  2  1  0  0  0  0
 22 21  1  0  0  0  0
 23 21  1  0  0  0  0
 25 26  2  0  0  0  0
 26 27  1  0  0  0  0
 27 24  1  0  0  0  0
 27 31  1  1  0  0  0
 28 29  1  0  0  0  0
 28 33  1  0  0  0  0
 28 27  1  0  0  0  0
 29 34  1  0  0  0  0
 30 29  1  0  0  0  0
 30 26  1  0  0  0  0
 32 28  1  0  0  0  0
 35 29  1  0  0  0  0
 36 37  1  0  0  0  0
 36 30  1  0  0  0  0
 37 38  1  0  0  0  0
 39 37  2  0  0  0  0
 40 39  1  0  0  0  0
 41 40  1  0  0  0  0
 42 40  2  0  0  0  0
 42 44  1  0  0  0  0
 43 42  1  0  0  0  0
 44 36  2  0  0  0  0
M  END
>  <minimizedAffinity>
-5.80042171

$$$$

 OpenBabel03252506393D

 44 47  0  0  1  0  0  0  0  0999 V2000
   37.1420   30.1730   36.7940 C   0  0  0  0  0  0  0  0  0  0  0  0
   37.9900   29.0740   36.5220 C   0  0  0  0  0  0  0  0  0  0  0  0
   39.0460   28.8380   37.3330 C   0  0  0  0  0  0  0  0  0  0  0  0
   39.2330   29.6850   38.3790 N   0  0  0  0  0  0  0  0  0  0  0  0
   38.4340   30.7130   38.6280 C   0  0  0  0  0  0  0  0  0  0  0  0
   37.3850   30.9700   37.8450 N   0  0  0  0  0  0  0  0  0  0  0  0
   38.7210   31.5490   39.7630 N   0  0  0  0  0  0  0  0  0  0  0  0
   37.8300   32.5270   40.2810 C   0  0  0  0  0  0  0  0  0  0  0  0
   38.7610   33.6470   40.7130 C   0  0  0  0  0  0  0  0  0  0  0  0
   40.1500   33.1200   40.5590 C   0  0  0  0  0  0  0  0  0  0  0  0
   39.9220   31.6070   40.5560 C   0  0  1  0  0  0  0  0  0  0  0  0
   36.3100   30.3390   36.1360 H   0  0  0  0  0  0  0  0  0  0  0  0
   39.7100   28.0100   37.1530 H   0  0  0  0  0  0  0  0  0  0  0  0
   37.0650   32.3490   40.9680 H   0  0  0  0  0  0  0  0  0  0  0  0
   37.3120   32.9800   39.3750 H   0  0  0  0  0  0  0  0  0  0  0  0
   38.5540   34.6160   40.2680 H   0  0  0  0  0  0  0  0  0  0  0  0
   38.5960   33.7670   41.8240 H   0  0  0  0  0  0  0  0  0  0  0  0
   40.7870   33.4500   41.3910 H   0  0  0  0  0  0  0  0  0  0  0  0
   40.5380   33.4870   39.5940 H   0  0  0  0  0  0  0  0  0  0  0  0
   40.8110   31.1810   40.0490 H   0  0  0  0  0  0  0  0  0  0  0  0
   37.6730   28.2590   35.3850 N   0  0  0  0  0  0  0  0  0  0  0  0
   38.5130   27.9040   34.8510 H   0  0  0  0  0  0  0  0  0  0  0  0
   36.7250   28.0000   35.0530 H   0  0  0  0  0  0  0  0  0  0  0  0
   39.6510   31.0610   42.2240 S   0  0  0  0  0  0  0  0  0  0  0  0
   37.4430   28.7370   41.3130 O   0  0  0  0  0  0  0  0  0  0  0  0
   38.5400   28.5610   41.8660 C   0  0  0  0  0  0  0  0  0  0  0  0
   39.6330   29.3390   42.5070 C   0  0  1  0  0  0  0  0  0  0  0  0
   40.8550   28.5880   42.0420 C   0  0  0  0  0  0  0  0  0  0  0  0
   40.4160   27.1880   42.4860 C   0  0  0  0  0  0  0  0  0  0  0  0
   39.0400   27.2160   42.0010 N   0  0  0  0  0  0  0  0  0  0  0  0
   39.5370   28.9710   43.5620 H   0  0  0  0  0  0  0  0  0  0  0  0
   40.9410   28.5700   40.9400 H   0  0  0  0  0  0  0  0  0  0  0  0
   41.7870   28.8950   42.5360 H   0  0  0  0  0  0  0  0  0  0  0  0
   40.4720   27.0950   43.5820 H   0  0  0  0  0  0  0  0  0  0  0  0
   41.0380   26.4450   41.9480 H   0  0  0  0  0  0  0  0  0  0  0  0
   38.4220   25.9520   41.7460 C   0  0  0  0  0  0  0  0  0  0  0  0
   37.2080   25.5310   42.1830 C   0  0  0  0  0  0  0  0  0  0  0  0
   36.6480   26.2190   42.7850 H   0  0  0  0  0  0  0  0  0  0  0  0
   36.7650   24.2560   41.8320 C   0  0  0  0  0  3  0  0  0  0  0  0
   37.5720   23.4340   41.0400 C   0  0  0  0  0  0  0  0  0  0  0  0
   37.2670   22.4410   40.7460 H   0  0  0  0  0  0  0  0  0  0  0  0
   38.8060   23.8680   40.6000 C   0  0  0  0  0  0  0  0  0  0  0  0
   39.4290   23.2180   39.9810 H   0  0  0  0  0  0  0  0  0  0  0  0
   39.2310   25.1350   40.9560 C   0  0  0  0  0  3  0  0  0  0  0  0
  1  6  1  0  0  0  0
  2  1  2  0  0  0  0
  2  3  1  0  0  0  0
  3  4  2  0  0  0  0
  4  5  1  0  0  0  0
  5  7  1  0  0  0  0
  6  5  2  0  0  0  0
  7  8  1  0  0  0  0
  7 11  1  0  0  0  0
  8  9  1  0  0  0  0
  8 14  1  0  0  0  0
  9 17  1  0  0  0  0
 10  9  1  0  0  0  0
 10 18  1  0  0  0  0
 11 20  1  6  0  0  0
 11 10  1  0  0  0  0
 11 24  1  0  0  0  0
 12  1  1  0  0  0  0
 13  3  1  0  0  0  0
 15  8  1  0  0  0  0
 16  9  1  0  0  0  0
 19 10  1  0  0  0  0
 21  2  1  0  0  0  0
 22 21  1  0  0  0  0
 23 21  1  0  0  0  0
 24 27  1  0  0  0  0
 25 26  2  0  0  0  0
 26 30  1  0  0  0  0
 26 27  1  0  0  0  0
 27 31  1  1  0  0  0
 28 29  1  0  0  0  0
 28 27  1  0  0  0  0
 28 33  1  0  0  0  0
 29 34  1  0  0  0  0
 30 29  1  0  0  0  0
 32 28  1  0  0  0  0
 35 29  1  0  0  0  0
 36 30  1  0  0  0  0
 36 37  1  0  0  0  0
 37 38  1  0  0  0  0
 39 37  2  0  0  0  0
 40 39  1  0  0  0  0
 41 40  1  0  0  0  0
 42 44  1  0  0  0  0
 42 40  2  0  0  0  0
 43 42  1  0  0  0  0
 44 36  2  0  0  0  0
M  END
>  <minimizedAffinity>
-5.74931335

$$$$

 OpenBabel03252506393D

 44 47  0  0  1  0  0  0  0  0999 V2000
   39.0810   32.5140   39.1540 C   0  0  0  0  0  0  0  0  0  0  0  0
   38.3980   32.8320   40.3520 C   0  0  0  0  0  0  0  0  0  0  0  0
   37.2810   32.1440   40.6780 C   0  0  0  0  0  0  0  0  0  0  0  0
   36.8740   31.1700   39.8220 N   0  0  0  0  0  0  0  0  0  0  0  0
   37.5190   30.8770   38.7020 C   0  0  0  0  0  0  0  0  0  0  0  0
   38.6240   31.5390   38.3540 N   0  0  0  0  0  0  0  0  0  0  0  0
   37.0030   29.8260   37.8660 N   0  0  0  0  0  0  0  0  0  0  0  0
   37.7110   29.2530   36.7750 C   0  0  0  0  0  0  0  0  0  0  0  0
   36.6180   28.9900   35.7540 C   0  0  0  0  0  0  0  0  0  0  0  0
   35.3240   29.2850   36.4410 C   0  0  0  0  0  0  0  0  0  0  0  0
   35.7140   29.1870   37.9170 C   0  0  1  0  0  0  0  0  0  0  0  0
   39.9660   33.0750   38.9180 H   0  0  0  0  0  0  0  0  0  0  0  0
   36.7390   32.3630   41.5820 H   0  0  0  0  0  0  0  0  0  0  0  0
   38.3990   28.4710   36.8420 H   0  0  0  0  0  0  0  0  0  0  0  0
   38.2860   30.1110   36.2980 H   0  0  0  0  0  0  0  0  0  0  0  0
   36.7720   29.4530   34.7840 H   0  0  0  0  0  0  0  0  0  0  0  0
   36.6280   27.8740   35.5790 H   0  0  0  0  0  0  0  0  0  0  0  0
   34.5560   28.5520   36.1570 H   0  0  0  0  0  0  0  0  0  0  0  0
   35.0220   30.3060   36.1540 H   0  0  0  0  0  0  0  0  0  0  0  0
   34.9460   29.7760   38.4590 H   0  0  0  0  0  0  0  0  0  0  0  0
   38.9420   33.8830   41.1630 N   0  0  0  0  0  0  0  0  0  0  0  0
   38.2180   34.4960   41.6310 H   0  0  0  0  0  0  0  0  0  0  0  0
   39.9460   34.0850   41.3250 H   0  0  0  0  0  0  0  0  0  0  0  0
   35.8320   27.4740   38.3710 S   0  0  0  0  0  0  0  0  0  0  0  0
   38.9880   26.9210   39.2900 O   0  0  0  0  0  0  0  0  0  0  0  0
   37.9930   27.0200   40.0250 C   0  0  0  0  0  0  0  0  0  0  0  0
   36.5120   27.1090   39.9370 C   0  0  1  0  0  0  0  0  0  0  0  0
   36.1980   28.0970   41.0310 C   0  0  0  0  0  0  0  0  0  0  0  0
   36.9550   27.3940   42.1640 C   0  0  0  0  0  0  0  0  0  0  0  0
   38.1900   27.0790   41.4520 N   0  0  0  0  0  0  0  0  0  0  0  0
   36.2330   26.1400   40.4280 H   0  0  0  0  0  0  0  0  0  0  0  0
   36.6890   29.0730   40.8660 H   0  0  0  0  0  0  0  0  0  0  0  0
   35.1280   28.1920   41.2590 H   0  0  0  0  0  0  0  0  0  0  0  0
   36.4160   26.4900   42.4860 H   0  0  0  0  0  0  0  0  0  0  0  0
   37.1150   28.1280   42.9800 H   0  0  0  0  0  0  0  0  0  0  0  0
   39.3610   26.8830   42.2490 C   0  0  0  0  0  0  0  0  0  0  0  0
   40.0520   27.8290   42.9350 C   0  0  0  0  0  0  0  0  0  0  0  0
   39.6830   28.8340   42.8730 H   0  0  0  0  0  0  0  0  0  0  0  0
   41.1790   27.4510   43.6630 C   0  0  0  0  0  3  0  0  0  0  0  0
   41.5790   26.1110   43.6800 C   0  0  0  0  0  0  0  0  0  0  0  0
   42.4440   25.7770   44.2310 H   0  0  0  0  0  0  0  0  0  0  0  0
   40.8710   25.1550   42.9810 C   0  0  0  0  0  0  0  0  0  0  0  0
   41.1920   24.1100   43.0000 H   0  0  0  0  0  0  0  0  0  0  0  0
   39.7560   25.5450   42.2620 C   0  0  0  0  0  3  0  0  0  0  0  0
  1  2  1  0  0  0  0
  2  3  2  0  0  0  0
  2 21  1  0  0  0  0
  3 13  1  0  0  0  0
  4  3  1  0  0  0  0
  5  4  2  0  0  0  0
  6  5  1  0  0  0  0
  6  1  2  0  0  0  0
  7 11  1  0  0  0  0
  7  5  1  0  0  0  0
  8 14  1  0  0  0  0
  8  7  1  0  0  0  0
  9 10  1  0  0  0  0
  9  8  1  0  0  0  0
 10 11  1  0  0  0  0
 11 24  1  0  0  0  0
 11 20  1  1  0  0  0
 12  1  1  0  0  0  0
 15  8  1  0  0  0  0
 16  9  1  0  0  0  0
 17  9  1  0  0  0  0
 18 10  1  0  0  0  0
 19 10  1  0  0  0  0
 21 23  1  0  0  0  0
 21 22  1  0  0  0  0
 24 27  1  0  0  0  0
 25 26  2  0  0  0  0
 26 30  1  0  0  0  0
 27 26  1  0  0  0  0
 27 31  1  1  0  0  0
 27 28  1  0  0  0  0
 28 33  1  0  0  0  0
 28 29  1  0  0  0  0
 29 34  1  0  0  0  0
 29 35  1  0  0  0  0
 30 29  1  0  0  0  0
 30 36  1  0  0  0  0
 32 28  1  0  0  0  0
 36 44  2  0  0  0  0
 36 37  1  0  0  0  0
 37 39  2  0  0  0  0
 38 37  1  0  0  0  0
 39 40  1  0  0  0  0
 40 41  1  0  0  0  0
 42 43  1  0  0  0  0
 42 40  2  0  0  0  0
 44 42  1  0  0  0  0
M  END
>  <minimizedAffinity>
-5.71417713

$$$$

 OpenBabel03252506393D

 44 47  0  0  1  0  0  0  0  0999 V2000
   37.7830   26.4010   42.8050 C   0  0  0  0  0  0  0  0  0  0  0  0
   39.1830   26.5370   42.6530 C   0  0  0  0  0  0  0  0  0  0  0  0
   39.6670   27.4330   41.7630 C   0  0  0  0  0  0  0  0  0  0  0  0
   38.7650   28.1630   41.0570 N   0  0  0  0  0  0  0  0  0  0  0  0
   37.4540   28.0310   41.2060 C   0  0  0  0  0  0  0  0  0  0  0  0
   36.9480   27.1550   42.0750 N   0  0  0  0  0  0  0  0  0  0  0  0
   36.5840   28.8550   40.4080 N   0  0  0  0  0  0  0  0  0  0  0  0
   35.1870   28.9880   40.6280 C   0  0  0  0  0  0  0  0  0  0  0  0
   34.6240   29.0890   39.2210 C   0  0  0  0  0  0  0  0  0  0  0  0
   35.8010   29.1810   38.3050 C   0  0  0  0  0  0  0  0  0  0  0  0
   36.9090   29.6470   39.2500 C   0  0  1  0  0  0  0  0  0  0  0  0
   37.4240   25.6830   43.5180 H   0  0  0  0  0  0  0  0  0  0  0  0
   40.7270   27.5590   41.6230 H   0  0  0  0  0  0  0  0  0  0  0  0
   34.7380   29.6570   41.2920 H   0  0  0  0  0  0  0  0  0  0  0  0
   34.8290   27.9600   40.9590 H   0  0  0  0  0  0  0  0  0  0  0  0
   33.8690   28.3490   38.9720 H   0  0  0  0  0  0  0  0  0  0  0  0
   34.1120   30.0940   39.1700 H   0  0  0  0  0  0  0  0  0  0  0  0
   35.6080   29.8960   37.4930 H   0  0  0  0  0  0  0  0  0  0  0  0
   35.9900   28.1700   37.9060 H   0  0  0  0  0  0  0  0  0  0  0  0
   37.8560   29.3490   38.7580 H   0  0  0  0  0  0  0  0  0  0  0  0
   40.0200   25.7030   43.4660 N   0  0  0  0  0  0  0  0  0  0  0  0
   40.8930   25.3530   42.9830 H   0  0  0  0  0  0  0  0  0  0  0  0
   39.8490   25.4230   44.4500 H   0  0  0  0  0  0  0  0  0  0  0  0
   36.7150   31.3870   39.5530 S   0  0  0  0  0  0  0  0  0  0  0  0
   39.7500   31.2680   38.1790 O   0  0  0  0  0  0  0  0  0  0  0  0
   39.3350   32.0740   39.0270 C   0  0  0  0  0  0  0  0  0  0  0  0
   38.1600   32.3010   39.9080 C   0  0  1  0  0  0  0  0  0  0  0  0
   38.0150   33.8000   39.8460 C   0  0  0  0  0  0  0  0  0  0  0  0
   39.4580   34.1600   40.2210 C   0  0  0  0  0  0  0  0  0  0  0  0
   40.1590   33.2060   39.3680 N   0  0  0  0  0  0  0  0  0  0  0  0
   38.6430   32.1680   40.9110 H   0  0  0  0  0  0  0  0  0  0  0  0
   37.8450   34.1610   38.8150 H   0  0  0  0  0  0  0  0  0  0  0  0
   37.2960   34.2130   40.5660 H   0  0  0  0  0  0  0  0  0  0  0  0
   39.6360   33.9740   41.2910 H   0  0  0  0  0  0  0  0  0  0  0  0
   39.6400   35.2110   39.9190 H   0  0  0  0  0  0  0  0  0  0  0  0
   41.5070   33.5300   39.0150 C   0  0  0  0  0  0  0  0  0  0  0  0
   42.0040   33.7170   37.7650 C   0  0  0  0  0  0  0  0  0  0  0  0
   41.3140   33.6120   36.9520 H   0  0  0  0  0  0  0  0  0  0  0  0
   43.3540   34.0280   37.6120 C   0  0  0  0  0  3  0  0  0  0  0  0
   44.1740   34.1440   38.7390 C   0  0  0  0  0  0  0  0  0  0  0  0
   45.2230   34.3830   38.6640 H   0  0  0  0  0  0  0  0  0  0  0  0
   43.6620   33.9520   40.0060 C   0  0  0  0  0  0  0  0  0  0  0  0
   44.3100   34.0440   40.8810 H   0  0  0  0  0  0  0  0  0  0  0  0
   42.3200   33.6440   40.1430 C   0  0  0  0  0  3  0  0  0  0  0  0
  1 12  1  0  0  0  0
  2  1  1  0  0  0  0
  2 21  1  0  0  0  0
  3  2  2  0  0  0  0
  4  5  2  0  0  0  0
  4  3  1  0  0  0  0
  5  6  1  0  0  0  0
  6  1  2  0  0  0  0
  7  8  1  0  0  0  0
  7  5  1  0  0  0  0
  8 15  1  0  0  0  0
  8 14  1  0  0  0  0
  9  8  1  0  0  0  0
 10  9  1  0  0  0  0
 10 11  1  0  0  0  0
 11 20  1  6  0  0  0
 11 24  1  0  0  0  0
 11  7  1  0  0  0  0
 13  3  1  0  0  0  0
 16  9  1  0  0  0  0
 17  9  1  0  0  0  0
 18 10  1  0  0  0  0
 19 10  1  0  0  0  0
 21 23  1  0  0  0  0
 22 21  1  0  0  0  0
 24 27  1  0  0  0  0
 25 26  2  0  0  0  0
 26 30  1  0  0  0  0
 26 27  1  0  0  0  0
 27 31  1  1  0  0  0
 28 27  1  0  0  0  0
 28 29  1  0  0  0  0
 28 33  1  0  0  0  0
 29 34  1  0  0  0  0
 30 29  1  0  0  0  0
 32 28  1  0  0  0  0
 35 29  1  0  0  0  0
 36 30  1  0  0  0  0
 36 44  1  0  0  0  0
 37 36  2  0  0  0  0
 38 37  1  0  0  0  0
 39 37  1  0  0  0  0
 39 40  2  0  0  0  0
 40 42  1  0  0  0  0
 41 40  1  0  0  0  0
 42 44  2  0  0  0  0
 42 43  1  0  0  0  0
M  END
>  <minimizedAffinity>
-5.70260143

$$$$

 OpenBabel03252506393D

 44 47  0  0  1  0  0  0  0  0999 V2000
   43.2440   29.3850   35.4980 C   0  0  0  0  0  0  0  0  0  0  0  0
   42.9240   28.2150   36.2260 C   0  0  0  0  0  0  0  0  0  0  0  0
   42.4280   28.3320   37.4780 C   0  0  0  0  0  0  0  0  0  0  0  0
   42.2620   29.5880   37.9710 N   0  0  0  0  0  0  0  0  0  0  0  0
   42.5630   30.6800   37.2820 C   0  0  0  0  0  0  0  0  0  0  0  0
   43.0550   30.5950   36.0450 N   0  0  0  0  0  0  0  0  0  0  0  0
   42.3490   31.9620   37.8970 N   0  0  0  0  0  0  0  0  0  0  0  0
   42.4020   33.2000   37.2020 C   0  0  0  0  0  0  0  0  0  0  0  0
   43.0310   34.1390   38.2170 C   0  0  0  0  0  0  0  0  0  0  0  0
   43.1220   33.3720   39.4960 C   0  0  0  0  0  0  0  0  0  0  0  0
   42.0910   32.2640   39.2820 C   0  0  1  0  0  0  0  0  0  0  0  0
   43.6360   29.2650   34.5050 H   0  0  0  0  0  0  0  0  0  0  0  0
   42.1750   27.4610   38.0590 H   0  0  0  0  0  0  0  0  0  0  0  0
   41.6110   33.6380   36.6810 H   0  0  0  0  0  0  0  0  0  0  0  0
   43.2330   33.0850   36.4330 H   0  0  0  0  0  0  0  0  0  0  0  0
   43.9340   34.6420   37.8840 H   0  0  0  0  0  0  0  0  0  0  0  0
   42.2650   34.9500   38.3960 H   0  0  0  0  0  0  0  0  0  0  0  0
   42.8810   34.0150   40.3540 H   0  0  0  0  0  0  0  0  0  0  0  0
   44.1500   32.9790   39.5730 H   0  0  0  0  0  0  0  0  0  0  0  0
   42.3870   31.4530   39.9770 H   0  0  0  0  0  0  0  0  0  0  0  0
   43.1470   26.9530   35.5820 N   0  0  0  0  0  0  0  0  0  0  0  0
   43.4970   26.1890   36.2220 H   0  0  0  0  0  0  0  0  0  0  0  0
   42.9990   26.7350   34.5780 H   0  0  0  0  0  0  0  0  0  0  0  0
   40.4640   32.9340   39.5290 S   0  0  0  0  0  0  0  0  0  0  0  0
   40.4330   30.1250   41.3250 O   0  0  0  0  0  0  0  0  0  0  0  0
   39.4680   30.6880   40.7850 C   0  0  0  0  0  0  0  0  0  0  0  0
   39.1740   31.8000   39.8430 C   0  0  1  0  0  0  0  0  0  0  0  0
   37.9220   32.3870   40.4440 C   0  0  0  0  0  0  0  0  0  0  0  0
   37.1090   31.0890   40.5280 C   0  0  0  0  0  0  0  0  0  0  0  0
   38.1390   30.2100   41.0730 N   0  0  0  0  0  0  0  0  0  0  0  0
   38.7540   31.2170   38.9830 H   0  0  0  0  0  0  0  0  0  0  0  0
   38.0800   32.7410   41.4780 H   0  0  0  0  0  0  0  0  0  0  0  0
   37.4260   33.1330   39.8090 H   0  0  0  0  0  0  0  0  0  0  0  0
   36.7790   30.7750   39.5260 H   0  0  0  0  0  0  0  0  0  0  0  0
   36.2730   31.2510   41.2380 H   0  0  0  0  0  0  0  0  0  0  0  0
   37.6870   29.0530   41.7820 C   0  0  0  0  0  0  0  0  0  0  0  0
   37.5460   28.9190   43.1250 C   0  0  0  0  0  0  0  0  0  0  0  0
   37.8000   29.7710   43.7230 H   0  0  0  0  0  0  0  0  0  0  0  0
   37.0900   27.7070   43.6410 C   0  0  0  0  0  3  0  0  0  0  0  0
   36.7850   26.6530   42.7750 C   0  0  0  0  0  0  0  0  0  0  0  0
   36.4290   25.7000   43.1340 H   0  0  0  0  0  0  0  0  0  0  0  0
   36.9310   26.7960   41.4110 C   0  0  0  0  0  0  0  0  0  0  0  0
   36.6900   25.9660   40.7420 H   0  0  0  0  0  0  0  0  0  0  0  0
   37.3840   28.0040   40.9130 C   0  0  0  0  0  3  0  0  0  0  0  0
  1  6  2  0  0  0  0
  1  2  1  0  0  0  0
  2  3  2  0  0  0  0
  3  4  1  0  0  0  0
  3 13  1  0  0  0  0
  5  7  1  0  0  0  0
  5  4  2  0  0  0  0
  6  5  1  0  0  0  0
  7 11  1  0  0  0  0
  8  7  1  0  0  0  0
  8  9  1  0  0  0  0
  9 17  1  0  0  0  0
  9 10  1  0  0  0  0
 10 19  1  0  0  0  0
 10 18  1  0  0  0  0
 11 10  1  0  0  0  0
 11 24  1  0  0  0  0
 11 20  1  1  0  0  0
 12  1  1  0  0  0  0
 14  8  1  0  0  0  0
 15  8  1  0  0  0  0
 16  9  1  0  0  0  0
 21 22  1  0  0  0  0
 21  2  1  0  0  0  0
 23 21  1  0  0  0  0
 24 27  1  0  0  0  0
 26 30  1  0  0  0  0
 26 25  2  0  0  0  0
 27 31  1  6  0  0  0
 27 28  1  0  0  0  0
 27 26  1  0  0  0  0
 28 29  1  0  0  0  0
 28 32  1  0  0  0  0
 29 30  1  0  0  0  0
 29 35  1  0  0  0  0
 30 36  1  0  0  0  0
 33 28  1  0  0  0  0
 34 29  1  0  0  0  0
 36 37  1  0  0  0  0
 37 39  2  0  0  0  0
 37 38  1  0  0  0  0
 40 41  1  0  0  0  0
 40 39  1  0  0  0  0
 42 40  2  0  0  0  0
 43 42  1  0  0  0  0
 44 42  1  0  0  0  0
 44 36  2  0  0  0  0
M  END
>  <minimizedAffinity>
-5.66363811

$$$$

 OpenBabel03252506393D

 44 47  0  0  1  0  0  0  0  0999 V2000
   39.0530   32.1520   39.0330 C   0  0  0  0  0  0  0  0  0  0  0  0
   39.6190   31.5430   37.8880 C   0  0  0  0  0  0  0  0  0  0  0  0
   39.7740   30.2000   37.8620 C   0  0  0  0  0  0  0  0  0  0  0  0
   39.3690   29.5020   38.9560 N   0  0  0  0  0  0  0  0  0  0  0  0
   38.8380   30.0800   40.0250 C   0  0  0  0  0  0  0  0  0  0  0  0
   38.6740   31.4030   40.0790 N   0  0  0  0  0  0  0  0  0  0  0  0
   38.4420   29.2480   41.1310 N   0  0  0  0  0  0  0  0  0  0  0  0
   37.6550   29.6970   42.2250 C   0  0  0  0  0  0  0  0  0  0  0  0
   38.2470   28.9460   43.4060 C   0  0  0  0  0  0  0  0  0  0  0  0
   39.2320   27.9780   42.8350 C   0  0  0  0  0  0  0  0  0  0  0  0
   38.7710   27.8690   41.3810 C   0  0  1  0  0  0  0  0  0  0  0  0
   38.9400   33.2190   39.0290 H   0  0  0  0  0  0  0  0  0  0  0  0
   40.2020   29.7070   37.0060 H   0  0  0  0  0  0  0  0  0  0  0  0
   36.6130   29.7310   42.2490 H   0  0  0  0  0  0  0  0  0  0  0  0
   37.9900   30.7660   42.4270 H   0  0  0  0  0  0  0  0  0  0  0  0
   38.5940   29.5710   44.2230 H   0  0  0  0  0  0  0  0  0  0  0  0
   37.4030   28.3200   43.8210 H   0  0  0  0  0  0  0  0  0  0  0  0
   39.1880   27.0180   43.3670 H   0  0  0  0  0  0  0  0  0  0  0  0
   40.2330   28.4340   42.9240 H   0  0  0  0  0  0  0  0  0  0  0  0
   39.6590   27.5130   40.8210 H   0  0  0  0  0  0  0  0  0  0  0  0
   40.0000   32.4010   36.8040 N   0  0  0  0  0  0  0  0  0  0  0  0
   40.8860   32.1120   36.3050 H   0  0  0  0  0  0  0  0  0  0  0  0
   39.5000   33.2500   36.4790 H   0  0  0  0  0  0  0  0  0  0  0  0
   37.3420   26.8150   41.3070 S   0  0  0  0  0  0  0  0  0  0  0  0
   35.2120   28.9610   39.9030 O   0  0  0  0  0  0  0  0  0  0  0  0
   35.6810   27.9260   39.4040 C   0  0  0  0  0  0  0  0  0  0  0  0
   36.4870   26.7370   39.7870 C   0  0  1  0  0  0  0  0  0  0  0  0
   37.3470   26.5430   38.5640 C   0  0  0  0  0  0  0  0  0  0  0  0
   36.2210   26.5240   37.5230 C   0  0  0  0  0  0  0  0  0  0  0  0
   35.4460   27.6630   38.0060 N   0  0  0  0  0  0  0  0  0  0  0  0
   35.7190   25.9320   39.6460 H   0  0  0  0  0  0  0  0  0  0  0  0
   37.9750   27.4270   38.3500 H   0  0  0  0  0  0  0  0  0  0  0  0
   37.9170   25.6040   38.5590 H   0  0  0  0  0  0  0  0  0  0  0  0
   35.6570   25.5800   37.5810 H   0  0  0  0  0  0  0  0  0  0  0  0
   36.6690   26.7110   36.5270 H   0  0  0  0  0  0  0  0  0  0  0  0
   34.6020   28.3170   37.0540 C   0  0  0  0  0  0  0  0  0  0  0  0
   33.2790   28.5880   37.1840 C   0  0  0  0  0  0  0  0  0  0  0  0
   32.8120   28.2810   38.0980 H   0  0  0  0  0  0  0  0  0  0  0  0
   32.6150   29.2380   36.1440 C   0  0  0  0  0  3  0  0  0  0  0  0
   33.3160   29.5990   34.9890 C   0  0  0  0  0  0  0  0  0  0  0  0
   32.8400   30.1020   34.1620 H   0  0  0  0  0  0  0  0  0  0  0  0
   34.6610   29.3190   34.8650 C   0  0  0  0  0  0  0  0  0  0  0  0
   35.2010   29.6050   33.9580 H   0  0  0  0  0  0  0  0  0  0  0  0
   35.3070   28.6750   35.9040 C   0  0  0  0  0  3  0  0  0  0  0  0
  1  6  1  0  0  0  0
  2  1  2  0  0  0  0
  3  2  1  0  0  0  0
  3  4  2  0  0  0  0
  4  5  1  0  0  0  0
  5  6  2  0  0  0  0
  5  7  1  0  0  0  0
  7 11  1  0  0  0  0
  7  8  1  0  0  0  0
  8 14  1  0  0  0  0
  8 15  1  0  0  0  0
  8  9  1  0  0  0  0
  9 17  1  0  0  0  0
  9 16  1  0  0  0  0
 10 19  1  0  0  0  0
 10 18  1  0  0  0  0
 10  9  1  0  0  0  0
 11 20  1  6  0  0  0
 11 10  1  0  0  0  0
 12  1  1  0  0  0  0
 13  3  1  0  0  0  0
 21  2  1  0  0  0  0
 22 21  1  0  0  0  0
 23 21  1  0  0  0  0
 24 11  1  0  0  0  0
 26 27  1  0  0  0  0
 26 25  2  0  0  0  0
 27 31  1  1  0  0  0
 27 24  1  0  0  0  0
 28 27  1  0  0  0  0
 29 34  1  0  0  0  0
 29 30  1  0  0  0  0
 29 28  1  0  0  0  0
 30 26  1  0  0  0  0
 32 28  1  0  0  0  0
 33 28  1  0  0  0  0
 35 29  1  0  0  0  0
 36 37  1  0  0  0  0
 36 30  1  0  0  0  0
 37 38  1  0  0  0  0
 39 37  2  0  0  0  0
 40 39  1  0  0  0  0
 41 40  1  0  0  0  0
 42 40  2  0  0  0  0
 42 44  1  0  0  0  0
 43 42  1  0  0  0  0
 44 36  2  0  0  0  0
M  END
>  <minimizedAffinity>
-5.62037086

$$$$

 OpenBabel03252506393D

 44 47  0  0  1  0  0  0  0  0999 V2000
   42.9560   30.0340   35.8290 C   0  0  0  0  0  0  0  0  0  0  0  0
   43.0560   28.7230   36.3500 C   0  0  0  0  0  0  0  0  0  0  0  0
   42.6080   28.4740   37.6010 C   0  0  0  0  0  0  0  0  0  0  0  0
   42.0780   29.5150   38.2950 N   0  0  0  0  0  0  0  0  0  0  0  0
   41.9860   30.7410   37.7990 C   0  0  0  0  0  0  0  0  0  0  0  0
   42.4210   31.0170   36.5680 N   0  0  0  0  0  0  0  0  0  0  0  0
   41.4070   31.7730   38.6180 N   0  0  0  0  0  0  0  0  0  0  0  0
   41.0340   33.0570   38.1390 C   0  0  0  0  0  0  0  0  0  0  0  0
   41.3800   33.9730   39.3000 C   0  0  0  0  0  0  0  0  0  0  0  0
   41.7690   33.0810   40.4340 C   0  0  0  0  0  0  0  0  0  0  0  0
   41.1320   31.7510   40.0310 C   0  0  1  0  0  0  0  0  0  0  0  0
   43.3190   30.2060   34.8330 H   0  0  0  0  0  0  0  0  0  0  0  0
   42.6710   27.4870   38.0270 H   0  0  0  0  0  0  0  0  0  0  0  0
   40.1210   33.2970   37.6930 H   0  0  0  0  0  0  0  0  0  0  0  0
   41.8220   33.3380   37.3670 H   0  0  0  0  0  0  0  0  0  0  0  0
   42.0620   34.7840   39.0610 H   0  0  0  0  0  0  0  0  0  0  0  0
   40.4070   34.4570   39.6060 H   0  0  0  0  0  0  0  0  0  0  0  0
   41.3780   33.4670   41.3860 H   0  0  0  0  0  0  0  0  0  0  0  0
   42.8710   33.0290   40.4520 H   0  0  0  0  0  0  0  0  0  0  0  0
   41.7010   30.9770   40.5840 H   0  0  0  0  0  0  0  0  0  0  0  0
   43.6360   27.7180   35.5060 N   0  0  0  0  0  0  0  0  0  0  0  0
   44.2400   27.0140   36.0130 H   0  0  0  0  0  0  0  0  0  0  0  0
   43.5190   27.6280   34.4800 H   0  0  0  0  0  0  0  0  0  0  0  0
   39.3900   31.8170   40.3760 S   0  0  0  0  0  0  0  0  0  0  0  0
   39.0010   28.5950   39.6180 O   0  0  0  0  0  0  0  0  0  0  0  0
   38.7820   29.1470   40.7070 C   0  0  0  0  0  0  0  0  0  0  0  0
   38.7100   30.5060   41.3060 C   0  0  1  0  0  0  0  0  0  0  0  0
   39.3300   30.2770   42.6610 C   0  0  0  0  0  0  0  0  0  0  0  0
   38.4500   29.0970   43.0910 C   0  0  0  0  0  0  0  0  0  0  0  0
   38.4860   28.3240   41.8530 N   0  0  0  0  0  0  0  0  0  0  0  0
   37.6200   30.5440   41.5660 H   0  0  0  0  0  0  0  0  0  0  0  0
   40.3670   29.9020   42.5880 H   0  0  0  0  0  0  0  0  0  0  0  0
   39.2310   31.1260   43.3500 H   0  0  0  0  0  0  0  0  0  0  0  0
   37.4350   29.4420   43.3390 H   0  0  0  0  0  0  0  0  0  0  0  0
   38.9570   28.5760   43.9280 H   0  0  0  0  0  0  0  0  0  0  0  0
   38.2290   26.9210   41.9640 C   0  0  0  0  0  0  0  0  0  0  0  0
   37.0920   26.2670   41.6160 C   0  0  0  0  0  0  0  0  0  0  0  0
   36.2970   26.8630   41.2150 H   0  0  0  0  0  0  0  0  0  0  0  0
   37.0220   24.8860   41.7960 C   0  0  0  0  0  3  0  0  0  0  0  0
   38.1160   24.1980   42.3290 C   0  0  0  0  0  0  0  0  0  0  0  0
   38.1030   23.1300   42.4840 H   0  0  0  0  0  0  0  0  0  0  0  0
   39.2690   24.8690   42.6800 C   0  0  0  0  0  0  0  0  0  0  0  0
   40.1200   24.3230   43.0950 H   0  0  0  0  0  0  0  0  0  0  0  0
   39.3240   26.2390   42.4950 C   0  0  0  0  0  3  0  0  0  0  0  0
  1  2  2  0  0  0  0
  1  6  1  0  0  0  0
  2  3  1  0  0  0  0
  3 13  1  0  0  0  0
  3  4  2  0  0  0  0
  5  4  1  0  0  0  0
  5  7  1  0  0  0  0
  6  5  2  0  0  0  0
  7 11  1  0  0  0  0
  8  7  1  0  0  0  0
  8  9  1  0  0  0  0
  9 17  1  0  0  0  0
  9 10  1  0  0  0  0
 10 19  1  0  0  0  0
 10 18  1  0  0  0  0
 11 24  1  0  0  0  0
 11 10  1  0  0  0  0
 11 20  1  1  0  0  0
 12  1  1  0  0  0  0
 14  8  1  0  0  0  0
 15  8  1  0  0  0  0
 16  9  1  0  0  0  0
 21 22  1  0  0  0  0
 21  2  1  0  0  0  0
 23 21  1  0  0  0  0
 24 27  1  0  0  0  0
 25 26  2  0  0  0  0
 26 27  1  0  0  0  0
 26 30  1  0  0  0  0
 27 31  1  1  0  0  0
 27 28  1  0  0  0  0
 28 29  1  0  0  0  0
 28 33  1  0  0  0  0
 29 34  1  0  0  0  0
 29 35  1  0  0  0  0
 30 36  1  0  0  0  0
 30 29  1  0  0  0  0
 32 28  1  0  0  0  0
 36 44  1  0  0  0  0
 37 39  1  0  0  0  0
 37 36  2  0  0  0  0
 38 37  1  0  0  0  0
 39 40  2  0  0  0  0
 40 41  1  0  0  0  0
 40 42  1  0  0  0  0
 42 43  1  0  0  0  0
 44 42  2  0  0  0  0
M  END
>  <minimizedAffinity>
-5.54949093

$$$$

 OpenBabel03252506393D

 44 47  0  0  1  0  0  0  0  0999 V2000
   37.6710   31.9360   38.3850 C   0  0  0  0  0  0  0  0  0  0  0  0
   37.1960   32.3880   39.6380 C   0  0  0  0  0  0  0  0  0  0  0  0
   36.6500   31.4980   40.4980 C   0  0  0  0  0  0  0  0  0  0  0  0
   36.5900   30.2000   40.1000 N   0  0  0  0  0  0  0  0  0  0  0  0
   37.0380   29.7840   38.9240 C   0  0  0  0  0  0  0  0  0  0  0  0
   37.5810   30.6390   38.0560 N   0  0  0  0  0  0  0  0  0  0  0  0
   36.9270   28.3860   38.6000 N   0  0  0  0  0  0  0  0  0  0  0  0
   37.5700   27.7690   37.4940 C   0  0  0  0  0  0  0  0  0  0  0  0
   36.5490   26.7450   37.0290 C   0  0  0  0  0  0  0  0  0  0  0  0
   35.4570   26.7510   38.0490 C   0  0  0  0  0  0  0  0  0  0  0  0
   36.1520   27.3690   39.2620 C   0  0  1  0  0  0  0  0  0  0  0  0
   38.1000   32.6620   37.7210 H   0  0  0  0  0  0  0  0  0  0  0  0
   36.2780   31.8110   41.4590 H   0  0  0  0  0  0  0  0  0  0  0  0
   38.5460   27.3990   37.4880 H   0  0  0  0  0  0  0  0  0  0  0  0
   37.5410   28.5370   36.6550 H   0  0  0  0  0  0  0  0  0  0  0  0
   36.2470   26.8330   35.9900 H   0  0  0  0  0  0  0  0  0  0  0  0
   37.0590   25.7420   37.1270 H   0  0  0  0  0  0  0  0  0  0  0  0
   35.0970   25.7310   38.2410 H   0  0  0  0  0  0  0  0  0  0  0  0
   34.6450   27.3900   37.6600 H   0  0  0  0  0  0  0  0  0  0  0  0
   35.3330   27.7720   39.8920 H   0  0  0  0  0  0  0  0  0  0  0  0
   37.3240   33.7870   39.9290 N   0  0  0  0  0  0  0  0  0  0  0  0
   36.5150   34.2000   40.4700 H   0  0  0  0  0  0  0  0  0  0  0  0
   38.1140   34.4050   39.6640 H   0  0  0  0  0  0  0  0  0  0  0  0
   37.1770   26.1370   40.0290 S   0  0  0  0  0  0  0  0  0  0  0  0
   40.0260   27.8690   40.0350 O   0  0  0  0  0  0  0  0  0  0  0  0
   39.3550   27.5140   41.0170 C   0  0  0  0  0  0  0  0  0  0  0  0
   38.1900   26.6550   41.3540 C   0  0  1  0  0  0  0  0  0  0  0  0
   37.5040   27.4730   42.4190 C   0  0  0  0  0  0  0  0  0  0  0  0
   38.7180   27.6780   43.3320 C   0  0  0  0  0  0  0  0  0  0  0  0
   39.7100   28.0220   42.3180 N   0  0  0  0  0  0  0  0  0  0  0  0
   38.7010   25.8720   41.9730 H   0  0  0  0  0  0  0  0  0  0  0  0
   37.2000   28.4690   42.0490 H   0  0  0  0  0  0  0  0  0  0  0  0
   36.6920   26.9450   42.9380 H   0  0  0  0  0  0  0  0  0  0  0  0
   38.9670   26.7440   43.8600 H   0  0  0  0  0  0  0  0  0  0  0  0
   38.4990   28.5250   44.0120 H   0  0  0  0  0  0  0  0  0  0  0  0
   40.8400   28.7810   42.7560 C   0  0  0  0  0  0  0  0  0  0  0  0
   41.9860   28.3020   43.3050 C   0  0  0  0  0  0  0  0  0  0  0  0
   42.0530   27.2390   43.4250 H   0  0  0  0  0  0  0  0  0  0  0  0
   42.9870   29.1990   43.6740 C   0  0  0  0  0  3  0  0  0  0  0  0
   42.8010   30.5700   43.4750 C   0  0  0  0  0  0  0  0  0  0  0  0
   43.5510   31.2970   43.7470 H   0  0  0  0  0  0  0  0  0  0  0  0
   41.6350   31.0500   42.9160 C   0  0  0  0  0  0  0  0  0  0  0  0
   41.4990   32.1240   42.7640 H   0  0  0  0  0  0  0  0  0  0  0  0
   40.6500   30.1490   42.5550 C   0  0  0  0  0  3  0  0  0  0  0  0
  1  2  1  0  0  0  0
  2 21  1  0  0  0  0
  2  3  2  0  0  0  0
  3 13  1  0  0  0  0
  4  3  1  0  0  0  0
  5  4  2  0  0  0  0
  6  1  2  0  0  0  0
  6  5  1  0  0  0  0
  7  5  1  0  0  0  0
  7 11  1  0  0  0  0
  8  7  1  0  0  0  0
  9 17  1  0  0  0  0
  9  8  1  0  0  0  0
  9 10  1  0  0  0  0
 10 18  1  0  0  0  0
 10 11  1  0  0  0  0
 11 20  1  1  0  0  0
 11 24  1  0  0  0  0
 12  1  1  0  0  0  0
 14  8  1  0  0  0  0
 15  8  1  0  0  0  0
 16  9  1  0  0  0  0
 19 10  1  0  0  0  0
 21 22  1  0  0  0  0
 23 21  1  0  0  0  0
 24 27  1  0  0  0  0
 25 26  2  0  0  0  0
 26 27  1  0  0  0  0
 26 30  1  0  0  0  0
 27 31  1  1  0  0  0
 27 28  1  0  0  0  0
 28 33  1  0  0  0  0
 28 29  1  0  0  0  0
 29 34  1  0  0  0  0
 29 35  1  0  0  0  0
 30 36  1  0  0  0  0
 30 29  1  0  0  0  0
 32 28  1  0  0  0  0
 36 37  1  0  0  0  0
 37 38  1  0  0  0  0
 37 39  2  0  0  0  0
 40 39  1  0  0  0  0
 40 41  1  0  0  0  0
 42 40  2  0  0  0  0
 43 42  1  0  0  0  0
 44 36  2  0  0  0  0
 44 42  1  0  0  0  0
M  END
>  <minimizedAffinity>
-5.52757168

$$$$
