
 OpenBabel03242523353D

 37 40  0  0  0  0  0  0  0  0999 V2000
   41.4580   32.2310   40.6330 C   0  0  0  0  0  0  0  0  0  0  0  0
   41.8950   31.6650   39.8110 H   0  0  0  0  0  0  0  0  0  0  0  0
   42.0810   33.1620   40.7920 H   0  0  0  0  0  0  0  0  0  0  0  0
   38.5070   34.4310   40.1400 C   0  0  0  0  0  0  0  0  0  0  0  0
   37.5180   33.4720   39.8370 C   0  0  0  0  0  0  0  0  0  0  0  0
   37.8780   32.1250   39.8090 C   0  0  0  0  0  0  0  0  0  0  0  0
   39.1760   31.7710   40.0750 N   0  0  0  0  0  0  0  0  0  0  0  0
   40.0960   32.7270   40.3610 C   0  0  0  0  0  0  0  0  0  0  0  0
   39.7650   34.0270   40.3920 N   0  0  0  0  0  0  0  0  0  0  0  0
   38.2790   35.4850   40.1740 H   0  0  0  0  0  0  0  0  0  0  0  0
   36.5050   33.7850   39.6340 H   0  0  0  0  0  0  0  0  0  0  0  0
   36.9180   31.0730   39.5060 C   0  0  0  0  0  0  0  0  0  0  0  0
   36.6680   30.5750   38.2470 C   0  0  0  0  0  0  0  0  0  0  0  0
   37.2140   30.9820   37.4080 H   0  0  0  0  0  0  0  0  0  0  0  0
   35.7520   29.5780   37.9940 C   0  0  0  0  0  3  0  0  0  0  0  0
   35.0350   29.0320   39.0310 C   0  0  0  0  0  0  0  0  0  0  0  0
   34.3060   28.2460   38.8700 H   0  0  0  0  0  0  0  0  0  0  0  0
   35.2490   29.4980   40.3160 C   0  0  0  0  0  0  0  0  0  0  0  0
   34.6900   29.0770   41.1500 H   0  0  0  0  0  0  0  0  0  0  0  0
   36.1770   30.4960   40.5070 C   0  0  0  0  0  3  0  0  0  0  0  0
   41.4380   31.3870   42.2260 S   0  0  0  0  0  0  0  0  0  0  0  0
   40.4420   29.9150   42.1450 C   0  0  0  0  0  0  0  0  0  0  0  0
   40.8810   28.8790   41.3520 C   0  0  0  0  0  0  0  0  0  0  0  0
   40.1200   27.7470   41.2880 C   0  0  0  0  0  0  0  0  0  0  0  0
   38.9290   27.6100   41.9900 C   0  0  0  0  0  0  0  0  0  0  0  0
   38.2050   26.4740   41.9010 N   0  0  0  0  0  0  0  0  0  0  0  0
   37.0470   26.3280   42.5780 C   0  0  0  0  0  0  0  0  0  0  0  0
   36.5980   27.3590   43.3720 C   0  0  0  0  0  0  0  0  0  0  0  0
   37.3390   28.5300   43.4680 C   0  0  0  0  0  0  0  0  0  0  0  0
   38.5470   28.6830   42.7630 C   0  0  0  0  0  0  0  0  0  0  0  0
   39.2710   29.8430   42.8650 C   0  0  0  0  0  0  0  0  0  0  0  0
   41.7730   28.8470   40.7590 H   0  0  0  0  0  0  0  0  0  0  0  0
   40.4000   26.8790   40.6820 H   0  0  0  0  0  0  0  0  0  0  0  0
   36.4660   25.4150   42.5050 H   0  0  0  0  0  0  0  0  0  0  0  0
   35.6780   27.2780   43.9270 H   0  0  0  0  0  0  0  0  0  0  0  0
   36.9520   29.3150   44.1030 H   0  0  0  0  0  0  0  0  0  0  0  0
   38.9240   30.6530   43.4860 H   0  0  0  0  0  0  0  0  0  0  0  0
  1  3  1  0  0  0  0
  1 21  1  0  0  0  0
  2  1  1  0  0  0  0
  4 10  1  0  0  0  0
  4  9  1  0  0  0  0
  5  4  2  0  0  0  0
  6  5  1  0  0  0  0
  6  7  2  0  0  0  0
  7  8  1  0  0  0  0
  8  9  2  0  0  0  0
  8  1  1  0  0  0  0
 11  5  1  0  0  0  0
 12  6  1  0  0  0  0
 12 20  1  0  0  0  0
 13 12  2  0  0  0  0
 14 13  1  0  0  0  0
 15 13  1  0  0  0  0
 15 16  2  0  0  0  0
 16 18  1  0  0  0  0
 17 16  1  0  0  0  0
 18 20  2  0  0  0  0
 18 19  1  0  0  0  0
 22 21  1  0  0  0  0
 22 31  1  0  0  0  0
 23 22  2  0  0  0  0
 24 23  1  0  0  0  0
 24 25  2  0  0  0  0
 25 30  1  0  0  0  0
 26 25  1  0  0  0  0
 26 27  2  0  0  0  0
 27 28  1  0  0  0  0
 28 29  2  0  0  0  0
 28 35  1  0  0  0  0
 29 36  1  0  0  0  0
 30 31  2  0  0  0  0
 30 29  1  0  0  0  0
 31 37  1  0  0  0  0
 32 23  1  0  0  0  0
 33 24  1  0  0  0  0
 34 27  1  0  0  0  0
M  END
>  <minimizedAffinity>
-6.43843937

$$$$

 OpenBabel03242523353D

 37 40  0  0  0  0  0  0  0  0999 V2000
   35.3260   28.3530   39.0870 C   0  0  0  0  0  0  0  0  0  0  0  0
   34.3340   28.0800   38.7300 H   0  0  0  0  0  0  0  0  0  0  0  0
   35.9590   27.4160   39.1270 H   0  0  0  0  0  0  0  0  0  0  0  0
   36.7540   29.9860   36.0720 C   0  0  0  0  0  0  0  0  0  0  0  0
   37.4680   31.0470   36.6670 C   0  0  0  0  0  0  0  0  0  0  0  0
   37.4430   31.1750   38.0560 C   0  0  0  0  0  0  0  0  0  0  0  0
   36.7290   30.2710   38.8010 N   0  0  0  0  0  0  0  0  0  0  0  0
   36.0560   29.2660   38.1870 C   0  0  0  0  0  0  0  0  0  0  0  0
   36.0700   29.1290   36.8520 N   0  0  0  0  0  0  0  0  0  0  0  0
   36.7420   29.8440   35.0030 H   0  0  0  0  0  0  0  0  0  0  0  0
   38.0200   31.7400   36.0510 H   0  0  0  0  0  0  0  0  0  0  0  0
   38.1520   32.2420   38.7480 C   0  0  0  0  0  0  0  0  0  0  0  0
   39.5220   32.3640   38.8110 C   0  0  0  0  0  0  0  0  0  0  0  0
   40.1340   31.6240   38.3170 H   0  0  0  0  0  0  0  0  0  0  0  0
   40.1610   33.3870   39.4760 C   0  0  0  0  0  3  0  0  0  0  0  0
   39.4220   34.3510   40.1180 C   0  0  0  0  0  0  0  0  0  0  0  0
   39.8900   35.1710   40.6510 H   0  0  0  0  0  0  0  0  0  0  0  0
   38.0410   34.2730   40.0840 C   0  0  0  0  0  0  0  0  0  0  0  0
   37.4390   35.0270   40.5880 H   0  0  0  0  0  0  0  0  0  0  0  0
   37.4580   33.2280   39.4040 C   0  0  0  0  0  3  0  0  0  0  0  0
   35.3840   29.0450   40.7510 S   0  0  0  0  0  0  0  0  0  0  0  0
   36.7270   28.3380   41.6790 C   0  0  0  0  0  0  0  0  0  0  0  0
   37.4360   29.1620   42.5230 C   0  0  0  0  0  0  0  0  0  0  0  0
   38.4660   28.6220   43.2380 C   0  0  0  0  0  0  0  0  0  0  0  0
   38.8180   27.2810   43.1410 C   0  0  0  0  0  0  0  0  0  0  0  0
   39.8430   26.7850   43.8650 N   0  0  0  0  0  0  0  0  0  0  0  0
   40.1940   25.4840   43.7810 C   0  0  0  0  0  0  0  0  0  0  0  0
   39.4920   24.6520   42.9380 C   0  0  0  0  0  0  0  0  0  0  0  0
   38.4350   25.1580   42.1910 C   0  0  0  0  0  0  0  0  0  0  0  0
   38.0680   26.5130   42.2790 C   0  0  0  0  0  0  0  0  0  0  0  0
   37.0240   27.0010   41.5370 C   0  0  0  0  0  0  0  0  0  0  0  0
   37.2780   30.2070   42.6950 H   0  0  0  0  0  0  0  0  0  0  0  0
   39.0780   29.2100   43.9300 H   0  0  0  0  0  0  0  0  0  0  0  0
   41.0190   25.0870   44.3630 H   0  0  0  0  0  0  0  0  0  0  0  0
   39.7430   23.6080   42.8450 H   0  0  0  0  0  0  0  0  0  0  0  0
   37.9090   24.4700   41.5430 H   0  0  0  0  0  0  0  0  0  0  0  0
   36.4700   26.3530   40.8770 H   0  0  0  0  0  0  0  0  0  0  0  0
  1  3  1  0  0  0  0
  1 21  1  0  0  0  0
  2  1  1  0  0  0  0
  4  5  2  0  0  0  0
  4  9  1  0  0  0  0
  5  6  1  0  0  0  0
  6 12  1  0  0  0  0
  6  7  2  0  0  0  0
  8  7  1  0  0  0  0
  8  1  1  0  0  0  0
  9  8  2  0  0  0  0
 10  4  1  0  0  0  0
 11  5  1  0  0  0  0
 12 13  2  0  0  0  0
 12 20  1  0  0  0  0
 13 15  1  0  0  0  0
 14 13  1  0  0  0  0
 15 16  2  0  0  0  0
 16 17  1  0  0  0  0
 18 16  1  0  0  0  0
 18 19  1  0  0  0  0
 20 18  2  0  0  0  0
 21 22  1  0  0  0  0
 22 23  1  0  0  0  0
 23 32  1  0  0  0  0
 23 24  2  0  0  0  0
 24 33  1  0  0  0  0
 25 24  1  0  0  0  0
 25 26  1  0  0  0  0
 27 26  2  0  0  0  0
 27 34  1  0  0  0  0
 28 27  1  0  0  0  0
 29 30  1  0  0  0  0
 29 28  2  0  0  0  0
 30 25  2  0  0  0  0
 31 22  2  0  0  0  0
 31 30  1  0  0  0  0
 35 28  1  0  0  0  0
 36 29  1  0  0  0  0
 37 31  1  0  0  0  0
M  END
>  <minimizedAffinity>
-6.18771744

$$$$

 OpenBabel03242523353D

 37 40  0  0  0  0  0  0  0  0999 V2000
   40.4620   31.1320   41.4290 C   0  0  0  0  0  0  0  0  0  0  0  0
   41.0060   30.4020   40.8300 H   0  0  0  0  0  0  0  0  0  0  0  0
   41.1640   31.9860   41.6700 H   0  0  0  0  0  0  0  0  0  0  0  0
   38.1420   33.6110   39.9250 C   0  0  0  0  0  0  0  0  0  0  0  0
   37.1550   32.7530   39.3960 C   0  0  0  0  0  0  0  0  0  0  0  0
   37.3050   31.3770   39.5620 C   0  0  0  0  0  0  0  0  0  0  0  0
   38.4020   30.8970   40.2330 N   0  0  0  0  0  0  0  0  0  0  0  0
   39.3280   31.7580   40.7250 C   0  0  0  0  0  0  0  0  0  0  0  0
   39.1970   33.0850   40.5730 N   0  0  0  0  0  0  0  0  0  0  0  0
   38.0710   34.6830   39.8220 H   0  0  0  0  0  0  0  0  0  0  0  0
   36.3050   33.1640   38.8740 H   0  0  0  0  0  0  0  0  0  0  0  0
   36.3340   30.4240   39.0470 C   0  0  0  0  0  0  0  0  0  0  0  0
   35.3600   29.8070   39.7990 C   0  0  0  0  0  0  0  0  0  0  0  0
   35.2950   30.0330   40.8530 H   0  0  0  0  0  0  0  0  0  0  0  0
   34.4550   28.9080   39.2790 C   0  0  0  0  0  3  0  0  0  0  0  0
   34.5000   28.5910   37.9430 C   0  0  0  0  0  0  0  0  0  0  0  0
   33.8040   27.8890   37.4980 H   0  0  0  0  0  0  0  0  0  0  0  0
   35.4610   29.1840   37.1430 C   0  0  0  0  0  0  0  0  0  0  0  0
   35.5110   28.9440   36.0820 H   0  0  0  0  0  0  0  0  0  0  0  0
   36.3380   30.0740   37.7190 C   0  0  0  0  0  3  0  0  0  0  0  0
   39.8680   30.5330   43.0240 S   0  0  0  0  0  0  0  0  0  0  0  0
   39.0240   28.9780   42.8360 C   0  0  0  0  0  0  0  0  0  0  0  0
   37.6590   28.9580   43.0040 C   0  0  0  0  0  0  0  0  0  0  0  0
   37.0080   27.7660   42.8590 C   0  0  0  0  0  0  0  0  0  0  0  0
   37.6730   26.5870   42.5510 C   0  0  0  0  0  0  0  0  0  0  0  0
   36.9940   25.4280   42.4160 N   0  0  0  0  0  0  0  0  0  0  0  0
   37.6280   24.2760   42.1150 C   0  0  0  0  0  0  0  0  0  0  0  0
   38.9940   24.2850   41.9470 C   0  0  0  0  0  0  0  0  0  0  0  0
   39.6990   25.4740   42.0850 C   0  0  0  0  0  0  0  0  0  0  0  0
   39.0380   26.6760   42.3970 C   0  0  0  0  0  0  0  0  0  0  0  0
   39.7430   27.8450   42.5300 C   0  0  0  0  0  0  0  0  0  0  0  0
   37.0200   29.7850   43.2430 H   0  0  0  0  0  0  0  0  0  0  0  0
   35.9230   27.6660   42.9760 H   0  0  0  0  0  0  0  0  0  0  0  0
   37.0810   23.3450   42.0080 H   0  0  0  0  0  0  0  0  0  0  0  0
   39.5350   23.3840   41.7070 H   0  0  0  0  0  0  0  0  0  0  0  0
   40.7710   25.4380   41.9430 H   0  0  0  0  0  0  0  0  0  0  0  0
   40.8130   27.8570   42.3980 H   0  0  0  0  0  0  0  0  0  0  0  0
  1  3  1  0  0  0  0
  1 21  1  0  0  0  0
  2  1  1  0  0  0  0
  4  9  1  0  0  0  0
  5  6  1  0  0  0  0
  5  4  2  0  0  0  0
  6  7  2  0  0  0  0
  7  8  1  0  0  0  0
  8  1  1  0  0  0  0
  9  8  2  0  0  0  0
 10  4  1  0  0  0  0
 11  5  1  0  0  0  0
 12  6  1  0  0  0  0
 12 13  1  0  0  0  0
 13 14  1  0  0  0  0
 15 13  2  0  0  0  0
 16 15  1  0  0  0  0
 17 16  1  0  0  0  0
 18 20  1  0  0  0  0
 18 16  2  0  0  0  0
 19 18  1  0  0  0  0
 20 12  2  0  0  0  0
 22 23  1  0  0  0  0
 22 21  1  0  0  0  0
 23 32  1  0  0  0  0
 24 33  1  0  0  0  0
 24 23  2  0  0  0  0
 25 24  1  0  0  0  0
 26 25  1  0  0  0  0
 27 26  2  0  0  0  0
 28 29  2  0  0  0  0
 28 27  1  0  0  0  0
 29 30  1  0  0  0  0
 30 31  1  0  0  0  0
 30 25  2  0  0  0  0
 31 22  2  0  0  0  0
 34 27  1  0  0  0  0
 35 28  1  0  0  0  0
 36 29  1  0  0  0  0
 37 31  1  0  0  0  0
M  END
>  <minimizedAffinity>
-6.10433483

$$$$

 OpenBabel03242523353D

 37 40  0  0  0  0  0  0  0  0999 V2000
   36.0190   26.1980   37.2800 C   0  0  0  0  0  0  0  0  0  0  0  0
   36.9860   26.5520   36.9240 H   0  0  0  0  0  0  0  0  0  0  0  0
   35.5750   25.5230   36.4880 H   0  0  0  0  0  0  0  0  0  0  0  0
   35.6060   23.4310   39.7240 C   0  0  0  0  0  0  0  0  0  0  0  0
   36.3380   23.9420   40.8170 C   0  0  0  0  0  0  0  0  0  0  0  0
   36.9410   25.1930   40.6930 C   0  0  0  0  0  0  0  0  0  0  0  0
   36.8090   25.8900   39.5190 N   0  0  0  0  0  0  0  0  0  0  0  0
   36.0970   25.3610   38.4920 C   0  0  0  0  0  0  0  0  0  0  0  0
   35.5100   24.1580   38.5960 N   0  0  0  0  0  0  0  0  0  0  0  0
   35.1210   22.4690   39.7700 H   0  0  0  0  0  0  0  0  0  0  0  0
   36.4220   23.3680   41.7270 H   0  0  0  0  0  0  0  0  0  0  0  0
   37.7130   25.7900   41.7730 C   0  0  0  0  0  0  0  0  0  0  0  0
   38.8660   25.2580   42.3050 C   0  0  0  0  0  0  0  0  0  0  0  0
   39.2430   24.3290   41.9040 H   0  0  0  0  0  0  0  0  0  0  0  0
   39.5730   25.8500   43.3280 C   0  0  0  0  0  3  0  0  0  0  0  0
   39.1300   27.0340   43.8670 C   0  0  0  0  0  0  0  0  0  0  0  0
   39.6600   27.5300   44.6730 H   0  0  0  0  0  0  0  0  0  0  0  0
   37.9750   27.6100   43.3680 C   0  0  0  0  0  0  0  0  0  0  0  0
   37.6100   28.5480   43.7830 H   0  0  0  0  0  0  0  0  0  0  0  0
   37.3120   26.9720   42.3450 C   0  0  0  0  0  3  0  0  0  0  0  0
   34.7840   27.4820   37.5670 S   0  0  0  0  0  0  0  0  0  0  0  0
   35.4730   28.8120   38.5260 C   0  0  0  0  0  0  0  0  0  0  0  0
   35.1000   28.9180   39.8470 C   0  0  0  0  0  0  0  0  0  0  0  0
   35.6280   29.9370   40.5870 C   0  0  0  0  0  0  0  0  0  0  0  0
   36.5190   30.8600   40.0550 C   0  0  0  0  0  0  0  0  0  0  0  0
   37.0190   31.8540   40.8190 N   0  0  0  0  0  0  0  0  0  0  0  0
   37.8860   32.7570   40.3150 C   0  0  0  0  0  0  0  0  0  0  0  0
   38.2630   32.6600   38.9940 C   0  0  0  0  0  0  0  0  0  0  0  0
   37.7520   31.6400   38.2030 C   0  0  0  0  0  0  0  0  0  0  0  0
   36.8490   30.6980   38.7280 C   0  0  0  0  0  0  0  0  0  0  0  0
   36.3510   29.6940   37.9380 C   0  0  0  0  0  0  0  0  0  0  0  0
   34.4270   28.2820   40.3860 H   0  0  0  0  0  0  0  0  0  0  0  0
   35.3830   30.0890   41.6440 H   0  0  0  0  0  0  0  0  0  0  0  0
   38.2860   33.5550   40.9300 H   0  0  0  0  0  0  0  0  0  0  0  0
   38.9530   33.3630   38.5560 H   0  0  0  0  0  0  0  0  0  0  0  0
   38.0750   31.6000   37.1710 H   0  0  0  0  0  0  0  0  0  0  0  0
   36.6430   29.6140   36.9030 H   0  0  0  0  0  0  0  0  0  0  0  0
  1 21  1  0  0  0  0
  1  8  1  0  0  0  0
  2  1  1  0  0  0  0
  3  1  1  0  0  0  0
  4 10  1  0  0  0  0
  4  5  1  0  0  0  0
  5 11  1  0  0  0  0
  6  5  2  0  0  0  0
  6 12  1  0  0  0  0
  7  6  1  0  0  0  0
  8  9  1  0  0  0  0
  8  7  2  0  0  0  0
  9  4  2  0  0  0  0
 12 13  2  0  0  0  0
 12 20  1  0  0  0  0
 13 15  1  0  0  0  0
 14 13  1  0  0  0  0
 15 16  2  0  0  0  0
 16 17  1  0  0  0  0
 18 19  1  0  0  0  0
 18 16  1  0  0  0  0
 20 18  2  0  0  0  0
 21 22  1  0  0  0  0
 22 23  1  0  0  0  0
 23 32  1  0  0  0  0
 23 24  2  0  0  0  0
 24 33  1  0  0  0  0
 25 24  1  0  0  0  0
 25 26  1  0  0  0  0
 27 26  2  0  0  0  0
 27 34  1  0  0  0  0
 28 27  1  0  0  0  0
 29 30  1  0  0  0  0
 29 28  2  0  0  0  0
 30 25  2  0  0  0  0
 31 22  2  0  0  0  0
 31 30  1  0  0  0  0
 35 28  1  0  0  0  0
 36 29  1  0  0  0  0
 37 31  1  0  0  0  0
M  END
>  <minimizedAffinity>
-6.02062893

$$$$

 OpenBabel03242523353D

 37 40  0  0  0  0  0  0  0  0999 V2000
   39.3150   30.1760   41.3220 C   0  0  0  0  0  0  0  0  0  0  0  0
   40.1090   30.5850   41.9460 H   0  0  0  0  0  0  0  0  0  0  0  0
   39.7920   29.6230   40.4580 H   0  0  0  0  0  0  0  0  0  0  0  0
   37.3390   28.3220   43.8630 C   0  0  0  0  0  0  0  0  0  0  0  0
   36.9270   27.2070   43.1040 C   0  0  0  0  0  0  0  0  0  0  0  0
   37.3250   27.1190   41.7710 C   0  0  0  0  0  0  0  0  0  0  0  0
   38.1030   28.1140   41.2350 N   0  0  0  0  0  0  0  0  0  0  0  0
   38.4770   29.1700   42.0010 C   0  0  0  0  0  0  0  0  0  0  0  0
   38.1020   29.2680   43.2860 N   0  0  0  0  0  0  0  0  0  0  0  0
   37.0570   28.4360   44.8980 H   0  0  0  0  0  0  0  0  0  0  0  0
   36.3140   26.4420   43.5570 H   0  0  0  0  0  0  0  0  0  0  0  0
   36.9420   26.0020   40.9200 C   0  0  0  0  0  0  0  0  0  0  0  0
   36.9390   24.6810   41.3090 C   0  0  0  0  0  0  0  0  0  0  0  0
   37.2410   24.4340   42.3160 H   0  0  0  0  0  0  0  0  0  0  0  0
   36.5710   23.6460   40.4770 C   0  0  0  0  0  3  0  0  0  0  0  0
   36.1790   23.9140   39.1880 C   0  0  0  0  0  0  0  0  0  0  0  0
   35.8820   23.1270   38.5050 H   0  0  0  0  0  0  0  0  0  0  0  0
   36.1650   25.2260   38.7480 C   0  0  0  0  0  0  0  0  0  0  0  0
   35.8580   25.4570   37.7290 H   0  0  0  0  0  0  0  0  0  0  0  0
   36.5440   26.2170   39.6240 C   0  0  0  0  0  3  0  0  0  0  0  0
   38.2210   31.3960   40.5680 S   0  0  0  0  0  0  0  0  0  0  0  0
   37.3450   30.6870   39.1910 C   0  0  0  0  0  0  0  0  0  0  0  0
   37.9160   30.7840   37.9420 C   0  0  0  0  0  0  0  0  0  0  0  0
   37.2470   30.2390   36.8830 C   0  0  0  0  0  0  0  0  0  0  0  0
   36.0230   29.5990   37.0250 C   0  0  0  0  0  0  0  0  0  0  0  0
   35.3930   29.0730   35.9530 N   0  0  0  0  0  0  0  0  0  0  0  0
   34.2030   28.4480   36.0770 C   0  0  0  0  0  0  0  0  0  0  0  0
   33.6240   28.3490   37.3220 C   0  0  0  0  0  0  0  0  0  0  0  0
   34.2670   28.8880   38.4280 C   0  0  0  0  0  0  0  0  0  0  0  0
   35.5080   29.5390   38.3000 C   0  0  0  0  0  0  0  0  0  0  0  0
   36.1350   30.0670   39.3990 C   0  0  0  0  0  0  0  0  0  0  0  0
   38.8480   31.2460   37.6870 H   0  0  0  0  0  0  0  0  0  0  0  0
   37.6340   30.2730   35.8580 H   0  0  0  0  0  0  0  0  0  0  0  0
   33.6990   28.0270   35.2140 H   0  0  0  0  0  0  0  0  0  0  0  0
   32.6740   27.8570   37.4590 H   0  0  0  0  0  0  0  0  0  0  0  0
   33.7780   28.7870   39.3880 H   0  0  0  0  0  0  0  0  0  0  0  0
   35.6850   29.9910   40.3760 H   0  0  0  0  0  0  0  0  0  0  0  0
  1  2  1  0  0  0  0
  1  8  1  0  0  0  0
  3  1  1  0  0  0  0
  4 10  1  0  0  0  0
  5 11  1  0  0  0  0
  5  4  2  0  0  0  0
  6  5  1  0  0  0  0
  7  6  2  0  0  0  0
  7  8  1  0  0  0  0
  8  9  2  0  0  0  0
  9  4  1  0  0  0  0
 12 13  1  0  0  0  0
 12  6  1  0  0  0  0
 13 14  1  0  0  0  0
 15 13  2  0  0  0  0
 16 15  1  0  0  0  0
 17 16  1  0  0  0  0
 18 16  2  0  0  0  0
 18 20  1  0  0  0  0
 19 18  1  0  0  0  0
 20 12  2  0  0  0  0
 21  1  1  0  0  0  0
 22 31  1  0  0  0  0
 22 21  1  0  0  0  0
 23 22  2  0  0  0  0
 24 25  2  0  0  0  0
 24 23  1  0  0  0  0
 25 30  1  0  0  0  0
 26 27  2  0  0  0  0
 26 25  1  0  0  0  0
 27 28  1  0  0  0  0
 28 35  1  0  0  0  0
 28 29  2  0  0  0  0
 29 36  1  0  0  0  0
 30 29  1  0  0  0  0
 30 31  2  0  0  0  0
 31 37  1  0  0  0  0
 32 23  1  0  0  0  0
 33 24  1  0  0  0  0
 34 27  1  0  0  0  0
M  END
>  <minimizedAffinity>
-5.92753029

$$$$

 OpenBabel03242523353D

 37 40  0  0  0  0  0  0  0  0999 V2000
   36.0850   25.4040   37.3340 C   0  0  0  0  0  0  0  0  0  0  0  0
   36.9860   25.5950   36.7530 H   0  0  0  0  0  0  0  0  0  0  0  0
   35.5470   24.5210   36.8750 H   0  0  0  0  0  0  0  0  0  0  0  0
   36.4760   23.4300   40.4550 C   0  0  0  0  0  0  0  0  0  0  0  0
   36.8620   24.4450   41.3550 C   0  0  0  0  0  0  0  0  0  0  0  0
   36.9780   25.7510   40.8820 C   0  0  0  0  0  0  0  0  0  0  0  0
   36.7140   26.0140   39.5620 N   0  0  0  0  0  0  0  0  0  0  0  0
   36.3460   25.0060   38.7300 C   0  0  0  0  0  0  0  0  0  0  0  0
   36.2300   23.7440   39.1700 N   0  0  0  0  0  0  0  0  0  0  0  0
   36.3730   22.4040   40.7720 H   0  0  0  0  0  0  0  0  0  0  0  0
   37.0620   24.2040   42.3880 H   0  0  0  0  0  0  0  0  0  0  0  0
   37.3710   26.8550   41.7450 C   0  0  0  0  0  0  0  0  0  0  0  0
   36.7920   27.1510   42.9590 C   0  0  0  0  0  0  0  0  0  0  0  0
   35.9840   26.5290   43.3150 H   0  0  0  0  0  0  0  0  0  0  0  0
   37.1890   28.2050   43.7520 C   0  0  0  0  0  3  0  0  0  0  0  0
   38.2140   29.0220   43.3380 C   0  0  0  0  0  0  0  0  0  0  0  0
   38.5540   29.8600   43.9350 H   0  0  0  0  0  0  0  0  0  0  0  0
   38.8290   28.7670   42.1250 C   0  0  0  0  0  0  0  0  0  0  0  0
   39.6420   29.4040   41.7810 H   0  0  0  0  0  0  0  0  0  0  0  0
   38.3890   27.7000   41.3760 C   0  0  0  0  0  3  0  0  0  0  0  0
   34.8790   26.7450   37.3520 S   0  0  0  0  0  0  0  0  0  0  0  0
   35.6810   28.3080   37.6360 C   0  0  0  0  0  0  0  0  0  0  0  0
   36.3170   28.9110   36.5750 C   0  0  0  0  0  0  0  0  0  0  0  0
   36.9320   30.1110   36.7890 C   0  0  0  0  0  0  0  0  0  0  0  0
   36.9360   30.7350   38.0300 C   0  0  0  0  0  0  0  0  0  0  0  0
   37.5560   31.9220   38.2020 N   0  0  0  0  0  0  0  0  0  0  0  0
   37.5660   32.5390   39.4020 C   0  0  0  0  0  0  0  0  0  0  0  0
   36.9340   31.9420   40.4690 C   0  0  0  0  0  0  0  0  0  0  0  0
   36.2950   30.7210   40.2990 C   0  0  0  0  0  0  0  0  0  0  0  0
   36.2820   30.0780   39.0480 C   0  0  0  0  0  0  0  0  0  0  0  0
   35.6480   28.8730   38.8900 C   0  0  0  0  0  0  0  0  0  0  0  0
   36.3940   28.5470   35.5700 H   0  0  0  0  0  0  0  0  0  0  0  0
   37.4590   30.6560   35.9980 H   0  0  0  0  0  0  0  0  0  0  0  0
   38.0650   33.4930   39.5380 H   0  0  0  0  0  0  0  0  0  0  0  0
   36.9220   32.4050   41.4430 H   0  0  0  0  0  0  0  0  0  0  0  0
   35.8090   30.2880   41.1630 H   0  0  0  0  0  0  0  0  0  0  0  0
   35.1510   28.4020   39.7230 H   0  0  0  0  0  0  0  0  0  0  0  0
  1 21  1  0  0  0  0
  1  8  1  0  0  0  0
  2  1  1  0  0  0  0
  3  1  1  0  0  0  0
  4 10  1  0  0  0  0
  4  5  1  0  0  0  0
  5 11  1  0  0  0  0
  6  5  2  0  0  0  0
  6 12  1  0  0  0  0
  7  6  1  0  0  0  0
  8  9  1  0  0  0  0
  8  7  2  0  0  0  0
  9  4  2  0  0  0  0
 12 13  1  0  0  0  0
 13 14  1  0  0  0  0
 13 15  2  0  0  0  0
 16 15  1  0  0  0  0
 16 17  1  0  0  0  0
 18 16  2  0  0  0  0
 19 18  1  0  0  0  0
 20 12  2  0  0  0  0
 20 18  1  0  0  0  0
 21 22  1  0  0  0  0
 22 31  1  0  0  0  0
 23 24  1  0  0  0  0
 23 22  2  0  0  0  0
 24 25  2  0  0  0  0
 25 26  1  0  0  0  0
 25 30  1  0  0  0  0
 26 27  2  0  0  0  0
 27 34  1  0  0  0  0
 27 28  1  0  0  0  0
 28 35  1  0  0  0  0
 29 28  2  0  0  0  0
 29 36  1  0  0  0  0
 30 29  1  0  0  0  0
 31 30  2  0  0  0  0
 31 37  1  0  0  0  0
 32 23  1  0  0  0  0
 33 24  1  0  0  0  0
M  END
>  <minimizedAffinity>
-5.90873432

$$$$

 OpenBabel03242523353D

 37 40  0  0  0  0  0  0  0  0999 V2000
   39.0150   30.1550   41.1290 C   0  0  0  0  0  0  0  0  0  0  0  0
   39.8340   30.6380   41.6600 H   0  0  0  0  0  0  0  0  0  0  0  0
   39.4430   29.6230   40.2270 H   0  0  0  0  0  0  0  0  0  0  0  0
   37.3420   28.2620   43.8520 C   0  0  0  0  0  0  0  0  0  0  0  0
   37.0920   27.0380   43.1970 C   0  0  0  0  0  0  0  0  0  0  0  0
   37.4910   26.8940   41.8690 C   0  0  0  0  0  0  0  0  0  0  0  0
   38.1150   27.9400   41.2380 N   0  0  0  0  0  0  0  0  0  0  0  0
   38.3360   29.1010   41.9050 C   0  0  0  0  0  0  0  0  0  0  0  0
   37.9570   29.2550   43.1830 N   0  0  0  0  0  0  0  0  0  0  0  0
   37.0530   28.4230   44.8780 H   0  0  0  0  0  0  0  0  0  0  0  0
   36.5990   26.2350   43.7240 H   0  0  0  0  0  0  0  0  0  0  0  0
   37.2690   25.6640   41.1230 C   0  0  0  0  0  0  0  0  0  0  0  0
   36.6000   25.5810   39.9230 C   0  0  0  0  0  0  0  0  0  0  0  0
   36.2020   26.4850   39.4850 H   0  0  0  0  0  0  0  0  0  0  0  0
   36.4070   24.3990   39.2420 C   0  0  0  0  0  3  0  0  0  0  0  0
   36.8960   23.2250   39.7610 C   0  0  0  0  0  0  0  0  0  0  0  0
   36.7640   22.2760   39.2540 H   0  0  0  0  0  0  0  0  0  0  0  0
   37.5770   23.2550   40.9660 C   0  0  0  0  0  0  0  0  0  0  0  0
   37.9710   22.3340   41.3930 H   0  0  0  0  0  0  0  0  0  0  0  0
   37.7380   24.4650   41.6000 C   0  0  0  0  0  3  0  0  0  0  0  0
   37.7550   31.2690   40.4770 S   0  0  0  0  0  0  0  0  0  0  0  0
   36.5310   30.3630   39.5570 C   0  0  0  0  0  0  0  0  0  0  0  0
   35.4550   29.8490   40.2440 C   0  0  0  0  0  0  0  0  0  0  0  0
   34.5130   29.1550   39.5400 C   0  0  0  0  0  0  0  0  0  0  0  0
   34.6050   28.9520   38.1690 C   0  0  0  0  0  0  0  0  0  0  0  0
   33.6530   28.2600   37.5090 N   0  0  0  0  0  0  0  0  0  0  0  0
   33.7310   28.0580   36.1770 C   0  0  0  0  0  0  0  0  0  0  0  0
   34.8050   28.5670   35.4820 C   0  0  0  0  0  0  0  0  0  0  0  0
   35.7880   29.2800   36.1560 C   0  0  0  0  0  0  0  0  0  0  0  0
   35.7070   29.4920   37.5440 C   0  0  0  0  0  0  0  0  0  0  0  0
   36.6830   30.1990   38.1990 C   0  0  0  0  0  0  0  0  0  0  0  0
   35.2560   29.9260   41.2930 H   0  0  0  0  0  0  0  0  0  0  0  0
   33.6270   28.7150   40.0120 H   0  0  0  0  0  0  0  0  0  0  0  0
   32.9650   27.5010   35.6490 H   0  0  0  0  0  0  0  0  0  0  0  0
   34.9010   28.4250   34.4180 H   0  0  0  0  0  0  0  0  0  0  0  0
   36.6140   29.6640   35.5720 H   0  0  0  0  0  0  0  0  0  0  0  0
   37.5260   30.6000   37.6590 H   0  0  0  0  0  0  0  0  0  0  0  0
  1  2  1  0  0  0  0
  1  8  1  0  0  0  0
  3  1  1  0  0  0  0
  4 10  1  0  0  0  0
  5 11  1  0  0  0  0
  5  4  1  0  0  0  0
  6  5  2  0  0  0  0
  7  6  1  0  0  0  0
  7  8  2  0  0  0  0
  8  9  1  0  0  0  0
  9  4  2  0  0  0  0
 12 20  1  0  0  0  0
 12  6  1  0  0  0  0
 13 12  2  0  0  0  0
 14 13  1  0  0  0  0
 15 16  2  0  0  0  0
 15 13  1  0  0  0  0
 16 18  1  0  0  0  0
 17 16  1  0  0  0  0
 18 19  1  0  0  0  0
 18 20  2  0  0  0  0
 21  1  1  0  0  0  0
 22 23  1  0  0  0  0
 22 21  1  0  0  0  0
 23 32  1  0  0  0  0
 24 33  1  0  0  0  0
 24 23  2  0  0  0  0
 25 24  1  0  0  0  0
 26 25  2  0  0  0  0
 27 26  1  0  0  0  0
 28 29  1  0  0  0  0
 28 27  2  0  0  0  0
 29 30  2  0  0  0  0
 30 25  1  0  0  0  0
 30 31  1  0  0  0  0
 31 22  2  0  0  0  0
 34 27  1  0  0  0  0
 35 28  1  0  0  0  0
 36 29  1  0  0  0  0
 37 31  1  0  0  0  0
M  END
>  <minimizedAffinity>
-5.86750746

$$$$

 OpenBabel03242523353D

 37 40  0  0  0  0  0  0  0  0999 V2000
   36.1900   29.8990   38.9250 C   0  0  0  0  0  0  0  0  0  0  0  0
   35.4610   30.1630   38.1600 H   0  0  0  0  0  0  0  0  0  0  0  0
   36.7860   29.0110   38.5550 H   0  0  0  0  0  0  0  0  0  0  0  0
   37.9220   32.9290   40.1970 C   0  0  0  0  0  0  0  0  0  0  0  0
   39.1660   32.8080   39.5430 C   0  0  0  0  0  0  0  0  0  0  0  0
   39.3770   31.7170   38.7020 C   0  0  0  0  0  0  0  0  0  0  0  0
   38.3760   30.7940   38.5330 N   0  0  0  0  0  0  0  0  0  0  0  0
   37.1940   30.9490   39.1830 C   0  0  0  0  0  0  0  0  0  0  0  0
   36.9760   31.9940   39.9950 N   0  0  0  0  0  0  0  0  0  0  0  0
   37.7090   33.7550   40.8570 H   0  0  0  0  0  0  0  0  0  0  0  0
   39.9320   33.5520   39.6970 H   0  0  0  0  0  0  0  0  0  0  0  0
   40.6320   31.5180   37.9910 C   0  0  0  0  0  0  0  0  0  0  0  0
   41.0530   30.3220   37.4550 C   0  0  0  0  0  0  0  0  0  0  0  0
   40.4190   29.4540   37.5580 H   0  0  0  0  0  0  0  0  0  0  0  0
   42.2480   30.1690   36.7870 C   0  0  0  0  0  3  0  0  0  0  0  0
   43.0850   31.2470   36.6310 C   0  0  0  0  0  0  0  0  0  0  0  0
   44.0330   31.1650   36.1120 H   0  0  0  0  0  0  0  0  0  0  0  0
   42.7080   32.4720   37.1530 C   0  0  0  0  0  0  0  0  0  0  0  0
   43.3600   33.3370   37.0390 H   0  0  0  0  0  0  0  0  0  0  0  0
   41.5030   32.5640   37.8100 C   0  0  0  0  0  3  0  0  0  0  0  0
   35.4980   29.3870   40.5100 S   0  0  0  0  0  0  0  0  0  0  0  0
   36.7350   28.5880   41.5070 C   0  0  0  0  0  0  0  0  0  0  0  0
   37.3530   29.3290   42.4880 C   0  0  0  0  0  0  0  0  0  0  0  0
   38.3020   28.7180   43.2570 C   0  0  0  0  0  0  0  0  0  0  0  0
   38.6600   27.3870   43.0810 C   0  0  0  0  0  0  0  0  0  0  0  0
   39.6030   26.8190   43.8620 N   0  0  0  0  0  0  0  0  0  0  0  0
   39.9590   25.5270   43.7020 C   0  0  0  0  0  0  0  0  0  0  0  0
   39.3480   24.7790   42.7210 C   0  0  0  0  0  0  0  0  0  0  0  0
   38.3760   25.3580   41.9150 C   0  0  0  0  0  0  0  0  0  0  0  0
   38.0040   26.7040   42.0820 C   0  0  0  0  0  0  0  0  0  0  0  0
   37.0430   27.2660   41.2810 C   0  0  0  0  0  0  0  0  0  0  0  0
   37.1790   30.3570   42.7340 H   0  0  0  0  0  0  0  0  0  0  0  0
   38.8390   29.2370   44.0580 H   0  0  0  0  0  0  0  0  0  0  0  0
   40.7180   25.0730   44.3300 H   0  0  0  0  0  0  0  0  0  0  0  0
   39.6060   23.7440   42.5640 H   0  0  0  0  0  0  0  0  0  0  0  0
   37.9200   24.7340   41.1580 H   0  0  0  0  0  0  0  0  0  0  0  0
   36.5610   26.6830   40.5120 H   0  0  0  0  0  0  0  0  0  0  0  0
  1  8  1  0  0  0  0
  1 21  1  0  0  0  0
  2  1  1  0  0  0  0
  3  1  1  0  0  0  0
  4 10  1  0  0  0  0
  5 11  1  0  0  0  0
  5  4  2  0  0  0  0
  6  5  1  0  0  0  0
  7  6  2  0  0  0  0
  7  8  1  0  0  0  0
  8  9  2  0  0  0  0
  9  4  1  0  0  0  0
 12  6  1  0  0  0  0
 13 14  1  0  0  0  0
 13 12  2  0  0  0  0
 15 13  1  0  0  0  0
 16 15  2  0  0  0  0
 16 18  1  0  0  0  0
 17 16  1  0  0  0  0
 18 20  2  0  0  0  0
 19 18  1  0  0  0  0
 20 12  1  0  0  0  0
 21 22  1  0  0  0  0
 22 23  1  0  0  0  0
 23 32  1  0  0  0  0
 23 24  2  0  0  0  0
 24 33  1  0  0  0  0
 25 24  1  0  0  0  0
 25 26  1  0  0  0  0
 27 26  2  0  0  0  0
 27 34  1  0  0  0  0
 28 27  1  0  0  0  0
 29 30  1  0  0  0  0
 29 28  2  0  0  0  0
 30 25  2  0  0  0  0
 31 22  2  0  0  0  0
 31 30  1  0  0  0  0
 35 28  1  0  0  0  0
 36 29  1  0  0  0  0
 37 31  1  0  0  0  0
M  END
>  <minimizedAffinity>
-5.83193588

$$$$

 OpenBabel03242523353D

 37 40  0  0  0  0  0  0  0  0999 V2000
   38.6260   26.5620   42.9480 C   0  0  0  0  0  0  0  0  0  0  0  0
   39.0100   25.9310   43.7480 H   0  0  0  0  0  0  0  0  0  0  0  0
   39.5070   27.0020   42.3900 H   0  0  0  0  0  0  0  0  0  0  0  0
   36.9570   23.8780   40.9970 C   0  0  0  0  0  0  0  0  0  0  0  0
   36.4050   24.6320   39.9420 C   0  0  0  0  0  0  0  0  0  0  0  0
   36.6120   26.0110   39.9240 C   0  0  0  0  0  0  0  0  0  0  0  0
   37.3430   26.5940   40.9280 N   0  0  0  0  0  0  0  0  0  0  0  0
   37.8560   25.8300   41.9250 C   0  0  0  0  0  0  0  0  0  0  0  0
   37.6660   24.5020   41.9560 N   0  0  0  0  0  0  0  0  0  0  0  0
   36.8250   22.8090   41.0560 H   0  0  0  0  0  0  0  0  0  0  0  0
   35.8350   24.1420   39.1670 H   0  0  0  0  0  0  0  0  0  0  0  0
   36.0760   26.8610   38.8710 C   0  0  0  0  0  0  0  0  0  0  0  0
   36.1270   28.2370   38.8670 C   0  0  0  0  0  0  0  0  0  0  0  0
   36.5960   28.7430   39.6980 H   0  0  0  0  0  0  0  0  0  0  0  0
   35.6090   29.0120   37.8530 C   0  0  0  0  0  3  0  0  0  0  0  0
   35.0030   28.4110   36.7760 C   0  0  0  0  0  0  0  0  0  0  0  0
   34.5850   28.9880   35.9590 H   0  0  0  0  0  0  0  0  0  0  0  0
   34.9260   27.0300   36.7320 C   0  0  0  0  0  0  0  0  0  0  0  0
   34.4500   26.5370   35.8870 H   0  0  0  0  0  0  0  0  0  0  0  0
   35.4610   26.3080   37.7740 C   0  0  0  0  0  3  0  0  0  0  0  0
   37.6420   27.9750   43.4840 S   0  0  0  0  0  0  0  0  0  0  0  0
   38.1310   29.4480   42.6140 C   0  0  0  0  0  0  0  0  0  0  0  0
   39.3730   29.9760   42.8840 C   0  0  0  0  0  0  0  0  0  0  0  0
   39.7520   31.1050   42.2170 C   0  0  0  0  0  0  0  0  0  0  0  0
   38.9330   31.7310   41.2850 C   0  0  0  0  0  0  0  0  0  0  0  0
   39.3450   32.8470   40.6470 N   0  0  0  0  0  0  0  0  0  0  0  0
   38.5590   33.4630   39.7390 C   0  0  0  0  0  0  0  0  0  0  0  0
   37.3150   32.9430   39.4640 C   0  0  0  0  0  0  0  0  0  0  0  0
   36.8860   31.7950   40.1180 C   0  0  0  0  0  0  0  0  0  0  0  0
   37.7040   31.1510   41.0640 C   0  0  0  0  0  0  0  0  0  0  0  0
   37.2720   30.0190   41.7040 C   0  0  0  0  0  0  0  0  0  0  0  0
   40.1030   29.6020   43.5730 H   0  0  0  0  0  0  0  0  0  0  0  0
   40.7240   31.5870   42.3740 H   0  0  0  0  0  0  0  0  0  0  0  0
   38.8910   34.3600   39.2270 H   0  0  0  0  0  0  0  0  0  0  0  0
   36.6590   33.4090   38.7460 H   0  0  0  0  0  0  0  0  0  0  0  0
   35.9020   31.4200   39.8720 H   0  0  0  0  0  0  0  0  0  0  0  0
   36.2980   29.6070   41.4910 H   0  0  0  0  0  0  0  0  0  0  0  0
  1 21  1  0  0  0  0
  1  2  1  0  0  0  0
  3  1  1  0  0  0  0
  4 10  1  0  0  0  0
  4  9  1  0  0  0  0
  5  4  2  0  0  0  0
  6  5  1  0  0  0  0
  6  7  2  0  0  0  0
  7  8  1  0  0  0  0
  8  9  2  0  0  0  0
  8  1  1  0  0  0  0
 11  5  1  0  0  0  0
 12  6  1  0  0  0  0
 13 12  1  0  0  0  0
 13 14  1  0  0  0  0
 15 13  2  0  0  0  0
 16 15  1  0  0  0  0
 17 16  1  0  0  0  0
 18 16  2  0  0  0  0
 18 20  1  0  0  0  0
 19 18  1  0  0  0  0
 20 12  2  0  0  0  0
 22 23  1  0  0  0  0
 22 21  1  0  0  0  0
 23 32  1  0  0  0  0
 24 33  1  0  0  0  0
 24 23  2  0  0  0  0
 25 24  1  0  0  0  0
 26 25  2  0  0  0  0
 27 26  1  0  0  0  0
 28 27  2  0  0  0  0
 28 29  1  0  0  0  0
 29 30  2  0  0  0  0
 30 25  1  0  0  0  0
 30 31  1  0  0  0  0
 31 22  2  0  0  0  0
 34 27  1  0  0  0  0
 35 28  1  0  0  0  0
 36 29  1  0  0  0  0
 37 31  1  0  0  0  0
M  END
>  <minimizedAffinity>
-5.81727982

$$$$
