
 OpenBabel03252509243D

 27 29  0  0  1  0  0  0  0  0999 V2000
   46.7100   34.7310   42.0300 C   0  0  1  0  0  0  0  0  0  0  0  0
   48.1150   35.3860   42.0510 C   0  0  0  0  0  0  0  0  0  0  0  0
   47.8160   33.8810   41.7720 C   0  0  2  0  0  0  0  0  0  0  0  0
   46.0530   35.1620   41.2500 H   0  0  0  0  0  0  0  0  0  0  0  0
   48.4360   35.9430   41.1540 H   0  0  0  0  0  0  0  0  0  0  0  0
   48.5800   35.6420   42.9940 H   0  0  0  0  0  0  0  0  0  0  0  0
   48.2040   33.2200   42.5800 H   0  0  0  0  0  0  0  0  0  0  0  0
   48.0630   33.4170   40.3670 C   0  0  0  0  0  0  0  0  0  0  0  0
   47.2650   33.9010   39.3480 C   0  0  0  0  0  0  0  0  0  0  0  0
   46.4680   34.6020   39.5260 H   0  0  0  0  0  0  0  0  0  0  0  0
   47.4890   33.4720   38.0350 C   0  0  0  0  0  3  0  0  0  0  0  0
   48.5250   32.5710   37.8690 C   0  0  0  0  0  0  0  0  0  0  0  0
   48.7030   32.2330   36.8420 H   0  0  0  0  0  0  0  0  0  0  0  0
   49.3440   32.0640   38.8650 C   0  0  0  0  0  0  0  0  0  0  0  0
   50.1190   31.3640   38.5880 H   0  0  0  0  0  0  0  0  0  0  0  0
   49.0900   32.5170   40.1630 C   0  0  0  0  0  3  0  0  0  0  0  0
   44.5450   35.5720   44.9740 C   0  0  0  0  0  0  0  0  0  0  0  0
   45.1360   35.6810   43.6650 C   0  0  0  0  0  0  0  0  0  0  0  0
   46.1010   34.7460   43.4050 C   0  0  0  0  0  0  0  0  0  0  0  0
   46.4680   33.7890   44.3290 N   0  0  0  0  0  0  0  0  0  0  0  0
   45.8840   33.7300   45.5390 C   0  0  0  0  0  0  0  0  0  0  0  0
   44.9170   34.6290   45.8600 N   0  0  0  0  0  0  0  0  0  0  0  0
   43.7750   36.2870   45.2310 H   0  0  0  0  0  0  0  0  0  0  0  0
   46.2780   32.9290   46.1460 H   0  0  0  0  0  0  0  0  0  0  0  0
   44.7630   36.6870   42.7410 N   0  0  0  0  0  0  0  0  0  0  0  0
   45.2140   37.5970   43.0090 H   0  0  0  0  0  0  0  0  0  0  0  0
   44.1630   36.6740   41.9060 H   0  0  0  0  0  0  0  0  0  0  0  0
  1  4  1  6  0  0  0
  1  2  1  0  0  0  0
  1 19  1  0  0  0  0
  2  6  1  0  0  0  0
  3  1  1  0  0  0  0
  3  2  1  0  0  0  0
  3  7  1  1  0  0  0
  5  2  1  0  0  0  0
  8  3  1  0  0  0  0
  9 10  1  0  0  0  0
  9  8  2  0  0  0  0
 11  9  1  0  0  0  0
 12 11  2  0  0  0  0
 12 14  1  0  0  0  0
 13 12  1  0  0  0  0
 14 16  2  0  0  0  0
 15 14  1  0  0  0  0
 16  8  1  0  0  0  0
 17 23  1  0  0  0  0
 17 22  1  0  0  0  0
 18 17  2  0  0  0  0
 19 18  1  0  0  0  0
 19 20  2  0  0  0  0
 20 21  1  0  0  0  0
 21 22  2  0  0  0  0
 21 24  1  0  0  0  0
 25 26  1  0  0  0  0
 25 18  1  0  0  0  0
 27 25  1  0  0  0  0
M  END
>  <minimizedAffinity>
-4.83230877

>  <minimizedRMSD>
0.761982977

$$$$
