
 OpenBabel03252508553D

 43 46  0  0  1  0  0  0  0  0999 V2000
   43.2110   34.3380   40.6120 C   0  0  0  0  0  0  0  0  0  0  0  0
   43.1860   35.4960   40.0670 O   0  0  0  0  0  0  0  0  0  0  0  0
   41.8280   33.9460   40.4270 N   0  0  0  0  0  0  0  0  0  0  0  0
   41.3980   33.8750   39.0450 C   0  0  0  0  0  0  0  0  0  0  0  0
   40.6350   35.1930   38.8030 C   0  0  0  0  0  0  0  0  0  0  0  0
   39.9090   35.5180   40.1190 C   0  0  0  0  0  0  0  0  0  0  0  0
   39.5420   34.2500   40.8600 C   0  0  0  0  0  0  0  0  0  0  0  0
   40.8170   33.6180   41.4120 C   0  0  1  0  0  0  0  0  0  0  0  0
   42.2290   33.7580   38.3290 H   0  0  0  0  0  0  0  0  0  0  0  0
   40.6490   33.0610   38.8790 H   0  0  0  0  0  0  0  0  0  0  0  0
   41.3390   36.0300   38.6090 H   0  0  0  0  0  0  0  0  0  0  0  0
   39.9410   35.0900   37.9590 H   0  0  0  0  0  0  0  0  0  0  0  0
   40.5490   36.1180   40.7830 H   0  0  0  0  0  0  0  0  0  0  0  0
   38.9360   36.0140   39.8780 H   0  0  0  0  0  0  0  0  0  0  0  0
   39.0420   33.6090   40.1120 H   0  0  0  0  0  0  0  0  0  0  0  0
   38.8830   34.5610   41.6920 H   0  0  0  0  0  0  0  0  0  0  0  0
   41.0690   34.1960   42.3280 H   0  0  0  0  0  0  0  0  0  0  0  0
   40.6670   32.1880   41.6860 C   0  0  0  0  0  0  0  0  0  0  0  0
   39.4160   31.6520   41.4310 C   0  0  0  0  0  0  0  0  0  0  0  0
   38.5840   32.2220   41.0540 H   0  0  0  0  0  0  0  0  0  0  0  0
   39.1160   30.3270   41.6350 C   0  0  0  0  0  3  0  0  0  0  0  0
   40.0870   29.4720   42.1160 C   0  0  0  0  0  0  0  0  0  0  0  0
   39.8650   28.4220   42.2830 H   0  0  0  0  0  0  0  0  0  0  0  0
   41.3600   29.9750   42.3850 C   0  0  0  0  0  0  0  0  0  0  0  0
   42.1490   29.3370   42.7640 H   0  0  0  0  0  0  0  0  0  0  0  0
   41.6140   31.3130   42.1650 C   0  0  0  0  0  3  0  0  0  0  0  0
   44.2860   33.7330   41.1780 O   0  0  0  0  0  0  0  0  0  0  0  0
   45.6140   34.0130   40.9760 C   0  0  0  0  0  0  0  0  0  0  0  0
   46.3020   34.6360   42.0290 C   0  0  0  0  0  0  0  0  0  0  0  0
   47.6620   34.9120   41.7990 C   0  0  0  0  0  0  0  0  0  0  0  0
   48.2140   34.5660   40.5970 N   0  0  0  0  0  0  0  0  0  0  0  0
   47.5040   33.9770   39.6430 C   0  0  0  0  0  0  0  0  0  0  0  0
   46.2050   33.6970   39.8250 N   0  0  0  0  0  0  0  0  0  0  0  0
   48.1750   35.3880   42.6100 H   0  0  0  0  0  0  0  0  0  0  0  0
   48.0140   33.7390   38.7300 H   0  0  0  0  0  0  0  0  0  0  0  0
   45.6200   34.9590   43.2600 C   0  0  0  0  0  0  0  0  0  0  0  0
   45.0140   36.1890   43.4920 C   0  0  0  0  0  0  0  0  0  0  0  0
   44.5000   36.0670   44.7560 C   0  0  0  0  0  0  0  0  0  0  0  0
   44.7710   34.8470   45.2620 N   0  0  0  0  0  0  0  0  0  0  0  0
   45.4420   34.2100   44.3410 N   0  0  0  0  0  0  0  0  0  0  0  0
   44.9830   37.0270   42.7990 H   0  0  0  0  0  0  0  0  0  0  0  0
   43.9470   36.8420   45.2860 H   0  0  0  0  0  0  0  0  0  0  0  0
   44.5340   34.4180   46.1850 H   0  0  0  0  0  0  0  0  0  0  0  0
  1 27  1  0  0  0  0
  2  1  2  0  0  0  0
  3  1  1  0  0  0  0
  3  8  1  0  0  0  0
  4  3  1  0  0  0  0
  5  4  1  0  0  0  0
  5  6  1  0  0  0  0
  6 13  1  0  0  0  0
  6  7  1  0  0  0  0
  7  8  1  0  0  0  0
  7 16  1  0  0  0  0
  8 18  1  0  0  0  0
  8 17  1  1  0  0  0
  9  4  1  0  0  0  0
 10  4  1  0  0  0  0
 11  5  1  0  0  0  0
 12  5  1  0  0  0  0
 14  6  1  0  0  0  0
 15  7  1  0  0  0  0
 18 26  1  0  0  0  0
 19 21  1  0  0  0  0
 19 18  2  0  0  0  0
 20 19  1  0  0  0  0
 21 22  2  0  0  0  0
 22 23  1  0  0  0  0
 22 24  1  0  0  0  0
 24 25  1  0  0  0  0
 26 24  2  0  0  0  0
 28 27  1  0  0  0  0
 28 29  1  0  0  0  0
 29 36  1  0  0  0  0
 30 29  2  0  0  0  0
 30 34  1  0  0  0  0
 31 30  1  0  0  0  0
 32 33  1  0  0  0  0
 32 31  2  0  0  0  0
 33 28  2  0  0  0  0
 35 32  1  0  0  0  0
 36 37  1  0  0  0  0
 36 40  2  0  0  0  0
 37 38  2  0  0  0  0
 38 39  1  0  0  0  0
 38 42  1  0  0  0  0
 39 43  1  0  0  0  0
 40 39  1  0  0  0  0
 41 37  1  0  0  0  0
M  END
>  <minimizedAffinity>
-6.76811171

>  <minimizedRMSD>
0.884733856

$$$$
