
 OpenBabel03252500003D

 21 22  0  0  0  0  0  0  0  0999 V2000
   36.5070   27.7470   39.2580 C   0  0  0  0  0  0  0  0  0  0  0  0
   36.8680   29.1110   39.1260 C   0  0  0  0  0  0  0  0  0  0  0  0
   37.2890   29.7710   40.2690 C   0  0  0  0  0  0  0  0  0  0  0  0
   37.3360   29.0990   41.4370 N   0  0  0  0  0  0  0  0  0  0  0  0
   36.9830   27.7920   41.5290 C   0  0  0  0  0  0  0  0  0  0  0  0
   36.5730   27.1340   40.4360 N   0  0  0  0  0  0  0  0  0  0  0  0
   36.1740   27.1920   38.3900 H   0  0  0  0  0  0  0  0  0  0  0  0
   36.8230   29.6200   38.1900 H   0  0  0  0  0  0  0  0  0  0  0  0
   37.6890   31.1740   40.2760 C   0  0  0  0  0  0  0  0  0  0  0  0
   36.9550   32.0530   39.5070 C   0  0  0  0  0  0  0  0  0  0  0  0
   36.0930   31.7430   38.8980 H   0  0  0  0  0  0  0  0  0  0  0  0
   37.2520   33.4150   39.4420 C   0  0  0  0  0  3  0  0  0  0  0  0
   38.3320   33.8740   40.1880 C   0  0  0  0  0  0  0  0  0  0  0  0
   38.5400   34.9390   40.1180 H   0  0  0  0  0  0  0  0  0  0  0  0
   39.0670   33.0130   40.9540 C   0  0  0  0  0  0  0  0  0  0  0  0
   39.8990   33.4320   41.5150 H   0  0  0  0  0  0  0  0  0  0  0  0
   38.7520   31.6640   41.0020 C   0  0  0  0  0  3  0  0  0  0  0  0
   37.1010   27.2310   42.9020 C   0  0  0  0  0  0  0  0  0  0  0  0
   38.1570   27.7550   43.5840 F   0  0  0  0  0  0  0  0  0  0  0  0
   37.2450   25.8370   42.8310 F   0  0  0  0  0  0  0  0  0  0  0  0
   35.9100   27.4170   43.5880 F   0  0  0  0  0  0  0  0  0  0  0  0
  1  6  1  0  0  0  0
  2  1  2  0  0  0  0
  2  3  1  0  0  0  0
  3  9  1  0  0  0  0
  3  4  2  0  0  0  0
  4  5  1  0  0  0  0
  5 18  1  0  0  0  0
  6  5  2  0  0  0  0
  7  1  1  0  0  0  0
  8  2  1  0  0  0  0
  9 17  1  0  0  0  0
 10  9  2  0  0  0  0
 11 10  1  0  0  0  0
 12 10  1  0  0  0  0
 12 13  2  0  0  0  0
 13 15  1  0  0  0  0
 14 13  1  0  0  0  0
 15 17  2  0  0  0  0
 15 16  1  0  0  0  0
 18 19  1  0  0  0  0
 18 21  1  0  0  0  0
 20 18  1  0  0  0  0
M  END
>  <minimizedAffinity>
-4.93733835

$$$$

 OpenBabel03252500003D

 21 22  0  0  0  0  0  0  0  0999 V2000
   36.0230   28.1870   39.4060 C   0  0  0  0  0  0  0  0  0  0  0  0
   36.4440   29.5290   39.2310 C   0  0  0  0  0  0  0  0  0  0  0  0
   37.0770   30.1420   40.3010 C   0  0  0  0  0  0  0  0  0  0  0  0
   37.2610   29.4470   41.4420 N   0  0  0  0  0  0  0  0  0  0  0  0
   36.8450   28.1620   41.5760 C   0  0  0  0  0  0  0  0  0  0  0  0
   36.2310   27.5510   40.5550 N   0  0  0  0  0  0  0  0  0  0  0  0
   35.5260   27.6700   38.5960 H   0  0  0  0  0  0  0  0  0  0  0  0
   36.2870   30.0570   38.3180 H   0  0  0  0  0  0  0  0  0  0  0  0
   37.5610   31.5170   40.2570 C   0  0  0  0  0  0  0  0  0  0  0  0
   38.6910   31.8220   40.9880 C   0  0  0  0  0  0  0  0  0  0  0  0
   39.2330   31.0800   41.5940 H   0  0  0  0  0  0  0  0  0  0  0  0
   39.2380   33.1050   41.0160 C   0  0  0  0  0  3  0  0  0  0  0  0
   38.6020   34.0920   40.2720 C   0  0  0  0  0  0  0  0  0  0  0  0
   39.0500   35.0820   40.3120 H   0  0  0  0  0  0  0  0  0  0  0  0
   37.4810   33.8030   39.5430 C   0  0  0  0  0  0  0  0  0  0  0  0
   37.0290   34.6170   38.9820 H   0  0  0  0  0  0  0  0  0  0  0  0
   36.9570   32.5200   39.5320 C   0  0  0  0  0  3  0  0  0  0  0  0
   37.1380   27.5710   42.9090 C   0  0  0  0  0  0  0  0  0  0  0  0
   37.7690   26.3680   42.8130 F   0  0  0  0  0  0  0  0  0  0  0  0
   35.9420   27.4080   43.6260 F   0  0  0  0  0  0  0  0  0  0  0  0
   37.8720   28.4700   43.6700 F   0  0  0  0  0  0  0  0  0  0  0  0
  1  6  1  0  0  0  0
  2  1  2  0  0  0  0
  2  3  1  0  0  0  0
  3  4  2  0  0  0  0
  4  5  1  0  0  0  0
  5 18  1  0  0  0  0
  6  5  2  0  0  0  0
  7  1  1  0  0  0  0
  8  2  1  0  0  0  0
  9  3  1  0  0  0  0
  9 10  1  0  0  0  0
 10 12  2  0  0  0  0
 10 11  1  0  0  0  0
 13 14  1  0  0  0  0
 13 12  1  0  0  0  0
 15 13  2  0  0  0  0
 16 15  1  0  0  0  0
 17 15  1  0  0  0  0
 17  9  2  0  0  0  0
 18 20  1  0  0  0  0
 18 21  1  0  0  0  0
 19 18  1  0  0  0  0
M  END
>  <minimizedAffinity>
-4.89152956

$$$$

 OpenBabel03252500003D

 21 22  0  0  0  0  0  0  0  0999 V2000
   40.2960   28.7460   42.8870 C   0  0  0  0  0  0  0  0  0  0  0  0
   40.0720   29.9830   42.2320 C   0  0  0  0  0  0  0  0  0  0  0  0
   38.8010   30.2180   41.7310 C   0  0  0  0  0  0  0  0  0  0  0  0
   37.8490   29.2750   41.8870 N   0  0  0  0  0  0  0  0  0  0  0  0
   38.0970   28.1010   42.5190 C   0  0  0  0  0  0  0  0  0  0  0  0
   39.3180   27.8530   43.0110 N   0  0  0  0  0  0  0  0  0  0  0  0
   41.2730   28.5220   43.2930 H   0  0  0  0  0  0  0  0  0  0  0  0
   40.8420   30.7120   42.1230 H   0  0  0  0  0  0  0  0  0  0  0  0
   38.4340   31.4470   41.0370 C   0  0  0  0  0  0  0  0  0  0  0  0
   39.2640   32.5390   41.1860 C   0  0  0  0  0  0  0  0  0  0  0  0
   40.1780   32.5190   41.7980 H   0  0  0  0  0  0  0  0  0  0  0  0
   39.0070   33.7620   40.5650 C   0  0  0  0  0  3  0  0  0  0  0  0
   37.8670   33.8550   39.7760 C   0  0  0  0  0  0  0  0  0  0  0  0
   37.6910   34.8190   39.3050 H   0  0  0  0  0  0  0  0  0  0  0  0
   37.0360   32.7800   39.6200 C   0  0  0  0  0  0  0  0  0  0  0  0
   36.1600   32.9150   38.9900 H   0  0  0  0  0  0  0  0  0  0  0  0
   37.3130   31.5750   40.2470 C   0  0  0  0  0  3  0  0  0  0  0  0
   36.9200   27.1940   42.5870 C   0  0  0  0  0  0  0  0  0  0  0  0
   37.2810   25.8810   42.6150 F   0  0  0  0  0  0  0  0  0  0  0  0
   36.0870   27.4190   41.4790 F   0  0  0  0  0  0  0  0  0  0  0  0
   36.1320   27.5270   43.6790 F   0  0  0  0  0  0  0  0  0  0  0  0
  1  6  1  0  0  0  0
  1  7  1  0  0  0  0
  2  1  2  0  0  0  0
  3  4  2  0  0  0  0
  3  2  1  0  0  0  0
  4  5  1  0  0  0  0
  5 18  1  0  0  0  0
  5  6  2  0  0  0  0
  8  2  1  0  0  0  0
  9 10  1  0  0  0  0
  9  3  1  0  0  0  0
 10 11  1  0  0  0  0
 12 10  2  0  0  0  0
 13 12  1  0  0  0  0
 14 13  1  0  0  0  0
 15 13  2  0  0  0  0
 15 17  1  0  0  0  0
 16 15  1  0  0  0  0
 17  9  2  0  0  0  0
 18 19  1  0  0  0  0
 18 21  1  0  0  0  0
 20 18  1  0  0  0  0
M  END
>  <minimizedAffinity>
-4.85422277

$$$$

 OpenBabel03252500003D

 21 22  0  0  0  0  0  0  0  0999 V2000
   38.0800   28.4310   43.2770 C   0  0  0  0  0  0  0  0  0  0  0  0
   38.0500   27.0940   42.8070 C   0  0  0  0  0  0  0  0  0  0  0  0
   37.3480   26.8470   41.6380 C   0  0  0  0  0  0  0  0  0  0  0  0
   36.7340   27.8710   41.0100 N   0  0  0  0  0  0  0  0  0  0  0  0
   36.7830   29.1400   41.4880 C   0  0  0  0  0  0  0  0  0  0  0  0
   37.4560   29.4010   42.6160 N   0  0  0  0  0  0  0  0  0  0  0  0
   38.6170   28.6690   44.1850 H   0  0  0  0  0  0  0  0  0  0  0  0
   38.5440   26.3020   43.3220 H   0  0  0  0  0  0  0  0  0  0  0  0
   37.2360   25.5200   41.0430 C   0  0  0  0  0  0  0  0  0  0  0  0
   36.5360   25.4050   39.8590 C   0  0  0  0  0  0  0  0  0  0  0  0
   36.0660   26.2620   39.3550 H   0  0  0  0  0  0  0  0  0  0  0  0
   36.3700   24.1830   39.2060 C   0  0  0  0  0  3  0  0  0  0  0  0
   36.9390   23.0580   39.7910 C   0  0  0  0  0  0  0  0  0  0  0  0
   36.7940   22.1200   39.2610 H   0  0  0  0  0  0  0  0  0  0  0  0
   37.6350   23.1590   40.9640 C   0  0  0  0  0  0  0  0  0  0  0  0
   38.0580   22.2440   41.3720 H   0  0  0  0  0  0  0  0  0  0  0  0
   37.7870   24.3840   41.5940 C   0  0  0  0  0  3  0  0  0  0  0  0
   36.0430   30.1250   40.6550 C   0  0  0  0  0  0  0  0  0  0  0  0
   34.8200   29.6630   40.2730 F   0  0  0  0  0  0  0  0  0  0  0  0
   36.7950   30.4360   39.5120 F   0  0  0  0  0  0  0  0  0  0  0  0
   35.9400   31.3310   41.3340 F   0  0  0  0  0  0  0  0  0  0  0  0
  1  7  1  0  0  0  0
  2  1  1  0  0  0  0
  2  8  1  0  0  0  0
  3  2  2  0  0  0  0
  4  5  2  0  0  0  0
  4  3  1  0  0  0  0
  5  6  1  0  0  0  0
  6  1  2  0  0  0  0
  9 17  1  0  0  0  0
  9  3  1  0  0  0  0
 10  9  2  0  0  0  0
 11 10  1  0  0  0  0
 12 13  2  0  0  0  0
 12 10  1  0  0  0  0
 13 15  1  0  0  0  0
 14 13  1  0  0  0  0
 15 16  1  0  0  0  0
 15 17  2  0  0  0  0
 18 21  1  0  0  0  0
 18  5  1  0  0  0  0
 19 18  1  0  0  0  0
 20 18  1  0  0  0  0
M  END
>  <minimizedAffinity>
-4.72665977

$$$$

 OpenBabel03252500003D

 21 22  0  0  0  0  0  0  0  0999 V2000
   39.9090   26.9450   43.6210 C   0  0  0  0  0  0  0  0  0  0  0  0
   39.5880   28.2340   43.1270 C   0  0  0  0  0  0  0  0  0  0  0  0
   38.5510   28.3250   42.2110 C   0  0  0  0  0  0  0  0  0  0  0  0
   37.9050   27.2020   41.8360 N   0  0  0  0  0  0  0  0  0  0  0  0
   38.2380   25.9820   42.3290 C   0  0  0  0  0  0  0  0  0  0  0  0
   39.2360   25.8710   43.2150 N   0  0  0  0  0  0  0  0  0  0  0  0
   40.7100   26.8280   44.3380 H   0  0  0  0  0  0  0  0  0  0  0  0
   40.1140   29.1060   43.4400 H   0  0  0  0  0  0  0  0  0  0  0  0
   38.1170   29.5870   41.6240 C   0  0  0  0  0  0  0  0  0  0  0  0
   36.7770   29.7300   41.3300 C   0  0  0  0  0  0  0  0  0  0  0  0
   36.0340   28.9400   41.5190 H   0  0  0  0  0  0  0  0  0  0  0  0
   36.2560   30.8950   40.7680 C   0  0  0  0  0  3  0  0  0  0  0  0
   37.1410   31.9340   40.5040 C   0  0  0  0  0  0  0  0  0  0  0  0
   36.7080   32.8300   40.0660 H   0  0  0  0  0  0  0  0  0  0  0  0
   38.4720   31.8050   40.7910 C   0  0  0  0  0  0  0  0  0  0  0  0
   39.1140   32.6520   40.5610 H   0  0  0  0  0  0  0  0  0  0  0  0
   38.9660   30.6370   41.3490 C   0  0  0  0  0  3  0  0  0  0  0  0
   37.4100   24.8700   41.7910 C   0  0  0  0  0  0  0  0  0  0  0  0
   36.9600   25.1230   40.5310 F   0  0  0  0  0  0  0  0  0  0  0  0
   36.3120   24.6480   42.6370 F   0  0  0  0  0  0  0  0  0  0  0  0
   38.1270   23.6830   41.8450 F   0  0  0  0  0  0  0  0  0  0  0  0
  1  7  1  0  0  0  0
  2  8  1  0  0  0  0
  2  1  2  0  0  0  0
  3  2  1  0  0  0  0
  4  3  2  0  0  0  0
  4  5  1  0  0  0  0
  5  6  2  0  0  0  0
  6  1  1  0  0  0  0
  9  3  1  0  0  0  0
 10 11  1  0  0  0  0
 10  9  2  0  0  0  0
 12 10  1  0  0  0  0
 13 12  2  0  0  0  0
 13 15  1  0  0  0  0
 14 13  1  0  0  0  0
 15 17  2  0  0  0  0
 16 15  1  0  0  0  0
 17  9  1  0  0  0  0
 18 21  1  0  0  0  0
 18  5  1  0  0  0  0
 18 20  1  0  0  0  0
 19 18  1  0  0  0  0
M  END
>  <minimizedAffinity>
-4.68952751

$$$$

 OpenBabel03252500003D

 21 22  0  0  0  0  0  0  0  0999 V2000
   36.7280   26.2760   38.7480 C   0  0  0  0  0  0  0  0  0  0  0  0
   36.8220   27.6670   38.4950 C   0  0  0  0  0  0  0  0  0  0  0  0
   36.9760   28.5040   39.5890 C   0  0  0  0  0  0  0  0  0  0  0  0
   37.0300   27.9680   40.8250 N   0  0  0  0  0  0  0  0  0  0  0  0
   36.9370   26.6300   41.0330 C   0  0  0  0  0  0  0  0  0  0  0  0
   36.7870   25.8030   39.9900 N   0  0  0  0  0  0  0  0  0  0  0  0
   36.6080   25.5860   37.9230 H   0  0  0  0  0  0  0  0  0  0  0  0
   36.7780   28.0670   37.5070 H   0  0  0  0  0  0  0  0  0  0  0  0
   37.0860   29.9540   39.4720 C   0  0  0  0  0  0  0  0  0  0  0  0
   37.3120   30.4800   38.2160 C   0  0  0  0  0  0  0  0  0  0  0  0
   37.4100   29.8580   37.3140 H   0  0  0  0  0  0  0  0  0  0  0  0
   37.4320   31.8520   37.9930 C   0  0  0  0  0  3  0  0  0  0  0  0
   37.3180   32.6950   39.0920 C   0  0  0  0  0  0  0  0  0  0  0  0
   37.4160   33.7590   38.8880 H   0  0  0  0  0  0  0  0  0  0  0  0
   37.0940   32.1860   40.3410 C   0  0  0  0  0  0  0  0  0  0  0  0
   37.0140   32.8970   41.1600 H   0  0  0  0  0  0  0  0  0  0  0  0
   36.9780   30.8200   40.5380 C   0  0  0  0  0  3  0  0  0  0  0  0
   37.0150   26.2360   42.4650 C   0  0  0  0  0  0  0  0  0  0  0  0
   36.5420   24.9770   42.6800 F   0  0  0  0  0  0  0  0  0  0  0  0
   36.2800   27.1440   43.2440 F   0  0  0  0  0  0  0  0  0  0  0  0
   38.3190   26.3740   42.9190 F   0  0  0  0  0  0  0  0  0  0  0  0
  1  6  1  0  0  0  0
  2  1  2  0  0  0  0
  2  3  1  0  0  0  0
  3  4  2  0  0  0  0
  4  5  1  0  0  0  0
  5 18  1  0  0  0  0
  6  5  2  0  0  0  0
  7  1  1  0  0  0  0
  8  2  1  0  0  0  0
  9  3  1  0  0  0  0
  9 17  1  0  0  0  0
 10  9  2  0  0  0  0
 11 10  1  0  0  0  0
 12 10  1  0  0  0  0
 12 13  2  0  0  0  0
 13 15  1  0  0  0  0
 14 13  1  0  0  0  0
 15 17  2  0  0  0  0
 15 16  1  0  0  0  0
 18 19  1  0  0  0  0
 18 21  1  0  0  0  0
 18 20  1  0  0  0  0
M  END
>  <minimizedAffinity>
-4.63765955

$$$$

 OpenBabel03252500003D

 21 22  0  0  0  0  0  0  0  0999 V2000
   37.4370   31.0470   38.1590 C   0  0  0  0  0  0  0  0  0  0  0  0
   37.1710   30.0060   39.0840 C   0  0  0  0  0  0  0  0  0  0  0  0
   37.6970   30.1380   40.3590 C   0  0  0  0  0  0  0  0  0  0  0  0
   38.4260   31.2320   40.6600 N   0  0  0  0  0  0  0  0  0  0  0  0
   38.6630   32.2100   39.7500 C   0  0  0  0  0  0  0  0  0  0  0  0
   38.1640   32.1030   38.5120 N   0  0  0  0  0  0  0  0  0  0  0  0
   37.0450   30.9850   37.1530 H   0  0  0  0  0  0  0  0  0  0  0  0
   36.5900   29.1510   38.8210 H   0  0  0  0  0  0  0  0  0  0  0  0
   37.5000   29.1430   41.4070 C   0  0  0  0  0  0  0  0  0  0  0  0
   37.0530   27.8940   41.0290 C   0  0  0  0  0  0  0  0  0  0  0  0
   36.8420   27.6230   39.9840 H   0  0  0  0  0  0  0  0  0  0  0  0
   36.8320   26.8690   41.9500 C   0  0  0  0  0  3  0  0  0  0  0  0
   37.0780   27.1450   43.2900 C   0  0  0  0  0  0  0  0  0  0  0  0
   36.8980   26.3290   43.9860 H   0  0  0  0  0  0  0  0  0  0  0  0
   37.5220   28.3790   43.6780 C   0  0  0  0  0  0  0  0  0  0  0  0
   37.6970   28.5340   44.7400 H   0  0  0  0  0  0  0  0  0  0  0  0
   37.7340   29.3810   42.7440 C   0  0  0  0  0  3  0  0  0  0  0  0
   39.4890   33.3310   40.2730 C   0  0  0  0  0  0  0  0  0  0  0  0
   40.0810   34.0450   39.2760 F   0  0  0  0  0  0  0  0  0  0  0  0
   40.4810   32.8270   41.1290 F   0  0  0  0  0  0  0  0  0  0  0  0
   38.7150   34.1440   41.0890 F   0  0  0  0  0  0  0  0  0  0  0  0
  1  6  2  0  0  0  0
  1  2  1  0  0  0  0
  2  3  2  0  0  0  0
  3  4  1  0  0  0  0
  3  9  1  0  0  0  0
  5 18  1  0  0  0  0
  5  4  2  0  0  0  0
  6  5  1  0  0  0  0
  7  1  1  0  0  0  0
  8  2  1  0  0  0  0
  9 17  1  0  0  0  0
 10  9  2  0  0  0  0
 10 12  1  0  0  0  0
 11 10  1  0  0  0  0
 12 13  2  0  0  0  0
 13 15  1  0  0  0  0
 13 14  1  0  0  0  0
 15 16  1  0  0  0  0
 17 15  2  0  0  0  0
 18 21  1  0  0  0  0
 18 20  1  0  0  0  0
 19 18  1  0  0  0  0
M  END
>  <minimizedAffinity>
-4.62867117

$$$$

 OpenBabel03252500003D

 21 22  0  0  0  0  0  0  0  0999 V2000
   37.0120   26.1450   38.7470 C   0  0  0  0  0  0  0  0  0  0  0  0
   37.0620   27.5290   38.4490 C   0  0  0  0  0  0  0  0  0  0  0  0
   37.1180   28.4090   39.5180 C   0  0  0  0  0  0  0  0  0  0  0  0
   37.1230   27.9180   40.7740 N   0  0  0  0  0  0  0  0  0  0  0  0
   37.0740   26.5850   41.0250 C   0  0  0  0  0  0  0  0  0  0  0  0
   37.0190   25.7170   40.0060 N   0  0  0  0  0  0  0  0  0  0  0  0
   36.9680   25.4230   37.9420 H   0  0  0  0  0  0  0  0  0  0  0  0
   37.0580   27.8930   37.4460 H   0  0  0  0  0  0  0  0  0  0  0  0
   37.1740   29.8580   39.3550 C   0  0  0  0  0  0  0  0  0  0  0  0
   36.9940   30.6370   40.4790 C   0  0  0  0  0  0  0  0  0  0  0  0
   36.8110   30.2150   41.4790 H   0  0  0  0  0  0  0  0  0  0  0  0
   37.0280   32.0310   40.4340 C   0  0  0  0  0  3  0  0  0  0  0  0
   37.2540   32.6290   39.2000 C   0  0  0  0  0  0  0  0  0  0  0  0
   37.2760   33.7160   39.1950 H   0  0  0  0  0  0  0  0  0  0  0  0
   37.4350   31.8690   38.0790 C   0  0  0  0  0  0  0  0  0  0  0  0
   37.6080   32.3950   37.1430 H   0  0  0  0  0  0  0  0  0  0  0  0
   37.3960   30.4850   38.1480 C   0  0  0  0  0  3  0  0  0  0  0  0
   37.0870   26.2440   42.4720 C   0  0  0  0  0  0  0  0  0  0  0  0
   38.3490   26.2000   42.9810 F   0  0  0  0  0  0  0  0  0  0  0  0
   36.4670   25.0000   42.6690 F   0  0  0  0  0  0  0  0  0  0  0  0
   36.2880   27.1380   43.1720 F   0  0  0  0  0  0  0  0  0  0  0  0
  1  6  1  0  0  0  0
  2  1  2  0  0  0  0
  2  3  1  0  0  0  0
  3  4  2  0  0  0  0
  4  5  1  0  0  0  0
  5 18  1  0  0  0  0
  6  5  2  0  0  0  0
  7  1  1  0  0  0  0
  8  2  1  0  0  0  0
  9  3  1  0  0  0  0
  9 10  1  0  0  0  0
 10 11  1  0  0  0  0
 12 10  2  0  0  0  0
 13 12  1  0  0  0  0
 14 13  1  0  0  0  0
 15 17  1  0  0  0  0
 15 13  2  0  0  0  0
 16 15  1  0  0  0  0
 17  9  2  0  0  0  0
 18 20  1  0  0  0  0
 18 19  1  0  0  0  0
 18 21  1  0  0  0  0
M  END
>  <minimizedAffinity>
-4.58242655

$$$$

 OpenBabel03252500003D

 21 22  0  0  0  0  0  0  0  0999 V2000
   36.2320   29.2510   37.2470 C   0  0  0  0  0  0  0  0  0  0  0  0
   36.2960   28.0770   38.0380 C   0  0  0  0  0  0  0  0  0  0  0  0
   36.6690   28.2230   39.3640 C   0  0  0  0  0  0  0  0  0  0  0  0
   36.9500   29.4550   39.8370 N   0  0  0  0  0  0  0  0  0  0  0  0
   36.8790   30.5590   39.0510 C   0  0  0  0  0  0  0  0  0  0  0  0
   36.5200   30.4410   37.7660 N   0  0  0  0  0  0  0  0  0  0  0  0
   35.9440   29.1830   36.2060 H   0  0  0  0  0  0  0  0  0  0  0  0
   36.0680   27.1140   37.6410 H   0  0  0  0  0  0  0  0  0  0  0  0
   36.7750   27.1010   40.2890 C   0  0  0  0  0  0  0  0  0  0  0  0
   36.8910   27.3870   41.6340 C   0  0  0  0  0  0  0  0  0  0  0  0
   36.9070   28.4140   42.0300 H   0  0  0  0  0  0  0  0  0  0  0  0
   36.9980   26.3890   42.6030 C   0  0  0  0  0  3  0  0  0  0  0  0
   36.9840   25.0680   42.1710 C   0  0  0  0  0  0  0  0  0  0  0  0
   37.0690   24.3120   42.9470 H   0  0  0  0  0  0  0  0  0  0  0  0
   36.8690   24.7710   40.8410 C   0  0  0  0  0  0  0  0  0  0  0  0
   36.8650   23.7190   40.5650 H   0  0  0  0  0  0  0  0  0  0  0  0
   36.7640   25.7800   39.8970 C   0  0  0  0  0  3  0  0  0  0  0  0
   37.2280   31.8220   39.7550 C   0  0  0  0  0  0  0  0  0  0  0  0
   36.8340   32.9260   39.0610 F   0  0  0  0  0  0  0  0  0  0  0  0
   38.6150   31.8790   39.9620 F   0  0  0  0  0  0  0  0  0  0  0  0
   36.6920   31.8090   41.0350 F   0  0  0  0  0  0  0  0  0  0  0  0
  1  6  2  0  0  0  0
  1  2  1  0  0  0  0
  2  3  2  0  0  0  0
  3  4  1  0  0  0  0
  3  9  1  0  0  0  0
  5 18  1  0  0  0  0
  5  4  2  0  0  0  0
  6  5  1  0  0  0  0
  7  1  1  0  0  0  0
  8  2  1  0  0  0  0
  9 10  1  0  0  0  0
 10 11  1  0  0  0  0
 10 12  2  0  0  0  0
 13 12  1  0  0  0  0
 13 14  1  0  0  0  0
 15 13  2  0  0  0  0
 16 15  1  0  0  0  0
 17  9  2  0  0  0  0
 17 15  1  0  0  0  0
 18 20  1  0  0  0  0
 18 21  1  0  0  0  0
 19 18  1  0  0  0  0
M  END
>  <minimizedAffinity>
-4.48993826

$$$$
