
 OpenBabel03242510363D

 21 22  0  0  0  0  0  0  0  0999 V2000
   36.5370   27.9620   39.3610 C   0  0  0  0  0  0  0  0  0  0  0  0
   36.5740   27.2320   40.5810 C   0  0  0  0  0  0  0  0  0  0  0  0
   37.0140   27.9230   41.7080 C   0  0  0  0  0  0  0  0  0  0  0  0
   37.3800   29.2380   41.6000 N   0  0  0  0  0  0  0  0  0  0  0  0
   37.3220   29.8800   40.4050 C   0  0  0  0  0  0  0  0  0  0  0  0
   36.9070   29.2540   39.2990 N   0  0  0  0  0  0  0  0  0  0  0  0
   36.1930   27.4070   38.4980 H   0  0  0  0  0  0  0  0  0  0  0  0
   36.2710   26.2010   40.5940 H   0  0  0  0  0  0  0  0  0  0  0  0
   37.7250   31.2800   40.3460 C   0  0  0  0  0  0  0  0  0  0  0  0
   36.9880   32.1830   39.6100 C   0  0  0  0  0  0  0  0  0  0  0  0
   36.1080   31.7880   39.0910 H   0  0  0  0  0  0  0  0  0  0  0  0
   37.3430   33.5220   39.5330 C   0  0  0  0  0  3  0  0  0  0  0  0
   38.4670   33.9630   40.2130 C   0  0  0  0  0  0  0  0  0  0  0  0
   38.7670   34.9970   40.1710 H   0  0  0  0  0  0  0  0  0  0  0  0
   39.1590   33.0340   40.9230 C   0  0  0  0  0  0  0  0  0  0  0  0
   40.0380   33.3790   41.4540 H   0  0  0  0  0  0  0  0  0  0  0  0
   38.8640   31.6840   41.0450 C   0  0  0  0  0  3  0  0  0  0  0  0
   37.0380   27.1340   42.9480 C   0  0  0  0  0  0  0  0  0  0  0  0
   36.9500   25.7830   42.6230 F   0  0  0  0  0  0  0  0  0  0  0  0
   35.8870   27.4280   43.6400 F   0  0  0  0  0  0  0  0  0  0  0  0
   38.1760   27.3150   43.6800 F   0  0  0  0  0  0  0  0  0  0  0  0
  1  2  1  0  0  0  0
  2  8  1  0  0  0  0
  2  3  2  0  0  0  0
  3 18  1  0  0  0  0
  4  3  1  0  0  0  0
  5  4  2  0  0  0  0
  6  1  2  0  0  0  0
  6  5  1  0  0  0  0
  7  1  1  0  0  0  0
  9  5  1  0  0  0  0
  9 17  1  0  0  0  0
 10  9  2  0  0  0  0
 11 10  1  0  0  0  0
 12 10  1  0  0  0  0
 12 13  2  0  0  0  0
 13 15  1  0  0  0  0
 14 13  1  0  0  0  0
 15 17  2  0  0  0  0
 15 16  1  0  0  0  0
 18 20  1  0  0  0  0
 18 21  1  0  0  0  0
 19 18  1  0  0  0  0
M  END
>  <minimizedAffinity>
-5.07608891

$$$$

 OpenBabel03242510363D

 21 22  0  0  0  0  0  0  0  0999 V2000
   36.6830   27.7390   39.3220 C   0  0  0  0  0  0  0  0  0  0  0  0
   36.6900   27.0500   40.5660 C   0  0  0  0  0  0  0  0  0  0  0  0
   37.0300   27.7980   41.6910 C   0  0  0  0  0  0  0  0  0  0  0  0
   37.3350   29.1260   41.5580 N   0  0  0  0  0  0  0  0  0  0  0  0
   37.3110   29.7280   40.3410 C   0  0  0  0  0  0  0  0  0  0  0  0
   36.9910   29.0470   39.2370 N   0  0  0  0  0  0  0  0  0  0  0  0
   36.4160   27.1400   38.4610 H   0  0  0  0  0  0  0  0  0  0  0  0
   36.4390   26.0050   40.5980 H   0  0  0  0  0  0  0  0  0  0  0  0
   37.6450   31.1440   40.2570 C   0  0  0  0  0  0  0  0  0  0  0  0
   38.6700   31.6620   41.0180 C   0  0  0  0  0  0  0  0  0  0  0  0
   39.1990   30.9570   41.6690 H   0  0  0  0  0  0  0  0  0  0  0  0
   39.0140   33.0050   40.9620 C   0  0  0  0  0  3  0  0  0  0  0  0
   38.3070   33.8470   40.1190 C   0  0  0  0  0  0  0  0  0  0  0  0
   38.5520   34.8950   40.0540 H   0  0  0  0  0  0  0  0  0  0  0  0
   37.3060   33.2890   39.3900 C   0  0  0  0  0  0  0  0  0  0  0  0
   36.7540   33.9480   38.7310 H   0  0  0  0  0  0  0  0  0  0  0  0
   36.9080   31.9590   39.3940 C   0  0  0  0  0  3  0  0  0  0  0  0
   37.0260   27.0510   42.9570 C   0  0  0  0  0  0  0  0  0  0  0  0
   36.8800   25.6950   42.6770 F   0  0  0  0  0  0  0  0  0  0  0  0
   35.8910   27.4150   43.6410 F   0  0  0  0  0  0  0  0  0  0  0  0
   38.1730   27.2070   43.6800 F   0  0  0  0  0  0  0  0  0  0  0  0
  1  2  1  0  0  0  0
  2  8  1  0  0  0  0
  2  3  2  0  0  0  0
  3 18  1  0  0  0  0
  4  3  1  0  0  0  0
  5  4  2  0  0  0  0
  6  1  2  0  0  0  0
  6  5  1  0  0  0  0
  7  1  1  0  0  0  0
  9  5  1  0  0  0  0
  9 10  1  0  0  0  0
 10 11  1  0  0  0  0
 12 10  2  0  0  0  0
 13 12  1  0  0  0  0
 14 13  1  0  0  0  0
 15 17  1  0  0  0  0
 15 13  2  0  0  0  0
 16 15  1  0  0  0  0
 17  9  2  0  0  0  0
 18 20  1  0  0  0  0
 18 21  1  0  0  0  0
 19 18  1  0  0  0  0
M  END
>  <minimizedAffinity>
-5.05751038

$$$$

 OpenBabel03242510363D

 21 22  0  0  0  0  0  0  0  0999 V2000
   37.3850   28.4560   43.5440 C   0  0  0  0  0  0  0  0  0  0  0  0
   37.2850   27.0830   43.1860 C   0  0  0  0  0  0  0  0  0  0  0  0
   37.1890   26.7990   41.8250 C   0  0  0  0  0  0  0  0  0  0  0  0
   37.1940   27.8220   40.9150 N   0  0  0  0  0  0  0  0  0  0  0  0
   37.2920   29.1140   41.3200 C   0  0  0  0  0  0  0  0  0  0  0  0
   37.3860   29.4300   42.6150 N   0  0  0  0  0  0  0  0  0  0  0  0
   37.4590   28.6540   44.6050 H   0  0  0  0  0  0  0  0  0  0  0  0
   37.2870   26.3310   43.9530 H   0  0  0  0  0  0  0  0  0  0  0  0
   37.2930   30.1640   40.3090 C   0  0  0  0  0  0  0  0  0  0  0  0
   37.2720   31.4890   40.6850 C   0  0  0  0  0  0  0  0  0  0  0  0
   37.2570   31.6920   41.7620 H   0  0  0  0  0  0  0  0  0  0  0  0
   37.2720   32.5140   39.7490 C   0  0  0  0  0  3  0  0  0  0  0  0
   37.2930   32.1940   38.4000 C   0  0  0  0  0  0  0  0  0  0  0  0
   37.2940   32.9690   37.6500 H   0  0  0  0  0  0  0  0  0  0  0  0
   37.3120   30.8740   38.0810 C   0  0  0  0  0  0  0  0  0  0  0  0
   37.3280   30.6250   37.0260 H   0  0  0  0  0  0  0  0  0  0  0  0
   37.3140   29.8000   38.9600 C   0  0  0  0  0  3  0  0  0  0  0  0
   37.0870   25.3700   41.4960 C   0  0  0  0  0  0  0  0  0  0  0  0
   36.4620   24.7100   42.5500 F   0  0  0  0  0  0  0  0  0  0  0  0
   38.3670   24.8720   41.4480 F   0  0  0  0  0  0  0  0  0  0  0  0
   36.3640   25.1280   40.3640 F   0  0  0  0  0  0  0  0  0  0  0  0
  1  7  1  0  0  0  0
  2  1  1  0  0  0  0
  2  8  1  0  0  0  0
  3  2  2  0  0  0  0
  4  5  2  0  0  0  0
  4  3  1  0  0  0  0
  5  6  1  0  0  0  0
  6  1  2  0  0  0  0
  9 10  1  0  0  0  0
  9  5  1  0  0  0  0
 10 11  1  0  0  0  0
 12 10  2  0  0  0  0
 13 12  1  0  0  0  0
 14 13  1  0  0  0  0
 15 13  2  0  0  0  0
 15 17  1  0  0  0  0
 16 15  1  0  0  0  0
 17  9  2  0  0  0  0
 18  3  1  0  0  0  0
 18 19  1  0  0  0  0
 20 18  1  0  0  0  0
 21 18  1  0  0  0  0
M  END
>  <minimizedAffinity>
-4.94197035

$$$$

 OpenBabel03242510363D

 21 22  0  0  0  0  0  0  0  0999 V2000
   40.2680   28.7030   42.8670 C   0  0  0  0  0  0  0  0  0  0  0  0
   39.3240   27.6420   42.9500 C   0  0  0  0  0  0  0  0  0  0  0  0
   38.0800   27.8680   42.3630 C   0  0  0  0  0  0  0  0  0  0  0  0
   37.8250   29.0640   41.7480 N   0  0  0  0  0  0  0  0  0  0  0  0
   38.7690   30.0390   41.7030 C   0  0  0  0  0  0  0  0  0  0  0  0
   39.9750   29.8640   42.2530 N   0  0  0  0  0  0  0  0  0  0  0  0
   41.2270   28.5070   43.3290 H   0  0  0  0  0  0  0  0  0  0  0  0
   39.5920   26.7280   43.4480 H   0  0  0  0  0  0  0  0  0  0  0  0
   38.4450   31.2930   41.0360 C   0  0  0  0  0  0  0  0  0  0  0  0
   37.3470   31.3740   40.2070 C   0  0  0  0  0  0  0  0  0  0  0  0
   36.7540   30.4600   40.0900 H   0  0  0  0  0  0  0  0  0  0  0  0
   37.0080   32.5530   39.5570 C   0  0  0  0  0  3  0  0  0  0  0  0
   37.7970   33.6770   39.7460 C   0  0  0  0  0  0  0  0  0  0  0  0
   37.5590   34.6060   39.2530 H   0  0  0  0  0  0  0  0  0  0  0  0
   38.8670   33.5450   40.5710 C   0  0  0  0  0  0  0  0  0  0  0  0
   39.4840   34.4250   40.7170 H   0  0  0  0  0  0  0  0  0  0  0  0
   39.2640   32.4030   41.2520 C   0  0  0  0  0  3  0  0  0  0  0  0
   37.1330   26.7490   42.4700 C   0  0  0  0  0  0  0  0  0  0  0  0
   37.8440   25.5820   42.7370 F   0  0  0  0  0  0  0  0  0  0  0  0
   36.5740   26.5690   41.2270 F   0  0  0  0  0  0  0  0  0  0  0  0
   36.2130   26.9150   43.4640 F   0  0  0  0  0  0  0  0  0  0  0  0
  1  2  1  0  0  0  0
  1  7  1  0  0  0  0
  2  8  1  0  0  0  0
  3 18  1  0  0  0  0
  3  2  2  0  0  0  0
  4  3  1  0  0  0  0
  5  4  2  0  0  0  0
  5  6  1  0  0  0  0
  6  1  2  0  0  0  0
  9 17  1  0  0  0  0
  9  5  1  0  0  0  0
 10  9  2  0  0  0  0
 11 10  1  0  0  0  0
 12 13  2  0  0  0  0
 12 10  1  0  0  0  0
 13 15  1  0  0  0  0
 14 13  1  0  0  0  0
 15 16  1  0  0  0  0
 15 17  2  0  0  0  0
 18 19  1  0  0  0  0
 18 21  1  0  0  0  0
 20 18  1  0  0  0  0
M  END
>  <minimizedAffinity>
-4.80764818

$$$$

 OpenBabel03242510363D

 21 22  0  0  0  0  0  0  0  0999 V2000
   36.8990   26.3750   38.8650 C   0  0  0  0  0  0  0  0  0  0  0  0
   36.9460   25.8290   40.1770 C   0  0  0  0  0  0  0  0  0  0  0  0
   37.0650   26.7390   41.2270 C   0  0  0  0  0  0  0  0  0  0  0  0
   37.1310   28.0800   40.9600 N   0  0  0  0  0  0  0  0  0  0  0  0
   37.0810   28.5390   39.6840 C   0  0  0  0  0  0  0  0  0  0  0  0
   36.9670   27.7020   38.6480 N   0  0  0  0  0  0  0  0  0  0  0  0
   36.8060   25.6520   38.0650 H   0  0  0  0  0  0  0  0  0  0  0  0
   36.8880   24.7650   40.3140 H   0  0  0  0  0  0  0  0  0  0  0  0
   37.1550   29.9770   39.4570 C   0  0  0  0  0  0  0  0  0  0  0  0
   37.4560   30.4670   38.2050 C   0  0  0  0  0  0  0  0  0  0  0  0
   37.6280   29.7250   37.4180 H   0  0  0  0  0  0  0  0  0  0  0  0
   37.5340   31.8300   37.9540 C   0  0  0  0  0  3  0  0  0  0  0  0
   37.3050   32.7210   38.9900 C   0  0  0  0  0  0  0  0  0  0  0  0
   37.3590   33.7850   38.8250 H   0  0  0  0  0  0  0  0  0  0  0  0
   37.0130   32.1880   40.2050 C   0  0  0  0  0  0  0  0  0  0  0  0
   36.8340   32.8850   41.0160 H   0  0  0  0  0  0  0  0  0  0  0  0
   36.9180   30.8420   40.5280 C   0  0  0  0  0  3  0  0  0  0  0  0
   37.1100   26.1360   42.5670 C   0  0  0  0  0  0  0  0  0  0  0  0
   36.4840   24.8930   42.5210 F   0  0  0  0  0  0  0  0  0  0  0  0
   36.3340   26.9160   43.3900 F   0  0  0  0  0  0  0  0  0  0  0  0
   38.3800   25.9470   43.0300 F   0  0  0  0  0  0  0  0  0  0  0  0
  1  2  1  0  0  0  0
  2  8  1  0  0  0  0
  2  3  2  0  0  0  0
  3 18  1  0  0  0  0
  4  3  1  0  0  0  0
  5  4  2  0  0  0  0
  6  1  2  0  0  0  0
  6  5  1  0  0  0  0
  7  1  1  0  0  0  0
  9  5  1  0  0  0  0
  9 17  1  0  0  0  0
 10  9  2  0  0  0  0
 11 10  1  0  0  0  0
 12 10  1  0  0  0  0
 12 13  2  0  0  0  0
 13 15  1  0  0  0  0
 14 13  1  0  0  0  0
 15 17  2  0  0  0  0
 15 16  1  0  0  0  0
 18 21  1  0  0  0  0
 18 20  1  0  0  0  0
 19 18  1  0  0  0  0
M  END
>  <minimizedAffinity>
-4.75070477

$$$$

 OpenBabel03242510363D

 21 22  0  0  0  0  0  0  0  0999 V2000
   36.5920   30.2830   38.6750 C   0  0  0  0  0  0  0  0  0  0  0  0
   37.0050   31.6420   38.7540 C   0  0  0  0  0  0  0  0  0  0  0  0
   37.7650   31.9980   39.8670 C   0  0  0  0  0  0  0  0  0  0  0  0
   38.0730   31.0550   40.8110 N   0  0  0  0  0  0  0  0  0  0  0  0
   37.6480   29.7730   40.6780 C   0  0  0  0  0  0  0  0  0  0  0  0
   36.9170   29.3890   39.6270 N   0  0  0  0  0  0  0  0  0  0  0  0
   36.0040   30.0270   37.8030 H   0  0  0  0  0  0  0  0  0  0  0  0
   36.7280   32.3290   37.9760 H   0  0  0  0  0  0  0  0  0  0  0  0
   38.0040   28.8100   41.7120 C   0  0  0  0  0  0  0  0  0  0  0  0
   39.3140   28.4100   41.8660 C   0  0  0  0  0  0  0  0  0  0  0  0
   40.0440   28.8540   41.1800 H   0  0  0  0  0  0  0  0  0  0  0  0
   39.6890   27.4960   42.8400 C   0  0  0  0  0  3  0  0  0  0  0  0
   38.7190   26.9700   43.6800 C   0  0  0  0  0  0  0  0  0  0  0  0
   38.9800   26.2580   44.4450 H   0  0  0  0  0  0  0  0  0  0  0  0
   37.4430   27.3950   43.4870 C   0  0  0  0  0  0  0  0  0  0  0  0
   36.6860   26.9840   44.1440 H   0  0  0  0  0  0  0  0  0  0  0  0
   36.9980   28.3040   42.5380 C   0  0  0  0  0  3  0  0  0  0  0  0
   38.1720   33.4100   39.9120 C   0  0  0  0  0  0  0  0  0  0  0  0
   38.4560   33.7540   41.2310 F   0  0  0  0  0  0  0  0  0  0  0  0
   37.0780   34.1610   39.5570 F   0  0  0  0  0  0  0  0  0  0  0  0
   39.2820   33.6750   39.1630 F   0  0  0  0  0  0  0  0  0  0  0  0
  1  2  2  0  0  0  0
  1  6  1  0  0  0  0
  2  3  1  0  0  0  0
  3 18  1  0  0  0  0
  3  4  2  0  0  0  0
  5  4  1  0  0  0  0
  5  9  1  0  0  0  0
  6  5  2  0  0  0  0
  7  1  1  0  0  0  0
  8  2  1  0  0  0  0
  9 10  2  0  0  0  0
  9 17  1  0  0  0  0
 10 12  1  0  0  0  0
 11 10  1  0  0  0  0
 12 13  2  0  0  0  0
 13 14  1  0  0  0  0
 15 13  1  0  0  0  0
 15 16  1  0  0  0  0
 17 15  2  0  0  0  0
 18 19  1  0  0  0  0
 20 18  1  0  0  0  0
 21 18  1  0  0  0  0
M  END
>  <minimizedAffinity>
-4.71246672

$$$$

 OpenBabel03242510363D

 21 22  0  0  0  0  0  0  0  0999 V2000
   36.5630   26.4410   38.8340 C   0  0  0  0  0  0  0  0  0  0  0  0
   36.6640   25.8880   40.1410 C   0  0  0  0  0  0  0  0  0  0  0  0
   36.9010   26.7860   41.1800 C   0  0  0  0  0  0  0  0  0  0  0  0
   37.0230   28.1220   40.9110 N   0  0  0  0  0  0  0  0  0  0  0  0
   36.9170   28.5890   39.6400 C   0  0  0  0  0  0  0  0  0  0  0  0
   36.6910   27.7630   38.6140 N   0  0  0  0  0  0  0  0  0  0  0  0
   36.3790   25.7280   38.0410 H   0  0  0  0  0  0  0  0  0  0  0  0
   36.5570   24.8280   40.2810 H   0  0  0  0  0  0  0  0  0  0  0  0
   37.0560   30.0210   39.4100 C   0  0  0  0  0  0  0  0  0  0  0  0
   37.0250   30.9000   40.4700 C   0  0  0  0  0  0  0  0  0  0  0  0
   36.8940   30.4620   41.4650 H   0  0  0  0  0  0  0  0  0  0  0  0
   37.1540   32.2700   40.2860 C   0  0  0  0  0  3  0  0  0  0  0  0
   37.3180   32.7650   39.0030 C   0  0  0  0  0  0  0  0  0  0  0  0
   37.4210   33.8250   38.8290 H   0  0  0  0  0  0  0  0  0  0  0  0
   37.3420   31.8580   37.9920 C   0  0  0  0  0  0  0  0  0  0  0  0
   37.4700   32.2470   36.9880 H   0  0  0  0  0  0  0  0  0  0  0  0
   37.2190   30.4800   38.1010 C   0  0  0  0  0  3  0  0  0  0  0  0
   36.9980   26.1760   42.5140 C   0  0  0  0  0  0  0  0  0  0  0  0
   38.3390   26.1120   42.8820 F   0  0  0  0  0  0  0  0  0  0  0  0
   36.5800   24.8720   42.3970 F   0  0  0  0  0  0  0  0  0  0  0  0
   36.3340   26.8780   43.4780 F   0  0  0  0  0  0  0  0  0  0  0  0
  1  2  1  0  0  0  0
  2  8  1  0  0  0  0
  2  3  2  0  0  0  0
  3 18  1  0  0  0  0
  4  3  1  0  0  0  0
  5  4  2  0  0  0  0
  6  1  2  0  0  0  0
  6  5  1  0  0  0  0
  7  1  1  0  0  0  0
  9  5  1  0  0  0  0
  9 10  1  0  0  0  0
 10 11  1  0  0  0  0
 12 10  2  0  0  0  0
 13 12  1  0  0  0  0
 14 13  1  0  0  0  0
 15 17  1  0  0  0  0
 15 13  2  0  0  0  0
 16 15  1  0  0  0  0
 17  9  2  0  0  0  0
 18 19  1  0  0  0  0
 18 21  1  0  0  0  0
 20 18  1  0  0  0  0
M  END
>  <minimizedAffinity>
-4.68761969

$$$$

 OpenBabel03242510363D

 21 22  0  0  0  0  0  0  0  0999 V2000
   39.4600   29.2350   42.5440 C   0  0  0  0  0  0  0  0  0  0  0  0
   38.8680   30.3950   41.9710 C   0  0  0  0  0  0  0  0  0  0  0  0
   37.7680   30.1880   41.1410 C   0  0  0  0  0  0  0  0  0  0  0  0
   37.3150   28.9150   40.9170 N   0  0  0  0  0  0  0  0  0  0  0  0
   37.9240   27.8480   41.4940 C   0  0  0  0  0  0  0  0  0  0  0  0
   38.9820   28.0020   42.2960 N   0  0  0  0  0  0  0  0  0  0  0  0
   40.3130   29.4180   43.1850 H   0  0  0  0  0  0  0  0  0  0  0  0
   39.2760   31.3650   42.1900 H   0  0  0  0  0  0  0  0  0  0  0  0
   37.4010   26.5150   41.2210 C   0  0  0  0  0  0  0  0  0  0  0  0
   36.9190   26.2020   39.9690 C   0  0  0  0  0  0  0  0  0  0  0  0
   36.9560   26.9990   39.2170 H   0  0  0  0  0  0  0  0  0  0  0  0
   36.4130   24.9440   39.6750 C   0  0  0  0  0  3  0  0  0  0  0  0
   36.3920   23.9770   40.6670 C   0  0  0  0  0  0  0  0  0  0  0  0
   36.0050   22.9910   40.4680 H   0  0  0  0  0  0  0  0  0  0  0  0
   36.8780   24.3350   41.8840 C   0  0  0  0  0  0  0  0  0  0  0  0
   36.8610   23.5780   42.6600 H   0  0  0  0  0  0  0  0  0  0  0  0
   37.3970   25.5690   42.2490 C   0  0  0  0  0  3  0  0  0  0  0  0
   37.1850   31.4100   40.5700 C   0  0  0  0  0  0  0  0  0  0  0  0
   37.9550   32.5010   40.9620 F   0  0  0  0  0  0  0  0  0  0  0  0
   35.9550   31.5880   41.1580 F   0  0  0  0  0  0  0  0  0  0  0  0
   37.1400   31.3990   39.2060 F   0  0  0  0  0  0  0  0  0  0  0  0
  1  7  1  0  0  0  0
  2  8  1  0  0  0  0
  2  1  2  0  0  0  0
  3  2  1  0  0  0  0
  4  3  2  0  0  0  0
  4  5  1  0  0  0  0
  5  6  2  0  0  0  0
  6  1  1  0  0  0  0
  9  5  1  0  0  0  0
  9 17  1  0  0  0  0
 10  9  2  0  0  0  0
 11 10  1  0  0  0  0
 12 10  1  0  0  0  0
 12 13  2  0  0  0  0
 13 15  1  0  0  0  0
 14 13  1  0  0  0  0
 15 17  2  0  0  0  0
 15 16  1  0  0  0  0
 18 19  1  0  0  0  0
 18  3  1  0  0  0  0
 18 20  1  0  0  0  0
 21 18  1  0  0  0  0
M  END
>  <minimizedAffinity>
-4.60036516

$$$$

 OpenBabel03242510363D

 21 22  0  0  0  0  0  0  0  0999 V2000
   39.6700   27.3930   43.4150 C   0  0  0  0  0  0  0  0  0  0  0  0
   38.9540   26.2270   43.0280 C   0  0  0  0  0  0  0  0  0  0  0  0
   37.9520   26.3980   42.0740 C   0  0  0  0  0  0  0  0  0  0  0  0
   37.7040   27.6440   41.5650 N   0  0  0  0  0  0  0  0  0  0  0  0
   38.4220   28.7200   41.9760 C   0  0  0  0  0  0  0  0  0  0  0  0
   39.3920   28.6000   42.8880 N   0  0  0  0  0  0  0  0  0  0  0  0
   40.4440   27.2380   44.1560 H   0  0  0  0  0  0  0  0  0  0  0  0
   39.2020   25.2780   43.4680 H   0  0  0  0  0  0  0  0  0  0  0  0
   38.1160   30.0240   41.4010 C   0  0  0  0  0  0  0  0  0  0  0  0
   39.0490   31.0370   41.4440 C   0  0  0  0  0  0  0  0  0  0  0  0
   40.0060   30.8010   41.9230 H   0  0  0  0  0  0  0  0  0  0  0  0
   38.7910   32.2900   40.9060 C   0  0  0  0  0  3  0  0  0  0  0  0
   37.5620   32.5280   40.3110 C   0  0  0  0  0  0  0  0  0  0  0  0
   37.3330   33.4920   39.8850 H   0  0  0  0  0  0  0  0  0  0  0  0
   36.6770   31.4980   40.2950 C   0  0  0  0  0  0  0  0  0  0  0  0
   35.7160   31.6850   39.8300 H   0  0  0  0  0  0  0  0  0  0  0  0
   36.8660   30.2240   40.8110 C   0  0  0  0  0  3  0  0  0  0  0  0
   37.2360   25.1700   41.7010 C   0  0  0  0  0  0  0  0  0  0  0  0
   38.1680   24.1710   41.4310 F   0  0  0  0  0  0  0  0  0  0  0  0
   36.5980   25.4170   40.5090 F   0  0  0  0  0  0  0  0  0  0  0  0
   36.4040   24.7110   42.6810 F   0  0  0  0  0  0  0  0  0  0  0  0
  1  7  1  0  0  0  0
  2  1  1  0  0  0  0
  2  8  1  0  0  0  0
  3  2  2  0  0  0  0
  4  5  2  0  0  0  0
  4  3  1  0  0  0  0
  5  6  1  0  0  0  0
  6  1  2  0  0  0  0
  9 10  1  0  0  0  0
  9  5  1  0  0  0  0
 10 11  1  0  0  0  0
 12 10  2  0  0  0  0
 13 12  1  0  0  0  0
 14 13  1  0  0  0  0
 15 13  2  0  0  0  0
 15 17  1  0  0  0  0
 16 15  1  0  0  0  0
 17  9  2  0  0  0  0
 18  3  1  0  0  0  0
 18 21  1  0  0  0  0
 19 18  1  0  0  0  0
 20 18  1  0  0  0  0
M  END
>  <minimizedAffinity>
-4.55209255

$$$$
