
 OpenBabel03252503143D

 34 37  0  0  0  0  0  0  0  0999 V2000
   37.1440   27.2760   42.7800 C   0  0  0  0  0  0  0  0  0  0  0  0
   36.2410   26.7300   43.4960 O   0  0  0  0  0  0  0  0  0  0  0  0
   39.4230   27.0780   43.6450 C   0  0  0  0  0  0  0  0  0  0  0  0
   38.4030   26.6330   42.7790 C   0  0  0  0  0  0  0  0  0  0  0  0
   38.7510   25.5550   41.9710 C   0  0  0  0  0  0  0  0  0  0  0  0
   39.9630   24.9860   42.0160 N   0  0  0  0  0  0  0  0  0  0  0  0
   40.9150   25.4560   42.8730 C   0  0  0  0  0  0  0  0  0  0  0  0
   40.6390   26.4910   43.6770 N   0  0  0  0  0  0  0  0  0  0  0  0
   39.2430   27.9090   44.3100 H   0  0  0  0  0  0  0  0  0  0  0  0
   41.8770   24.9970   42.9040 H   0  0  0  0  0  0  0  0  0  0  0  0
   37.7930   25.0540   41.0790 C   0  0  0  0  0  0  0  0  0  0  0  0
   36.8180   24.0980   41.1600 C   0  0  0  0  0  0  0  0  0  0  0  0
   36.0230   23.8070   40.1360 C   0  0  0  0  0  0  0  0  0  0  0  0
   36.2140   24.5040   38.9810 C   0  0  0  0  0  0  0  0  0  0  0  0
   37.6130   25.6290   39.4110 S   0  0  0  0  0  0  0  0  0  0  0  0
   36.7460   23.5910   42.1440 H   0  0  0  0  0  0  0  0  0  0  0  0
   35.2330   23.0660   40.1290 H   0  0  0  0  0  0  0  0  0  0  0  0
   35.7320   24.4800   38.0180 H   0  0  0  0  0  0  0  0  0  0  0  0
   36.9310   28.5210   41.9720 C   0  0  0  0  0  0  0  0  0  0  0  0
   35.8380   28.8060   41.1860 C   0  0  0  0  0  0  0  0  0  0  0  0
   36.0900   30.0200   40.6640 N   0  0  0  0  0  0  0  0  0  0  0  0
   37.2900   30.4650   41.1120 C   0  0  0  0  0  0  0  0  0  0  0  0
   37.8270   29.5290   41.9360 N   0  0  0  0  0  0  0  0  0  0  0  0
   35.0070   28.1340   41.0740 H   0  0  0  0  0  0  0  0  0  0  0  0
   35.4040   30.4840   40.0140 H   0  0  0  0  0  0  0  0  0  0  0  0
   37.8730   31.7520   40.7430 C   0  0  0  0  0  0  0  0  0  0  0  0
   37.1050   32.6010   39.9660 C   0  0  0  0  0  0  0  0  0  0  0  0
   36.1060   32.3680   39.6200 H   0  0  0  0  0  0  0  0  0  0  0  0
   37.6360   33.8430   39.5950 C   0  0  0  0  0  3  0  0  0  0  0  0
   38.9120   34.1590   40.0280 C   0  0  0  0  0  0  0  0  0  0  0  0
   39.2570   35.1340   39.7040 H   0  0  0  0  0  0  0  0  0  0  0  0
   39.6660   33.3010   40.8030 C   0  0  0  0  0  0  0  0  0  0  0  0
   40.6680   33.5990   41.1190 H   0  0  0  0  0  0  0  0  0  0  0  0
   39.1480   32.0750   41.1730 C   0  0  0  0  0  3  0  0  0  0  0  0
  1  2  2  0  0  0  0
  3  8  1  0  0  0  0
  3  9  1  0  0  0  0
  4  1  1  0  0  0  0
  4  3  2  0  0  0  0
  5  6  2  0  0  0  0
  5  4  1  0  0  0  0
  6  7  1  0  0  0  0
  7 10  1  0  0  0  0
  7  8  2  0  0  0  0
 11 12  2  0  0  0  0
 11  5  1  0  0  0  0
 12 16  1  0  0  0  0
 13 12  1  0  0  0  0
 14 15  1  0  0  0  0
 14 13  2  0  0  0  0
 15 11  1  0  0  0  0
 17 13  1  0  0  0  0
 18 14  1  0  0  0  0
 19  1  1  0  0  0  0
 20 19  2  0  0  0  0
 21 22  1  0  0  0  0
 21 20  1  0  0  0  0
 22 23  2  0  0  0  0
 23 19  1  0  0  0  0
 24 20  1  0  0  0  0
 25 21  1  0  0  0  0
 26 22  1  0  0  0  0
 26 34  1  0  0  0  0
 27 26  2  0  0  0  0
 28 27  1  0  0  0  0
 29 27  1  0  0  0  0
 29 30  2  0  0  0  0
 30 32  1  0  0  0  0
 31 30  1  0  0  0  0
 32 33  1  0  0  0  0
 32 34  2  0  0  0  0
M  END
>  <minimizedAffinity>
-5.90481663

$$$$

 OpenBabel03252503143D

 34 37  0  0  0  0  0  0  0  0999 V2000
   37.7860   32.4780   39.8540 C   0  0  0  0  0  0  0  0  0  0  0  0
   36.9500   33.4310   39.7260 O   0  0  0  0  0  0  0  0  0  0  0  0
   39.9470   33.5940   39.6050 C   0  0  0  0  0  0  0  0  0  0  0  0
   39.0120   32.6360   39.1660 C   0  0  0  0  0  0  0  0  0  0  0  0
   39.4020   31.9060   38.0480 C   0  0  0  0  0  0  0  0  0  0  0  0
   40.5800   32.1010   37.4400 N   0  0  0  0  0  0  0  0  0  0  0  0
   41.4500   33.0430   37.9060 C   0  0  0  0  0  0  0  0  0  0  0  0
   41.1300   33.7770   38.9790 N   0  0  0  0  0  0  0  0  0  0  0  0
   39.7300   34.2080   40.4670 H   0  0  0  0  0  0  0  0  0  0  0  0
   42.3860   33.1910   37.4160 H   0  0  0  0  0  0  0  0  0  0  0  0
   38.5260   30.9340   37.5470 C   0  0  0  0  0  0  0  0  0  0  0  0
   37.3260   30.9750   36.8900 C   0  0  0  0  0  0  0  0  0  0  0  0
   36.6840   29.8740   36.5160 C   0  0  0  0  0  0  0  0  0  0  0  0
   37.2690   28.6800   36.8140 C   0  0  0  0  0  0  0  0  0  0  0  0
   38.8210   29.1900   37.6750 S   0  0  0  0  0  0  0  0  0  0  0  0
   36.9380   31.9960   36.6970 H   0  0  0  0  0  0  0  0  0  0  0  0
   35.7360   29.8310   35.9960 H   0  0  0  0  0  0  0  0  0  0  0  0
   36.9840   27.6560   36.6370 H   0  0  0  0  0  0  0  0  0  0  0  0
   37.5320   31.2480   40.6720 C   0  0  0  0  0  0  0  0  0  0  0  0
   36.3070   30.7950   41.1050 C   0  0  0  0  0  0  0  0  0  0  0  0
   36.5730   29.6700   41.7930 N   0  0  0  0  0  0  0  0  0  0  0  0
   37.9080   29.4390   41.7840 C   0  0  0  0  0  0  0  0  0  0  0  0
   38.5210   30.4260   41.0800 N   0  0  0  0  0  0  0  0  0  0  0  0
   35.3850   31.3050   40.8890 H   0  0  0  0  0  0  0  0  0  0  0  0
   35.8000   29.1120   42.2420 H   0  0  0  0  0  0  0  0  0  0  0  0
   38.5450   28.2990   42.4370 C   0  0  0  0  0  0  0  0  0  0  0  0
   39.8130   28.4860   42.9560 C   0  0  0  0  0  0  0  0  0  0  0  0
   40.3560   29.4220   42.9060 H   0  0  0  0  0  0  0  0  0  0  0  0
   40.4510   27.4120   43.5880 C   0  0  0  0  0  3  0  0  0  0  0  0
   39.7730   26.2070   43.6620 C   0  0  0  0  0  0  0  0  0  0  0  0
   40.3260   25.4220   44.1640 H   0  0  0  0  0  0  0  0  0  0  0  0
   38.5080   26.0350   43.1390 C   0  0  0  0  0  0  0  0  0  0  0  0
   38.0160   25.0640   43.2240 H   0  0  0  0  0  0  0  0  0  0  0  0
   37.8730   27.0910   42.5140 C   0  0  0  0  0  3  0  0  0  0  0  0
  1 19  1  0  0  0  0
  2  1  2  0  0  0  0
  3  9  1  0  0  0  0
  4  3  1  0  0  0  0
  4  1  1  0  0  0  0
  5  4  2  0  0  0  0
  6  7  2  0  0  0  0
  6  5  1  0  0  0  0
  7  8  1  0  0  0  0
  8  3  2  0  0  0  0
 10  7  1  0  0  0  0
 11 15  1  0  0  0  0
 11  5  1  0  0  0  0
 12 11  2  0  0  0  0
 13 14  2  0  0  0  0
 13 12  1  0  0  0  0
 14 15  1  0  0  0  0
 16 12  1  0  0  0  0
 17 13  1  0  0  0  0
 18 14  1  0  0  0  0
 19 23  1  0  0  0  0
 19 20  2  0  0  0  0
 20 21  1  0  0  0  0
 21 25  1  0  0  0  0
 22 21  1  0  0  0  0
 22 26  1  0  0  0  0
 23 22  2  0  0  0  0
 24 20  1  0  0  0  0
 26 34  2  0  0  0  0
 26 27  1  0  0  0  0
 27 29  2  0  0  0  0
 28 27  1  0  0  0  0
 29 30  1  0  0  0  0
 30 31  1  0  0  0  0
 32 33  1  0  0  0  0
 32 30  2  0  0  0  0
 34 32  1  0  0  0  0
M  END
>  <minimizedAffinity>
-5.84254503

$$$$

 OpenBabel03252503143D

 34 37  0  0  0  0  0  0  0  0999 V2000
   36.9900   27.7750   42.5110 C   0  0  0  0  0  0  0  0  0  0  0  0
   36.2610   27.3870   43.4810 O   0  0  0  0  0  0  0  0  0  0  0  0
   39.2970   28.1520   43.2280 C   0  0  0  0  0  0  0  0  0  0  0  0
   38.3420   27.3660   42.5510 C   0  0  0  0  0  0  0  0  0  0  0  0
   38.8470   26.2110   41.9620 C   0  0  0  0  0  0  0  0  0  0  0  0
   40.1420   25.8750   42.0360 N   0  0  0  0  0  0  0  0  0  0  0  0
   41.0250   26.6720   42.7050 C   0  0  0  0  0  0  0  0  0  0  0  0
   40.5980   27.7970   43.2930 N   0  0  0  0  0  0  0  0  0  0  0  0
   38.9950   29.0660   43.7160 H   0  0  0  0  0  0  0  0  0  0  0  0
   42.0540   26.3970   42.7590 H   0  0  0  0  0  0  0  0  0  0  0  0
   37.9620   25.3750   41.2670 C   0  0  0  0  0  0  0  0  0  0  0  0
   36.9730   24.5070   41.6400 C   0  0  0  0  0  0  0  0  0  0  0  0
   36.2640   23.8160   40.7540 C   0  0  0  0  0  0  0  0  0  0  0  0
   36.5600   24.0030   39.4370 C   0  0  0  0  0  0  0  0  0  0  0  0
   37.9300   25.2390   39.4980 S   0  0  0  0  0  0  0  0  0  0  0  0
   36.8130   24.4290   42.7350 H   0  0  0  0  0  0  0  0  0  0  0  0
   35.4700   23.1140   40.9760 H   0  0  0  0  0  0  0  0  0  0  0  0
   36.1600   23.5890   38.5260 H   0  0  0  0  0  0  0  0  0  0  0  0
   36.4880   28.6150   41.3730 C   0  0  0  0  0  0  0  0  0  0  0  0
   36.5410   29.9870   41.2870 C   0  0  0  0  0  0  0  0  0  0  0  0
   35.9800   30.2850   40.1010 N   0  0  0  0  0  0  0  0  0  0  0  0
   35.5970   29.1410   39.4820 C   0  0  0  0  0  0  0  0  0  0  0  0
   35.9130   28.0840   40.2740 N   0  0  0  0  0  0  0  0  0  0  0  0
   36.9610   30.6050   42.0590 H   0  0  0  0  0  0  0  0  0  0  0  0
   35.8900   31.2830   39.7790 H   0  0  0  0  0  0  0  0  0  0  0  0
   34.9530   29.0980   38.1720 C   0  0  0  0  0  0  0  0  0  0  0  0
   35.7600   29.2530   37.0590 C   0  0  0  0  0  0  0  0  0  0  0  0
   36.8310   29.4020   37.1030 H   0  0  0  0  0  0  0  0  0  0  0  0
   35.1720   29.2170   35.7880 C   0  0  0  0  0  3  0  0  0  0  0  0
   33.8030   29.0260   35.7110 C   0  0  0  0  0  0  0  0  0  0  0  0
   33.4190   29.0100   34.6980 H   0  0  0  0  0  0  0  0  0  0  0  0
   33.0110   28.8740   36.8310 C   0  0  0  0  0  0  0  0  0  0  0  0
   31.9360   28.7270   36.7150 H   0  0  0  0  0  0  0  0  0  0  0  0
   33.5850   28.9080   38.0880 C   0  0  0  0  0  3  0  0  0  0  0  0
  1  4  1  0  0  0  0
  1  2  2  0  0  0  0
  3  8  1  0  0  0  0
  3  9  1  0  0  0  0
  4  3  2  0  0  0  0
  5  6  2  0  0  0  0
  5  4  1  0  0  0  0
  6  7  1  0  0  0  0
  7 10  1  0  0  0  0
  7  8  2  0  0  0  0
 11 12  2  0  0  0  0
 11  5  1  0  0  0  0
 12 16  1  0  0  0  0
 13 17  1  0  0  0  0
 13 12  1  0  0  0  0
 14 15  1  0  0  0  0
 14 13  2  0  0  0  0
 15 11  1  0  0  0  0
 18 14  1  0  0  0  0
 19  1  1  0  0  0  0
 20 19  2  0  0  0  0
 20 24  1  0  0  0  0
 21 20  1  0  0  0  0
 22 21  1  0  0  0  0
 22 23  2  0  0  0  0
 23 19  1  0  0  0  0
 25 21  1  0  0  0  0
 26 22  1  0  0  0  0
 27 28  1  0  0  0  0
 27 26  2  0  0  0  0
 29 27  1  0  0  0  0
 30 29  2  0  0  0  0
 30 32  1  0  0  0  0
 31 30  1  0  0  0  0
 32 34  2  0  0  0  0
 33 32  1  0  0  0  0
 34 26  1  0  0  0  0
M  END
>  <minimizedAffinity>
-5.62503481

$$$$

 OpenBabel03252503143D

 34 37  0  0  0  0  0  0  0  0999 V2000
   38.2100   31.4980   40.6810 C   0  0  0  0  0  0  0  0  0  0  0  0
   37.0650   32.0560   40.6500 O   0  0  0  0  0  0  0  0  0  0  0  0
   40.0600   33.0890   40.5250 C   0  0  0  0  0  0  0  0  0  0  0  0
   39.2240   32.1270   39.9230 C   0  0  0  0  0  0  0  0  0  0  0  0
   39.4900   31.8790   38.5800 C   0  0  0  0  0  0  0  0  0  0  0  0
   40.4680   32.5080   37.9140 N   0  0  0  0  0  0  0  0  0  0  0  0
   41.2490   33.4320   38.5450 C   0  0  0  0  0  0  0  0  0  0  0  0
   41.0410   33.7140   39.8380 N   0  0  0  0  0  0  0  0  0  0  0  0
   39.9260   33.3460   41.5650 H   0  0  0  0  0  0  0  0  0  0  0  0
   42.0260   33.9280   38.0080 H   0  0  0  0  0  0  0  0  0  0  0  0
   38.7010   30.9370   37.9070 C   0  0  0  0  0  0  0  0  0  0  0  0
   37.4690   30.9700   37.3110 C   0  0  0  0  0  0  0  0  0  0  0  0
   36.9340   29.9030   36.7280 C   0  0  0  0  0  0  0  0  0  0  0  0
   37.6650   28.7530   36.7410 C   0  0  0  0  0  0  0  0  0  0  0  0
   39.1950   29.2530   37.6450 S   0  0  0  0  0  0  0  0  0  0  0  0
   36.9600   31.9540   37.3560 H   0  0  0  0  0  0  0  0  0  0  0  0
   35.9690   29.8570   36.2390 H   0  0  0  0  0  0  0  0  0  0  0  0
   37.4870   27.7630   36.3560 H   0  0  0  0  0  0  0  0  0  0  0  0
   38.5110   30.2520   41.4590 C   0  0  0  0  0  0  0  0  0  0  0  0
   39.2300   30.1750   42.6300 C   0  0  0  0  0  0  0  0  0  0  0  0
   39.2370   28.8690   42.9520 N   0  0  0  0  0  0  0  0  0  0  0  0
   38.5480   28.1700   42.0170 C   0  0  0  0  0  0  0  0  0  0  0  0
   38.0880   29.0310   41.0730 N   0  0  0  0  0  0  0  0  0  0  0  0
   39.6600   31.0360   43.1100 H   0  0  0  0  0  0  0  0  0  0  0  0
   39.7270   28.5260   43.8190 H   0  0  0  0  0  0  0  0  0  0  0  0
   38.3560   26.7220   42.0570 C   0  0  0  0  0  0  0  0  0  0  0  0
   39.4890   25.9290   42.0730 C   0  0  0  0  0  0  0  0  0  0  0  0
   40.5000   26.3160   42.0590 H   0  0  0  0  0  0  0  0  0  0  0  0
   39.3380   24.5370   42.1110 C   0  0  0  0  0  3  0  0  0  0  0  0
   38.0530   24.0230   42.1310 C   0  0  0  0  0  0  0  0  0  0  0  0
   38.0130   22.9410   42.1600 H   0  0  0  0  0  0  0  0  0  0  0  0
   36.9320   24.8280   42.1140 C   0  0  0  0  0  0  0  0  0  0  0  0
   35.9400   24.3730   42.1300 H   0  0  0  0  0  0  0  0  0  0  0  0
   37.0740   26.2020   42.0770 C   0  0  0  0  0  3  0  0  0  0  0  0
  1 19  1  0  0  0  0
  2  1  2  0  0  0  0
  3  9  1  0  0  0  0
  4  3  1  0  0  0  0
  4  1  1  0  0  0  0
  5  4  2  0  0  0  0
  6  7  2  0  0  0  0
  6  5  1  0  0  0  0
  7  8  1  0  0  0  0
  8  3  2  0  0  0  0
 10  7  1  0  0  0  0
 11  5  1  0  0  0  0
 12 16  1  0  0  0  0
 12 11  2  0  0  0  0
 13 14  2  0  0  0  0
 13 12  1  0  0  0  0
 14 15  1  0  0  0  0
 15 11  1  0  0  0  0
 17 13  1  0  0  0  0
 18 14  1  0  0  0  0
 19 20  2  0  0  0  0
 20 21  1  0  0  0  0
 20 24  1  0  0  0  0
 21 25  1  0  0  0  0
 22 26  1  0  0  0  0
 22 21  1  0  0  0  0
 23 19  1  0  0  0  0
 23 22  2  0  0  0  0
 26 27  2  0  0  0  0
 26 34  1  0  0  0  0
 27 29  1  0  0  0  0
 28 27  1  0  0  0  0
 29 30  2  0  0  0  0
 30 31  1  0  0  0  0
 32 33  1  0  0  0  0
 32 30  1  0  0  0  0
 34 32  2  0  0  0  0
M  END
>  <minimizedAffinity>
-5.59726095

$$$$

 OpenBabel03252503143D

 34 37  0  0  0  0  0  0  0  0999 V2000
   36.9310   27.6410   42.4370 C   0  0  0  0  0  0  0  0  0  0  0  0
   36.8140   27.9000   43.6800 O   0  0  0  0  0  0  0  0  0  0  0  0
   36.9820   25.2230   42.0820 C   0  0  0  0  0  0  0  0  0  0  0  0
   37.6470   26.4650   42.1170 C   0  0  0  0  0  0  0  0  0  0  0  0
   39.0040   26.4100   41.8190 C   0  0  0  0  0  0  0  0  0  0  0  0
   39.6280   25.2620   41.5210 N   0  0  0  0  0  0  0  0  0  0  0  0
   38.9360   24.0860   41.5010 C   0  0  0  0  0  0  0  0  0  0  0  0
   37.6260   24.0750   41.7790 N   0  0  0  0  0  0  0  0  0  0  0  0
   35.9250   25.1690   42.2990 H   0  0  0  0  0  0  0  0  0  0  0  0
   39.4400   23.1760   41.2620 H   0  0  0  0  0  0  0  0  0  0  0  0
   39.7400   27.6030   41.8350 C   0  0  0  0  0  0  0  0  0  0  0  0
   40.3870   28.3150   42.8080 C   0  0  0  0  0  0  0  0  0  0  0  0
   41.0250   29.4510   42.5490 C   0  0  0  0  0  0  0  0  0  0  0  0
   41.0140   29.8930   41.2600 C   0  0  0  0  0  0  0  0  0  0  0  0
   40.0300   28.5940   40.3930 S   0  0  0  0  0  0  0  0  0  0  0  0
   40.3360   27.8680   43.8220 H   0  0  0  0  0  0  0  0  0  0  0  0
   41.5570   30.0650   43.2660 H   0  0  0  0  0  0  0  0  0  0  0  0
   41.4360   30.7570   40.7740 H   0  0  0  0  0  0  0  0  0  0  0  0
   36.3620   28.5000   41.3480 C   0  0  0  0  0  0  0  0  0  0  0  0
   36.1890   29.8650   41.3910 C   0  0  0  0  0  0  0  0  0  0  0  0
   35.6540   30.1880   40.2000 N   0  0  0  0  0  0  0  0  0  0  0  0
   35.5040   29.0660   39.4530 C   0  0  0  0  0  0  0  0  0  0  0  0
   35.9470   27.9990   40.1660 N   0  0  0  0  0  0  0  0  0  0  0  0
   36.4550   30.4610   42.2450 H   0  0  0  0  0  0  0  0  0  0  0  0
   35.4170   31.1860   39.9640 H   0  0  0  0  0  0  0  0  0  0  0  0
   34.9520   29.0540   38.1010 C   0  0  0  0  0  0  0  0  0  0  0  0
   33.5900   28.8470   37.9700 C   0  0  0  0  0  0  0  0  0  0  0  0
   32.9170   28.6960   38.8050 H   0  0  0  0  0  0  0  0  0  0  0  0
   33.0300   28.8290   36.6870 C   0  0  0  0  0  3  0  0  0  0  0  0
   33.8740   29.0200   35.6060 C   0  0  0  0  0  0  0  0  0  0  0  0
   33.3720   28.9940   34.6460 H   0  0  0  0  0  0  0  0  0  0  0  0
   35.2310   29.2250   35.7530 C   0  0  0  0  0  0  0  0  0  0  0  0
   35.8530   29.3720   34.8680 H   0  0  0  0  0  0  0  0  0  0  0  0
   35.7900   29.2450   37.0160 C   0  0  0  0  0  3  0  0  0  0  0  0
  1  2  2  0  0  0  0
  3  4  1  0  0  0  0
  3  9  1  0  0  0  0
  4  1  1  0  0  0  0
  5 11  1  0  0  0  0
  5  4  2  0  0  0  0
  6  5  1  0  0  0  0
  7  6  2  0  0  0  0
  7  8  1  0  0  0  0
  8  3  2  0  0  0  0
 10  7  1  0  0  0  0
 11 12  2  0  0  0  0
 12 16  1  0  0  0  0
 13 12  1  0  0  0  0
 13 17  1  0  0  0  0
 14 13  2  0  0  0  0
 15 14  1  0  0  0  0
 15 11  1  0  0  0  0
 18 14  1  0  0  0  0
 19 20  2  0  0  0  0
 19  1  1  0  0  0  0
 20 24  1  0  0  0  0
 21 20  1  0  0  0  0
 22 23  2  0  0  0  0
 22 21  1  0  0  0  0
 23 19  1  0  0  0  0
 25 21  1  0  0  0  0
 26 22  1  0  0  0  0
 27 26  1  0  0  0  0
 27 28  1  0  0  0  0
 29 27  2  0  0  0  0
 30 32  2  0  0  0  0
 30 29  1  0  0  0  0
 31 30  1  0  0  0  0
 32 34  1  0  0  0  0
 33 32  1  0  0  0  0
 34 26  2  0  0  0  0
M  END
>  <minimizedAffinity>
-5.38474703

$$$$

 OpenBabel03252503143D

 34 37  0  0  0  0  0  0  0  0999 V2000
   35.9170   27.5230   37.6020 C   0  0  0  0  0  0  0  0  0  0  0  0
   36.9010   28.0080   36.9540 O   0  0  0  0  0  0  0  0  0  0  0  0
   36.2420   25.2730   38.5030 C   0  0  0  0  0  0  0  0  0  0  0  0
   36.2490   26.6710   38.6810 C   0  0  0  0  0  0  0  0  0  0  0  0
   36.5960   27.0960   39.9590 C   0  0  0  0  0  0  0  0  0  0  0  0
   36.9010   26.2390   40.9430 N   0  0  0  0  0  0  0  0  0  0  0  0
   36.8790   24.8930   40.7170 C   0  0  0  0  0  0  0  0  0  0  0  0
   36.5530   24.4230   39.5060 N   0  0  0  0  0  0  0  0  0  0  0  0
   35.9840   24.8520   37.5430 H   0  0  0  0  0  0  0  0  0  0  0  0
   37.1240   24.2180   41.5050 H   0  0  0  0  0  0  0  0  0  0  0  0
   36.6230   28.4740   40.2200 C   0  0  0  0  0  0  0  0  0  0  0  0
   35.6920   29.3890   40.6280 C   0  0  0  0  0  0  0  0  0  0  0  0
   35.9880   30.6730   40.8020 C   0  0  0  0  0  0  0  0  0  0  0  0
   37.2720   31.0550   40.5550 C   0  0  0  0  0  0  0  0  0  0  0  0
   38.0780   29.4730   40.0490 S   0  0  0  0  0  0  0  0  0  0  0  0
   34.6780   28.9730   40.8010 H   0  0  0  0  0  0  0  0  0  0  0  0
   35.3050   31.4490   41.1210 H   0  0  0  0  0  0  0  0  0  0  0  0
   37.7820   32.0030   40.6110 H   0  0  0  0  0  0  0  0  0  0  0  0
   34.4810   27.8100   37.2790 C   0  0  0  0  0  0  0  0  0  0  0  0
   33.5650   26.9170   36.7720 C   0  0  0  0  0  0  0  0  0  0  0  0
   32.4240   27.6190   36.6500 N   0  0  0  0  0  0  0  0  0  0  0  0
   32.6290   28.8930   37.0660 C   0  0  0  0  0  0  0  0  0  0  0  0
   33.9200   29.0230   37.4640 N   0  0  0  0  0  0  0  0  0  0  0  0
   33.8070   25.8930   36.5510 H   0  0  0  0  0  0  0  0  0  0  0  0
   31.5470   27.1690   36.2770 H   0  0  0  0  0  0  0  0  0  0  0  0
   31.5980   29.9270   37.0690 C   0  0  0  0  0  0  0  0  0  0  0  0
   31.4720   30.7050   35.9330 C   0  0  0  0  0  0  0  0  0  0  0  0
   32.0880   30.5920   35.0490 H   0  0  0  0  0  0  0  0  0  0  0  0
   30.4930   31.7060   35.9050 C   0  0  0  0  0  3  0  0  0  0  0  0
   29.6950   31.8660   37.0250 C   0  0  0  0  0  0  0  0  0  0  0  0
   28.9610   32.6580   36.9320 H   0  0  0  0  0  0  0  0  0  0  0  0
   29.8340   31.0820   38.1520 C   0  0  0  0  0  0  0  0  0  0  0  0
   29.1790   31.2480   39.0090 H   0  0  0  0  0  0  0  0  0  0  0  0
   30.7970   30.0920   38.1860 C   0  0  0  0  0  3  0  0  0  0  0  0
  1  4  1  0  0  0  0
  2  1  2  0  0  0  0
  3  4  2  0  0  0  0
  3  8  1  0  0  0  0
  4  5  1  0  0  0  0
  5 11  1  0  0  0  0
  5  6  2  0  0  0  0
  7  6  1  0  0  0  0
  7 10  1  0  0  0  0
  8  7  2  0  0  0  0
  9  3  1  0  0  0  0
 11 12  2  0  0  0  0
 12 16  1  0  0  0  0
 12 13  1  0  0  0  0
 13 17  1  0  0  0  0
 14 18  1  0  0  0  0
 14 13  2  0  0  0  0
 15 11  1  0  0  0  0
 15 14  1  0  0  0  0
 19 23  1  0  0  0  0
 19  1  1  0  0  0  0
 20 19  2  0  0  0  0
 21 20  1  0  0  0  0
 21 22  1  0  0  0  0
 22 26  1  0  0  0  0
 22 23  2  0  0  0  0
 24 20  1  0  0  0  0
 25 21  1  0  0  0  0
 26 34  1  0  0  0  0
 27 26  2  0  0  0  0
 28 27  1  0  0  0  0
 29 27  1  0  0  0  0
 29 30  2  0  0  0  0
 30 32  1  0  0  0  0
 31 30  1  0  0  0  0
 32 34  2  0  0  0  0
 32 33  1  0  0  0  0
M  END
>  <minimizedAffinity>
-5.37126541

$$$$

 OpenBabel03252503143D

 34 37  0  0  0  0  0  0  0  0999 V2000
   37.9510   31.4500   40.0410 C   0  0  0  0  0  0  0  0  0  0  0  0
   37.0150   32.2670   40.3230 O   0  0  0  0  0  0  0  0  0  0  0  0
   38.9830   30.4310   42.0090 C   0  0  0  0  0  0  0  0  0  0  0  0
   38.0960   30.3500   40.9160 C   0  0  0  0  0  0  0  0  0  0  0  0
   37.4200   29.1400   40.8000 C   0  0  0  0  0  0  0  0  0  0  0  0
   37.5990   28.1320   41.6640 N   0  0  0  0  0  0  0  0  0  0  0  0
   38.4710   28.2630   42.7060 C   0  0  0  0  0  0  0  0  0  0  0  0
   39.1510   29.4040   42.8710 N   0  0  0  0  0  0  0  0  0  0  0  0
   39.5510   31.3330   42.1790 H   0  0  0  0  0  0  0  0  0  0  0  0
   38.6070   27.4550   43.3900 H   0  0  0  0  0  0  0  0  0  0  0  0
   36.5210   28.9780   39.7370 C   0  0  0  0  0  0  0  0  0  0  0  0
   35.1810   29.2020   39.5730 C   0  0  0  0  0  0  0  0  0  0  0  0
   34.5550   28.9540   38.4280 C   0  0  0  0  0  0  0  0  0  0  0  0
   35.3030   28.4600   37.4030 C   0  0  0  0  0  0  0  0  0  0  0  0
   36.9910   28.3530   38.1450 S   0  0  0  0  0  0  0  0  0  0  0  0
   34.6670   29.6060   40.4690 H   0  0  0  0  0  0  0  0  0  0  0  0
   33.5020   29.1070   38.2290 H   0  0  0  0  0  0  0  0  0  0  0  0
   35.0690   28.1740   36.3910 H   0  0  0  0  0  0  0  0  0  0  0  0
   38.8680   31.6050   38.8630 C   0  0  0  0  0  0  0  0  0  0  0  0
   38.5040   31.9780   37.5900 C   0  0  0  0  0  0  0  0  0  0  0  0
   39.6490   31.9810   36.8850 N   0  0  0  0  0  0  0  0  0  0  0  0
   40.6780   31.6250   37.6930 C   0  0  0  0  0  0  0  0  0  0  0  0
   40.1970   31.3860   38.9400 N   0  0  0  0  0  0  0  0  0  0  0  0
   37.4880   32.1990   37.3130 H   0  0  0  0  0  0  0  0  0  0  0  0
   39.6570   32.2350   35.8630 H   0  0  0  0  0  0  0  0  0  0  0  0
   42.0670   31.5270   37.2510 C   0  0  0  0  0  0  0  0  0  0  0  0
   42.9540   32.4770   37.7220 C   0  0  0  0  0  0  0  0  0  0  0  0
   42.6810   33.2820   38.3940 H   0  0  0  0  0  0  0  0  0  0  0  0
   44.2930   32.4110   37.3180 C   0  0  0  0  0  3  0  0  0  0  0  0
   44.6630   31.3900   36.4590 C   0  0  0  0  0  0  0  0  0  0  0  0
   45.7120   31.4020   36.1890 H   0  0  0  0  0  0  0  0  0  0  0  0
   43.7650   30.4490   35.9970 C   0  0  0  0  0  0  0  0  0  0  0  0
   44.1070   29.6630   35.3210 H   0  0  0  0  0  0  0  0  0  0  0  0
   42.4420   30.5080   36.3930 C   0  0  0  0  0  3  0  0  0  0  0  0
  1  2  2  0  0  0  0
  1  4  1  0  0  0  0
  3  9  1  0  0  0  0
  3  8  1  0  0  0  0
  4  3  2  0  0  0  0
  5  4  1  0  0  0  0
  5  6  2  0  0  0  0
  6  7  1  0  0  0  0
  7  8  2  0  0  0  0
  7 10  1  0  0  0  0
 11  5  1  0  0  0  0
 12 11  2  0  0  0  0
 12 16  1  0  0  0  0
 13 12  1  0  0  0  0
 14 15  1  0  0  0  0
 14 13  2  0  0  0  0
 15 11  1  0  0  0  0
 17 13  1  0  0  0  0
 18 14  1  0  0  0  0
 19 23  1  0  0  0  0
 19  1  1  0  0  0  0
 20 19  2  0  0  0  0
 21 20  1  0  0  0  0
 21 22  1  0  0  0  0
 22 23  2  0  0  0  0
 24 20  1  0  0  0  0
 25 21  1  0  0  0  0
 26 22  1  0  0  0  0
 26 27  1  0  0  0  0
 27 28  1  0  0  0  0
 29 27  2  0  0  0  0
 30 29  1  0  0  0  0
 31 30  1  0  0  0  0
 32 34  1  0  0  0  0
 32 30  2  0  0  0  0
 33 32  1  0  0  0  0
 34 26  2  0  0  0  0
M  END
>  <minimizedAffinity>
-5.21848392

$$$$

 OpenBabel03252503143D

 34 37  0  0  0  0  0  0  0  0999 V2000
   39.8230   30.2710   42.1490 C   0  0  0  0  0  0  0  0  0  0  0  0
   39.9550   31.1850   43.0270 O   0  0  0  0  0  0  0  0  0  0  0  0
   41.9650   29.6150   41.1710 C   0  0  0  0  0  0  0  0  0  0  0  0
   40.7420   30.3080   41.0760 C   0  0  0  0  0  0  0  0  0  0  0  0
   40.5500   30.9940   39.8810 C   0  0  0  0  0  0  0  0  0  0  0  0
   41.4600   30.9920   38.8980 N   0  0  0  0  0  0  0  0  0  0  0  0
   42.6300   30.3030   39.0410 C   0  0  0  0  0  0  0  0  0  0  0  0
   42.8710   29.6230   40.1690 N   0  0  0  0  0  0  0  0  0  0  0  0
   42.2010   29.0530   42.0630 H   0  0  0  0  0  0  0  0  0  0  0  0
   43.3480   30.3050   38.2530 H   0  0  0  0  0  0  0  0  0  0  0  0
   39.3590   31.7130   39.7080 C   0  0  0  0  0  0  0  0  0  0  0  0
   38.1310   31.4180   39.1830 C   0  0  0  0  0  0  0  0  0  0  0  0
   37.1460   32.3080   39.1370 C   0  0  0  0  0  0  0  0  0  0  0  0
   37.4030   33.5480   39.6400 C   0  0  0  0  0  0  0  0  0  0  0  0
   39.1570   33.4050   40.2000 S   0  0  0  0  0  0  0  0  0  0  0  0
   38.0270   30.3810   38.8020 H   0  0  0  0  0  0  0  0  0  0  0  0
   36.1530   32.1450   38.7380 H   0  0  0  0  0  0  0  0  0  0  0  0
   36.8100   34.4430   39.7320 H   0  0  0  0  0  0  0  0  0  0  0  0
   38.7740   29.2000   42.2090 C   0  0  0  0  0  0  0  0  0  0  0  0
   37.7950   29.0700   43.1670 C   0  0  0  0  0  0  0  0  0  0  0  0
   37.0980   27.9770   42.8080 N   0  0  0  0  0  0  0  0  0  0  0  0
   37.6270   27.4550   41.6740 C   0  0  0  0  0  0  0  0  0  0  0  0
   38.6810   28.2180   41.2880 N   0  0  0  0  0  0  0  0  0  0  0  0
   37.6910   29.7500   43.9930 H   0  0  0  0  0  0  0  0  0  0  0  0
   36.2780   27.6440   43.3790 H   0  0  0  0  0  0  0  0  0  0  0  0
   37.1110   26.2630   41.0060 C   0  0  0  0  0  0  0  0  0  0  0  0
   36.6940   26.3970   39.6940 C   0  0  0  0  0  0  0  0  0  0  0  0
   36.7290   27.3260   39.1390 H   0  0  0  0  0  0  0  0  0  0  0  0
   36.1950   25.2720   39.0250 C   0  0  0  0  0  3  0  0  0  0  0  0
   36.1430   24.0740   39.7180 C   0  0  0  0  0  0  0  0  0  0  0  0
   35.7460   23.2490   39.1390 H   0  0  0  0  0  0  0  0  0  0  0  0
   36.5630   23.9570   41.0280 C   0  0  0  0  0  0  0  0  0  0  0  0
   36.5010   22.9890   41.5290 H   0  0  0  0  0  0  0  0  0  0  0  0
   37.0570   25.0630   41.6930 C   0  0  0  0  0  3  0  0  0  0  0  0
  1 19  1  0  0  0  0
  1  2  2  0  0  0  0
  3  9  1  0  0  0  0
  4  3  1  0  0  0  0
  4  1  1  0  0  0  0
  5  4  2  0  0  0  0
  6  7  2  0  0  0  0
  6  5  1  0  0  0  0
  7  8  1  0  0  0  0
  8  3  2  0  0  0  0
 10  7  1  0  0  0  0
 11  5  1  0  0  0  0
 11 15  1  0  0  0  0
 12 11  2  0  0  0  0
 13 12  1  0  0  0  0
 13 14  2  0  0  0  0
 14 18  1  0  0  0  0
 14 15  1  0  0  0  0
 16 12  1  0  0  0  0
 17 13  1  0  0  0  0
 19 20  2  0  0  0  0
 20 24  1  0  0  0  0
 21 20  1  0  0  0  0
 21 25  1  0  0  0  0
 22 21  1  0  0  0  0
 23 22  2  0  0  0  0
 23 19  1  0  0  0  0
 26 22  1  0  0  0  0
 26 34  1  0  0  0  0
 27 26  2  0  0  0  0
 28 27  1  0  0  0  0
 29 27  1  0  0  0  0
 29 30  2  0  0  0  0
 30 32  1  0  0  0  0
 31 30  1  0  0  0  0
 32 33  1  0  0  0  0
 32 34  2  0  0  0  0
M  END
>  <minimizedAffinity>
-5.20322371

$$$$

 OpenBabel03252503143D

 34 37  0  0  0  0  0  0  0  0999 V2000
   37.4930   30.9100   40.9470 C   0  0  0  0  0  0  0  0  0  0  0  0
   36.2870   31.3130   40.8580 O   0  0  0  0  0  0  0  0  0  0  0  0
   39.0930   32.7510   41.1140 C   0  0  0  0  0  0  0  0  0  0  0  0
   38.4680   31.7430   40.3520 C   0  0  0  0  0  0  0  0  0  0  0  0
   38.8900   31.6630   39.0290 C   0  0  0  0  0  0  0  0  0  0  0  0
   39.8210   32.4820   38.5220 N   0  0  0  0  0  0  0  0  0  0  0  0
   40.3960   33.4420   39.3030 C   0  0  0  0  0  0  0  0  0  0  0  0
   40.0310   33.5680   40.5850 N   0  0  0  0  0  0  0  0  0  0  0  0
   38.8290   32.8870   42.1520 H   0  0  0  0  0  0  0  0  0  0  0  0
   41.1370   34.0890   38.8920 H   0  0  0  0  0  0  0  0  0  0  0  0
   38.3140   30.6880   38.2030 C   0  0  0  0  0  0  0  0  0  0  0  0
   37.1940   30.6380   37.4180 C   0  0  0  0  0  0  0  0  0  0  0  0
   36.8660   29.5580   36.7180 C   0  0  0  0  0  0  0  0  0  0  0  0
   37.6960   28.4810   36.8080 C   0  0  0  0  0  0  0  0  0  0  0  0
   39.0080   29.0730   37.9640 S   0  0  0  0  0  0  0  0  0  0  0  0
   36.5890   31.5680   37.4160 H   0  0  0  0  0  0  0  0  0  0  0  0
   35.9990   29.4490   36.0790 H   0  0  0  0  0  0  0  0  0  0  0  0
   37.6800   27.5000   36.3630 H   0  0  0  0  0  0  0  0  0  0  0  0
   37.9010   29.6390   41.6320 C   0  0  0  0  0  0  0  0  0  0  0  0
   37.0580   28.7150   42.2060 C   0  0  0  0  0  0  0  0  0  0  0  0
   37.8670   27.7560   42.6890 N   0  0  0  0  0  0  0  0  0  0  0  0
   39.1570   28.0760   42.4220 C   0  0  0  0  0  0  0  0  0  0  0  0
   39.1890   29.2590   41.7570 N   0  0  0  0  0  0  0  0  0  0  0  0
   35.9880   28.8270   42.2170 H   0  0  0  0  0  0  0  0  0  0  0  0
   37.4750   26.9140   43.1860 H   0  0  0  0  0  0  0  0  0  0  0  0
   40.2990   27.2500   42.8050 C   0  0  0  0  0  0  0  0  0  0  0  0
   40.1880   25.8840   42.6240 C   0  0  0  0  0  0  0  0  0  0  0  0
   39.3110   25.3960   42.2160 H   0  0  0  0  0  0  0  0  0  0  0  0
   41.2660   25.0640   42.9810 C   0  0  0  0  0  3  0  0  0  0  0  0
   42.3970   25.6690   43.5030 C   0  0  0  0  0  0  0  0  0  0  0  0
   43.1880   24.9750   43.7570 H   0  0  0  0  0  0  0  0  0  0  0  0
   42.4920   27.0350   43.6790 C   0  0  0  0  0  0  0  0  0  0  0  0
   43.4060   27.4620   44.0950 H   0  0  0  0  0  0  0  0  0  0  0  0
   41.4330   27.8490   43.3270 C   0  0  0  0  0  3  0  0  0  0  0  0
  1 19  1  0  0  0  0
  2  1  2  0  0  0  0
  3  9  1  0  0  0  0
  4  1  1  0  0  0  0
  4  3  2  0  0  0  0
  5  4  1  0  0  0  0
  6  5  2  0  0  0  0
  6  7  1  0  0  0  0
  7  8  2  0  0  0  0
  8  3  1  0  0  0  0
 10  7  1  0  0  0  0
 11  5  1  0  0  0  0
 12 11  2  0  0  0  0
 13 14  2  0  0  0  0
 13 12  1  0  0  0  0
 14 15  1  0  0  0  0
 15 11  1  0  0  0  0
 16 12  1  0  0  0  0
 17 13  1  0  0  0  0
 18 14  1  0  0  0  0
 19 23  1  0  0  0  0
 19 20  2  0  0  0  0
 20 24  1  0  0  0  0
 20 21  1  0  0  0  0
 21 25  1  0  0  0  0
 22 21  1  0  0  0  0
 22 26  1  0  0  0  0
 23 22  2  0  0  0  0
 26 34  1  0  0  0  0
 27 26  2  0  0  0  0
 27 29  1  0  0  0  0
 28 27  1  0  0  0  0
 29 30  2  0  0  0  0
 30 32  1  0  0  0  0
 30 31  1  0  0  0  0
 32 33  1  0  0  0  0
 34 32  2  0  0  0  0
M  END
>  <minimizedAffinity>
-5.17182684

$$$$
