
 OpenBabel03252505223D

 28 30  0  0  0  0  0  0  0  0999 V2000
   38.5400   29.6550   41.0040 F   0  0  0  0  0  0  0  0  0  0  0  0
   37.6440   29.6450   39.9790 C   0  0  0  0  0  0  0  0  0  0  0  0
   37.5680   30.7580   39.1760 C   0  0  0  0  0  0  0  0  0  0  0  0
   36.6720   30.7510   38.1490 C   0  0  0  0  0  0  0  0  0  0  0  0
   35.8710   29.6470   37.9360 C   0  0  0  0  0  0  0  0  0  0  0  0
   35.9410   28.5350   38.7340 C   0  0  0  0  0  0  0  0  0  0  0  0
   36.8570   28.5440   39.7820 C   0  0  0  0  0  0  0  0  0  0  0  0
   36.6190   31.6320   37.5210 H   0  0  0  0  0  0  0  0  0  0  0  0
   35.1810   29.7060   37.1050 H   0  0  0  0  0  0  0  0  0  0  0  0
   35.2880   27.7000   38.5190 H   0  0  0  0  0  0  0  0  0  0  0  0
   40.4190   33.0490   39.0470 C   0  0  0  0  0  0  0  0  0  0  0  0
   40.0220   34.0910   39.9210 C   0  0  0  0  0  0  0  0  0  0  0  0
   38.7780   33.9750   40.5330 C   0  0  0  0  0  0  0  0  0  0  0  0
   38.0190   32.8820   40.2630 N   0  0  0  0  0  0  0  0  0  0  0  0
   38.4300   31.9100   39.4260 C   0  0  0  0  0  0  0  0  0  0  0  0
   39.6290   31.9940   38.8180 N   0  0  0  0  0  0  0  0  0  0  0  0
   41.3860   33.1610   38.5840 H   0  0  0  0  0  0  0  0  0  0  0  0
   40.6520   34.9600   40.1190 H   0  0  0  0  0  0  0  0  0  0  0  0
   38.4080   34.7370   41.2170 H   0  0  0  0  0  0  0  0  0  0  0  0
   36.9110   27.3560   40.6090 C   0  0  0  0  0  0  0  0  0  0  0  0
   36.8690   27.3880   41.9930 C   0  0  0  0  0  0  0  0  0  0  0  0
   36.7900   28.3670   42.4850 H   0  0  0  0  0  0  0  0  0  0  0  0
   36.9220   26.2400   42.7560 C   0  0  0  0  0  3  0  0  0  0  0  0
   37.0220   24.9850   42.1490 C   0  0  0  0  0  0  0  0  0  0  0  0
   37.0620   24.1080   42.7800 H   0  0  0  0  0  0  0  0  0  0  0  0
   37.0670   24.9180   40.7670 C   0  0  0  0  0  0  0  0  0  0  0  0
   37.1440   23.9520   40.2970 H   0  0  0  0  0  0  0  0  0  0  0  0
   37.0110   26.0780   40.0580 C   0  0  0  0  0  3  0  0  0  0  0  0
  2  1  1  0  0  0  0
  3 15  1  0  0  0  0
  3  2  2  0  0  0  0
  4  3  1  0  0  0  0
  5  4  2  0  0  0  0
  5  6  1  0  0  0  0
  6  7  2  0  0  0  0
  7  2  1  0  0  0  0
  7 20  1  0  0  0  0
  8  4  1  0  0  0  0
  9  5  1  0  0  0  0
 10  6  1  0  0  0  0
 11 12  1  0  0  0  0
 12 18  1  0  0  0  0
 12 13  2  0  0  0  0
 13 19  1  0  0  0  0
 14 13  1  0  0  0  0
 15 14  2  0  0  0  0
 16 11  2  0  0  0  0
 16 15  1  0  0  0  0
 17 11  1  0  0  0  0
 20 21  1  0  0  0  0
 21 22  1  0  0  0  0
 21 23  2  0  0  0  0
 24 23  1  0  0  0  0
 24 25  1  0  0  0  0
 26 24  2  0  0  0  0
 27 26  1  0  0  0  0
 28 20  2  0  0  0  0
 28 26  1  0  0  0  0
M  END
>  <minimizedAffinity>
-5.3282485

$$$$

 OpenBabel03252505223D

 28 30  0  0  0  0  0  0  0  0999 V2000
   40.3160   30.3880   41.2290 F   0  0  0  0  0  0  0  0  0  0  0  0
   39.2600   31.1270   40.7910 C   0  0  0  0  0  0  0  0  0  0  0  0
   39.5240   32.3090   40.1420 C   0  0  0  0  0  0  0  0  0  0  0  0
   38.4690   33.0520   39.7020 C   0  0  0  0  0  0  0  0  0  0  0  0
   37.1770   32.6130   39.9130 C   0  0  0  0  0  0  0  0  0  0  0  0
   36.9080   31.4350   40.5620 C   0  0  0  0  0  0  0  0  0  0  0  0
   37.9870   30.6790   41.0090 C   0  0  0  0  0  0  0  0  0  0  0  0
   38.6860   33.9820   39.1910 H   0  0  0  0  0  0  0  0  0  0  0  0
   36.3850   33.2490   39.5400 H   0  0  0  0  0  0  0  0  0  0  0  0
   35.8760   31.1430   40.6980 H   0  0  0  0  0  0  0  0  0  0  0  0
   42.8670   32.6680   38.6970 C   0  0  0  0  0  0  0  0  0  0  0  0
   43.4880   33.5920   39.5730 C   0  0  0  0  0  0  0  0  0  0  0  0
   42.7350   34.0680   40.6420 C   0  0  0  0  0  0  0  0  0  0  0  0
   41.4590   33.6260   40.7870 N   0  0  0  0  0  0  0  0  0  0  0  0
   40.9020   32.7470   39.9330 C   0  0  0  0  0  0  0  0  0  0  0  0
   41.6050   32.2680   38.8880 N   0  0  0  0  0  0  0  0  0  0  0  0
   43.4700   32.3140   37.8770 H   0  0  0  0  0  0  0  0  0  0  0  0
   44.5160   33.9310   39.4330 H   0  0  0  0  0  0  0  0  0  0  0  0
   43.1470   34.7800   41.3560 H   0  0  0  0  0  0  0  0  0  0  0  0
   37.6740   29.4390   41.6910 C   0  0  0  0  0  0  0  0  0  0  0  0
   37.8140   29.2640   43.0570 C   0  0  0  0  0  0  0  0  0  0  0  0
   38.1820   30.1110   43.6520 H   0  0  0  0  0  0  0  0  0  0  0  0
   37.5080   28.0710   43.6800 C   0  0  0  0  0  3  0  0  0  0  0  0
   37.0390   26.9820   42.9410 C   0  0  0  0  0  0  0  0  0  0  0  0
   36.8110   26.0630   43.4640 H   0  0  0  0  0  0  0  0  0  0  0  0
   36.8880   27.1230   41.5720 C   0  0  0  0  0  0  0  0  0  0  0  0
   36.5270   26.2850   41.0000 H   0  0  0  0  0  0  0  0  0  0  0  0
   37.2020   28.3190   41.0040 C   0  0  0  0  0  3  0  0  0  0  0  0
  2  7  1  0  0  0  0
  2  1  1  0  0  0  0
  3  2  2  0  0  0  0
  4  5  2  0  0  0  0
  4  3  1  0  0  0  0
  5  6  1  0  0  0  0
  6 10  1  0  0  0  0
  6  7  2  0  0  0  0
  7 20  1  0  0  0  0
  8  4  1  0  0  0  0
  9  5  1  0  0  0  0
 11 16  2  0  0  0  0
 11 12  1  0  0  0  0
 12 13  2  0  0  0  0
 13 14  1  0  0  0  0
 13 19  1  0  0  0  0
 15  3  1  0  0  0  0
 15 14  2  0  0  0  0
 16 15  1  0  0  0  0
 17 11  1  0  0  0  0
 18 12  1  0  0  0  0
 20 21  1  0  0  0  0
 21 22  1  0  0  0  0
 21 23  2  0  0  0  0
 24 25  1  0  0  0  0
 24 23  1  0  0  0  0
 26 24  2  0  0  0  0
 27 26  1  0  0  0  0
 28 26  1  0  0  0  0
 28 20  2  0  0  0  0
M  END
>  <minimizedAffinity>
-5.20162582

$$$$

 OpenBabel03252505223D

 28 30  0  0  0  0  0  0  0  0999 V2000
   37.9610   28.0750   39.7470 F   0  0  0  0  0  0  0  0  0  0  0  0
   37.6300   27.9650   41.0620 C   0  0  0  0  0  0  0  0  0  0  0  0
   37.6370   29.1060   41.8280 C   0  0  0  0  0  0  0  0  0  0  0  0
   37.3050   28.9990   43.1460 C   0  0  0  0  0  0  0  0  0  0  0  0
   36.9750   27.7700   43.6800 C   0  0  0  0  0  0  0  0  0  0  0  0
   36.9670   26.6280   42.9210 C   0  0  0  0  0  0  0  0  0  0  0  0
   37.3050   26.7400   41.5760 C   0  0  0  0  0  0  0  0  0  0  0  0
   37.3130   29.9030   43.7430 H   0  0  0  0  0  0  0  0  0  0  0  0
   36.7220   27.7530   44.7320 H   0  0  0  0  0  0  0  0  0  0  0  0
   36.6990   25.6930   43.3940 H   0  0  0  0  0  0  0  0  0  0  0  0
   39.5720   32.0420   40.8150 C   0  0  0  0  0  0  0  0  0  0  0  0
   38.6190   32.8150   40.1060 C   0  0  0  0  0  0  0  0  0  0  0  0
   37.3310   32.3000   39.9960 C   0  0  0  0  0  0  0  0  0  0  0  0
   37.0580   31.0990   40.5680 N   0  0  0  0  0  0  0  0  0  0  0  0
   37.9910   30.3930   41.2350 C   0  0  0  0  0  0  0  0  0  0  0  0
   39.2470   30.8640   41.3580 N   0  0  0  0  0  0  0  0  0  0  0  0
   40.5620   32.4610   40.8860 H   0  0  0  0  0  0  0  0  0  0  0  0
   38.8650   33.7780   39.6550 H   0  0  0  0  0  0  0  0  0  0  0  0
   36.5460   32.8390   39.4660 H   0  0  0  0  0  0  0  0  0  0  0  0
   37.2880   25.5180   40.7970 C   0  0  0  0  0  0  0  0  0  0  0  0
   36.5410   25.3610   39.6420 C   0  0  0  0  0  0  0  0  0  0  0  0
   35.9320   26.2090   39.3010 H   0  0  0  0  0  0  0  0  0  0  0  0
   36.5440   24.1850   38.9200 C   0  0  0  0  0  3  0  0  0  0  0  0
   37.3120   23.0950   39.3360 C   0  0  0  0  0  0  0  0  0  0  0  0
   37.2880   22.1900   38.7450 H   0  0  0  0  0  0  0  0  0  0  0  0
   38.0700   23.2180   40.4880 C   0  0  0  0  0  0  0  0  0  0  0  0
   38.6630   22.3800   40.8130 H   0  0  0  0  0  0  0  0  0  0  0  0
   38.0350   24.3980   41.1660 C   0  0  0  0  0  3  0  0  0  0  0  0
  1  2  1  0  0  0  0
  2  7  2  0  0  0  0
  2  3  1  0  0  0  0
  3  4  2  0  0  0  0
  4  5  1  0  0  0  0
  4  8  1  0  0  0  0
  5  9  1  0  0  0  0
  6 10  1  0  0  0  0
  6  5  2  0  0  0  0
  7  6  1  0  0  0  0
 11 17  1  0  0  0  0
 11 16  1  0  0  0  0
 12 11  2  0  0  0  0
 13 12  1  0  0  0  0
 13 14  2  0  0  0  0
 14 15  1  0  0  0  0
 15 16  2  0  0  0  0
 15  3  1  0  0  0  0
 18 12  1  0  0  0  0
 19 13  1  0  0  0  0
 20 28  1  0  0  0  0
 20  7  1  0  0  0  0
 21 20  2  0  0  0  0
 22 21  1  0  0  0  0
 23 24  2  0  0  0  0
 23 21  1  0  0  0  0
 24 26  1  0  0  0  0
 25 24  1  0  0  0  0
 26 27  1  0  0  0  0
 26 28  2  0  0  0  0
M  END
>  <minimizedAffinity>
-5.16238689

$$$$

 OpenBabel03252505223D

 28 30  0  0  0  0  0  0  0  0999 V2000
   36.9680   31.2440   37.7510 F   0  0  0  0  0  0  0  0  0  0  0  0
   36.5800   30.5450   38.8530 C   0  0  0  0  0  0  0  0  0  0  0  0
   37.1660   30.8560   40.0560 C   0  0  0  0  0  0  0  0  0  0  0  0
   36.7790   30.1590   41.1600 C   0  0  0  0  0  0  0  0  0  0  0  0
   35.8230   29.1680   41.0540 C   0  0  0  0  0  0  0  0  0  0  0  0
   35.2350   28.8520   39.8570 C   0  0  0  0  0  0  0  0  0  0  0  0
   35.6310   29.5670   38.7310 C   0  0  0  0  0  0  0  0  0  0  0  0
   37.2460   30.4100   42.1050 H   0  0  0  0  0  0  0  0  0  0  0  0
   35.5610   28.6520   41.9690 H   0  0  0  0  0  0  0  0  0  0  0  0
   34.4920   28.0670   39.8360 H   0  0  0  0  0  0  0  0  0  0  0  0
   38.7160   34.1590   40.3370 C   0  0  0  0  0  0  0  0  0  0  0  0
   40.1000   33.8610   40.2830 C   0  0  0  0  0  0  0  0  0  0  0  0
   40.4620   32.5240   40.1510 C   0  0  0  0  0  0  0  0  0  0  0  0
   39.4810   31.5870   40.0810 N   0  0  0  0  0  0  0  0  0  0  0  0
   38.1750   31.9090   40.1360 C   0  0  0  0  0  0  0  0  0  0  0  0
   37.7920   33.1950   40.2640 N   0  0  0  0  0  0  0  0  0  0  0  0
   38.4600   35.2010   40.4400 H   0  0  0  0  0  0  0  0  0  0  0  0
   40.8680   34.6340   40.3420 H   0  0  0  0  0  0  0  0  0  0  0  0
   41.5070   32.2200   40.1030 H   0  0  0  0  0  0  0  0  0  0  0  0
   34.9940   29.2130   37.4790 C   0  0  0  0  0  0  0  0  0  0  0  0
   35.6800   29.0870   36.2830 C   0  0  0  0  0  0  0  0  0  0  0  0
   36.7650   29.2650   36.2880 H   0  0  0  0  0  0  0  0  0  0  0  0
   35.0470   28.7480   35.1050 C   0  0  0  0  0  3  0  0  0  0  0  0
   33.6700   28.5180   35.0770 C   0  0  0  0  0  0  0  0  0  0  0  0
   33.2080   28.2560   34.1350 H   0  0  0  0  0  0  0  0  0  0  0  0
   32.9530   28.6370   36.2560 C   0  0  0  0  0  0  0  0  0  0  0  0
   31.8910   28.4600   36.2380 H   0  0  0  0  0  0  0  0  0  0  0  0
   33.6220   28.9720   37.3920 C   0  0  0  0  0  3  0  0  0  0  0  0
  1  2  1  0  0  0  0
  2  3  1  0  0  0  0
  3 15  1  0  0  0  0
  3  4  2  0  0  0  0
  4  8  1  0  0  0  0
  5  4  1  0  0  0  0
  5  9  1  0  0  0  0
  6  5  2  0  0  0  0
  7  2  2  0  0  0  0
  7  6  1  0  0  0  0
 10  6  1  0  0  0  0
 11 17  1  0  0  0  0
 12 11  1  0  0  0  0
 12 18  1  0  0  0  0
 13 12  2  0  0  0  0
 14 15  2  0  0  0  0
 14 13  1  0  0  0  0
 15 16  1  0  0  0  0
 16 11  2  0  0  0  0
 19 13  1  0  0  0  0
 20  7  1  0  0  0  0
 21 22  1  0  0  0  0
 21 20  2  0  0  0  0
 23 21  1  0  0  0  0
 24 23  2  0  0  0  0
 24 26  1  0  0  0  0
 25 24  1  0  0  0  0
 26 28  2  0  0  0  0
 27 26  1  0  0  0  0
 28 20  1  0  0  0  0
M  END
>  <minimizedAffinity>
-5.10631418

$$$$

 OpenBabel03252505223D

 28 30  0  0  0  0  0  0  0  0999 V2000
   39.1030   28.2990   39.7360 F   0  0  0  0  0  0  0  0  0  0  0  0
   37.9700   28.9840   40.0520 C   0  0  0  0  0  0  0  0  0  0  0  0
   37.9640   30.3450   39.8670 C   0  0  0  0  0  0  0  0  0  0  0  0
   36.8310   31.0330   40.1830 C   0  0  0  0  0  0  0  0  0  0  0  0
   35.7290   30.3640   40.6750 C   0  0  0  0  0  0  0  0  0  0  0  0
   35.7280   29.0060   40.8640 C   0  0  0  0  0  0  0  0  0  0  0  0
   36.8870   28.3050   40.5400 C   0  0  0  0  0  0  0  0  0  0  0  0
   36.8340   32.1060   40.0330 H   0  0  0  0  0  0  0  0  0  0  0  0
   34.8610   30.9680   40.9070 H   0  0  0  0  0  0  0  0  0  0  0  0
   34.8360   28.5360   41.2530 H   0  0  0  0  0  0  0  0  0  0  0  0
   40.3080   31.9360   37.5500 C   0  0  0  0  0  0  0  0  0  0  0  0
   41.3830   32.3040   38.3970 C   0  0  0  0  0  0  0  0  0  0  0  0
   41.2690   31.9940   39.7490 C   0  0  0  0  0  0  0  0  0  0  0  0
   40.1470   31.3610   40.1790 N   0  0  0  0  0  0  0  0  0  0  0  0
   39.1460   31.0250   39.3440 C   0  0  0  0  0  0  0  0  0  0  0  0
   39.2260   31.3130   38.0300 N   0  0  0  0  0  0  0  0  0  0  0  0
   40.4190   32.1870   36.5080 H   0  0  0  0  0  0  0  0  0  0  0  0
   42.2730   32.8140   38.0250 H   0  0  0  0  0  0  0  0  0  0  0  0
   42.0550   32.2470   40.4580 H   0  0  0  0  0  0  0  0  0  0  0  0
   36.8600   26.8720   40.7480 C   0  0  0  0  0  0  0  0  0  0  0  0
   37.1150   26.2740   41.9710 C   0  0  0  0  0  0  0  0  0  0  0  0
   37.3500   26.9240   42.8250 H   0  0  0  0  0  0  0  0  0  0  0  0
   37.0820   24.9050   42.1400 C   0  0  0  0  0  3  0  0  0  0  0  0
   36.7860   24.0620   41.0670 C   0  0  0  0  0  0  0  0  0  0  0  0
   36.7710   22.9940   41.2380 H   0  0  0  0  0  0  0  0  0  0  0  0
   36.5260   24.6270   39.8300 C   0  0  0  0  0  0  0  0  0  0  0  0
   36.2970   23.9790   39.0000 H   0  0  0  0  0  0  0  0  0  0  0  0
   36.5700   25.9820   39.7130 C   0  0  0  0  0  3  0  0  0  0  0  0
  1  2  1  0  0  0  0
  2  7  1  0  0  0  0
  3  2  2  0  0  0  0
  3  4  1  0  0  0  0
  4  5  2  0  0  0  0
  5  6  1  0  0  0  0
  5  9  1  0  0  0  0
  6 10  1  0  0  0  0
  7 20  1  0  0  0  0
  7  6  2  0  0  0  0
  8  4  1  0  0  0  0
 11 16  2  0  0  0  0
 11 12  1  0  0  0  0
 12 13  2  0  0  0  0
 13 14  1  0  0  0  0
 13 19  1  0  0  0  0
 15  3  1  0  0  0  0
 15 14  2  0  0  0  0
 16 15  1  0  0  0  0
 17 11  1  0  0  0  0
 18 12  1  0  0  0  0
 20 21  1  0  0  0  0
 21 23  2  0  0  0  0
 21 22  1  0  0  0  0
 24 25  1  0  0  0  0
 24 23  1  0  0  0  0
 26 24  2  0  0  0  0
 27 26  1  0  0  0  0
 28 26  1  0  0  0  0
 28 20  2  0  0  0  0
M  END
>  <minimizedAffinity>
-5.07594681

$$$$

 OpenBabel03252505223D

 28 30  0  0  0  0  0  0  0  0999 V2000
   37.9740   27.8520   39.6460 F   0  0  0  0  0  0  0  0  0  0  0  0
   37.8200   27.9200   40.9960 C   0  0  0  0  0  0  0  0  0  0  0  0
   37.8120   29.1620   41.5840 C   0  0  0  0  0  0  0  0  0  0  0  0
   37.6580   29.2340   42.9360 C   0  0  0  0  0  0  0  0  0  0  0  0
   37.5160   28.0790   43.6790 C   0  0  0  0  0  0  0  0  0  0  0  0
   37.5250   26.8370   43.0990 C   0  0  0  0  0  0  0  0  0  0  0  0
   37.6820   26.7660   41.7180 C   0  0  0  0  0  0  0  0  0  0  0  0
   37.6520   30.2170   43.3920 H   0  0  0  0  0  0  0  0  0  0  0  0
   37.3990   28.2050   44.7480 H   0  0  0  0  0  0  0  0  0  0  0  0
   37.4100   25.9680   43.7330 H   0  0  0  0  0  0  0  0  0  0  0  0
   37.0100   32.1350   39.6070 C   0  0  0  0  0  0  0  0  0  0  0  0
   38.2890   32.6240   39.2440 C   0  0  0  0  0  0  0  0  0  0  0  0
   39.3970   31.9130   39.6940 C   0  0  0  0  0  0  0  0  0  0  0  0
   39.1960   30.8010   40.4470 N   0  0  0  0  0  0  0  0  0  0  0  0
   37.9640   30.3660   40.7710 C   0  0  0  0  0  0  0  0  0  0  0  0
   36.8710   31.0320   40.3520 N   0  0  0  0  0  0  0  0  0  0  0  0
   36.1660   32.7020   39.2480 H   0  0  0  0  0  0  0  0  0  0  0  0
   38.4220   33.5220   38.6380 H   0  0  0  0  0  0  0  0  0  0  0  0
   40.4110   32.2300   39.4540 H   0  0  0  0  0  0  0  0  0  0  0  0
   37.6870   25.4420   41.1310 C   0  0  0  0  0  0  0  0  0  0  0  0
   38.8420   24.7120   40.9060 C   0  0  0  0  0  0  0  0  0  0  0  0
   39.8030   25.1640   41.1900 H   0  0  0  0  0  0  0  0  0  0  0  0
   38.8170   23.4520   40.3450 C   0  0  0  0  0  3  0  0  0  0  0  0
   37.6070   22.8600   39.9780 C   0  0  0  0  0  0  0  0  0  0  0  0
   37.6270   21.8710   39.5400 H   0  0  0  0  0  0  0  0  0  0  0  0
   36.4320   23.5630   40.1880 C   0  0  0  0  0  0  0  0  0  0  0  0
   35.4980   23.1090   39.9050 H   0  0  0  0  0  0  0  0  0  0  0  0
   36.5080   24.8020   40.7450 C   0  0  0  0  0  3  0  0  0  0  0  0
  1  2  1  0  0  0  0
  2  3  2  0  0  0  0
  2  7  1  0  0  0  0
  3  4  1  0  0  0  0
  4  8  1  0  0  0  0
  4  5  2  0  0  0  0
  5  9  1  0  0  0  0
  6  5  1  0  0  0  0
  6 10  1  0  0  0  0
  7  6  2  0  0  0  0
 11 16  1  0  0  0  0
 12 11  2  0  0  0  0
 12 13  1  0  0  0  0
 13 14  2  0  0  0  0
 14 15  1  0  0  0  0
 15  3  1  0  0  0  0
 16 15  2  0  0  0  0
 17 11  1  0  0  0  0
 18 12  1  0  0  0  0
 19 13  1  0  0  0  0
 20  7  1  0  0  0  0
 21 20  1  0  0  0  0
 21 22  1  0  0  0  0
 23 21  2  0  0  0  0
 24 26  2  0  0  0  0
 24 23  1  0  0  0  0
 25 24  1  0  0  0  0
 26 28  1  0  0  0  0
 27 26  1  0  0  0  0
 28 20  2  0  0  0  0
M  END
>  <minimizedAffinity>
-5.04885387

$$$$

 OpenBabel03252505223D

 28 30  0  0  0  0  0  0  0  0999 V2000
   38.5970   29.3900   40.3440 F   0  0  0  0  0  0  0  0  0  0  0  0
   38.0950   28.7570   41.4400 C   0  0  0  0  0  0  0  0  0  0  0  0
   38.8710   28.7110   42.5730 C   0  0  0  0  0  0  0  0  0  0  0  0
   38.3710   28.0780   43.6710 C   0  0  0  0  0  0  0  0  0  0  0  0
   37.1160   27.5040   43.6280 C   0  0  0  0  0  0  0  0  0  0  0  0
   36.3370   27.5450   42.5010 C   0  0  0  0  0  0  0  0  0  0  0  0
   36.8500   28.1920   41.3810 C   0  0  0  0  0  0  0  0  0  0  0  0
   38.9890   28.0470   44.5600 H   0  0  0  0  0  0  0  0  0  0  0  0
   36.7780   27.0170   44.5340 H   0  0  0  0  0  0  0  0  0  0  0  0
   35.3620   27.0780   42.5270 H   0  0  0  0  0  0  0  0  0  0  0  0
   42.5070   29.1210   42.5030 C   0  0  0  0  0  0  0  0  0  0  0  0
   42.6650   30.5240   42.6180 C   0  0  0  0  0  0  0  0  0  0  0  0
   41.5100   31.2930   42.7170 C   0  0  0  0  0  0  0  0  0  0  0  0
   40.3060   30.6650   42.6980 N   0  0  0  0  0  0  0  0  0  0  0  0
   40.1950   29.3280   42.5870 C   0  0  0  0  0  0  0  0  0  0  0  0
   41.2940   28.5560   42.4890 N   0  0  0  0  0  0  0  0  0  0  0  0
   43.4160   28.5460   42.4270 H   0  0  0  0  0  0  0  0  0  0  0  0
   43.6460   31.0030   42.6300 H   0  0  0  0  0  0  0  0  0  0  0  0
   41.5550   32.3780   42.8090 H   0  0  0  0  0  0  0  0  0  0  0  0
   36.0060   28.2220   40.2040 C   0  0  0  0  0  0  0  0  0  0  0  0
   36.1950   27.3950   39.1090 C   0  0  0  0  0  0  0  0  0  0  0  0
   37.0290   26.6800   39.1400 H   0  0  0  0  0  0  0  0  0  0  0  0
   35.3750   27.4450   38.0010 C   0  0  0  0  0  3  0  0  0  0  0  0
   34.3100   28.3460   37.9430 C   0  0  0  0  0  0  0  0  0  0  0  0
   33.6900   28.3570   37.0570 H   0  0  0  0  0  0  0  0  0  0  0  0
   34.0930   29.1890   39.0200 C   0  0  0  0  0  0  0  0  0  0  0  0
   33.2730   29.8850   38.9790 H   0  0  0  0  0  0  0  0  0  0  0  0
   34.9280   29.1010   40.0910 C   0  0  0  0  0  3  0  0  0  0  0  0
  1  2  1  0  0  0  0
  2  3  1  0  0  0  0
  3 15  1  0  0  0  0
  3  4  2  0  0  0  0
  4  8  1  0  0  0  0
  5  4  1  0  0  0  0
  5  9  1  0  0  0  0
  6 10  1  0  0  0  0
  6  5  2  0  0  0  0
  7  2  2  0  0  0  0
  7  6  1  0  0  0  0
 11 12  1  0  0  0  0
 12 18  1  0  0  0  0
 12 13  2  0  0  0  0
 13 19  1  0  0  0  0
 14 13  1  0  0  0  0
 15 14  2  0  0  0  0
 16 11  2  0  0  0  0
 16 15  1  0  0  0  0
 17 11  1  0  0  0  0
 20  7  1  0  0  0  0
 21 22  1  0  0  0  0
 21 20  2  0  0  0  0
 23 21  1  0  0  0  0
 24 23  2  0  0  0  0
 24 26  1  0  0  0  0
 25 24  1  0  0  0  0
 26 28  2  0  0  0  0
 27 26  1  0  0  0  0
 28 20  1  0  0  0  0
M  END
>  <minimizedAffinity>
-5.04880762

$$$$

 OpenBabel03252505223D

 28 30  0  0  0  0  0  0  0  0999 V2000
   37.8040   27.0740   39.9760 F   0  0  0  0  0  0  0  0  0  0  0  0
   38.3560   26.9530   41.2150 C   0  0  0  0  0  0  0  0  0  0  0  0
   38.4520   28.0820   41.9920 C   0  0  0  0  0  0  0  0  0  0  0  0
   39.0040   27.9650   43.2330 C   0  0  0  0  0  0  0  0  0  0  0  0
   39.4490   26.7360   43.6790 C   0  0  0  0  0  0  0  0  0  0  0  0
   39.3570   25.6070   42.9080 C   0  0  0  0  0  0  0  0  0  0  0  0
   38.7930   25.7290   41.6420 C   0  0  0  0  0  0  0  0  0  0  0  0
   39.0760   28.8590   43.8400 H   0  0  0  0  0  0  0  0  0  0  0  0
   39.8770   26.7110   44.6730 H   0  0  0  0  0  0  0  0  0  0  0  0
   39.7230   24.6720   43.3110 H   0  0  0  0  0  0  0  0  0  0  0  0
   36.2080   30.7940   40.9900 C   0  0  0  0  0  0  0  0  0  0  0  0
   37.1070   31.7950   40.5460 C   0  0  0  0  0  0  0  0  0  0  0  0
   38.4670   31.5070   40.6050 C   0  0  0  0  0  0  0  0  0  0  0  0
   38.8560   30.2950   41.0800 N   0  0  0  0  0  0  0  0  0  0  0  0
   37.9720   29.3680   41.4920 C   0  0  0  0  0  0  0  0  0  0  0  0
   36.6480   29.6160   41.4480 N   0  0  0  0  0  0  0  0  0  0  0  0
   35.1600   31.0400   40.9350 H   0  0  0  0  0  0  0  0  0  0  0  0
   36.7670   32.7620   40.1700 H   0  0  0  0  0  0  0  0  0  0  0  0
   39.2160   32.2290   40.2810 H   0  0  0  0  0  0  0  0  0  0  0  0
   38.7070   24.5200   40.8480 C   0  0  0  0  0  0  0  0  0  0  0  0
   37.7910   23.5110   41.0930 C   0  0  0  0  0  0  0  0  0  0  0  0
   37.0950   23.6380   41.9340 H   0  0  0  0  0  0  0  0  0  0  0  0
   37.7320   22.3700   40.3200 C   0  0  0  0  0  3  0  0  0  0  0  0
   38.6080   22.1900   39.2470 C   0  0  0  0  0  0  0  0  0  0  0  0
   38.5310   21.2820   38.6650 H   0  0  0  0  0  0  0  0  0  0  0  0
   39.5370   23.1800   38.9750 C   0  0  0  0  0  0  0  0  0  0  0  0
   40.2130   23.0440   38.1490 H   0  0  0  0  0  0  0  0  0  0  0  0
   39.5560   24.2870   39.7650 C   0  0  0  0  0  3  0  0  0  0  0  0
  1  2  1  0  0  0  0
  2  7  2  0  0  0  0
  2  3  1  0  0  0  0
  3  4  2  0  0  0  0
  4  5  1  0  0  0  0
  4  8  1  0  0  0  0
  5  9  1  0  0  0  0
  6 10  1  0  0  0  0
  6  5  2  0  0  0  0
  7  6  1  0  0  0  0
 11 16  1  0  0  0  0
 12 13  1  0  0  0  0
 12 11  2  0  0  0  0
 13 14  2  0  0  0  0
 14 15  1  0  0  0  0
 15  3  1  0  0  0  0
 16 15  2  0  0  0  0
 17 11  1  0  0  0  0
 18 12  1  0  0  0  0
 19 13  1  0  0  0  0
 20 21  1  0  0  0  0
 20  7  1  0  0  0  0
 21 22  1  0  0  0  0
 23 21  2  0  0  0  0
 24 23  1  0  0  0  0
 25 24  1  0  0  0  0
 26 24  2  0  0  0  0
 26 28  1  0  0  0  0
 27 26  1  0  0  0  0
 28 20  2  0  0  0  0
M  END
>  <minimizedAffinity>
-5.03098965

$$$$

 OpenBabel03252505223D

 28 30  0  0  0  0  0  0  0  0999 V2000
   36.3250   26.5910   39.0180 F   0  0  0  0  0  0  0  0  0  0  0  0
   36.3510   27.7100   39.7910 C   0  0  0  0  0  0  0  0  0  0  0  0
   37.0550   27.6660   40.9700 C   0  0  0  0  0  0  0  0  0  0  0  0
   37.0830   28.7860   41.7470 C   0  0  0  0  0  0  0  0  0  0  0  0
   36.4140   29.9250   41.3430 C   0  0  0  0  0  0  0  0  0  0  0  0
   35.7090   29.9750   40.1690 C   0  0  0  0  0  0  0  0  0  0  0  0
   35.6830   28.8300   39.3780 C   0  0  0  0  0  0  0  0  0  0  0  0
   37.6400   28.7430   42.6740 H   0  0  0  0  0  0  0  0  0  0  0  0
   36.4750   30.7790   42.0050 H   0  0  0  0  0  0  0  0  0  0  0  0
   35.2050   30.8950   39.9060 H   0  0  0  0  0  0  0  0  0  0  0  0
   37.6880   24.2790   42.2030 C   0  0  0  0  0  0  0  0  0  0  0  0
   39.0970   24.1710   42.1110 C   0  0  0  0  0  0  0  0  0  0  0  0
   39.7940   25.2730   41.6240 C   0  0  0  0  0  0  0  0  0  0  0  0
   39.0930   26.3810   41.2680 N   0  0  0  0  0  0  0  0  0  0  0  0
   37.7520   26.4470   41.3700 C   0  0  0  0  0  0  0  0  0  0  0  0
   37.0490   25.3960   41.8370 N   0  0  0  0  0  0  0  0  0  0  0  0
   37.1700   23.4130   42.5820 H   0  0  0  0  0  0  0  0  0  0  0  0
   39.6360   23.2680   42.4040 H   0  0  0  0  0  0  0  0  0  0  0  0
   40.8790   25.2630   41.5260 H   0  0  0  0  0  0  0  0  0  0  0  0
   34.9310   28.9110   38.1420 C   0  0  0  0  0  0  0  0  0  0  0  0
   33.5480   28.8620   38.0870 C   0  0  0  0  0  0  0  0  0  0  0  0
   32.9960   28.7560   39.0320 H   0  0  0  0  0  0  0  0  0  0  0  0
   32.8570   28.9410   36.8950 C   0  0  0  0  0  3  0  0  0  0  0  0
   33.5400   29.0740   35.6840 C   0  0  0  0  0  0  0  0  0  0  0  0
   32.9650   29.1320   34.7700 H   0  0  0  0  0  0  0  0  0  0  0  0
   34.9240   29.1260   35.7030 C   0  0  0  0  0  0  0  0  0  0  0  0
   35.4530   29.2290   34.7720 H   0  0  0  0  0  0  0  0  0  0  0  0
   35.5600   29.0450   36.9040 C   0  0  0  0  0  3  0  0  0  0  0  0
  1  2  1  0  0  0  0
  2  3  1  0  0  0  0
  3 15  1  0  0  0  0
  3  4  2  0  0  0  0
  4  8  1  0  0  0  0
  5  4  1  0  0  0  0
  5  9  1  0  0  0  0
  6  5  2  0  0  0  0
  7  2  2  0  0  0  0
  7  6  1  0  0  0  0
 10  6  1  0  0  0  0
 11 17  1  0  0  0  0
 12 11  1  0  0  0  0
 12 18  1  0  0  0  0
 13 12  2  0  0  0  0
 14 15  2  0  0  0  0
 14 13  1  0  0  0  0
 15 16  1  0  0  0  0
 16 11  2  0  0  0  0
 19 13  1  0  0  0  0
 20  7  1  0  0  0  0
 21 20  1  0  0  0  0
 21 22  1  0  0  0  0
 23 21  2  0  0  0  0
 24 26  2  0  0  0  0
 24 23  1  0  0  0  0
 25 24  1  0  0  0  0
 26 28  1  0  0  0  0
 27 26  1  0  0  0  0
 28 20  2  0  0  0  0
M  END
>  <minimizedAffinity>
-5.03052807

$$$$
