
 OpenBabel03242510363D

 21 22  0  0  0  0  0  0  0  0999 V2000
   44.5200   35.7950   44.7310 C   0  0  0  0  0  0  0  0  0  0  0  0
   45.1890   35.7410   43.4780 C   0  0  0  0  0  0  0  0  0  0  0  0
   46.1300   34.7250   43.3160 C   0  0  0  0  0  0  0  0  0  0  0  0
   46.3650   33.8470   44.3400 N   0  0  0  0  0  0  0  0  0  0  0  0
   45.6930   33.9520   45.5150 C   0  0  0  0  0  0  0  0  0  0  0  0
   44.7830   34.9110   45.7120 N   0  0  0  0  0  0  0  0  0  0  0  0
   43.7940   36.5910   44.8360 H   0  0  0  0  0  0  0  0  0  0  0  0
   44.9540   36.4620   42.7170 H   0  0  0  0  0  0  0  0  0  0  0  0
   45.9830   32.9910   46.5720 C   0  0  0  0  0  0  0  0  0  0  0  0
   45.1780   32.9240   47.6880 C   0  0  0  0  0  0  0  0  0  0  0  0
   44.3320   33.6200   47.7240 H   0  0  0  0  0  0  0  0  0  0  0  0
   45.4250   32.0210   48.7130 C   0  0  0  0  0  0  0  0  0  0  0  0
   46.5100   31.1650   48.6100 C   0  0  0  0  0  0  0  0  0  0  0  0
   46.7260   30.4530   49.3910 H   0  0  0  0  0  0  0  0  0  0  0  0
   47.2730   31.2710   47.4920 C   0  0  0  0  0  0  0  0  0  0  0  0
   48.1210   30.6010   47.4120 H   0  0  0  0  0  0  0  0  0  0  0  0
   47.0860   32.1460   46.4310 C   0  0  0  0  0  0  0  0  0  0  0  0
   46.7980   34.7020   42.0080 C   0  0  0  0  0  0  0  0  0  0  0  0
   47.5680   33.5460   41.9160 F   0  0  0  0  0  0  0  0  0  0  0  0
   47.6900   35.7480   41.9880 F   0  0  0  0  0  0  0  0  0  0  0  0
   45.9270   34.7090   40.9570 F   0  0  0  0  0  0  0  0  0  0  0  0
  1  7  1  0  0  0  0
  1  6  1  0  0  0  0
  2  1  2  0  0  0  0
  3  2  1  0  0  0  0
  3  4  2  0  0  0  0
  4  5  1  0  0  0  0
  5  6  2  0  0  0  0
  5  9  1  0  0  0  0
  8  2  1  0  0  0  0
  9 10  1  0  0  0  0
 10 11  1  0  0  0  0
 10 12  2  0  0  0  0
 13 12  1  0  0  0  0
 13 14  1  0  0  0  0
 15 13  2  0  0  0  0
 16 15  1  0  0  0  0
 17  9  2  0  0  0  0
 17 15  1  0  0  0  0
 18  3  1  0  0  0  0
 19 18  1  0  0  0  0
 20 18  1  0  0  0  0
 21 18  1  0  0  0  0
M  END
>  <minimizedAffinity>
-5.56975412

>  <minimizedRMSD>
0.665860772

$$$$
