
 OpenBabel03252508553D

 43 46  0  0  1  0  0  0  0  0999 V2000
   43.2110   34.3380   40.6160 C   0  0  0  0  0  0  0  0  0  0  0  0
   43.1870   35.4970   40.0730 O   0  0  0  0  0  0  0  0  0  0  0  0
   41.8280   33.9470   40.4320 N   0  0  0  0  0  0  0  0  0  0  0  0
   41.3960   33.8790   39.0510 C   0  0  0  0  0  0  0  0  0  0  0  0
   40.6330   35.1980   38.8130 C   0  0  0  0  0  0  0  0  0  0  0  0
   39.9090   35.5210   40.1310 C   0  0  0  0  0  0  0  0  0  0  0  0
   39.5430   34.2520   40.8700 C   0  0  0  0  0  0  0  0  0  0  0  0
   40.8180   33.6180   41.4190 C   0  0  1  0  0  0  0  0  0  0  0  0
   42.2250   33.7630   38.3330 H   0  0  0  0  0  0  0  0  0  0  0  0
   40.6450   33.0660   38.8840 H   0  0  0  0  0  0  0  0  0  0  0  0
   41.3370   36.0360   38.6200 H   0  0  0  0  0  0  0  0  0  0  0  0
   39.9370   35.0980   37.9700 H   0  0  0  0  0  0  0  0  0  0  0  0
   40.5510   36.1190   40.7950 H   0  0  0  0  0  0  0  0  0  0  0  0
   38.9360   36.0180   39.8940 H   0  0  0  0  0  0  0  0  0  0  0  0
   39.0410   33.6120   40.1220 H   0  0  0  0  0  0  0  0  0  0  0  0
   38.8850   34.5610   41.7040 H   0  0  0  0  0  0  0  0  0  0  0  0
   41.0730   34.1940   42.3360 H   0  0  0  0  0  0  0  0  0  0  0  0
   40.6680   32.1870   41.6900 C   0  0  0  0  0  0  0  0  0  0  0  0
   39.4170   31.6510   41.4330 C   0  0  0  0  0  0  0  0  0  0  0  0
   38.5860   32.2230   41.0570 H   0  0  0  0  0  0  0  0  0  0  0  0
   39.1170   30.3260   41.6340 C   0  0  0  0  0  3  0  0  0  0  0  0
   40.0870   29.4700   42.1130 C   0  0  0  0  0  0  0  0  0  0  0  0
   39.8660   28.4200   42.2780 H   0  0  0  0  0  0  0  0  0  0  0  0
   41.3600   29.9730   42.3850 C   0  0  0  0  0  0  0  0  0  0  0  0
   42.1490   29.3340   42.7630 H   0  0  0  0  0  0  0  0  0  0  0  0
   41.6150   31.3110   42.1670 C   0  0  0  0  0  3  0  0  0  0  0  0
   44.2870   33.7310   41.1780 O   0  0  0  0  0  0  0  0  0  0  0  0
   45.6150   34.0120   40.9760 C   0  0  0  0  0  0  0  0  0  0  0  0
   46.3020   34.6360   42.0290 C   0  0  0  0  0  0  0  0  0  0  0  0
   47.6620   34.9120   41.7990 C   0  0  0  0  0  0  0  0  0  0  0  0
   48.2140   34.5670   40.5970 N   0  0  0  0  0  0  0  0  0  0  0  0
   47.5050   33.9780   39.6430 C   0  0  0  0  0  0  0  0  0  0  0  0
   46.2060   33.6970   39.8250 N   0  0  0  0  0  0  0  0  0  0  0  0
   48.1750   35.3890   42.6100 H   0  0  0  0  0  0  0  0  0  0  0  0
   48.0150   33.7390   38.7300 H   0  0  0  0  0  0  0  0  0  0  0  0
   45.6210   34.9580   43.2600 C   0  0  0  0  0  0  0  0  0  0  0  0
   45.0130   36.1880   43.4910 C   0  0  0  0  0  0  0  0  0  0  0  0
   44.4990   36.0650   44.7550 C   0  0  0  0  0  0  0  0  0  0  0  0
   44.7720   34.8460   45.2630 N   0  0  0  0  0  0  0  0  0  0  0  0
   45.4430   34.2090   44.3410 N   0  0  0  0  0  0  0  0  0  0  0  0
   44.9810   37.0250   42.7990 H   0  0  0  0  0  0  0  0  0  0  0  0
   43.9460   36.8400   45.2860 H   0  0  0  0  0  0  0  0  0  0  0  0
   44.5360   34.4160   46.1850 H   0  0  0  0  0  0  0  0  0  0  0  0
  1 27  1  0  0  0  0
  2  1  2  0  0  0  0
  3  1  1  0  0  0  0
  3  8  1  0  0  0  0
  4  3  1  0  0  0  0
  5  4  1  0  0  0  0
  5  6  1  0  0  0  0
  6 13  1  0  0  0  0
  6  7  1  0  0  0  0
  7  8  1  0  0  0  0
  7 16  1  0  0  0  0
  8 18  1  0  0  0  0
  8 17  1  1  0  0  0
  9  4  1  0  0  0  0
 10  4  1  0  0  0  0
 11  5  1  0  0  0  0
 12  5  1  0  0  0  0
 14  6  1  0  0  0  0
 15  7  1  0  0  0  0
 18 26  1  0  0  0  0
 19 21  1  0  0  0  0
 19 18  2  0  0  0  0
 20 19  1  0  0  0  0
 21 22  2  0  0  0  0
 22 23  1  0  0  0  0
 22 24  1  0  0  0  0
 24 25  1  0  0  0  0
 26 24  2  0  0  0  0
 28 27  1  0  0  0  0
 28 29  1  0  0  0  0
 29 36  1  0  0  0  0
 30 29  2  0  0  0  0
 30 34  1  0  0  0  0
 31 30  1  0  0  0  0
 32 33  1  0  0  0  0
 32 31  2  0  0  0  0
 33 28  2  0  0  0  0
 35 32  1  0  0  0  0
 36 37  1  0  0  0  0
 36 40  2  0  0  0  0
 37 38  2  0  0  0  0
 38 39  1  0  0  0  0
 38 42  1  0  0  0  0
 39 43  1  0  0  0  0
 40 39  1  0  0  0  0
 41 37  1  0  0  0  0
M  END
>  <minimizedAffinity>
-6.76178026

>  <minimizedRMSD>
0.815658152

$$$$
