
 OpenBabel03242518033D

 37 39  0  0  0  0  0  0  0  0999 V2000
   33.5190   28.8860   36.6740 C   0  0  0  0  0  0  0  0  0  0  0  0
   33.8540   29.8600   36.2030 H   0  0  0  0  0  0  0  0  0  0  0  0
   33.6480   28.1530   35.8770 H   0  0  0  0  0  0  0  0  0  0  0  0
   35.4600   27.8870   37.8350 C   0  0  0  0  0  0  0  0  0  0  0  0
   34.3050   28.7050   37.8810 C   0  0  0  0  0  0  0  0  0  0  0  0
   33.9760   29.2980   39.1000 C   0  0  0  0  0  0  0  0  0  0  0  0
   34.7770   29.0550   40.1560 N   0  0  0  0  0  0  0  0  0  0  0  0
   35.8690   28.2780   40.1010 C   0  0  0  0  0  0  0  0  0  0  0  0
   36.1960   27.7070   38.9470 N   0  0  0  0  0  0  0  0  0  0  0  0
   35.8020   27.3870   36.9530 H   0  0  0  0  0  0  0  0  0  0  0  0
   33.1050   29.9070   39.1070 H   0  0  0  0  0  0  0  0  0  0  0  0
   36.6730   28.0780   41.3100 C   0  0  0  0  0  0  0  0  0  0  0  0
   37.0730   29.1760   42.0430 C   0  0  0  0  0  0  0  0  0  0  0  0
   36.7690   30.1470   41.6860 H   0  0  0  0  0  0  0  0  0  0  0  0
   37.8370   29.0210   43.1950 C   0  0  0  0  0  3  0  0  0  0  0  0
   38.1630   27.7260   43.5530 C   0  0  0  0  0  0  0  0  0  0  0  0
   38.7660   27.6430   44.4670 H   0  0  0  0  0  0  0  0  0  0  0  0
   37.7800   26.6060   42.8410 C   0  0  0  0  0  0  0  0  0  0  0  0
   38.0800   25.6110   43.1910 H   0  0  0  0  0  0  0  0  0  0  0  0
   37.0150   26.7960   41.6920 C   0  0  0  0  0  3  0  0  0  0  0  0
   32.0820   29.1400   37.0830 C   0  0  0  0  0  0  0  0  0  0  0  0
   31.9510   29.2230   38.1880 H   0  0  0  0  0  0  0  0  0  0  0  0
   31.4440   28.2430   36.8240 H   0  0  0  0  0  0  0  0  0  0  0  0
   30.3860   30.9130   36.9130 C   0  0  0  0  0  0  0  0  0  0  0  0
   31.4470   30.2460   36.3280 C   0  0  0  0  0  0  0  0  0  0  0  0
   31.9430   30.5510   35.0890 C   0  0  0  0  0  0  0  0  0  0  0  0
   31.3530   31.5790   34.3870 C   0  0  0  0  0  0  0  0  0  0  0  0
   30.3020   32.2960   34.8780 C   0  0  0  0  0  0  0  0  0  0  0  0
   29.8530   31.9290   36.1410 C   0  0  0  0  0  0  0  0  0  0  0  0
   32.7480   30.0710   34.6040 H   0  0  0  0  0  0  0  0  0  0  0  0
   31.7030   31.8650   33.4000 H   0  0  0  0  0  0  0  0  0  0  0  0
   29.7960   33.1160   34.3690 H   0  0  0  0  0  0  0  0  0  0  0  0
   29.0150   32.4860   36.5550 H   0  0  0  0  0  0  0  0  0  0  0  0
   29.7260   30.5600   38.4800 S   0  0  0  0  0  0  0  0  0  0  0  0
   28.8680   29.3280   38.4920 O   0  0  0  0  0  0  0  0  0  0  0  0
   28.7780   31.6940   38.8690 O   0  0  0  0  0  0  0  0  0  0  0  0
   30.6570   30.5540   39.4850 H   0  0  0  0  0  0  0  0  0  0  0  0
  1 21  1  0  0  0  0
  1  5  1  0  0  0  0
  2  1  1  0  0  0  0
  3  1  1  0  0  0  0
  4  5  2  0  0  0  0
  4  9  1  0  0  0  0
  5  6  1  0  0  0  0
  6 11  1  0  0  0  0
  6  7  2  0  0  0  0
  8  7  1  0  0  0  0
  8 12  1  0  0  0  0
  9  8  2  0  0  0  0
 10  4  1  0  0  0  0
 12 20  2  0  0  0  0
 12 13  1  0  0  0  0
 13 15  2  0  0  0  0
 14 13  1  0  0  0  0
 15 16  1  0  0  0  0
 16 17  1  0  0  0  0
 18 19  1  0  0  0  0
 18 16  2  0  0  0  0
 20 18  1  0  0  0  0
 21 22  1  0  0  0  0
 23 21  1  0  0  0  0
 24 34  1  0  0  0  0
 25 24  1  0  0  0  0
 25 21  1  0  0  0  0
 26 25  2  0  0  0  0
 27 28  2  0  0  0  0
 27 26  1  0  0  0  0
 28 29  1  0  0  0  0
 29 33  1  0  0  0  0
 29 24  2  0  0  0  0
 30 26  1  0  0  0  0
 31 27  1  0  0  0  0
 32 28  1  0  0  0  0
 34 35  2  0  0  0  0
 34 36  2  0  0  0  0
 34 37  1  0  0  0  0
M  END
>  <minimizedAffinity>
-5.91881132

$$$$

 OpenBabel03242518033D

 37 39  0  0  0  0  0  0  0  0999 V2000
   36.7810   27.8230   42.9320 C   0  0  0  0  0  0  0  0  0  0  0  0
   36.2770   28.1260   43.9000 H   0  0  0  0  0  0  0  0  0  0  0  0
   35.9760   27.3790   42.3470 H   0  0  0  0  0  0  0  0  0  0  0  0
   38.7020   29.3790   42.8720 C   0  0  0  0  0  0  0  0  0  0  0  0
   37.4200   29.0120   42.3960 C   0  0  0  0  0  0  0  0  0  0  0  0
   36.8280   29.8240   41.4280 C   0  0  0  0  0  0  0  0  0  0  0  0
   37.5120   30.9050   41.0080 N   0  0  0  0  0  0  0  0  0  0  0  0
   38.7260   31.2450   41.4660 C   0  0  0  0  0  0  0  0  0  0  0  0
   39.3040   30.4810   42.3870 N   0  0  0  0  0  0  0  0  0  0  0  0
   39.2440   28.8280   43.6120 H   0  0  0  0  0  0  0  0  0  0  0  0
   35.8660   29.5240   41.0880 H   0  0  0  0  0  0  0  0  0  0  0  0
   39.3860   32.4440   40.9410 C   0  0  0  0  0  0  0  0  0  0  0  0
   38.6320   33.5670   40.6760 C   0  0  0  0  0  0  0  0  0  0  0  0
   37.5720   33.5090   40.8710 H   0  0  0  0  0  0  0  0  0  0  0  0
   39.2260   34.7220   40.1780 C   0  0  0  0  0  3  0  0  0  0  0  0
   40.5920   34.6750   39.9700 C   0  0  0  0  0  0  0  0  0  0  0  0
   41.0260   35.6030   39.5760 H   0  0  0  0  0  0  0  0  0  0  0  0
   41.3760   33.5660   40.2240 C   0  0  0  0  0  0  0  0  0  0  0  0
   42.4560   33.6090   40.0320 H   0  0  0  0  0  0  0  0  0  0  0  0
   40.7490   32.4260   40.7230 C   0  0  0  0  0  3  0  0  0  0  0  0
   37.8690   26.8580   43.3600 C   0  0  0  0  0  0  0  0  0  0  0  0
   37.8090   26.5830   44.4390 H   0  0  0  0  0  0  0  0  0  0  0  0
   38.8790   27.3610   43.2880 H   0  0  0  0  0  0  0  0  0  0  0  0
   39.2580   25.3620   41.9880 C   0  0  0  0  0  0  0  0  0  0  0  0
   37.9990   25.6890   42.4590 C   0  0  0  0  0  0  0  0  0  0  0  0
   36.8650   24.9920   42.1380 C   0  0  0  0  0  0  0  0  0  0  0  0
   36.9850   23.9050   41.2990 C   0  0  0  0  0  0  0  0  0  0  0  0
   38.1820   23.5040   40.7830 C   0  0  0  0  0  0  0  0  0  0  0  0
   39.2880   24.2590   41.1530 C   0  0  0  0  0  0  0  0  0  0  0  0
   35.8880   25.2040   42.4710 H   0  0  0  0  0  0  0  0  0  0  0  0
   36.1220   23.3150   41.0090 H   0  0  0  0  0  0  0  0  0  0  0  0
   38.3370   22.6550   40.1170 H   0  0  0  0  0  0  0  0  0  0  0  0
   40.2550   23.9600   40.7540 H   0  0  0  0  0  0  0  0  0  0  0  0
   40.7200   26.2170   42.3690 S   0  0  0  0  0  0  0  0  0  0  0  0
   41.8390   25.9250   41.4120 O   0  0  0  0  0  0  0  0  0  0  0  0
   41.2300   25.7180   43.7210 O   0  0  0  0  0  0  0  0  0  0  0  0
   40.5420   27.5620   42.5640 H   0  0  0  0  0  0  0  0  0  0  0  0
  1 21  1  0  0  0  0
  1  2  1  0  0  0  0
  3  1  1  0  0  0  0
  4 10  1  0  0  0  0
  5  4  1  0  0  0  0
  5  1  1  0  0  0  0
  6  5  2  0  0  0  0
  7  6  1  0  0  0  0
  7  8  2  0  0  0  0
  8  9  1  0  0  0  0
  9  4  2  0  0  0  0
 11  6  1  0  0  0  0
 12  8  1  0  0  0  0
 13 14  1  0  0  0  0
 13 12  2  0  0  0  0
 15 13  1  0  0  0  0
 16 15  2  0  0  0  0
 16 18  1  0  0  0  0
 17 16  1  0  0  0  0
 18 20  2  0  0  0  0
 19 18  1  0  0  0  0
 20 12  1  0  0  0  0
 21 22  1  0  0  0  0
 23 21  1  0  0  0  0
 24 34  1  0  0  0  0
 24 25  1  0  0  0  0
 25 21  1  0  0  0  0
 26 25  2  0  0  0  0
 26 30  1  0  0  0  0
 27 26  1  0  0  0  0
 28 29  1  0  0  0  0
 28 27  2  0  0  0  0
 29 24  2  0  0  0  0
 31 27  1  0  0  0  0
 32 28  1  0  0  0  0
 33 29  1  0  0  0  0
 34 37  1  0  0  0  0
 34 36  2  0  0  0  0
 35 34  2  0  0  0  0
M  END
>  <minimizedAffinity>
-5.62072563

$$$$

 OpenBabel03242518033D

 37 39  0  0  0  0  0  0  0  0999 V2000
   38.2750   29.1050   42.8720 C   0  0  0  0  0  0  0  0  0  0  0  0
   39.3780   29.1000   42.6170 H   0  0  0  0  0  0  0  0  0  0  0  0
   38.1580   29.9790   43.5120 H   0  0  0  0  0  0  0  0  0  0  0  0
   36.1420   28.9340   41.6320 C   0  0  0  0  0  0  0  0  0  0  0  0
   37.5490   29.0970   41.6140 C   0  0  0  0  0  0  0  0  0  0  0  0
   38.1720   29.2380   40.3740 C   0  0  0  0  0  0  0  0  0  0  0  0
   37.3970   29.2110   39.2730 N   0  0  0  0  0  0  0  0  0  0  0  0
   36.0650   29.0560   39.3000 C   0  0  0  0  0  0  0  0  0  0  0  0
   35.4570   28.9210   40.4740 N   0  0  0  0  0  0  0  0  0  0  0  0
   35.5660   28.8180   42.5260 H   0  0  0  0  0  0  0  0  0  0  0  0
   39.2280   29.3590   40.3900 H   0  0  0  0  0  0  0  0  0  0  0  0
   35.3140   29.0410   38.0420 C   0  0  0  0  0  0  0  0  0  0  0  0
   33.9640   28.7600   38.0650 C   0  0  0  0  0  0  0  0  0  0  0  0
   33.5160   28.5620   39.0260 H   0  0  0  0  0  0  0  0  0  0  0  0
   33.2220   28.7380   36.8880 C   0  0  0  0  0  3  0  0  0  0  0  0
   33.9070   29.0090   35.7180 C   0  0  0  0  0  0  0  0  0  0  0  0
   33.2900   28.9820   34.8110 H   0  0  0  0  0  0  0  0  0  0  0  0
   35.2580   29.2930   35.6610 C   0  0  0  0  0  0  0  0  0  0  0  0
   35.7290   29.4970   34.6910 H   0  0  0  0  0  0  0  0  0  0  0  0
   35.9720   29.3070   36.8570 C   0  0  0  0  0  3  0  0  0  0  0  0
   38.0410   27.7730   43.5570 C   0  0  0  0  0  0  0  0  0  0  0  0
   37.0240   27.3550   43.3630 H   0  0  0  0  0  0  0  0  0  0  0  0
   38.0410   27.9120   44.6790 H   0  0  0  0  0  0  0  0  0  0  0  0
   38.8630   25.6810   42.5590 C   0  0  0  0  0  0  0  0  0  0  0  0
   39.1340   26.7990   43.3270 C   0  0  0  0  0  0  0  0  0  0  0  0
   40.3550   27.0550   43.8890 C   0  0  0  0  0  0  0  0  0  0  0  0
   41.3720   26.1490   43.6770 C   0  0  0  0  0  0  0  0  0  0  0  0
   41.2050   25.0180   42.9340 C   0  0  0  0  0  0  0  0  0  0  0  0
   39.9370   24.8250   42.3970 C   0  0  0  0  0  0  0  0  0  0  0  0
   40.6070   27.8910   44.4800 H   0  0  0  0  0  0  0  0  0  0  0  0
   42.3620   26.2990   44.0970 H   0  0  0  0  0  0  0  0  0  0  0  0
   41.9690   24.2680   42.7340 H   0  0  0  0  0  0  0  0  0  0  0  0
   39.7780   23.9290   41.8000 H   0  0  0  0  0  0  0  0  0  0  0  0
   37.3300   25.3170   41.8290 S   0  0  0  0  0  0  0  0  0  0  0  0
   37.0700   23.8440   41.7110 O   0  0  0  0  0  0  0  0  0  0  0  0
   37.3530   25.8230   40.3870 O   0  0  0  0  0  0  0  0  0  0  0  0
   36.2750   25.9870   42.3920 H   0  0  0  0  0  0  0  0  0  0  0  0
  1  3  1  0  0  0  0
  1 21  1  0  0  0  0
  2  1  1  0  0  0  0
  4 10  1  0  0  0  0
  5  4  1  0  0  0  0
  5  1  1  0  0  0  0
  6 11  1  0  0  0  0
  6  5  2  0  0  0  0
  7  8  2  0  0  0  0
  7  6  1  0  0  0  0
  8  9  1  0  0  0  0
  9  4  2  0  0  0  0
 12 13  1  0  0  0  0
 12  8  1  0  0  0  0
 13 14  1  0  0  0  0
 15 13  2  0  0  0  0
 16 15  1  0  0  0  0
 17 16  1  0  0  0  0
 18 16  2  0  0  0  0
 18 20  1  0  0  0  0
 19 18  1  0  0  0  0
 20 12  2  0  0  0  0
 21 23  1  0  0  0  0
 22 21  1  0  0  0  0
 24 25  1  0  0  0  0
 25 21  1  0  0  0  0
 25 26  2  0  0  0  0
 26 30  1  0  0  0  0
 27 26  1  0  0  0  0
 27 31  1  0  0  0  0
 28 27  2  0  0  0  0
 29 24  2  0  0  0  0
 29 28  1  0  0  0  0
 32 28  1  0  0  0  0
 33 29  1  0  0  0  0
 34 37  1  0  0  0  0
 34 24  1  0  0  0  0
 35 34  2  0  0  0  0
 36 34  2  0  0  0  0
M  END
>  <minimizedAffinity>
-5.39264917

$$$$

 OpenBabel03242518033D

 37 39  0  0  0  0  0  0  0  0999 V2000
   35.2240   26.0260   37.6520 C   0  0  0  0  0  0  0  0  0  0  0  0
   34.6540   25.4170   38.4170 H   0  0  0  0  0  0  0  0  0  0  0  0
   35.5090   25.2950   36.8960 H   0  0  0  0  0  0  0  0  0  0  0  0
   33.4840   26.9120   36.1350 C   0  0  0  0  0  0  0  0  0  0  0  0
   34.3520   27.1110   37.2360 C   0  0  0  0  0  0  0  0  0  0  0  0
   34.3280   28.3540   37.8690 C   0  0  0  0  0  0  0  0  0  0  0  0
   33.4800   29.2860   37.3930 N   0  0  0  0  0  0  0  0  0  0  0  0
   32.6620   29.0890   36.3490 C   0  0  0  0  0  0  0  0  0  0  0  0
   32.6730   27.9100   35.7360 N   0  0  0  0  0  0  0  0  0  0  0  0
   33.4230   26.0000   35.5800 H   0  0  0  0  0  0  0  0  0  0  0  0
   34.9890   28.4750   38.6930 H   0  0  0  0  0  0  0  0  0  0  0  0
   31.7780   30.1720   35.9100 C   0  0  0  0  0  0  0  0  0  0  0  0
   31.8280   30.5950   34.5980 C   0  0  0  0  0  0  0  0  0  0  0  0
   32.5280   30.0990   33.9450 H   0  0  0  0  0  0  0  0  0  0  0  0
   31.0020   31.6200   34.1500 C   0  0  0  0  0  3  0  0  0  0  0  0
   30.1440   32.1770   35.0800 C   0  0  0  0  0  0  0  0  0  0  0  0
   29.5090   32.9820   34.6910 H   0  0  0  0  0  0  0  0  0  0  0  0
   30.0700   31.7780   36.4010 C   0  0  0  0  0  0  0  0  0  0  0  0
   29.3620   32.2710   37.0780 H   0  0  0  0  0  0  0  0  0  0  0  0
   30.9110   30.7480   36.8180 C   0  0  0  0  0  3  0  0  0  0  0  0
   36.3790   26.6250   38.4310 C   0  0  0  0  0  0  0  0  0  0  0  0
   36.3360   27.7380   38.4880 H   0  0  0  0  0  0  0  0  0  0  0  0
   37.3500   26.4410   37.8820 H   0  0  0  0  0  0  0  0  0  0  0  0
   36.9300   26.7730   40.8240 C   0  0  0  0  0  0  0  0  0  0  0  0
   36.5950   25.9740   39.7450 C   0  0  0  0  0  0  0  0  0  0  0  0
   36.4530   24.6150   39.8240 C   0  0  0  0  0  0  0  0  0  0  0  0
   36.6550   24.0100   41.0450 C   0  0  0  0  0  0  0  0  0  0  0  0
   36.9880   24.7100   42.1660 C   0  0  0  0  0  0  0  0  0  0  0  0
   37.1150   26.0850   42.0090 C   0  0  0  0  0  0  0  0  0  0  0  0
   36.2000   23.9670   39.0310 H   0  0  0  0  0  0  0  0  0  0  0  0
   36.5570   22.9350   41.1690 H   0  0  0  0  0  0  0  0  0  0  0  0
   37.1600   24.2870   43.1560 H   0  0  0  0  0  0  0  0  0  0  0  0
   37.3800   26.6670   42.8890 H   0  0  0  0  0  0  0  0  0  0  0  0
   37.1200   28.4980   40.7680 S   0  0  0  0  0  0  0  0  0  0  0  0
   37.9920   29.0290   41.8680 O   0  0  0  0  0  0  0  0  0  0  0  0
   35.7540   29.1400   41.0140 O   0  0  0  0  0  0  0  0  0  0  0  0
   37.4880   28.9760   39.5380 H   0  0  0  0  0  0  0  0  0  0  0  0
  1  2  1  0  0  0  0
  1 21  1  0  0  0  0
  3  1  1  0  0  0  0
  4  5  1  0  0  0  0
  5  1  1  0  0  0  0
  5  6  2  0  0  0  0
  6 11  1  0  0  0  0
  7  6  1  0  0  0  0
  8  7  2  0  0  0  0
  9  4  2  0  0  0  0
  9  8  1  0  0  0  0
 10  4  1  0  0  0  0
 12  8  1  0  0  0  0
 12 20  1  0  0  0  0
 13 12  2  0  0  0  0
 14 13  1  0  0  0  0
 15 13  1  0  0  0  0
 15 16  2  0  0  0  0
 16 18  1  0  0  0  0
 17 16  1  0  0  0  0
 18 20  2  0  0  0  0
 18 19  1  0  0  0  0
 21 22  1  0  0  0  0
 21 25  1  0  0  0  0
 23 21  1  0  0  0  0
 24 29  1  0  0  0  0
 25 26  1  0  0  0  0
 25 24  2  0  0  0  0
 26 27  2  0  0  0  0
 27 31  1  0  0  0  0
 27 28  1  0  0  0  0
 28 32  1  0  0  0  0
 29 28  2  0  0  0  0
 29 33  1  0  0  0  0
 30 26  1  0  0  0  0
 34 24  1  0  0  0  0
 34 36  2  0  0  0  0
 34 35  2  0  0  0  0
 37 34  1  0  0  0  0
M  END
>  <minimizedAffinity>
-5.36662054

$$$$

 OpenBabel03242518033D

 37 39  0  0  0  0  0  0  0  0999 V2000
   36.4600   31.3930   40.7230 C   0  0  0  0  0  0  0  0  0  0  0  0
   35.3400   31.5420   40.6530 H   0  0  0  0  0  0  0  0  0  0  0  0
   36.7480   31.9830   41.5930 H   0  0  0  0  0  0  0  0  0  0  0  0
   36.2020   29.1390   39.7390 C   0  0  0  0  0  0  0  0  0  0  0  0
   36.6950   29.9610   40.7820 C   0  0  0  0  0  0  0  0  0  0  0  0
   37.3850   29.3440   41.8260 C   0  0  0  0  0  0  0  0  0  0  0  0
   37.5380   28.0070   41.7770 N   0  0  0  0  0  0  0  0  0  0  0  0
   37.0670   27.2370   40.7840 C   0  0  0  0  0  0  0  0  0  0  0  0
   36.4090   27.8100   39.7820 N   0  0  0  0  0  0  0  0  0  0  0  0
   35.6620   29.5080   38.8930 H   0  0  0  0  0  0  0  0  0  0  0  0
   37.7440   29.9840   42.5950 H   0  0  0  0  0  0  0  0  0  0  0  0
   37.2890   25.7890   40.8270 C   0  0  0  0  0  0  0  0  0  0  0  0
   36.5620   24.9700   39.9880 C   0  0  0  0  0  0  0  0  0  0  0  0
   35.8520   25.4420   39.3290 H   0  0  0  0  0  0  0  0  0  0  0  0
   36.7490   23.5920   40.0040 C   0  0  0  0  0  3  0  0  0  0  0  0
   37.6890   23.1030   40.8920 C   0  0  0  0  0  0  0  0  0  0  0  0
   37.8090   22.0120   40.8760 H   0  0  0  0  0  0  0  0  0  0  0  0
   38.4330   23.8950   41.7450 C   0  0  0  0  0  0  0  0  0  0  0  0
   39.1600   23.4310   42.4220 H   0  0  0  0  0  0  0  0  0  0  0  0
   38.2220   25.2720   41.7040 C   0  0  0  0  0  3  0  0  0  0  0  0
   36.9910   31.9020   39.3980 C   0  0  0  0  0  0  0  0  0  0  0  0
   36.2040   32.3750   38.7650 H   0  0  0  0  0  0  0  0  0  0  0  0
   37.3320   31.0320   38.7610 H   0  0  0  0  0  0  0  0  0  0  0  0
   39.4060   32.2210   39.0570 C   0  0  0  0  0  0  0  0  0  0  0  0
   38.2130   32.7290   39.5380 C   0  0  0  0  0  0  0  0  0  0  0  0
   38.0980   33.9540   40.1380 C   0  0  0  0  0  0  0  0  0  0  0  0
   39.2340   34.7230   40.2690 C   0  0  0  0  0  0  0  0  0  0  0  0
   40.4560   34.3110   39.8270 C   0  0  0  0  0  0  0  0  0  0  0  0
   40.4940   33.0570   39.2290 C   0  0  0  0  0  0  0  0  0  0  0  0
   37.2120   34.3810   40.5190 H   0  0  0  0  0  0  0  0  0  0  0  0
   39.2040   35.7030   40.7370 H   0  0  0  0  0  0  0  0  0  0  0  0
   41.3850   34.8740   39.9040 H   0  0  0  0  0  0  0  0  0  0  0  0
   41.4580   32.7040   38.8680 H   0  0  0  0  0  0  0  0  0  0  0  0
   39.5960   30.6750   38.2900 S   0  0  0  0  0  0  0  0  0  0  0  0
   39.8190   29.5570   39.2670 O   0  0  0  0  0  0  0  0  0  0  0  0
   40.8710   30.7100   37.4470 O   0  0  0  0  0  0  0  0  0  0  0  0
   38.6130   30.3810   37.3820 H   0  0  0  0  0  0  0  0  0  0  0  0
  1  5  1  0  0  0  0
  1  3  1  0  0  0  0
  2  1  1  0  0  0  0
  4  9  2  0  0  0  0
  4  5  1  0  0  0  0
  5  6  2  0  0  0  0
  6 11  1  0  0  0  0
  7  6  1  0  0  0  0
  8 12  1  0  0  0  0
  8  7  2  0  0  0  0
  9  8  1  0  0  0  0
 10  4  1  0  0  0  0
 12 20  1  0  0  0  0
 13 15  1  0  0  0  0
 13 12  2  0  0  0  0
 14 13  1  0  0  0  0
 15 16  2  0  0  0  0
 16 18  1  0  0  0  0
 17 16  1  0  0  0  0
 18 19  1  0  0  0  0
 20 18  2  0  0  0  0
 21 25  1  0  0  0  0
 21  1  1  0  0  0  0
 22 21  1  0  0  0  0
 23 21  1  0  0  0  0
 24 29  2  0  0  0  0
 24 25  1  0  0  0  0
 25 26  2  0  0  0  0
 26 27  1  0  0  0  0
 26 30  1  0  0  0  0
 27 31  1  0  0  0  0
 28 32  1  0  0  0  0
 28 27  2  0  0  0  0
 29 28  1  0  0  0  0
 33 29  1  0  0  0  0
 34 24  1  0  0  0  0
 34 35  2  0  0  0  0
 36 34  2  0  0  0  0
 37 34  1  0  0  0  0
M  END
>  <minimizedAffinity>
-5.31307411

$$$$

 OpenBabel03242518033D

 37 39  0  0  0  0  0  0  0  0999 V2000
   35.7420   29.4660   40.2860 C   0  0  0  0  0  0  0  0  0  0  0  0
   35.5180   29.7290   41.3640 H   0  0  0  0  0  0  0  0  0  0  0  0
   34.7920   29.6230   39.7760 H   0  0  0  0  0  0  0  0  0  0  0  0
   37.1850   31.4450   40.6250 C   0  0  0  0  0  0  0  0  0  0  0  0
   36.8650   30.2890   39.8730 C   0  0  0  0  0  0  0  0  0  0  0  0
   37.6520   29.9990   38.7570 C   0  0  0  0  0  0  0  0  0  0  0  0
   38.6650   30.8370   38.4660 N   0  0  0  0  0  0  0  0  0  0  0  0
   38.9600   31.9310   39.1850 C   0  0  0  0  0  0  0  0  0  0  0  0
   38.2210   32.2200   40.2510 N   0  0  0  0  0  0  0  0  0  0  0  0
   36.6480   31.7580   41.4950 H   0  0  0  0  0  0  0  0  0  0  0  0
   37.3900   29.1260   38.2110 H   0  0  0  0  0  0  0  0  0  0  0  0
   40.0860   32.7780   38.7820 C   0  0  0  0  0  0  0  0  0  0  0  0
   40.3910   33.8960   39.5290 C   0  0  0  0  0  0  0  0  0  0  0  0
   39.7750   34.0990   40.3900 H   0  0  0  0  0  0  0  0  0  0  0  0
   41.4530   34.7210   39.1730 C   0  0  0  0  0  3  0  0  0  0  0  0
   42.1710   34.3570   38.0490 C   0  0  0  0  0  0  0  0  0  0  0  0
   43.0010   35.0300   37.8000 H   0  0  0  0  0  0  0  0  0  0  0  0
   41.8920   33.2450   37.2790 C   0  0  0  0  0  0  0  0  0  0  0  0
   42.5090   33.0240   36.4000 H   0  0  0  0  0  0  0  0  0  0  0  0
   40.8210   32.4390   37.6630 C   0  0  0  0  0  3  0  0  0  0  0  0
   36.2100   28.0250   40.3390 C   0  0  0  0  0  0  0  0  0  0  0  0
   36.6840   27.6850   39.3880 H   0  0  0  0  0  0  0  0  0  0  0  0
   35.3200   27.3350   40.4330 H   0  0  0  0  0  0  0  0  0  0  0  0
   38.1110   26.8830   41.4030 C   0  0  0  0  0  0  0  0  0  0  0  0
   37.0170   27.7180   41.5440 C   0  0  0  0  0  0  0  0  0  0  0  0
   36.6360   28.2750   42.7350 C   0  0  0  0  0  0  0  0  0  0  0  0
   37.3850   27.9890   43.8560 C   0  0  0  0  0  0  0  0  0  0  0  0
   38.4810   27.1780   43.8200 C   0  0  0  0  0  0  0  0  0  0  0  0
   38.8060   26.6490   42.5760 C   0  0  0  0  0  0  0  0  0  0  0  0
   35.8120   28.9140   42.8890 H   0  0  0  0  0  0  0  0  0  0  0  0
   37.1320   28.4010   44.8280 H   0  0  0  0  0  0  0  0  0  0  0  0
   39.1090   26.9160   44.6710 H   0  0  0  0  0  0  0  0  0  0  0  0
   39.6760   25.9980   42.5210 H   0  0  0  0  0  0  0  0  0  0  0  0
   38.6280   26.1560   39.9140 S   0  0  0  0  0  0  0  0  0  0  0  0
   39.4830   24.9390   40.1190 O   0  0  0  0  0  0  0  0  0  0  0  0
   39.5360   27.1470   39.1860 O   0  0  0  0  0  0  0  0  0  0  0  0
   37.6110   25.9320   39.0240 H   0  0  0  0  0  0  0  0  0  0  0  0
  1 21  1  0  0  0  0
  1  2  1  0  0  0  0
  3  1  1  0  0  0  0
  4 10  1  0  0  0  0
  5  1  1  0  0  0  0
  5  4  2  0  0  0  0
  6  5  1  0  0  0  0
  7  6  2  0  0  0  0
  7  8  1  0  0  0  0
  8  9  2  0  0  0  0
  9  4  1  0  0  0  0
 11  6  1  0  0  0  0
 12  8  1  0  0  0  0
 12 13  1  0  0  0  0
 13 14  1  0  0  0  0
 15 13  2  0  0  0  0
 16 15  1  0  0  0  0
 17 16  1  0  0  0  0
 18 20  1  0  0  0  0
 18 16  2  0  0  0  0
 19 18  1  0  0  0  0
 20 12  2  0  0  0  0
 21 23  1  0  0  0  0
 21 25  1  0  0  0  0
 22 21  1  0  0  0  0
 24 25  2  0  0  0  0
 24 29  1  0  0  0  0
 25 26  1  0  0  0  0
 26 30  1  0  0  0  0
 26 27  2  0  0  0  0
 27 31  1  0  0  0  0
 28 27  1  0  0  0  0
 28 32  1  0  0  0  0
 29 28  2  0  0  0  0
 33 29  1  0  0  0  0
 34 35  2  0  0  0  0
 34 24  1  0  0  0  0
 36 34  2  0  0  0  0
 37 34  1  0  0  0  0
M  END
>  <minimizedAffinity>
-5.30911207

$$$$

 OpenBabel03242518033D

 37 39  0  0  0  0  0  0  0  0999 V2000
   38.4160   27.1280   43.1820 C   0  0  0  0  0  0  0  0  0  0  0  0
   39.1550   26.4020   42.7230 H   0  0  0  0  0  0  0  0  0  0  0  0
   38.5530   26.9960   44.2550 H   0  0  0  0  0  0  0  0  0  0  0  0
   40.0170   28.7100   42.1560 C   0  0  0  0  0  0  0  0  0  0  0  0
   38.7090   28.4390   42.6280 C   0  0  0  0  0  0  0  0  0  0  0  0
   37.7610   29.4580   42.5410 C   0  0  0  0  0  0  0  0  0  0  0  0
   38.1480   30.6350   42.0130 N   0  0  0  0  0  0  0  0  0  0  0  0
   39.3900   30.8820   41.5690 C   0  0  0  0  0  0  0  0  0  0  0  0
   40.3040   29.9210   41.6440 N   0  0  0  0  0  0  0  0  0  0  0  0
   40.8180   28.0010   42.1760 H   0  0  0  0  0  0  0  0  0  0  0  0
   36.7890   29.2270   42.9020 H   0  0  0  0  0  0  0  0  0  0  0  0
   39.7070   32.2000   41.0120 C   0  0  0  0  0  0  0  0  0  0  0  0
   41.0210   32.5170   40.7350 C   0  0  0  0  0  0  0  0  0  0  0  0
   41.7660   31.7660   40.9460 H   0  0  0  0  0  0  0  0  0  0  0  0
   41.3560   33.7590   40.2050 C   0  0  0  0  0  3  0  0  0  0  0  0
   40.3130   34.6370   39.9770 C   0  0  0  0  0  0  0  0  0  0  0  0
   40.6160   35.6060   39.5590 H   0  0  0  0  0  0  0  0  0  0  0  0
   38.9880   34.3520   40.2440 C   0  0  0  0  0  0  0  0  0  0  0  0
   38.2180   35.1040   40.0340 H   0  0  0  0  0  0  0  0  0  0  0  0
   38.6860   33.0990   40.7740 C   0  0  0  0  0  3  0  0  0  0  0  0
   37.0690   26.6840   42.6470 C   0  0  0  0  0  0  0  0  0  0  0  0
   36.4210   27.5360   42.3360 H   0  0  0  0  0  0  0  0  0  0  0  0
   36.4670   26.2030   43.4750 H   0  0  0  0  0  0  0  0  0  0  0  0
   36.8890   25.9360   40.3110 C   0  0  0  0  0  0  0  0  0  0  0  0
   37.1710   25.6140   41.6260 C   0  0  0  0  0  0  0  0  0  0  0  0
   37.5370   24.3610   42.0380 C   0  0  0  0  0  0  0  0  0  0  0  0
   37.6310   23.3660   41.0890 C   0  0  0  0  0  0  0  0  0  0  0  0
   37.3730   23.5840   39.7680 C   0  0  0  0  0  0  0  0  0  0  0  0
   37.0070   24.8800   39.4260 C   0  0  0  0  0  0  0  0  0  0  0  0
   37.7600   24.0700   43.0270 H   0  0  0  0  0  0  0  0  0  0  0  0
   37.9170   22.3530   41.3560 H   0  0  0  0  0  0  0  0  0  0  0  0
   37.4300   22.8380   38.9760 H   0  0  0  0  0  0  0  0  0  0  0  0
   36.7960   25.0800   38.3770 H   0  0  0  0  0  0  0  0  0  0  0  0
   36.4210   27.5100   39.7460 S   0  0  0  0  0  0  0  0  0  0  0  0
   35.5190   27.4610   38.5480 O   0  0  0  0  0  0  0  0  0  0  0  0
   37.6740   28.2370   39.2570 O   0  0  0  0  0  0  0  0  0  0  0  0
   35.9320   28.3300   40.7300 H   0  0  0  0  0  0  0  0  0  0  0  0
  1  3  1  0  0  0  0
  2  1  1  0  0  0  0
  4 10  1  0  0  0  0
  4  5  1  0  0  0  0
  5  1  1  0  0  0  0
  6  5  2  0  0  0  0
  6 11  1  0  0  0  0
  7  6  1  0  0  0  0
  8  9  1  0  0  0  0
  8  7  2  0  0  0  0
  9  4  2  0  0  0  0
 12  8  1  0  0  0  0
 13 14  1  0  0  0  0
 13 12  2  0  0  0  0
 15 13  1  0  0  0  0
 16 15  2  0  0  0  0
 16 18  1  0  0  0  0
 17 16  1  0  0  0  0
 18 20  2  0  0  0  0
 19 18  1  0  0  0  0
 20 12  1  0  0  0  0
 21  1  1  0  0  0  0
 21 23  1  0  0  0  0
 22 21  1  0  0  0  0
 24 25  1  0  0  0  0
 25 26  2  0  0  0  0
 25 21  1  0  0  0  0
 26 30  1  0  0  0  0
 27 31  1  0  0  0  0
 27 26  1  0  0  0  0
 28 27  2  0  0  0  0
 29 28  1  0  0  0  0
 29 24  2  0  0  0  0
 32 28  1  0  0  0  0
 33 29  1  0  0  0  0
 34 24  1  0  0  0  0
 34 37  1  0  0  0  0
 35 34  2  0  0  0  0
 36 34  2  0  0  0  0
M  END
>  <minimizedAffinity>
-5.30186176

$$$$

 OpenBabel03242518033D

 37 39  0  0  0  0  0  0  0  0999 V2000
   36.3720   30.2530   38.2680 C   0  0  0  0  0  0  0  0  0  0  0  0
   35.9380   29.6220   37.4330 H   0  0  0  0  0  0  0  0  0  0  0  0
   35.5240   30.8420   38.6170 H   0  0  0  0  0  0  0  0  0  0  0  0
   37.9600   28.4210   38.7540 C   0  0  0  0  0  0  0  0  0  0  0  0
   36.9860   29.3400   39.2160 C   0  0  0  0  0  0  0  0  0  0  0  0
   36.6600   29.3170   40.5720 C   0  0  0  0  0  0  0  0  0  0  0  0
   37.2910   28.4220   41.3560 N   0  0  0  0  0  0  0  0  0  0  0  0
   38.2120   27.5550   40.9090 C   0  0  0  0  0  0  0  0  0  0  0  0
   38.5340   27.5660   39.6200 N   0  0  0  0  0  0  0  0  0  0  0  0
   38.2830   28.3550   37.7370 H   0  0  0  0  0  0  0  0  0  0  0  0
   35.9270   30.0170   40.8910 H   0  0  0  0  0  0  0  0  0  0  0  0
   38.8400   26.6220   41.8490 C   0  0  0  0  0  0  0  0  0  0  0  0
   39.3940   27.1080   43.0140 C   0  0  0  0  0  0  0  0  0  0  0  0
   39.3370   28.1710   43.1830 H   0  0  0  0  0  0  0  0  0  0  0  0
   39.9970   26.2490   43.9270 C   0  0  0  0  0  3  0  0  0  0  0  0
   40.0060   24.9050   43.6010 C   0  0  0  0  0  0  0  0  0  0  0  0
   40.4900   24.2580   44.3440 H   0  0  0  0  0  0  0  0  0  0  0  0
   39.4620   24.3860   42.4420 C   0  0  0  0  0  0  0  0  0  0  0  0
   39.5100   23.3060   42.2560 H   0  0  0  0  0  0  0  0  0  0  0  0
   38.8650   25.2740   41.5490 C   0  0  0  0  0  3  0  0  0  0  0  0
   37.4760   31.0510   37.6020 C   0  0  0  0  0  0  0  0  0  0  0  0
   37.1940   31.4240   36.5890 H   0  0  0  0  0  0  0  0  0  0  0  0
   38.3580   30.3780   37.3830 H   0  0  0  0  0  0  0  0  0  0  0  0
   39.4230   32.1500   38.6270 C   0  0  0  0  0  0  0  0  0  0  0  0
   38.0490   32.0990   38.4800 C   0  0  0  0  0  0  0  0  0  0  0  0
   37.1870   32.9630   39.1010 C   0  0  0  0  0  0  0  0  0  0  0  0
   37.7200   33.9370   39.9180 C   0  0  0  0  0  0  0  0  0  0  0  0
   39.0610   34.0680   40.1270 C   0  0  0  0  0  0  0  0  0  0  0  0
   39.8720   33.1560   39.4630 C   0  0  0  0  0  0  0  0  0  0  0  0
   36.1360   32.9620   39.0200 H   0  0  0  0  0  0  0  0  0  0  0  0
   37.0870   34.6500   40.4370 H   0  0  0  0  0  0  0  0  0  0  0  0
   39.5370   34.8160   40.7600 H   0  0  0  0  0  0  0  0  0  0  0  0
   40.9460   33.2390   39.6140 H   0  0  0  0  0  0  0  0  0  0  0  0
   40.5500   31.0750   37.8590 S   0  0  0  0  0  0  0  0  0  0  0  0
   41.4370   30.3580   38.8340 O   0  0  0  0  0  0  0  0  0  0  0  0
   41.5070   31.9110   37.0090 O   0  0  0  0  0  0  0  0  0  0  0  0
   39.9740   30.2200   36.9560 H   0  0  0  0  0  0  0  0  0  0  0  0
  1  3  1  0  0  0  0
  1  5  1  0  0  0  0
  2  1  1  0  0  0  0
  4  5  2  0  0  0  0
  4  9  1  0  0  0  0
  5  6  1  0  0  0  0
  6 11  1  0  0  0  0
  6  7  2  0  0  0  0
  8  7  1  0  0  0  0
  8 12  1  0  0  0  0
  9  8  2  0  0  0  0
 10  4  1  0  0  0  0
 12 13  1  0  0  0  0
 13 14  1  0  0  0  0
 13 15  2  0  0  0  0
 16 15  1  0  0  0  0
 16 17  1  0  0  0  0
 18 16  2  0  0  0  0
 19 18  1  0  0  0  0
 20 12  2  0  0  0  0
 20 18  1  0  0  0  0
 21  1  1  0  0  0  0
 21 25  1  0  0  0  0
 22 21  1  0  0  0  0
 23 21  1  0  0  0  0
 24 29  1  0  0  0  0
 25 24  2  0  0  0  0
 25 26  1  0  0  0  0
 26 27  2  0  0  0  0
 27 28  1  0  0  0  0
 27 31  1  0  0  0  0
 28 32  1  0  0  0  0
 29 33  1  0  0  0  0
 29 28  2  0  0  0  0
 30 26  1  0  0  0  0
 34 24  1  0  0  0  0
 34 35  2  0  0  0  0
 36 34  2  0  0  0  0
 37 34  1  0  0  0  0
M  END
>  <minimizedAffinity>
-5.2876482

$$$$

 OpenBabel03242518033D

 37 39  0  0  0  0  0  0  0  0999 V2000
   35.2400   28.3500   38.7640 C   0  0  0  0  0  0  0  0  0  0  0  0
   34.9610   27.2920   39.0560 H   0  0  0  0  0  0  0  0  0  0  0  0
   36.2880   28.2720   38.4740 H   0  0  0  0  0  0  0  0  0  0  0  0
   34.7220   28.8400   36.3970 C   0  0  0  0  0  0  0  0  0  0  0  0
   34.2950   28.7720   37.7450 C   0  0  0  0  0  0  0  0  0  0  0  0
   32.9760   29.1250   38.0290 C   0  0  0  0  0  0  0  0  0  0  0  0
   32.1910   29.5060   37.0040 N   0  0  0  0  0  0  0  0  0  0  0  0
   32.6040   29.5670   35.7290 C   0  0  0  0  0  0  0  0  0  0  0  0
   33.8580   29.2340   35.4420 N   0  0  0  0  0  0  0  0  0  0  0  0
   35.7100   28.5920   36.0700 H   0  0  0  0  0  0  0  0  0  0  0  0
   32.6830   29.0650   39.0490 H   0  0  0  0  0  0  0  0  0  0  0  0
   31.6680   29.9960   34.6860 C   0  0  0  0  0  0  0  0  0  0  0  0
   31.0760   29.0480   33.8790 C   0  0  0  0  0  0  0  0  0  0  0  0
   31.3350   28.0160   34.0560 H   0  0  0  0  0  0  0  0  0  0  0  0
   30.1830   29.4210   32.8800 C   0  0  0  0  0  3  0  0  0  0  0  0
   29.9300   30.7740   32.7500 C   0  0  0  0  0  0  0  0  0  0  0  0
   29.2210   31.0310   31.9520 H   0  0  0  0  0  0  0  0  0  0  0  0
   30.5050   31.7490   33.5410 C   0  0  0  0  0  0  0  0  0  0  0  0
   30.2520   32.8030   33.3740 H   0  0  0  0  0  0  0  0  0  0  0  0
   31.3960   31.3410   34.5320 C   0  0  0  0  0  3  0  0  0  0  0  0
   34.9790   29.1670   40.0140 C   0  0  0  0  0  0  0  0  0  0  0  0
   33.9730   28.9780   40.4570 H   0  0  0  0  0  0  0  0  0  0  0  0
   34.9330   30.2660   39.7510 H   0  0  0  0  0  0  0  0  0  0  0  0
   36.9740   30.1480   41.0660 C   0  0  0  0  0  0  0  0  0  0  0  0
   36.0830   29.0920   41.0000 C   0  0  0  0  0  0  0  0  0  0  0  0
   36.1640   27.9810   41.7950 C   0  0  0  0  0  0  0  0  0  0  0  0
   37.1900   27.9110   42.7120 C   0  0  0  0  0  0  0  0  0  0  0  0
   38.1190   28.8990   42.8540 C   0  0  0  0  0  0  0  0  0  0  0  0
   37.9720   29.9960   42.0120 C   0  0  0  0  0  0  0  0  0  0  0  0
   35.5100   27.1540   41.7800 H   0  0  0  0  0  0  0  0  0  0  0  0
   37.3060   27.0540   43.3700 H   0  0  0  0  0  0  0  0  0  0  0  0
   38.9490   28.8980   43.5580 H   0  0  0  0  0  0  0  0  0  0  0  0
   38.7000   30.7990   42.1050 H   0  0  0  0  0  0  0  0  0  0  0  0
   36.9080   31.5740   40.0780 S   0  0  0  0  0  0  0  0  0  0  0  0
   37.3910   31.3410   38.6760 O   0  0  0  0  0  0  0  0  0  0  0  0
   37.8800   32.6040   40.6550 O   0  0  0  0  0  0  0  0  0  0  0  0
   35.6970   32.2150   40.1100 H   0  0  0  0  0  0  0  0  0  0  0  0
  1  2  1  0  0  0  0
  1 21  1  0  0  0  0
  3  1  1  0  0  0  0
  4  5  1  0  0  0  0
  5  6  2  0  0  0  0
  5  1  1  0  0  0  0
  6 11  1  0  0  0  0
  7  6  1  0  0  0  0
  8  7  2  0  0  0  0
  9  8  1  0  0  0  0
  9  4  2  0  0  0  0
 10  4  1  0  0  0  0
 12  8  1  0  0  0  0
 13 14  1  0  0  0  0
 13 12  2  0  0  0  0
 15 13  1  0  0  0  0
 16 15  2  0  0  0  0
 16 18  1  0  0  0  0
 17 16  1  0  0  0  0
 18 20  2  0  0  0  0
 19 18  1  0  0  0  0
 20 12  1  0  0  0  0
 21 22  1  0  0  0  0
 21 25  1  0  0  0  0
 23 21  1  0  0  0  0
 24 29  1  0  0  0  0
 25 24  2  0  0  0  0
 25 26  1  0  0  0  0
 26 27  2  0  0  0  0
 27 28  1  0  0  0  0
 27 31  1  0  0  0  0
 28 32  1  0  0  0  0
 29 33  1  0  0  0  0
 29 28  2  0  0  0  0
 30 26  1  0  0  0  0
 34 37  1  0  0  0  0
 34 36  2  0  0  0  0
 34 24  1  0  0  0  0
 35 34  2  0  0  0  0
M  END
>  <minimizedAffinity>
-5.25083447

$$$$
