
 OpenBabel03242512583D

 28 30  0  0  0  0  0  0  0  0999 V2000
   38.4660   29.7880   41.1650 F   0  0  0  0  0  0  0  0  0  0  0  0
   37.6090   29.7780   40.0950 C   0  0  0  0  0  0  0  0  0  0  0  0
   37.5310   30.8220   39.2180 C   0  0  0  0  0  0  0  0  0  0  0  0
   36.6410   30.7040   38.1880 C   0  0  0  0  0  0  0  0  0  0  0  0
   35.8380   29.6090   37.9930 C   0  0  0  0  0  0  0  0  0  0  0  0
   35.9580   28.5830   38.9080 C   0  0  0  0  0  0  0  0  0  0  0  0
   36.8360   28.6500   39.9630 C   0  0  0  0  0  0  0  0  0  0  0  0
   36.5640   31.5230   37.4810 H   0  0  0  0  0  0  0  0  0  0  0  0
   35.1450   29.5440   37.1710 H   0  0  0  0  0  0  0  0  0  0  0  0
   35.3160   27.7070   38.7550 H   0  0  0  0  0  0  0  0  0  0  0  0
   38.8570   34.1590   40.4410 C   0  0  0  0  0  0  0  0  0  0  0  0
   38.0120   33.0700   40.2320 C   0  0  0  0  0  0  0  0  0  0  0  0
   38.3980   31.9730   39.4510 C   0  0  0  0  0  0  0  0  0  0  0  0
   39.6440   32.0520   38.9200 N   0  0  0  0  0  0  0  0  0  0  0  0
   40.4490   33.1070   39.1290 C   0  0  0  0  0  0  0  0  0  0  0  0
   40.0660   34.1430   39.8760 N   0  0  0  0  0  0  0  0  0  0  0  0
   38.5290   34.9800   41.0440 H   0  0  0  0  0  0  0  0  0  0  0  0
   37.0110   33.0450   40.6810 H   0  0  0  0  0  0  0  0  0  0  0  0
   41.4130   32.9900   38.6210 H   0  0  0  0  0  0  0  0  0  0  0  0
   36.8870   27.5110   40.8770 C   0  0  0  0  0  0  0  0  0  0  0  0
   36.6220   27.6820   42.2230 C   0  0  0  0  0  0  0  0  0  0  0  0
   36.3710   28.6520   42.6340 H   0  0  0  0  0  0  0  0  0  0  0  0
   36.6930   26.5540   43.0130 C   0  0  0  0  0  3  0  0  0  0  0  0
   37.0140   25.2910   42.5090 C   0  0  0  0  0  0  0  0  0  0  0  0
   37.0610   24.4390   43.1430 H   0  0  0  0  0  0  0  0  0  0  0  0
   37.2710   25.1920   41.1390 C   0  0  0  0  0  0  0  0  0  0  0  0
   37.5150   24.2030   40.7860 H   0  0  0  0  0  0  0  0  0  0  0  0
   37.2110   26.2980   40.3040 C   0  0  0  0  0  3  0  0  0  0  0  0
  2  1  1  0  0  0  0
  3 13  1  0  0  0  0
  3  2  2  0  0  0  0
  4  3  1  0  0  0  0
  5  4  2  0  0  0  0
  5  6  1  0  0  0  0
  6  7  2  0  0  0  0
  7  2  1  0  0  0  0
  7 20  1  0  0  0  0
  8  4  1  0  0  0  0
  9  5  1  0  0  0  0
 10  6  1  0  0  0  0
 11 17  1  0  0  0  0
 12 11  1  0  0  0  0
 12 18  1  0  0  0  0
 13 12  2  0  0  0  0
 14 15  2  0  0  0  0
 14 13  1  0  0  0  0
 15 16  1  0  0  0  0
 16 11  2  0  0  0  0
 19 15  1  0  0  0  0
 20 21  1  0  0  0  0
 21 22  1  0  0  0  0
 21 23  2  0  0  0  0
 24 23  1  0  0  0  0
 24 25  1  0  0  0  0
 26 24  2  0  0  0  0
 27 26  1  0  0  0  0
 28 20  2  0  0  0  0
 28 26  1  0  0  0  0
M  END
>  <minimizedAffinity>
-5.35570955

$$$$

 OpenBabel03242512583D

 28 30  0  0  0  0  0  0  0  0999 V2000
   37.9410   27.7370   39.6720 F   0  0  0  0  0  0  0  0  0  0  0  0
   37.6260   27.8100   41.0040 C   0  0  0  0  0  0  0  0  0  0  0  0
   37.6000   28.9970   41.6780 C   0  0  0  0  0  0  0  0  0  0  0  0
   37.2730   28.9510   43.0050 C   0  0  0  0  0  0  0  0  0  0  0  0
   36.9750   27.7940   43.6800 C   0  0  0  0  0  0  0  0  0  0  0  0
   37.0160   26.6240   42.9500 C   0  0  0  0  0  0  0  0  0  0  0  0
   37.3390   26.6130   41.6140 C   0  0  0  0  0  0  0  0  0  0  0  0
   37.2470   29.8840   43.5590 H   0  0  0  0  0  0  0  0  0  0  0  0
   36.7210   27.7890   44.7260 H   0  0  0  0  0  0  0  0  0  0  0  0
   36.7790   25.6980   43.4870 H   0  0  0  0  0  0  0  0  0  0  0  0
   37.2860   32.3150   39.8680 C   0  0  0  0  0  0  0  0  0  0  0  0
   36.9560   31.1630   40.5800 C   0  0  0  0  0  0  0  0  0  0  0  0
   37.9210   30.2100   40.9340 C   0  0  0  0  0  0  0  0  0  0  0  0
   39.1870   30.4950   40.5350 N   0  0  0  0  0  0  0  0  0  0  0  0
   39.4920   31.6080   39.8500 C   0  0  0  0  0  0  0  0  0  0  0  0
   38.5610   32.5050   39.5210 N   0  0  0  0  0  0  0  0  0  0  0  0
   36.5230   33.0210   39.6150 H   0  0  0  0  0  0  0  0  0  0  0  0
   35.9200   30.9710   40.8840 H   0  0  0  0  0  0  0  0  0  0  0  0
   40.5610   31.6630   39.6180 H   0  0  0  0  0  0  0  0  0  0  0  0
   37.3550   25.3210   40.9300 C   0  0  0  0  0  0  0  0  0  0  0  0
   36.4290   25.0410   39.9430 C   0  0  0  0  0  0  0  0  0  0  0  0
   35.6750   25.7620   39.6500 H   0  0  0  0  0  0  0  0  0  0  0  0
   36.5170   23.7980   39.3510 C   0  0  0  0  0  3  0  0  0  0  0  0
   37.4790   22.8520   39.7080 C   0  0  0  0  0  0  0  0  0  0  0  0
   37.5220   21.9010   39.2330 H   0  0  0  0  0  0  0  0  0  0  0  0
   38.3830   23.2020   40.7150 C   0  0  0  0  0  0  0  0  0  0  0  0
   39.1110   22.4470   40.9640 H   0  0  0  0  0  0  0  0  0  0  0  0
   38.3350   24.4400   41.3390 C   0  0  0  0  0  3  0  0  0  0  0  0
  1  2  1  0  0  0  0
  2  7  2  0  0  0  0
  2  3  1  0  0  0  0
  3  4  2  0  0  0  0
  4  8  1  0  0  0  0
  4  5  1  0  0  0  0
  5  9  1  0  0  0  0
  6 10  1  0  0  0  0
  6  5  2  0  0  0  0
  7  6  1  0  0  0  0
 11 12  1  0  0  0  0
 12 18  1  0  0  0  0
 12 13  2  0  0  0  0
 13  3  1  0  0  0  0
 14 13  1  0  0  0  0
 15 14  2  0  0  0  0
 16 15  1  0  0  0  0
 16 11  2  0  0  0  0
 17 11  1  0  0  0  0
 19 15  1  0  0  0  0
 20 28  1  0  0  0  0
 20  7  1  0  0  0  0
 21 20  2  0  0  0  0
 22 21  1  0  0  0  0
 23 24  2  0  0  0  0
 23 21  1  0  0  0  0
 24 26  1  0  0  0  0
 25 24  1  0  0  0  0
 26 27  1  0  0  0  0
 26 28  2  0  0  0  0
M  END
>  <minimizedAffinity>
-5.22609186

$$$$

 OpenBabel03242512583D

 28 30  0  0  0  0  0  0  0  0999 V2000
   40.2290   30.3090   41.2440 F   0  0  0  0  0  0  0  0  0  0  0  0
   39.2070   31.0940   40.7750 C   0  0  0  0  0  0  0  0  0  0  0  0
   39.4390   32.2700   40.1200 C   0  0  0  0  0  0  0  0  0  0  0  0
   38.3440   32.9710   39.6960 C   0  0  0  0  0  0  0  0  0  0  0  0
   37.0500   32.5600   39.8920 C   0  0  0  0  0  0  0  0  0  0  0  0
   36.8740   31.3650   40.5590 C   0  0  0  0  0  0  0  0  0  0  0  0
   37.9390   30.6200   41.0060 C   0  0  0  0  0  0  0  0  0  0  0  0
   38.5070   33.9080   39.1740 H   0  0  0  0  0  0  0  0  0  0  0  0
   36.2070   33.1340   39.5470 H   0  0  0  0  0  0  0  0  0  0  0  0
   35.8410   31.0350   40.7170 H   0  0  0  0  0  0  0  0  0  0  0  0
   42.9560   32.5790   38.7340 C   0  0  0  0  0  0  0  0  0  0  0  0
   41.6330   32.1730   38.9000 C   0  0  0  0  0  0  0  0  0  0  0  0
   40.8260   32.6800   39.9270 C   0  0  0  0  0  0  0  0  0  0  0  0
   41.4260   33.5870   40.7380 N   0  0  0  0  0  0  0  0  0  0  0  0
   42.7010   33.9710   40.5680 C   0  0  0  0  0  0  0  0  0  0  0  0
   43.4550   33.4780   39.5850 N   0  0  0  0  0  0  0  0  0  0  0  0
   43.5430   32.1710   37.9380 H   0  0  0  0  0  0  0  0  0  0  0  0
   41.1850   31.4360   38.2210 H   0  0  0  0  0  0  0  0  0  0  0  0
   43.0080   34.7080   41.3180 H   0  0  0  0  0  0  0  0  0  0  0  0
   37.6470   29.3680   41.7020 C   0  0  0  0  0  0  0  0  0  0  0  0
   37.7950   29.2800   43.0740 C   0  0  0  0  0  0  0  0  0  0  0  0
   38.1260   30.1250   43.6650 H   0  0  0  0  0  0  0  0  0  0  0  0
   37.4980   28.0610   43.6480 C   0  0  0  0  0  3  0  0  0  0  0  0
   37.0680   26.9570   42.9090 C   0  0  0  0  0  0  0  0  0  0  0  0
   36.8460   26.0300   43.3800 H   0  0  0  0  0  0  0  0  0  0  0  0
   36.9420   27.1180   41.5270 C   0  0  0  0  0  0  0  0  0  0  0  0
   36.6080   26.2450   40.9900 H   0  0  0  0  0  0  0  0  0  0  0  0
   37.2280   28.3240   40.9040 C   0  0  0  0  0  3  0  0  0  0  0  0
  2  7  1  0  0  0  0
  2  1  1  0  0  0  0
  3  2  2  0  0  0  0
  4  5  2  0  0  0  0
  4  3  1  0  0  0  0
  5  6  1  0  0  0  0
  6 10  1  0  0  0  0
  6  7  2  0  0  0  0
  7 20  1  0  0  0  0
  8  4  1  0  0  0  0
  9  5  1  0  0  0  0
 11 12  2  0  0  0  0
 11 16  1  0  0  0  0
 12 13  1  0  0  0  0
 13  3  1  0  0  0  0
 13 14  2  0  0  0  0
 15 14  1  0  0  0  0
 15 19  1  0  0  0  0
 16 15  2  0  0  0  0
 17 11  1  0  0  0  0
 18 12  1  0  0  0  0
 20 21  1  0  0  0  0
 21 23  2  0  0  0  0
 21 22  1  0  0  0  0
 24 25  1  0  0  0  0
 24 23  1  0  0  0  0
 26 24  2  0  0  0  0
 27 26  1  0  0  0  0
 28 26  1  0  0  0  0
 28 20  2  0  0  0  0
M  END
>  <minimizedAffinity>
-5.12932587

$$$$

 OpenBabel03242512583D

 28 30  0  0  0  0  0  0  0  0999 V2000
   36.8710   31.2850   38.1240 F   0  0  0  0  0  0  0  0  0  0  0  0
   36.7100   30.4830   39.2240 C   0  0  0  0  0  0  0  0  0  0  0  0
   37.3940   30.7030   40.3860 C   0  0  0  0  0  0  0  0  0  0  0  0
   37.1550   29.8400   41.4200 C   0  0  0  0  0  0  0  0  0  0  0  0
   36.2800   28.7860   41.3490 C   0  0  0  0  0  0  0  0  0  0  0  0
   35.6170   28.6110   40.1520 C   0  0  0  0  0  0  0  0  0  0  0  0
   35.8190   29.4480   39.0810 C   0  0  0  0  0  0  0  0  0  0  0  0
   37.6890   29.9970   42.3510 H   0  0  0  0  0  0  0  0  0  0  0  0
   36.1130   28.1220   42.1800 H   0  0  0  0  0  0  0  0  0  0  0  0
   34.9170   27.7690   40.0930 H   0  0  0  0  0  0  0  0  0  0  0  0
   40.5730   32.7670   40.5170 C   0  0  0  0  0  0  0  0  0  0  0  0
   39.7090   31.6740   40.4740 C   0  0  0  0  0  0  0  0  0  0  0  0
   38.3170   31.8310   40.4310 C   0  0  0  0  0  0  0  0  0  0  0  0
   37.8820   33.1160   40.4330 N   0  0  0  0  0  0  0  0  0  0  0  0
   38.7240   34.1610   40.4740 C   0  0  0  0  0  0  0  0  0  0  0  0
   40.0460   33.9930   40.5150 N   0  0  0  0  0  0  0  0  0  0  0  0
   41.6310   32.6100   40.5490 H   0  0  0  0  0  0  0  0  0  0  0  0
   40.1030   30.6500   40.4740 H   0  0  0  0  0  0  0  0  0  0  0  0
   38.1880   35.1170   40.4680 H   0  0  0  0  0  0  0  0  0  0  0  0
   35.0680   29.1780   37.8570 C   0  0  0  0  0  0  0  0  0  0  0  0
   35.7260   29.0380   36.6490 C   0  0  0  0  0  0  0  0  0  0  0  0
   36.8030   29.1220   36.5760 H   0  0  0  0  0  0  0  0  0  0  0  0
   34.9390   28.7850   35.5450 C   0  0  0  0  0  3  0  0  0  0  0  0
   33.5490   28.6710   35.6110 C   0  0  0  0  0  0  0  0  0  0  0  0
   32.9680   28.4750   34.7420 H   0  0  0  0  0  0  0  0  0  0  0  0
   32.9500   28.8260   36.8640 C   0  0  0  0  0  0  0  0  0  0  0  0
   31.8760   28.7310   36.8770 H   0  0  0  0  0  0  0  0  0  0  0  0
   33.6990   29.0800   38.0040 C   0  0  0  0  0  3  0  0  0  0  0  0
  1  2  1  0  0  0  0
  2  3  1  0  0  0  0
  3 13  1  0  0  0  0
  3  4  2  0  0  0  0
  4  8  1  0  0  0  0
  5  4  1  0  0  0  0
  5  9  1  0  0  0  0
  6  5  2  0  0  0  0
  7  2  2  0  0  0  0
  7  6  1  0  0  0  0
 10  6  1  0  0  0  0
 11 17  1  0  0  0  0
 12 11  2  0  0  0  0
 13 14  2  0  0  0  0
 13 12  1  0  0  0  0
 14 15  1  0  0  0  0
 15 16  2  0  0  0  0
 16 11  1  0  0  0  0
 18 12  1  0  0  0  0
 19 15  1  0  0  0  0
 20 28  1  0  0  0  0
 20  7  1  0  0  0  0
 21 20  2  0  0  0  0
 22 21  1  0  0  0  0
 23 24  2  0  0  0  0
 23 21  1  0  0  0  0
 24 26  1  0  0  0  0
 25 24  1  0  0  0  0
 26 27  1  0  0  0  0
 26 28  2  0  0  0  0
M  END
>  <minimizedAffinity>
-5.09257555

$$$$

 OpenBabel03242512583D

 28 30  0  0  0  0  0  0  0  0999 V2000
   36.2810   26.6610   38.9520 F   0  0  0  0  0  0  0  0  0  0  0  0
   36.3650   27.7550   39.7740 C   0  0  0  0  0  0  0  0  0  0  0  0
   37.0660   27.7290   40.9450 C   0  0  0  0  0  0  0  0  0  0  0  0
   37.0810   28.8780   41.6860 C   0  0  0  0  0  0  0  0  0  0  0  0
   36.4400   30.0330   41.3180 C   0  0  0  0  0  0  0  0  0  0  0  0
   35.7460   30.0030   40.1260 C   0  0  0  0  0  0  0  0  0  0  0  0
   35.6980   28.8750   39.3420 C   0  0  0  0  0  0  0  0  0  0  0  0
   37.6330   28.8780   42.6200 H   0  0  0  0  0  0  0  0  0  0  0  0
   36.4690   30.9240   41.9230 H   0  0  0  0  0  0  0  0  0  0  0  0
   35.2310   30.9250   39.8300 H   0  0  0  0  0  0  0  0  0  0  0  0
   37.7300   24.2200   42.2220 C   0  0  0  0  0  0  0  0  0  0  0  0
   37.0670   25.3980   41.8820 C   0  0  0  0  0  0  0  0  0  0  0  0
   37.7390   26.4860   41.3090 C   0  0  0  0  0  0  0  0  0  0  0  0
   39.0690   26.3060   41.1150 N   0  0  0  0  0  0  0  0  0  0  0  0
   39.6960   25.1660   41.4470 C   0  0  0  0  0  0  0  0  0  0  0  0
   39.0410   24.1390   41.9900 N   0  0  0  0  0  0  0  0  0  0  0  0
   37.1840   23.4080   42.6570 H   0  0  0  0  0  0  0  0  0  0  0  0
   35.9880   25.5030   42.0560 H   0  0  0  0  0  0  0  0  0  0  0  0
   40.7660   25.2070   41.2150 H   0  0  0  0  0  0  0  0  0  0  0  0
   34.9360   28.9450   38.0970 C   0  0  0  0  0  0  0  0  0  0  0  0
   33.5560   28.8630   38.1160 C   0  0  0  0  0  0  0  0  0  0  0  0
   33.0070   28.7460   39.0420 H   0  0  0  0  0  0  0  0  0  0  0  0
   32.9180   28.9370   36.8960 C   0  0  0  0  0  3  0  0  0  0  0  0
   33.6010   29.0890   35.6880 C   0  0  0  0  0  0  0  0  0  0  0  0
   33.0820   29.1440   34.7620 H   0  0  0  0  0  0  0  0  0  0  0  0
   34.9960   29.1650   35.7430 C   0  0  0  0  0  0  0  0  0  0  0  0
   35.4890   29.2810   34.7920 H   0  0  0  0  0  0  0  0  0  0  0  0
   35.6820   29.0950   36.9460 C   0  0  0  0  0  3  0  0  0  0  0  0
  1  2  1  0  0  0  0
  2  3  1  0  0  0  0
  3 13  1  0  0  0  0
  3  4  2  0  0  0  0
  4  8  1  0  0  0  0
  5  4  1  0  0  0  0
  5  9  1  0  0  0  0
  6  5  2  0  0  0  0
  7  2  2  0  0  0  0
  7  6  1  0  0  0  0
 10  6  1  0  0  0  0
 11 17  1  0  0  0  0
 12 18  1  0  0  0  0
 12 11  2  0  0  0  0
 13 12  1  0  0  0  0
 14 13  2  0  0  0  0
 14 15  1  0  0  0  0
 15 16  2  0  0  0  0
 16 11  1  0  0  0  0
 19 15  1  0  0  0  0
 20 21  1  0  0  0  0
 20  7  1  0  0  0  0
 21 22  1  0  0  0  0
 23 21  2  0  0  0  0
 24 26  2  0  0  0  0
 24 23  1  0  0  0  0
 25 24  1  0  0  0  0
 26 28  1  0  0  0  0
 27 26  1  0  0  0  0
 28 20  2  0  0  0  0
M  END
>  <minimizedAffinity>
-5.08097696

$$$$

 OpenBabel03242512583D

 28 30  0  0  0  0  0  0  0  0999 V2000
   38.1300   28.1670   39.7370 F   0  0  0  0  0  0  0  0  0  0  0  0
   37.7390   27.9490   41.0330 C   0  0  0  0  0  0  0  0  0  0  0  0
   37.4270   26.7020   41.4950 C   0  0  0  0  0  0  0  0  0  0  0  0
   37.0490   26.6010   42.8050 C   0  0  0  0  0  0  0  0  0  0  0  0
   36.9700   27.6690   43.6620 C   0  0  0  0  0  0  0  0  0  0  0  0
   37.2970   28.9050   43.1430 C   0  0  0  0  0  0  0  0  0  0  0  0
   37.6830   29.0630   41.8340 C   0  0  0  0  0  0  0  0  0  0  0  0
   36.7960   25.6190   43.1910 H   0  0  0  0  0  0  0  0  0  0  0  0
   36.6680   27.5590   44.6900 H   0  0  0  0  0  0  0  0  0  0  0  0
   37.2340   29.7600   43.8260 H   0  0  0  0  0  0  0  0  0  0  0  0
   36.5850   24.1540   38.8140 C   0  0  0  0  0  0  0  0  0  0  0  0
   36.4740   25.2250   39.7000 C   0  0  0  0  0  0  0  0  0  0  0  0
   37.5200   25.5860   40.5590 C   0  0  0  0  0  0  0  0  0  0  0  0
   38.6360   24.8210   40.4630 N   0  0  0  0  0  0  0  0  0  0  0  0
   38.7310   23.7920   39.6060 C   0  0  0  0  0  0  0  0  0  0  0  0
   37.7260   23.4620   38.7940 N   0  0  0  0  0  0  0  0  0  0  0  0
   35.7660   23.9070   38.1710 H   0  0  0  0  0  0  0  0  0  0  0  0
   35.5530   25.8190   39.7460 H   0  0  0  0  0  0  0  0  0  0  0  0
   39.7060   23.2950   39.6720 H   0  0  0  0  0  0  0  0  0  0  0  0
   38.0080   30.4140   41.3800 C   0  0  0  0  0  0  0  0  0  0  0  0
   39.2580   30.9510   41.6250 C   0  0  0  0  0  0  0  0  0  0  0  0
   40.0230   30.3940   42.1520 H   0  0  0  0  0  0  0  0  0  0  0  0
   39.4790   32.2320   41.1630 C   0  0  0  0  0  3  0  0  0  0  0  0
   38.5110   32.9720   40.4800 C   0  0  0  0  0  0  0  0  0  0  0  0
   38.7110   33.9580   40.1350 H   0  0  0  0  0  0  0  0  0  0  0  0
   37.2700   32.3670   40.2690 C   0  0  0  0  0  0  0  0  0  0  0  0
   36.5480   32.9670   39.7390 H   0  0  0  0  0  0  0  0  0  0  0  0
   37.0000   31.0810   40.7140 C   0  0  0  0  0  3  0  0  0  0  0  0
  1  2  1  0  0  0  0
  2  3  2  0  0  0  0
  2  7  1  0  0  0  0
  3  4  1  0  0  0  0
  4  8  1  0  0  0  0
  4  5  2  0  0  0  0
  5  9  1  0  0  0  0
  6  5  1  0  0  0  0
  6 10  1  0  0  0  0
  7  6  2  0  0  0  0
 11 12  1  0  0  0  0
 12 18  1  0  0  0  0
 12 13  2  0  0  0  0
 13  3  1  0  0  0  0
 14 13  1  0  0  0  0
 15 19  1  0  0  0  0
 15 14  2  0  0  0  0
 16 11  2  0  0  0  0
 16 15  1  0  0  0  0
 17 11  1  0  0  0  0
 20 21  1  0  0  0  0
 20  7  1  0  0  0  0
 21 22  1  0  0  0  0
 23 21  2  0  0  0  0
 24 23  1  0  0  0  0
 25 24  1  0  0  0  0
 26 24  2  0  0  0  0
 26 28  1  0  0  0  0
 27 26  1  0  0  0  0
 28 20  2  0  0  0  0
M  END
>  <minimizedAffinity>
-5.04948044

$$$$

 OpenBabel03242512583D

 28 30  0  0  0  0  0  0  0  0999 V2000
   39.5590   26.9070   40.8700 F   0  0  0  0  0  0  0  0  0  0  0  0
   38.5460   27.0680   41.7790 C   0  0  0  0  0  0  0  0  0  0  0  0
   37.4860   26.2080   41.8430 C   0  0  0  0  0  0  0  0  0  0  0  0
   36.5330   26.4650   42.7890 C   0  0  0  0  0  0  0  0  0  0  0  0
   36.5870   27.5230   43.6610 C   0  0  0  0  0  0  0  0  0  0  0  0
   37.6790   28.3600   43.5520 C   0  0  0  0  0  0  0  0  0  0  0  0
   38.6660   28.1480   42.6190 C   0  0  0  0  0  0  0  0  0  0  0  0
   35.6840   25.7940   42.8560 H   0  0  0  0  0  0  0  0  0  0  0  0
   35.8210   27.7020   44.3960 H   0  0  0  0  0  0  0  0  0  0  0  0
   37.7250   29.2070   44.2470 H   0  0  0  0  0  0  0  0  0  0  0  0
   37.8130   22.7420   40.3390 C   0  0  0  0  0  0  0  0  0  0  0  0
   37.8490   23.7930   41.2540 C   0  0  0  0  0  0  0  0  0  0  0  0
   37.4570   25.0920   40.9040 C   0  0  0  0  0  0  0  0  0  0  0  0
   37.0440   25.2440   39.6200 N   0  0  0  0  0  0  0  0  0  0  0  0
   37.0130   24.2240   38.7490 C   0  0  0  0  0  0  0  0  0  0  0  0
   37.3900   22.9930   39.0980 N   0  0  0  0  0  0  0  0  0  0  0  0
   38.1200   21.7620   40.6410 H   0  0  0  0  0  0  0  0  0  0  0  0
   38.1900   23.6270   42.2830 H   0  0  0  0  0  0  0  0  0  0  0  0
   36.6520   24.5400   37.7640 H   0  0  0  0  0  0  0  0  0  0  0  0
   39.7810   29.0910   42.5840 C   0  0  0  0  0  0  0  0  0  0  0  0
   41.0540   28.6830   42.9390 C   0  0  0  0  0  0  0  0  0  0  0  0
   41.2580   27.6650   43.2470 H   0  0  0  0  0  0  0  0  0  0  0  0
   42.0460   29.6390   42.8770 C   0  0  0  0  0  3  0  0  0  0  0  0
   41.8100   30.9570   42.4820 C   0  0  0  0  0  0  0  0  0  0  0  0
   42.5960   31.6730   42.4440 H   0  0  0  0  0  0  0  0  0  0  0  0
   40.5000   31.3000   42.1390 C   0  0  0  0  0  0  0  0  0  0  0  0
   40.3550   32.3260   41.8390 H   0  0  0  0  0  0  0  0  0  0  0  0
   39.4680   30.3740   42.1840 C   0  0  0  0  0  3  0  0  0  0  0  0
  1  2  1  0  0  0  0
  2  3  2  0  0  0  0
  2  7  1  0  0  0  0
  3  4  1  0  0  0  0
  4  8  1  0  0  0  0
  4  5  2  0  0  0  0
  5  9  1  0  0  0  0
  6  5  1  0  0  0  0
  6 10  1  0  0  0  0
  7  6  2  0  0  0  0
 11 17  1  0  0  0  0
 11 12  1  0  0  0  0
 12 18  1  0  0  0  0
 13 12  2  0  0  0  0
 13  3  1  0  0  0  0
 14 13  1  0  0  0  0
 15 16  1  0  0  0  0
 15 14  2  0  0  0  0
 16 11  2  0  0  0  0
 19 15  1  0  0  0  0
 20  7  1  0  0  0  0
 20 21  1  0  0  0  0
 21 22  1  0  0  0  0
 23 21  2  0  0  0  0
 24 23  1  0  0  0  0
 25 24  1  0  0  0  0
 26 28  1  0  0  0  0
 26 24  2  0  0  0  0
 27 26  1  0  0  0  0
 28 20  2  0  0  0  0
M  END
>  <minimizedAffinity>
-5.04082394

$$$$

 OpenBabel03242512583D

 28 30  0  0  0  0  0  0  0  0999 V2000
   39.5720   30.5020   38.6570 F   0  0  0  0  0  0  0  0  0  0  0  0
   39.2140   31.7360   39.1360 C   0  0  0  0  0  0  0  0  0  0  0  0
   40.1260   32.7380   39.3080 C   0  0  0  0  0  0  0  0  0  0  0  0
   39.6580   33.9280   39.7920 C   0  0  0  0  0  0  0  0  0  0  0  0
   38.3440   34.1610   40.1070 C   0  0  0  0  0  0  0  0  0  0  0  0
   37.4660   33.1140   39.9140 C   0  0  0  0  0  0  0  0  0  0  0  0
   37.8830   31.8970   39.4310 C   0  0  0  0  0  0  0  0  0  0  0  0
   40.3670   34.7360   39.9360 H   0  0  0  0  0  0  0  0  0  0  0  0
   38.0040   35.1100   40.4880 H   0  0  0  0  0  0  0  0  0  0  0  0
   36.4140   33.2980   40.1660 H   0  0  0  0  0  0  0  0  0  0  0  0
   43.4130   32.5430   37.4240 C   0  0  0  0  0  0  0  0  0  0  0  0
   42.0810   32.8180   37.7320 C   0  0  0  0  0  0  0  0  0  0  0  0
   41.5170   32.4600   38.9630 C   0  0  0  0  0  0  0  0  0  0  0  0
   42.3580   31.8310   39.8230 N   0  0  0  0  0  0  0  0  0  0  0  0
   43.6380   31.5710   39.5150 C   0  0  0  0  0  0  0  0  0  0  0  0
   44.1600   31.9200   38.3380 N   0  0  0  0  0  0  0  0  0  0  0  0
   43.8110   32.8310   36.4740 H   0  0  0  0  0  0  0  0  0  0  0  0
   41.4340   33.3300   37.0080 H   0  0  0  0  0  0  0  0  0  0  0  0
   44.1580   31.0590   40.3320 H   0  0  0  0  0  0  0  0  0  0  0  0
   36.8750   30.8520   39.2620 C   0  0  0  0  0  0  0  0  0  0  0  0
   36.5760   30.3660   38.0030 C   0  0  0  0  0  0  0  0  0  0  0  0
   37.0740   30.7390   37.1170 H   0  0  0  0  0  0  0  0  0  0  0  0
   35.6120   29.3820   37.9360 C   0  0  0  0  0  3  0  0  0  0  0  0
   34.9550   28.8820   39.0630 C   0  0  0  0  0  0  0  0  0  0  0  0
   34.2160   28.1220   38.9800 H   0  0  0  0  0  0  0  0  0  0  0  0
   35.3070   29.4200   40.3030 C   0  0  0  0  0  0  0  0  0  0  0  0
   34.7790   29.0110   41.1500 H   0  0  0  0  0  0  0  0  0  0  0  0
   36.2700   30.4110   40.4220 C   0  0  0  0  0  3  0  0  0  0  0  0
  1  2  1  0  0  0  0
  2  3  2  0  0  0  0
  2  7  1  0  0  0  0
  3  4  1  0  0  0  0
  4  8  1  0  0  0  0
  4  5  2  0  0  0  0
  5  9  1  0  0  0  0
  6  5  1  0  0  0  0
  6 10  1  0  0  0  0
  7  6  2  0  0  0  0
 11 12  2  0  0  0  0
 11 16  1  0  0  0  0
 12 13  1  0  0  0  0
 13  3  1  0  0  0  0
 13 14  2  0  0  0  0
 15 14  1  0  0  0  0
 15 19  1  0  0  0  0
 16 15  2  0  0  0  0
 17 11  1  0  0  0  0
 18 12  1  0  0  0  0
 20  7  1  0  0  0  0
 20 28  1  0  0  0  0
 21 20  2  0  0  0  0
 22 21  1  0  0  0  0
 23 21  1  0  0  0  0
 23 24  2  0  0  0  0
 24 26  1  0  0  0  0
 25 24  1  0  0  0  0
 26 28  2  0  0  0  0
 26 27  1  0  0  0  0
M  END
>  <minimizedAffinity>
-5.02281237

$$$$

 OpenBabel03242512583D

 28 30  0  0  0  0  0  0  0  0999 V2000
   38.6060   29.0630   40.2240 F   0  0  0  0  0  0  0  0  0  0  0  0
   38.0530   28.5960   41.3880 C   0  0  0  0  0  0  0  0  0  0  0  0
   38.7110   28.6680   42.5830 C   0  0  0  0  0  0  0  0  0  0  0  0
   38.0640   28.1710   43.6800 C   0  0  0  0  0  0  0  0  0  0  0  0
   36.8100   27.6160   43.6410 C   0  0  0  0  0  0  0  0  0  0  0  0
   36.1910   27.5690   42.4090 C   0  0  0  0  0  0  0  0  0  0  0  0
   36.7960   28.0530   41.2740 C   0  0  0  0  0  0  0  0  0  0  0  0
   38.5700   28.2190   44.6380 H   0  0  0  0  0  0  0  0  0  0  0  0
   36.3250   27.2320   44.5230 H   0  0  0  0  0  0  0  0  0  0  0  0
   35.1890   27.1240   42.3750 H   0  0  0  0  0  0  0  0  0  0  0  0
   42.4790   29.0930   42.6290 C   0  0  0  0  0  0  0  0  0  0  0  0
   41.2170   28.5020   42.6200 C   0  0  0  0  0  0  0  0  0  0  0  0
   40.0420   29.2650   42.5920 C   0  0  0  0  0  0  0  0  0  0  0  0
   40.2280   30.6090   42.5740 N   0  0  0  0  0  0  0  0  0  0  0  0
   41.4480   31.1670   42.5820 C   0  0  0  0  0  0  0  0  0  0  0  0
   42.5570   30.4250   42.6090 N   0  0  0  0  0  0  0  0  0  0  0  0
   43.3550   28.4790   42.6500 H   0  0  0  0  0  0  0  0  0  0  0  0
   41.1110   27.4100   42.6350 H   0  0  0  0  0  0  0  0  0  0  0  0
   41.3970   32.2610   42.5640 H   0  0  0  0  0  0  0  0  0  0  0  0
   36.0570   27.9560   40.0170 C   0  0  0  0  0  0  0  0  0  0  0  0
   36.2420   26.8720   39.1790 C   0  0  0  0  0  0  0  0  0  0  0  0
   36.9290   26.0730   39.4270 H   0  0  0  0  0  0  0  0  0  0  0  0
   35.5040   26.8630   38.0130 C   0  0  0  0  0  3  0  0  0  0  0  0
   34.6110   27.8790   37.6700 C   0  0  0  0  0  0  0  0  0  0  0  0
   34.0550   27.8440   36.7640 H   0  0  0  0  0  0  0  0  0  0  0  0
   34.4750   28.9450   38.5630 C   0  0  0  0  0  0  0  0  0  0  0  0
   33.7770   29.7110   38.2650 H   0  0  0  0  0  0  0  0  0  0  0  0
   35.1940   28.9990   39.7480 C   0  0  0  0  0  3  0  0  0  0  0  0
  1  2  1  0  0  0  0
  2  3  1  0  0  0  0
  3 13  1  0  0  0  0
  3  4  2  0  0  0  0
  4  8  1  0  0  0  0
  5  4  1  0  0  0  0
  5  9  1  0  0  0  0
  6  5  2  0  0  0  0
  7  2  2  0  0  0  0
  7  6  1  0  0  0  0
 10  6  1  0  0  0  0
 11 17  1  0  0  0  0
 12 11  1  0  0  0  0
 12 18  1  0  0  0  0
 13 12  2  0  0  0  0
 14 15  2  0  0  0  0
 14 13  1  0  0  0  0
 15 16  1  0  0  0  0
 16 11  2  0  0  0  0
 19 15  1  0  0  0  0
 20  7  1  0  0  0  0
 21 22  1  0  0  0  0
 21 20  2  0  0  0  0
 23 21  1  0  0  0  0
 24 23  2  0  0  0  0
 24 26  1  0  0  0  0
 25 24  1  0  0  0  0
 26 28  2  0  0  0  0
 27 26  1  0  0  0  0
 28 20  1  0  0  0  0
M  END
>  <minimizedAffinity>
-5.02161407

$$$$
