
 OpenBabel03252500473D

 26 28  0  0  0  0  0  0  0  0999 V2000
   45.8210   33.6120   45.8930 C   0  0  0  0  0  0  0  0  0  0  0  0
   45.8800   33.1920   44.5530 C   0  0  0  0  0  0  0  0  0  0  0  0
   46.6110   32.0740   44.1700 C   0  0  0  0  0  0  0  0  0  0  0  0
   47.2530   31.4350   45.1880 N   0  0  0  0  0  0  0  0  0  0  0  0
   47.1990   31.8330   46.4660 C   0  0  0  0  0  0  0  0  0  0  0  0
   46.4870   32.9180   46.8280 N   0  0  0  0  0  0  0  0  0  0  0  0
   45.2550   34.4800   46.1970 H   0  0  0  0  0  0  0  0  0  0  0  0
   46.6780   31.7290   43.1700 H   0  0  0  0  0  0  0  0  0  0  0  0
   47.9190   31.0930   47.5020 C   0  0  0  0  0  0  0  0  0  0  0  0
   48.2710   29.8020   47.3320 C   0  0  0  0  0  0  0  0  0  0  0  0
   48.9500   29.0600   48.2740 C   0  0  0  0  0  0  0  0  0  0  0  0
   49.2660   29.7040   49.4250 N   0  0  0  0  0  0  0  0  0  0  0  0
   48.9180   30.9810   49.5980 C   0  0  0  0  0  0  0  0  0  0  0  0
   48.2460   31.7250   48.6700 N   0  0  0  0  0  0  0  0  0  0  0  0
   48.0390   29.2350   46.4190 H   0  0  0  0  0  0  0  0  0  0  0  0
   49.2410   28.0230   48.1550 H   0  0  0  0  0  0  0  0  0  0  0  0
   49.2160   31.4040   50.5530 H   0  0  0  0  0  0  0  0  0  0  0  0
   45.1500   33.9570   43.5450 C   0  0  0  0  0  0  0  0  0  0  0  0
   45.2360   35.3300   43.6720 C   0  0  0  0  0  0  0  0  0  0  0  0
   45.7930   35.8410   44.4440 H   0  0  0  0  0  0  0  0  0  0  0  0
   44.5460   36.0820   42.7190 C   0  0  0  0  0  0  0  0  0  0  0  0
   43.8070   35.5230   41.6930 C   0  0  0  0  0  0  0  0  0  0  0  0
   43.2830   36.1350   40.9710 H   0  0  0  0  0  0  0  0  0  0  0  0
   43.7730   34.1270   41.6390 C   0  0  0  0  0  0  0  0  0  0  0  0
   43.1900   33.6840   40.8290 H   0  0  0  0  0  0  0  0  0  0  0  0
   44.4350   33.3210   42.5520 C   0  0  0  0  0  0  0  0  0  0  0  0
  1  7  1  0  0  0  0
  1  6  1  0  0  0  0
  2  1  2  0  0  0  0
  3  2  1  0  0  0  0
  3  4  2  0  0  0  0
  4  5  1  0  0  0  0
  5  6  2  0  0  0  0
  5  9  1  0  0  0  0
  8  3  1  0  0  0  0
  9 14  1  0  0  0  0
 10  9  2  0  0  0  0
 10 11  1  0  0  0  0
 11 12  2  0  0  0  0
 12 13  1  0  0  0  0
 13 17  1  0  0  0  0
 14 13  2  0  0  0  0
 15 10  1  0  0  0  0
 16 11  1  0  0  0  0
 18 19  1  0  0  0  0
 18  2  1  0  0  0  0
 19 20  1  0  0  0  0
 21 19  2  0  0  0  0
 22 21  1  0  0  0  0
 23 22  1  0  0  0  0
 24 22  2  0  0  0  0
 24 26  1  0  0  0  0
 25 24  1  0  0  0  0
 26 18  2  0  0  0  0
M  END
>  <minimizedAffinity>
-4.60547495

>  <minimizedRMSD>
3.06712556

$$$$
