
 OpenBabel03252506533D

 31 34  0  0  0  0  0  0  0  0999 V2000
   47.3400   31.4110   45.1760 C   0  0  0  0  0  0  0  0  0  0  0  0
   46.8940   32.7260   45.1230 C   0  0  0  0  0  0  0  0  0  0  0  0
   46.2070   33.3310   46.1730 C   0  0  0  0  0  0  0  0  0  0  0  0
   45.9440   32.6070   47.3360 C   0  0  0  0  0  0  0  0  0  0  0  0
   45.3240   32.8540   48.5220 N   0  0  0  0  0  0  0  0  0  0  0  0
   45.3920   31.7090   49.2800 C   0  0  0  0  0  0  0  0  0  0  0  0
   46.0500   30.7910   48.5450 N   0  0  0  0  0  0  0  0  0  0  0  0
   46.4030   31.2980   47.3540 C   0  0  0  0  0  0  0  0  0  0  0  0
   47.0840   30.6750   46.3330 C   0  0  0  0  0  0  0  0  0  0  0  0
   47.8720   30.9470   44.3590 H   0  0  0  0  0  0  0  0  0  0  0  0
   45.8600   34.3460   46.1370 H   0  0  0  0  0  0  0  0  0  0  0  0
   44.8960   33.7870   48.7310 H   0  0  0  0  0  0  0  0  0  0  0  0
   44.9720   31.6330   50.2790 H   0  0  0  0  0  0  0  0  0  0  0  0
   46.4790   35.1740   42.4170 C   0  0  0  0  0  0  0  0  0  0  0  0
   47.6470   35.0190   41.6730 C   0  0  0  0  0  0  0  0  0  0  0  0
   48.5890   34.0550   42.1150 C   0  0  0  0  0  0  0  0  0  0  0  0
   48.2730   33.3530   43.2390 N   0  0  0  0  0  0  0  0  0  0  0  0
   47.1420   33.5220   43.9380 C   0  0  0  0  0  0  0  0  0  0  0  0
   46.2520   34.4350   43.5170 N   0  0  0  0  0  0  0  0  0  0  0  0
   45.7760   35.9250   42.0490 H   0  0  0  0  0  0  0  0  0  0  0  0
   47.9250   35.5540   40.7860 H   0  0  0  0  0  0  0  0  0  0  0  0
   49.5330   33.8320   41.6360 H   0  0  0  0  0  0  0  0  0  0  0  0
   47.5320   29.3010   46.4280 C   0  0  0  0  0  0  0  0  0  0  0  0
   46.8130   28.1400   46.2220 C   0  0  0  0  0  0  0  0  0  0  0  0
   45.7790   28.3080   45.9560 H   0  0  0  0  0  0  0  0  0  0  0  0
   47.4280   26.9140   46.3630 C   0  0  0  0  0  0  0  0  0  0  0  0
   48.7580   26.7840   46.7070 C   0  0  0  0  0  0  0  0  0  0  0  0
   49.1910   25.7940   46.8040 H   0  0  0  0  0  0  0  0  0  0  0  0
   49.4840   27.9630   46.9150 C   0  0  0  0  0  0  0  0  0  0  0  0
   50.5440   27.8770   47.1890 H   0  0  0  0  0  0  0  0  0  0  0  0
   48.8740   29.1930   46.7760 C   0  0  0  0  0  0  0  0  0  0  0  0
  1  9  1  0  0  0  0
  2  1  2  0  0  0  0
  2  3  1  0  0  0  0
  3  4  2  0  0  0  0
  4  8  1  0  0  0  0
  4  5  1  0  0  0  0
  5 12  1  0  0  0  0
  5  6  1  0  0  0  0
  6 13  1  0  0  0  0
  7  6  2  0  0  0  0
  8  7  1  0  0  0  0
  9 23  1  0  0  0  0
  9  8  2  0  0  0  0
 10  1  1  0  0  0  0
 11  3  1  0  0  0  0
 14 19  1  0  0  0  0
 15 16  1  0  0  0  0
 15 14  2  0  0  0  0
 16 17  2  0  0  0  0
 17 18  1  0  0  0  0
 18  2  1  0  0  0  0
 19 18  2  0  0  0  0
 20 14  1  0  0  0  0
 21 15  1  0  0  0  0
 22 16  1  0  0  0  0
 23 31  1  0  0  0  0
 24 26  1  0  0  0  0
 24 23  2  0  0  0  0
 25 24  1  0  0  0  0
 26 27  2  0  0  0  0
 27 28  1  0  0  0  0
 27 29  1  0  0  0  0
 29 30  1  0  0  0  0
 31 29  2  0  0  0  0
M  END
>  <minimizedAffinity>
-5.27018213

>  <minimizedRMSD>
0.421114296

$$$$
