
 OpenBabel03252503033D

 33 34  0  0  0  0  0  0  0  0999 V2000
   37.4580   32.5440   40.3390 C   0  0  0  0  0  0  0  0  0  0  0  0
   38.6820   33.0710   40.6840 C   0  0  0  0  0  0  0  0  0  0  0  0
   39.5970   32.3430   41.4360 C   0  0  0  0  0  0  0  0  0  0  0  0
   39.2090   31.0970   41.8040 N   0  0  0  0  0  0  0  0  0  0  0  0
   38.0210   30.6000   41.4630 C   0  0  0  0  0  0  0  0  0  0  0  0
   37.1410   31.2980   40.7400 N   0  0  0  0  0  0  0  0  0  0  0  0
   36.8120   33.1840   39.7510 H   0  0  0  0  0  0  0  0  0  0  0  0
   40.5340   32.7970   41.6780 H   0  0  0  0  0  0  0  0  0  0  0  0
   37.6450   29.2520   41.8810 C   0  0  0  0  0  0  0  0  0  0  0  0
   37.6110   28.8790   43.2200 C   0  0  0  0  0  0  0  0  0  0  0  0
   37.8750   29.6260   43.9580 H   0  0  0  0  0  0  0  0  0  0  0  0
   37.2690   27.6360   43.6910 C   0  0  0  0  0  3  0  0  0  0  0  0
   36.9330   26.6860   42.7370 C   0  0  0  0  0  0  0  0  0  0  0  0
   36.6560   25.6880   43.0620 H   0  0  0  0  0  0  0  0  0  0  0  0
   36.9520   27.0040   41.3970 C   0  0  0  0  0  0  0  0  0  0  0  0
   36.6970   26.2950   40.6160 H   0  0  0  0  0  0  0  0  0  0  0  0
   37.2990   28.2630   40.9540 C   0  0  0  0  0  3  0  0  0  0  0  0
   39.1240   34.7480   40.1500 S   0  0  0  0  0  0  0  0  0  0  0  0
   40.8560   34.7930   39.6830 C   0  0  0  0  0  0  0  0  0  0  0  0
   41.5090   34.3550   40.4700 H   0  0  0  0  0  0  0  0  0  0  0  0
   41.2350   35.8180   39.5160 H   0  0  0  0  0  0  0  0  0  0  0  0
   40.9870   33.9580   38.4910 N   0  0  0  0  0  0  0  0  0  0  0  0
   40.6420   33.0010   38.6260 H   0  0  0  0  0  0  0  0  0  0  0  0
   42.6040   33.8860   37.9190 S   0  0  0  0  0  0  0  0  0  0  0  0
   42.7400   34.4440   36.5380 O   0  0  0  0  0  0  0  0  0  0  0  0
   42.1610   34.0610   35.8070 H   0  0  0  0  0  0  0  0  0  0  0  0
   43.4170   34.7090   38.9020 O   0  0  0  0  0  0  0  0  0  0  0  0
   44.2820   35.0890   38.6210 H   0  0  0  0  0  0  0  0  0  0  0  0
   43.1810   32.3370   38.0080 O   0  0  0  0  0  0  0  0  0  0  0  0
   42.8820   31.5800   36.8850 C   0  0  0  0  0  0  0  0  0  0  0  0
   41.9630   30.9780   37.1090 H   0  0  0  0  0  0  0  0  0  0  0  0
   43.7370   30.8670   36.7070 H   0  0  0  0  0  0  0  0  0  0  0  0
   42.7620   32.1590   35.9630 H   0  0  0  0  0  0  0  0  0  0  0  0
  1  2  2  0  0  0  0
  1  6  1  0  0  0  0
  2  3  1  0  0  0  0
  3  8  1  0  0  0  0
  3  4  2  0  0  0  0
  5  4  1  0  0  0  0
  5  9  1  0  0  0  0
  6  5  2  0  0  0  0
  7  1  1  0  0  0  0
  9 10  1  0  0  0  0
 10 12  2  0  0  0  0
 10 11  1  0  0  0  0
 13 14  1  0  0  0  0
 13 12  1  0  0  0  0
 15 13  2  0  0  0  0
 16 15  1  0  0  0  0
 17 15  1  0  0  0  0
 17  9  2  0  0  0  0
 18  2  1  0  0  0  0
 19 18  1  0  0  0  0
 19 20  1  0  0  0  0
 21 19  1  0  0  0  0
 22 23  1  0  0  0  0
 22 19  1  0  0  0  0
 24 29  1  0  0  0  0
 24 22  1  0  0  0  0
 24 27  1  0  0  0  0
 25 24  1  0  0  0  0
 26 25  1  0  0  0  0
 28 27  1  0  0  0  0
 30 31  1  0  0  0  0
 30 29  1  0  0  0  0
 32 30  1  0  0  0  0
 33 30  1  0  0  0  0
M  END
>  <minimizedAffinity>
-5.78828192

$$$$

 OpenBabel03252503033D

 33 34  0  0  0  0  0  0  0  0999 V2000
   40.9060   31.6170   40.2880 C   0  0  0  0  0  0  0  0  0  0  0  0
   40.2760   32.7760   39.8970 C   0  0  0  0  0  0  0  0  0  0  0  0
   38.9180   32.9740   40.1270 C   0  0  0  0  0  0  0  0  0  0  0  0
   38.2660   31.9630   40.7510 N   0  0  0  0  0  0  0  0  0  0  0  0
   38.8900   30.8460   41.1240 C   0  0  0  0  0  0  0  0  0  0  0  0
   40.1930   30.6550   40.9050 N   0  0  0  0  0  0  0  0  0  0  0  0
   41.9650   31.5530   40.0680 H   0  0  0  0  0  0  0  0  0  0  0  0
   38.4750   33.8920   39.8030 H   0  0  0  0  0  0  0  0  0  0  0  0
   38.1470   29.7830   41.7950 C   0  0  0  0  0  0  0  0  0  0  0  0
   37.0700   29.1430   41.1920 C   0  0  0  0  0  0  0  0  0  0  0  0
   36.7910   29.4590   40.1940 H   0  0  0  0  0  0  0  0  0  0  0  0
   36.3240   28.1390   41.7550 C   0  0  0  0  0  3  0  0  0  0  0  0
   36.6900   27.7410   43.0340 C   0  0  0  0  0  0  0  0  0  0  0  0
   36.1290   26.9500   43.5200 H   0  0  0  0  0  0  0  0  0  0  0  0
   37.7490   28.3440   43.6760 C   0  0  0  0  0  0  0  0  0  0  0  0
   38.0710   28.0680   44.6750 H   0  0  0  0  0  0  0  0  0  0  0  0
   38.4810   29.3520   43.0830 C   0  0  0  0  0  3  0  0  0  0  0  0
   41.2230   34.0820   39.0660 S   0  0  0  0  0  0  0  0  0  0  0  0
   41.8580   33.4630   37.5050 C   0  0  0  0  0  0  0  0  0  0  0  0
   41.0860   33.4900   36.7030 H   0  0  0  0  0  0  0  0  0  0  0  0
   42.1960   32.4130   37.5590 H   0  0  0  0  0  0  0  0  0  0  0  0
   42.9340   34.3670   37.1050 N   0  0  0  0  0  0  0  0  0  0  0  0
   42.9730   34.5300   36.0930 H   0  0  0  0  0  0  0  0  0  0  0  0
   44.4730   33.8250   37.6360 S   0  0  0  0  0  0  0  0  0  0  0  0
   45.4340   33.6540   36.5020 O   0  0  0  0  0  0  0  0  0  0  0  0
   45.1680   33.0550   35.7360 H   0  0  0  0  0  0  0  0  0  0  0  0
   44.9720   34.8960   38.5900 O   0  0  0  0  0  0  0  0  0  0  0  0
   45.9380   34.9840   38.7620 H   0  0  0  0  0  0  0  0  0  0  0  0
   44.3230   32.4350   38.5210 O   0  0  0  0  0  0  0  0  0  0  0  0
   44.7580   32.5730   39.8300 C   0  0  0  0  0  0  0  0  0  0  0  0
   45.8110   32.1920   39.8870 H   0  0  0  0  0  0  0  0  0  0  0  0
   44.1110   31.9220   40.4840 H   0  0  0  0  0  0  0  0  0  0  0  0
   44.6820   33.5890   40.2310 H   0  0  0  0  0  0  0  0  0  0  0  0
  1  6  1  0  0  0  0
  2  3  1  0  0  0  0
  2  1  2  0  0  0  0
  3  4  2  0  0  0  0
  4  5  1  0  0  0  0
  5  9  1  0  0  0  0
  6  5  2  0  0  0  0
  7  1  1  0  0  0  0
  8  3  1  0  0  0  0
  9 17  1  0  0  0  0
 10 12  1  0  0  0  0
 10  9  2  0  0  0  0
 11 10  1  0  0  0  0
 12 13  2  0  0  0  0
 13 14  1  0  0  0  0
 13 15  1  0  0  0  0
 15 16  1  0  0  0  0
 17 15  2  0  0  0  0
 18  2  1  0  0  0  0
 19 21  1  0  0  0  0
 19 18  1  0  0  0  0
 20 19  1  0  0  0  0
 22 19  1  0  0  0  0
 22 24  1  0  0  0  0
 23 22  1  0  0  0  0
 24 29  1  0  0  0  0
 24 27  1  0  0  0  0
 25 24  1  0  0  0  0
 26 25  1  0  0  0  0
 27 28  1  0  0  0  0
 29 30  1  0  0  0  0
 30 31  1  0  0  0  0
 30 33  1  0  0  0  0
 30 32  1  0  0  0  0
M  END
>  <minimizedAffinity>
-5.38848209

$$$$

 OpenBabel03252503033D

 33 34  0  0  0  0  0  0  0  0999 V2000
   38.3650   29.9560   39.5460 C   0  0  0  0  0  0  0  0  0  0  0  0
   37.6330   30.8740   40.2630 C   0  0  0  0  0  0  0  0  0  0  0  0
   36.6670   30.4720   41.1790 C   0  0  0  0  0  0  0  0  0  0  0  0
   36.4940   29.1340   41.3160 N   0  0  0  0  0  0  0  0  0  0  0  0
   37.2100   28.2570   40.6140 C   0  0  0  0  0  0  0  0  0  0  0  0
   38.1390   28.6410   39.7340 N   0  0  0  0  0  0  0  0  0  0  0  0
   39.0950   30.3620   38.8560 H   0  0  0  0  0  0  0  0  0  0  0  0
   36.1250   31.2250   41.7110 H   0  0  0  0  0  0  0  0  0  0  0  0
   36.9910   26.8250   40.7940 C   0  0  0  0  0  0  0  0  0  0  0  0
   36.6020   26.0020   39.7430 C   0  0  0  0  0  0  0  0  0  0  0  0
   36.4620   26.4580   38.7710 H   0  0  0  0  0  0  0  0  0  0  0  0
   36.3760   24.6500   39.8320 C   0  0  0  0  0  3  0  0  0  0  0  0
   36.5590   24.0760   41.0820 C   0  0  0  0  0  0  0  0  0  0  0  0
   36.3920   23.0100   41.2020 H   0  0  0  0  0  0  0  0  0  0  0  0
   36.9440   24.8480   42.1570 C   0  0  0  0  0  0  0  0  0  0  0  0
   37.0980   24.4430   43.1510 H   0  0  0  0  0  0  0  0  0  0  0  0
   37.1630   26.2040   42.0360 C   0  0  0  0  0  3  0  0  0  0  0  0
   37.9260   32.6480   40.0200 S   0  0  0  0  0  0  0  0  0  0  0  0
   39.6780   32.9970   40.1910 C   0  0  0  0  0  0  0  0  0  0  0  0
   40.2820   32.0650   40.2590 H   0  0  0  0  0  0  0  0  0  0  0  0
   39.9190   33.5760   41.1010 H   0  0  0  0  0  0  0  0  0  0  0  0
   40.0850   33.6930   38.9720 N   0  0  0  0  0  0  0  0  0  0  0  0
   39.3080   34.1620   38.4940 H   0  0  0  0  0  0  0  0  0  0  0  0
   40.8710   32.6510   37.8580 S   0  0  0  0  0  0  0  0  0  0  0  0
   41.3520   31.3910   38.5050 O   0  0  0  0  0  0  0  0  0  0  0  0
   41.9610   31.4660   39.3050 H   0  0  0  0  0  0  0  0  0  0  0  0
   39.8310   32.3340   36.7980 O   0  0  0  0  0  0  0  0  0  0  0  0
   39.9240   31.5190   36.2520 H   0  0  0  0  0  0  0  0  0  0  0  0
   42.1020   33.4480   37.0900 O   0  0  0  0  0  0  0  0  0  0  0  0
   42.5730   34.5390   37.8040 C   0  0  0  0  0  0  0  0  0  0  0  0
   42.0710   35.4570   37.4020 H   0  0  0  0  0  0  0  0  0  0  0  0
   43.6800   34.6290   37.6140 H   0  0  0  0  0  0  0  0  0  0  0  0
   42.4490   34.4620   38.8890 H   0  0  0  0  0  0  0  0  0  0  0  0
  1  6  2  0  0  0  0
  1  2  1  0  0  0  0
  2  3  2  0  0  0  0
  3  4  1  0  0  0  0
  3  8  1  0  0  0  0
  5  9  1  0  0  0  0
  5  4  2  0  0  0  0
  6  5  1  0  0  0  0
  7  1  1  0  0  0  0
  9 17  1  0  0  0  0
 10 12  1  0  0  0  0
 10  9  2  0  0  0  0
 11 10  1  0  0  0  0
 12 13  2  0  0  0  0
 13 14  1  0  0  0  0
 13 15  1  0  0  0  0
 15 16  1  0  0  0  0
 17 15  2  0  0  0  0
 18 19  1  0  0  0  0
 18  2  1  0  0  0  0
 19 20  1  0  0  0  0
 19 21  1  0  0  0  0
 22 19  1  0  0  0  0
 23 22  1  0  0  0  0
 24 25  1  0  0  0  0
 24 22  1  0  0  0  0
 25 26  1  0  0  0  0
 27 24  1  0  0  0  0
 28 27  1  0  0  0  0
 29 30  1  0  0  0  0
 29 24  1  0  0  0  0
 30 33  1  0  0  0  0
 31 30  1  0  0  0  0
 32 30  1  0  0  0  0
M  END
>  <minimizedAffinity>
-5.25470734

$$$$

 OpenBabel03252503033D

 33 34  0  0  0  0  0  0  0  0999 V2000
   38.5810   33.5860   40.0320 C   0  0  0  0  0  0  0  0  0  0  0  0
   39.7680   33.0670   40.4980 C   0  0  0  0  0  0  0  0  0  0  0  0
   39.9560   31.6950   40.6270 C   0  0  0  0  0  0  0  0  0  0  0  0
   38.9080   30.9130   40.2710 N   0  0  0  0  0  0  0  0  0  0  0  0
   37.7650   31.4290   39.8220 C   0  0  0  0  0  0  0  0  0  0  0  0
   37.5830   32.7460   39.6970 N   0  0  0  0  0  0  0  0  0  0  0  0
   38.5270   34.6650   39.9640 H   0  0  0  0  0  0  0  0  0  0  0  0
   40.8970   31.3420   40.9940 H   0  0  0  0  0  0  0  0  0  0  0  0
   36.6620   30.5480   39.4490 C   0  0  0  0  0  0  0  0  0  0  0  0
   36.4420   30.1610   38.1320 C   0  0  0  0  0  0  0  0  0  0  0  0
   37.1210   30.5370   37.3770 H   0  0  0  0  0  0  0  0  0  0  0  0
   35.4300   29.3390   37.7030 C   0  0  0  0  0  3  0  0  0  0  0  0
   34.5660   28.8630   38.6790 C   0  0  0  0  0  0  0  0  0  0  0  0
   33.7500   28.2090   38.3870 H   0  0  0  0  0  0  0  0  0  0  0  0
   34.7400   29.2180   39.9990 C   0  0  0  0  0  0  0  0  0  0  0  0
   34.0890   28.8710   40.7950 H   0  0  0  0  0  0  0  0  0  0  0  0
   35.7660   30.0460   40.4000 C   0  0  0  0  0  3  0  0  0  0  0  0
   41.1230   34.1850   40.9540 S   0  0  0  0  0  0  0  0  0  0  0  0
   41.9700   34.7380   39.4710 C   0  0  0  0  0  0  0  0  0  0  0  0
   42.7220   35.5280   39.6940 H   0  0  0  0  0  0  0  0  0  0  0  0
   41.2900   35.1760   38.7200 H   0  0  0  0  0  0  0  0  0  0  0  0
   42.6940   33.5810   38.9490 N   0  0  0  0  0  0  0  0  0  0  0  0
   43.7140   33.6840   38.9960 H   0  0  0  0  0  0  0  0  0  0  0  0
   42.2510   33.2090   37.3330 S   0  0  0  0  0  0  0  0  0  0  0  0
   40.7770   33.0020   37.1850 O   0  0  0  0  0  0  0  0  0  0  0  0
   40.3290   32.3150   37.7700 H   0  0  0  0  0  0  0  0  0  0  0  0
   42.7010   34.4000   36.5060 O   0  0  0  0  0  0  0  0  0  0  0  0
   42.2770   34.5760   35.6340 H   0  0  0  0  0  0  0  0  0  0  0  0
   43.1060   31.9020   36.7850 O   0  0  0  0  0  0  0  0  0  0  0  0
   44.3950   31.8420   37.2930 C   0  0  0  0  0  0  0  0  0  0  0  0
   45.0870   32.2900   36.5330 H   0  0  0  0  0  0  0  0  0  0  0  0
   44.6690   30.7570   37.4240 H   0  0  0  0  0  0  0  0  0  0  0  0
   44.5210   32.3160   38.2720 H   0  0  0  0  0  0  0  0  0  0  0  0
  1  2  1  0  0  0  0
  2  3  2  0  0  0  0
  2 18  1  0  0  0  0
  3  8  1  0  0  0  0
  4  3  1  0  0  0  0
  5  4  2  0  0  0  0
  6  5  1  0  0  0  0
  6  1  2  0  0  0  0
  7  1  1  0  0  0  0
  9  5  1  0  0  0  0
  9 17  1  0  0  0  0
 10  9  2  0  0  0  0
 11 10  1  0  0  0  0
 12 10  1  0  0  0  0
 12 13  2  0  0  0  0
 13 15  1  0  0  0  0
 14 13  1  0  0  0  0
 15 17  2  0  0  0  0
 15 16  1  0  0  0  0
 19 20  1  0  0  0  0
 19 18  1  0  0  0  0
 21 19  1  0  0  0  0
 22 23  1  0  0  0  0
 22 19  1  0  0  0  0
 24 22  1  0  0  0  0
 25 24  1  0  0  0  0
 25 26  1  0  0  0  0
 27 24  1  0  0  0  0
 28 27  1  0  0  0  0
 29 30  1  0  0  0  0
 29 24  1  0  0  0  0
 30 32  1  0  0  0  0
 30 33  1  0  0  0  0
 31 30  1  0  0  0  0
M  END
>  <minimizedAffinity>
-5.22808409

$$$$

 OpenBabel03252503033D

 33 34  0  0  0  0  0  0  0  0999 V2000
   38.7430   30.2460   41.8340 C   0  0  0  0  0  0  0  0  0  0  0  0
   38.4080   31.0220   40.7480 C   0  0  0  0  0  0  0  0  0  0  0  0
   37.7040   30.4940   39.6710 C   0  0  0  0  0  0  0  0  0  0  0  0
   37.3750   29.1810   39.7600 N   0  0  0  0  0  0  0  0  0  0  0  0
   37.7070   28.4420   40.8170 C   0  0  0  0  0  0  0  0  0  0  0  0
   38.3830   28.9490   41.8520 N   0  0  0  0  0  0  0  0  0  0  0  0
   39.2910   30.7440   42.6240 H   0  0  0  0  0  0  0  0  0  0  0  0
   37.4670   31.1380   38.8510 H   0  0  0  0  0  0  0  0  0  0  0  0
   37.3310   27.0320   40.8710 C   0  0  0  0  0  0  0  0  0  0  0  0
   37.3480   26.3100   42.0590 C   0  0  0  0  0  0  0  0  0  0  0  0
   37.6530   26.8290   42.9590 H   0  0  0  0  0  0  0  0  0  0  0  0
   37.0110   24.9870   42.1900 C   0  0  0  0  0  3  0  0  0  0  0  0
   36.6210   24.3310   41.0300 C   0  0  0  0  0  0  0  0  0  0  0  0
   36.3450   23.2830   41.0850 H   0  0  0  0  0  0  0  0  0  0  0  0
   36.5880   25.0010   39.8270 C   0  0  0  0  0  0  0  0  0  0  0  0
   36.2920   24.5310   38.8960 H   0  0  0  0  0  0  0  0  0  0  0  0
   36.9330   26.3330   39.7260 C   0  0  0  0  0  3  0  0  0  0  0  0
   38.8860   32.7720   40.7080 S   0  0  0  0  0  0  0  0  0  0  0  0
   40.5700   32.9210   40.1050 C   0  0  0  0  0  0  0  0  0  0  0  0
   41.0260   31.9270   39.8980 H   0  0  0  0  0  0  0  0  0  0  0  0
   41.2470   33.4170   40.8230 H   0  0  0  0  0  0  0  0  0  0  0  0
   40.4950   33.6390   38.8340 N   0  0  0  0  0  0  0  0  0  0  0  0
   39.5340   33.7880   38.5080 H   0  0  0  0  0  0  0  0  0  0  0  0
   41.3850   32.8600   37.5910 S   0  0  0  0  0  0  0  0  0  0  0  0
   40.5000   32.1020   36.6520 O   0  0  0  0  0  0  0  0  0  0  0  0
   39.8780   31.4080   37.0360 H   0  0  0  0  0  0  0  0  0  0  0  0
   42.1050   33.9730   36.8500 O   0  0  0  0  0  0  0  0  0  0  0  0
   42.4020   33.8290   35.9220 H   0  0  0  0  0  0  0  0  0  0  0  0
   42.5570   31.8880   38.2390 O   0  0  0  0  0  0  0  0  0  0  0  0
   43.8390   32.2510   37.8570 C   0  0  0  0  0  0  0  0  0  0  0  0
   44.1390   31.6030   36.9940 H   0  0  0  0  0  0  0  0  0  0  0  0
   44.5340   32.0380   38.7180 H   0  0  0  0  0  0  0  0  0  0  0  0
   43.9590   33.3130   37.6170 H   0  0  0  0  0  0  0  0  0  0  0  0
  1  6  1  0  0  0  0
  1  7  1  0  0  0  0
  2  1  2  0  0  0  0
  3  4  2  0  0  0  0
  3  2  1  0  0  0  0
  4  5  1  0  0  0  0
  5  9  1  0  0  0  0
  5  6  2  0  0  0  0
  8  3  1  0  0  0  0
  9 10  1  0  0  0  0
 10 12  2  0  0  0  0
 10 11  1  0  0  0  0
 13 14  1  0  0  0  0
 13 12  1  0  0  0  0
 15 13  2  0  0  0  0
 16 15  1  0  0  0  0
 17 15  1  0  0  0  0
 17  9  2  0  0  0  0
 18  2  1  0  0  0  0
 19 18  1  0  0  0  0
 19 21  1  0  0  0  0
 20 19  1  0  0  0  0
 22 19  1  0  0  0  0
 23 22  1  0  0  0  0
 24 29  1  0  0  0  0
 24 22  1  0  0  0  0
 25 26  1  0  0  0  0
 25 24  1  0  0  0  0
 27 24  1  0  0  0  0
 28 27  1  0  0  0  0
 30 29  1  0  0  0  0
 30 32  1  0  0  0  0
 31 30  1  0  0  0  0
 33 30  1  0  0  0  0
M  END
>  <minimizedAffinity>
-5.14432764

$$$$

 OpenBabel03252503033D

 33 34  0  0  0  0  0  0  0  0999 V2000
   37.9250   30.4460   39.1660 C   0  0  0  0  0  0  0  0  0  0  0  0
   37.2400   31.3590   39.9340 C   0  0  0  0  0  0  0  0  0  0  0  0
   36.4460   30.9540   41.0030 C   0  0  0  0  0  0  0  0  0  0  0  0
   36.3920   29.6190   41.2330 N   0  0  0  0  0  0  0  0  0  0  0  0
   37.0610   28.7470   40.4810 C   0  0  0  0  0  0  0  0  0  0  0  0
   37.8240   29.1340   39.4550 N   0  0  0  0  0  0  0  0  0  0  0  0
   38.5180   30.8540   38.3570 H   0  0  0  0  0  0  0  0  0  0  0  0
   35.9340   31.7030   41.5690 H   0  0  0  0  0  0  0  0  0  0  0  0
   36.9740   27.3180   40.7660 C   0  0  0  0  0  0  0  0  0  0  0  0
   37.0250   26.8220   42.0640 C   0  0  0  0  0  0  0  0  0  0  0  0
   37.1340   27.5350   42.8720 H   0  0  0  0  0  0  0  0  0  0  0  0
   36.9510   25.4960   42.4130 C   0  0  0  0  0  3  0  0  0  0  0  0
   36.8120   24.5910   41.3700 C   0  0  0  0  0  0  0  0  0  0  0  0
   36.7480   23.5320   41.5970 H   0  0  0  0  0  0  0  0  0  0  0  0
   36.7560   25.0310   40.0650 C   0  0  0  0  0  0  0  0  0  0  0  0
   36.6490   24.3610   39.2190 H   0  0  0  0  0  0  0  0  0  0  0  0
   36.8340   26.3700   39.7460 C   0  0  0  0  0  3  0  0  0  0  0  0
   37.3660   33.1300   39.5580 S   0  0  0  0  0  0  0  0  0  0  0  0
   38.7100   33.8510   40.5050 C   0  0  0  0  0  0  0  0  0  0  0  0
   39.2510   33.0860   41.1060 H   0  0  0  0  0  0  0  0  0  0  0  0
   38.3710   34.6140   41.2290 H   0  0  0  0  0  0  0  0  0  0  0  0
   39.6570   34.3950   39.5350 N   0  0  0  0  0  0  0  0  0  0  0  0
   39.4360   34.1430   38.5660 H   0  0  0  0  0  0  0  0  0  0  0  0
   41.2750   33.9300   39.8710 S   0  0  0  0  0  0  0  0  0  0  0  0
   42.2090   35.0990   39.8790 O   0  0  0  0  0  0  0  0  0  0  0  0
   42.2440   35.6890   39.0630 H   0  0  0  0  0  0  0  0  0  0  0  0
   41.2330   33.2810   41.2420 O   0  0  0  0  0  0  0  0  0  0  0  0
   42.0530   33.2360   41.7860 H   0  0  0  0  0  0  0  0  0  0  0  0
   41.7730   32.7620   38.8090 O   0  0  0  0  0  0  0  0  0  0  0  0
   40.8860   32.5630   37.7630 C   0  0  0  0  0  0  0  0  0  0  0  0
   40.2360   31.6870   38.0230 H   0  0  0  0  0  0  0  0  0  0  0  0
   41.4830   32.2990   36.8440 H   0  0  0  0  0  0  0  0  0  0  0  0
   40.2840   33.4400   37.5020 H   0  0  0  0  0  0  0  0  0  0  0  0
  1  6  2  0  0  0  0
  1  2  1  0  0  0  0
  2  3  2  0  0  0  0
  3  4  1  0  0  0  0
  3  8  1  0  0  0  0
  5  9  1  0  0  0  0
  5  4  2  0  0  0  0
  6  5  1  0  0  0  0
  7  1  1  0  0  0  0
  9 10  1  0  0  0  0
 10 12  2  0  0  0  0
 10 11  1  0  0  0  0
 13 14  1  0  0  0  0
 13 12  1  0  0  0  0
 15 13  2  0  0  0  0
 16 15  1  0  0  0  0
 17 15  1  0  0  0  0
 17  9  2  0  0  0  0
 18  2  1  0  0  0  0
 18 19  1  0  0  0  0
 19 20  1  0  0  0  0
 19 21  1  0  0  0  0
 22 24  1  0  0  0  0
 22 19  1  0  0  0  0
 23 22  1  0  0  0  0
 24 25  1  0  0  0  0
 24 27  1  0  0  0  0
 26 25  1  0  0  0  0
 27 28  1  0  0  0  0
 29 24  1  0  0  0  0
 30 31  1  0  0  0  0
 30 29  1  0  0  0  0
 32 30  1  0  0  0  0
 33 30  1  0  0  0  0
M  END
>  <minimizedAffinity>
-5.05451155

$$$$

 OpenBabel03252503033D

 33 34  0  0  0  0  0  0  0  0999 V2000
   40.4250   30.7460   39.2860 C   0  0  0  0  0  0  0  0  0  0  0  0
   41.0060   29.8880   38.3810 C   0  0  0  0  0  0  0  0  0  0  0  0
   40.7800   28.5160   38.4370 C   0  0  0  0  0  0  0  0  0  0  0  0
   39.9630   28.0870   39.4300 N   0  0  0  0  0  0  0  0  0  0  0  0
   39.4080   28.9300   40.2990 C   0  0  0  0  0  0  0  0  0  0  0  0
   39.6230   30.2470   40.2460 N   0  0  0  0  0  0  0  0  0  0  0  0
   40.6580   31.7970   39.1630 H   0  0  0  0  0  0  0  0  0  0  0  0
   41.2560   27.8910   37.7110 H   0  0  0  0  0  0  0  0  0  0  0  0
   38.5330   28.4230   41.3520 C   0  0  0  0  0  0  0  0  0  0  0  0
   38.3640   29.0960   42.5570 C   0  0  0  0  0  0  0  0  0  0  0  0
   38.9080   30.0220   42.6970 H   0  0  0  0  0  0  0  0  0  0  0  0
   37.5620   28.6860   43.5930 C   0  0  0  0  0  3  0  0  0  0  0  0
   36.8690   27.4980   43.4030 C   0  0  0  0  0  0  0  0  0  0  0  0
   36.2230   27.1330   44.1940 H   0  0  0  0  0  0  0  0  0  0  0  0
   37.0020   26.7920   42.2270 C   0  0  0  0  0  0  0  0  0  0  0  0
   36.4810   25.8600   42.0340 H   0  0  0  0  0  0  0  0  0  0  0  0
   37.8160   27.2310   41.2040 C   0  0  0  0  0  3  0  0  0  0  0  0
   42.0890   30.5440   37.0810 S   0  0  0  0  0  0  0  0  0  0  0  0
   43.5870   31.2000   37.8210 C   0  0  0  0  0  0  0  0  0  0  0  0
   44.4290   30.4730   37.7670 H   0  0  0  0  0  0  0  0  0  0  0  0
   43.4720   31.4440   38.8920 H   0  0  0  0  0  0  0  0  0  0  0  0
   43.9670   32.3670   37.0290 N   0  0  0  0  0  0  0  0  0  0  0  0
   44.9730   32.4180   36.8360 H   0  0  0  0  0  0  0  0  0  0  0  0
   43.4700   33.8400   37.7570 S   0  0  0  0  0  0  0  0  0  0  0  0
   44.6330   34.7000   38.1420 O   0  0  0  0  0  0  0  0  0  0  0  0
   45.3400   34.3080   38.7430 H   0  0  0  0  0  0  0  0  0  0  0  0
   42.6200   34.5410   36.7130 O   0  0  0  0  0  0  0  0  0  0  0  0
   42.5000   35.5180   36.7580 H   0  0  0  0  0  0  0  0  0  0  0  0
   42.4810   33.5410   39.0500 O   0  0  0  0  0  0  0  0  0  0  0  0
   42.9370   34.1150   40.2280 C   0  0  0  0  0  0  0  0  0  0  0  0
   43.4960   33.3300   40.8010 H   0  0  0  0  0  0  0  0  0  0  0  0
   42.0400   34.4240   40.8350 H   0  0  0  0  0  0  0  0  0  0  0  0
   43.5450   35.0150   40.0910 H   0  0  0  0  0  0  0  0  0  0  0  0
  1  6  1  0  0  0  0
  2  3  1  0  0  0  0
  2  1  2  0  0  0  0
  3  4  2  0  0  0  0
  4  5  1  0  0  0  0
  5  9  1  0  0  0  0
  6  5  2  0  0  0  0
  7  1  1  0  0  0  0
  8  3  1  0  0  0  0
  9 10  1  0  0  0  0
 10 11  1  0  0  0  0
 10 12  2  0  0  0  0
 13 12  1  0  0  0  0
 13 14  1  0  0  0  0
 15 13  2  0  0  0  0
 16 15  1  0  0  0  0
 17  9  2  0  0  0  0
 17 15  1  0  0  0  0
 18 19  1  0  0  0  0
 18  2  1  0  0  0  0
 19 21  1  0  0  0  0
 20 19  1  0  0  0  0
 22 24  1  0  0  0  0
 22 19  1  0  0  0  0
 23 22  1  0  0  0  0
 24 25  1  0  0  0  0
 24 29  1  0  0  0  0
 25 26  1  0  0  0  0
 27 28  1  0  0  0  0
 27 24  1  0  0  0  0
 29 30  1  0  0  0  0
 30 31  1  0  0  0  0
 30 32  1  0  0  0  0
 33 30  1  0  0  0  0
M  END
>  <minimizedAffinity>
-4.95090532

$$$$

 OpenBabel03252503033D

 33 34  0  0  0  0  0  0  0  0999 V2000
   36.9380   30.0740   41.4470 C   0  0  0  0  0  0  0  0  0  0  0  0
   37.6010   29.3160   42.3840 C   0  0  0  0  0  0  0  0  0  0  0  0
   38.8680   29.6720   42.8370 C   0  0  0  0  0  0  0  0  0  0  0  0
   39.3980   30.7980   42.3010 N   0  0  0  0  0  0  0  0  0  0  0  0
   38.7440   31.5220   41.3940 C   0  0  0  0  0  0  0  0  0  0  0  0
   37.5270   31.1820   40.9580 N   0  0  0  0  0  0  0  0  0  0  0  0
   35.9560   29.7190   41.1560 H   0  0  0  0  0  0  0  0  0  0  0  0
   39.3420   29.0490   43.5660 H   0  0  0  0  0  0  0  0  0  0  0  0
   39.3530   32.7290   40.8430 C   0  0  0  0  0  0  0  0  0  0  0  0
   40.6930   32.7750   40.4740 C   0  0  0  0  0  0  0  0  0  0  0  0
   41.2830   31.8770   40.6080 H   0  0  0  0  0  0  0  0  0  0  0  0
   41.3380   33.8680   39.9510 C   0  0  0  0  0  3  0  0  0  0  0  0
   40.5720   35.0130   39.7830 C   0  0  0  0  0  0  0  0  0  0  0  0
   41.0390   35.9030   39.3730 H   0  0  0  0  0  0  0  0  0  0  0  0
   39.2400   35.0210   40.1340 C   0  0  0  0  0  0  0  0  0  0  0  0
   38.6030   35.8920   40.0210 H   0  0  0  0  0  0  0  0  0  0  0  0
   38.6190   33.9050   40.6570 C   0  0  0  0  0  3  0  0  0  0  0  0
   36.8200   27.8210   43.0530 S   0  0  0  0  0  0  0  0  0  0  0  0
   37.2910   26.4010   42.0600 C   0  0  0  0  0  0  0  0  0  0  0  0
   37.3450   26.6520   40.9770 H   0  0  0  0  0  0  0  0  0  0  0  0
   36.5780   25.5610   42.1370 H   0  0  0  0  0  0  0  0  0  0  0  0
   38.6360   26.0220   42.4880 N   0  0  0  0  0  0  0  0  0  0  0  0
   39.3710   26.6170   42.0910 H   0  0  0  0  0  0  0  0  0  0  0  0
   38.9980   24.3840   42.1270 S   0  0  0  0  0  0  0  0  0  0  0  0
   39.8290   23.7410   43.1920 O   0  0  0  0  0  0  0  0  0  0  0  0
   40.7010   24.1770   43.4470 H   0  0  0  0  0  0  0  0  0  0  0  0
   37.6530   23.6870   42.0180 O   0  0  0  0  0  0  0  0  0  0  0  0
   37.5970   22.7120   42.1480 H   0  0  0  0  0  0  0  0  0  0  0  0
   39.7160   24.2630   40.6410 O   0  0  0  0  0  0  0  0  0  0  0  0
   38.9200   23.6230   39.7030 C   0  0  0  0  0  0  0  0  0  0  0  0
   39.2350   22.5480   39.6580 H   0  0  0  0  0  0  0  0  0  0  0  0
   39.1200   24.0910   38.6980 H   0  0  0  0  0  0  0  0  0  0  0  0
   37.8430   23.7130   39.8800 H   0  0  0  0  0  0  0  0  0  0  0  0
  1  2  1  0  0  0  0
  2  3  2  0  0  0  0
  2 18  1  0  0  0  0
  3  8  1  0  0  0  0
  4  3  1  0  0  0  0
  5  4  2  0  0  0  0
  6  5  1  0  0  0  0
  6  1  2  0  0  0  0
  7  1  1  0  0  0  0
  9  5  1  0  0  0  0
 10 11  1  0  0  0  0
 10  9  2  0  0  0  0
 12 10  1  0  0  0  0
 13 12  2  0  0  0  0
 13 15  1  0  0  0  0
 14 13  1  0  0  0  0
 15 17  2  0  0  0  0
 16 15  1  0  0  0  0
 17  9  1  0  0  0  0
 19 21  1  0  0  0  0
 19 22  1  0  0  0  0
 19 18  1  0  0  0  0
 20 19  1  0  0  0  0
 23 22  1  0  0  0  0
 24 22  1  0  0  0  0
 24 25  1  0  0  0  0
 25 26  1  0  0  0  0
 27 24  1  0  0  0  0
 27 28  1  0  0  0  0
 29 24  1  0  0  0  0
 30 33  1  0  0  0  0
 30 29  1  0  0  0  0
 31 30  1  0  0  0  0
 32 30  1  0  0  0  0
M  END
>  <minimizedAffinity>
-4.94190073

$$$$

 OpenBabel03252503033D

 33 34  0  0  0  0  0  0  0  0999 V2000
   39.4110   29.7550   41.0890 C   0  0  0  0  0  0  0  0  0  0  0  0
   38.4750   30.7640   41.1090 C   0  0  0  0  0  0  0  0  0  0  0  0
   37.1120   30.4860   41.0860 C   0  0  0  0  0  0  0  0  0  0  0  0
   36.7710   29.1750   41.0430 N   0  0  0  0  0  0  0  0  0  0  0  0
   37.6880   28.2090   41.0240 C   0  0  0  0  0  0  0  0  0  0  0  0
   38.9970   28.4740   41.0460 N   0  0  0  0  0  0  0  0  0  0  0  0
   40.4480   30.0660   41.1100 H   0  0  0  0  0  0  0  0  0  0  0  0
   36.4250   31.3060   41.1030 H   0  0  0  0  0  0  0  0  0  0  0  0
   37.2750   26.8090   40.9780 C   0  0  0  0  0  0  0  0  0  0  0  0
   37.3560   25.9810   42.0910 C   0  0  0  0  0  0  0  0  0  0  0  0
   37.7400   26.4070   43.0090 H   0  0  0  0  0  0  0  0  0  0  0  0
   36.9880   24.6590   42.1280 C   0  0  0  0  0  3  0  0  0  0  0  0
   36.4970   24.1220   40.9460 C   0  0  0  0  0  0  0  0  0  0  0  0
   36.1940   23.0800   40.9260 H   0  0  0  0  0  0  0  0  0  0  0  0
   36.3970   24.9010   39.8130 C   0  0  0  0  0  0  0  0  0  0  0  0
   36.0200   24.5250   38.8680 H   0  0  0  0  0  0  0  0  0  0  0  0
   36.7750   26.2280   39.8080 C   0  0  0  0  0  3  0  0  0  0  0  0
   39.0160   32.4950   41.1670 S   0  0  0  0  0  0  0  0  0  0  0  0
   39.5080   33.0260   39.5250 C   0  0  0  0  0  0  0  0  0  0  0  0
   40.3470   32.4150   39.1250 H   0  0  0  0  0  0  0  0  0  0  0  0
   39.8590   34.0730   39.4940 H   0  0  0  0  0  0  0  0  0  0  0  0
   38.3550   32.8070   38.6540 N   0  0  0  0  0  0  0  0  0  0  0  0
   37.5620   32.3650   39.1330 H   0  0  0  0  0  0  0  0  0  0  0  0
   38.7510   31.8760   37.2680 S   0  0  0  0  0  0  0  0  0  0  0  0
   37.7630   32.0620   36.1600 O   0  0  0  0  0  0  0  0  0  0  0  0
   36.7890   31.8880   36.3540 H   0  0  0  0  0  0  0  0  0  0  0  0
   40.1230   32.3600   36.8350 O   0  0  0  0  0  0  0  0  0  0  0  0
   40.4160   32.2270   35.9030 H   0  0  0  0  0  0  0  0  0  0  0  0
   38.9170   30.2800   37.6720 O   0  0  0  0  0  0  0  0  0  0  0  0
   37.7500   29.5510   37.5000 C   0  0  0  0  0  0  0  0  0  0  0  0
   37.2360   29.4840   38.4940 H   0  0  0  0  0  0  0  0  0  0  0  0
   38.0340   28.5090   37.1780 H   0  0  0  0  0  0  0  0  0  0  0  0
   37.0770   29.9420   36.7310 H   0  0  0  0  0  0  0  0  0  0  0  0
  1  2  1  0  0  0  0
  1  7  1  0  0  0  0
  2 18  1  0  0  0  0
  3  8  1  0  0  0  0
  3  2  2  0  0  0  0
  4  3  1  0  0  0  0
  5  4  2  0  0  0  0
  5  6  1  0  0  0  0
  6  1  2  0  0  0  0
  9  5  1  0  0  0  0
  9 10  1  0  0  0  0
 10 12  2  0  0  0  0
 10 11  1  0  0  0  0
 13 12  1  0  0  0  0
 14 13  1  0  0  0  0
 15 13  2  0  0  0  0
 16 15  1  0  0  0  0
 17 15  1  0  0  0  0
 17  9  2  0  0  0  0
 19 18  1  0  0  0  0
 20 19  1  0  0  0  0
 21 19  1  0  0  0  0
 22 23  1  0  0  0  0
 22 19  1  0  0  0  0
 24 29  1  0  0  0  0
 24 22  1  0  0  0  0
 25 26  1  0  0  0  0
 25 24  1  0  0  0  0
 27 24  1  0  0  0  0
 28 27  1  0  0  0  0
 30 29  1  0  0  0  0
 30 31  1  0  0  0  0
 32 30  1  0  0  0  0
 33 30  1  0  0  0  0
M  END
>  <minimizedAffinity>
-4.93125582

$$$$
