
 OpenBabel03252504113D

 25 26  0  0  0  0  0  0  0  0999 V2000
   47.0300   34.2940   43.0030 C   0  0  0  0  0  0  0  0  0  0  0  0
   45.8280   34.6420   43.5970 C   0  0  0  0  0  0  0  0  0  0  0  0
   45.2830   33.7640   44.5490 C   0  0  0  0  0  0  0  0  0  0  0  0
   45.9490   32.6340   44.8400 N   0  0  0  0  0  0  0  0  0  0  0  0
   47.1300   32.3240   44.2360 C   0  0  0  0  0  0  0  0  0  0  0  0
   47.6660   33.1490   43.3240 N   0  0  0  0  0  0  0  0  0  0  0  0
   44.3480   34.0230   45.0190 H   0  0  0  0  0  0  0  0  0  0  0  0
   47.8190   31.0860   44.5810 C   0  0  0  0  0  0  0  0  0  0  0  0
   48.7040   30.5200   43.6690 C   0  0  0  0  0  0  0  0  0  0  0  0
   48.8810   30.9930   42.7100 H   0  0  0  0  0  0  0  0  0  0  0  0
   49.3940   29.3570   43.9150 C   0  0  0  0  0  0  0  0  0  0  0  0
   49.1990   28.7190   45.1240 C   0  0  0  0  0  0  0  0  0  0  0  0
   49.7780   27.7970   45.2610 H   0  0  0  0  0  0  0  0  0  0  0  0
   48.3270   29.2460   46.0640 C   0  0  0  0  0  0  0  0  0  0  0  0
   48.2170   28.7100   46.9840 H   0  0  0  0  0  0  0  0  0  0  0  0
   47.6460   30.4260   45.7800 C   0  0  0  0  0  0  0  0  0  0  0  0
   45.1570   35.9180   43.2140 C   0  0  0  0  0  0  0  0  0  0  0  0
   46.1100   36.9250   43.0890 F   0  0  0  0  0  0  0  0  0  0  0  0
   44.5950   35.7440   41.9690 F   0  0  0  0  0  0  0  0  0  0  0  0
   44.2310   36.3670   44.0940 F   0  0  0  0  0  0  0  0  0  0  0  0
   47.5430   35.1530   42.0850 O   0  0  0  0  0  0  0  0  0  0  0  0
   48.8560   35.1960   41.5990 C   0  0  0  0  0  0  0  0  0  0  0  0
   49.6930   35.4330   42.7070 F   0  0  0  0  0  0  0  0  0  0  0  0
   49.1690   34.0150   40.9720 F   0  0  0  0  0  0  0  0  0  0  0  0
   49.0380   36.2980   40.7890 F   0  0  0  0  0  0  0  0  0  0  0  0
  1  6  2  0  0  0  0
  1  2  1  0  0  0  0
  2  3  2  0  0  0  0
  3  4  1  0  0  0  0
  3  7  1  0  0  0  0
  5  8  1  0  0  0  0
  5  4  2  0  0  0  0
  6  5  1  0  0  0  0
  8 16  1  0  0  0  0
  9 11  1  0  0  0  0
  9  8  2  0  0  0  0
 10  9  1  0  0  0  0
 11 12  2  0  0  0  0
 12 13  1  0  0  0  0
 12 14  1  0  0  0  0
 14 15  1  0  0  0  0
 16 14  2  0  0  0  0
 17  2  1  0  0  0  0
 17 20  1  0  0  0  0
 18 17  1  0  0  0  0
 19 17  1  0  0  0  0
 21  1  1  0  0  0  0
 22 21  1  0  0  0  0
 22 23  1  0  0  0  0
 24 22  1  0  0  0  0
 25 22  1  0  0  0  0
M  END
>  <minimizedAffinity>
-5.08630419

>  <minimizedRMSD>
0.784069061

$$$$
