
 OpenBabel03252508393D

 41 44  0  0  0  0  0  0  0  0999 V2000
   45.1210   33.9720   40.7340 C   0  0  0  0  0  0  0  0  0  0  0  0
   44.0750   33.6240   39.9170 C   0  0  0  0  0  0  0  0  0  0  0  0
   44.3770   33.1010   38.6990 C   0  0  0  0  0  0  0  0  0  0  0  0
   45.6650   32.9030   38.2480 C   0  0  0  0  0  0  0  0  0  0  0  0
   46.6900   33.2620   39.0890 C   0  0  0  0  0  0  0  0  0  0  0  0
   46.4360   33.7970   40.3330 C   0  0  0  0  0  0  0  0  0  0  0  0
   43.5510   32.8260   38.0510 H   0  0  0  0  0  0  0  0  0  0  0  0
   45.8890   32.4860   37.2760 H   0  0  0  0  0  0  0  0  0  0  0  0
   47.7140   33.1100   38.7410 H   0  0  0  0  0  0  0  0  0  0  0  0
   40.8070   35.2960   40.7950 C   0  0  0  0  0  0  0  0  0  0  0  0
   42.1000   35.1060   40.2880 C   0  0  0  0  0  0  0  0  0  0  0  0
   42.7370   33.8500   40.4320 C   0  0  0  0  0  0  0  0  0  0  0  0
   42.0180   32.8910   41.0730 N   0  0  0  0  0  0  0  0  0  0  0  0
   40.7860   33.1000   41.5470 C   0  0  0  0  0  0  0  0  0  0  0  0
   40.1810   34.2900   41.4110 N   0  0  0  0  0  0  0  0  0  0  0  0
   40.2070   36.5540   40.6350 N   0  0  0  0  0  0  0  0  0  0  0  0
   42.6600   35.8900   39.7770 H   0  0  0  0  0  0  0  0  0  0  0  0
   40.3460   32.2360   42.0320 H   0  0  0  0  0  0  0  0  0  0  0  0
   39.2920   36.4390   40.1740 H   0  0  0  0  0  0  0  0  0  0  0  0
   40.8200   37.3290   41.0200 H   0  0  0  0  0  0  0  0  0  0  0  0
   47.5940   34.1480   41.1460 C   0  0  0  0  0  0  0  0  0  0  0  0
   48.1450   35.3800   40.9010 C   0  0  0  0  0  0  0  0  0  0  0  0
   49.2520   35.8710   41.5870 C   0  0  0  0  0  0  0  0  0  0  0  0
   49.8150   35.0790   42.5560 C   0  0  0  0  0  0  0  0  0  0  0  0
   49.2810   33.8390   42.8180 C   0  0  0  0  0  0  0  0  0  0  0  0
   48.1810   33.3820   42.1190 C   0  0  0  0  0  0  0  0  0  0  0  0
   47.7670   36.0800   40.1520 H   0  0  0  0  0  0  0  0  0  0  0  0
   49.6820   36.8450   41.3890 H   0  0  0  0  0  0  0  0  0  0  0  0
   50.6740   35.3450   43.1560 H   0  0  0  0  0  0  0  0  0  0  0  0
   49.6690   33.1650   43.5600 H   0  0  0  0  0  0  0  0  0  0  0  0
   47.6070   32.0660   42.3910 C   0  0  0  0  0  0  0  0  0  0  0  0
   46.9490   32.0850   43.6280 C   0  0  0  0  0  0  0  0  0  0  0  0
   46.8540   32.9390   44.3180 H   0  0  0  0  0  0  0  0  0  0  0  0
   46.3190   30.9590   44.1290 C   0  0  0  0  0  3  0  0  0  0  0  0
   46.3380   29.7820   43.3880 C   0  0  0  0  0  0  0  0  0  0  0  0
   45.8550   28.8890   43.7540 H   0  0  0  0  0  0  0  0  0  0  0  0
   46.9900   29.8090   42.1890 C   0  0  0  0  0  0  0  0  0  0  0  0
   47.0350   28.9130   41.5670 H   0  0  0  0  0  0  0  0  0  0  0  0
   47.6250   30.9070   41.6640 C   0  0  0  0  0  3  0  0  0  0  0  0
   44.7100   35.0010   43.1020 N   0  0  0  0  0  0  0  0  0  0  0  0
   44.8930   34.5330   42.0390 C   0  0  0  0  0  0  0  0  0  0  0  0
  1 41  1  0  0  0  0
  2 12  1  0  0  0  0
  2  1  2  0  0  0  0
  3  2  1  0  0  0  0
  4  3  2  0  0  0  0
  4  5  1  0  0  0  0
  5  6  2  0  0  0  0
  6  1  1  0  0  0  0
  6 21  1  0  0  0  0
  7  3  1  0  0  0  0
  8  4  1  0  0  0  0
  9  5  1  0  0  0  0
 10 15  1  0  0  0  0
 11 12  1  0  0  0  0
 11 10  2  0  0  0  0
 12 13  2  0  0  0  0
 13 14  1  0  0  0  0
 14 18  1  0  0  0  0
 15 14  2  0  0  0  0
 16 10  1  0  0  0  0
 16 20  1  0  0  0  0
 17 11  1  0  0  0  0
 19 16  1  0  0  0  0
 21 26  1  0  0  0  0
 22 21  2  0  0  0  0
 22 23  1  0  0  0  0
 23 24  2  0  0  0  0
 24 25  1  0  0  0  0
 24 29  1  0  0  0  0
 25 30  1  0  0  0  0
 26 31  1  0  0  0  0
 26 25  2  0  0  0  0
 27 22  1  0  0  0  0
 28 23  1  0  0  0  0
 31 32  1  0  0  0  0
 32 34  2  0  0  0  0
 32 33  1  0  0  0  0
 35 36  1  0  0  0  0
 35 34  1  0  0  0  0
 37 35  2  0  0  0  0
 38 37  1  0  0  0  0
 39 37  1  0  0  0  0
 39 31  2  0  0  0  0
 41 40  3  0  0  0  0
M  END
>  <minimizedAffinity>
-6.06580305

>  <minimizedRMSD>
0.186012283

$$$$
