
 OpenBabel03242520373D

 35 38  0  0  1  0  0  0  0  0999 V2000
   46.5850   32.3970   41.6040 C   0  0  0  0  0  0  0  0  0  0  0  0
   47.8800   32.2490   40.9810 C   0  0  0  0  0  0  0  0  0  0  0  0
   48.8810   31.7120   41.7470 C   0  0  0  0  0  0  0  0  0  0  0  0
   48.6280   31.3490   43.0290 N   0  0  0  0  0  0  0  0  0  0  0  0
   47.4030   31.5010   43.5820 C   0  0  0  0  0  0  0  0  0  0  0  0
   46.3880   32.0270   42.8590 N   0  0  0  0  0  0  0  0  0  0  0  0
   45.7730   32.8160   41.0260 H   0  0  0  0  0  0  0  0  0  0  0  0
   49.8480   31.5990   41.2900 H   0  0  0  0  0  0  0  0  0  0  0  0
   48.1210   32.6730   39.5790 C   0  0  1  0  0  0  0  0  0  0  0  0
   47.2350   33.5690   38.9010 C   0  0  0  0  0  0  0  0  0  0  0  0
   48.5170   34.1440   39.3440 C   0  0  1  0  0  0  0  0  0  0  0  0
   48.8270   31.9960   39.0340 H   0  0  0  0  0  0  0  0  0  0  0  0
   47.0330   33.5160   37.7880 H   0  0  0  0  0  0  0  0  0  0  0  0
   46.3210   33.9570   39.4150 H   0  0  0  0  0  0  0  0  0  0  0  0
   49.2520   34.3530   38.5190 H   0  0  0  0  0  0  0  0  0  0  0  0
   48.6460   35.0820   40.4810 C   0  0  0  0  0  0  0  0  0  0  0  0
   49.1250   36.3180   40.0780 F   0  0  0  0  0  0  0  0  0  0  0  0
   49.4820   34.5720   41.4780 F   0  0  0  0  0  0  0  0  0  0  0  0
   47.3880   35.2870   40.9920 F   0  0  0  0  0  0  0  0  0  0  0  0
   47.2060   31.0720   45.0000 C   0  0  2  0  0  0  0  0  0  0  0  0
   46.7560   29.6270   45.1240 C   0  0  0  0  0  0  0  0  0  0  0  0
   45.8370   30.7560   45.4950 C   0  0  1  0  0  0  0  0  0  0  0  0
   47.9320   31.4990   45.7110 H   0  0  0  0  0  0  0  0  0  0  0  0
   46.4710   29.0730   44.2270 H   0  0  0  0  0  0  0  0  0  0  0  0
   47.2270   29.0200   45.9210 H   0  0  0  0  0  0  0  0  0  0  0  0
   44.9540   30.9560   44.8670 H   0  0  0  0  0  0  0  0  0  0  0  0
   45.6570   30.9180   46.9610 C   0  0  0  0  0  0  0  0  0  0  0  0
   45.1890   29.9070   47.7780 C   0  0  0  0  0  0  0  0  0  0  0  0
   44.9350   28.9420   47.3480 H   0  0  0  0  0  0  0  0  0  0  0  0
   45.0240   30.0690   49.1510 C   0  0  0  0  0  0  0  0  0  0  0  0
   45.3400   31.2850   49.7180 C   0  0  0  0  0  0  0  0  0  0  0  0
   45.2020   31.3890   50.7950 H   0  0  0  0  0  0  0  0  0  0  0  0
   45.8090   32.3100   48.9210 C   0  0  0  0  0  0  0  0  0  0  0  0
   46.0330   33.2260   49.4300 H   0  0  0  0  0  0  0  0  0  0  0  0
   45.9640   32.1240   47.5580 C   0  0  0  0  0  0  0  0  0  0  0  0
  1  6  1  0  0  0  0
  2  1  2  0  0  0  0
  2  3  1  0  0  0  0
  3  4  2  0  0  0  0
  4  5  1  0  0  0  0
  5 20  1  0  0  0  0
  6  5  2  0  0  0  0
  7  1  1  0  0  0  0
  8  3  1  0  0  0  0
  9 12  1  6  0  0  0
  9  2  1  0  0  0  0
 10 11  1  0  0  0  0
 10 14  1  0  0  0  0
 10  9  1  0  0  0  0
 11 15  1  6  0  0  0
 11  9  1  0  0  0  0
 11 16  1  0  0  0  0
 13 10  1  0  0  0  0
 16 19  1  0  0  0  0
 16 18  1  0  0  0  0
 17 16  1  0  0  0  0
 20 21  1  0  0  0  0
 20 22  1  0  0  0  0
 20 23  1  1  0  0  0
 21 22  1  0  0  0  0
 21 25  1  0  0  0  0
 22 26  1  6  0  0  0
 22 27  1  0  0  0  0
 24 21  1  0  0  0  0
 27 35  2  0  0  0  0
 27 28  1  0  0  0  0
 28 30  2  0  0  0  0
 29 28  1  0  0  0  0
 30 31  1  0  0  0  0
 31 32  1  0  0  0  0
 33 34  1  0  0  0  0
 33 31  2  0  0  0  0
 35 33  1  0  0  0  0
M  END
>  <minimizedAffinity>
-4.9602499

>  <minimizedRMSD>
2.21974397

$$$$
