
 OpenBabel03252508423D

 28 30  0  0  0  0  0  0  0  0999 V2000
   47.7440   32.7460   41.7400 C   0  0  0  0  0  0  0  0  0  0  0  0
   47.8130   33.7770   42.6580 C   0  0  0  0  0  0  0  0  0  0  0  0
   49.0430   34.3230   42.9790 C   0  0  0  0  0  0  0  0  0  0  0  0
   50.1730   33.8190   42.3710 C   0  0  0  0  0  0  0  0  0  0  0  0
   50.1520   32.7900   41.4500 C   0  0  0  0  0  0  0  0  0  0  0  0
   48.8760   32.2770   41.1630 C   0  0  0  0  0  0  0  0  0  0  0  0
   49.1830   35.1320   43.6880 H   0  0  0  0  0  0  0  0  0  0  0  0
   51.1650   34.2180   42.5950 H   0  0  0  0  0  0  0  0  0  0  0  0
   51.0300   32.3830   40.9640 H   0  0  0  0  0  0  0  0  0  0  0  0
   48.7520   31.4580   40.4430 H   0  0  0  0  0  0  0  0  0  0  0  0
   44.3540   32.1230   40.1780 C   0  0  0  0  0  0  0  0  0  0  0  0
   45.6240   32.6830   40.3950 C   0  0  0  0  0  0  0  0  0  0  0  0
   46.4260   32.2230   41.4490 C   0  0  0  0  0  0  0  0  0  0  0  0
   45.9000   31.2410   42.2050 N   0  0  0  0  0  0  0  0  0  0  0  0
   44.6820   30.7040   41.9960 C   0  0  0  0  0  0  0  0  0  0  0  0
   43.9040   31.1410   40.9840 N   0  0  0  0  0  0  0  0  0  0  0  0
   43.8130   32.5570   39.3280 H   0  0  0  0  0  0  0  0  0  0  0  0
   46.0410   33.4730   39.7850 H   0  0  0  0  0  0  0  0  0  0  0  0
   44.2780   29.9150   42.6150 H   0  0  0  0  0  0  0  0  0  0  0  0
   46.6920   34.3890   43.3610 C   0  0  0  0  0  0  0  0  0  0  0  0
   46.1360   33.9880   44.5580 C   0  0  0  0  0  0  0  0  0  0  0  0
   46.5960   33.1230   45.0120 H   0  0  0  0  0  0  0  0  0  0  0  0
   45.0690   34.6580   45.1160 C   0  0  0  0  0  3  0  0  0  0  0  0
   44.5670   35.7560   44.4340 C   0  0  0  0  0  0  0  0  0  0  0  0
   43.7260   36.2760   44.8860 H   0  0  0  0  0  0  0  0  0  0  0  0
   45.0910   36.1920   43.2360 C   0  0  0  0  0  0  0  0  0  0  0  0
   44.6450   37.0640   42.7520 H   0  0  0  0  0  0  0  0  0  0  0  0
   46.1700   35.4990   42.6880 C   0  0  0  0  0  3  0  0  0  0  0  0
  1  2  1  0  0  0  0
  2  3  2  0  0  0  0
  2 20  1  0  0  0  0
  3  7  1  0  0  0  0
  4  8  1  0  0  0  0
  4  3  1  0  0  0  0
  5  4  2  0  0  0  0
  6  5  1  0  0  0  0
  6  1  2  0  0  0  0
  9  5  1  0  0  0  0
 10  6  1  0  0  0  0
 11 12  2  0  0  0  0
 11 16  1  0  0  0  0
 12 13  1  0  0  0  0
 13  1  1  0  0  0  0
 13 14  2  0  0  0  0
 15 14  1  0  0  0  0
 15 19  1  0  0  0  0
 16 15  2  0  0  0  0
 17 11  1  0  0  0  0
 18 12  1  0  0  0  0
 20 21  1  0  0  0  0
 21 22  1  0  0  0  0
 21 23  2  0  0  0  0
 24 25  1  0  0  0  0
 24 23  1  0  0  0  0
 26 24  2  0  0  0  0
 27 26  1  0  0  0  0
 28 26  1  0  0  0  0
 28 20  2  0  0  0  0
M  END
>  <minimizedAffinity>
-4.55860376

>  <minimizedRMSD>
4.06265926

$$$$
