
 OpenBabel03252506433D

 40 43  0  0  1  0  0  0  0  0999 V2000
   49.0920   33.4050   40.9540 N   0  0  1  0  0  0  0  0  0  0  0  0
   50.1660   32.6310   41.5210 C   0  0  0  0  0  0  0  0  0  0  0  0
   50.4610   31.3370   40.8670 C   0  0  0  0  0  0  0  0  0  0  0  0
   49.2650   30.4180   40.9530 C   0  0  0  0  0  0  0  0  0  0  0  0
   47.9860   31.1790   40.9410 C   0  0  0  0  0  0  0  0  0  0  0  0
   48.1740   32.5100   40.2880 C   0  0  2  0  0  0  0  0  0  0  0  0
   50.0500   32.4600   42.6100 H   0  0  0  0  0  0  0  0  0  0  0  0
   51.0850   33.2780   41.4400 H   0  0  0  0  0  0  0  0  0  0  0  0
   50.9570   31.3470   39.9030 H   0  0  0  0  0  0  0  0  0  0  0  0
   51.2280   30.8370   41.5560 H   0  0  0  0  0  0  0  0  0  0  0  0
   49.2960   29.7720   40.0430 H   0  0  0  0  0  0  0  0  0  0  0  0
   49.2830   29.7610   41.8450 H   0  0  0  0  0  0  0  0  0  0  0  0
   47.5700   31.3340   41.9560 H   0  0  0  0  0  0  0  0  0  0  0  0
   47.2220   30.6400   40.3740 H   0  0  0  0  0  0  0  0  0  0  0  0
   47.1560   33.0310   40.5320 H   0  0  0  0  0  0  0  0  0  0  0  0
   48.1990   32.5370   38.8300 C   0  0  0  0  0  0  0  0  0  0  0  0
   48.3460   33.7750   38.1820 C   0  0  0  0  0  0  0  0  0  0  0  0
   48.4210   34.6660   38.8100 H   0  0  0  0  0  0  0  0  0  0  0  0
   48.4060   33.9790   36.8200 C   0  0  0  0  0  0  0  0  0  0  0  0
   48.3130   32.8690   36.0090 C   0  0  0  0  0  0  0  0  0  0  0  0
   48.3520   32.9640   34.9350 H   0  0  0  0  0  0  0  0  0  0  0  0
   48.1660   31.6110   36.5540 C   0  0  0  0  0  0  0  0  0  0  0  0
   48.0910   30.7220   35.9440 H   0  0  0  0  0  0  0  0  0  0  0  0
   48.1170   31.5020   37.9240 C   0  0  0  0  0  0  0  0  0  0  0  0
   47.1840   34.8580   41.8910 C   0  0  1  0  0  0  0  0  0  0  0  0
   48.4420   35.6200   41.8500 C   0  0  0  0  0  0  0  0  0  0  0  0
   48.4950   34.1450   42.0240 C   0  0  2  0  0  0  0  0  0  0  0  0
   46.6070   34.7760   40.9520 H   0  0  0  0  0  0  0  0  0  0  0  0
   48.7120   36.0790   40.8770 H   0  0  0  0  0  0  0  0  0  0  0  0
   48.6690   36.2710   42.7410 H   0  0  0  0  0  0  0  0  0  0  0  0
   48.7370   33.7450   43.0480 H   0  0  0  0  0  0  0  0  0  0  0  0
   45.4220   36.0580   43.2450 C   0  0  0  0  0  0  0  0  0  0  0  0
   46.3100   34.9650   43.0850 C   0  0  0  0  0  0  0  0  0  0  0  0
   46.3310   33.9890   44.0920 C   0  0  0  0  0  0  0  0  0  0  0  0
   45.4980   34.1450   45.1660 N   0  0  0  0  0  0  0  0  0  0  0  0
   44.6630   35.2170   45.2680 C   0  0  0  0  0  0  0  0  0  0  0  0
   44.6160   36.1770   44.3170 N   0  0  0  0  0  0  0  0  0  0  0  0
   45.4340   36.7890   42.4500 H   0  0  0  0  0  0  0  0  0  0  0  0
   46.9960   33.1410   44.0030 H   0  0  0  0  0  0  0  0  0  0  0  0
   44.0120   35.3100   46.1380 H   0  0  0  0  0  0  0  0  0  0  0  0
  1  2  1  1  0  0  0
  1 27  1  0  0  0  0
  2  7  1  0  0  0  0
  3  4  1  0  0  0  0
  3  2  1  0  0  0  0
  3 10  1  0  0  0  0
  4 12  1  0  0  0  0
  5  4  1  0  0  0  0
  5 13  1  0  0  0  0
  6 15  1  1  0  0  0
  6  5  1  0  0  0  0
  6  1  1  0  0  0  0
  8  2  1  0  0  0  0
  9  3  1  0  0  0  0
 11  4  1  0  0  0  0
 14  5  1  0  0  0  0
 16  6  1  0  0  0  0
 17 18  1  0  0  0  0
 17 16  1  0  0  0  0
 19 17  2  0  0  0  0
 20 22  2  0  0  0  0
 20 19  1  0  0  0  0
 21 20  1  0  0  0  0
 22 24  1  0  0  0  0
 23 22  1  0  0  0  0
 24 16  2  0  0  0  0
 25 28  1  6  0  0  0
 25 27  1  0  0  0  0
 25 33  1  0  0  0  0
 26 25  1  0  0  0  0
 26 27  1  0  0  0  0
 26 30  1  0  0  0  0
 27 31  1  1  0  0  0
 29 26  1  0  0  0  0
 32 37  1  0  0  0  0
 33 32  2  0  0  0  0
 33 34  1  0  0  0  0
 34 35  2  0  0  0  0
 35 36  1  0  0  0  0
 36 40  1  0  0  0  0
 37 36  2  0  0  0  0
 38 32  1  0  0  0  0
 39 34  1  0  0  0  0
M  END
>  <minimizedAffinity>
-5.21693897

>  <minimizedRMSD>
1.63772798

$$$$
