
 OpenBabel03252505263D

 43 46  0  0  1  0  0  0  0  0999 V2000
   40.2050   30.7580   41.3620 F   0  0  0  0  0  0  0  0  0  0  0  0
   39.1260   31.3820   40.8160 C   0  0  0  0  0  0  0  0  0  0  0  0
   37.8850   30.7940   40.9780 C   0  0  0  0  0  0  0  0  0  0  0  0
   36.8110   31.4340   40.4230 C   0  0  0  0  0  0  0  0  0  0  0  0
   36.9880   32.6170   39.7340 C   0  0  0  0  0  0  0  0  0  0  0  0
   38.2170   33.2000   39.5720 C   0  0  0  0  0  0  0  0  0  0  0  0
   39.3160   32.5460   40.1400 C   0  0  0  0  0  0  0  0  0  0  0  0
   35.8130   31.0080   40.5250 H   0  0  0  0  0  0  0  0  0  0  0  0
   36.1170   33.1030   39.3040 H   0  0  0  0  0  0  0  0  0  0  0  0
   38.3330   34.1280   39.0280 H   0  0  0  0  0  0  0  0  0  0  0  0
   40.5660   33.1880   39.9450 N   0  0  0  0  0  0  0  0  0  0  0  0
   41.1290   34.3690   40.5330 C   0  0  0  0  0  0  0  0  0  0  0  0
   42.5200   33.9080   40.9790 C   0  0  0  0  0  0  0  0  0  0  0  0
   42.7990   32.7300   40.0810 C   0  0  0  0  0  0  0  0  0  0  0  0
   41.6750   32.8280   39.0680 C   0  0  2  0  0  0  0  0  0  0  0  0
   40.5610   34.5850   41.4820 H   0  0  0  0  0  0  0  0  0  0  0  0
   41.1540   35.2360   39.8680 H   0  0  0  0  0  0  0  0  0  0  0  0
   43.2450   34.7090   40.6940 H   0  0  0  0  0  0  0  0  0  0  0  0
   42.5670   33.6710   42.0500 H   0  0  0  0  0  0  0  0  0  0  0  0
   42.7120   31.7920   40.6370 H   0  0  0  0  0  0  0  0  0  0  0  0
   43.7830   32.8250   39.5670 H   0  0  0  0  0  0  0  0  0  0  0  0
   41.4990   31.8000   38.6820 H   0  0  0  0  0  0  0  0  0  0  0  0
   41.9160   33.8000   37.9740 C   0  0  0  0  0  0  0  0  0  0  0  0
   41.9320   33.2480   37.0090 H   0  0  0  0  0  0  0  0  0  0  0  0
   41.0490   34.4910   37.9390 H   0  0  0  0  0  0  0  0  0  0  0  0
   42.8420   34.3990   38.0770 H   0  0  0  0  0  0  0  0  0  0  0  0
   37.8530   28.3470   43.7050 C   0  0  0  0  0  0  0  0  0  0  0  0
   37.4950   27.1490   43.0380 C   0  0  0  0  0  0  0  0  0  0  0  0
   37.2790   27.2410   41.6690 C   0  0  0  0  0  0  0  0  0  0  0  0
   37.4180   28.4310   41.0630 N   0  0  0  0  0  0  0  0  0  0  0  0
   37.7570   29.5440   41.7160 C   0  0  0  0  0  0  0  0  0  0  0  0
   37.9740   29.5100   43.0240 N   0  0  0  0  0  0  0  0  0  0  0  0
   38.0250   28.2830   44.7820 H   0  0  0  0  0  0  0  0  0  0  0  0
   37.3870   26.2030   43.5380 H   0  0  0  0  0  0  0  0  0  0  0  0
   36.9060   26.1000   40.8450 C   0  0  0  0  0  0  0  0  0  0  0  0
   36.5350   26.3180   39.5350 C   0  0  0  0  0  0  0  0  0  0  0  0
   36.5180   27.3120   39.1200 H   0  0  0  0  0  0  0  0  0  0  0  0
   36.1660   25.2810   38.6890 C   0  0  0  0  0  3  0  0  0  0  0  0
   36.1630   23.9660   39.1560 C   0  0  0  0  0  0  0  0  0  0  0  0
   35.8910   23.0930   38.5740 H   0  0  0  0  0  0  0  0  0  0  0  0
   36.5320   23.7320   40.4670 C   0  0  0  0  0  0  0  0  0  0  0  0
   36.5380   22.7070   40.8540 H   0  0  0  0  0  0  0  0  0  0  0  0
   36.8930   24.7910   41.2760 C   0  0  0  0  0  3  0  0  0  0  0  0
  2  3  1  0  0  0  0
  2  1  1  0  0  0  0
  3 31  1  0  0  0  0
  4  8  1  0  0  0  0
  4  3  2  0  0  0  0
  5  4  1  0  0  0  0
  6  5  2  0  0  0  0
  6  7  1  0  0  0  0
  7  2  2  0  0  0  0
  9  5  1  0  0  0  0
 10  6  1  0  0  0  0
 11  7  1  0  0  0  0
 11 12  1  0  0  0  0
 12 13  1  0  0  0  0
 12 16  1  0  0  0  0
 13 19  1  0  0  0  0
 14 20  1  0  0  0  0
 14 13  1  0  0  0  0
 15 22  1  6  0  0  0
 15 11  1  0  0  0  0
 15 14  1  0  0  0  0
 17 12  1  0  0  0  0
 18 13  1  0  0  0  0
 21 14  1  0  0  0  0
 23 26  1  0  0  0  0
 23 15  1  0  0  0  0
 24 23  1  0  0  0  0
 25 23  1  0  0  0  0
 27 33  1  0  0  0  0
 28 34  1  0  0  0  0
 28 27  1  0  0  0  0
 29 28  2  0  0  0  0
 30 29  1  0  0  0  0
 30 31  2  0  0  0  0
 31 32  1  0  0  0  0
 32 27  2  0  0  0  0
 35 43  1  0  0  0  0
 35 29  1  0  0  0  0
 36 35  2  0  0  0  0
 37 36  1  0  0  0  0
 38 39  2  0  0  0  0
 38 36  1  0  0  0  0
 39 41  1  0  0  0  0
 40 39  1  0  0  0  0
 41 42  1  0  0  0  0
 41 43  2  0  0  0  0
M  END
>  <minimizedAffinity>
-6.29754305

$$$$

 OpenBabel03252505263D

 43 46  0  0  1  0  0  0  0  0999 V2000
   39.6930   30.3760   38.0740 F   0  0  0  0  0  0  0  0  0  0  0  0
   39.0890   31.4070   38.7250 C   0  0  0  0  0  0  0  0  0  0  0  0
   37.7500   31.2770   39.0450 C   0  0  0  0  0  0  0  0  0  0  0  0
   37.1580   32.3220   39.7000 C   0  0  0  0  0  0  0  0  0  0  0  0
   37.8910   33.4490   40.0140 C   0  0  0  0  0  0  0  0  0  0  0  0
   39.2180   33.5790   39.6970 C   0  0  0  0  0  0  0  0  0  0  0  0
   39.8240   32.5090   39.0280 C   0  0  0  0  0  0  0  0  0  0  0  0
   36.1050   32.2650   39.9730 H   0  0  0  0  0  0  0  0  0  0  0  0
   37.3950   34.2630   40.5330 H   0  0  0  0  0  0  0  0  0  0  0  0
   39.7740   34.4710   39.9530 H   0  0  0  0  0  0  0  0  0  0  0  0
   41.1970   32.6910   38.7220 N   0  0  0  0  0  0  0  0  0  0  0  0
   42.3850   32.3810   39.4630 C   0  0  0  0  0  0  0  0  0  0  0  0
   43.2450   31.6260   38.4430 C   0  0  0  0  0  0  0  0  0  0  0  0
   42.7150   32.1090   37.1180 C   0  0  0  0  0  0  0  0  0  0  0  0
   41.8210   33.2620   37.5320 C   0  0  2  0  0  0  0  0  0  0  0  0
   42.1110   31.6230   40.2510 H   0  0  0  0  0  0  0  0  0  0  0  0
   42.8880   33.2500   39.8930 H   0  0  0  0  0  0  0  0  0  0  0  0
   44.2880   32.0150   38.5340 H   0  0  0  0  0  0  0  0  0  0  0  0
   43.1980   30.5370   38.5710 H   0  0  0  0  0  0  0  0  0  0  0  0
   42.1140   31.3320   36.6360 H   0  0  0  0  0  0  0  0  0  0  0  0
   43.5310   32.4790   36.4560 H   0  0  0  0  0  0  0  0  0  0  0  0
   41.0450   33.3660   36.7430 H   0  0  0  0  0  0  0  0  0  0  0  0
   42.5370   34.5360   37.7820 C   0  0  0  0  0  0  0  0  0  0  0  0
   42.1680   35.2950   37.0590 H   0  0  0  0  0  0  0  0  0  0  0  0
   42.2550   34.8880   38.7950 H   0  0  0  0  0  0  0  0  0  0  0  0
   43.6420   34.4700   37.7240 H   0  0  0  0  0  0  0  0  0  0  0  0
   35.6100   28.8960   37.2650 C   0  0  0  0  0  0  0  0  0  0  0  0
   35.6880   27.7410   38.0830 C   0  0  0  0  0  0  0  0  0  0  0  0
   36.4810   27.8370   39.2190 C   0  0  0  0  0  0  0  0  0  0  0  0
   37.1180   28.9920   39.4770 N   0  0  0  0  0  0  0  0  0  0  0  0
   37.0250   30.0640   38.6890 C   0  0  0  0  0  0  0  0  0  0  0  0
   36.2800   30.0240   37.5920 N   0  0  0  0  0  0  0  0  0  0  0  0
   34.9870   28.8280   36.3690 H   0  0  0  0  0  0  0  0  0  0  0  0
   35.1720   26.8230   37.8620 H   0  0  0  0  0  0  0  0  0  0  0  0
   36.6620   26.7400   40.1580 C   0  0  0  0  0  0  0  0  0  0  0  0
   36.9610   27.0290   41.4720 C   0  0  0  0  0  0  0  0  0  0  0  0
   37.0620   28.0480   41.8080 H   0  0  0  0  0  0  0  0  0  0  0  0
   37.1490   26.0370   42.4240 C   0  0  0  0  0  3  0  0  0  0  0  0
   37.0350   24.6930   42.0640 C   0  0  0  0  0  0  0  0  0  0  0  0
   37.1630   23.8510   42.7330 H   0  0  0  0  0  0  0  0  0  0  0  0
   36.7360   24.3870   40.7490 C   0  0  0  0  0  0  0  0  0  0  0  0
   36.6420   23.3380   40.4450 H   0  0  0  0  0  0  0  0  0  0  0  0
   36.5570   25.4040   39.8340 C   0  0  0  0  0  3  0  0  0  0  0  0
  1  2  1  0  0  0  0
  2  7  2  0  0  0  0
  2  3  1  0  0  0  0
  3  4  2  0  0  0  0
  4  8  1  0  0  0  0
  4  5  1  0  0  0  0
  5  9  1  0  0  0  0
  6 10  1  0  0  0  0
  6  5  2  0  0  0  0
  7  6  1  0  0  0  0
 11  7  1  0  0  0  0
 11 12  1  0  0  0  0
 12 17  1  0  0  0  0
 12 16  1  0  0  0  0
 13 18  1  0  0  0  0
 13 19  1  0  0  0  0
 13 12  1  0  0  0  0
 14 15  1  0  0  0  0
 14 13  1  0  0  0  0
 15 22  1  6  0  0  0
 15 23  1  0  0  0  0
 15 11  1  0  0  0  0
 20 14  1  0  0  0  0
 21 14  1  0  0  0  0
 23 25  1  0  0  0  0
 24 23  1  0  0  0  0
 26 23  1  0  0  0  0
 27 32  2  0  0  0  0
 27 28  1  0  0  0  0
 28 29  2  0  0  0  0
 29 30  1  0  0  0  0
 29 35  1  0  0  0  0
 31  3  1  0  0  0  0
 31 30  2  0  0  0  0
 32 31  1  0  0  0  0
 33 27  1  0  0  0  0
 34 28  1  0  0  0  0
 35 36  1  0  0  0  0
 36 37  1  0  0  0  0
 36 38  2  0  0  0  0
 39 38  1  0  0  0  0
 39 40  1  0  0  0  0
 41 39  2  0  0  0  0
 42 41  1  0  0  0  0
 43 35  2  0  0  0  0
 43 41  1  0  0  0  0
M  END
>  <minimizedAffinity>
-6.18034363

$$$$

 OpenBabel03252505263D

 43 46  0  0  1  0  0  0  0  0999 V2000
   40.2310   31.1170   38.9020 F   0  0  0  0  0  0  0  0  0  0  0  0
   39.5570   32.2310   39.2990 C   0  0  0  0  0  0  0  0  0  0  0  0
   38.1770   32.1700   39.3490 C   0  0  0  0  0  0  0  0  0  0  0  0
   37.5140   33.2980   39.7500 C   0  0  0  0  0  0  0  0  0  0  0  0
   38.2210   34.4360   40.0840 C   0  0  0  0  0  0  0  0  0  0  0  0
   39.5890   34.4970   40.0350 C   0  0  0  0  0  0  0  0  0  0  0  0
   40.2660   33.3440   39.6250 C   0  0  0  0  0  0  0  0  0  0  0  0
   36.4260   33.2980   39.8050 H   0  0  0  0  0  0  0  0  0  0  0  0
   37.6680   35.3170   40.3990 H   0  0  0  0  0  0  0  0  0  0  0  0
   40.1220   35.4000   40.3010 H   0  0  0  0  0  0  0  0  0  0  0  0
   41.6800   33.4560   39.5890 N   0  0  0  0  0  0  0  0  0  0  0  0
   42.6200   33.9340   40.5620 C   0  0  0  0  0  0  0  0  0  0  0  0
   43.6690   32.8190   40.6100 C   0  0  0  0  0  0  0  0  0  0  0  0
   43.5240   32.1480   39.2690 C   0  0  0  0  0  0  0  0  0  0  0  0
   42.6190   33.1110   38.5260 C   0  0  2  0  0  0  0  0  0  0  0  0
   42.1120   33.9190   41.5680 H   0  0  0  0  0  0  0  0  0  0  0  0
   43.0430   34.9160   40.3350 H   0  0  0  0  0  0  0  0  0  0  0  0
   44.6740   33.3060   40.6200 H   0  0  0  0  0  0  0  0  0  0  0  0
   43.5310   32.1420   41.4640 H   0  0  0  0  0  0  0  0  0  0  0  0
   43.0240   31.1800   39.3740 H   0  0  0  0  0  0  0  0  0  0  0  0
   44.5010   32.0600   38.7410 H   0  0  0  0  0  0  0  0  0  0  0  0
   42.0770   32.5160   37.7590 H   0  0  0  0  0  0  0  0  0  0  0  0
   43.3160   34.2800   37.9370 C   0  0  0  0  0  0  0  0  0  0  0  0
   43.1870   34.2470   36.8330 H   0  0  0  0  0  0  0  0  0  0  0  0
   42.8040   35.1950   38.2970 H   0  0  0  0  0  0  0  0  0  0  0  0
   44.3930   34.3540   38.1850 H   0  0  0  0  0  0  0  0  0  0  0  0
   36.2410   29.6890   37.4730 C   0  0  0  0  0  0  0  0  0  0  0  0
   36.1950   28.5930   38.3710 C   0  0  0  0  0  0  0  0  0  0  0  0
   36.8370   28.7620   39.5910 C   0  0  0  0  0  0  0  0  0  0  0  0
   37.4550   29.9260   39.8500 N   0  0  0  0  0  0  0  0  0  0  0  0
   37.4830   30.9420   38.9850 C   0  0  0  0  0  0  0  0  0  0  0  0
   36.8840   30.8320   37.8070 N   0  0  0  0  0  0  0  0  0  0  0  0
   35.7380   29.5640   36.5110 H   0  0  0  0  0  0  0  0  0  0  0  0
   35.6960   27.6660   38.1480 H   0  0  0  0  0  0  0  0  0  0  0  0
   36.8780   27.7300   40.6170 C   0  0  0  0  0  0  0  0  0  0  0  0
   36.7080   28.0950   41.9350 C   0  0  0  0  0  0  0  0  0  0  0  0
   36.5470   29.1240   42.2110 H   0  0  0  0  0  0  0  0  0  0  0  0
   36.7340   27.1690   42.9690 C   0  0  0  0  0  3  0  0  0  0  0  0
   36.9380   25.8170   42.6900 C   0  0  0  0  0  0  0  0  0  0  0  0
   36.9750   25.0220   43.4250 H   0  0  0  0  0  0  0  0  0  0  0  0
   37.1120   25.4350   41.3720 C   0  0  0  0  0  0  0  0  0  0  0  0
   37.2730   24.3790   41.1300 H   0  0  0  0  0  0  0  0  0  0  0  0
   37.0780   26.3880   40.3740 C   0  0  0  0  0  3  0  0  0  0  0  0
  1  2  1  0  0  0  0
  2  3  2  0  0  0  0
  2  7  1  0  0  0  0
  3  4  1  0  0  0  0
  4  8  1  0  0  0  0
  4  5  2  0  0  0  0
  5  9  1  0  0  0  0
  6  5  1  0  0  0  0
  6 10  1  0  0  0  0
  7  6  2  0  0  0  0
 11  7  1  0  0  0  0
 11 12  1  0  0  0  0
 12 13  1  0  0  0  0
 12 16  1  0  0  0  0
 13 18  1  0  0  0  0
 13 19  1  0  0  0  0
 14 20  1  0  0  0  0
 14 13  1  0  0  0  0
 15 22  1  6  0  0  0
 15 14  1  0  0  0  0
 15 11  1  0  0  0  0
 17 12  1  0  0  0  0
 21 14  1  0  0  0  0
 23 26  1  0  0  0  0
 23 25  1  0  0  0  0
 23 15  1  0  0  0  0
 24 23  1  0  0  0  0
 27 32  2  0  0  0  0
 27 28  1  0  0  0  0
 28 29  2  0  0  0  0
 29 30  1  0  0  0  0
 29 35  1  0  0  0  0
 31  3  1  0  0  0  0
 31 30  2  0  0  0  0
 32 31  1  0  0  0  0
 33 27  1  0  0  0  0
 34 28  1  0  0  0  0
 35 36  1  0  0  0  0
 36 37  1  0  0  0  0
 36 38  2  0  0  0  0
 39 38  1  0  0  0  0
 39 40  1  0  0  0  0
 41 39  2  0  0  0  0
 42 41  1  0  0  0  0
 43 35  2  0  0  0  0
 43 41  1  0  0  0  0
M  END
>  <minimizedAffinity>
-6.13924313

$$$$

 OpenBabel03252505263D

 43 46  0  0  1  0  0  0  0  0999 V2000
   40.1050   30.6430   39.3550 F   0  0  0  0  0  0  0  0  0  0  0  0
   39.6800   31.8900   39.6950 C   0  0  0  0  0  0  0  0  0  0  0  0
   38.4520   32.0100   40.3180 C   0  0  0  0  0  0  0  0  0  0  0  0
   38.0390   33.2710   40.6520 C   0  0  0  0  0  0  0  0  0  0  0  0
   38.8370   34.3610   40.3660 C   0  0  0  0  0  0  0  0  0  0  0  0
   40.0550   34.2430   39.7490 C   0  0  0  0  0  0  0  0  0  0  0  0
   40.4770   32.9530   39.4070 C   0  0  0  0  0  0  0  0  0  0  0  0
   37.0780   33.4150   41.1450 H   0  0  0  0  0  0  0  0  0  0  0  0
   38.4840   35.3500   40.6430 H   0  0  0  0  0  0  0  0  0  0  0  0
   40.6640   35.1110   39.5340 H   0  0  0  0  0  0  0  0  0  0  0  0
   41.7420   32.8830   38.7700 N   0  0  0  0  0  0  0  0  0  0  0  0
   42.1350   33.1100   37.4090 C   0  0  0  0  0  0  0  0  0  0  0  0
   43.3280   34.0630   37.5440 C   0  0  0  0  0  0  0  0  0  0  0  0
   43.8300   33.7940   38.9390 C   0  0  0  0  0  0  0  0  0  0  0  0
   43.0510   32.5510   39.3250 C   0  0  2  0  0  0  0  0  0  0  0  0
   41.3210   33.7090   36.9110 H   0  0  0  0  0  0  0  0  0  0  0  0
   42.3710   32.2000   36.8500 H   0  0  0  0  0  0  0  0  0  0  0  0
   44.1200   33.7070   36.8420 H   0  0  0  0  0  0  0  0  0  0  0  0
   43.0570   35.1110   37.3640 H   0  0  0  0  0  0  0  0  0  0  0  0
   43.5660   34.6170   39.6100 H   0  0  0  0  0  0  0  0  0  0  0  0
   44.9230   33.5760   38.9510 H   0  0  0  0  0  0  0  0  0  0  0  0
   42.9730   32.5530   40.4340 H   0  0  0  0  0  0  0  0  0  0  0  0
   43.6190   31.2830   38.8080 C   0  0  0  0  0  0  0  0  0  0  0  0
   43.9030   30.6460   39.6730 H   0  0  0  0  0  0  0  0  0  0  0  0
   42.8140   30.7510   38.2610 H   0  0  0  0  0  0  0  0  0  0  0  0
   44.4880   31.4040   38.1310 H   0  0  0  0  0  0  0  0  0  0  0  0
   35.6360   29.6730   40.4940 C   0  0  0  0  0  0  0  0  0  0  0  0
   36.2070   28.5540   41.1530 C   0  0  0  0  0  0  0  0  0  0  0  0
   37.5450   28.6590   41.5080 C   0  0  0  0  0  0  0  0  0  0  0  0
   38.2140   29.7870   41.2160 N   0  0  0  0  0  0  0  0  0  0  0  0
   37.6510   30.8250   40.5950 C   0  0  0  0  0  0  0  0  0  0  0  0
   36.3750   30.7760   40.2350 N   0  0  0  0  0  0  0  0  0  0  0  0
   34.5830   29.5980   40.2120 H   0  0  0  0  0  0  0  0  0  0  0  0
   35.6570   27.6570   41.3790 H   0  0  0  0  0  0  0  0  0  0  0  0
   38.2730   27.5970   42.1880 C   0  0  0  0  0  0  0  0  0  0  0  0
   38.1010   26.2960   41.7670 C   0  0  0  0  0  0  0  0  0  0  0  0
   37.4410   26.0590   40.9490 H   0  0  0  0  0  0  0  0  0  0  0  0
   38.7590   25.2310   42.3670 C   0  0  0  0  0  3  0  0  0  0  0  0
   39.6300   25.4600   43.4330 C   0  0  0  0  0  0  0  0  0  0  0  0
   40.1870   24.6970   43.9630 H   0  0  0  0  0  0  0  0  0  0  0  0
   39.8130   26.7600   43.8670 C   0  0  0  0  0  0  0  0  0  0  0  0
   40.4930   26.9620   44.7020 H   0  0  0  0  0  0  0  0  0  0  0  0
   39.1390   27.7900   43.2430 C   0  0  0  0  0  3  0  0  0  0  0  0
  1  2  1  0  0  0  0
  2  3  1  0  0  0  0
  3 31  1  0  0  0  0
  3  4  2  0  0  0  0
  4  8  1  0  0  0  0
  5  9  1  0  0  0  0
  5  4  1  0  0  0  0
  6  5  2  0  0  0  0
  7  2  2  0  0  0  0
  7  6  1  0  0  0  0
 10  6  1  0  0  0  0
 11 15  1  0  0  0  0
 11  7  1  0  0  0  0
 12 13  1  0  0  0  0
 12 11  1  0  0  0  0
 13 14  1  0  0  0  0
 14 21  1  0  0  0  0
 14 15  1  0  0  0  0
 14 20  1  0  0  0  0
 15 22  1  1  0  0  0
 16 12  1  0  0  0  0
 17 12  1  0  0  0  0
 18 13  1  0  0  0  0
 19 13  1  0  0  0  0
 23 15  1  0  0  0  0
 23 24  1  0  0  0  0
 25 23  1  0  0  0  0
 26 23  1  0  0  0  0
 27 28  1  0  0  0  0
 28 34  1  0  0  0  0
 28 29  2  0  0  0  0
 29 35  1  0  0  0  0
 30 29  1  0  0  0  0
 31 30  2  0  0  0  0
 32 27  2  0  0  0  0
 32 31  1  0  0  0  0
 33 27  1  0  0  0  0
 35 43  1  0  0  0  0
 36 35  2  0  0  0  0
 36 38  1  0  0  0  0
 37 36  1  0  0  0  0
 38 39  2  0  0  0  0
 39 41  1  0  0  0  0
 39 40  1  0  0  0  0
 41 42  1  0  0  0  0
 43 41  2  0  0  0  0
M  END
>  <minimizedAffinity>
-6.12766218

$$$$

 OpenBabel03252505263D

 43 46  0  0  1  0  0  0  0  0999 V2000
   35.7640   27.7760   40.2640 F   0  0  0  0  0  0  0  0  0  0  0  0
   36.5900   28.6730   39.6590 C   0  0  0  0  0  0  0  0  0  0  0  0
   36.2780   29.0770   38.3740 C   0  0  0  0  0  0  0  0  0  0  0  0
   37.1180   29.9790   37.7790 C   0  0  0  0  0  0  0  0  0  0  0  0
   38.2250   30.4480   38.4580 C   0  0  0  0  0  0  0  0  0  0  0  0
   38.5350   30.0480   39.7320 C   0  0  0  0  0  0  0  0  0  0  0  0
   37.6750   29.1250   40.3400 C   0  0  0  0  0  0  0  0  0  0  0  0
   36.9140   30.3260   36.7670 H   0  0  0  0  0  0  0  0  0  0  0  0
   38.8750   31.1630   37.9620 H   0  0  0  0  0  0  0  0  0  0  0  0
   39.4080   30.4280   40.2460 H   0  0  0  0  0  0  0  0  0  0  0  0
   38.0380   28.7420   41.6560 N   0  0  0  0  0  0  0  0  0  0  0  0
   37.6700   29.2740   42.9360 C   0  0  0  0  0  0  0  0  0  0  0  0
   37.2420   28.0290   43.7210 C   0  0  0  0  0  0  0  0  0  0  0  0
   37.9660   26.9110   43.0190 C   0  0  0  0  0  0  0  0  0  0  0  0
   38.9150   27.6660   42.1080 C   0  0  2  0  0  0  0  0  0  0  0  0
   36.7330   29.8840   42.7990 H   0  0  0  0  0  0  0  0  0  0  0  0
   38.4590   29.8460   43.4310 H   0  0  0  0  0  0  0  0  0  0  0  0
   37.6870   28.1100   44.7430 H   0  0  0  0  0  0  0  0  0  0  0  0
   36.1520   27.9020   43.7550 H   0  0  0  0  0  0  0  0  0  0  0  0
   37.2700   26.3190   42.4160 H   0  0  0  0  0  0  0  0  0  0  0  0
   38.5450   26.2790   43.7320 H   0  0  0  0  0  0  0  0  0  0  0  0
   39.1290   27.0000   41.2440 H   0  0  0  0  0  0  0  0  0  0  0  0
   40.1550   28.1390   42.7690 C   0  0  0  0  0  0  0  0  0  0  0  0
   41.0240   27.6520   42.2760 H   0  0  0  0  0  0  0  0  0  0  0  0
   40.2430   29.2280   42.5810 H   0  0  0  0  0  0  0  0  0  0  0  0
   40.1980   27.9630   43.8620 H   0  0  0  0  0  0  0  0  0  0  0  0
   33.9970   26.8310   36.5920 C   0  0  0  0  0  0  0  0  0  0  0  0
   32.8290   27.6230   36.4570 C   0  0  0  0  0  0  0  0  0  0  0  0
   32.8830   28.9040   36.9900 C   0  0  0  0  0  0  0  0  0  0  0  0
   34.0110   29.3160   37.5920 N   0  0  0  0  0  0  0  0  0  0  0  0
   35.0960   28.5490   37.7040 C   0  0  0  0  0  0  0  0  0  0  0  0
   35.0970   27.3170   37.2120 N   0  0  0  0  0  0  0  0  0  0  0  0
   33.9630   25.8220   36.1740 H   0  0  0  0  0  0  0  0  0  0  0  0
   31.9330   27.2780   35.9720 H   0  0  0  0  0  0  0  0  0  0  0  0
   31.7670   29.8370   36.9320 C   0  0  0  0  0  0  0  0  0  0  0  0
   30.9960   30.0260   38.0590 C   0  0  0  0  0  0  0  0  0  0  0  0
   31.2090   29.4950   38.9720 H   0  0  0  0  0  0  0  0  0  0  0  0
   29.9170   30.8970   38.0790 C   0  0  0  0  0  3  0  0  0  0  0  0
   29.5800   31.6200   36.9340 C   0  0  0  0  0  0  0  0  0  0  0  0
   28.7580   32.3210   36.8520 H   0  0  0  0  0  0  0  0  0  0  0  0
   30.3440   31.4410   35.7950 C   0  0  0  0  0  0  0  0  0  0  0  0
   30.0980   31.9990   34.8840 H   0  0  0  0  0  0  0  0  0  0  0  0
   31.4100   30.5650   35.8160 C   0  0  0  0  0  3  0  0  0  0  0  0
  2  1  1  0  0  0  0
  2  7  1  0  0  0  0
  3  2  2  0  0  0  0
  4  3  1  0  0  0  0
  4  5  2  0  0  0  0
  5  6  1  0  0  0  0
  6 10  1  0  0  0  0
  6  7  2  0  0  0  0
  7 11  1  0  0  0  0
  8  4  1  0  0  0  0
  9  5  1  0  0  0  0
 11 15  1  0  0  0  0
 11 12  1  0  0  0  0
 12 17  1  0  0  0  0
 12 13  1  0  0  0  0
 13 19  1  0  0  0  0
 13 18  1  0  0  0  0
 14 13  1  0  0  0  0
 14 21  1  0  0  0  0
 15 22  1  6  0  0  0
 15 23  1  0  0  0  0
 15 14  1  0  0  0  0
 16 12  1  0  0  0  0
 20 14  1  0  0  0  0
 23 26  1  0  0  0  0
 24 23  1  0  0  0  0
 25 23  1  0  0  0  0
 27 32  1  0  0  0  0
 28 27  2  0  0  0  0
 28 29  1  0  0  0  0
 29 30  2  0  0  0  0
 30 31  1  0  0  0  0
 31  3  1  0  0  0  0
 32 31  2  0  0  0  0
 33 27  1  0  0  0  0
 34 28  1  0  0  0  0
 35 29  1  0  0  0  0
 35 36  1  0  0  0  0
 36 38  2  0  0  0  0
 36 37  1  0  0  0  0
 39 38  1  0  0  0  0
 40 39  1  0  0  0  0
 41 43  1  0  0  0  0
 41 39  2  0  0  0  0
 42 41  1  0  0  0  0
 43 35  2  0  0  0  0
M  END
>  <minimizedAffinity>
-6.02198458

$$$$

 OpenBabel03252505263D

 43 46  0  0  1  0  0  0  0  0999 V2000
   37.9300   28.2870   39.7030 F   0  0  0  0  0  0  0  0  0  0  0  0
   37.7390   28.1320   41.0410 C   0  0  0  0  0  0  0  0  0  0  0  0
   37.7450   29.2650   41.8330 C   0  0  0  0  0  0  0  0  0  0  0  0
   37.5530   29.0920   43.1760 C   0  0  0  0  0  0  0  0  0  0  0  0
   37.3630   27.8260   43.6930 C   0  0  0  0  0  0  0  0  0  0  0  0
   37.3570   26.7020   42.9090 C   0  0  0  0  0  0  0  0  0  0  0  0
   37.5540   26.8790   41.5350 C   0  0  0  0  0  0  0  0  0  0  0  0
   37.5490   29.9560   43.8400 H   0  0  0  0  0  0  0  0  0  0  0  0
   37.2120   27.7180   44.7630 H   0  0  0  0  0  0  0  0  0  0  0  0
   37.2060   25.7190   43.3350 H   0  0  0  0  0  0  0  0  0  0  0  0
   37.5400   25.6870   40.7660 N   0  0  0  0  0  0  0  0  0  0  0  0
   38.4820   24.6110   40.6640 C   0  0  0  0  0  0  0  0  0  0  0  0
   37.6090   23.3650   40.8490 C   0  0  0  0  0  0  0  0  0  0  0  0
   36.2380   23.8390   40.4440 C   0  0  0  0  0  0  0  0  0  0  0  0
   36.5360   25.1920   39.8280 C   0  0  2  0  0  0  0  0  0  0  0  0
   39.1500   24.6510   41.5710 H   0  0  0  0  0  0  0  0  0  0  0  0
   39.0570   24.6010   39.7350 H   0  0  0  0  0  0  0  0  0  0  0  0
   37.9300   22.6160   40.0850 H   0  0  0  0  0  0  0  0  0  0  0  0
   37.6560   22.9590   41.8680 H   0  0  0  0  0  0  0  0  0  0  0  0
   35.5980   23.9670   41.3220 H   0  0  0  0  0  0  0  0  0  0  0  0
   35.7760   23.1690   39.6820 H   0  0  0  0  0  0  0  0  0  0  0  0
   35.6160   25.8060   39.9400 H   0  0  0  0  0  0  0  0  0  0  0  0
   37.0030   25.1390   38.4220 C   0  0  0  0  0  0  0  0  0  0  0  0
   36.2700   25.6810   37.7860 H   0  0  0  0  0  0  0  0  0  0  0  0
   37.9600   25.6970   38.3620 H   0  0  0  0  0  0  0  0  0  0  0  0
   37.1620   24.1180   38.0210 H   0  0  0  0  0  0  0  0  0  0  0  0
   37.1410   32.4270   40.0840 C   0  0  0  0  0  0  0  0  0  0  0  0
   38.4140   33.0500   40.1280 C   0  0  0  0  0  0  0  0  0  0  0  0
   39.4290   32.3460   40.7630 C   0  0  0  0  0  0  0  0  0  0  0  0
   39.1580   31.1410   41.2900 N   0  0  0  0  0  0  0  0  0  0  0  0
   37.9500   30.5780   41.2340 C   0  0  0  0  0  0  0  0  0  0  0  0
   36.9470   31.2090   40.6380 N   0  0  0  0  0  0  0  0  0  0  0  0
   36.3380   32.9750   39.5860 H   0  0  0  0  0  0  0  0  0  0  0  0
   38.6150   34.0170   39.7010 H   0  0  0  0  0  0  0  0  0  0  0  0
   40.7890   32.8510   40.8890 C   0  0  0  0  0  0  0  0  0  0  0  0
   41.7410   32.0560   41.4880 C   0  0  0  0  0  0  0  0  0  0  0  0
   41.4930   31.0750   41.8600 H   0  0  0  0  0  0  0  0  0  0  0  0
   43.0570   32.4680   41.6450 C   0  0  0  0  0  3  0  0  0  0  0  0
   43.4540   33.7260   41.1880 C   0  0  0  0  0  0  0  0  0  0  0  0
   44.4540   34.1360   41.2650 H   0  0  0  0  0  0  0  0  0  0  0  0
   42.5090   34.5360   40.5850 C   0  0  0  0  0  0  0  0  0  0  0  0
   42.7990   35.5270   40.2190 H   0  0  0  0  0  0  0  0  0  0  0  0
   41.2110   34.0870   40.4490 C   0  0  0  0  0  3  0  0  0  0  0  0
  1  2  1  0  0  0  0
  2  7  2  0  0  0  0
  2  3  1  0  0  0  0
  3  4  2  0  0  0  0
  4  5  1  0  0  0  0
  4  8  1  0  0  0  0
  5  9  1  0  0  0  0
  6 10  1  0  0  0  0
  6  5  2  0  0  0  0
  7  6  1  0  0  0  0
 11  7  1  0  0  0  0
 12 11  1  0  0  0  0
 12 13  1  0  0  0  0
 12 16  1  0  0  0  0
 13 19  1  0  0  0  0
 14 13  1  0  0  0  0
 14 20  1  0  0  0  0
 15 22  1  1  0  0  0
 15 14  1  0  0  0  0
 15 11  1  0  0  0  0
 17 12  1  0  0  0  0
 18 13  1  0  0  0  0
 21 14  1  0  0  0  0
 23 15  1  0  0  0  0
 24 23  1  0  0  0  0
 25 23  1  0  0  0  0
 26 23  1  0  0  0  0
 27 28  2  0  0  0  0
 27 32  1  0  0  0  0
 28 29  1  0  0  0  0
 29 35  1  0  0  0  0
 29 30  2  0  0  0  0
 31 30  1  0  0  0  0
 31  3  1  0  0  0  0
 32 31  2  0  0  0  0
 33 27  1  0  0  0  0
 34 28  1  0  0  0  0
 35 36  1  0  0  0  0
 36 38  2  0  0  0  0
 36 37  1  0  0  0  0
 39 40  1  0  0  0  0
 39 38  1  0  0  0  0
 41 39  2  0  0  0  0
 42 41  1  0  0  0  0
 43 41  1  0  0  0  0
 43 35  2  0  0  0  0
M  END
>  <minimizedAffinity>
-6.01728868

$$$$

 OpenBabel03252505263D

 43 46  0  0  1  0  0  0  0  0999 V2000
   39.6270   29.8380   41.0400 F   0  0  0  0  0  0  0  0  0  0  0  0
   38.4790   29.8950   40.3120 C   0  0  0  0  0  0  0  0  0  0  0  0
   38.3850   30.8560   39.3230 C   0  0  0  0  0  0  0  0  0  0  0  0
   37.2240   30.9000   38.6010 C   0  0  0  0  0  0  0  0  0  0  0  0
   36.2040   30.0100   38.8710 C   0  0  0  0  0  0  0  0  0  0  0  0
   36.2960   29.0570   39.8510 C   0  0  0  0  0  0  0  0  0  0  0  0
   37.4840   29.0120   40.5900 C   0  0  0  0  0  0  0  0  0  0  0  0
   37.1030   31.6410   37.8100 H   0  0  0  0  0  0  0  0  0  0  0  0
   35.2930   30.0680   38.2820 H   0  0  0  0  0  0  0  0  0  0  0  0
   35.4840   28.3690   40.0470 H   0  0  0  0  0  0  0  0  0  0  0  0
   37.5310   28.0100   41.5930 N   0  0  0  0  0  0  0  0  0  0  0  0
   37.3650   26.5870   41.5230 C   0  0  0  0  0  0  0  0  0  0  0  0
   38.5820   26.0550   42.2860 C   0  0  0  0  0  0  0  0  0  0  0  0
   38.9570   27.2050   43.1850 C   0  0  0  0  0  0  0  0  0  0  0  0
   37.7690   28.1340   43.0280 C   0  0  2  0  0  0  0  0  0  0  0  0
   37.5180   26.2750   40.4510 H   0  0  0  0  0  0  0  0  0  0  0  0
   36.4140   26.2230   41.9200 H   0  0  0  0  0  0  0  0  0  0  0  0
   38.2260   25.2300   42.9500 H   0  0  0  0  0  0  0  0  0  0  0  0
   39.3930   25.7290   41.6210 H   0  0  0  0  0  0  0  0  0  0  0  0
   39.8620   27.7010   42.8210 H   0  0  0  0  0  0  0  0  0  0  0  0
   39.0520   26.8860   44.2480 H   0  0  0  0  0  0  0  0  0  0  0  0
   38.1350   29.1630   43.2360 H   0  0  0  0  0  0  0  0  0  0  0  0
   36.5960   27.7790   43.8640 C   0  0  0  0  0  0  0  0  0  0  0  0
   36.3970   28.6180   44.5650 H   0  0  0  0  0  0  0  0  0  0  0  0
   35.7160   27.7000   43.1940 H   0  0  0  0  0  0  0  0  0  0  0  0
   36.6970   26.8330   44.4320 H   0  0  0  0  0  0  0  0  0  0  0  0
   40.5220   33.8310   39.3840 C   0  0  0  0  0  0  0  0  0  0  0  0
   41.6200   33.4370   38.5790 C   0  0  0  0  0  0  0  0  0  0  0  0
   41.5720   32.1550   38.0470 C   0  0  0  0  0  0  0  0  0  0  0  0
   40.5130   31.3730   38.3190 N   0  0  0  0  0  0  0  0  0  0  0  0
   39.4930   31.7710   39.0800 C   0  0  0  0  0  0  0  0  0  0  0  0
   39.4900   32.9860   39.6120 N   0  0  0  0  0  0  0  0  0  0  0  0
   40.5520   34.8390   39.8060 H   0  0  0  0  0  0  0  0  0  0  0  0
   42.4600   34.0760   38.3710 H   0  0  0  0  0  0  0  0  0  0  0  0
   42.6210   31.6050   37.2010 C   0  0  0  0  0  0  0  0  0  0  0  0
   43.8800   32.1630   37.2550 C   0  0  0  0  0  0  0  0  0  0  0  0
   44.0930   32.9920   37.9090 H   0  0  0  0  0  0  0  0  0  0  0  0
   44.9310   31.6930   36.4790 C   0  0  0  0  0  3  0  0  0  0  0  0
   44.7310   30.6220   35.6080 C   0  0  0  0  0  0  0  0  0  0  0  0
   45.4860   30.1860   34.9640 H   0  0  0  0  0  0  0  0  0  0  0  0
   43.4730   30.0520   35.5420 C   0  0  0  0  0  0  0  0  0  0  0  0
   43.2940   29.2090   34.8650 H   0  0  0  0  0  0  0  0  0  0  0  0
   42.4550   30.5480   36.3320 C   0  0  0  0  0  3  0  0  0  0  0  0
  2  7  1  0  0  0  0
  2  1  1  0  0  0  0
  3  2  2  0  0  0  0
  4  5  2  0  0  0  0
  4  3  1  0  0  0  0
  5  6  1  0  0  0  0
  6 10  1  0  0  0  0
  6  7  2  0  0  0  0
  7 11  1  0  0  0  0
  8  4  1  0  0  0  0
  9  5  1  0  0  0  0
 11 15  1  0  0  0  0
 12 11  1  0  0  0  0
 12 17  1  0  0  0  0
 12 13  1  0  0  0  0
 13 18  1  0  0  0  0
 13 14  1  0  0  0  0
 14 21  1  0  0  0  0
 15 14  1  0  0  0  0
 15 22  1  1  0  0  0
 15 23  1  0  0  0  0
 16 12  1  0  0  0  0
 19 13  1  0  0  0  0
 20 14  1  0  0  0  0
 23 26  1  0  0  0  0
 23 24  1  0  0  0  0
 25 23  1  0  0  0  0
 27 32  1  0  0  0  0
 27 33  1  0  0  0  0
 28 27  2  0  0  0  0
 29 30  2  0  0  0  0
 29 28  1  0  0  0  0
 30 31  1  0  0  0  0
 31  3  1  0  0  0  0
 31 32  2  0  0  0  0
 34 28  1  0  0  0  0
 35 36  1  0  0  0  0
 35 29  1  0  0  0  0
 36 37  1  0  0  0  0
 38 36  2  0  0  0  0
 39 38  1  0  0  0  0
 40 39  1  0  0  0  0
 41 39  2  0  0  0  0
 41 43  1  0  0  0  0
 42 41  1  0  0  0  0
 43 35  2  0  0  0  0
M  END
>  <minimizedAffinity>
-5.96467495

$$$$

 OpenBabel03252505263D

 43 46  0  0  1  0  0  0  0  0999 V2000
   36.0320   26.1850   38.5110 F   0  0  0  0  0  0  0  0  0  0  0  0
   35.9230   27.3000   39.2840 C   0  0  0  0  0  0  0  0  0  0  0  0
   35.0240   28.2750   38.8940 C   0  0  0  0  0  0  0  0  0  0  0  0
   34.9270   29.3890   39.6810 C   0  0  0  0  0  0  0  0  0  0  0  0
   35.7090   29.5090   40.8130 C   0  0  0  0  0  0  0  0  0  0  0  0
   36.6000   28.5430   41.2000 C   0  0  0  0  0  0  0  0  0  0  0  0
   36.7000   27.4030   40.3950 C   0  0  0  0  0  0  0  0  0  0  0  0
   34.2320   30.1840   39.4140 H   0  0  0  0  0  0  0  0  0  0  0  0
   35.6110   30.4040   41.4200 H   0  0  0  0  0  0  0  0  0  0  0  0
   37.2040   28.6580   42.0920 H   0  0  0  0  0  0  0  0  0  0  0  0
   37.6360   26.4330   40.8360 N   0  0  0  0  0  0  0  0  0  0  0  0
   38.8920   26.0080   40.2910 C   0  0  0  0  0  0  0  0  0  0  0  0
   39.8350   26.0690   41.4970 C   0  0  0  0  0  0  0  0  0  0  0  0
   38.9020   25.9450   42.6730 C   0  0  0  0  0  0  0  0  0  0  0  0
   37.5950   25.5610   42.0060 C   0  0  2  0  0  0  0  0  0  0  0  0
   39.2490   26.8090   39.5840 H   0  0  0  0  0  0  0  0  0  0  0  0
   38.8660   25.0250   39.8130 H   0  0  0  0  0  0  0  0  0  0  0  0
   40.4580   25.1430   41.4810 H   0  0  0  0  0  0  0  0  0  0  0  0
   40.4490   26.9790   41.5110 H   0  0  0  0  0  0  0  0  0  0  0  0
   38.7860   26.9090   43.1780 H   0  0  0  0  0  0  0  0  0  0  0  0
   39.2220   25.1400   43.3740 H   0  0  0  0  0  0  0  0  0  0  0  0
   36.7780   25.9070   42.6750 H   0  0  0  0  0  0  0  0  0  0  0  0
   37.4740   24.1200   41.6760 C   0  0  0  0  0  0  0  0  0  0  0  0
   36.6150   23.7010   42.2430 H   0  0  0  0  0  0  0  0  0  0  0  0
   37.2230   24.0400   40.5990 H   0  0  0  0  0  0  0  0  0  0  0  0
   38.3820   23.5180   41.8750 H   0  0  0  0  0  0  0  0  0  0  0  0
   33.5430   26.8000   35.8850 C   0  0  0  0  0  0  0  0  0  0  0  0
   32.6850   27.8320   35.4270 C   0  0  0  0  0  0  0  0  0  0  0  0
   32.6570   28.9960   36.1830 C   0  0  0  0  0  0  0  0  0  0  0  0
   33.4250   29.0830   37.2820 N   0  0  0  0  0  0  0  0  0  0  0  0
   34.2240   28.0950   37.6890 C   0  0  0  0  0  0  0  0  0  0  0  0
   34.2880   26.9620   37.0020 N   0  0  0  0  0  0  0  0  0  0  0  0
   33.5710   25.8800   35.2950 H   0  0  0  0  0  0  0  0  0  0  0  0
   32.0750   27.7460   34.5450 H   0  0  0  0  0  0  0  0  0  0  0  0
   31.8280   30.1440   35.8440 C   0  0  0  0  0  0  0  0  0  0  0  0
   31.8890   30.6560   34.5660 C   0  0  0  0  0  0  0  0  0  0  0  0
   32.5370   30.2200   33.8240 H   0  0  0  0  0  0  0  0  0  0  0  0
   31.1290   31.7470   34.1690 C   0  0  0  0  0  3  0  0  0  0  0  0
   30.2670   32.3650   35.0760 C   0  0  0  0  0  0  0  0  0  0  0  0
   29.6360   33.2190   34.8610 H   0  0  0  0  0  0  0  0  0  0  0  0
   30.1940   31.8630   36.3620 C   0  0  0  0  0  0  0  0  0  0  0  0
   29.5230   32.3320   37.0900 H   0  0  0  0  0  0  0  0  0  0  0  0
   30.9670   30.7750   36.7170 C   0  0  0  0  0  3  0  0  0  0  0  0
  1  2  1  0  0  0  0
  2  7  1  0  0  0  0
  3  2  2  0  0  0  0
  3  4  1  0  0  0  0
  4  5  2  0  0  0  0
  5  6  1  0  0  0  0
  5  9  1  0  0  0  0
  6 10  1  0  0  0  0
  7 11  1  0  0  0  0
  7  6  2  0  0  0  0
  8  4  1  0  0  0  0
 11 15  1  0  0  0  0
 12 11  1  0  0  0  0
 12 13  1  0  0  0  0
 13 19  1  0  0  0  0
 13 14  1  0  0  0  0
 14 20  1  0  0  0  0
 14 21  1  0  0  0  0
 15 14  1  0  0  0  0
 15 22  1  1  0  0  0
 16 12  1  0  0  0  0
 17 12  1  0  0  0  0
 18 13  1  0  0  0  0
 23 26  1  0  0  0  0
 23 15  1  0  0  0  0
 23 24  1  0  0  0  0
 25 23  1  0  0  0  0
 27 32  1  0  0  0  0
 28 27  2  0  0  0  0
 28 29  1  0  0  0  0
 29 30  2  0  0  0  0
 30 31  1  0  0  0  0
 31  3  1  0  0  0  0
 32 31  2  0  0  0  0
 33 27  1  0  0  0  0
 34 28  1  0  0  0  0
 35 29  1  0  0  0  0
 35 43  1  0  0  0  0
 36 35  2  0  0  0  0
 37 36  1  0  0  0  0
 38 36  1  0  0  0  0
 38 39  2  0  0  0  0
 39 41  1  0  0  0  0
 40 39  1  0  0  0  0
 41 43  2  0  0  0  0
 41 42  1  0  0  0  0
M  END
>  <minimizedAffinity>
-5.96021938

$$$$

 OpenBabel03252505263D

 43 46  0  0  1  0  0  0  0  0999 V2000
   39.0360   30.2350   41.7300 F   0  0  0  0  0  0  0  0  0  0  0  0
   38.0330   30.0290   40.8340 C   0  0  0  0  0  0  0  0  0  0  0  0
   37.7670   31.0280   39.9160 C   0  0  0  0  0  0  0  0  0  0  0  0
   36.7550   30.8050   39.0230 C   0  0  0  0  0  0  0  0  0  0  0  0
   36.0440   29.6220   39.0600 C   0  0  0  0  0  0  0  0  0  0  0  0
   36.3070   28.6320   39.9700 C   0  0  0  0  0  0  0  0  0  0  0  0
   37.3420   28.8600   40.8840 C   0  0  0  0  0  0  0  0  0  0  0  0
   36.5090   31.5640   38.2800 H   0  0  0  0  0  0  0  0  0  0  0  0
   35.2460   29.4720   38.3390 H   0  0  0  0  0  0  0  0  0  0  0  0
   35.7370   27.7120   39.9820 H   0  0  0  0  0  0  0  0  0  0  0  0
   37.5760   27.8060   41.8040 N   0  0  0  0  0  0  0  0  0  0  0  0
   36.6960   27.1200   42.7060 C   0  0  0  0  0  0  0  0  0  0  0  0
   36.9830   25.6430   42.4160 C   0  0  0  0  0  0  0  0  0  0  0  0
   38.3730   25.6670   41.8370 C   0  0  0  0  0  0  0  0  0  0  0  0
   38.8100   27.0920   42.1140 C   0  0  2  0  0  0  0  0  0  0  0  0
   35.6390   27.2990   42.3590 H   0  0  0  0  0  0  0  0  0  0  0  0
   36.8290   27.3870   43.7570 H   0  0  0  0  0  0  0  0  0  0  0  0
   37.0510   25.1170   43.3980 H   0  0  0  0  0  0  0  0  0  0  0  0
   36.2340   25.1860   41.7550 H   0  0  0  0  0  0  0  0  0  0  0  0
   38.3450   25.4940   40.7560 H   0  0  0  0  0  0  0  0  0  0  0  0
   39.0520   24.9530   42.3580 H   0  0  0  0  0  0  0  0  0  0  0  0
   39.5690   27.3510   41.3430 H   0  0  0  0  0  0  0  0  0  0  0  0
   39.3110   27.3250   43.4900 C   0  0  0  0  0  0  0  0  0  0  0  0
   40.3730   27.6470   43.4290 H   0  0  0  0  0  0  0  0  0  0  0  0
   38.7380   28.1730   43.9180 H   0  0  0  0  0  0  0  0  0  0  0  0
   39.2220   26.4570   44.1720 H   0  0  0  0  0  0  0  0  0  0  0  0
   38.7930   34.5000   40.4770 C   0  0  0  0  0  0  0  0  0  0  0  0
   40.0850   34.5360   39.8950 C   0  0  0  0  0  0  0  0  0  0  0  0
   40.5460   33.3530   39.3320 C   0  0  0  0  0  0  0  0  0  0  0  0
   39.7630   32.2620   39.3670 N   0  0  0  0  0  0  0  0  0  0  0  0
   38.5490   32.2580   39.9220 C   0  0  0  0  0  0  0  0  0  0  0  0
   38.0630   33.3620   40.4730 N   0  0  0  0  0  0  0  0  0  0  0  0
   38.4240   35.4270   40.9210 H   0  0  0  0  0  0  0  0  0  0  0  0
   40.7010   35.4180   39.8750 H   0  0  0  0  0  0  0  0  0  0  0  0
   41.8500   33.2300   38.6970 C   0  0  0  0  0  0  0  0  0  0  0  0
   42.0780   32.1730   37.8420 C   0  0  0  0  0  0  0  0  0  0  0  0
   41.3090   31.4440   37.6420 H   0  0  0  0  0  0  0  0  0  0  0  0
   43.2950   31.9890   37.2010 C   0  0  0  0  0  3  0  0  0  0  0  0
   44.3380   32.8910   37.4110 C   0  0  0  0  0  0  0  0  0  0  0  0
   45.3210   32.8320   36.9570 H   0  0  0  0  0  0  0  0  0  0  0  0
   44.1260   33.9570   38.2660 C   0  0  0  0  0  0  0  0  0  0  0  0
   44.9310   34.6780   38.4440 H   0  0  0  0  0  0  0  0  0  0  0  0
   42.9000   34.1040   38.8830 C   0  0  0  0  0  3  0  0  0  0  0  0
  2  7  1  0  0  0  0
  2  1  1  0  0  0  0
  3 31  1  0  0  0  0
  3  2  2  0  0  0  0
  4  5  2  0  0  0  0
  4  3  1  0  0  0  0
  5  6  1  0  0  0  0
  6 10  1  0  0  0  0
  6  7  2  0  0  0  0
  7 11  1  0  0  0  0
  8  4  1  0  0  0  0
  9  5  1  0  0  0  0
 11 15  1  0  0  0  0
 11 12  1  0  0  0  0
 12 17  1  0  0  0  0
 13 12  1  0  0  0  0
 13 18  1  0  0  0  0
 14 15  1  0  0  0  0
 14 21  1  0  0  0  0
 14 13  1  0  0  0  0
 15 22  1  6  0  0  0
 15 23  1  0  0  0  0
 16 12  1  0  0  0  0
 19 13  1  0  0  0  0
 20 14  1  0  0  0  0
 23 25  1  0  0  0  0
 23 26  1  0  0  0  0
 24 23  1  0  0  0  0
 27 33  1  0  0  0  0
 28 27  2  0  0  0  0
 29 30  2  0  0  0  0
 29 28  1  0  0  0  0
 30 31  1  0  0  0  0
 31 32  2  0  0  0  0
 32 27  1  0  0  0  0
 34 28  1  0  0  0  0
 35 43  1  0  0  0  0
 35 29  1  0  0  0  0
 36 35  2  0  0  0  0
 37 36  1  0  0  0  0
 38 39  2  0  0  0  0
 38 36  1  0  0  0  0
 39 41  1  0  0  0  0
 40 39  1  0  0  0  0
 41 42  1  0  0  0  0
 41 43  2  0  0  0  0
M  END
>  <minimizedAffinity>
-5.9553113

$$$$
