
 OpenBabel03252505593D

 36 38  0  0  0  0  0  0  0  0999 V2000
   36.3720   29.4190   39.2620 C   0  0  0  0  0  0  0  0  0  0  0  0
   37.2610   30.4830   39.1560 C   0  0  0  0  0  0  0  0  0  0  0  0
   37.9400   30.8430   40.3210 C   0  0  0  0  0  0  0  0  0  0  0  0
   37.7270   30.1840   41.4660 N   0  0  0  0  0  0  0  0  0  0  0  0
   36.8470   29.1520   41.5100 C   0  0  0  0  0  0  0  0  0  0  0  0
   36.1820   28.7790   40.4210 N   0  0  0  0  0  0  0  0  0  0  0  0
   35.8190   29.0970   38.3880 H   0  0  0  0  0  0  0  0  0  0  0  0
   38.9050   31.9220   40.3870 C   0  0  0  0  0  0  0  0  0  0  0  0
   40.2280   31.4860   40.2530 C   0  0  0  0  0  0  0  0  0  0  0  0
   40.5070   30.4270   40.1260 H   0  0  0  0  0  0  0  0  0  0  0  0
   41.3290   32.3330   40.2660 C   0  0  0  0  0  3  0  0  0  0  0  0
   41.1280   33.6770   40.4170 C   0  0  0  0  0  0  0  0  0  0  0  0
   41.8830   34.4470   40.4450 H   0  0  0  0  0  0  0  0  0  0  0  0
   39.8330   34.1250   40.5500 C   0  0  0  0  0  0  0  0  0  0  0  0
   39.6070   35.1930   40.6740 H   0  0  0  0  0  0  0  0  0  0  0  0
   38.7390   33.2870   40.5380 C   0  0  0  0  0  3  0  0  0  0  0  0
   37.4390   31.1810   37.8510 C   0  0  0  0  0  0  0  0  0  0  0  0
   36.5520   30.5280   37.0000 F   0  0  0  0  0  0  0  0  0  0  0  0
   38.7310   30.9150   37.4410 F   0  0  0  0  0  0  0  0  0  0  0  0
   37.1450   32.4910   37.9750 F   0  0  0  0  0  0  0  0  0  0  0  0
   36.5950   28.4400   42.6710 O   0  0  0  0  0  0  0  0  0  0  0  0
   37.6070   28.2490   43.6390 C   0  0  0  0  0  0  0  0  0  0  0  0
   37.1150   28.0880   44.6410 H   0  0  0  0  0  0  0  0  0  0  0  0
   38.2950   29.1140   43.7170 H   0  0  0  0  0  0  0  0  0  0  0  0
   38.3240   27.0190   43.2970 C   0  0  0  0  0  0  0  0  0  0  0  0
   39.5910   26.5840   43.6740 C   0  0  0  0  0  0  0  0  0  0  0  0
   40.0200   25.3770   43.2000 C   0  0  0  0  0  0  0  0  0  0  0  0
   39.2800   24.6210   42.4080 N   0  0  0  0  0  0  0  0  0  0  0  0
   38.0560   25.0490   42.0480 C   0  0  0  0  0  0  0  0  0  0  0  0
   37.5670   26.2430   42.4840 N   0  0  0  0  0  0  0  0  0  0  0  0
   40.0890   27.2990   44.3240 H   0  0  0  0  0  0  0  0  0  0  0  0
   41.0210   25.0950   43.5330 H   0  0  0  0  0  0  0  0  0  0  0  0
   37.2990   24.1330   41.1560 C   0  0  0  0  0  0  0  0  0  0  0  0
   35.9990   23.9940   41.5690 F   0  0  0  0  0  0  0  0  0  0  0  0
   37.9080   22.8590   41.1500 F   0  0  0  0  0  0  0  0  0  0  0  0
   37.2890   24.5830   39.8520 F   0  0  0  0  0  0  0  0  0  0  0  0
  1  6  1  0  0  0  0
  2  1  2  0  0  0  0
  2  3  1  0  0  0  0
  3  8  1  0  0  0  0
  3  4  2  0  0  0  0
  4  5  1  0  0  0  0
  5 21  1  0  0  0  0
  6  5  2  0  0  0  0
  7  1  1  0  0  0  0
  8 16  1  0  0  0  0
  9 11  1  0  0  0  0
  9  8  2  0  0  0  0
 10  9  1  0  0  0  0
 11 12  2  0  0  0  0
 12 13  1  0  0  0  0
 12 14  1  0  0  0  0
 14 15  1  0  0  0  0
 16 14  2  0  0  0  0
 17 20  1  0  0  0  0
 17  2  1  0  0  0  0
 18 17  1  0  0  0  0
 19 17  1  0  0  0  0
 21 22  1  0  0  0  0
 22 24  1  0  0  0  0
 22 23  1  0  0  0  0
 25 22  1  0  0  0  0
 25 26  1  0  0  0  0
 26 31  1  0  0  0  0
 27 32  1  0  0  0  0
 27 26  2  0  0  0  0
 28 27  1  0  0  0  0
 29 28  2  0  0  0  0
 29 30  1  0  0  0  0
 30 25  2  0  0  0  0
 33 34  1  0  0  0  0
 33 29  1  0  0  0  0
 35 33  1  0  0  0  0
 36 33  1  0  0  0  0
M  END
>  <minimizedAffinity>
-6.029037

$$$$

 OpenBabel03252505593D

 36 38  0  0  0  0  0  0  0  0999 V2000
   39.8070   32.0640   40.6330 C   0  0  0  0  0  0  0  0  0  0  0  0
   38.5910   31.7460   40.0380 C   0  0  0  0  0  0  0  0  0  0  0  0
   38.2680   30.3910   39.9720 C   0  0  0  0  0  0  0  0  0  0  0  0
   39.1010   29.4660   40.4620 N   0  0  0  0  0  0  0  0  0  0  0  0
   40.2760   29.8350   41.0330 C   0  0  0  0  0  0  0  0  0  0  0  0
   40.6180   31.1170   41.1160 N   0  0  0  0  0  0  0  0  0  0  0  0
   40.1070   33.1020   40.7120 H   0  0  0  0  0  0  0  0  0  0  0  0
   37.0410   29.8850   39.3910 C   0  0  0  0  0  0  0  0  0  0  0  0
   36.0390   29.6510   40.3400 C   0  0  0  0  0  0  0  0  0  0  0  0
   36.1760   29.8190   41.4200 H   0  0  0  0  0  0  0  0  0  0  0  0
   34.7680   29.1820   40.0270 C   0  0  0  0  0  3  0  0  0  0  0  0
   34.4590   28.9300   38.7200 C   0  0  0  0  0  0  0  0  0  0  0  0
   33.5200   28.5660   38.3330 H   0  0  0  0  0  0  0  0  0  0  0  0
   35.4320   29.1540   37.7720 C   0  0  0  0  0  0  0  0  0  0  0  0
   35.2450   28.9710   36.7050 H   0  0  0  0  0  0  0  0  0  0  0  0
   36.6920   29.6190   38.0790 C   0  0  0  0  0  3  0  0  0  0  0  0
   37.7170   32.8280   39.5000 C   0  0  0  0  0  0  0  0  0  0  0  0
   38.4440   33.9910   39.7340 F   0  0  0  0  0  0  0  0  0  0  0  0
   36.5850   32.8410   40.2910 F   0  0  0  0  0  0  0  0  0  0  0  0
   37.4840   32.6340   38.1870 F   0  0  0  0  0  0  0  0  0  0  0  0
   41.1690   28.9140   41.5550 O   0  0  0  0  0  0  0  0  0  0  0  0
   41.0580   28.4730   42.8930 C   0  0  0  0  0  0  0  0  0  0  0  0
   40.3120   29.1310   43.4230 H   0  0  0  0  0  0  0  0  0  0  0  0
   42.0200   28.5140   43.4400 H   0  0  0  0  0  0  0  0  0  0  0  0
   40.5100   27.1150   42.8690 C   0  0  0  0  0  0  0  0  0  0  0  0
   41.1470   25.8870   43.0240 C   0  0  0  0  0  0  0  0  0  0  0  0
   40.3830   24.7570   42.9550 C   0  0  0  0  0  0  0  0  0  0  0  0
   39.0780   24.7930   42.7490 N   0  0  0  0  0  0  0  0  0  0  0  0
   38.4700   25.9850   42.6010 C   0  0  0  0  0  0  0  0  0  0  0  0
   39.1720   27.1500   42.6590 N   0  0  0  0  0  0  0  0  0  0  0  0
   42.2160   26.0020   43.1860 H   0  0  0  0  0  0  0  0  0  0  0  0
   40.9440   23.8290   43.0840 H   0  0  0  0  0  0  0  0  0  0  0  0
   37.0020   25.9260   42.3750 C   0  0  0  0  0  0  0  0  0  0  0  0
   36.3240   26.6970   43.2830 F   0  0  0  0  0  0  0  0  0  0  0  0
   36.5530   24.5920   42.4930 F   0  0  0  0  0  0  0  0  0  0  0  0
   36.6630   26.3570   41.1100 F   0  0  0  0  0  0  0  0  0  0  0  0
  1  7  1  0  0  0  0
  1  6  1  0  0  0  0
  2  1  2  0  0  0  0
  3  2  1  0  0  0  0
  3  4  2  0  0  0  0
  4  5  1  0  0  0  0
  5  6  2  0  0  0  0
  5 21  1  0  0  0  0
  8  3  1  0  0  0  0
  8  9  1  0  0  0  0
  9 10  1  0  0  0  0
 11  9  2  0  0  0  0
 12 11  1  0  0  0  0
 13 12  1  0  0  0  0
 14 16  1  0  0  0  0
 14 12  2  0  0  0  0
 15 14  1  0  0  0  0
 16  8  2  0  0  0  0
 17 18  1  0  0  0  0
 17  2  1  0  0  0  0
 17 19  1  0  0  0  0
 20 17  1  0  0  0  0
 21 22  1  0  0  0  0
 22 23  1  0  0  0  0
 22 24  1  0  0  0  0
 25 22  1  0  0  0  0
 25 26  1  0  0  0  0
 26 31  1  0  0  0  0
 27 26  2  0  0  0  0
 27 32  1  0  0  0  0
 28 27  1  0  0  0  0
 29 30  1  0  0  0  0
 29 28  2  0  0  0  0
 30 25  2  0  0  0  0
 33 35  1  0  0  0  0
 33 29  1  0  0  0  0
 33 34  1  0  0  0  0
 36 33  1  0  0  0  0
M  END
>  <minimizedAffinity>
-5.99341536

$$$$

 OpenBabel03252505593D

 36 38  0  0  0  0  0  0  0  0999 V2000
   39.5580   26.6860   43.0050 C   0  0  0  0  0  0  0  0  0  0  0  0
   38.4350   26.7380   42.1850 C   0  0  0  0  0  0  0  0  0  0  0  0
   38.2950   27.8790   41.3950 C   0  0  0  0  0  0  0  0  0  0  0  0
   39.2060   28.8580   41.4430 N   0  0  0  0  0  0  0  0  0  0  0  0
   40.2830   28.7530   42.2630 C   0  0  0  0  0  0  0  0  0  0  0  0
   40.4520   27.6800   43.0300 N   0  0  0  0  0  0  0  0  0  0  0  0
   39.7160   25.8220   43.6380 H   0  0  0  0  0  0  0  0  0  0  0  0
   37.1920   28.0930   40.4810 C   0  0  0  0  0  0  0  0  0  0  0  0
   36.1400   28.8220   41.0490 C   0  0  0  0  0  0  0  0  0  0  0  0
   36.1450   29.1810   42.0900 H   0  0  0  0  0  0  0  0  0  0  0  0
   34.9810   29.1700   40.3660 C   0  0  0  0  0  3  0  0  0  0  0  0
   34.8400   28.7870   39.0610 C   0  0  0  0  0  0  0  0  0  0  0  0
   34.0010   28.9850   38.4130 H   0  0  0  0  0  0  0  0  0  0  0  0
   35.8640   28.0690   38.4850 C   0  0  0  0  0  0  0  0  0  0  0  0
   35.8120   27.7330   37.4410 H   0  0  0  0  0  0  0  0  0  0  0  0
   37.0160   27.7230   39.1600 C   0  0  0  0  0  3  0  0  0  0  0  0
   37.4530   25.6160   42.1920 C   0  0  0  0  0  0  0  0  0  0  0  0
   36.3950   26.1040   42.9540 F   0  0  0  0  0  0  0  0  0  0  0  0
   38.0550   24.5770   42.8750 F   0  0  0  0  0  0  0  0  0  0  0  0
   37.0710   25.3180   40.9340 F   0  0  0  0  0  0  0  0  0  0  0  0
   41.2520   29.7390   42.3460 O   0  0  0  0  0  0  0  0  0  0  0  0
   40.9040   31.0740   42.6540 C   0  0  0  0  0  0  0  0  0  0  0  0
   41.7940   31.5720   43.1340 H   0  0  0  0  0  0  0  0  0  0  0  0
   40.0430   31.1440   43.3480 H   0  0  0  0  0  0  0  0  0  0  0  0
   40.6370   31.7680   41.3930 C   0  0  0  0  0  0  0  0  0  0  0  0
   41.5190   32.2930   40.4530 C   0  0  0  0  0  0  0  0  0  0  0  0
   40.9900   32.9000   39.3490 C   0  0  0  0  0  0  0  0  0  0  0  0
   39.6880   33.0010   39.1490 N   0  0  0  0  0  0  0  0  0  0  0  0
   38.8420   32.4900   40.0620 C   0  0  0  0  0  0  0  0  0  0  0  0
   39.3020   31.8720   41.1850 N   0  0  0  0  0  0  0  0  0  0  0  0
   42.5570   32.1420   40.7410 H   0  0  0  0  0  0  0  0  0  0  0  0
   41.7360   33.2900   38.6530 H   0  0  0  0  0  0  0  0  0  0  0  0
   37.3970   32.6500   39.7510 C   0  0  0  0  0  0  0  0  0  0  0  0
   37.0640   33.9690   39.5880 F   0  0  0  0  0  0  0  0  0  0  0  0
   36.6190   32.1160   40.8020 F   0  0  0  0  0  0  0  0  0  0  0  0
   37.0450   31.9730   38.6020 F   0  0  0  0  0  0  0  0  0  0  0  0
  1  6  1  0  0  0  0
  1  7  1  0  0  0  0
  2 17  1  0  0  0  0
  2  1  2  0  0  0  0
  3  4  2  0  0  0  0
  3  2  1  0  0  0  0
  4  5  1  0  0  0  0
  5 21  1  0  0  0  0
  5  6  2  0  0  0  0
  8  9  1  0  0  0  0
  8  3  1  0  0  0  0
  9 10  1  0  0  0  0
 11  9  2  0  0  0  0
 12 11  1  0  0  0  0
 13 12  1  0  0  0  0
 14 12  2  0  0  0  0
 14 16  1  0  0  0  0
 15 14  1  0  0  0  0
 16  8  2  0  0  0  0
 17 19  1  0  0  0  0
 17 18  1  0  0  0  0
 20 17  1  0  0  0  0
 21 22  1  0  0  0  0
 22 23  1  0  0  0  0
 22 24  1  0  0  0  0
 25 22  1  0  0  0  0
 26 31  1  0  0  0  0
 26 25  2  0  0  0  0
 27 26  1  0  0  0  0
 28 27  2  0  0  0  0
 28 29  1  0  0  0  0
 29 30  2  0  0  0  0
 30 25  1  0  0  0  0
 32 27  1  0  0  0  0
 33 29  1  0  0  0  0
 33 35  1  0  0  0  0
 34 33  1  0  0  0  0
 36 33  1  0  0  0  0
M  END
>  <minimizedAffinity>
-5.98879242

$$$$

 OpenBabel03252505593D

 36 38  0  0  0  0  0  0  0  0999 V2000
   36.7830   29.9330   41.5970 C   0  0  0  0  0  0  0  0  0  0  0  0
   37.4880   28.7470   41.7720 C   0  0  0  0  0  0  0  0  0  0  0  0
   37.1220   27.6800   40.9510 C   0  0  0  0  0  0  0  0  0  0  0  0
   36.1410   27.8180   40.0520 N   0  0  0  0  0  0  0  0  0  0  0  0
   35.4860   28.9990   39.9250 C   0  0  0  0  0  0  0  0  0  0  0  0
   35.8070   30.0390   40.6890 N   0  0  0  0  0  0  0  0  0  0  0  0
   37.0270   30.7930   42.2090 H   0  0  0  0  0  0  0  0  0  0  0  0
   37.7560   26.3780   40.9950 C   0  0  0  0  0  0  0  0  0  0  0  0
   37.0560   25.4520   41.7760 C   0  0  0  0  0  0  0  0  0  0  0  0
   36.1260   25.6930   42.3150 H   0  0  0  0  0  0  0  0  0  0  0  0
   37.4540   24.1320   41.9570 C   0  0  0  0  0  3  0  0  0  0  0  0
   38.5940   23.6950   41.3430 C   0  0  0  0  0  0  0  0  0  0  0  0
   39.0200   22.7050   41.3940 H   0  0  0  0  0  0  0  0  0  0  0  0
   39.2960   24.5920   40.5700 C   0  0  0  0  0  0  0  0  0  0  0  0
   40.2200   24.3010   40.0520 H   0  0  0  0  0  0  0  0  0  0  0  0
   38.9040   25.9000   40.3890 C   0  0  0  0  0  3  0  0  0  0  0  0
   38.5610   28.6610   42.8040 C   0  0  0  0  0  0  0  0  0  0  0  0
   38.5410   29.9130   43.4120 F   0  0  0  0  0  0  0  0  0  0  0  0
   39.7500   28.5180   42.1150 F   0  0  0  0  0  0  0  0  0  0  0  0
   38.2940   27.6710   43.6780 F   0  0  0  0  0  0  0  0  0  0  0  0
   34.4660   29.1890   39.0080 O   0  0  0  0  0  0  0  0  0  0  0  0
   34.5630   28.6700   37.6970 C   0  0  0  0  0  0  0  0  0  0  0  0
   34.6490   27.5480   37.7630 H   0  0  0  0  0  0  0  0  0  0  0  0
   35.4400   29.0610   37.1450 H   0  0  0  0  0  0  0  0  0  0  0  0
   33.3100   28.9770   37.0030 C   0  0  0  0  0  0  0  0  0  0  0  0
   32.9760   28.8540   35.6580 C   0  0  0  0  0  0  0  0  0  0  0  0
   31.7170   29.2200   35.2760 C   0  0  0  0  0  0  0  0  0  0  0  0
   30.8190   29.6780   36.1310 N   0  0  0  0  0  0  0  0  0  0  0  0
   31.1510   29.7930   37.4310 C   0  0  0  0  0  0  0  0  0  0  0  0
   32.3890   29.4470   37.8790 N   0  0  0  0  0  0  0  0  0  0  0  0
   33.8030   28.4670   35.0670 H   0  0  0  0  0  0  0  0  0  0  0  0
   31.5200   29.1000   34.2080 H   0  0  0  0  0  0  0  0  0  0  0  0
   30.0780   30.3160   38.3170 C   0  0  0  0  0  0  0  0  0  0  0  0
   30.1880   29.8120   39.5860 F   0  0  0  0  0  0  0  0  0  0  0  0
   28.8130   29.9610   37.7980 F   0  0  0  0  0  0  0  0  0  0  0  0
   30.1100   31.6930   38.3980 F   0  0  0  0  0  0  0  0  0  0  0  0
  1  2  1  0  0  0  0
  1  7  1  0  0  0  0
  2 17  1  0  0  0  0
  3  8  1  0  0  0  0
  3  2  2  0  0  0  0
  4  3  1  0  0  0  0
  5  4  2  0  0  0  0
  5  6  1  0  0  0  0
  6  1  2  0  0  0  0
  8  9  1  0  0  0  0
  9 11  2  0  0  0  0
  9 10  1  0  0  0  0
 12 13  1  0  0  0  0
 12 11  1  0  0  0  0
 14 12  2  0  0  0  0
 15 14  1  0  0  0  0
 16 14  1  0  0  0  0
 16  8  2  0  0  0  0
 17 18  1  0  0  0  0
 17 20  1  0  0  0  0
 19 17  1  0  0  0  0
 21  5  1  0  0  0  0
 22 23  1  0  0  0  0
 22 21  1  0  0  0  0
 24 22  1  0  0  0  0
 25 22  1  0  0  0  0
 25 30  1  0  0  0  0
 26 25  2  0  0  0  0
 27 26  1  0  0  0  0
 27 28  2  0  0  0  0
 28 29  1  0  0  0  0
 29 30  2  0  0  0  0
 29 33  1  0  0  0  0
 31 26  1  0  0  0  0
 32 27  1  0  0  0  0
 33 36  1  0  0  0  0
 33 34  1  0  0  0  0
 35 33  1  0  0  0  0
M  END
>  <minimizedAffinity>
-5.94148922

$$$$

 OpenBabel03252505593D

 36 38  0  0  0  0  0  0  0  0999 V2000
   36.6510   23.9910   39.1250 C   0  0  0  0  0  0  0  0  0  0  0  0
   37.2410   24.5920   40.2310 C   0  0  0  0  0  0  0  0  0  0  0  0
   37.1680   25.9840   40.2940 C   0  0  0  0  0  0  0  0  0  0  0  0
   36.5570   26.6790   39.3270 N   0  0  0  0  0  0  0  0  0  0  0  0
   35.9970   26.0390   38.2700 C   0  0  0  0  0  0  0  0  0  0  0  0
   36.0460   24.7130   38.1750 N   0  0  0  0  0  0  0  0  0  0  0  0
   36.6780   22.9130   39.0260 H   0  0  0  0  0  0  0  0  0  0  0  0
   37.7230   26.7700   41.3770 C   0  0  0  0  0  0  0  0  0  0  0  0
   36.7600   27.1910   42.3010 C   0  0  0  0  0  0  0  0  0  0  0  0
   35.6860   26.9610   42.2050 H   0  0  0  0  0  0  0  0  0  0  0  0
   37.0480   27.9410   43.4350 C   0  0  0  0  0  3  0  0  0  0  0  0
   38.3450   28.2980   43.6800 C   0  0  0  0  0  0  0  0  0  0  0  0
   38.7130   28.8750   44.5140 H   0  0  0  0  0  0  0  0  0  0  0  0
   39.3070   27.8930   42.7820 C   0  0  0  0  0  0  0  0  0  0  0  0
   40.3650   28.1490   42.9220 H   0  0  0  0  0  0  0  0  0  0  0  0
   39.0230   27.1490   41.6570 C   0  0  0  0  0  3  0  0  0  0  0  0
   37.9170   23.7570   41.2640 C   0  0  0  0  0  0  0  0  0  0  0  0
   39.2680   24.0530   41.1010 F   0  0  0  0  0  0  0  0  0  0  0  0
   37.7020   22.4410   40.9000 F   0  0  0  0  0  0  0  0  0  0  0  0
   37.4750   24.0810   42.4940 F   0  0  0  0  0  0  0  0  0  0  0  0
   35.3540   26.7150   37.2470 O   0  0  0  0  0  0  0  0  0  0  0  0
   34.6420   27.9090   37.5020 C   0  0  0  0  0  0  0  0  0  0  0  0
   34.1830   27.8370   38.5290 H   0  0  0  0  0  0  0  0  0  0  0  0
   33.8360   28.0940   36.7650 H   0  0  0  0  0  0  0  0  0  0  0  0
   35.6100   29.0070   37.5270 C   0  0  0  0  0  0  0  0  0  0  0  0
   36.3520   29.5750   36.4960 C   0  0  0  0  0  0  0  0  0  0  0  0
   37.1950   30.6040   36.8050 C   0  0  0  0  0  0  0  0  0  0  0  0
   37.3250   31.0710   38.0350 N   0  0  0  0  0  0  0  0  0  0  0  0
   36.6030   30.5170   39.0270 C   0  0  0  0  0  0  0  0  0  0  0  0
   35.7440   29.4880   38.7880 N   0  0  0  0  0  0  0  0  0  0  0  0
   36.1500   29.0970   35.5400 H   0  0  0  0  0  0  0  0  0  0  0  0
   37.7470   31.0030   35.9520 H   0  0  0  0  0  0  0  0  0  0  0  0
   36.8150   31.1080   40.3740 C   0  0  0  0  0  0  0  0  0  0  0  0
   36.9080   32.4750   40.3110 F   0  0  0  0  0  0  0  0  0  0  0  0
   38.0060   30.6010   40.9370 F   0  0  0  0  0  0  0  0  0  0  0  0
   35.7900   30.7880   41.2390 F   0  0  0  0  0  0  0  0  0  0  0  0
  1  2  1  0  0  0  0
  2  3  2  0  0  0  0
  2 17  1  0  0  0  0
  3  8  1  0  0  0  0
  4  3  1  0  0  0  0
  5  4  2  0  0  0  0
  6  5  1  0  0  0  0
  6  1  2  0  0  0  0
  7  1  1  0  0  0  0
  8 16  2  0  0  0  0
  8  9  1  0  0  0  0
  9 11  2  0  0  0  0
 10  9  1  0  0  0  0
 11 12  1  0  0  0  0
 12 13  1  0  0  0  0
 14 15  1  0  0  0  0
 14 12  2  0  0  0  0
 16 14  1  0  0  0  0
 17 20  1  0  0  0  0
 18 17  1  0  0  0  0
 19 17  1  0  0  0  0
 21 22  1  0  0  0  0
 21  5  1  0  0  0  0
 22 25  1  0  0  0  0
 22 23  1  0  0  0  0
 24 22  1  0  0  0  0
 25 30  1  0  0  0  0
 26 27  1  0  0  0  0
 26 25  2  0  0  0  0
 27 28  2  0  0  0  0
 28 29  1  0  0  0  0
 29 33  1  0  0  0  0
 30 29  2  0  0  0  0
 31 26  1  0  0  0  0
 32 27  1  0  0  0  0
 33 35  1  0  0  0  0
 33 36  1  0  0  0  0
 34 33  1  0  0  0  0
M  END
>  <minimizedAffinity>
-5.84657049

$$$$

 OpenBabel03252505593D

 36 38  0  0  0  0  0  0  0  0999 V2000
   38.9280   30.8460   40.0900 C   0  0  0  0  0  0  0  0  0  0  0  0
   38.0200   30.3200   39.1770 C   0  0  0  0  0  0  0  0  0  0  0  0
   37.0820   29.4190   39.6820 C   0  0  0  0  0  0  0  0  0  0  0  0
   37.0790   29.0950   40.9800 N   0  0  0  0  0  0  0  0  0  0  0  0
   37.9900   29.6400   41.8260 C   0  0  0  0  0  0  0  0  0  0  0  0
   38.8990   30.5030   41.3820 N   0  0  0  0  0  0  0  0  0  0  0  0
   39.6770   31.5510   39.7500 H   0  0  0  0  0  0  0  0  0  0  0  0
   36.0620   28.7830   38.8740 C   0  0  0  0  0  0  0  0  0  0  0  0
   36.3540   27.4490   38.5680 C   0  0  0  0  0  0  0  0  0  0  0  0
   37.2750   26.9400   38.8950 H   0  0  0  0  0  0  0  0  0  0  0  0
   35.5210   26.6240   37.8210 C   0  0  0  0  0  3  0  0  0  0  0  0
   34.3410   27.1280   37.3490 C   0  0  0  0  0  0  0  0  0  0  0  0
   33.6020   26.6060   36.7610 H   0  0  0  0  0  0  0  0  0  0  0  0
   34.0360   28.4380   37.6410 C   0  0  0  0  0  0  0  0  0  0  0  0
   33.1030   28.9000   37.2910 H   0  0  0  0  0  0  0  0  0  0  0  0
   34.8600   29.2580   38.3810 C   0  0  0  0  0  3  0  0  0  0  0  0
   38.0900   30.7160   37.7410 C   0  0  0  0  0  0  0  0  0  0  0  0
   39.2680   31.4520   37.6550 F   0  0  0  0  0  0  0  0  0  0  0  0
   37.0180   31.5590   37.5180 F   0  0  0  0  0  0  0  0  0  0  0  0
   38.1200   29.6230   36.9530 F   0  0  0  0  0  0  0  0  0  0  0  0
   38.0250   29.3350   43.1770 O   0  0  0  0  0  0  0  0  0  0  0  0
   37.3650   28.1910   43.6800 C   0  0  0  0  0  0  0  0  0  0  0  0
   36.3690   28.0980   43.1610 H   0  0  0  0  0  0  0  0  0  0  0  0
   37.1910   28.2420   44.7730 H   0  0  0  0  0  0  0  0  0  0  0  0
   38.1640   27.0200   43.3150 C   0  0  0  0  0  0  0  0  0  0  0  0
   39.4600   26.6680   43.6800 C   0  0  0  0  0  0  0  0  0  0  0  0
   39.9690   25.5010   43.1850 C   0  0  0  0  0  0  0  0  0  0  0  0
   39.2790   24.7070   42.3850 N   0  0  0  0  0  0  0  0  0  0  0  0
   38.0250   25.0550   42.0370 C   0  0  0  0  0  0  0  0  0  0  0  0
   37.4580   26.2050   42.4940 N   0  0  0  0  0  0  0  0  0  0  0  0
   39.9110   27.4060   44.3380 H   0  0  0  0  0  0  0  0  0  0  0  0
   40.9890   25.2840   43.5090 H   0  0  0  0  0  0  0  0  0  0  0  0
   37.3280   24.1010   41.1350 C   0  0  0  0  0  0  0  0  0  0  0  0
   35.9980   23.9960   41.4500 F   0  0  0  0  0  0  0  0  0  0  0  0
   37.9180   22.8220   41.2410 F   0  0  0  0  0  0  0  0  0  0  0  0
   37.4270   24.4840   39.8140 F   0  0  0  0  0  0  0  0  0  0  0  0
  1  6  1  0  0  0  0
  2  3  1  0  0  0  0
  2  1  2  0  0  0  0
  3  4  2  0  0  0  0
  4  5  1  0  0  0  0
  5 21  1  0  0  0  0
  6  5  2  0  0  0  0
  7  1  1  0  0  0  0
  8  3  1  0  0  0  0
  9  8  1  0  0  0  0
  9 10  1  0  0  0  0
 11  9  2  0  0  0  0
 12 14  2  0  0  0  0
 12 11  1  0  0  0  0
 13 12  1  0  0  0  0
 14 16  1  0  0  0  0
 15 14  1  0  0  0  0
 16  8  2  0  0  0  0
 17  2  1  0  0  0  0
 18 17  1  0  0  0  0
 19 17  1  0  0  0  0
 20 17  1  0  0  0  0
 21 22  1  0  0  0  0
 22 24  1  0  0  0  0
 23 22  1  0  0  0  0
 25 26  1  0  0  0  0
 25 22  1  0  0  0  0
 26 31  1  0  0  0  0
 27 32  1  0  0  0  0
 27 26  2  0  0  0  0
 28 27  1  0  0  0  0
 29 28  2  0  0  0  0
 29 30  1  0  0  0  0
 30 25  2  0  0  0  0
 33 35  1  0  0  0  0
 33 34  1  0  0  0  0
 33 29  1  0  0  0  0
 36 33  1  0  0  0  0
M  END
>  <minimizedAffinity>
-5.82770586

$$$$

 OpenBabel03252505593D

 36 38  0  0  0  0  0  0  0  0999 V2000
   36.5100   31.4380   40.5950 C   0  0  0  0  0  0  0  0  0  0  0  0
   37.8660   31.7410   40.6700 C   0  0  0  0  0  0  0  0  0  0  0  0
   38.7000   30.7350   41.1580 C   0  0  0  0  0  0  0  0  0  0  0  0
   38.1970   29.5520   41.5290 N   0  0  0  0  0  0  0  0  0  0  0  0
   36.8650   29.3120   41.4350 C   0  0  0  0  0  0  0  0  0  0  0  0
   36.0380   30.2460   40.9720 N   0  0  0  0  0  0  0  0  0  0  0  0
   35.8180   32.1830   40.2220 H   0  0  0  0  0  0  0  0  0  0  0  0
   40.1350   30.8780   41.2960 C   0  0  0  0  0  0  0  0  0  0  0  0
   40.5430   31.0930   42.6180 C   0  0  0  0  0  0  0  0  0  0  0  0
   39.8410   31.1620   43.4640 H   0  0  0  0  0  0  0  0  0  0  0  0
   41.8690   31.2420   43.0060 C   0  0  0  0  0  3  0  0  0  0  0  0
   42.8480   31.1780   42.0550 C   0  0  0  0  0  0  0  0  0  0  0  0
   43.9120   31.2760   42.2100 H   0  0  0  0  0  0  0  0  0  0  0  0
   42.4670   30.9670   40.7490 C   0  0  0  0  0  0  0  0  0  0  0  0
   43.2060   30.9060   39.9390 H   0  0  0  0  0  0  0  0  0  0  0  0
   41.1530   30.8190   40.3610 C   0  0  0  0  0  3  0  0  0  0  0  0
   38.3550   33.0850   40.2520 C   0  0  0  0  0  0  0  0  0  0  0  0
   37.1940   33.7700   39.9040 F   0  0  0  0  0  0  0  0  0  0  0  0
   39.1140   32.8860   39.1140 F   0  0  0  0  0  0  0  0  0  0  0  0
   39.0090   33.6840   41.2670 F   0  0  0  0  0  0  0  0  0  0  0  0
   36.3000   28.1040   41.8050 O   0  0  0  0  0  0  0  0  0  0  0  0
   36.7610   27.4060   42.9440 C   0  0  0  0  0  0  0  0  0  0  0  0
   35.8680   27.0970   43.5580 H   0  0  0  0  0  0  0  0  0  0  0  0
   37.4340   28.0160   43.5790 H   0  0  0  0  0  0  0  0  0  0  0  0
   37.4220   26.1840   42.4800 C   0  0  0  0  0  0  0  0  0  0  0  0
   36.8810   24.9560   42.1090 C   0  0  0  0  0  0  0  0  0  0  0  0
   37.7410   23.9730   41.7110 C   0  0  0  0  0  0  0  0  0  0  0  0
   39.0500   24.1480   41.6680 N   0  0  0  0  0  0  0  0  0  0  0  0
   39.5650   25.3380   42.0290 C   0  0  0  0  0  0  0  0  0  0  0  0
   38.7650   26.3610   42.4350 N   0  0  0  0  0  0  0  0  0  0  0  0
   35.7970   24.9490   42.1910 H   0  0  0  0  0  0  0  0  0  0  0  0
   37.2530   23.0360   41.4340 H   0  0  0  0  0  0  0  0  0  0  0  0
   41.0460   25.4410   41.9470 C   0  0  0  0  0  0  0  0  0  0  0  0
   41.5210   24.9070   40.7780 F   0  0  0  0  0  0  0  0  0  0  0  0
   41.6340   24.7510   43.0300 F   0  0  0  0  0  0  0  0  0  0  0  0
   41.4710   26.7510   42.0240 F   0  0  0  0  0  0  0  0  0  0  0  0
  1  2  2  0  0  0  0
  1  6  1  0  0  0  0
  2  3  1  0  0  0  0
  3  8  1  0  0  0  0
  3  4  2  0  0  0  0
  5  4  1  0  0  0  0
  5 21  1  0  0  0  0
  6  5  2  0  0  0  0
  7  1  1  0  0  0  0
  8  9  1  0  0  0  0
  9 11  2  0  0  0  0
  9 10  1  0  0  0  0
 12 13  1  0  0  0  0
 12 11  1  0  0  0  0
 14 12  2  0  0  0  0
 15 14  1  0  0  0  0
 16 14  1  0  0  0  0
 16  8  2  0  0  0  0
 17  2  1  0  0  0  0
 17 20  1  0  0  0  0
 18 17  1  0  0  0  0
 19 17  1  0  0  0  0
 21 22  1  0  0  0  0
 22 23  1  0  0  0  0
 22 24  1  0  0  0  0
 25 22  1  0  0  0  0
 26 31  1  0  0  0  0
 26 25  2  0  0  0  0
 27 26  1  0  0  0  0
 28 27  2  0  0  0  0
 28 29  1  0  0  0  0
 29 30  2  0  0  0  0
 30 25  1  0  0  0  0
 32 27  1  0  0  0  0
 33 36  1  0  0  0  0
 33 29  1  0  0  0  0
 33 35  1  0  0  0  0
 34 33  1  0  0  0  0
M  END
>  <minimizedAffinity>
-5.82339621

$$$$

 OpenBabel03252505593D

 36 38  0  0  0  0  0  0  0  0999 V2000
   36.5690   31.5410   40.6800 C   0  0  0  0  0  0  0  0  0  0  0  0
   37.8980   31.9070   40.5000 C   0  0  0  0  0  0  0  0  0  0  0  0
   38.8570   31.0540   41.0460 C   0  0  0  0  0  0  0  0  0  0  0  0
   38.4900   29.9490   41.7050 N   0  0  0  0  0  0  0  0  0  0  0  0
   37.1770   29.6400   41.8500 C   0  0  0  0  0  0  0  0  0  0  0  0
   36.2340   30.4290   41.3420 N   0  0  0  0  0  0  0  0  0  0  0  0
   35.7840   32.1670   40.2750 H   0  0  0  0  0  0  0  0  0  0  0  0
   40.2850   31.2800   40.9460 C   0  0  0  0  0  0  0  0  0  0  0  0
   40.8910   30.5300   39.9320 C   0  0  0  0  0  0  0  0  0  0  0  0
   40.3400   29.8270   39.2870 H   0  0  0  0  0  0  0  0  0  0  0  0
   42.2460   30.5880   39.6280 C   0  0  0  0  0  3  0  0  0  0  0  0
   43.0510   31.4220   40.3530 C   0  0  0  0  0  0  0  0  0  0  0  0
   44.1130   31.5680   40.2290 H   0  0  0  0  0  0  0  0  0  0  0  0
   42.4730   32.1680   41.3540 C   0  0  0  0  0  0  0  0  0  0  0  0
   43.0660   32.8560   41.9710 H   0  0  0  0  0  0  0  0  0  0  0  0
   41.1300   32.1130   41.6570 C   0  0  0  0  0  3  0  0  0  0  0  0
   38.2350   33.1610   39.7660 C   0  0  0  0  0  0  0  0  0  0  0  0
   37.0090   33.5990   39.2740 F   0  0  0  0  0  0  0  0  0  0  0  0
   39.0360   32.7860   38.7050 F   0  0  0  0  0  0  0  0  0  0  0  0
   38.7920   34.0590   40.6030 F   0  0  0  0  0  0  0  0  0  0  0  0
   36.7500   28.5080   42.5220 O   0  0  0  0  0  0  0  0  0  0  0  0
   37.4220   28.0540   43.6800 C   0  0  0  0  0  0  0  0  0  0  0  0
   36.6530   27.6790   44.4140 H   0  0  0  0  0  0  0  0  0  0  0  0
   38.0200   28.8480   44.1680 H   0  0  0  0  0  0  0  0  0  0  0  0
   38.2550   26.9140   43.2920 C   0  0  0  0  0  0  0  0  0  0  0  0
   39.5490   26.5760   43.6760 C   0  0  0  0  0  0  0  0  0  0  0  0
   40.0960   25.4390   43.1520 C   0  0  0  0  0  0  0  0  0  0  0  0
   39.4430   24.6620   42.3050 N   0  0  0  0  0  0  0  0  0  0  0  0
   38.1920   24.9960   41.9390 C   0  0  0  0  0  0  0  0  0  0  0  0
   37.5880   26.1160   42.4230 N   0  0  0  0  0  0  0  0  0  0  0  0
   39.9680   27.2980   44.3740 H   0  0  0  0  0  0  0  0  0  0  0  0
   41.1120   25.2320   43.4940 H   0  0  0  0  0  0  0  0  0  0  0  0
   37.5380   24.0630   40.9840 C   0  0  0  0  0  0  0  0  0  0  0  0
   37.7370   24.4550   39.6860 F   0  0  0  0  0  0  0  0  0  0  0  0
   36.1490   24.0180   41.2340 F   0  0  0  0  0  0  0  0  0  0  0  0
   38.0150   22.7760   41.1220 F   0  0  0  0  0  0  0  0  0  0  0  0
  1  6  1  0  0  0  0
  2  1  2  0  0  0  0
  2  3  1  0  0  0  0
  3  4  2  0  0  0  0
  4  5  1  0  0  0  0
  5 21  1  0  0  0  0
  6  5  2  0  0  0  0
  7  1  1  0  0  0  0
  8  3  1  0  0  0  0
  8 16  1  0  0  0  0
  9  8  2  0  0  0  0
 10  9  1  0  0  0  0
 11  9  1  0  0  0  0
 11 12  2  0  0  0  0
 12 14  1  0  0  0  0
 13 12  1  0  0  0  0
 14 16  2  0  0  0  0
 14 15  1  0  0  0  0
 17  2  1  0  0  0  0
 17 20  1  0  0  0  0
 18 17  1  0  0  0  0
 19 17  1  0  0  0  0
 21 22  1  0  0  0  0
 22 24  1  0  0  0  0
 22 23  1  0  0  0  0
 25 26  1  0  0  0  0
 25 22  1  0  0  0  0
 26 31  1  0  0  0  0
 27 32  1  0  0  0  0
 27 26  2  0  0  0  0
 28 27  1  0  0  0  0
 29 28  2  0  0  0  0
 29 30  1  0  0  0  0
 30 25  2  0  0  0  0
 33 36  1  0  0  0  0
 33 35  1  0  0  0  0
 33 29  1  0  0  0  0
 34 33  1  0  0  0  0
M  END
>  <minimizedAffinity>
-5.80468082

$$$$

 OpenBabel03252505593D

 36 38  0  0  0  0  0  0  0  0999 V2000
   36.9140   30.6160   37.9930 C   0  0  0  0  0  0  0  0  0  0  0  0
   36.5550   29.6450   38.9220 C   0  0  0  0  0  0  0  0  0  0  0  0
   37.5000   29.3450   39.9030 C   0  0  0  0  0  0  0  0  0  0  0  0
   38.6810   29.9730   39.9270 N   0  0  0  0  0  0  0  0  0  0  0  0
   38.9780   30.9130   38.9940 C   0  0  0  0  0  0  0  0  0  0  0  0
   38.1020   31.2270   38.0430 N   0  0  0  0  0  0  0  0  0  0  0  0
   36.2180   30.8880   37.2090 H   0  0  0  0  0  0  0  0  0  0  0  0
   37.2880   28.3660   40.9500 C   0  0  0  0  0  0  0  0  0  0  0  0
   37.8150   27.1070   40.6410 C   0  0  0  0  0  0  0  0  0  0  0  0
   38.3250   26.8800   39.6900 H   0  0  0  0  0  0  0  0  0  0  0  0
   37.7540   26.0100   41.4920 C   0  0  0  0  0  3  0  0  0  0  0  0
   37.1470   26.1500   42.7090 C   0  0  0  0  0  0  0  0  0  0  0  0
   37.0270   25.3900   43.4650 H   0  0  0  0  0  0  0  0  0  0  0  0
   36.6230   27.3810   43.0310 C   0  0  0  0  0  0  0  0  0  0  0  0
   36.1230   27.5570   43.9930 H   0  0  0  0  0  0  0  0  0  0  0  0
   36.6820   28.4710   42.1890 C   0  0  0  0  0  3  0  0  0  0  0  0
   35.2260   28.9760   38.8270 C   0  0  0  0  0  0  0  0  0  0  0  0
   34.6470   29.5420   37.6950 F   0  0  0  0  0  0  0  0  0  0  0  0
   34.5120   29.3730   39.9410 F   0  0  0  0  0  0  0  0  0  0  0  0
   35.3790   27.6430   38.7010 F   0  0  0  0  0  0  0  0  0  0  0  0
   40.1860   31.5890   38.9790 O   0  0  0  0  0  0  0  0  0  0  0  0
   40.6240   32.2670   37.8190 C   0  0  0  0  0  0  0  0  0  0  0  0
   40.3780   33.3610   37.9320 H   0  0  0  0  0  0  0  0  0  0  0  0
   40.1430   31.8900   36.8940 H   0  0  0  0  0  0  0  0  0  0  0  0
   42.0820   32.1460   37.7550 C   0  0  0  0  0  0  0  0  0  0  0  0
   43.0650   32.7100   38.5620 C   0  0  0  0  0  0  0  0  0  0  0  0
   44.3700   32.4270   38.2720 C   0  0  0  0  0  0  0  0  0  0  0  0
   44.7210   31.6460   37.2660 N   0  0  0  0  0  0  0  0  0  0  0  0
   43.7630   31.1040   36.4910 C   0  0  0  0  0  0  0  0  0  0  0  0
   42.4440   31.3450   36.7240 N   0  0  0  0  0  0  0  0  0  0  0  0
   42.6400   33.3290   39.3490 H   0  0  0  0  0  0  0  0  0  0  0  0
   45.0900   32.9010   38.9420 H   0  0  0  0  0  0  0  0  0  0  0  0
   44.2530   30.2400   35.3850 C   0  0  0  0  0  0  0  0  0  0  0  0
   43.2400   29.9030   34.5270 F   0  0  0  0  0  0  0  0  0  0  0  0
   44.8080   29.0530   35.9150 F   0  0  0  0  0  0  0  0  0  0  0  0
   45.2460   30.8590   34.6550 F   0  0  0  0  0  0  0  0  0  0  0  0
  1  6  2  0  0  0  0
  1  2  1  0  0  0  0
  2  3  2  0  0  0  0
  3  4  1  0  0  0  0
  3  8  1  0  0  0  0
  5  4  2  0  0  0  0
  6  5  1  0  0  0  0
  7  1  1  0  0  0  0
  8 16  1  0  0  0  0
  9  8  2  0  0  0  0
  9 11  1  0  0  0  0
 10  9  1  0  0  0  0
 11 12  2  0  0  0  0
 12 14  1  0  0  0  0
 12 13  1  0  0  0  0
 14 15  1  0  0  0  0
 16 14  2  0  0  0  0
 17  2  1  0  0  0  0
 17 19  1  0  0  0  0
 18 17  1  0  0  0  0
 20 17  1  0  0  0  0
 21  5  1  0  0  0  0
 22 23  1  0  0  0  0
 22 21  1  0  0  0  0
 24 22  1  0  0  0  0
 25 22  1  0  0  0  0
 25 26  1  0  0  0  0
 26 31  1  0  0  0  0
 27 26  2  0  0  0  0
 27 32  1  0  0  0  0
 28 27  1  0  0  0  0
 29 30  1  0  0  0  0
 29 28  2  0  0  0  0
 30 25  2  0  0  0  0
 33 35  1  0  0  0  0
 33 29  1  0  0  0  0
 34 33  1  0  0  0  0
 36 33  1  0  0  0  0
M  END
>  <minimizedAffinity>
-5.76980305

$$$$
