
 OpenBabel03252507263D

 27 29  0  0  0  0  0  0  0  0999 V2000
   45.6630   33.9810   45.5440 C   0  0  0  0  0  0  0  0  0  0  0  0
   44.7110   34.9750   45.7750 C   0  0  0  0  0  0  0  0  0  0  0  0
   44.4540   35.8890   44.7270 C   0  0  0  0  0  0  0  0  0  0  0  0
   45.1440   35.7620   43.5390 N   0  0  0  0  0  0  0  0  0  0  0  0
   46.0520   34.7690   43.3950 C   0  0  0  0  0  0  0  0  0  0  0  0
   46.3240   33.8780   44.3700 N   0  0  0  0  0  0  0  0  0  0  0  0
   44.1910   35.0560   46.6950 H   0  0  0  0  0  0  0  0  0  0  0  0
   43.7310   36.6850   44.8330 H   0  0  0  0  0  0  0  0  0  0  0  0
   46.7640   34.6620   42.1250 C   0  0  0  0  0  0  0  0  0  0  0  0
   47.9580   35.3180   41.9340 C   0  0  0  0  0  0  0  0  0  0  0  0
   48.7230   35.3010   40.7920 C   0  0  0  0  0  0  0  0  0  0  0  0
   48.1740   34.5290   39.7750 C   0  0  0  0  0  0  0  0  0  0  0  0
   46.9560   33.8430   39.9300 C   0  0  0  0  0  0  0  0  0  0  0  0
   46.2750   33.9280   41.1130 N   0  0  0  0  0  0  0  0  0  0  0  0
   48.3330   35.9120   42.7830 H   0  0  0  0  0  0  0  0  0  0  0  0
   49.6480   35.8210   40.6760 H   0  0  0  0  0  0  0  0  0  0  0  0
   48.6760   34.4260   38.8140 H   0  0  0  0  0  0  0  0  0  0  0  0
   46.5690   33.2470   39.0970 H   0  0  0  0  0  0  0  0  0  0  0  0
   45.9910   32.9970   46.5670 C   0  0  0  0  0  0  0  0  0  0  0  0
   45.1840   32.8940   47.6790 C   0  0  0  0  0  0  0  0  0  0  0  0
   44.2990   33.5040   47.8580 H   0  0  0  0  0  0  0  0  0  0  0  0
   45.4510   31.9710   48.6860 C   0  0  0  0  0  0  0  0  0  0  0  0
   46.5370   31.1240   48.6060 C   0  0  0  0  0  0  0  0  0  0  0  0
   46.7990   30.3840   49.3560 H   0  0  0  0  0  0  0  0  0  0  0  0
   47.3600   31.2170   47.4910 C   0  0  0  0  0  0  0  0  0  0  0  0
   48.2130   30.5700   47.4030 H   0  0  0  0  0  0  0  0  0  0  0  0
   47.0580   32.1360   46.5310 C   0  0  0  0  0  0  0  0  0  0  0  0
  1  2  1  0  0  0  0
  1 19  1  0  0  0  0
  2  7  1  0  0  0  0
  3  8  1  0  0  0  0
  3  2  2  0  0  0  0
  4  3  1  0  0  0  0
  5  4  2  0  0  0  0
  5  6  1  0  0  0  0
  6  1  2  0  0  0  0
  9  5  1  0  0  0  0
 10  9  1  0  0  0  0
 10 15  1  0  0  0  0
 11 10  2  0  0  0  0
 12 13  2  0  0  0  0
 12 11  1  0  0  0  0
 13 14  1  0  0  0  0
 14  9  2  0  0  0  0
 16 11  1  0  0  0  0
 17 12  1  0  0  0  0
 18 13  1  0  0  0  0
 19 20  1  0  0  0  0
 20 21  1  0  0  0  0
 20 22  2  0  0  0  0
 23 22  1  0  0  0  0
 23 24  1  0  0  0  0
 25 23  2  0  0  0  0
 26 25  1  0  0  0  0
 27 19  2  0  0  0  0
 27 25  1  0  0  0  0
M  END
>  <minimizedAffinity>
-6.37289143

>  <minimizedRMSD>
0.36526686

$$$$
