
 OpenBabel03252508393D

 41 44  0  0  0  0  0  0  0  0999 V2000
   45.1490   33.9490   40.6980 C   0  0  0  0  0  0  0  0  0  0  0  0
   44.1010   33.6320   39.8730 C   0  0  0  0  0  0  0  0  0  0  0  0
   44.3990   33.1490   38.6370 C   0  0  0  0  0  0  0  0  0  0  0  0
   45.6840   32.9630   38.1760 C   0  0  0  0  0  0  0  0  0  0  0  0
   46.7130   33.2900   39.0260 C   0  0  0  0  0  0  0  0  0  0  0  0
   46.4630   33.7850   40.2880 C   0  0  0  0  0  0  0  0  0  0  0  0
   43.5690   32.8970   37.9820 H   0  0  0  0  0  0  0  0  0  0  0  0
   45.9050   32.5770   37.1900 H   0  0  0  0  0  0  0  0  0  0  0  0
   47.7360   33.1480   38.6710 H   0  0  0  0  0  0  0  0  0  0  0  0
   40.8250   35.2720   40.7820 C   0  0  0  0  0  0  0  0  0  0  0  0
   42.1160   35.0950   40.2660 C   0  0  0  0  0  0  0  0  0  0  0  0
   42.7640   33.8430   40.3990 C   0  0  0  0  0  0  0  0  0  0  0  0
   42.0580   32.8760   41.0390 N   0  0  0  0  0  0  0  0  0  0  0  0
   40.8270   33.0720   41.5230 C   0  0  0  0  0  0  0  0  0  0  0  0
   40.2120   34.2580   41.3980 N   0  0  0  0  0  0  0  0  0  0  0  0
   40.2140   36.5260   40.6330 N   0  0  0  0  0  0  0  0  0  0  0  0
   42.6660   35.8860   39.7540 H   0  0  0  0  0  0  0  0  0  0  0  0
   40.3990   32.2020   42.0070 H   0  0  0  0  0  0  0  0  0  0  0  0
   39.2970   36.4060   40.1780 H   0  0  0  0  0  0  0  0  0  0  0  0
   40.8230   37.3030   41.0180 H   0  0  0  0  0  0  0  0  0  0  0  0
   47.6240   34.1050   41.1090 C   0  0  0  0  0  0  0  0  0  0  0  0
   48.1400   35.3660   40.9480 C   0  0  0  0  0  0  0  0  0  0  0  0
   49.2450   35.8350   41.6530 C   0  0  0  0  0  0  0  0  0  0  0  0
   49.8420   34.9890   42.5540 C   0  0  0  0  0  0  0  0  0  0  0  0
   49.3430   33.7190   42.7320 C   0  0  0  0  0  0  0  0  0  0  0  0
   48.2440   33.2860   42.0150 C   0  0  0  0  0  0  0  0  0  0  0  0
   47.7330   36.1090   40.2570 H   0  0  0  0  0  0  0  0  0  0  0  0
   49.6470   36.8310   41.5220 H   0  0  0  0  0  0  0  0  0  0  0  0
   50.7030   35.2320   43.1600 H   0  0  0  0  0  0  0  0  0  0  0  0
   49.7590   33.0030   43.4170 H   0  0  0  0  0  0  0  0  0  0  0  0
   47.7080   31.9390   42.1980 C   0  0  0  0  0  0  0  0  0  0  0  0
   48.3760   31.0450   41.3510 C   0  0  0  0  0  0  0  0  0  0  0  0
   49.1880   31.2790   40.6440 H   0  0  0  0  0  0  0  0  0  0  0  0
   48.0540   29.6990   41.3250 C   0  0  0  0  0  3  0  0  0  0  0  0
   47.0470   29.2220   42.1560 C   0  0  0  0  0  0  0  0  0  0  0  0
   46.7770   28.1780   42.1560 H   0  0  0  0  0  0  0  0  0  0  0  0
   46.4230   30.1290   42.9640 C   0  0  0  0  0  0  0  0  0  0  0  0
   45.6250   29.8080   43.6360 H   0  0  0  0  0  0  0  0  0  0  0  0
   46.7160   31.4690   43.0150 C   0  0  0  0  0  3  0  0  0  0  0  0
   44.7470   34.9010   43.1000 N   0  0  0  0  0  0  0  0  0  0  0  0
   44.9270   34.4680   42.0210 C   0  0  0  0  0  0  0  0  0  0  0  0
  1 41  1  0  0  0  0
  2 12  1  0  0  0  0
  2  1  2  0  0  0  0
  3  2  1  0  0  0  0
  4  3  2  0  0  0  0
  4  5  1  0  0  0  0
  5  6  2  0  0  0  0
  6  1  1  0  0  0  0
  6 21  1  0  0  0  0
  7  3  1  0  0  0  0
  8  4  1  0  0  0  0
  9  5  1  0  0  0  0
 10 15  1  0  0  0  0
 11 12  1  0  0  0  0
 11 10  2  0  0  0  0
 12 13  2  0  0  0  0
 13 14  1  0  0  0  0
 14 18  1  0  0  0  0
 15 14  2  0  0  0  0
 16 10  1  0  0  0  0
 16 20  1  0  0  0  0
 17 11  1  0  0  0  0
 19 16  1  0  0  0  0
 21 26  1  0  0  0  0
 22 21  2  0  0  0  0
 22 23  1  0  0  0  0
 23 24  2  0  0  0  0
 24 25  1  0  0  0  0
 24 29  1  0  0  0  0
 25 30  1  0  0  0  0
 26 31  1  0  0  0  0
 26 25  2  0  0  0  0
 27 22  1  0  0  0  0
 28 23  1  0  0  0  0
 31 39  1  0  0  0  0
 32 31  2  0  0  0  0
 33 32  1  0  0  0  0
 34 32  1  0  0  0  0
 34 35  2  0  0  0  0
 35 36  1  0  0  0  0
 35 37  1  0  0  0  0
 37 39  2  0  0  0  0
 37 38  1  0  0  0  0
 41 40  3  0  0  0  0
M  END
>  <minimizedAffinity>
-5.9788022

>  <minimizedRMSD>
0.485983849

$$$$
