
 OpenBabel03252509113D

 31 34  0  0  0  0  0  0  0  0999 V2000
   47.3230   32.4270   44.4180 C   0  0  0  0  0  0  0  0  0  0  0  0
   48.1880   32.3570   43.3550 C   0  0  0  0  0  0  0  0  0  0  0  0
   48.8680   31.1940   43.0420 C   0  0  0  0  0  0  0  0  0  0  0  0
   48.6970   30.0440   43.8020 C   0  0  0  0  0  0  0  0  0  0  0  0
   49.1800   28.7720   43.7910 N   0  0  0  0  0  0  0  0  0  0  0  0
   48.6190   28.0920   44.8230 C   0  0  0  0  0  0  0  0  0  0  0  0
   47.7970   28.9470   45.4630 N   0  0  0  0  0  0  0  0  0  0  0  0
   47.8220   30.1540   44.8600 C   0  0  0  0  0  0  0  0  0  0  0  0
   47.1290   31.2870   45.2030 C   0  0  0  0  0  0  0  0  0  0  0  0
   46.8030   33.3590   44.6370 H   0  0  0  0  0  0  0  0  0  0  0  0
   49.8700   28.5150   43.0380 H   0  0  0  0  0  0  0  0  0  0  0  0
   48.8620   27.0500   45.0070 H   0  0  0  0  0  0  0  0  0  0  0  0
   46.4500   31.3390   46.0410 H   0  0  0  0  0  0  0  0  0  0  0  0
   49.4980   35.5550   42.0970 C   0  0  0  0  0  0  0  0  0  0  0  0
   48.8050   35.7210   40.8980 C   0  0  0  0  0  0  0  0  0  0  0  0
   47.8890   34.7270   40.5310 C   0  0  0  0  0  0  0  0  0  0  0  0
   47.7270   33.6530   41.3660 N   0  0  0  0  0  0  0  0  0  0  0  0
   48.4130   33.5230   42.5180 C   0  0  0  0  0  0  0  0  0  0  0  0
   49.3020   34.4690   42.8920 N   0  0  0  0  0  0  0  0  0  0  0  0
   50.2290   36.2960   42.4430 H   0  0  0  0  0  0  0  0  0  0  0  0
   48.9940   36.5990   40.3010 H   0  0  0  0  0  0  0  0  0  0  0  0
   47.3370   34.8280   39.6080 H   0  0  0  0  0  0  0  0  0  0  0  0
   49.7880   31.1270   41.9070 C   0  0  0  0  0  0  0  0  0  0  0  0
   49.3460   30.6260   40.6920 C   0  0  0  0  0  0  0  0  0  0  0  0
   48.3150   30.2910   40.6090 H   0  0  0  0  0  0  0  0  0  0  0  0
   50.1210   30.5230   39.5820 C   0  0  0  0  0  3  0  0  0  0  0  0
   51.4430   30.9560   39.7010 C   0  0  0  0  0  0  0  0  0  0  0  0
   52.1270   30.9120   38.8790 H   0  0  0  0  0  0  0  0  0  0  0  0
   51.9320   31.4680   40.9090 C   0  0  0  0  0  0  0  0  0  0  0  0
   52.9480   31.8110   41.0350 H   0  0  0  0  0  0  0  0  0  0  0  0
   51.1080   31.5530   42.0070 C   0  0  0  0  0  3  0  0  0  0  0  0
  1 10  1  0  0  0  0
  1  9  1  0  0  0  0
  2  1  2  0  0  0  0
  3  2  1  0  0  0  0
  3  4  2  0  0  0  0
  4  8  1  0  0  0  0
  5  4  1  0  0  0  0
  5  6  1  0  0  0  0
  6 12  1  0  0  0  0
  6  7  2  0  0  0  0
  8  9  2  0  0  0  0
  8  7  1  0  0  0  0
  9 13  1  0  0  0  0
 11  5  1  0  0  0  0
 14 20  1  0  0  0  0
 14 19  1  0  0  0  0
 15 14  2  0  0  0  0
 16 15  1  0  0  0  0
 16 17  2  0  0  0  0
 17 18  1  0  0  0  0
 18 19  2  0  0  0  0
 18  2  1  0  0  0  0
 21 15  1  0  0  0  0
 22 16  1  0  0  0  0
 23 31  1  0  0  0  0
 23  3  1  0  0  0  0
 24 23  2  0  0  0  0
 25 24  1  0  0  0  0
 26 27  2  0  0  0  0
 26 24  1  0  0  0  0
 27 29  1  0  0  0  0
 28 27  1  0  0  0  0
 29 30  1  0  0  0  0
 29 31  2  0  0  0  0
M  END
>  <minimizedAffinity>
-4.01064014

>  <minimizedRMSD>
5.78269434

$$$$
