
 OpenBabel03252500113D

 31 33  0  0  0  0  0  0  0  0999 V2000
   39.2300   27.4200   40.0950 Cl  0  0  0  0  0  0  0  0  0  0  0  0
   38.1920   27.4430   41.4840 C   0  0  0  0  0  0  0  0  0  0  0  0
   38.1590   28.5420   42.3120 C   0  0  0  0  0  0  0  0  0  0  0  0
   37.3390   28.5970   43.4360 C   0  0  0  0  0  0  0  0  0  0  0  0
   36.5590   27.4900   43.6790 C   0  0  0  0  0  0  0  0  0  0  0  0
   36.5900   26.3850   42.8480 C   0  0  0  0  0  0  0  0  0  0  0  0
   37.4000   26.3570   41.7570 C   0  0  0  0  0  0  0  0  0  0  0  0
   37.3550   29.4840   44.0490 H   0  0  0  0  0  0  0  0  0  0  0  0
   35.9100   27.5110   44.5530 H   0  0  0  0  0  0  0  0  0  0  0  0
   35.9290   25.5670   43.1400 H   0  0  0  0  0  0  0  0  0  0  0  0
   37.3680   25.1500   40.9380 C   0  0  0  0  0  0  0  0  0  0  0  0
   38.1930   24.0780   41.2590 C   0  0  0  0  0  0  0  0  0  0  0  0
   38.8510   24.1520   42.1120 H   0  0  0  0  0  0  0  0  0  0  0  0
   38.1570   22.9330   40.4740 C   0  0  0  0  0  3  0  0  0  0  0  0
   37.3060   22.8690   39.3900 C   0  0  0  0  0  0  0  0  0  0  0  0
   37.2650   21.9830   38.7680 H   0  0  0  0  0  0  0  0  0  0  0  0
   36.4670   23.9090   39.0330 C   0  0  0  0  0  0  0  0  0  0  0  0
   35.7920   23.8760   38.1830 H   0  0  0  0  0  0  0  0  0  0  0  0
   36.5340   25.0440   39.8470 C   0  0  0  0  0  3  0  0  0  0  0  0
   41.1130   30.7420   42.0820 C   0  0  0  0  0  0  0  0  0  0  0  0
   40.5990   31.8640   41.4150 C   0  0  0  0  0  0  0  0  0  0  0  0
   39.2470   31.8540   41.0510 C   0  0  0  0  0  0  0  0  0  0  0  0
   38.4930   30.7730   41.3540 N   0  0  0  0  0  0  0  0  0  0  0  0
   39.0120   29.6900   42.0040 C   0  0  0  0  0  0  0  0  0  0  0  0
   40.3220   29.6910   42.3610 N   0  0  0  0  0  0  0  0  0  0  0  0
   42.1530   30.7180   42.3760 H   0  0  0  0  0  0  0  0  0  0  0  0
   41.1950   32.7160   41.1760 H   0  0  0  0  0  0  0  0  0  0  0  0
   38.5970   32.9980   40.3370 C   0  0  0  0  0  0  0  0  0  0  0  0
   37.2380   32.8030   40.2440 F   0  0  0  0  0  0  0  0  0  0  0  0
   38.8230   34.1610   41.0750 F   0  0  0  0  0  0  0  0  0  0  0  0
   39.1890   33.0990   39.1080 F   0  0  0  0  0  0  0  0  0  0  0  0
  1  2  1  0  0  0  0
  2  7  2  0  0  0  0
  2  3  1  0  0  0  0
  3  4  2  0  0  0  0
  4  5  1  0  0  0  0
  4  8  1  0  0  0  0
  5  9  1  0  0  0  0
  6 10  1  0  0  0  0
  6  5  2  0  0  0  0
  7  6  1  0  0  0  0
 11 12  1  0  0  0  0
 11  7  1  0  0  0  0
 12 13  1  0  0  0  0
 14 12  2  0  0  0  0
 15 14  1  0  0  0  0
 16 15  1  0  0  0  0
 17 15  2  0  0  0  0
 17 19  1  0  0  0  0
 18 17  1  0  0  0  0
 19 11  2  0  0  0  0
 20 25  1  0  0  0  0
 20 26  1  0  0  0  0
 21 20  2  0  0  0  0
 22 23  2  0  0  0  0
 22 21  1  0  0  0  0
 23 24  1  0  0  0  0
 24  3  1  0  0  0  0
 24 25  2  0  0  0  0
 27 21  1  0  0  0  0
 28 22  1  0  0  0  0
 28 30  1  0  0  0  0
 29 28  1  0  0  0  0
 31 28  1  0  0  0  0
M  END
>  <minimizedAffinity>
-5.86028957

$$$$

 OpenBabel03252500113D

 31 33  0  0  0  0  0  0  0  0999 V2000
   39.6600   28.1450   40.5110 Cl  0  0  0  0  0  0  0  0  0  0  0  0
   38.1630   29.0110   40.6470 C   0  0  0  0  0  0  0  0  0  0  0  0
   38.1470   30.3860   40.5910 C   0  0  0  0  0  0  0  0  0  0  0  0
   36.9650   31.1160   40.6950 C   0  0  0  0  0  0  0  0  0  0  0  0
   35.8090   30.3890   40.8600 C   0  0  0  0  0  0  0  0  0  0  0  0
   35.8240   29.0080   40.9160 C   0  0  0  0  0  0  0  0  0  0  0  0
   36.9920   28.3190   40.8110 C   0  0  0  0  0  0  0  0  0  0  0  0
   37.0120   32.1930   40.6450 H   0  0  0  0  0  0  0  0  0  0  0  0
   34.8730   30.9390   40.9440 H   0  0  0  0  0  0  0  0  0  0  0  0
   34.8480   28.5380   41.0490 H   0  0  0  0  0  0  0  0  0  0  0  0
   36.9120   26.8640   40.8820 C   0  0  0  0  0  0  0  0  0  0  0  0
   36.6670   26.1310   39.7260 C   0  0  0  0  0  0  0  0  0  0  0  0
   36.5370   26.6480   38.7870 H   0  0  0  0  0  0  0  0  0  0  0  0
   36.5910   24.7460   39.8020 C   0  0  0  0  0  3  0  0  0  0  0  0
   36.7610   24.1130   41.0160 C   0  0  0  0  0  0  0  0  0  0  0  0
   36.7060   23.0340   41.0920 H   0  0  0  0  0  0  0  0  0  0  0  0
   37.0080   24.8010   42.1910 C   0  0  0  0  0  0  0  0  0  0  0  0
   37.1430   24.3190   43.1550 H   0  0  0  0  0  0  0  0  0  0  0  0
   37.0750   26.1920   42.0730 C   0  0  0  0  0  3  0  0  0  0  0  0
   41.3590   32.0440   41.3330 C   0  0  0  0  0  0  0  0  0  0  0  0
   41.7780   32.4650   40.0630 C   0  0  0  0  0  0  0  0  0  0  0  0
   40.9570   32.1770   38.9670 C   0  0  0  0  0  0  0  0  0  0  0  0
   39.7990   31.5090   39.1710 N   0  0  0  0  0  0  0  0  0  0  0  0
   39.4070   31.1060   40.4160 C   0  0  0  0  0  0  0  0  0  0  0  0
   40.1980   31.3820   41.4850 N   0  0  0  0  0  0  0  0  0  0  0  0
   41.9710   32.2520   42.2000 H   0  0  0  0  0  0  0  0  0  0  0  0
   42.6930   32.9930   39.9020 H   0  0  0  0  0  0  0  0  0  0  0  0
   41.3090   32.5800   37.5680 C   0  0  0  0  0  0  0  0  0  0  0  0
   42.3700   31.8380   37.1010 F   0  0  0  0  0  0  0  0  0  0  0  0
   40.2070   32.3310   36.7490 F   0  0  0  0  0  0  0  0  0  0  0  0
   41.5860   33.9200   37.5890 F   0  0  0  0  0  0  0  0  0  0  0  0
  1  2  1  0  0  0  0
  2  7  1  0  0  0  0
  3  2  2  0  0  0  0
  3  4  1  0  0  0  0
  4  5  2  0  0  0  0
  5  6  1  0  0  0  0
  5  9  1  0  0  0  0
  6 10  1  0  0  0  0
  7 11  1  0  0  0  0
  7  6  2  0  0  0  0
  8  4  1  0  0  0  0
 11 19  1  0  0  0  0
 12 14  1  0  0  0  0
 12 11  2  0  0  0  0
 13 12  1  0  0  0  0
 14 15  2  0  0  0  0
 15 16  1  0  0  0  0
 15 17  1  0  0  0  0
 17 18  1  0  0  0  0
 19 17  2  0  0  0  0
 20 25  1  0  0  0  0
 20 26  1  0  0  0  0
 21 20  2  0  0  0  0
 22 23  2  0  0  0  0
 22 21  1  0  0  0  0
 23 24  1  0  0  0  0
 24  3  1  0  0  0  0
 24 25  2  0  0  0  0
 27 21  1  0  0  0  0
 28 31  1  0  0  0  0
 28 22  1  0  0  0  0
 29 28  1  0  0  0  0
 30 28  1  0  0  0  0
M  END
>  <minimizedAffinity>
-5.68797731

$$$$

 OpenBabel03252500113D

 31 33  0  0  0  0  0  0  0  0999 V2000
   40.4850   30.0890   39.5340 Cl  0  0  0  0  0  0  0  0  0  0  0  0
   39.2760   31.3220   39.6930 C   0  0  0  0  0  0  0  0  0  0  0  0
   37.9720   30.9860   39.9770 C   0  0  0  0  0  0  0  0  0  0  0  0
   36.9730   31.9480   40.1130 C   0  0  0  0  0  0  0  0  0  0  0  0
   37.3590   33.2580   39.9460 C   0  0  0  0  0  0  0  0  0  0  0  0
   38.6690   33.5970   39.6610 C   0  0  0  0  0  0  0  0  0  0  0  0
   39.6250   32.6380   39.5340 C   0  0  0  0  0  0  0  0  0  0  0  0
   35.9680   31.6270   40.3360 H   0  0  0  0  0  0  0  0  0  0  0  0
   36.5950   34.0270   40.0480 H   0  0  0  0  0  0  0  0  0  0  0  0
   38.8580   34.6660   39.5500 H   0  0  0  0  0  0  0  0  0  0  0  0
   40.9790   33.0880   39.2320 C   0  0  0  0  0  0  0  0  0  0  0  0
   41.3760   33.2360   37.9080 C   0  0  0  0  0  0  0  0  0  0  0  0
   40.6750   33.0150   37.1160 H   0  0  0  0  0  0  0  0  0  0  0  0
   42.6680   33.6650   37.6290 C   0  0  0  0  0  3  0  0  0  0  0  0
   43.5390   33.9390   38.6620 C   0  0  0  0  0  0  0  0  0  0  0  0
   44.5490   34.2750   38.4610 H   0  0  0  0  0  0  0  0  0  0  0  0
   43.1890   33.8070   39.9940 C   0  0  0  0  0  0  0  0  0  0  0  0
   43.8620   34.0180   40.8190 H   0  0  0  0  0  0  0  0  0  0  0  0
   41.8810   33.3730   40.2330 C   0  0  0  0  0  3  0  0  0  0  0  0
   37.0130   27.5070   39.2050 C   0  0  0  0  0  0  0  0  0  0  0  0
   36.9580   26.9230   40.4780 C   0  0  0  0  0  0  0  0  0  0  0  0
   37.2510   27.7250   41.5870 C   0  0  0  0  0  0  0  0  0  0  0  0
   37.5720   29.0250   41.3910 N   0  0  0  0  0  0  0  0  0  0  0  0
   37.6200   29.5760   40.1430 C   0  0  0  0  0  0  0  0  0  0  0  0
   37.3370   28.8050   39.0620 N   0  0  0  0  0  0  0  0  0  0  0  0
   36.7920   26.9140   38.3280 H   0  0  0  0  0  0  0  0  0  0  0  0
   36.7050   25.8970   40.6320 H   0  0  0  0  0  0  0  0  0  0  0  0
   37.2220   27.2030   42.9900 C   0  0  0  0  0  0  0  0  0  0  0  0
   35.9900   27.4180   43.5630 F   0  0  0  0  0  0  0  0  0  0  0  0
   37.4520   25.8260   42.9500 F   0  0  0  0  0  0  0  0  0  0  0  0
   38.2270   27.8270   43.6770 F   0  0  0  0  0  0  0  0  0  0  0  0
  1  2  1  0  0  0  0
  2  3  1  0  0  0  0
  3  4  2  0  0  0  0
  3 24  1  0  0  0  0
  4  8  1  0  0  0  0
  5  9  1  0  0  0  0
  5  4  1  0  0  0  0
  6  5  2  0  0  0  0
  7  6  1  0  0  0  0
  7  2  2  0  0  0  0
 10  6  1  0  0  0  0
 11  7  1  0  0  0  0
 11 19  1  0  0  0  0
 12 11  2  0  0  0  0
 13 12  1  0  0  0  0
 14 12  1  0  0  0  0
 14 15  2  0  0  0  0
 15 17  1  0  0  0  0
 16 15  1  0  0  0  0
 17 19  2  0  0  0  0
 17 18  1  0  0  0  0
 20 21  1  0  0  0  0
 21 27  1  0  0  0  0
 21 22  2  0  0  0  0
 22 28  1  0  0  0  0
 23 22  1  0  0  0  0
 24 23  2  0  0  0  0
 25 20  2  0  0  0  0
 25 24  1  0  0  0  0
 26 20  1  0  0  0  0
 28 29  1  0  0  0  0
 28 31  1  0  0  0  0
 30 28  1  0  0  0  0
M  END
>  <minimizedAffinity>
-5.67451

$$$$

 OpenBabel03252500113D

 31 33  0  0  0  0  0  0  0  0999 V2000
   40.5090   29.9330   40.6260 Cl  0  0  0  0  0  0  0  0  0  0  0  0
   39.1310   30.9320   40.2950 C   0  0  0  0  0  0  0  0  0  0  0  0
   37.8870   30.5840   40.7700 C   0  0  0  0  0  0  0  0  0  0  0  0
   36.7580   31.3610   40.5250 C   0  0  0  0  0  0  0  0  0  0  0  0
   36.9500   32.5000   39.7770 C   0  0  0  0  0  0  0  0  0  0  0  0
   38.1980   32.8510   39.2990 C   0  0  0  0  0  0  0  0  0  0  0  0
   39.2850   32.0750   39.5530 C   0  0  0  0  0  0  0  0  0  0  0  0
   35.8080   31.0400   40.9230 H   0  0  0  0  0  0  0  0  0  0  0  0
   36.0800   33.1230   39.5730 H   0  0  0  0  0  0  0  0  0  0  0  0
   38.2300   33.7750   38.7180 H   0  0  0  0  0  0  0  0  0  0  0  0
   40.5620   32.5220   39.0080 C   0  0  0  0  0  0  0  0  0  0  0  0
   40.9030   32.1990   37.6990 C   0  0  0  0  0  0  0  0  0  0  0  0
   40.2180   31.6170   37.1000 H   0  0  0  0  0  0  0  0  0  0  0  0
   42.1210   32.6290   37.1880 C   0  0  0  0  0  3  0  0  0  0  0  0
   42.9750   33.3700   37.9770 C   0  0  0  0  0  0  0  0  0  0  0  0
   43.9280   33.7130   37.5930 H   0  0  0  0  0  0  0  0  0  0  0  0
   42.6780   33.7160   39.2840 C   0  0  0  0  0  0  0  0  0  0  0  0
   43.3390   34.2980   39.9190 H   0  0  0  0  0  0  0  0  0  0  0  0
   41.4440   33.2640   39.7610 C   0  0  0  0  0  3  0  0  0  0  0  0
   37.7110   28.2790   43.6470 C   0  0  0  0  0  0  0  0  0  0  0  0
   37.4700   27.0450   43.0260 C   0  0  0  0  0  0  0  0  0  0  0  0
   37.3710   27.0150   41.6300 C   0  0  0  0  0  0  0  0  0  0  0  0
   37.5100   28.1690   40.9370 N   0  0  0  0  0  0  0  0  0  0  0  0
   37.7440   29.3610   41.5590 C   0  0  0  0  0  0  0  0  0  0  0  0
   37.8420   29.3990   42.9130 N   0  0  0  0  0  0  0  0  0  0  0  0
   37.7930   28.3350   44.7230 H   0  0  0  0  0  0  0  0  0  0  0  0
   37.3600   26.1350   43.5740 H   0  0  0  0  0  0  0  0  0  0  0  0
   37.1160   25.7520   40.8670 C   0  0  0  0  0  0  0  0  0  0  0  0
   38.2910   25.2480   40.3580 F   0  0  0  0  0  0  0  0  0  0  0  0
   36.5790   24.8100   41.7450 F   0  0  0  0  0  0  0  0  0  0  0  0
   36.2120   26.0470   39.8840 F   0  0  0  0  0  0  0  0  0  0  0  0
  2  1  1  0  0  0  0
  2  3  1  0  0  0  0
  3 24  1  0  0  0  0
  4  3  2  0  0  0  0
  4  8  1  0  0  0  0
  5  4  1  0  0  0  0
  6  7  1  0  0  0  0
  6  5  2  0  0  0  0
  7  2  2  0  0  0  0
  9  5  1  0  0  0  0
 10  6  1  0  0  0  0
 11  7  1  0  0  0  0
 11 19  1  0  0  0  0
 12 11  2  0  0  0  0
 13 12  1  0  0  0  0
 14 12  1  0  0  0  0
 14 15  2  0  0  0  0
 15 17  1  0  0  0  0
 16 15  1  0  0  0  0
 17 19  2  0  0  0  0
 17 18  1  0  0  0  0
 20 26  1  0  0  0  0
 21 27  1  0  0  0  0
 21 20  1  0  0  0  0
 22 21  2  0  0  0  0
 23 24  2  0  0  0  0
 23 22  1  0  0  0  0
 24 25  1  0  0  0  0
 25 20  2  0  0  0  0
 28 22  1  0  0  0  0
 28 30  1  0  0  0  0
 29 28  1  0  0  0  0
 31 28  1  0  0  0  0
M  END
>  <minimizedAffinity>
-5.52505207

$$$$

 OpenBabel03252500113D

 31 33  0  0  0  0  0  0  0  0999 V2000
   38.0140   27.7520   39.2790 Cl  0  0  0  0  0  0  0  0  0  0  0  0
   37.7470   27.8940   40.9870 C   0  0  0  0  0  0  0  0  0  0  0  0
   37.6940   29.1320   41.5830 C   0  0  0  0  0  0  0  0  0  0  0  0
   37.4810   29.2860   42.9510 C   0  0  0  0  0  0  0  0  0  0  0  0
   37.3270   28.1300   43.6800 C   0  0  0  0  0  0  0  0  0  0  0  0
   37.3810   26.8840   43.0820 C   0  0  0  0  0  0  0  0  0  0  0  0
   37.5890   26.7620   41.7440 C   0  0  0  0  0  0  0  0  0  0  0  0
   37.4490   30.2820   43.3650 H   0  0  0  0  0  0  0  0  0  0  0  0
   37.1600   28.2260   44.7510 H   0  0  0  0  0  0  0  0  0  0  0  0
   37.2450   26.0380   43.7590 H   0  0  0  0  0  0  0  0  0  0  0  0
   37.6310   25.4090   41.2010 C   0  0  0  0  0  0  0  0  0  0  0  0
   38.7930   24.6550   41.3180 C   0  0  0  0  0  0  0  0  0  0  0  0
   39.6550   25.0820   41.8100 H   0  0  0  0  0  0  0  0  0  0  0  0
   38.8240   23.3680   40.7970 C   0  0  0  0  0  3  0  0  0  0  0  0
   37.7080   22.8510   40.1730 C   0  0  0  0  0  0  0  0  0  0  0  0
   37.7160   21.8490   39.7620 H   0  0  0  0  0  0  0  0  0  0  0  0
   36.5300   23.5630   40.0340 C   0  0  0  0  0  0  0  0  0  0  0  0
   35.6420   23.1720   39.5450 H   0  0  0  0  0  0  0  0  0  0  0  0
   36.5390   24.8540   40.5700 C   0  0  0  0  0  3  0  0  0  0  0  0
   36.9490   31.9900   39.3700 C   0  0  0  0  0  0  0  0  0  0  0  0
   38.2120   32.5790   39.2070 C   0  0  0  0  0  0  0  0  0  0  0  0
   39.3030   31.9920   39.8580 C   0  0  0  0  0  0  0  0  0  0  0  0
   39.1020   30.8870   40.6120 N   0  0  0  0  0  0  0  0  0  0  0  0
   37.8650   30.3280   40.7580 C   0  0  0  0  0  0  0  0  0  0  0  0
   36.8010   30.8900   40.1300 N   0  0  0  0  0  0  0  0  0  0  0  0
   36.0860   32.4190   38.8800 H   0  0  0  0  0  0  0  0  0  0  0  0
   38.3690   33.4510   38.6120 H   0  0  0  0  0  0  0  0  0  0  0  0
   40.6930   32.5390   39.7520 C   0  0  0  0  0  0  0  0  0  0  0  0
   41.5430   31.6030   39.2100 F   0  0  0  0  0  0  0  0  0  0  0  0
   40.6650   33.6480   38.9050 F   0  0  0  0  0  0  0  0  0  0  0  0
   41.0770   32.9180   41.0090 F   0  0  0  0  0  0  0  0  0  0  0  0
  1  2  1  0  0  0  0
  2  3  2  0  0  0  0
  2  7  1  0  0  0  0
  3  4  1  0  0  0  0
  4  8  1  0  0  0  0
  4  5  2  0  0  0  0
  5  9  1  0  0  0  0
  6  5  1  0  0  0  0
  6 10  1  0  0  0  0
  7  6  2  0  0  0  0
 11 12  1  0  0  0  0
 11  7  1  0  0  0  0
 12 13  1  0  0  0  0
 14 12  2  0  0  0  0
 15 14  1  0  0  0  0
 16 15  1  0  0  0  0
 17 15  2  0  0  0  0
 17 19  1  0  0  0  0
 18 17  1  0  0  0  0
 19 11  2  0  0  0  0
 20 25  1  0  0  0  0
 21 20  2  0  0  0  0
 21 22  1  0  0  0  0
 22 23  2  0  0  0  0
 23 24  1  0  0  0  0
 24  3  1  0  0  0  0
 25 24  2  0  0  0  0
 26 20  1  0  0  0  0
 27 21  1  0  0  0  0
 28 22  1  0  0  0  0
 28 31  1  0  0  0  0
 29 28  1  0  0  0  0
 30 28  1  0  0  0  0
M  END
>  <minimizedAffinity>
-5.5111022

$$$$

 OpenBabel03252500113D

 31 33  0  0  0  0  0  0  0  0999 V2000
   36.4920   26.3970   38.8630 Cl  0  0  0  0  0  0  0  0  0  0  0  0
   36.4340   27.8240   39.8480 C   0  0  0  0  0  0  0  0  0  0  0  0
   37.0470   27.8460   41.0790 C   0  0  0  0  0  0  0  0  0  0  0  0
   37.0220   28.9720   41.8980 C   0  0  0  0  0  0  0  0  0  0  0  0
   36.3480   30.0670   41.4110 C   0  0  0  0  0  0  0  0  0  0  0  0
   35.7310   30.0470   40.1740 C   0  0  0  0  0  0  0  0  0  0  0  0
   35.7710   28.9340   39.3940 C   0  0  0  0  0  0  0  0  0  0  0  0
   37.5210   28.9320   42.8540 H   0  0  0  0  0  0  0  0  0  0  0  0
   36.3150   30.9600   42.0340 H   0  0  0  0  0  0  0  0  0  0  0  0
   35.2260   30.9730   39.8910 H   0  0  0  0  0  0  0  0  0  0  0  0
   35.0920   29.0030   38.1050 C   0  0  0  0  0  0  0  0  0  0  0  0
   33.7100   28.8570   38.0450 C   0  0  0  0  0  0  0  0  0  0  0  0
   33.1540   28.6930   38.9570 H   0  0  0  0  0  0  0  0  0  0  0  0
   33.0710   28.9240   36.8140 C   0  0  0  0  0  3  0  0  0  0  0  0
   33.8090   29.1350   35.6670 C   0  0  0  0  0  0  0  0  0  0  0  0
   33.3250   29.1900   34.6990 H   0  0  0  0  0  0  0  0  0  0  0  0
   35.1840   29.2860   35.6770 C   0  0  0  0  0  0  0  0  0  0  0  0
   35.7800   29.4520   34.7850 H   0  0  0  0  0  0  0  0  0  0  0  0
   35.7890   29.2120   36.9360 C   0  0  0  0  0  3  0  0  0  0  0  0
   37.6990   24.4110   42.2620 C   0  0  0  0  0  0  0  0  0  0  0  0
   39.0920   24.4110   42.4250 C   0  0  0  0  0  0  0  0  0  0  0  0
   39.7930   25.5850   42.1280 C   0  0  0  0  0  0  0  0  0  0  0  0
   39.1060   26.6690   41.6990 N   0  0  0  0  0  0  0  0  0  0  0  0
   37.7490   26.6500   41.5460 C   0  0  0  0  0  0  0  0  0  0  0  0
   37.0620   25.5150   41.8320 N   0  0  0  0  0  0  0  0  0  0  0  0
   37.1290   23.5190   42.4820 H   0  0  0  0  0  0  0  0  0  0  0  0
   39.6330   23.5540   42.7630 H   0  0  0  0  0  0  0  0  0  0  0  0
   41.2800   25.6940   42.2680 C   0  0  0  0  0  0  0  0  0  0  0  0
   41.6960   25.1470   43.4600 F   0  0  0  0  0  0  0  0  0  0  0  0
   41.8710   24.9760   41.2270 F   0  0  0  0  0  0  0  0  0  0  0  0
   41.6020   27.0190   42.1670 F   0  0  0  0  0  0  0  0  0  0  0  0
  1  2  1  0  0  0  0
  2  3  1  0  0  0  0
  3 24  1  0  0  0  0
  3  4  2  0  0  0  0
  4  8  1  0  0  0  0
  5  4  1  0  0  0  0
  5  9  1  0  0  0  0
  6  5  2  0  0  0  0
  7  2  2  0  0  0  0
  7  6  1  0  0  0  0
 10  6  1  0  0  0  0
 11  7  1  0  0  0  0
 12 11  1  0  0  0  0
 12 13  1  0  0  0  0
 14 12  2  0  0  0  0
 15 17  2  0  0  0  0
 15 14  1  0  0  0  0
 16 15  1  0  0  0  0
 17 19  1  0  0  0  0
 18 17  1  0  0  0  0
 19 11  2  0  0  0  0
 20 21  1  0  0  0  0
 20 26  1  0  0  0  0
 21 27  1  0  0  0  0
 22 28  1  0  0  0  0
 22 21  2  0  0  0  0
 23 22  1  0  0  0  0
 24 23  2  0  0  0  0
 24 25  1  0  0  0  0
 25 20  2  0  0  0  0
 28 29  1  0  0  0  0
 30 28  1  0  0  0  0
 31 28  1  0  0  0  0
M  END
>  <minimizedAffinity>
-5.47021866

$$$$

 OpenBabel03252500113D

 31 33  0  0  0  0  0  0  0  0999 V2000
   36.3260   26.3180   38.7210 Cl  0  0  0  0  0  0  0  0  0  0  0  0
   36.3580   27.7110   39.7530 C   0  0  0  0  0  0  0  0  0  0  0  0
   35.7110   28.8680   39.3830 C   0  0  0  0  0  0  0  0  0  0  0  0
   35.7140   30.0060   40.1850 C   0  0  0  0  0  0  0  0  0  0  0  0
   36.4020   29.9150   41.3730 C   0  0  0  0  0  0  0  0  0  0  0  0
   37.0520   28.7550   41.7470 C   0  0  0  0  0  0  0  0  0  0  0  0
   37.0340   27.6570   40.9450 C   0  0  0  0  0  0  0  0  0  0  0  0
   35.1900   30.8850   39.8440 H   0  0  0  0  0  0  0  0  0  0  0  0
   36.4170   30.7940   42.0160 H   0  0  0  0  0  0  0  0  0  0  0  0
   37.5650   28.7990   42.7100 H   0  0  0  0  0  0  0  0  0  0  0  0
   37.7470   26.4760   41.4200 C   0  0  0  0  0  0  0  0  0  0  0  0
   37.0310   25.3660   41.8530 C   0  0  0  0  0  0  0  0  0  0  0  0
   35.9510   25.3910   41.8340 H   0  0  0  0  0  0  0  0  0  0  0  0
   37.7180   24.2470   42.3050 C   0  0  0  0  0  3  0  0  0  0  0  0
   39.0970   24.2450   42.3180 C   0  0  0  0  0  0  0  0  0  0  0  0
   39.6480   23.3800   42.6660 H   0  0  0  0  0  0  0  0  0  0  0  0
   39.8520   25.3260   41.8960 C   0  0  0  0  0  0  0  0  0  0  0  0
   40.9380   25.3420   41.9000 H   0  0  0  0  0  0  0  0  0  0  0  0
   39.1240   26.4330   41.4500 C   0  0  0  0  0  3  0  0  0  0  0  0
   32.9750   28.8850   36.9070 C   0  0  0  0  0  0  0  0  0  0  0  0
   33.6710   28.9800   35.6930 C   0  0  0  0  0  0  0  0  0  0  0  0
   35.0690   29.0370   35.7360 C   0  0  0  0  0  0  0  0  0  0  0  0
   35.6910   28.9980   36.9360 N   0  0  0  0  0  0  0  0  0  0  0  0
   34.9960   28.9060   38.1070 C   0  0  0  0  0  0  0  0  0  0  0  0
   33.6400   28.8500   38.0750 N   0  0  0  0  0  0  0  0  0  0  0  0
   31.8940   28.8390   36.9080 H   0  0  0  0  0  0  0  0  0  0  0  0
   33.1780   29.0100   34.7460 H   0  0  0  0  0  0  0  0  0  0  0  0
   35.9090   29.1390   34.5000 C   0  0  0  0  0  0  0  0  0  0  0  0
   35.4810   28.2430   33.5470 F   0  0  0  0  0  0  0  0  0  0  0  0
   35.7720   30.4270   33.9820 F   0  0  0  0  0  0  0  0  0  0  0  0
   37.2070   28.9170   34.8720 F   0  0  0  0  0  0  0  0  0  0  0  0
  1  2  1  0  0  0  0
  2  7  1  0  0  0  0
  3  2  2  0  0  0  0
  3  4  1  0  0  0  0
  4  5  2  0  0  0  0
  5  6  1  0  0  0  0
  5  9  1  0  0  0  0
  6 10  1  0  0  0  0
  7 11  1  0  0  0  0
  7  6  2  0  0  0  0
  8  4  1  0  0  0  0
 11 19  2  0  0  0  0
 11 12  1  0  0  0  0
 12 14  2  0  0  0  0
 13 12  1  0  0  0  0
 14 15  1  0  0  0  0
 15 16  1  0  0  0  0
 17 18  1  0  0  0  0
 17 15  2  0  0  0  0
 19 17  1  0  0  0  0
 20 26  1  0  0  0  0
 20 25  1  0  0  0  0
 21 22  1  0  0  0  0
 21 20  2  0  0  0  0
 22 23  2  0  0  0  0
 23 24  1  0  0  0  0
 24  3  1  0  0  0  0
 25 24  2  0  0  0  0
 27 21  1  0  0  0  0
 28 31  1  0  0  0  0
 28 22  1  0  0  0  0
 29 28  1  0  0  0  0
 30 28  1  0  0  0  0
M  END
>  <minimizedAffinity>
-5.47009706

$$$$

 OpenBabel03252500113D

 31 33  0  0  0  0  0  0  0  0999 V2000
   39.6850   30.0120   39.4160 Cl  0  0  0  0  0  0  0  0  0  0  0  0
   39.0680   31.6200   39.6160 C   0  0  0  0  0  0  0  0  0  0  0  0
   39.9250   32.6740   39.8330 C   0  0  0  0  0  0  0  0  0  0  0  0
   39.4670   33.9790   39.9970 C   0  0  0  0  0  0  0  0  0  0  0  0
   38.1050   34.1610   39.9330 C   0  0  0  0  0  0  0  0  0  0  0  0
   37.2420   33.1030   39.7150 C   0  0  0  0  0  0  0  0  0  0  0  0
   37.7160   31.8390   39.5570 C   0  0  0  0  0  0  0  0  0  0  0  0
   40.1850   34.7660   40.1650 H   0  0  0  0  0  0  0  0  0  0  0  0
   37.7240   35.1730   40.0590 H   0  0  0  0  0  0  0  0  0  0  0  0
   36.1830   33.3670   39.6830 H   0  0  0  0  0  0  0  0  0  0  0  0
   36.7320   30.7850   39.3320 C   0  0  0  0  0  0  0  0  0  0  0  0
   36.0170   30.2690   40.4080 C   0  0  0  0  0  0  0  0  0  0  0  0
   36.2000   30.6550   41.4000 H   0  0  0  0  0  0  0  0  0  0  0  0
   35.0830   29.2660   40.1850 C   0  0  0  0  0  3  0  0  0  0  0  0
   34.8720   28.7940   38.9060 C   0  0  0  0  0  0  0  0  0  0  0  0
   34.1460   28.0130   38.7160 H   0  0  0  0  0  0  0  0  0  0  0  0
   35.5580   29.2770   37.8060 C   0  0  0  0  0  0  0  0  0  0  0  0
   35.4050   28.9180   36.7930 H   0  0  0  0  0  0  0  0  0  0  0  0
   36.4900   30.2850   38.0720 C   0  0  0  0  0  3  0  0  0  0  0  0
   43.2980   31.9560   41.1480 C   0  0  0  0  0  0  0  0  0  0  0  0
   44.0770   31.9430   39.9820 C   0  0  0  0  0  0  0  0  0  0  0  0
   43.4390   32.1790   38.7580 C   0  0  0  0  0  0  0  0  0  0  0  0
   42.1060   32.4100   38.7460 N   0  0  0  0  0  0  0  0  0  0  0  0
   41.3640   32.4190   39.8930 C   0  0  0  0  0  0  0  0  0  0  0  0
   41.9750   32.1920   41.0840 N   0  0  0  0  0  0  0  0  0  0  0  0
   43.7610   31.7780   42.1090 H   0  0  0  0  0  0  0  0  0  0  0  0
   45.1290   31.7600   39.9930 H   0  0  0  0  0  0  0  0  0  0  0  0
   44.1750   32.1860   37.4540 C   0  0  0  0  0  0  0  0  0  0  0  0
   44.6430   33.4490   37.1690 F   0  0  0  0  0  0  0  0  0  0  0  0
   45.2710   31.3290   37.5640 F   0  0  0  0  0  0  0  0  0  0  0  0
   43.3120   31.7270   36.4980 F   0  0  0  0  0  0  0  0  0  0  0  0
  1  2  1  0  0  0  0
  2  3  1  0  0  0  0
  3 24  1  0  0  0  0
  3  4  2  0  0  0  0
  4  8  1  0  0  0  0
  5  4  1  0  0  0  0
  5  9  1  0  0  0  0
  6  5  2  0  0  0  0
  7  2  2  0  0  0  0
  7  6  1  0  0  0  0
 10  6  1  0  0  0  0
 11  7  1  0  0  0  0
 11 12  1  0  0  0  0
 12 13  1  0  0  0  0
 14 12  2  0  0  0  0
 15 14  1  0  0  0  0
 16 15  1  0  0  0  0
 17 19  1  0  0  0  0
 17 15  2  0  0  0  0
 18 17  1  0  0  0  0
 19 11  2  0  0  0  0
 20 26  1  0  0  0  0
 21 27  1  0  0  0  0
 21 20  2  0  0  0  0
 22 21  1  0  0  0  0
 23 22  2  0  0  0  0
 23 24  1  0  0  0  0
 24 25  2  0  0  0  0
 25 20  1  0  0  0  0
 28 30  1  0  0  0  0
 28 22  1  0  0  0  0
 29 28  1  0  0  0  0
 31 28  1  0  0  0  0
M  END
>  <minimizedAffinity>
-5.4665885

$$$$

 OpenBabel03252500113D

 31 33  0  0  0  0  0  0  0  0999 V2000
   38.1180   28.0040   39.3200 Cl  0  0  0  0  0  0  0  0  0  0  0  0
   37.7410   27.9380   41.0120 C   0  0  0  0  0  0  0  0  0  0  0  0
   37.5340   26.7280   41.6330 C   0  0  0  0  0  0  0  0  0  0  0  0
   37.2300   26.6360   42.9900 C   0  0  0  0  0  0  0  0  0  0  0  0
   37.1460   27.8230   43.6800 C   0  0  0  0  0  0  0  0  0  0  0  0
   37.3540   29.0390   43.0570 C   0  0  0  0  0  0  0  0  0  0  0  0
   37.6500   29.1020   41.7310 C   0  0  0  0  0  0  0  0  0  0  0  0
   37.0770   25.6600   43.4240 H   0  0  0  0  0  0  0  0  0  0  0  0
   36.9090   27.7750   44.7410 H   0  0  0  0  0  0  0  0  0  0  0  0
   37.2610   29.9140   43.7040 H   0  0  0  0  0  0  0  0  0  0  0  0
   37.8530   30.4280   41.1590 C   0  0  0  0  0  0  0  0  0  0  0  0
   36.8110   31.0530   40.4820 C   0  0  0  0  0  0  0  0  0  0  0  0
   35.8620   30.5470   40.3870 H   0  0  0  0  0  0  0  0  0  0  0  0
   37.0130   32.3160   39.9400 C   0  0  0  0  0  3  0  0  0  0  0  0
   38.2370   32.9360   40.0770 C   0  0  0  0  0  0  0  0  0  0  0  0
   38.4100   33.9210   39.6610 H   0  0  0  0  0  0  0  0  0  0  0  0
   39.3020   32.3540   40.7420 C   0  0  0  0  0  0  0  0  0  0  0  0
   40.2720   32.8270   40.8600 H   0  0  0  0  0  0  0  0  0  0  0  0
   39.0590   31.0830   41.2730 C   0  0  0  0  0  3  0  0  0  0  0  0
   38.9470   23.7890   39.9060 C   0  0  0  0  0  0  0  0  0  0  0  0
   37.8040   23.1820   39.3660 C   0  0  0  0  0  0  0  0  0  0  0  0
   36.5620   23.7850   39.6000 C   0  0  0  0  0  0  0  0  0  0  0  0
   36.5120   24.9220   40.3310 N   0  0  0  0  0  0  0  0  0  0  0  0
   37.6360   25.4990   40.8490 C   0  0  0  0  0  0  0  0  0  0  0  0
   38.8440   24.9200   40.6270 N   0  0  0  0  0  0  0  0  0  0  0  0
   39.9210   23.3480   39.7440 H   0  0  0  0  0  0  0  0  0  0  0  0
   37.8450   22.2840   38.7900 H   0  0  0  0  0  0  0  0  0  0  0  0
   35.2800   23.2210   39.0700 C   0  0  0  0  0  0  0  0  0  0  0  0
   34.3350   23.1450   40.0680 F   0  0  0  0  0  0  0  0  0  0  0  0
   34.8010   24.0770   38.0780 F   0  0  0  0  0  0  0  0  0  0  0  0
   35.5660   21.9950   38.5350 F   0  0  0  0  0  0  0  0  0  0  0  0
  1  2  1  0  0  0  0
  2  3  2  0  0  0  0
  2  7  1  0  0  0  0
  3  4  1  0  0  0  0
  4  8  1  0  0  0  0
  4  5  2  0  0  0  0
  5  9  1  0  0  0  0
  6  5  1  0  0  0  0
  6 10  1  0  0  0  0
  7  6  2  0  0  0  0
 11 19  1  0  0  0  0
 11  7  1  0  0  0  0
 12 11  2  0  0  0  0
 13 12  1  0  0  0  0
 14 15  2  0  0  0  0
 14 12  1  0  0  0  0
 15 17  1  0  0  0  0
 16 15  1  0  0  0  0
 17 18  1  0  0  0  0
 17 19  2  0  0  0  0
 20 25  1  0  0  0  0
 21 22  1  0  0  0  0
 21 20  2  0  0  0  0
 22 23  2  0  0  0  0
 23 24  1  0  0  0  0
 24  3  1  0  0  0  0
 25 24  2  0  0  0  0
 26 20  1  0  0  0  0
 27 21  1  0  0  0  0
 28 22  1  0  0  0  0
 28 29  1  0  0  0  0
 30 28  1  0  0  0  0
 31 28  1  0  0  0  0
M  END
>  <minimizedAffinity>
-5.42331934

$$$$
