
 OpenBabel03252508393D

 41 44  0  0  0  0  0  0  0  0999 V2000
   45.1200   33.9710   40.7350 C   0  0  0  0  0  0  0  0  0  0  0  0
   44.0750   33.6240   39.9180 C   0  0  0  0  0  0  0  0  0  0  0  0
   44.3770   33.1000   38.7000 C   0  0  0  0  0  0  0  0  0  0  0  0
   45.6640   32.9020   38.2490 C   0  0  0  0  0  0  0  0  0  0  0  0
   46.6900   33.2610   39.0890 C   0  0  0  0  0  0  0  0  0  0  0  0
   46.4360   33.7960   40.3340 C   0  0  0  0  0  0  0  0  0  0  0  0
   43.5500   32.8240   38.0520 H   0  0  0  0  0  0  0  0  0  0  0  0
   45.8880   32.4840   37.2770 H   0  0  0  0  0  0  0  0  0  0  0  0
   47.7140   33.1090   38.7420 H   0  0  0  0  0  0  0  0  0  0  0  0
   40.8070   35.2960   40.7950 C   0  0  0  0  0  0  0  0  0  0  0  0
   42.0990   35.1050   40.2890 C   0  0  0  0  0  0  0  0  0  0  0  0
   42.7360   33.8490   40.4330 C   0  0  0  0  0  0  0  0  0  0  0  0
   42.0180   32.8910   41.0740 N   0  0  0  0  0  0  0  0  0  0  0  0
   40.7850   33.1010   41.5480 C   0  0  0  0  0  0  0  0  0  0  0  0
   40.1810   34.2900   41.4120 N   0  0  0  0  0  0  0  0  0  0  0  0
   40.2070   36.5540   40.6350 N   0  0  0  0  0  0  0  0  0  0  0  0
   42.6590   35.8890   39.7760 H   0  0  0  0  0  0  0  0  0  0  0  0
   40.3460   32.2360   42.0340 H   0  0  0  0  0  0  0  0  0  0  0  0
   39.2920   36.4390   40.1740 H   0  0  0  0  0  0  0  0  0  0  0  0
   40.8200   37.3290   41.0190 H   0  0  0  0  0  0  0  0  0  0  0  0
   47.5940   34.1480   41.1460 C   0  0  0  0  0  0  0  0  0  0  0  0
   48.1440   35.3800   40.9010 C   0  0  0  0  0  0  0  0  0  0  0  0
   49.2520   35.8710   41.5860 C   0  0  0  0  0  0  0  0  0  0  0  0
   49.8150   35.0790   42.5550 C   0  0  0  0  0  0  0  0  0  0  0  0
   49.2810   33.8390   42.8180 C   0  0  0  0  0  0  0  0  0  0  0  0
   48.1810   33.3820   42.1190 C   0  0  0  0  0  0  0  0  0  0  0  0
   47.7660   36.0800   40.1520 H   0  0  0  0  0  0  0  0  0  0  0  0
   49.6810   36.8450   41.3890 H   0  0  0  0  0  0  0  0  0  0  0  0
   50.6740   35.3450   43.1550 H   0  0  0  0  0  0  0  0  0  0  0  0
   49.6690   33.1650   43.5600 H   0  0  0  0  0  0  0  0  0  0  0  0
   47.6070   32.0660   42.3910 C   0  0  0  0  0  0  0  0  0  0  0  0
   46.9480   32.0850   43.6280 C   0  0  0  0  0  0  0  0  0  0  0  0
   46.8520   32.9390   44.3170 H   0  0  0  0  0  0  0  0  0  0  0  0
   46.3190   30.9570   44.1270 C   0  0  0  0  0  3  0  0  0  0  0  0
   46.3390   29.7810   43.3870 C   0  0  0  0  0  0  0  0  0  0  0  0
   45.8560   28.8880   43.7540 H   0  0  0  0  0  0  0  0  0  0  0  0
   46.9910   29.8090   42.1890 C   0  0  0  0  0  0  0  0  0  0  0  0
   47.0380   28.9120   41.5680 H   0  0  0  0  0  0  0  0  0  0  0  0
   47.6270   30.9080   41.6640 C   0  0  0  0  0  3  0  0  0  0  0  0
   44.7100   35.0020   43.1030 N   0  0  0  0  0  0  0  0  0  0  0  0
   44.8930   34.5340   42.0390 C   0  0  0  0  0  0  0  0  0  0  0  0
  1 41  1  0  0  0  0
  2 12  1  0  0  0  0
  2  1  2  0  0  0  0
  3  2  1  0  0  0  0
  4  3  2  0  0  0  0
  4  5  1  0  0  0  0
  5  6  2  0  0  0  0
  6  1  1  0  0  0  0
  6 21  1  0  0  0  0
  7  3  1  0  0  0  0
  8  4  1  0  0  0  0
  9  5  1  0  0  0  0
 10 15  1  0  0  0  0
 11 12  1  0  0  0  0
 11 10  2  0  0  0  0
 12 13  2  0  0  0  0
 13 14  1  0  0  0  0
 14 18  1  0  0  0  0
 15 14  2  0  0  0  0
 16 10  1  0  0  0  0
 16 20  1  0  0  0  0
 17 11  1  0  0  0  0
 19 16  1  0  0  0  0
 21 26  1  0  0  0  0
 22 21  2  0  0  0  0
 22 23  1  0  0  0  0
 23 24  2  0  0  0  0
 24 25  1  0  0  0  0
 24 29  1  0  0  0  0
 25 30  1  0  0  0  0
 26 31  1  0  0  0  0
 26 25  2  0  0  0  0
 27 22  1  0  0  0  0
 28 23  1  0  0  0  0
 31 32  1  0  0  0  0
 32 34  2  0  0  0  0
 32 33  1  0  0  0  0
 35 36  1  0  0  0  0
 35 34  1  0  0  0  0
 37 35  2  0  0  0  0
 38 37  1  0  0  0  0
 39 37  1  0  0  0  0
 39 31  2  0  0  0  0
 41 40  3  0  0  0  0
M  END
>  <minimizedAffinity>
-6.06794167

>  <minimizedRMSD>
0.557191193

$$$$
