
 OpenBabel03252509113D

 31 34  0  0  0  0  0  0  0  0999 V2000
   45.4870   31.2820   43.1440 C   0  0  0  0  0  0  0  0  0  0  0  0
   45.7200   31.7630   41.8800 C   0  0  0  0  0  0  0  0  0  0  0  0
   45.0010   31.3200   40.7850 C   0  0  0  0  0  0  0  0  0  0  0  0
   44.0070   30.3610   40.9280 C   0  0  0  0  0  0  0  0  0  0  0  0
   43.1330   29.7150   40.1090 N   0  0  0  0  0  0  0  0  0  0  0  0
   42.3900   28.8640   40.8620 C   0  0  0  0  0  0  0  0  0  0  0  0
   42.8100   28.9900   42.1360 N   0  0  0  0  0  0  0  0  0  0  0  0
   43.8020   29.9010   42.2100 C   0  0  0  0  0  0  0  0  0  0  0  0
   44.4920   30.3140   43.3210 C   0  0  0  0  0  0  0  0  0  0  0  0
   46.0700   31.6520   43.9840 H   0  0  0  0  0  0  0  0  0  0  0  0
   43.1560   29.9500   39.0830 H   0  0  0  0  0  0  0  0  0  0  0  0
   41.6230   28.2410   40.4120 H   0  0  0  0  0  0  0  0  0  0  0  0
   44.3060   29.9330   44.3140 H   0  0  0  0  0  0  0  0  0  0  0  0
   48.9490   33.3530   41.1210 C   0  0  0  0  0  0  0  0  0  0  0  0
   48.6610   34.7120   41.2540 C   0  0  0  0  0  0  0  0  0  0  0  0
   47.3540   35.0700   41.6060 C   0  0  0  0  0  0  0  0  0  0  0  0
   46.4360   34.0720   41.7970 N   0  0  0  0  0  0  0  0  0  0  0  0
   46.7460   32.7680   41.6600 C   0  0  0  0  0  0  0  0  0  0  0  0
   48.0010   32.3990   41.3220 N   0  0  0  0  0  0  0  0  0  0  0  0
   49.9530   33.0040   40.8480 H   0  0  0  0  0  0  0  0  0  0  0  0
   49.4460   35.4320   41.0860 H   0  0  0  0  0  0  0  0  0  0  0  0
   47.1010   36.1150   41.7160 H   0  0  0  0  0  0  0  0  0  0  0  0
   45.2570   31.8390   39.4410 C   0  0  0  0  0  0  0  0  0  0  0  0
   44.5050   32.9010   38.9610 C   0  0  0  0  0  0  0  0  0  0  0  0
   43.7370   33.3290   39.5990 H   0  0  0  0  0  0  0  0  0  0  0  0
   44.6660   33.4510   37.7310 C   0  0  0  0  0  3  0  0  0  0  0  0
   45.6550   32.8940   36.9190 C   0  0  0  0  0  0  0  0  0  0  0  0
   45.8530   33.2630   35.9340 H   0  0  0  0  0  0  0  0  0  0  0  0
   46.4360   31.8210   37.3640 C   0  0  0  0  0  0  0  0  0  0  0  0
   47.2090   31.3660   36.7630 H   0  0  0  0  0  0  0  0  0  0  0  0
   46.2370   31.2950   38.6200 C   0  0  0  0  0  3  0  0  0  0  0  0
  1  9  1  0  0  0  0
  1 10  1  0  0  0  0
  2  1  2  0  0  0  0
  3  4  2  0  0  0  0
  3  2  1  0  0  0  0
  4  8  1  0  0  0  0
  5  6  1  0  0  0  0
  5  4  1  0  0  0  0
  6  7  2  0  0  0  0
  7  8  1  0  0  0  0
  8  9  2  0  0  0  0
  9 13  1  0  0  0  0
 11  5  1  0  0  0  0
 12  6  1  0  0  0  0
 14 15  2  0  0  0  0
 14 19  1  0  0  0  0
 15 16  1  0  0  0  0
 16 22  1  0  0  0  0
 16 17  2  0  0  0  0
 18 17  1  0  0  0  0
 18  2  1  0  0  0  0
 19 18  2  0  0  0  0
 20 14  1  0  0  0  0
 21 15  1  0  0  0  0
 23  3  1  0  0  0  0
 24 23  1  0  0  0  0
 24 25  1  0  0  0  0
 26 24  2  0  0  0  0
 27 29  2  0  0  0  0
 27 26  1  0  0  0  0
 28 27  1  0  0  0  0
 29 31  1  0  0  0  0
 30 29  1  0  0  0  0
 31 23  2  0  0  0  0
M  END
>  <minimizedAffinity>
-2.67734289

>  <minimizedRMSD>
6.57187748

$$$$
