
 OpenBabel03252509113D

 31 34  0  0  0  0  0  0  0  0999 V2000
   44.7520   30.0740   42.8250 C   0  0  0  0  0  0  0  0  0  0  0  0
   44.0900   30.9020   41.9550 C   0  0  0  0  0  0  0  0  0  0  0  0
   42.7190   30.8380   41.7850 C   0  0  0  0  0  0  0  0  0  0  0  0
   41.9560   29.9210   42.4970 C   0  0  0  0  0  0  0  0  0  0  0  0
   40.6400   29.5870   42.5830 N   0  0  0  0  0  0  0  0  0  0  0  0
   40.5130   28.5800   43.4840 C   0  0  0  0  0  0  0  0  0  0  0  0
   41.7470   28.3010   43.9460 N   0  0  0  0  0  0  0  0  0  0  0  0
   42.6560   29.1070   43.3590 C   0  0  0  0  0  0  0  0  0  0  0  0
   44.0130   29.1390   43.5570 C   0  0  0  0  0  0  0  0  0  0  0  0
   45.8320   30.1500   42.9350 H   0  0  0  0  0  0  0  0  0  0  0  0
   39.9580   30.1180   41.9820 H   0  0  0  0  0  0  0  0  0  0  0  0
   39.5410   28.1530   43.7140 H   0  0  0  0  0  0  0  0  0  0  0  0
   44.5310   28.4840   44.2410 H   0  0  0  0  0  0  0  0  0  0  0  0
   46.2530   32.4320   39.4030 C   0  0  0  0  0  0  0  0  0  0  0  0
   46.2110   33.7860   39.7360 C   0  0  0  0  0  0  0  0  0  0  0  0
   45.4360   34.1620   40.8400 C   0  0  0  0  0  0  0  0  0  0  0  0
   44.7650   33.1850   41.5260 N   0  0  0  0  0  0  0  0  0  0  0  0
   44.8270   31.8850   41.1790 C   0  0  0  0  0  0  0  0  0  0  0  0
   45.5680   31.4980   40.1170 N   0  0  0  0  0  0  0  0  0  0  0  0
   46.8410   32.0690   38.5510 H   0  0  0  0  0  0  0  0  0  0  0  0
   46.7710   34.4890   39.1400 H   0  0  0  0  0  0  0  0  0  0  0  0
   45.3840   35.2040   41.1220 H   0  0  0  0  0  0  0  0  0  0  0  0
   42.0200   31.7260   40.8550 C   0  0  0  0  0  0  0  0  0  0  0  0
   41.8530   31.3420   39.5330 C   0  0  0  0  0  0  0  0  0  0  0  0
   42.2480   30.3820   39.2130 H   0  0  0  0  0  0  0  0  0  0  0  0
   41.2190   32.0950   38.5970 C   0  0  0  0  0  3  0  0  0  0  0  0
   40.7160   33.3260   39.0180 C   0  0  0  0  0  0  0  0  0  0  0  0
   40.2040   33.9850   38.3490 H   0  0  0  0  0  0  0  0  0  0  0  0
   40.8630   33.7530   40.3430 C   0  0  0  0  0  0  0  0  0  0  0  0
   40.4870   34.6990   40.7040 H   0  0  0  0  0  0  0  0  0  0  0  0
   41.5120   32.9560   41.2580 C   0  0  0  0  0  3  0  0  0  0  0  0
  1 10  1  0  0  0  0
  1  9  1  0  0  0  0
  2  1  2  0  0  0  0
  3  2  1  0  0  0  0
  3  4  2  0  0  0  0
  4  5  1  0  0  0  0
  4  8  1  0  0  0  0
  5  6  1  0  0  0  0
  6 12  1  0  0  0  0
  6  7  2  0  0  0  0
  8  9  2  0  0  0  0
  8  7  1  0  0  0  0
  9 13  1  0  0  0  0
 11  5  1  0  0  0  0
 14 15  2  0  0  0  0
 14 19  1  0  0  0  0
 15 16  1  0  0  0  0
 16 22  1  0  0  0  0
 16 17  2  0  0  0  0
 18 17  1  0  0  0  0
 18  2  1  0  0  0  0
 19 18  2  0  0  0  0
 20 14  1  0  0  0  0
 21 15  1  0  0  0  0
 23 31  1  0  0  0  0
 23  3  1  0  0  0  0
 24 23  2  0  0  0  0
 25 24  1  0  0  0  0
 26 27  2  0  0  0  0
 26 24  1  0  0  0  0
 27 29  1  0  0  0  0
 28 27  1  0  0  0  0
 29 30  1  0  0  0  0
 29 31  2  0  0  0  0
M  END
>  <minimizedAffinity>
-2.91543126

>  <minimizedRMSD>
6.4624486

$$$$
