
 OpenBabel03252506443D

 40 43  0  0  1  0  0  0  0  0999 V2000
   36.9280   29.6920   40.4800 N   0  0  1  0  0  0  0  0  0  0  0  0
   37.1150   31.0810   40.8120 C   0  0  0  0  0  0  0  0  0  0  0  0
   36.9310   32.0520   39.7110 C   0  0  0  0  0  0  0  0  0  0  0  0
   37.9380   31.8010   38.6130 C   0  0  0  0  0  0  0  0  0  0  0  0
   38.2920   30.3590   38.5120 C   0  0  0  0  0  0  0  0  0  0  0  0
   37.1980   29.5100   39.0720 C   0  0  2  0  0  0  0  0  0  0  0  0
   38.0880   31.2820   41.3030 H   0  0  0  0  0  0  0  0  0  0  0  0
   36.3520   31.3100   41.6090 H   0  0  0  0  0  0  0  0  0  0  0  0
   35.9240   32.2550   39.3650 H   0  0  0  0  0  0  0  0  0  0  0  0
   37.2680   33.0530   40.1540 H   0  0  0  0  0  0  0  0  0  0  0  0
   37.4480   32.1080   37.6580 H   0  0  0  0  0  0  0  0  0  0  0  0
   38.8680   32.3910   38.7300 H   0  0  0  0  0  0  0  0  0  0  0  0
   39.2380   30.1120   39.0320 H   0  0  0  0  0  0  0  0  0  0  0  0
   38.4310   30.0680   37.4670 H   0  0  0  0  0  0  0  0  0  0  0  0
   37.7090   28.4580   39.0900 H   0  0  0  0  0  0  0  0  0  0  0  0
   36.0340   29.2780   38.2230 C   0  0  0  0  0  0  0  0  0  0  0  0
   34.7880   29.0570   38.8320 C   0  0  0  0  0  0  0  0  0  0  0  0
   34.7550   29.0550   39.9240 H   0  0  0  0  0  0  0  0  0  0  0  0
   33.5910   28.8410   38.1840 C   0  0  0  0  0  3  0  0  0  0  0  0
   33.6100   28.8380   36.8060 C   0  0  0  0  0  0  0  0  0  0  0  0
   32.7050   28.6730   36.2410 H   0  0  0  0  0  0  0  0  0  0  0  0
   34.7870   29.0460   36.1180 C   0  0  0  0  0  0  0  0  0  0  0  0
   34.8330   29.0500   35.0380 H   0  0  0  0  0  0  0  0  0  0  0  0
   35.9330   29.2550   36.8480 C   0  0  0  0  0  3  0  0  0  0  0  0
   37.2880   27.9260   42.3190 C   0  0  1  0  0  0  0  0  0  0  0  0
   37.7270   29.2520   42.7810 C   0  0  0  0  0  0  0  0  0  0  0  0
   37.7930   28.9340   41.3320 C   0  0  2  0  0  0  0  0  0  0  0  0
   36.2060   27.7020   42.3700 H   0  0  0  0  0  0  0  0  0  0  0  0
   36.9390   29.9280   43.1720 H   0  0  0  0  0  0  0  0  0  0  0  0
   38.6900   29.2910   43.3640 H   0  0  0  0  0  0  0  0  0  0  0  0
   38.8040   28.7230   40.8850 H   0  0  0  0  0  0  0  0  0  0  0  0
   37.8230   25.4730   42.0570 C   0  0  0  0  0  0  0  0  0  0  0  0
   38.1270   26.7400   42.6150 C   0  0  0  0  0  0  0  0  0  0  0  0
   39.2510   26.8330   43.4490 C   0  0  0  0  0  0  0  0  0  0  0  0
   39.9850   25.7020   43.6790 N   0  0  0  0  0  0  0  0  0  0  0  0
   39.6460   24.5070   43.1170 C   0  0  0  0  0  0  0  0  0  0  0  0
   38.5710   24.3810   42.3060 N   0  0  0  0  0  0  0  0  0  0  0  0
   36.9520   25.4400   41.4200 H   0  0  0  0  0  0  0  0  0  0  0  0
   39.5130   27.7840   43.8910 H   0  0  0  0  0  0  0  0  0  0  0  0
   40.2540   23.6260   43.3220 H   0  0  0  0  0  0  0  0  0  0  0  0
  1  2  1  1  0  0  0
  1 27  1  0  0  0  0
  2  7  1  0  0  0  0
  2  8  1  0  0  0  0
  3 10  1  0  0  0  0
  3  2  1  0  0  0  0
  4 12  1  0  0  0  0
  4  3  1  0  0  0  0
  5  4  1  0  0  0  0
  5 13  1  0  0  0  0
  5  6  1  0  0  0  0
  6 15  1  6  0  0  0
  6  1  1  0  0  0  0
  9  3  1  0  0  0  0
 11  4  1  0  0  0  0
 14  5  1  0  0  0  0
 16 17  1  0  0  0  0
 16  6  1  0  0  0  0
 17 18  1  0  0  0  0
 19 17  2  0  0  0  0
 20 19  1  0  0  0  0
 21 20  1  0  0  0  0
 22 20  2  0  0  0  0
 22 24  1  0  0  0  0
 23 22  1  0  0  0  0
 24 16  2  0  0  0  0
 25 28  1  6  0  0  0
 25 33  1  0  0  0  0
 25 26  1  0  0  0  0
 26 29  1  0  0  0  0
 26 30  1  0  0  0  0
 27 31  1  6  0  0  0
 27 25  1  0  0  0  0
 27 26  1  0  0  0  0
 32 37  2  0  0  0  0
 32 33  1  0  0  0  0
 33 34  2  0  0  0  0
 34 35  1  0  0  0  0
 34 39  1  0  0  0  0
 36 40  1  0  0  0  0
 36 35  2  0  0  0  0
 37 36  1  0  0  0  0
 38 32  1  0  0  0  0
M  END
>  <minimizedAffinity>
-5.72533512

$$$$

 OpenBabel03252506443D

 40 43  0  0  1  0  0  0  0  0999 V2000
   36.9270   29.5980   40.4490 N   0  0  1  0  0  0  0  0  0  0  0  0
   35.6100   30.1380   40.2340 C   0  0  0  0  0  0  0  0  0  0  0  0
   34.5640   29.1770   39.8200 C   0  0  0  0  0  0  0  0  0  0  0  0
   34.9210   28.5490   38.4930 C   0  0  0  0  0  0  0  0  0  0  0  0
   36.3950   28.4280   38.3210 C   0  0  0  0  0  0  0  0  0  0  0  0
   37.0770   28.4030   39.6510 C   0  0  2  0  0  0  0  0  0  0  0  0
   35.6020   30.9960   39.5330 H   0  0  0  0  0  0  0  0  0  0  0  0
   35.2980   30.5860   41.2200 H   0  0  0  0  0  0  0  0  0  0  0  0
   34.1760   28.4850   40.5590 H   0  0  0  0  0  0  0  0  0  0  0  0
   33.6590   29.8320   39.5660 H   0  0  0  0  0  0  0  0  0  0  0  0
   34.4860   27.5220   38.5010 H   0  0  0  0  0  0  0  0  0  0  0  0
   34.5030   29.0950   37.6250 H   0  0  0  0  0  0  0  0  0  0  0  0
   36.8250   29.2500   37.7150 H   0  0  0  0  0  0  0  0  0  0  0  0
   36.6480   27.4980   37.8040 H   0  0  0  0  0  0  0  0  0  0  0  0
   38.1990   28.4990   39.3350 H   0  0  0  0  0  0  0  0  0  0  0  0
   37.0630   27.1400   40.3810 C   0  0  0  0  0  0  0  0  0  0  0  0
   37.1030   27.1720   41.7840 C   0  0  0  0  0  0  0  0  0  0  0  0
   37.1570   28.1530   42.2640 H   0  0  0  0  0  0  0  0  0  0  0  0
   37.0800   26.0800   42.6250 C   0  0  0  0  0  3  0  0  0  0  0  0
   37.0120   24.8340   42.0420 C   0  0  0  0  0  0  0  0  0  0  0  0
   36.9920   23.9400   42.6470 H   0  0  0  0  0  0  0  0  0  0  0  0
   36.9690   24.7010   40.6700 C   0  0  0  0  0  0  0  0  0  0  0  0
   36.9160   23.7370   40.1830 H   0  0  0  0  0  0  0  0  0  0  0  0
   36.9960   25.8460   39.9090 C   0  0  0  0  0  3  0  0  0  0  0  0
   38.2900   31.6860   41.0920 C   0  0  1  0  0  0  0  0  0  0  0  0
   37.3190   32.0070   40.0340 C   0  0  0  0  0  0  0  0  0  0  0  0
   37.8650   30.6280   40.1200 C   0  0  2  0  0  0  0  0  0  0  0  0
   37.9180   31.6570   42.1320 H   0  0  0  0  0  0  0  0  0  0  0  0
   36.2810   32.2200   40.3610 H   0  0  0  0  0  0  0  0  0  0  0  0
   37.6800   32.6730   39.2010 H   0  0  0  0  0  0  0  0  0  0  0  0
   38.6350   30.3190   39.3590 H   0  0  0  0  0  0  0  0  0  0  0  0
   39.9330   33.4460   40.3300 C   0  0  0  0  0  0  0  0  0  0  0  0
   39.6690   32.2230   40.9970 C   0  0  0  0  0  0  0  0  0  0  0  0
   40.7560   31.5430   41.5670 C   0  0  0  0  0  0  0  0  0  0  0  0
   42.0020   32.0940   41.4460 N   0  0  0  0  0  0  0  0  0  0  0  0
   42.1990   33.2740   40.7930 C   0  0  0  0  0  0  0  0  0  0  0  0
   41.1750   33.9570   40.2330 N   0  0  0  0  0  0  0  0  0  0  0  0
   39.0720   33.9400   39.9050 H   0  0  0  0  0  0  0  0  0  0  0  0
   40.5920   30.6080   42.0830 H   0  0  0  0  0  0  0  0  0  0  0  0
   43.2060   33.6840   40.7170 H   0  0  0  0  0  0  0  0  0  0  0  0
  1  2  1  6  0  0  0
  2  8  1  0  0  0  0
  3  2  1  0  0  0  0
  3  9  1  0  0  0  0
  4 11  1  0  0  0  0
  4  3  1  0  0  0  0
  5  4  1  0  0  0  0
  5  6  1  0  0  0  0
  6 15  1  6  0  0  0
  6 16  1  0  0  0  0
  6  1  1  0  0  0  0
  7  2  1  0  0  0  0
 10  3  1  0  0  0  0
 12  4  1  0  0  0  0
 13  5  1  0  0  0  0
 14  5  1  0  0  0  0
 16 17  1  0  0  0  0
 17 18  1  0  0  0  0
 17 19  2  0  0  0  0
 20 19  1  0  0  0  0
 20 21  1  0  0  0  0
 22 20  2  0  0  0  0
 23 22  1  0  0  0  0
 24 16  2  0  0  0  0
 24 22  1  0  0  0  0
 25 28  1  1  0  0  0
 26 27  1  0  0  0  0
 26 29  1  0  0  0  0
 26 25  1  0  0  0  0
 27 31  1  6  0  0  0
 27  1  1  0  0  0  0
 27 25  1  0  0  0  0
 30 26  1  0  0  0  0
 32 33  1  0  0  0  0
 33 25  1  0  0  0  0
 33 34  2  0  0  0  0
 34 39  1  0  0  0  0
 35 34  1  0  0  0  0
 36 35  2  0  0  0  0
 37 32  2  0  0  0  0
 37 36  1  0  0  0  0
 38 32  1  0  0  0  0
 40 36  1  0  0  0  0
M  END
>  <minimizedAffinity>
-5.28470802

$$$$

 OpenBabel03252506443D

 40 43  0  0  1  0  0  0  0  0999 V2000
   36.7900   29.2920   38.6940 N   0  0  1  0  0  0  0  0  0  0  0  0
   37.8890   30.2210   38.6230 C   0  0  0  0  0  0  0  0  0  0  0  0
   38.5700   30.5320   39.8990 C   0  0  0  0  0  0  0  0  0  0  0  0
   37.6070   31.1800   40.8670 C   0  0  0  0  0  0  0  0  0  0  0  0
   36.2160   30.6890   40.6680 C   0  0  0  0  0  0  0  0  0  0  0  0
   36.2230   29.3420   40.0220 C   0  0  2  0  0  0  0  0  0  0  0  0
   37.6210   31.1730   38.1230 H   0  0  0  0  0  0  0  0  0  0  0  0
   38.6440   29.7490   37.9320 H   0  0  0  0  0  0  0  0  0  0  0  0
   39.2160   29.7790   40.3370 H   0  0  0  0  0  0  0  0  0  0  0  0
   39.2920   31.3830   39.6370 H   0  0  0  0  0  0  0  0  0  0  0  0
   37.9400   30.8830   41.8900 H   0  0  0  0  0  0  0  0  0  0  0  0
   37.6080   32.2860   40.8090 H   0  0  0  0  0  0  0  0  0  0  0  0
   35.6020   31.3770   40.0550 H   0  0  0  0  0  0  0  0  0  0  0  0
   35.7020   30.5900   41.6280 H   0  0  0  0  0  0  0  0  0  0  0  0
   35.0890   29.2010   39.7720 H   0  0  0  0  0  0  0  0  0  0  0  0
   36.5000   28.1940   40.8790 C   0  0  0  0  0  0  0  0  0  0  0  0
   36.8180   26.9650   40.2780 C   0  0  0  0  0  0  0  0  0  0  0  0
   36.8270   26.9270   39.1860 H   0  0  0  0  0  0  0  0  0  0  0  0
   37.1220   25.7920   40.9340 C   0  0  0  0  0  3  0  0  0  0  0  0
   37.1160   25.8180   42.3120 C   0  0  0  0  0  0  0  0  0  0  0  0
   37.3450   24.9310   42.8820 H   0  0  0  0  0  0  0  0  0  0  0  0
   36.8160   26.9790   42.9920 C   0  0  0  0  0  0  0  0  0  0  0  0
   36.8030   27.0310   44.0710 H   0  0  0  0  0  0  0  0  0  0  0  0
   36.5250   28.1030   42.2540 C   0  0  0  0  0  3  0  0  0  0  0  0
   35.0530   28.6460   36.9060 C   0  0  1  0  0  0  0  0  0  0  0  0
   36.2380   29.2540   36.2810 C   0  0  0  0  0  0  0  0  0  0  0  0
   35.8650   29.6530   37.6620 C   0  0  2  0  0  0  0  0  0  0  0  0
   35.1130   27.5760   37.1780 H   0  0  0  0  0  0  0  0  0  0  0  0
   37.1050   28.5850   36.1050 H   0  0  0  0  0  0  0  0  0  0  0  0
   36.0500   29.9860   35.4450 H   0  0  0  0  0  0  0  0  0  0  0  0
   35.3890   30.6620   37.8080 H   0  0  0  0  0  0  0  0  0  0  0  0
   32.6170   29.1510   37.3360 C   0  0  0  0  0  0  0  0  0  0  0  0
   33.7030   29.0360   36.4320 C   0  0  0  0  0  0  0  0  0  0  0  0
   33.4560   29.3080   35.0790 C   0  0  0  0  0  0  0  0  0  0  0  0
   32.1890   29.6650   34.7080 N   0  0  0  0  0  0  0  0  0  0  0  0
   31.1810   29.7600   35.6200 C   0  0  0  0  0  0  0  0  0  0  0  0
   31.3820   29.5060   36.9340 N   0  0  0  0  0  0  0  0  0  0  0  0
   32.8450   28.9340   38.3690 H   0  0  0  0  0  0  0  0  0  0  0  0
   34.2610   29.2310   34.3610 H   0  0  0  0  0  0  0  0  0  0  0  0
   30.1820   30.0480   35.2900 H   0  0  0  0  0  0  0  0  0  0  0  0
  1  2  1  1  0  0  0
  1  6  1  0  0  0  0
  2  3  1  0  0  0  0
  3  9  1  0  0  0  0
  3  4  1  0  0  0  0
  4 11  1  0  0  0  0
  5  4  1  0  0  0  0
  5 14  1  0  0  0  0
  6 15  1  6  0  0  0
  6  5  1  0  0  0  0
  6 16  1  0  0  0  0
  7  2  1  0  0  0  0
  8  2  1  0  0  0  0
 10  3  1  0  0  0  0
 12  4  1  0  0  0  0
 13  5  1  0  0  0  0
 16 24  1  0  0  0  0
 17 16  2  0  0  0  0
 17 19  1  0  0  0  0
 18 17  1  0  0  0  0
 19 20  2  0  0  0  0
 20 21  1  0  0  0  0
 20 22  1  0  0  0  0
 22 23  1  0  0  0  0
 24 22  2  0  0  0  0
 25 28  1  1  0  0  0
 25 27  1  0  0  0  0
 26 25  1  0  0  0  0
 26 27  1  0  0  0  0
 27 31  1  1  0  0  0
 27  1  1  0  0  0  0
 29 26  1  0  0  0  0
 30 26  1  0  0  0  0
 32 38  1  0  0  0  0
 33 25  1  0  0  0  0
 33 32  2  0  0  0  0
 34 33  1  0  0  0  0
 35 34  2  0  0  0  0
 35 36  1  0  0  0  0
 36 37  2  0  0  0  0
 37 32  1  0  0  0  0
 39 34  1  0  0  0  0
 40 36  1  0  0  0  0
M  END
>  <minimizedAffinity>
-5.10802317

$$$$

 OpenBabel03252506443D

 40 43  0  0  1  0  0  0  0  0999 V2000
   37.3870   29.9300   39.2720 N   0  0  1  0  0  0  0  0  0  0  0  0
   36.1730   30.0070   38.5010 C   0  0  0  0  0  0  0  0  0  0  0  0
   35.2160   28.8900   38.6650 C   0  0  0  0  0  0  0  0  0  0  0  0
   35.8450   27.5890   38.2240 C   0  0  0  0  0  0  0  0  0  0  0  0
   37.3140   27.5790   38.4650 C   0  0  0  0  0  0  0  0  0  0  0  0
   37.6730   28.5410   39.5510 C   0  0  2  0  0  0  0  0  0  0  0  0
   36.3540   30.1620   37.4190 H   0  0  0  0  0  0  0  0  0  0  0  0
   35.6600   30.9550   38.8330 H   0  0  0  0  0  0  0  0  0  0  0  0
   34.6460   28.8300   39.5850 H   0  0  0  0  0  0  0  0  0  0  0  0
   34.4160   29.0800   37.8670 H   0  0  0  0  0  0  0  0  0  0  0  0
   35.3830   26.7870   38.8490 H   0  0  0  0  0  0  0  0  0  0  0  0
   35.6550   27.3510   37.1600 H   0  0  0  0  0  0  0  0  0  0  0  0
   37.8990   27.8290   37.5590 H   0  0  0  0  0  0  0  0  0  0  0  0
   37.6460   26.5870   38.7830 H   0  0  0  0  0  0  0  0  0  0  0  0
   38.8400   28.5470   39.4760 H   0  0  0  0  0  0  0  0  0  0  0  0
   37.4490   28.1060   40.9260 C   0  0  0  0  0  0  0  0  0  0  0  0
   37.6050   29.0420   41.9620 C   0  0  0  0  0  0  0  0  0  0  0  0
   37.9030   30.0560   41.6850 H   0  0  0  0  0  0  0  0  0  0  0  0
   37.4170   28.8060   43.3070 C   0  0  0  0  0  3  0  0  0  0  0  0
   37.0410   27.5340   43.6800 C   0  0  0  0  0  0  0  0  0  0  0  0
   36.8800   27.2870   44.7180 H   0  0  0  0  0  0  0  0  0  0  0  0
   36.8640   26.5470   42.7330 C   0  0  0  0  0  0  0  0  0  0  0  0
   36.5700   25.5410   42.9940 H   0  0  0  0  0  0  0  0  0  0  0  0
   37.0730   26.8740   41.4130 C   0  0  0  0  0  3  0  0  0  0  0  0
   38.9790   31.9180   38.8920 C   0  0  1  0  0  0  0  0  0  0  0  0
   38.0030   31.8190   37.7950 C   0  0  0  0  0  0  0  0  0  0  0  0
   38.4100   30.5840   38.5140 C   0  0  2  0  0  0  0  0  0  0  0  0
   38.6480   32.4110   39.8250 H   0  0  0  0  0  0  0  0  0  0  0  0
   37.0070   32.2700   37.9750 H   0  0  0  0  0  0  0  0  0  0  0  0
   38.3970   31.9830   36.7520 H   0  0  0  0  0  0  0  0  0  0  0  0
   39.1140   29.8780   37.9910 H   0  0  0  0  0  0  0  0  0  0  0  0
   41.3670   32.3230   39.6060 C   0  0  0  0  0  0  0  0  0  0  0  0
   40.4000   32.1980   38.5760 C   0  0  0  0  0  0  0  0  0  0  0  0
   40.8370   32.3440   37.2510 C   0  0  0  0  0  0  0  0  0  0  0  0
   42.1620   32.5980   37.0280 N   0  0  0  0  0  0  0  0  0  0  0  0
   43.0490   32.7090   38.0570 C   0  0  0  0  0  0  0  0  0  0  0  0
   42.6640   32.5740   39.3470 N   0  0  0  0  0  0  0  0  0  0  0  0
   40.9940   32.2050   40.6120 H   0  0  0  0  0  0  0  0  0  0  0  0
   40.1270   32.2540   36.4400 H   0  0  0  0  0  0  0  0  0  0  0  0
   44.0980   32.9120   37.8420 H   0  0  0  0  0  0  0  0  0  0  0  0
  1  2  1  6  0  0  0
  1  6  1  0  0  0  0
  2  3  1  0  0  0  0
  2  8  1  0  0  0  0
  3  9  1  0  0  0  0
  4  5  1  0  0  0  0
  4  3  1  0  0  0  0
  4 11  1  0  0  0  0
  5 14  1  0  0  0  0
  5  6  1  0  0  0  0
  6 15  1  6  0  0  0
  6 16  1  0  0  0  0
  7  2  1  0  0  0  0
 10  3  1  0  0  0  0
 12  4  1  0  0  0  0
 13  5  1  0  0  0  0
 16 24  2  0  0  0  0
 16 17  1  0  0  0  0
 17 19  2  0  0  0  0
 18 17  1  0  0  0  0
 19 20  1  0  0  0  0
 20 21  1  0  0  0  0
 22 23  1  0  0  0  0
 22 20  2  0  0  0  0
 24 22  1  0  0  0  0
 25 28  1  1  0  0  0
 26 29  1  0  0  0  0
 26 27  1  0  0  0  0
 26 25  1  0  0  0  0
 27 31  1  6  0  0  0
 27 25  1  0  0  0  0
 27  1  1  0  0  0  0
 30 26  1  0  0  0  0
 32 38  1  0  0  0  0
 33 25  1  0  0  0  0
 33 32  2  0  0  0  0
 34 33  1  0  0  0  0
 35 34  2  0  0  0  0
 35 36  1  0  0  0  0
 36 37  2  0  0  0  0
 37 32  1  0  0  0  0
 39 34  1  0  0  0  0
 40 36  1  0  0  0  0
M  END
>  <minimizedAffinity>
-5.10782909

$$$$

 OpenBabel03252506443D

 40 43  0  0  1  0  0  0  0  0999 V2000
   36.7600   29.2840   38.6720 N   0  0  1  0  0  0  0  0  0  0  0  0
   37.8520   30.2190   38.5900 C   0  0  0  0  0  0  0  0  0  0  0  0
   38.5350   30.5450   39.8620 C   0  0  0  0  0  0  0  0  0  0  0  0
   37.5700   31.1950   40.8260 C   0  0  0  0  0  0  0  0  0  0  0  0
   36.1820   30.6940   40.6360 C   0  0  0  0  0  0  0  0  0  0  0  0
   36.1950   29.3410   40.0010 C   0  0  2  0  0  0  0  0  0  0  0  0
   37.5770   31.1640   38.0820 H   0  0  0  0  0  0  0  0  0  0  0  0
   38.6080   29.7450   37.9020 H   0  0  0  0  0  0  0  0  0  0  0  0
   39.1860   29.7990   40.3050 H   0  0  0  0  0  0  0  0  0  0  0  0
   39.2510   31.3970   39.5900 H   0  0  0  0  0  0  0  0  0  0  0  0
   37.9070   30.9080   41.8510 H   0  0  0  0  0  0  0  0  0  0  0  0
   37.5650   32.3000   40.7600 H   0  0  0  0  0  0  0  0  0  0  0  0
   35.5620   31.3730   40.0180 H   0  0  0  0  0  0  0  0  0  0  0  0
   35.6710   30.6000   41.5980 H   0  0  0  0  0  0  0  0  0  0  0  0
   35.0620   29.1910   39.7550 H   0  0  0  0  0  0  0  0  0  0  0  0
   36.4820   28.2030   40.8670 C   0  0  0  0  0  0  0  0  0  0  0  0
   36.8070   26.9710   40.2760 C   0  0  0  0  0  0  0  0  0  0  0  0
   36.8160   26.9230   39.1840 H   0  0  0  0  0  0  0  0  0  0  0  0
   37.1210   25.8050   40.9410 C   0  0  0  0  0  3  0  0  0  0  0  0
   37.1160   25.8430   42.3180 C   0  0  0  0  0  0  0  0  0  0  0  0
   37.3510   24.9620   42.8960 H   0  0  0  0  0  0  0  0  0  0  0  0
   36.8080   27.0070   42.9900 C   0  0  0  0  0  0  0  0  0  0  0  0
   36.7960   27.0680   44.0680 H   0  0  0  0  0  0  0  0  0  0  0  0
   36.5090   28.1230   42.2430 C   0  0  0  0  0  3  0  0  0  0  0  0
   34.9540   28.6220   36.9580 C   0  0  1  0  0  0  0  0  0  0  0  0
   36.1530   29.1360   36.2760 C   0  0  0  0  0  0  0  0  0  0  0  0
   35.8300   29.6300   37.6390 C   0  0  2  0  0  0  0  0  0  0  0  0
   34.9700   27.5680   37.2900 H   0  0  0  0  0  0  0  0  0  0  0  0
   36.9820   28.4170   36.1220 H   0  0  0  0  0  0  0  0  0  0  0  0
   35.9810   29.8280   35.4040 H   0  0  0  0  0  0  0  0  0  0  0  0
   35.4050   30.6670   37.7370 H   0  0  0  0  0  0  0  0  0  0  0  0
   33.3750   29.3370   35.1220 C   0  0  0  0  0  0  0  0  0  0  0  0
   33.6140   29.0500   36.4900 C   0  0  0  0  0  0  0  0  0  0  0  0
   32.5380   29.1790   37.3800 C   0  0  0  0  0  0  0  0  0  0  0  0
   31.3270   29.5750   36.8830 N   0  0  0  0  0  0  0  0  0  0  0  0
   31.1530   29.8390   35.5580 C   0  0  0  0  0  0  0  0  0  0  0  0
   32.1680   29.7240   34.6700 N   0  0  0  0  0  0  0  0  0  0  0  0
   34.2260   29.2260   34.4670 H   0  0  0  0  0  0  0  0  0  0  0  0
   32.6840   28.9680   38.4300 H   0  0  0  0  0  0  0  0  0  0  0  0
   30.1740   30.1520   35.1960 H   0  0  0  0  0  0  0  0  0  0  0  0
  1  2  1  1  0  0  0
  1  6  1  0  0  0  0
  2  3  1  0  0  0  0
  3  9  1  0  0  0  0
  3  4  1  0  0  0  0
  4 11  1  0  0  0  0
  5  4  1  0  0  0  0
  5 14  1  0  0  0  0
  6 15  1  6  0  0  0
  6  5  1  0  0  0  0
  6 16  1  0  0  0  0
  7  2  1  0  0  0  0
  8  2  1  0  0  0  0
 10  3  1  0  0  0  0
 12  4  1  0  0  0  0
 13  5  1  0  0  0  0
 16 24  1  0  0  0  0
 17 16  2  0  0  0  0
 17 19  1  0  0  0  0
 18 17  1  0  0  0  0
 19 20  2  0  0  0  0
 20 21  1  0  0  0  0
 20 22  1  0  0  0  0
 22 23  1  0  0  0  0
 24 22  2  0  0  0  0
 25 28  1  1  0  0  0
 25 27  1  0  0  0  0
 26 25  1  0  0  0  0
 26 27  1  0  0  0  0
 27 31  1  1  0  0  0
 27  1  1  0  0  0  0
 29 26  1  0  0  0  0
 30 26  1  0  0  0  0
 32 33  1  0  0  0  0
 33 25  1  0  0  0  0
 33 34  2  0  0  0  0
 34 39  1  0  0  0  0
 35 34  1  0  0  0  0
 36 35  2  0  0  0  0
 37 32  2  0  0  0  0
 37 36  1  0  0  0  0
 38 32  1  0  0  0  0
 40 36  1  0  0  0  0
M  END
>  <minimizedAffinity>
-5.09577131

$$$$

 OpenBabel03252506443D

 40 43  0  0  1  0  0  0  0  0999 V2000
   37.1960   28.7420   41.4690 N   0  0  1  0  0  0  0  0  0  0  0  0
   36.5430   27.9710   42.4960 C   0  0  0  0  0  0  0  0  0  0  0  0
   37.4180   27.3830   43.5330 C   0  0  0  0  0  0  0  0  0  0  0  0
   38.3920   26.4100   42.9110 C   0  0  0  0  0  0  0  0  0  0  0  0
   38.7580   26.8090   41.5240 C   0  0  0  0  0  0  0  0  0  0  0  0
   38.5570   28.2780   41.3320 C   0  0  2  0  0  0  0  0  0  0  0  0
   35.8880   27.1750   42.0900 H   0  0  0  0  0  0  0  0  0  0  0  0
   35.8310   28.6810   43.0040 H   0  0  0  0  0  0  0  0  0  0  0  0
   37.8490   28.0410   44.2800 H   0  0  0  0  0  0  0  0  0  0  0  0
   36.7230   26.7060   44.1430 H   0  0  0  0  0  0  0  0  0  0  0  0
   39.3150   26.4420   43.5380 H   0  0  0  0  0  0  0  0  0  0  0  0
   38.0190   25.3670   42.8970 H   0  0  0  0  0  0  0  0  0  0  0  0
   38.1770   26.2650   40.7540 H   0  0  0  0  0  0  0  0  0  0  0  0
   39.8110   26.5930   41.3260 H   0  0  0  0  0  0  0  0  0  0  0  0
   38.7000   28.3790   40.1760 H   0  0  0  0  0  0  0  0  0  0  0  0
   39.5910   29.1640   41.8550 C   0  0  0  0  0  0  0  0  0  0  0  0
   40.9130   28.6950   41.9160 C   0  0  0  0  0  0  0  0  0  0  0  0
   41.1010   27.6720   41.5780 H   0  0  0  0  0  0  0  0  0  0  0  0
   42.0090   29.4020   42.3630 C   0  0  0  0  0  3  0  0  0  0  0  0
   41.7950   30.6930   42.7940 C   0  0  0  0  0  0  0  0  0  0  0  0
   42.6130   31.2970   43.1560 H   0  0  0  0  0  0  0  0  0  0  0  0
   40.5310   31.2420   42.7710 C   0  0  0  0  0  0  0  0  0  0  0  0
   40.3320   32.2510   43.1020 H   0  0  0  0  0  0  0  0  0  0  0  0
   39.4970   30.4620   42.3080 C   0  0  0  0  0  3  0  0  0  0  0  0
   35.9370   29.7660   39.4690 C   0  0  1  0  0  0  0  0  0  0  0  0
   35.0060   29.0500   40.3560 C   0  0  0  0  0  0  0  0  0  0  0  0
   36.4190   28.5980   40.2750 C   0  0  2  0  0  0  0  0  0  0  0  0
   36.2300   30.7920   39.7600 H   0  0  0  0  0  0  0  0  0  0  0  0
   34.6440   29.6040   41.2460 H   0  0  0  0  0  0  0  0  0  0  0  0
   34.2150   28.4220   39.8570 H   0  0  0  0  0  0  0  0  0  0  0  0
   36.6380   27.6570   39.6970 H   0  0  0  0  0  0  0  0  0  0  0  0
   36.8550   29.9950   37.1280 C   0  0  0  0  0  0  0  0  0  0  0  0
   35.8060   29.6090   38.0000 C   0  0  0  0  0  0  0  0  0  0  0  0
   34.6460   29.0700   37.4260 C   0  0  0  0  0  0  0  0  0  0  0  0
   34.5900   28.9490   36.0650 N   0  0  0  0  0  0  0  0  0  0  0  0
   35.6290   29.3360   35.2730 C   0  0  0  0  0  0  0  0  0  0  0  0
   36.7640   29.8600   35.7920 N   0  0  0  0  0  0  0  0  0  0  0  0
   37.7320   30.4050   37.6070 H   0  0  0  0  0  0  0  0  0  0  0  0
   33.8260   28.7640   38.0610 H   0  0  0  0  0  0  0  0  0  0  0  0
   35.5510   29.2250   34.1910 H   0  0  0  0  0  0  0  0  0  0  0  0
  1  2  1  1  0  0  0
  2  8  1  0  0  0  0
  2  3  1  0  0  0  0
  3 10  1  0  0  0  0
  3  9  1  0  0  0  0
  4  3  1  0  0  0  0
  4 11  1  0  0  0  0
  5  4  1  0  0  0  0
  6 15  1  6  0  0  0
  6  1  1  0  0  0  0
  6  5  1  0  0  0  0
  6 16  1  0  0  0  0
  7  2  1  0  0  0  0
 12  4  1  0  0  0  0
 13  5  1  0  0  0  0
 14  5  1  0  0  0  0
 16 17  2  0  0  0  0
 16 24  1  0  0  0  0
 17 19  1  0  0  0  0
 18 17  1  0  0  0  0
 19 20  2  0  0  0  0
 20 21  1  0  0  0  0
 22 20  1  0  0  0  0
 22 23  1  0  0  0  0
 24 22  2  0  0  0  0
 25 28  1  1  0  0  0
 25 27  1  0  0  0  0
 25 26  1  0  0  0  0
 26 29  1  0  0  0  0
 27 31  1  6  0  0  0
 27 26  1  0  0  0  0
 27  1  1  0  0  0  0
 30 26  1  0  0  0  0
 32 38  1  0  0  0  0
 32 33  1  0  0  0  0
 33 25  1  0  0  0  0
 34 33  2  0  0  0  0
 34 39  1  0  0  0  0
 35 34  1  0  0  0  0
 36 37  1  0  0  0  0
 36 35  2  0  0  0  0
 37 32  2  0  0  0  0
 40 36  1  0  0  0  0
M  END
>  <minimizedAffinity>
-4.96434212

$$$$

 OpenBabel03252506443D

 40 43  0  0  1  0  0  0  0  0999 V2000
   38.1120   31.2500   39.6040 N   0  0  1  0  0  0  0  0  0  0  0  0
   37.0080   32.1640   39.4570 C   0  0  0  0  0  0  0  0  0  0  0  0
   37.3540   33.5720   39.1630 C   0  0  0  0  0  0  0  0  0  0  0  0
   38.1680   34.1610   40.2910 C   0  0  0  0  0  0  0  0  0  0  0  0
   39.0120   33.1310   40.9570 C   0  0  0  0  0  0  0  0  0  0  0  0
   39.2770   31.9920   40.0270 C   0  0  2  0  0  0  0  0  0  0  0  0
   36.3100   32.1420   40.3170 H   0  0  0  0  0  0  0  0  0  0  0  0
   36.3970   31.7690   38.5960 H   0  0  0  0  0  0  0  0  0  0  0  0
   37.7110   33.8200   38.1690 H   0  0  0  0  0  0  0  0  0  0  0  0
   36.3570   34.1320   39.2360 H   0  0  0  0  0  0  0  0  0  0  0  0
   38.8430   34.9220   39.8310 H   0  0  0  0  0  0  0  0  0  0  0  0
   37.5490   34.6670   41.0580 H   0  0  0  0  0  0  0  0  0  0  0  0
   38.5540   32.7360   41.8850 H   0  0  0  0  0  0  0  0  0  0  0  0
   39.9790   33.5530   41.2440 H   0  0  0  0  0  0  0  0  0  0  0  0
   39.7700   31.2160   40.7500 H   0  0  0  0  0  0  0  0  0  0  0  0
   40.3150   32.1830   39.0190 C   0  0  0  0  0  0  0  0  0  0  0  0
   40.6520   31.1040   38.1860 C   0  0  0  0  0  0  0  0  0  0  0  0
   40.1250   30.1600   38.3460 H   0  0  0  0  0  0  0  0  0  0  0  0
   41.5910   31.1170   37.1770 C   0  0  0  0  0  3  0  0  0  0  0  0
   42.2680   32.2970   36.9580 C   0  0  0  0  0  0  0  0  0  0  0  0
   43.0160   32.3690   36.1830 H   0  0  0  0  0  0  0  0  0  0  0  0
   42.0050   33.4120   37.7260 C   0  0  0  0  0  0  0  0  0  0  0  0
   42.5200   34.3500   37.5780 H   0  0  0  0  0  0  0  0  0  0  0  0
   41.0510   33.3070   38.7110 C   0  0  0  0  0  3  0  0  0  0  0  0
   36.8200   29.0930   40.1590 C   0  0  1  0  0  0  0  0  0  0  0  0
   36.2650   30.2350   40.9030 C   0  0  0  0  0  0  0  0  0  0  0  0
   37.7040   30.2420   40.5350 C   0  0  2  0  0  0  0  0  0  0  0  0
   36.5010   28.9670   39.1080 H   0  0  0  0  0  0  0  0  0  0  0  0
   35.5440   30.8780   40.3590 H   0  0  0  0  0  0  0  0  0  0  0  0
   35.9910   30.0510   41.9800 H   0  0  0  0  0  0  0  0  0  0  0  0
   38.4560   30.0400   41.3480 H   0  0  0  0  0  0  0  0  0  0  0  0
   36.6780   27.6480   42.2250 C   0  0  0  0  0  0  0  0  0  0  0  0
   37.0070   27.7960   40.8540 C   0  0  0  0  0  0  0  0  0  0  0  0
   37.5110   26.6750   40.1800 C   0  0  0  0  0  0  0  0  0  0  0  0
   37.6580   25.5080   40.8780 N   0  0  0  0  0  0  0  0  0  0  0  0
   37.3250   25.4210   42.1970 C   0  0  0  0  0  0  0  0  0  0  0  0
   36.8360   26.4820   42.8790 N   0  0  0  0  0  0  0  0  0  0  0  0
   36.2930   28.5330   42.7100 H   0  0  0  0  0  0  0  0  0  0  0  0
   37.7720   26.7510   39.1330 H   0  0  0  0  0  0  0  0  0  0  0  0
   37.4550   24.4750   42.7230 H   0  0  0  0  0  0  0  0  0  0  0  0
  1  2  1  1  0  0  0
  1  6  1  0  0  0  0
  1 27  1  0  0  0  0
  2  7  1  0  0  0  0
  3 10  1  0  0  0  0
  3  2  1  0  0  0  0
  3  4  1  0  0  0  0
  4  5  1  0  0  0  0
  4 12  1  0  0  0  0
  5 14  1  0  0  0  0
  5 13  1  0  0  0  0
  6 15  1  1  0  0  0
  6  5  1  0  0  0  0
  8  2  1  0  0  0  0
  9  3  1  0  0  0  0
 11  4  1  0  0  0  0
 16  6  1  0  0  0  0
 17 18  1  0  0  0  0
 17 16  2  0  0  0  0
 19 17  1  0  0  0  0
 20 19  2  0  0  0  0
 20 22  1  0  0  0  0
 21 20  1  0  0  0  0
 22 24  2  0  0  0  0
 23 22  1  0  0  0  0
 24 16  1  0  0  0  0
 25 28  1  6  0  0  0
 25 27  1  0  0  0  0
 25 33  1  0  0  0  0
 25 26  1  0  0  0  0
 26 30  1  0  0  0  0
 27 26  1  0  0  0  0
 27 31  1  1  0  0  0
 29 26  1  0  0  0  0
 32 38  1  0  0  0  0
 32 37  1  0  0  0  0
 33 32  2  0  0  0  0
 34 33  1  0  0  0  0
 34 35  2  0  0  0  0
 35 36  1  0  0  0  0
 36 40  1  0  0  0  0
 36 37  2  0  0  0  0
 39 34  1  0  0  0  0
M  END
>  <minimizedAffinity>
-4.95249844

$$$$

 OpenBabel03252506443D

 40 43  0  0  1  0  0  0  0  0999 V2000
   39.2720   28.7270   41.7610 N   0  0  1  0  0  0  0  0  0  0  0  0
   39.5450   27.5840   42.5930 C   0  0  0  0  0  0  0  0  0  0  0  0
   38.3930   26.7110   42.9100 C   0  0  0  0  0  0  0  0  0  0  0  0
   37.3450   27.4800   43.6790 C   0  0  0  0  0  0  0  0  0  0  0  0
   37.3250   28.9180   43.2940 C   0  0  0  0  0  0  0  0  0  0  0  0
   37.8850   29.1000   41.9200 C   0  0  2  0  0  0  0  0  0  0  0  0
   40.0600   27.8480   43.5380 H   0  0  0  0  0  0  0  0  0  0  0  0
   40.3010   26.9680   42.0280 H   0  0  0  0  0  0  0  0  0  0  0  0
   38.0010   26.0680   42.1290 H   0  0  0  0  0  0  0  0  0  0  0  0
   38.8000   25.9720   43.6850 H   0  0  0  0  0  0  0  0  0  0  0  0
   36.3590   27.0320   43.4070 H   0  0  0  0  0  0  0  0  0  0  0  0
   37.4670   27.4060   44.7780 H   0  0  0  0  0  0  0  0  0  0  0  0
   37.8900   29.5580   43.9980 H   0  0  0  0  0  0  0  0  0  0  0  0
   36.3000   29.3000   43.2840 H   0  0  0  0  0  0  0  0  0  0  0  0
   37.9710   30.2640   41.8600 H   0  0  0  0  0  0  0  0  0  0  0  0
   37.0060   28.7910   40.7970 C   0  0  0  0  0  0  0  0  0  0  0  0
   35.7250   29.3640   40.7680 C   0  0  0  0  0  0  0  0  0  0  0  0
   35.4410   30.0080   41.6040 H   0  0  0  0  0  0  0  0  0  0  0  0
   34.7790   29.1940   39.7800 C   0  0  0  0  0  3  0  0  0  0  0  0
   35.1150   28.3860   38.7150 C   0  0  0  0  0  0  0  0  0  0  0  0
   34.4160   28.2130   37.9110 H   0  0  0  0  0  0  0  0  0  0  0  0
   36.3510   27.7790   38.6560 C   0  0  0  0  0  0  0  0  0  0  0  0
   36.6430   27.1400   37.8350 H   0  0  0  0  0  0  0  0  0  0  0  0
   37.2320   28.0060   39.6870 C   0  0  0  0  0  3  0  0  0  0  0  0
   41.3720   30.1490   41.3110 C   0  0  1  0  0  0  0  0  0  0  0  0
   41.5600   29.3110   42.5050 C   0  0  0  0  0  0  0  0  0  0  0  0
   40.1900   29.7570   42.1440 C   0  0  2  0  0  0  0  0  0  0  0  0
   41.5300   29.6740   40.3250 H   0  0  0  0  0  0  0  0  0  0  0  0
   41.8720   28.2610   42.3310 H   0  0  0  0  0  0  0  0  0  0  0  0
   42.0630   29.7960   43.3890 H   0  0  0  0  0  0  0  0  0  0  0  0
   39.7250   30.5780   42.7580 H   0  0  0  0  0  0  0  0  0  0  0  0
   42.8940   31.9710   42.1690 C   0  0  0  0  0  0  0  0  0  0  0  0
   41.8210   31.5620   41.3380 C   0  0  0  0  0  0  0  0  0  0  0  0
   41.2040   32.5380   40.5410 C   0  0  0  0  0  0  0  0  0  0  0  0
   41.6680   33.8220   40.6110 N   0  0  0  0  0  0  0  0  0  0  0  0
   42.7040   34.1610   41.4280 C   0  0  0  0  0  0  0  0  0  0  0  0
   43.3240   33.2470   42.2100 N   0  0  0  0  0  0  0  0  0  0  0  0
   43.3440   31.1930   42.7660 H   0  0  0  0  0  0  0  0  0  0  0  0
   40.3820   32.2610   39.8950 H   0  0  0  0  0  0  0  0  0  0  0  0
   43.0480   35.1950   41.4590 H   0  0  0  0  0  0  0  0  0  0  0  0
  1  6  1  0  0  0  0
  1 27  1  0  0  0  0
  1  2  1  1  0  0  0
  2  3  1  0  0  0  0
  2  7  1  0  0  0  0
  3  4  1  0  0  0  0
  3 10  1  0  0  0  0
  4 12  1  0  0  0  0
  5  4  1  0  0  0  0
  5 13  1  0  0  0  0
  6 15  1  6  0  0  0
  6  5  1  0  0  0  0
  8  2  1  0  0  0  0
  9  3  1  0  0  0  0
 11  4  1  0  0  0  0
 14  5  1  0  0  0  0
 16  6  1  0  0  0  0
 17 16  1  0  0  0  0
 17 18  1  0  0  0  0
 19 17  2  0  0  0  0
 20 19  1  0  0  0  0
 21 20  1  0  0  0  0
 22 20  2  0  0  0  0
 22 24  1  0  0  0  0
 23 22  1  0  0  0  0
 24 16  2  0  0  0  0
 25 28  1  6  0  0  0
 25 33  1  0  0  0  0
 25 27  1  0  0  0  0
 25 26  1  0  0  0  0
 26 30  1  0  0  0  0
 27 26  1  0  0  0  0
 27 31  1  1  0  0  0
 29 26  1  0  0  0  0
 32 37  1  0  0  0  0
 32 38  1  0  0  0  0
 33 32  2  0  0  0  0
 34 35  2  0  0  0  0
 34 33  1  0  0  0  0
 35 36  1  0  0  0  0
 36 40  1  0  0  0  0
 36 37  2  0  0  0  0
 39 34  1  0  0  0  0
M  END
>  <minimizedAffinity>
-4.95121527

$$$$

 OpenBabel03252506443D

 40 43  0  0  1  0  0  0  0  0999 V2000
   37.3800   27.3660   41.4090 N   0  0  1  0  0  0  0  0  0  0  0  0
   36.5510   28.5080   41.6930 C   0  0  0  0  0  0  0  0  0  0  0  0
   35.4930   28.8160   40.7050 C   0  0  0  0  0  0  0  0  0  0  0  0
   36.1050   29.1350   39.3610 C   0  0  0  0  0  0  0  0  0  0  0  0
   37.3720   28.3860   39.1420 C   0  0  0  0  0  0  0  0  0  0  0  0
   37.4010   27.1490   39.9800 C   0  0  2  0  0  0  0  0  0  0  0  0
   37.1340   29.4300   41.8880 H   0  0  0  0  0  0  0  0  0  0  0  0
   36.0510   28.2850   42.6780 H   0  0  0  0  0  0  0  0  0  0  0  0
   34.6210   28.1730   40.6650 H   0  0  0  0  0  0  0  0  0  0  0  0
   35.0680   29.8230   41.0470 H   0  0  0  0  0  0  0  0  0  0  0  0
   35.3670   28.8060   38.5910 H   0  0  0  0  0  0  0  0  0  0  0  0
   36.2990   30.2160   39.2150 H   0  0  0  0  0  0  0  0  0  0  0  0
   38.2730   28.9900   39.3660 H   0  0  0  0  0  0  0  0  0  0  0  0
   37.4610   28.0760   38.0970 H   0  0  0  0  0  0  0  0  0  0  0  0
   38.5070   26.7990   39.8360 H   0  0  0  0  0  0  0  0  0  0  0  0
   36.6430   26.0000   39.4960 C   0  0  0  0  0  0  0  0  0  0  0  0
   36.5720   24.8520   40.3020 C   0  0  0  0  0  0  0  0  0  0  0  0
   37.1060   24.8720   41.2560 H   0  0  0  0  0  0  0  0  0  0  0  0
   35.8900   23.6910   40.0090 C   0  0  0  0  0  3  0  0  0  0  0  0
   35.2100   23.6430   38.8110 C   0  0  0  0  0  0  0  0  0  0  0  0
   34.6570   22.7610   38.5240 H   0  0  0  0  0  0  0  0  0  0  0  0
   35.2200   24.7220   37.9520 C   0  0  0  0  0  0  0  0  0  0  0  0
   34.6970   24.7150   37.0070 H   0  0  0  0  0  0  0  0  0  0  0  0
   35.9280   25.8400   38.3290 C   0  0  0  0  0  3  0  0  0  0  0  0
   39.1820   26.9570   43.2030 C   0  0  1  0  0  0  0  0  0  0  0  0
   38.6870   28.3410   43.2720 C   0  0  0  0  0  0  0  0  0  0  0  0
   38.6720   27.6320   41.9660 C   0  0  2  0  0  0  0  0  0  0  0  0
   38.5740   26.1730   43.6910 H   0  0  0  0  0  0  0  0  0  0  0  0
   37.7440   28.5030   43.8330 H   0  0  0  0  0  0  0  0  0  0  0  0
   39.4580   29.1460   43.4330 H   0  0  0  0  0  0  0  0  0  0  0  0
   39.4490   27.9180   41.2040 H   0  0  0  0  0  0  0  0  0  0  0  0
   41.5480   27.7600   43.5650 C   0  0  0  0  0  0  0  0  0  0  0  0
   40.6380   26.7010   43.3210 C   0  0  0  0  0  0  0  0  0  0  0  0
   41.1620   25.4050   43.2000 C   0  0  0  0  0  0  0  0  0  0  0  0
   42.5130   25.2370   43.3220 N   0  0  0  0  0  0  0  0  0  0  0  0
   43.3440   26.2920   43.5570 C   0  0  0  0  0  0  0  0  0  0  0  0
   42.8740   27.5540   43.6800 N   0  0  0  0  0  0  0  0  0  0  0  0
   41.1090   28.7420   43.6520 H   0  0  0  0  0  0  0  0  0  0  0  0
   40.4960   24.5730   43.0150 H   0  0  0  0  0  0  0  0  0  0  0  0
   44.4170   26.1210   43.6490 H   0  0  0  0  0  0  0  0  0  0  0  0
  1  2  1  6  0  0  0
  1 27  1  0  0  0  0
  2  7  1  0  0  0  0
  2  8  1  0  0  0  0
  3 10  1  0  0  0  0
  3  2  1  0  0  0  0
  4  3  1  0  0  0  0
  5  4  1  0  0  0  0
  5 13  1  0  0  0  0
  5  6  1  0  0  0  0
  6 15  1  6  0  0  0
  6  1  1  0  0  0  0
  9  3  1  0  0  0  0
 11  4  1  0  0  0  0
 12  4  1  0  0  0  0
 14  5  1  0  0  0  0
 16  6  1  0  0  0  0
 16 17  1  0  0  0  0
 17 18  1  0  0  0  0
 19 17  2  0  0  0  0
 20 19  1  0  0  0  0
 21 20  1  0  0  0  0
 22 24  1  0  0  0  0
 22 20  2  0  0  0  0
 23 22  1  0  0  0  0
 24 16  2  0  0  0  0
 25 26  1  0  0  0  0
 25 33  1  0  0  0  0
 25 28  1  1  0  0  0
 26 30  1  0  0  0  0
 26 29  1  0  0  0  0
 27 31  1  6  0  0  0
 27 25  1  0  0  0  0
 27 26  1  0  0  0  0
 32 38  1  0  0  0  0
 32 37  1  0  0  0  0
 33 32  2  0  0  0  0
 34 33  1  0  0  0  0
 34 35  2  0  0  0  0
 35 36  1  0  0  0  0
 36 40  1  0  0  0  0
 36 37  2  0  0  0  0
 39 34  1  0  0  0  0
M  END
>  <minimizedAffinity>
-4.88659573

$$$$
