
 OpenBabel03252509163D

 25 27  0  0  0  0  0  0  0  0999 V2000
   47.3420   33.4190   43.0710 C   0  0  0  0  0  0  0  0  0  0  0  0
   47.6870   32.0740   43.3650 C   0  0  0  0  0  0  0  0  0  0  0  0
   48.6310   31.4810   42.6110 C   0  0  0  0  0  0  0  0  0  0  0  0
   49.2440   32.2020   41.5620 C   0  0  0  0  0  0  0  0  0  0  0  0
   48.4190   33.8290   41.6610 S   0  0  0  0  0  0  0  0  0  0  0  0
   47.1940   31.5570   44.1770 H   0  0  0  0  0  0  0  0  0  0  0  0
   48.9810   30.4810   42.7240 H   0  0  0  0  0  0  0  0  0  0  0  0
   44.9380   34.7250   45.5610 C   0  0  0  0  0  0  0  0  0  0  0  0
   44.4700   35.8720   44.8640 C   0  0  0  0  0  0  0  0  0  0  0  0
   44.9890   36.1450   43.5930 C   0  0  0  0  0  0  0  0  0  0  0  0
   45.9220   35.2780   43.1000 N   0  0  0  0  0  0  0  0  0  0  0  0
   46.3380   34.1990   43.7990 C   0  0  0  0  0  0  0  0  0  0  0  0
   45.8490   33.9160   45.0340 N   0  0  0  0  0  0  0  0  0  0  0  0
   44.5280   34.5240   46.5480 H   0  0  0  0  0  0  0  0  0  0  0  0
   43.7270   36.5480   45.2770 H   0  0  0  0  0  0  0  0  0  0  0  0
   44.6910   36.9900   42.9970 H   0  0  0  0  0  0  0  0  0  0  0  0
   50.2690   31.8590   40.5910 C   0  0  0  0  0  0  0  0  0  0  0  0
   51.5590   31.8020   41.0610 C   0  0  0  0  0  0  0  0  0  0  0  0
   51.8190   31.9990   42.0890 H   0  0  0  0  0  0  0  0  0  0  0  0
   52.5140   31.4660   40.0960 C   0  0  0  0  0  3  0  0  0  0  0  0
   52.1320   31.2190   38.7720 C   0  0  0  0  0  0  0  0  0  0  0  0
   52.9480   30.9690   38.1040 H   0  0  0  0  0  0  0  0  0  0  0  0
   50.8050   31.2980   38.3800 C   0  0  0  0  0  0  0  0  0  0  0  0
   50.5490   31.1000   37.3500 H   0  0  0  0  0  0  0  0  0  0  0  0
   49.8190   31.6300   39.3160 C   0  0  0  0  0  3  0  0  0  0  0  0
  1  2  2  0  0  0  0
  1 12  1  0  0  0  0
  2  6  1  0  0  0  0
  3  7  1  0  0  0  0
  3  2  1  0  0  0  0
  4  5  1  0  0  0  0
  4  3  2  0  0  0  0
  5  1  1  0  0  0  0
  8 14  1  0  0  0  0
  9 15  1  0  0  0  0
  9  8  2  0  0  0  0
 10  9  1  0  0  0  0
 11 10  2  0  0  0  0
 11 12  1  0  0  0  0
 12 13  2  0  0  0  0
 13  8  1  0  0  0  0
 16 10  1  0  0  0  0
 17 18  1  0  0  0  0
 17  4  1  0  0  0  0
 18 19  1  0  0  0  0
 20 18  2  0  0  0  0
 21 20  1  0  0  0  0
 22 21  1  0  0  0  0
 23 21  2  0  0  0  0
 23 25  1  0  0  0  0
 24 23  1  0  0  0  0
 25 17  2  0  0  0  0
M  END
>  <minimizedAffinity>
-4.36129189

>  <minimizedRMSD>
7.42699432

$$$$
