
 OpenBabel03252506533D

 31 34  0  0  0  0  0  0  0  0999 V2000
   37.9970   30.7330   40.3180 C   0  0  0  0  0  0  0  0  0  0  0  0
   38.9760   30.9470   41.2800 C   0  0  0  0  0  0  0  0  0  0  0  0
   39.0590   30.1960   42.4510 C   0  0  0  0  0  0  0  0  0  0  0  0
   38.1300   29.1810   42.6890 C   0  0  0  0  0  0  0  0  0  0  0  0
   37.9040   28.2770   43.6790 N   0  0  0  0  0  0  0  0  0  0  0  0
   36.8070   27.5280   43.3240 C   0  0  0  0  0  0  0  0  0  0  0  0
   36.3880   27.9890   42.1290 N   0  0  0  0  0  0  0  0  0  0  0  0
   37.1680   28.9970   41.7080 C   0  0  0  0  0  0  0  0  0  0  0  0
   37.0630   29.7230   40.5430 C   0  0  0  0  0  0  0  0  0  0  0  0
   37.9380   31.3190   39.4130 H   0  0  0  0  0  0  0  0  0  0  0  0
   39.8130   30.3570   43.1970 H   0  0  0  0  0  0  0  0  0  0  0  0
   38.5140   28.2340   44.5300 H   0  0  0  0  0  0  0  0  0  0  0  0
   36.4090   26.7280   43.9430 H   0  0  0  0  0  0  0  0  0  0  0  0
   42.1470   32.8000   41.3270 C   0  0  0  0  0  0  0  0  0  0  0  0
   41.8220   33.9940   40.6860 C   0  0  0  0  0  0  0  0  0  0  0  0
   40.4870   34.1580   40.2330 C   0  0  0  0  0  0  0  0  0  0  0  0
   39.6260   33.1270   40.4620 N   0  0  0  0  0  0  0  0  0  0  0  0
   39.9650   31.9880   41.0810 C   0  0  0  0  0  0  0  0  0  0  0  0
   41.2280   31.8360   41.5100 N   0  0  0  0  0  0  0  0  0  0  0  0
   43.1830   32.7070   41.6640 H   0  0  0  0  0  0  0  0  0  0  0  0
   42.4740   34.8220   40.4900 H   0  0  0  0  0  0  0  0  0  0  0  0
   40.0990   35.0280   39.7220 H   0  0  0  0  0  0  0  0  0  0  0  0
   36.0260   29.4680   39.5650 C   0  0  0  0  0  0  0  0  0  0  0  0
   34.6850   29.2120   39.7710 C   0  0  0  0  0  0  0  0  0  0  0  0
   34.3970   29.2060   40.8130 H   0  0  0  0  0  0  0  0  0  0  0  0
   33.8510   28.9930   38.6950 C   0  0  0  0  0  3  0  0  0  0  0  0
   34.2980   29.0170   37.3900 C   0  0  0  0  0  0  0  0  0  0  0  0
   33.5970   28.8390   36.5810 H   0  0  0  0  0  0  0  0  0  0  0  0
   35.6580   29.2770   37.1840 C   0  0  0  0  0  0  0  0  0  0  0  0
   36.0300   29.3000   36.1510 H   0  0  0  0  0  0  0  0  0  0  0  0
   36.4980   29.4970   38.2570 C   0  0  0  0  0  3  0  0  0  0  0  0
  1  9  2  0  0  0  0
  1  2  1  0  0  0  0
  2  3  2  0  0  0  0
  3  4  1  0  0  0  0
  3 11  1  0  0  0  0
  4  5  1  0  0  0  0
  5 12  1  0  0  0  0
  6  5  1  0  0  0  0
  6 13  1  0  0  0  0
  7  6  2  0  0  0  0
  8  7  1  0  0  0  0
  8  4  2  0  0  0  0
  9  8  1  0  0  0  0
 10  1  1  0  0  0  0
 14 19  1  0  0  0  0
 14 20  1  0  0  0  0
 15 14  2  0  0  0  0
 16 17  2  0  0  0  0
 16 15  1  0  0  0  0
 17 18  1  0  0  0  0
 18  2  1  0  0  0  0
 18 19  2  0  0  0  0
 21 15  1  0  0  0  0
 22 16  1  0  0  0  0
 23 24  1  0  0  0  0
 23  9  1  0  0  0  0
 24 25  1  0  0  0  0
 26 24  2  0  0  0  0
 27 26  1  0  0  0  0
 28 27  1  0  0  0  0
 29 27  2  0  0  0  0
 29 31  1  0  0  0  0
 30 29  1  0  0  0  0
 31 23  2  0  0  0  0
M  END
>  <minimizedAffinity>
-5.80797482

$$$$

 OpenBabel03252506533D

 31 34  0  0  0  0  0  0  0  0999 V2000
   36.5980   30.4890   38.7420 C   0  0  0  0  0  0  0  0  0  0  0  0
   35.6670   29.4590   38.7800 C   0  0  0  0  0  0  0  0  0  0  0  0
   35.4870   28.6450   39.8970 C   0  0  0  0  0  0  0  0  0  0  0  0
   36.2630   28.8560   41.0380 C   0  0  0  0  0  0  0  0  0  0  0  0
   36.3650   28.2850   42.2680 N   0  0  0  0  0  0  0  0  0  0  0  0
   37.3410   28.9570   42.9650 C   0  0  0  0  0  0  0  0  0  0  0  0
   37.8120   29.9200   42.1490 N   0  0  0  0  0  0  0  0  0  0  0  0
   37.1820   29.8910   40.9640 C   0  0  0  0  0  0  0  0  0  0  0  0
   37.3800   30.7100   39.8760 C   0  0  0  0  0  0  0  0  0  0  0  0
   36.7330   31.1150   37.8740 H   0  0  0  0  0  0  0  0  0  0  0  0
   34.7690   27.8480   39.9300 H   0  0  0  0  0  0  0  0  0  0  0  0
   35.7610   27.4750   42.5470 H   0  0  0  0  0  0  0  0  0  0  0  0
   37.6250   28.7030   43.9830 H   0  0  0  0  0  0  0  0  0  0  0  0
   32.7540   28.6830   36.6800 C   0  0  0  0  0  0  0  0  0  0  0  0
   33.2830   28.7070   35.3910 C   0  0  0  0  0  0  0  0  0  0  0  0
   34.6650   28.9960   35.2480 C   0  0  0  0  0  0  0  0  0  0  0  0
   35.3690   29.2280   36.3920 N   0  0  0  0  0  0  0  0  0  0  0  0
   34.8360   29.1990   37.6210 C   0  0  0  0  0  0  0  0  0  0  0  0
   33.5280   28.9250   37.7530 N   0  0  0  0  0  0  0  0  0  0  0  0
   31.6880   28.4580   36.7540 H   0  0  0  0  0  0  0  0  0  0  0  0
   32.7580   28.5300   34.4730 H   0  0  0  0  0  0  0  0  0  0  0  0
   35.2030   29.0470   34.3120 H   0  0  0  0  0  0  0  0  0  0  0  0
   38.3630   31.7740   39.8780 C   0  0  0  0  0  0  0  0  0  0  0  0
   39.7220   31.6980   39.6460 C   0  0  0  0  0  0  0  0  0  0  0  0
   40.0740   30.6970   39.4370 H   0  0  0  0  0  0  0  0  0  0  0  0
   40.4950   32.8380   39.6930 C   0  0  0  0  0  3  0  0  0  0  0  0
   39.9680   34.0830   39.9680 C   0  0  0  0  0  0  0  0  0  0  0  0
   40.6230   34.9480   39.9920 H   0  0  0  0  0  0  0  0  0  0  0  0
   38.5900   34.1580   40.2030 C   0  0  0  0  0  0  0  0  0  0  0  0
   38.1540   35.1410   40.4220 H   0  0  0  0  0  0  0  0  0  0  0  0
   37.8110   33.0190   40.1570 C   0  0  0  0  0  3  0  0  0  0  0  0
  1  2  2  0  0  0  0
  1  9  1  0  0  0  0
  2  3  1  0  0  0  0
  3 11  1  0  0  0  0
  3  4  2  0  0  0  0
  4  5  1  0  0  0  0
  5 12  1  0  0  0  0
  5  6  1  0  0  0  0
  6 13  1  0  0  0  0
  7  6  2  0  0  0  0
  8  4  1  0  0  0  0
  8  7  1  0  0  0  0
  9 23  1  0  0  0  0
  9  8  2  0  0  0  0
 10  1  1  0  0  0  0
 14 20  1  0  0  0  0
 14 19  1  0  0  0  0
 15 14  2  0  0  0  0
 16 15  1  0  0  0  0
 16 17  2  0  0  0  0
 17 18  1  0  0  0  0
 18 19  2  0  0  0  0
 18  2  1  0  0  0  0
 21 15  1  0  0  0  0
 22 16  1  0  0  0  0
 23 31  1  0  0  0  0
 24 26  1  0  0  0  0
 24 23  2  0  0  0  0
 25 24  1  0  0  0  0
 26 27  2  0  0  0  0
 27 28  1  0  0  0  0
 27 29  1  0  0  0  0
 29 30  1  0  0  0  0
 31 29  2  0  0  0  0
M  END
>  <minimizedAffinity>
-5.58659983

$$$$

 OpenBabel03252506533D

 31 34  0  0  0  0  0  0  0  0999 V2000
   37.7340   29.0790   40.0150 C   0  0  0  0  0  0  0  0  0  0  0  0
   38.4370   29.4390   41.1580 C   0  0  0  0  0  0  0  0  0  0  0  0
   38.6500   30.7670   41.5240 C   0  0  0  0  0  0  0  0  0  0  0  0
   38.1460   31.7940   40.7250 C   0  0  0  0  0  0  0  0  0  0  0  0
   38.1560   33.1540   40.7610 N   0  0  0  0  0  0  0  0  0  0  0  0
   37.4720   33.6090   39.6590 C   0  0  0  0  0  0  0  0  0  0  0  0
   37.0600   32.5240   38.9760 N   0  0  0  0  0  0  0  0  0  0  0  0
   37.4520   31.3970   39.5920 C   0  0  0  0  0  0  0  0  0  0  0  0
   37.2260   30.0950   39.2070 C   0  0  0  0  0  0  0  0  0  0  0  0
   37.5720   28.0480   39.7370 H   0  0  0  0  0  0  0  0  0  0  0  0
   39.1920   31.0510   42.4050 H   0  0  0  0  0  0  0  0  0  0  0  0
   38.6300   33.6770   41.5350 H   0  0  0  0  0  0  0  0  0  0  0  0
   37.3280   34.6650   39.4440 H   0  0  0  0  0  0  0  0  0  0  0  0
   38.8110   26.3150   43.0520 C   0  0  0  0  0  0  0  0  0  0  0  0
   40.0460   26.4740   43.6780 C   0  0  0  0  0  0  0  0  0  0  0  0
   40.7570   27.6790   43.4400 C   0  0  0  0  0  0  0  0  0  0  0  0
   40.1700   28.5900   42.6130 N   0  0  0  0  0  0  0  0  0  0  0  0
   38.9800   28.4110   42.0230 C   0  0  0  0  0  0  0  0  0  0  0  0
   38.3100   27.2700   42.2500 N   0  0  0  0  0  0  0  0  0  0  0  0
   38.2910   25.3760   43.2570 H   0  0  0  0  0  0  0  0  0  0  0  0
   40.5350   25.7790   44.3320 H   0  0  0  0  0  0  0  0  0  0  0  0
   41.7210   27.9340   43.8580 H   0  0  0  0  0  0  0  0  0  0  0  0
   36.4870   29.7610   38.0070 C   0  0  0  0  0  0  0  0  0  0  0  0
   36.8880   29.8580   36.6890 C   0  0  0  0  0  0  0  0  0  0  0  0
   37.8920   30.2380   36.5650 H   0  0  0  0  0  0  0  0  0  0  0  0
   36.0280   29.4860   35.6770 C   0  0  0  0  0  3  0  0  0  0  0  0
   34.7560   29.0090   35.9200 C   0  0  0  0  0  0  0  0  0  0  0  0
   34.1220   28.7300   35.0850 H   0  0  0  0  0  0  0  0  0  0  0  0
   34.3530   28.9120   37.2560 C   0  0  0  0  0  0  0  0  0  0  0  0
   33.3430   28.5340   37.4670 H   0  0  0  0  0  0  0  0  0  0  0  0
   35.2090   29.2830   38.2740 C   0  0  0  0  0  3  0  0  0  0  0  0
  1  2  1  0  0  0  0
  2  3  2  0  0  0  0
  2 18  1  0  0  0  0
  3 11  1  0  0  0  0
  4  5  1  0  0  0  0
  4  3  1  0  0  0  0
  5 12  1  0  0  0  0
  6  5  1  0  0  0  0
  7  8  1  0  0  0  0
  7  6  2  0  0  0  0
  8  4  2  0  0  0  0
  9  8  1  0  0  0  0
  9  1  2  0  0  0  0
 10  1  1  0  0  0  0
 13  6  1  0  0  0  0
 14 20  1  0  0  0  0
 14 15  1  0  0  0  0
 15 21  1  0  0  0  0
 16 15  2  0  0  0  0
 16 22  1  0  0  0  0
 17 16  1  0  0  0  0
 18 19  1  0  0  0  0
 18 17  2  0  0  0  0
 19 14  2  0  0  0  0
 23 31  1  0  0  0  0
 23  9  1  0  0  0  0
 24 23  2  0  0  0  0
 25 24  1  0  0  0  0
 26 27  2  0  0  0  0
 26 24  1  0  0  0  0
 27 29  1  0  0  0  0
 28 27  1  0  0  0  0
 29 30  1  0  0  0  0
 29 31  2  0  0  0  0
M  END
>  <minimizedAffinity>
-5.58325911

$$$$

 OpenBabel03252506533D

 31 34  0  0  0  0  0  0  0  0999 V2000
   37.1310   29.2570   38.9720 C   0  0  0  0  0  0  0  0  0  0  0  0
   36.9850   30.0250   37.8230 C   0  0  0  0  0  0  0  0  0  0  0  0
   37.3250   31.3760   37.7720 C   0  0  0  0  0  0  0  0  0  0  0  0
   37.8360   32.0040   38.9090 C   0  0  0  0  0  0  0  0  0  0  0  0
   38.2610   33.2570   39.2240 N   0  0  0  0  0  0  0  0  0  0  0  0
   38.6570   33.2490   40.5400 C   0  0  0  0  0  0  0  0  0  0  0  0
   38.4670   31.9970   40.9990 N   0  0  0  0  0  0  0  0  0  0  0  0
   37.9670   31.2070   40.0360 C   0  0  0  0  0  0  0  0  0  0  0  0
   37.6400   29.8730   40.1150 C   0  0  0  0  0  0  0  0  0  0  0  0
   36.8660   28.2110   39.0050 H   0  0  0  0  0  0  0  0  0  0  0  0
   37.2140   31.9730   36.8880 H   0  0  0  0  0  0  0  0  0  0  0  0
   38.2500   34.0320   38.5180 H   0  0  0  0  0  0  0  0  0  0  0  0
   39.0440   34.1280   41.0490 H   0  0  0  0  0  0  0  0  0  0  0  0
   35.3680   27.6580   35.5270 C   0  0  0  0  0  0  0  0  0  0  0  0
   35.4720   28.2980   34.2930 C   0  0  0  0  0  0  0  0  0  0  0  0
   36.1110   29.5650   34.2580 C   0  0  0  0  0  0  0  0  0  0  0  0
   36.5740   30.0570   35.4420 N   0  0  0  0  0  0  0  0  0  0  0  0
   36.4600   29.4210   36.6160 C   0  0  0  0  0  0  0  0  0  0  0  0
   35.8560   28.2220   36.6460 N   0  0  0  0  0  0  0  0  0  0  0  0
   34.8710   26.6860   35.5190 H   0  0  0  0  0  0  0  0  0  0  0  0
   35.1200   27.9390   33.3470 H   0  0  0  0  0  0  0  0  0  0  0  0
   36.2600   30.1700   33.3740 H   0  0  0  0  0  0  0  0  0  0  0  0
   37.8070   29.1070   41.3330 C   0  0  0  0  0  0  0  0  0  0  0  0
   38.9580   28.8820   42.0620 C   0  0  0  0  0  0  0  0  0  0  0  0
   39.8380   29.3520   41.6460 H   0  0  0  0  0  0  0  0  0  0  0  0
   38.9090   28.1150   43.2080 C   0  0  0  0  0  3  0  0  0  0  0  0
   37.7420   27.5470   43.6740 C   0  0  0  0  0  0  0  0  0  0  0  0
   37.7610   26.9530   44.5820 H   0  0  0  0  0  0  0  0  0  0  0  0
   36.5770   27.7770   42.9320 C   0  0  0  0  0  0  0  0  0  0  0  0
   35.6390   27.3320   43.2900 H   0  0  0  0  0  0  0  0  0  0  0  0
   36.6190   28.5430   41.7850 C   0  0  0  0  0  3  0  0  0  0  0  0
  1 10  1  0  0  0  0
  1  9  1  0  0  0  0
  2  1  2  0  0  0  0
  3  2  1  0  0  0  0
  3  4  2  0  0  0  0
  4  5  1  0  0  0  0
  4  8  1  0  0  0  0
  5  6  1  0  0  0  0
  6  7  2  0  0  0  0
  6 13  1  0  0  0  0
  8  9  2  0  0  0  0
  8  7  1  0  0  0  0
  9 23  1  0  0  0  0
 11  3  1  0  0  0  0
 12  5  1  0  0  0  0
 14 19  1  0  0  0  0
 15 14  2  0  0  0  0
 16 15  1  0  0  0  0
 16 17  2  0  0  0  0
 17 18  1  0  0  0  0
 18 19  2  0  0  0  0
 18  2  1  0  0  0  0
 20 14  1  0  0  0  0
 21 15  1  0  0  0  0
 22 16  1  0  0  0  0
 23 31  2  0  0  0  0
 23 24  1  0  0  0  0
 24 26  2  0  0  0  0
 25 24  1  0  0  0  0
 26 27  1  0  0  0  0
 27 28  1  0  0  0  0
 29 30  1  0  0  0  0
 29 27  2  0  0  0  0
 31 29  1  0  0  0  0
M  END
>  <minimizedAffinity>
-5.52402782

$$$$

 OpenBabel03252506533D

 31 34  0  0  0  0  0  0  0  0999 V2000
   35.8500   27.1830   38.8630 C   0  0  0  0  0  0  0  0  0  0  0  0
   35.2830   28.4440   38.7310 C   0  0  0  0  0  0  0  0  0  0  0  0
   35.4360   29.4440   39.6910 C   0  0  0  0  0  0  0  0  0  0  0  0
   36.1850   29.1900   40.8400 C   0  0  0  0  0  0  0  0  0  0  0  0
   36.5380   29.8920   41.9510 N   0  0  0  0  0  0  0  0  0  0  0  0
   37.3060   29.0710   42.7420 C   0  0  0  0  0  0  0  0  0  0  0  0
   37.4050   27.8900   42.1010 N   0  0  0  0  0  0  0  0  0  0  0  0
   36.7350   27.9210   40.9390 C   0  0  0  0  0  0  0  0  0  0  0  0
   36.6010   26.9160   40.0070 C   0  0  0  0  0  0  0  0  0  0  0  0
   35.7280   26.4130   38.1170 H   0  0  0  0  0  0  0  0  0  0  0  0
   34.9990   30.4190   39.5940 H   0  0  0  0  0  0  0  0  0  0  0  0
   36.2300   30.8840   42.0920 H   0  0  0  0  0  0  0  0  0  0  0  0
   37.7230   29.3850   43.6950 H   0  0  0  0  0  0  0  0  0  0  0  0
   34.3310   29.1080   35.2460 C   0  0  0  0  0  0  0  0  0  0  0  0
   32.9640   29.3640   35.3390 C   0  0  0  0  0  0  0  0  0  0  0  0
   32.3660   29.3060   36.6240 C   0  0  0  0  0  0  0  0  0  0  0  0
   33.1830   29.0020   37.6720 N   0  0  0  0  0  0  0  0  0  0  0  0
   34.4960   28.7590   37.5560 C   0  0  0  0  0  0  0  0  0  0  0  0
   35.0590   28.8150   36.3390 N   0  0  0  0  0  0  0  0  0  0  0  0
   34.7590   29.1610   34.2430 H   0  0  0  0  0  0  0  0  0  0  0  0
   32.2960   29.6050   34.5360 H   0  0  0  0  0  0  0  0  0  0  0  0
   31.3220   29.4810   36.8410 H   0  0  0  0  0  0  0  0  0  0  0  0
   37.2100   25.6130   40.1830 C   0  0  0  0  0  0  0  0  0  0  0  0
   36.7610   24.5420   40.9300 C   0  0  0  0  0  0  0  0  0  0  0  0
   35.8280   24.7280   41.4430 H   0  0  0  0  0  0  0  0  0  0  0  0
   37.4920   23.3740   40.9700 C   0  0  0  0  0  3  0  0  0  0  0  0
   38.6790   23.2160   40.2840 C   0  0  0  0  0  0  0  0  0  0  0  0
   39.2130   22.2740   40.3510 H   0  0  0  0  0  0  0  0  0  0  0  0
   39.1320   24.3030   39.5280 C   0  0  0  0  0  0  0  0  0  0  0  0
   40.0750   24.1940   38.9760 H   0  0  0  0  0  0  0  0  0  0  0  0
   38.4040   25.4750   39.4850 C   0  0  0  0  0  3  0  0  0  0  0  0
  1  9  1  0  0  0  0
  2  1  2  0  0  0  0
  2  3  1  0  0  0  0
  3  4  2  0  0  0  0
  4  8  1  0  0  0  0
  4  5  1  0  0  0  0
  5 12  1  0  0  0  0
  5  6  1  0  0  0  0
  6 13  1  0  0  0  0
  7  6  2  0  0  0  0
  8  7  1  0  0  0  0
  9 23  1  0  0  0  0
  9  8  2  0  0  0  0
 10  1  1  0  0  0  0
 11  3  1  0  0  0  0
 14 15  2  0  0  0  0
 14 19  1  0  0  0  0
 15 16  1  0  0  0  0
 16 22  1  0  0  0  0
 16 17  2  0  0  0  0
 18 17  1  0  0  0  0
 18  2  1  0  0  0  0
 19 18  2  0  0  0  0
 20 14  1  0  0  0  0
 21 15  1  0  0  0  0
 23 24  1  0  0  0  0
 24 26  2  0  0  0  0
 24 25  1  0  0  0  0
 27 28  1  0  0  0  0
 27 26  1  0  0  0  0
 29 27  2  0  0  0  0
 30 29  1  0  0  0  0
 31 29  1  0  0  0  0
 31 23  2  0  0  0  0
M  END
>  <minimizedAffinity>
-5.42185974

$$$$

 OpenBabel03252506533D

 31 34  0  0  0  0  0  0  0  0999 V2000
   37.6870   29.6040   39.9950 C   0  0  0  0  0  0  0  0  0  0  0  0
   37.6590   30.7130   39.1600 C   0  0  0  0  0  0  0  0  0  0  0  0
   36.9410   30.7390   37.9650 C   0  0  0  0  0  0  0  0  0  0  0  0
   36.2120   29.6160   37.5730 C   0  0  0  0  0  0  0  0  0  0  0  0
   35.4230   29.2850   36.5150 N   0  0  0  0  0  0  0  0  0  0  0  0
   34.9810   27.9970   36.7070 C   0  0  0  0  0  0  0  0  0  0  0  0
   35.5060   27.5710   37.8710 N   0  0  0  0  0  0  0  0  0  0  0  0
   36.2640   28.5280   38.4300 C   0  0  0  0  0  0  0  0  0  0  0  0
   36.9640   28.4740   39.6140 C   0  0  0  0  0  0  0  0  0  0  0  0
   38.2460   29.5900   40.9190 H   0  0  0  0  0  0  0  0  0  0  0  0
   36.9160   31.5930   37.3170 H   0  0  0  0  0  0  0  0  0  0  0  0
   35.2410   29.9610   35.7350 H   0  0  0  0  0  0  0  0  0  0  0  0
   34.3280   27.4830   36.0050 H   0  0  0  0  0  0  0  0  0  0  0  0
   38.4510   34.1100   40.3110 C   0  0  0  0  0  0  0  0  0  0  0  0
   39.8400   34.1610   40.2030 C   0  0  0  0  0  0  0  0  0  0  0  0
   40.5090   33.0040   39.7260 C   0  0  0  0  0  0  0  0  0  0  0  0
   39.7330   31.9290   39.4090 N   0  0  0  0  0  0  0  0  0  0  0  0
   38.3980   31.9060   39.5220 C   0  0  0  0  0  0  0  0  0  0  0  0
   37.7680   33.0020   39.9740 N   0  0  0  0  0  0  0  0  0  0  0  0
   37.9690   35.0170   40.6810 H   0  0  0  0  0  0  0  0  0  0  0  0
   40.4780   34.9880   40.4430 H   0  0  0  0  0  0  0  0  0  0  0  0
   41.5770   32.9040   39.5930 H   0  0  0  0  0  0  0  0  0  0  0  0
   36.9670   27.2970   40.4580 C   0  0  0  0  0  0  0  0  0  0  0  0
   36.9860   25.9670   40.0870 C   0  0  0  0  0  0  0  0  0  0  0  0
   36.9980   25.8110   39.0170 H   0  0  0  0  0  0  0  0  0  0  0  0
   36.9860   24.9820   41.0520 C   0  0  0  0  0  3  0  0  0  0  0  0
   36.9690   25.2630   42.4030 C   0  0  0  0  0  0  0  0  0  0  0  0
   36.9700   24.4480   43.1190 H   0  0  0  0  0  0  0  0  0  0  0  0
   36.9500   26.6120   42.7750 C   0  0  0  0  0  0  0  0  0  0  0  0
   36.9360   26.8540   43.8460 H   0  0  0  0  0  0  0  0  0  0  0  0
   36.9490   27.6030   41.8140 C   0  0  0  0  0  3  0  0  0  0  0  0
  1 10  1  0  0  0  0
  2 18  1  0  0  0  0
  2  1  2  0  0  0  0
  3  2  1  0  0  0  0
  4  3  2  0  0  0  0
  4  8  1  0  0  0  0
  5  6  1  0  0  0  0
  5  4  1  0  0  0  0
  6  7  2  0  0  0  0
  7  8  1  0  0  0  0
  8  9  2  0  0  0  0
  9  1  1  0  0  0  0
  9 23  1  0  0  0  0
 11  3  1  0  0  0  0
 12  5  1  0  0  0  0
 13  6  1  0  0  0  0
 14 20  1  0  0  0  0
 15 14  1  0  0  0  0
 15 21  1  0  0  0  0
 16 15  2  0  0  0  0
 17 18  2  0  0  0  0
 17 16  1  0  0  0  0
 18 19  1  0  0  0  0
 19 14  2  0  0  0  0
 22 16  1  0  0  0  0
 23 31  1  0  0  0  0
 24 23  2  0  0  0  0
 24 26  1  0  0  0  0
 25 24  1  0  0  0  0
 26 27  2  0  0  0  0
 27 29  1  0  0  0  0
 27 28  1  0  0  0  0
 29 30  1  0  0  0  0
 31 29  2  0  0  0  0
M  END
>  <minimizedAffinity>
-5.38781881

$$$$

 OpenBabel03252506533D

 31 34  0  0  0  0  0  0  0  0999 V2000
   39.0820   30.1680   37.9940 C   0  0  0  0  0  0  0  0  0  0  0  0
   40.2930   30.8320   37.8490 C   0  0  0  0  0  0  0  0  0  0  0  0
   40.5070   32.1230   38.3300 C   0  0  0  0  0  0  0  0  0  0  0  0
   39.4760   32.7950   38.9880 C   0  0  0  0  0  0  0  0  0  0  0  0
   39.3210   34.0150   39.5690 N   0  0  0  0  0  0  0  0  0  0  0  0
   38.0380   34.0890   40.0580 C   0  0  0  0  0  0  0  0  0  0  0  0
   37.4400   32.9180   39.7660 N   0  0  0  0  0  0  0  0  0  0  0  0
   38.2820   32.1020   39.1130 C   0  0  0  0  0  0  0  0  0  0  0  0
   38.0430   30.8280   38.6490 C   0  0  0  0  0  0  0  0  0  0  0  0
   38.9220   29.1680   37.6190 H   0  0  0  0  0  0  0  0  0  0  0  0
   41.4400   32.6410   38.2200 H   0  0  0  0  0  0  0  0  0  0  0  0
   40.1020   34.7140   39.5920 H   0  0  0  0  0  0  0  0  0  0  0  0
   37.6490   34.9630   40.5740 H   0  0  0  0  0  0  0  0  0  0  0  0
   43.3860   30.2860   35.9450 C   0  0  0  0  0  0  0  0  0  0  0  0
   43.4820   28.8960   35.8960 C   0  0  0  0  0  0  0  0  0  0  0  0
   42.4630   28.1410   36.5310 C   0  0  0  0  0  0  0  0  0  0  0  0
   41.4650   28.8400   37.1410 N   0  0  0  0  0  0  0  0  0  0  0  0
   41.3960   30.1780   37.1740 C   0  0  0  0  0  0  0  0  0  0  0  0
   42.3620   30.8900   36.5730 N   0  0  0  0  0  0  0  0  0  0  0  0
   44.1880   30.8370   35.4470 H   0  0  0  0  0  0  0  0  0  0  0  0
   44.2520   28.3170   35.4260 H   0  0  0  0  0  0  0  0  0  0  0  0
   42.4120   27.0610   36.5700 H   0  0  0  0  0  0  0  0  0  0  0  0
   36.7650   30.1700   38.8210 C   0  0  0  0  0  0  0  0  0  0  0  0
   36.1020   29.8590   39.9910 C   0  0  0  0  0  0  0  0  0  0  0  0
   36.6300   30.1570   40.8860 H   0  0  0  0  0  0  0  0  0  0  0  0
   34.8780   29.2230   39.9430 C   0  0  0  0  0  3  0  0  0  0  0  0
   34.2680   28.8740   38.7560 C   0  0  0  0  0  0  0  0  0  0  0  0
   33.3040   28.3760   38.7770 H   0  0  0  0  0  0  0  0  0  0  0  0
   34.9420   29.1910   37.5720 C   0  0  0  0  0  0  0  0  0  0  0  0
   34.4700   28.9210   36.6180 H   0  0  0  0  0  0  0  0  0  0  0  0
   36.1670   29.8270   37.6130 C   0  0  0  0  0  3  0  0  0  0  0  0
  1  9  1  0  0  0  0
  2  1  2  0  0  0  0
  2  3  1  0  0  0  0
  3  4  2  0  0  0  0
  4  8  1  0  0  0  0
  4  5  1  0  0  0  0
  5 12  1  0  0  0  0
  5  6  1  0  0  0  0
  6 13  1  0  0  0  0
  7  6  2  0  0  0  0
  8  7  1  0  0  0  0
  9 23  1  0  0  0  0
  9  8  2  0  0  0  0
 10  1  1  0  0  0  0
 11  3  1  0  0  0  0
 14 19  1  0  0  0  0
 15 14  2  0  0  0  0
 15 16  1  0  0  0  0
 16 22  1  0  0  0  0
 16 17  2  0  0  0  0
 17 18  1  0  0  0  0
 18  2  1  0  0  0  0
 19 18  2  0  0  0  0
 20 14  1  0  0  0  0
 21 15  1  0  0  0  0
 23 24  1  0  0  0  0
 24 25  1  0  0  0  0
 26 24  2  0  0  0  0
 27 28  1  0  0  0  0
 27 26  1  0  0  0  0
 29 31  1  0  0  0  0
 29 27  2  0  0  0  0
 30 29  1  0  0  0  0
 31 23  2  0  0  0  0
M  END
>  <minimizedAffinity>
-5.37447023

$$$$

 OpenBabel03252506533D

 31 34  0  0  0  0  0  0  0  0999 V2000
   35.5100   28.4980   39.1290 C   0  0  0  0  0  0  0  0  0  0  0  0
   35.2830   28.8280   37.7990 C   0  0  0  0  0  0  0  0  0  0  0  0
   36.2070   29.5320   37.0290 C   0  0  0  0  0  0  0  0  0  0  0  0
   37.4180   29.9320   37.5960 C   0  0  0  0  0  0  0  0  0  0  0  0
   38.5190   30.6090   37.1700 N   0  0  0  0  0  0  0  0  0  0  0  0
   39.3980   30.6870   38.2240 C   0  0  0  0  0  0  0  0  0  0  0  0
   38.8190   30.0610   39.2660 N   0  0  0  0  0  0  0  0  0  0  0  0
   37.6100   29.5870   38.9240 C   0  0  0  0  0  0  0  0  0  0  0  0
   36.7160   28.8930   39.7080 C   0  0  0  0  0  0  0  0  0  0  0  0
   34.7910   27.9530   39.7210 H   0  0  0  0  0  0  0  0  0  0  0  0
   36.0360   29.7900   36.0010 H   0  0  0  0  0  0  0  0  0  0  0  0
   38.5940   30.9700   36.1890 H   0  0  0  0  0  0  0  0  0  0  0  0
   40.3650   31.1790   38.1550 H   0  0  0  0  0  0  0  0  0  0  0  0
   32.7270   26.8310   36.0770 C   0  0  0  0  0  0  0  0  0  0  0  0
   31.6620   27.7220   35.9560 C   0  0  0  0  0  0  0  0  0  0  0  0
   31.8340   29.0310   36.4770 C   0  0  0  0  0  0  0  0  0  0  0  0
   33.0340   29.3120   37.0580 N   0  0  0  0  0  0  0  0  0  0  0  0
   34.0420   28.4350   37.1630 C   0  0  0  0  0  0  0  0  0  0  0  0
   33.8770   27.1980   36.6690 N   0  0  0  0  0  0  0  0  0  0  0  0
   32.5610   25.8330   35.6650 H   0  0  0  0  0  0  0  0  0  0  0  0
   30.7080   27.5330   35.5050 H   0  0  0  0  0  0  0  0  0  0  0  0
   31.0950   29.8200   36.4520 H   0  0  0  0  0  0  0  0  0  0  0  0
   36.9920   28.5690   41.0930 C   0  0  0  0  0  0  0  0  0  0  0  0
   37.3340   29.4150   42.1280 C   0  0  0  0  0  0  0  0  0  0  0  0
   37.3990   30.4550   41.8400 H   0  0  0  0  0  0  0  0  0  0  0  0
   37.5590   28.9060   43.3900 C   0  0  0  0  0  3  0  0  0  0  0  0
   37.4560   27.5610   43.6790 C   0  0  0  0  0  0  0  0  0  0  0  0
   37.6430   27.2150   44.6900 H   0  0  0  0  0  0  0  0  0  0  0  0
   37.1090   26.7050   42.6270 C   0  0  0  0  0  0  0  0  0  0  0  0
   37.0230   25.6310   42.8390 H   0  0  0  0  0  0  0  0  0  0  0  0
   36.8840   27.2090   41.3620 C   0  0  0  0  0  3  0  0  0  0  0  0
  1  9  1  0  0  0  0
  1 10  1  0  0  0  0
  2  1  2  0  0  0  0
  3  4  2  0  0  0  0
  3  2  1  0  0  0  0
  4  8  1  0  0  0  0
  5  4  1  0  0  0  0
  5  6  1  0  0  0  0
  6  7  2  0  0  0  0
  8  7  1  0  0  0  0
  8  9  2  0  0  0  0
  9 23  1  0  0  0  0
 11  3  1  0  0  0  0
 12  5  1  0  0  0  0
 13  6  1  0  0  0  0
 14 19  1  0  0  0  0
 15 14  2  0  0  0  0
 15 16  1  0  0  0  0
 16 17  2  0  0  0  0
 17 18  1  0  0  0  0
 18  2  1  0  0  0  0
 19 18  2  0  0  0  0
 20 14  1  0  0  0  0
 21 15  1  0  0  0  0
 22 16  1  0  0  0  0
 23 31  2  0  0  0  0
 23 24  1  0  0  0  0
 24 26  2  0  0  0  0
 25 24  1  0  0  0  0
 26 27  1  0  0  0  0
 27 28  1  0  0  0  0
 29 30  1  0  0  0  0
 29 27  2  0  0  0  0
 31 29  1  0  0  0  0
M  END
>  <minimizedAffinity>
-5.32114697

$$$$

 OpenBabel03252506533D

 31 34  0  0  0  0  0  0  0  0999 V2000
   38.3990   28.9130   41.2050 C   0  0  0  0  0  0  0  0  0  0  0  0
   39.1220   30.0850   41.3880 C   0  0  0  0  0  0  0  0  0  0  0  0
   40.3200   30.1290   42.0990 C   0  0  0  0  0  0  0  0  0  0  0  0
   40.8350   28.9590   42.6590 C   0  0  0  0  0  0  0  0  0  0  0  0
   41.9330   28.6280   43.3910 N   0  0  0  0  0  0  0  0  0  0  0  0
   41.8770   27.2790   43.6470 C   0  0  0  0  0  0  0  0  0  0  0  0
   40.7510   26.8160   43.0690 N   0  0  0  0  0  0  0  0  0  0  0  0
   40.0870   27.8090   42.4570 C   0  0  0  0  0  0  0  0  0  0  0  0
   38.9020   27.7370   41.7610 C   0  0  0  0  0  0  0  0  0  0  0  0
   37.4710   28.8850   40.6540 H   0  0  0  0  0  0  0  0  0  0  0  0
   40.8810   31.0320   42.2430 H   0  0  0  0  0  0  0  0  0  0  0  0
   42.6450   29.3470   43.6650 H   0  0  0  0  0  0  0  0  0  0  0  0
   42.6370   26.7510   44.2170 H   0  0  0  0  0  0  0  0  0  0  0  0
   38.7110   33.6620   40.6600 C   0  0  0  0  0  0  0  0  0  0  0  0
   37.6690   33.6750   39.7340 C   0  0  0  0  0  0  0  0  0  0  0  0
   37.1020   32.4290   39.3590 C   0  0  0  0  0  0  0  0  0  0  0  0
   37.6270   31.3120   39.9380 N   0  0  0  0  0  0  0  0  0  0  0  0
   38.6310   31.3270   40.8260 C   0  0  0  0  0  0  0  0  0  0  0  0
   39.1640   32.5070   41.1790 N   0  0  0  0  0  0  0  0  0  0  0  0
   39.1230   34.6370   40.9260 H   0  0  0  0  0  0  0  0  0  0  0  0
   37.2340   34.5330   39.2620 H   0  0  0  0  0  0  0  0  0  0  0  0
   36.2930   32.2930   38.6550 H   0  0  0  0  0  0  0  0  0  0  0  0
   38.1790   26.4930   41.5930 C   0  0  0  0  0  0  0  0  0  0  0  0
   37.2950   25.8820   42.4600 C   0  0  0  0  0  0  0  0  0  0  0  0
   37.1400   26.4270   43.3810 H   0  0  0  0  0  0  0  0  0  0  0  0
   36.7030   24.6860   42.1120 C   0  0  0  0  0  3  0  0  0  0  0  0
   36.9550   24.0520   40.9130 C   0  0  0  0  0  0  0  0  0  0  0  0
   36.4610   23.1120   40.6910 H   0  0  0  0  0  0  0  0  0  0  0  0
   37.8520   24.6730   40.0370 C   0  0  0  0  0  0  0  0  0  0  0  0
   38.0640   24.1820   39.0770 H   0  0  0  0  0  0  0  0  0  0  0  0
   38.4480   25.8710   40.3790 C   0  0  0  0  0  3  0  0  0  0  0  0
  1  2  2  0  0  0  0
  1  9  1  0  0  0  0
  2  3  1  0  0  0  0
  3 11  1  0  0  0  0
  3  4  2  0  0  0  0
  4  5  1  0  0  0  0
  5  6  1  0  0  0  0
  5 12  1  0  0  0  0
  6 13  1  0  0  0  0
  7  6  2  0  0  0  0
  8  4  1  0  0  0  0
  8  7  1  0  0  0  0
  9  8  2  0  0  0  0
 10  1  1  0  0  0  0
 14 20  1  0  0  0  0
 14 19  1  0  0  0  0
 15 14  2  0  0  0  0
 16 15  1  0  0  0  0
 16 17  2  0  0  0  0
 17 18  1  0  0  0  0
 18 19  2  0  0  0  0
 18  2  1  0  0  0  0
 21 15  1  0  0  0  0
 22 16  1  0  0  0  0
 23  9  1  0  0  0  0
 23 24  1  0  0  0  0
 24 25  1  0  0  0  0
 26 24  2  0  0  0  0
 27 26  1  0  0  0  0
 28 27  1  0  0  0  0
 29 31  1  0  0  0  0
 29 27  2  0  0  0  0
 30 29  1  0  0  0  0
 31 23  2  0  0  0  0
M  END
>  <minimizedAffinity>
-5.22158957

$$$$
