
 OpenBabel03252509173D

 25 27  0  0  0  0  0  0  0  0999 V2000
   37.9610   30.5440   40.6630 C   0  0  0  0  0  0  0  0  0  0  0  0
   36.5830   30.3280   40.9230 C   0  0  0  0  0  0  0  0  0  0  0  0
   36.1450   29.0580   41.0090 C   0  0  0  0  0  0  0  0  0  0  0  0
   37.0550   27.9900   40.8410 C   0  0  0  0  0  0  0  0  0  0  0  0
   38.6350   28.8560   40.5400 S   0  0  0  0  0  0  0  0  0  0  0  0
   35.9190   31.1720   41.0460 H   0  0  0  0  0  0  0  0  0  0  0  0
   35.1400   28.7570   41.1990 H   0  0  0  0  0  0  0  0  0  0  0  0
   38.6520   34.1610   40.3090 C   0  0  0  0  0  0  0  0  0  0  0  0
   40.0730   34.1380   40.3440 C   0  0  0  0  0  0  0  0  0  0  0  0
   40.7220   32.9070   40.4840 C   0  0  0  0  0  0  0  0  0  0  0  0
   39.9370   31.7930   40.5790 N   0  0  0  0  0  0  0  0  0  0  0  0
   38.5880   31.8630   40.5420 C   0  0  0  0  0  0  0  0  0  0  0  0
   37.9380   33.0470   40.4070 N   0  0  0  0  0  0  0  0  0  0  0  0
   38.1590   35.1240   40.2000 H   0  0  0  0  0  0  0  0  0  0  0  0
   40.6770   35.0370   40.2660 H   0  0  0  0  0  0  0  0  0  0  0  0
   41.7930   32.7990   40.5190 H   0  0  0  0  0  0  0  0  0  0  0  0
   36.9030   26.5460   40.8730 C   0  0  0  0  0  0  0  0  0  0  0  0
   37.1150   25.9370   42.0870 C   0  0  0  0  0  0  0  0  0  0  0  0
   37.3790   26.4830   42.9800 H   0  0  0  0  0  0  0  0  0  0  0  0
   36.9610   24.5470   42.0740 C   0  0  0  0  0  3  0  0  0  0  0  0
   36.6180   23.8790   40.8930 C   0  0  0  0  0  0  0  0  0  0  0  0
   36.5230   22.8050   40.9930 H   0  0  0  0  0  0  0  0  0  0  0  0
   36.4220   24.5700   39.7070 C   0  0  0  0  0  0  0  0  0  0  0  0
   36.1570   24.0210   38.8170 H   0  0  0  0  0  0  0  0  0  0  0  0
   36.5670   25.9630   39.6790 C   0  0  0  0  0  3  0  0  0  0  0  0
  1  2  2  0  0  0  0
  2  3  1  0  0  0  0
  2  6  1  0  0  0  0
  3  7  1  0  0  0  0
  4 17  1  0  0  0  0
  4  3  2  0  0  0  0
  5  1  1  0  0  0  0
  5  4  1  0  0  0  0
  8  9  2  0  0  0  0
  8 13  1  0  0  0  0
  9 10  1  0  0  0  0
 10 16  1  0  0  0  0
 10 11  2  0  0  0  0
 12 11  1  0  0  0  0
 12  1  1  0  0  0  0
 13 12  2  0  0  0  0
 14  8  1  0  0  0  0
 15  9  1  0  0  0  0
 17 18  1  0  0  0  0
 18 19  1  0  0  0  0
 20 18  2  0  0  0  0
 21 22  1  0  0  0  0
 21 20  1  0  0  0  0
 23 21  2  0  0  0  0
 24 23  1  0  0  0  0
 25 23  1  0  0  0  0
 25 17  2  0  0  0  0
M  END
>  <minimizedAffinity>
-4.96492434

$$$$

 OpenBabel03252509173D

 25 27  0  0  0  0  0  0  0  0999 V2000
   37.6880   30.1240   40.8100 C   0  0  0  0  0  0  0  0  0  0  0  0
   36.8640   29.6550   41.8650 C   0  0  0  0  0  0  0  0  0  0  0  0
   36.5970   28.3370   41.9240 C   0  0  0  0  0  0  0  0  0  0  0  0
   37.1380   27.4680   40.9490 C   0  0  0  0  0  0  0  0  0  0  0  0
   38.0860   28.6090   39.8820 S   0  0  0  0  0  0  0  0  0  0  0  0
   36.4690   30.3520   42.5910 H   0  0  0  0  0  0  0  0  0  0  0  0
   35.9940   27.8550   42.6600 H   0  0  0  0  0  0  0  0  0  0  0  0
   39.3910   33.4090   40.8230 C   0  0  0  0  0  0  0  0  0  0  0  0
   38.4660   34.1610   40.0490 C   0  0  0  0  0  0  0  0  0  0  0  0
   37.3190   33.5230   39.5640 C   0  0  0  0  0  0  0  0  0  0  0  0
   37.1620   32.2020   39.8720 N   0  0  0  0  0  0  0  0  0  0  0  0
   38.0680   31.5260   40.6120 C   0  0  0  0  0  0  0  0  0  0  0  0
   39.1880   32.1250   41.0910 N   0  0  0  0  0  0  0  0  0  0  0  0
   40.2790   33.9160   41.1930 H   0  0  0  0  0  0  0  0  0  0  0  0
   38.6120   35.2120   39.8170 H   0  0  0  0  0  0  0  0  0  0  0  0
   36.5680   34.0170   38.9720 H   0  0  0  0  0  0  0  0  0  0  0  0
   37.0430   26.0340   40.7380 C   0  0  0  0  0  0  0  0  0  0  0  0
   37.4370   25.2370   41.7850 C   0  0  0  0  0  0  0  0  0  0  0  0
   37.8000   25.6320   42.7220 H   0  0  0  0  0  0  0  0  0  0  0  0
   37.3310   23.8630   41.5400 C   0  0  0  0  0  3  0  0  0  0  0  0
   36.8570   23.3930   40.3100 C   0  0  0  0  0  0  0  0  0  0  0  0
   36.8140   22.3140   40.2250 H   0  0  0  0  0  0  0  0  0  0  0  0
   36.4790   24.2690   39.3040 C   0  0  0  0  0  0  0  0  0  0  0  0
   36.1170   23.8690   38.3690 H   0  0  0  0  0  0  0  0  0  0  0  0
   36.5700   25.6510   39.5100 C   0  0  0  0  0  3  0  0  0  0  0  0
  1  2  2  0  0  0  0
  2  3  1  0  0  0  0
  2  6  1  0  0  0  0
  3  7  1  0  0  0  0
  4  3  2  0  0  0  0
  5  1  1  0  0  0  0
  5  4  1  0  0  0  0
  8 13  1  0  0  0  0
  8 14  1  0  0  0  0
  9  8  2  0  0  0  0
 10 11  2  0  0  0  0
 10  9  1  0  0  0  0
 11 12  1  0  0  0  0
 12  1  1  0  0  0  0
 12 13  2  0  0  0  0
 15  9  1  0  0  0  0
 16 10  1  0  0  0  0
 17  4  1  0  0  0  0
 17 18  1  0  0  0  0
 18 19  1  0  0  0  0
 20 18  2  0  0  0  0
 21 20  1  0  0  0  0
 22 21  1  0  0  0  0
 23 25  1  0  0  0  0
 23 21  2  0  0  0  0
 24 23  1  0  0  0  0
 25 17  2  0  0  0  0
M  END
>  <minimizedAffinity>
-4.82829666

$$$$

 OpenBabel03252509173D

 25 27  0  0  0  0  0  0  0  0999 V2000
   37.5480   27.4660   40.9720 C   0  0  0  0  0  0  0  0  0  0  0  0
   36.6090   28.1980   41.7440 C   0  0  0  0  0  0  0  0  0  0  0  0
   36.6400   29.5420   41.6750 C   0  0  0  0  0  0  0  0  0  0  0  0
   37.5930   30.1790   40.8480 C   0  0  0  0  0  0  0  0  0  0  0  0
   38.5000   28.7670   40.1250 S   0  0  0  0  0  0  0  0  0  0  0  0
   35.8960   27.6730   42.3640 H   0  0  0  0  0  0  0  0  0  0  0  0
   35.9950   30.2080   42.2010 H   0  0  0  0  0  0  0  0  0  0  0  0
   36.9600   23.8530   40.4380 C   0  0  0  0  0  0  0  0  0  0  0  0
   38.1270   23.3260   41.0570 C   0  0  0  0  0  0  0  0  0  0  0  0
   39.0490   24.2150   41.6200 C   0  0  0  0  0  0  0  0  0  0  0  0
   38.7620   25.5480   41.5380 N   0  0  0  0  0  0  0  0  0  0  0  0
   37.6390   26.0040   40.9400 C   0  0  0  0  0  0  0  0  0  0  0  0
   36.7320   25.1590   40.3870 N   0  0  0  0  0  0  0  0  0  0  0  0
   36.2520   23.1520   40.0040 H   0  0  0  0  0  0  0  0  0  0  0  0
   38.3340   22.2610   41.1100 H   0  0  0  0  0  0  0  0  0  0  0  0
   39.9560   23.9030   42.1070 H   0  0  0  0  0  0  0  0  0  0  0  0
   37.8800   31.5730   40.5600 C   0  0  0  0  0  0  0  0  0  0  0  0
   39.0060   32.0980   41.1480 C   0  0  0  0  0  0  0  0  0  0  0  0
   39.6560   31.5240   41.7900 H   0  0  0  0  0  0  0  0  0  0  0  0
   39.2440   33.4430   40.8460 C   0  0  0  0  0  3  0  0  0  0  0  0
   38.3740   34.1510   40.0090 C   0  0  0  0  0  0  0  0  0  0  0  0
   38.6510   35.1850   39.8400 H   0  0  0  0  0  0  0  0  0  0  0  0
   37.2570   33.5440   39.4560 C   0  0  0  0  0  0  0  0  0  0  0  0
   36.6100   34.1230   38.8140 H   0  0  0  0  0  0  0  0  0  0  0  0
   36.9840   32.2000   39.7330 C   0  0  0  0  0  3  0  0  0  0  0  0
  1  2  2  0  0  0  0
  2  6  1  0  0  0  0
  3  2  1  0  0  0  0
  3  7  1  0  0  0  0
  4  3  2  0  0  0  0
  5  4  1  0  0  0  0
  5  1  1  0  0  0  0
  8  9  1  0  0  0  0
  9 15  1  0  0  0  0
  9 10  2  0  0  0  0
 10 16  1  0  0  0  0
 11 10  1  0  0  0  0
 12  1  1  0  0  0  0
 12 11  2  0  0  0  0
 13  8  2  0  0  0  0
 13 12  1  0  0  0  0
 14  8  1  0  0  0  0
 17  4  1  0  0  0  0
 17 18  1  0  0  0  0
 18 19  1  0  0  0  0
 20 18  2  0  0  0  0
 21 20  1  0  0  0  0
 22 21  1  0  0  0  0
 23 25  1  0  0  0  0
 23 21  2  0  0  0  0
 24 23  1  0  0  0  0
 25 17  2  0  0  0  0
M  END
>  <minimizedAffinity>
-4.63465881

$$$$

 OpenBabel03252509173D

 25 27  0  0  0  0  0  0  0  0999 V2000
   37.1910   27.6410   41.0580 C   0  0  0  0  0  0  0  0  0  0  0  0
   36.1830   28.5770   41.4070 C   0  0  0  0  0  0  0  0  0  0  0  0
   35.3550   29.0090   40.4390 C   0  0  0  0  0  0  0  0  0  0  0  0
   35.5080   28.5270   39.1190 C   0  0  0  0  0  0  0  0  0  0  0  0
   36.9260   27.3850   39.2750 S   0  0  0  0  0  0  0  0  0  0  0  0
   36.0990   28.9210   42.4290 H   0  0  0  0  0  0  0  0  0  0  0  0
   34.5600   29.7080   40.5640 H   0  0  0  0  0  0  0  0  0  0  0  0
   39.7480   27.1170   43.6790 C   0  0  0  0  0  0  0  0  0  0  0  0
   39.8870   25.7050   43.6000 C   0  0  0  0  0  0  0  0  0  0  0  0
   39.1130   25.0050   42.6690 C   0  0  0  0  0  0  0  0  0  0  0  0
   38.2640   25.7340   41.8870 N   0  0  0  0  0  0  0  0  0  0  0  0
   38.1650   27.0780   41.9970 C   0  0  0  0  0  0  0  0  0  0  0  0
   38.9060   27.7770   42.8940 N   0  0  0  0  0  0  0  0  0  0  0  0
   40.3560   27.6510   44.4070 H   0  0  0  0  0  0  0  0  0  0  0  0
   40.5700   25.1450   44.2330 H   0  0  0  0  0  0  0  0  0  0  0  0
   39.1550   23.9370   42.5430 H   0  0  0  0  0  0  0  0  0  0  0  0
   34.7970   28.7890   37.8800 C   0  0  0  0  0  0  0  0  0  0  0  0
   35.5640   28.8850   36.7450 C   0  0  0  0  0  0  0  0  0  0  0  0
   36.6380   28.7740   36.7500 H   0  0  0  0  0  0  0  0  0  0  0  0
   34.8410   29.1390   35.5750 C   0  0  0  0  0  3  0  0  0  0  0  0
   33.4480   29.2770   35.6140 C   0  0  0  0  0  0  0  0  0  0  0  0
   32.9860   29.4710   34.6540 H   0  0  0  0  0  0  0  0  0  0  0  0
   32.7480   29.1660   36.8050 C   0  0  0  0  0  0  0  0  0  0  0  0
   31.6750   29.2760   36.7950 H   0  0  0  0  0  0  0  0  0  0  0  0
   33.4370   28.9110   37.9980 C   0  0  0  0  0  3  0  0  0  0  0  0
  1  2  2  0  0  0  0
  1 12  1  0  0  0  0
  2  6  1  0  0  0  0
  3  7  1  0  0  0  0
  3  2  1  0  0  0  0
  4  5  1  0  0  0  0
  4  3  2  0  0  0  0
  5  1  1  0  0  0  0
  8 14  1  0  0  0  0
  9  8  1  0  0  0  0
  9 15  1  0  0  0  0
 10  9  2  0  0  0  0
 11 12  2  0  0  0  0
 11 10  1  0  0  0  0
 12 13  1  0  0  0  0
 13  8  2  0  0  0  0
 16 10  1  0  0  0  0
 17 25  1  0  0  0  0
 17  4  1  0  0  0  0
 18 19  1  0  0  0  0
 18 17  2  0  0  0  0
 20 21  2  0  0  0  0
 20 18  1  0  0  0  0
 21 23  1  0  0  0  0
 22 21  1  0  0  0  0
 23 25  2  0  0  0  0
 24 23  1  0  0  0  0
M  END
>  <minimizedAffinity>
-4.63233852

$$$$

 OpenBabel03252509173D

 25 27  0  0  0  0  0  0  0  0999 V2000
   35.6100   28.2560   39.0580 C   0  0  0  0  0  0  0  0  0  0  0  0
   35.4140   28.8530   40.3300 C   0  0  0  0  0  0  0  0  0  0  0  0
   36.1850   28.4370   41.3530 C   0  0  0  0  0  0  0  0  0  0  0  0
   37.1530   27.4310   41.1350 C   0  0  0  0  0  0  0  0  0  0  0  0
   36.9480   27.0580   39.3580 S   0  0  0  0  0  0  0  0  0  0  0  0
   34.6620   29.6200   40.4560 H   0  0  0  0  0  0  0  0  0  0  0  0
   36.1410   28.8000   42.3540 H   0  0  0  0  0  0  0  0  0  0  0  0
   34.5360   29.0220   35.6020 C   0  0  0  0  0  0  0  0  0  0  0  0
   33.1540   29.2650   35.8290 C   0  0  0  0  0  0  0  0  0  0  0  0
   32.6570   29.1580   37.1320 C   0  0  0  0  0  0  0  0  0  0  0  0
   33.5450   28.8230   38.1140 N   0  0  0  0  0  0  0  0  0  0  0  0
   34.8530   28.6010   37.8520 C   0  0  0  0  0  0  0  0  0  0  0  0
   35.3550   28.6990   36.5940 N   0  0  0  0  0  0  0  0  0  0  0  0
   34.9100   29.1070   34.5840 H   0  0  0  0  0  0  0  0  0  0  0  0
   32.4650   29.5300   35.0310 H   0  0  0  0  0  0  0  0  0  0  0  0
   31.6270   29.3260   37.3920 H   0  0  0  0  0  0  0  0  0  0  0  0
   38.1170   26.7800   42.0050 C   0  0  0  0  0  0  0  0  0  0  0  0
   38.2130   25.4140   41.8930 C   0  0  0  0  0  0  0  0  0  0  0  0
   37.6170   24.8360   41.2030 H   0  0  0  0  0  0  0  0  0  0  0  0
   39.1510   24.8260   42.7500 C   0  0  0  0  0  3  0  0  0  0  0  0
   39.9030   25.6130   43.6300 C   0  0  0  0  0  0  0  0  0  0  0  0
   40.6000   25.0600   44.2470 H   0  0  0  0  0  0  0  0  0  0  0  0
   39.7430   26.9890   43.6800 C   0  0  0  0  0  0  0  0  0  0  0  0
   40.3420   27.5620   44.3710 H   0  0  0  0  0  0  0  0  0  0  0  0
   38.8150   27.6150   42.8390 C   0  0  0  0  0  3  0  0  0  0  0  0
  1  5  1  0  0  0  0
  1  2  2  0  0  0  0
  2  6  1  0  0  0  0
  2  3  1  0  0  0  0
  3  7  1  0  0  0  0
  4  3  2  0  0  0  0
  4 17  1  0  0  0  0
  5  4  1  0  0  0  0
  8  9  2  0  0  0  0
  8 13  1  0  0  0  0
  9 10  1  0  0  0  0
 10 16  1  0  0  0  0
 10 11  2  0  0  0  0
 12 11  1  0  0  0  0
 12  1  1  0  0  0  0
 13 12  2  0  0  0  0
 14  8  1  0  0  0  0
 15  9  1  0  0  0  0
 17 25  1  0  0  0  0
 18 17  2  0  0  0  0
 18 20  1  0  0  0  0
 19 18  1  0  0  0  0
 20 21  2  0  0  0  0
 21 23  1  0  0  0  0
 21 22  1  0  0  0  0
 23 24  1  0  0  0  0
 25 23  2  0  0  0  0
M  END
>  <minimizedAffinity>
-4.59502459

$$$$

 OpenBabel03252509173D

 25 27  0  0  0  0  0  0  0  0999 V2000
   37.8170   27.4850   41.1370 C   0  0  0  0  0  0  0  0  0  0  0  0
   37.1320   28.2230   42.1360 C   0  0  0  0  0  0  0  0  0  0  0  0
   37.1700   29.5670   42.0710 C   0  0  0  0  0  0  0  0  0  0  0  0
   37.8800   30.1970   41.0250 C   0  0  0  0  0  0  0  0  0  0  0  0
   38.5340   28.7790   40.0760 S   0  0  0  0  0  0  0  0  0  0  0  0
   36.6000   27.7020   42.9210 H   0  0  0  0  0  0  0  0  0  0  0  0
   36.7010   30.2370   42.7550 H   0  0  0  0  0  0  0  0  0  0  0  0
   38.7150   23.9140   41.4940 C   0  0  0  0  0  0  0  0  0  0  0  0
   37.6580   23.3250   40.7490 C   0  0  0  0  0  0  0  0  0  0  0  0
   36.6990   24.1610   40.1670 C   0  0  0  0  0  0  0  0  0  0  0  0
   36.8450   25.5050   40.3550 N   0  0  0  0  0  0  0  0  0  0  0  0
   37.8680   26.0210   41.0710 C   0  0  0  0  0  0  0  0  0  0  0  0
   38.8090   25.2290   41.6450 N   0  0  0  0  0  0  0  0  0  0  0  0
   39.4540   23.2530   41.9430 H   0  0  0  0  0  0  0  0  0  0  0  0
   37.5610   22.2510   40.6140 H   0  0  0  0  0  0  0  0  0  0  0  0
   35.8670   23.7990   39.5880 H   0  0  0  0  0  0  0  0  0  0  0  0
   38.1060   31.5900   40.6810 C   0  0  0  0  0  0  0  0  0  0  0  0
   37.0990   32.2200   39.9900 C   0  0  0  0  0  0  0  0  0  0  0  0
   36.1810   31.7260   39.7090 H   0  0  0  0  0  0  0  0  0  0  0  0
   37.3590   33.5590   39.6780 C   0  0  0  0  0  3  0  0  0  0  0  0
   38.5630   34.1590   40.0610 C   0  0  0  0  0  0  0  0  0  0  0  0
   38.6630   35.1980   39.7710 H   0  0  0  0  0  0  0  0  0  0  0  0
   39.5300   33.4500   40.7580 C   0  0  0  0  0  0  0  0  0  0  0  0
   40.4460   33.9480   41.0380 H   0  0  0  0  0  0  0  0  0  0  0  0
   39.3080   32.1090   41.0900 C   0  0  0  0  0  3  0  0  0  0  0  0
  1  2  2  0  0  0  0
  2  6  1  0  0  0  0
  3  2  1  0  0  0  0
  3  7  1  0  0  0  0
  4  3  2  0  0  0  0
  5  4  1  0  0  0  0
  5  1  1  0  0  0  0
  8 13  1  0  0  0  0
  8 14  1  0  0  0  0
  9  8  2  0  0  0  0
 10 11  2  0  0  0  0
 10  9  1  0  0  0  0
 11 12  1  0  0  0  0
 12  1  1  0  0  0  0
 12 13  2  0  0  0  0
 15  9  1  0  0  0  0
 16 10  1  0  0  0  0
 17  4  1  0  0  0  0
 17 25  1  0  0  0  0
 18 17  2  0  0  0  0
 19 18  1  0  0  0  0
 20 18  1  0  0  0  0
 20 21  2  0  0  0  0
 21 23  1  0  0  0  0
 22 21  1  0  0  0  0
 23 24  1  0  0  0  0
 23 25  2  0  0  0  0
M  END
>  <minimizedAffinity>
-4.58359909

$$$$

 OpenBabel03252509173D

 25 27  0  0  0  0  0  0  0  0999 V2000
   34.4590   28.5530   38.2020 C   0  0  0  0  0  0  0  0  0  0  0  0
   35.3120   27.4360   38.0070 C   0  0  0  0  0  0  0  0  0  0  0  0
   36.1660   27.1080   38.9960 C   0  0  0  0  0  0  0  0  0  0  0  0
   36.1890   27.8750   40.1830 C   0  0  0  0  0  0  0  0  0  0  0  0
   34.9110   29.1410   39.8650 S   0  0  0  0  0  0  0  0  0  0  0  0
   35.2640   26.8750   37.0840 H   0  0  0  0  0  0  0  0  0  0  0  0
   36.8580   26.2980   38.9790 H   0  0  0  0  0  0  0  0  0  0  0  0
   31.4440   29.8450   36.4920 C   0  0  0  0  0  0  0  0  0  0  0  0
   31.9190   29.8680   35.1530 C   0  0  0  0  0  0  0  0  0  0  0  0
   33.2280   29.4470   34.8970 C   0  0  0  0  0  0  0  0  0  0  0  0
   33.9730   29.0370   35.9650 N   0  0  0  0  0  0  0  0  0  0  0  0
   33.4790   29.0310   37.2230 C   0  0  0  0  0  0  0  0  0  0  0  0
   32.2120   29.4360   37.4940 N   0  0  0  0  0  0  0  0  0  0  0  0
   30.4240   30.1740   36.6790 H   0  0  0  0  0  0  0  0  0  0  0  0
   31.3070   30.1990   34.3180 H   0  0  0  0  0  0  0  0  0  0  0  0
   33.6670   29.4320   33.9140 H   0  0  0  0  0  0  0  0  0  0  0  0
   36.9700   27.7850   41.4040 C   0  0  0  0  0  0  0  0  0  0  0  0
   37.1080   28.9460   42.1260 C   0  0  0  0  0  0  0  0  0  0  0  0
   36.6670   29.8830   41.8220 H   0  0  0  0  0  0  0  0  0  0  0  0
   37.8690   28.8160   43.2930 C   0  0  0  0  0  3  0  0  0  0  0  0
   38.4230   27.5810   43.6490 C   0  0  0  0  0  0  0  0  0  0  0  0
   38.9920   27.5900   44.5700 H   0  0  0  0  0  0  0  0  0  0  0  0
   38.2360   26.4560   42.8610 C   0  0  0  0  0  0  0  0  0  0  0  0
   38.6770   25.5210   43.1700 H   0  0  0  0  0  0  0  0  0  0  0  0
   37.4800   26.5440   41.6860 C   0  0  0  0  0  3  0  0  0  0  0  0
  1  5  1  0  0  0  0
  2  1  2  0  0  0  0
  2  3  1  0  0  0  0
  3  4  2  0  0  0  0
  4 17  1  0  0  0  0
  5  4  1  0  0  0  0
  6  2  1  0  0  0  0
  7  3  1  0  0  0  0
  8 14  1  0  0  0  0
  8 13  1  0  0  0  0
  9  8  2  0  0  0  0
 10  9  1  0  0  0  0
 10 11  2  0  0  0  0
 11 12  1  0  0  0  0
 12 13  2  0  0  0  0
 12  1  1  0  0  0  0
 15  9  1  0  0  0  0
 16 10  1  0  0  0  0
 17 25  2  0  0  0  0
 17 18  1  0  0  0  0
 18 20  2  0  0  0  0
 19 18  1  0  0  0  0
 20 21  1  0  0  0  0
 21 22  1  0  0  0  0
 23 24  1  0  0  0  0
 23 21  2  0  0  0  0
 25 23  1  0  0  0  0
M  END
>  <minimizedAffinity>
-4.49368238

$$$$

 OpenBabel03252509173D

 25 27  0  0  0  0  0  0  0  0999 V2000
   37.2050   27.4860   40.4490 C   0  0  0  0  0  0  0  0  0  0  0  0
   36.0470   28.1940   40.0380 C   0  0  0  0  0  0  0  0  0  0  0  0
   36.1240   29.5350   39.9390 C   0  0  0  0  0  0  0  0  0  0  0  0
   37.3380   30.1900   40.2430 C   0  0  0  0  0  0  0  0  0  0  0  0
   38.4370   28.8030   40.6990 S   0  0  0  0  0  0  0  0  0  0  0  0
   35.1360   27.6560   39.8140 H   0  0  0  0  0  0  0  0  0  0  0  0
   35.3320   30.1850   39.6440 H   0  0  0  0  0  0  0  0  0  0  0  0
   36.6460   23.8330   40.2670 C   0  0  0  0  0  0  0  0  0  0  0  0
   37.7060   23.3870   41.1030 C   0  0  0  0  0  0  0  0  0  0  0  0
   38.5520   24.3380   41.6820 C   0  0  0  0  0  0  0  0  0  0  0  0
   38.2990   25.6510   41.4040 N   0  0  0  0  0  0  0  0  0  0  0  0
   37.2790   26.0300   40.6030 C   0  0  0  0  0  0  0  0  0  0  0  0
   36.4470   25.1230   40.0300 N   0  0  0  0  0  0  0  0  0  0  0  0
   35.9960   23.0840   39.8210 H   0  0  0  0  0  0  0  0  0  0  0  0
   37.8880   22.3360   41.3100 H   0  0  0  0  0  0  0  0  0  0  0  0
   39.3760   24.0880   42.3270 H   0  0  0  0  0  0  0  0  0  0  0  0
   37.7390   31.5860   40.2360 C   0  0  0  0  0  0  0  0  0  0  0  0
   36.9710   32.4370   39.4780 C   0  0  0  0  0  0  0  0  0  0  0  0
   36.1130   32.1080   38.9110 H   0  0  0  0  0  0  0  0  0  0  0  0
   37.3920   33.7710   39.4970 C   0  0  0  0  0  3  0  0  0  0  0  0
   38.5110   34.1550   40.2450 C   0  0  0  0  0  0  0  0  0  0  0  0
   38.7500   35.2100   40.1920 H   0  0  0  0  0  0  0  0  0  0  0  0
   39.2320   33.2300   40.9850 C   0  0  0  0  0  0  0  0  0  0  0  0
   40.0880   33.5640   41.5500 H   0  0  0  0  0  0  0  0  0  0  0  0
   38.8430   31.8860   40.9920 C   0  0  0  0  0  3  0  0  0  0  0  0
  1 12  1  0  0  0  0
  1  5  1  0  0  0  0
  2  1  2  0  0  0  0
  3  2  1  0  0  0  0
  3  4  2  0  0  0  0
  4  5  1  0  0  0  0
  6  2  1  0  0  0  0
  7  3  1  0  0  0  0
  8  9  1  0  0  0  0
  9 15  1  0  0  0  0
  9 10  2  0  0  0  0
 10 16  1  0  0  0  0
 11 10  1  0  0  0  0
 12 11  2  0  0  0  0
 13  8  2  0  0  0  0
 13 12  1  0  0  0  0
 14  8  1  0  0  0  0
 17  4  1  0  0  0  0
 17 25  1  0  0  0  0
 18 20  1  0  0  0  0
 18 17  2  0  0  0  0
 19 18  1  0  0  0  0
 20 21  2  0  0  0  0
 21 23  1  0  0  0  0
 22 21  1  0  0  0  0
 23 25  2  0  0  0  0
 23 24  1  0  0  0  0
M  END
>  <minimizedAffinity>
-4.47332096

$$$$

 OpenBabel03252509173D

 25 27  0  0  0  0  0  0  0  0999 V2000
   36.3220   27.8890   40.1340 C   0  0  0  0  0  0  0  0  0  0  0  0
   36.2630   26.9640   39.0600 C   0  0  0  0  0  0  0  0  0  0  0  0
   35.4140   27.2200   38.0470 C   0  0  0  0  0  0  0  0  0  0  0  0
   34.6160   28.3850   38.0800 C   0  0  0  0  0  0  0  0  0  0  0  0
   35.1100   29.1620   39.6580 S   0  0  0  0  0  0  0  0  0  0  0  0
   36.8910   26.0830   39.0720 H   0  0  0  0  0  0  0  0  0  0  0  0
   35.2720   26.6100   37.1840 H   0  0  0  0  0  0  0  0  0  0  0  0
   39.1850   27.4380   42.4330 C   0  0  0  0  0  0  0  0  0  0  0  0
   38.5100   27.5440   43.6800 C   0  0  0  0  0  0  0  0  0  0  0  0
   37.1290   27.7630   43.6800 C   0  0  0  0  0  0  0  0  0  0  0  0
   36.5110   27.8590   42.4660 N   0  0  0  0  0  0  0  0  0  0  0  0
   37.1930   27.7510   41.3040 C   0  0  0  0  0  0  0  0  0  0  0  0
   38.5340   27.5400   41.2810 N   0  0  0  0  0  0  0  0  0  0  0  0
   40.2590   27.2690   42.4450 H   0  0  0  0  0  0  0  0  0  0  0  0
   39.0240   27.4650   44.6340 H   0  0  0  0  0  0  0  0  0  0  0  0
   36.5410   27.8550   44.5760 H   0  0  0  0  0  0  0  0  0  0  0  0
   33.6270   28.9340   37.1680 C   0  0  0  0  0  0  0  0  0  0  0  0
   32.4330   29.3220   37.7250 C   0  0  0  0  0  0  0  0  0  0  0  0
   32.2190   29.2330   38.7800 H   0  0  0  0  0  0  0  0  0  0  0  0
   31.5090   29.8430   36.8130 C   0  0  0  0  0  3  0  0  0  0  0  0
   31.8270   29.9390   35.4530 C   0  0  0  0  0  0  0  0  0  0  0  0
   31.0420   30.3570   34.8340 H   0  0  0  0  0  0  0  0  0  0  0  0
   33.0590   29.5240   34.9720 C   0  0  0  0  0  0  0  0  0  0  0  0
   33.2680   29.6150   33.9170 H   0  0  0  0  0  0  0  0  0  0  0  0
   34.0100   28.9970   35.8540 C   0  0  0  0  0  3  0  0  0  0  0  0
  1 12  1  0  0  0  0
  2  6  1  0  0  0  0
  2  1  2  0  0  0  0
  3  4  2  0  0  0  0
  3  2  1  0  0  0  0
  4  5  1  0  0  0  0
  5  1  1  0  0  0  0
  7  3  1  0  0  0  0
  8 14  1  0  0  0  0
  8  9  1  0  0  0  0
  9 15  1  0  0  0  0
 10  9  2  0  0  0  0
 10 16  1  0  0  0  0
 11 10  1  0  0  0  0
 12 11  2  0  0  0  0
 13 12  1  0  0  0  0
 13  8  2  0  0  0  0
 17 18  1  0  0  0  0
 17  4  1  0  0  0  0
 18 19  1  0  0  0  0
 20 18  2  0  0  0  0
 21 20  1  0  0  0  0
 22 21  1  0  0  0  0
 23 21  2  0  0  0  0
 23 25  1  0  0  0  0
 24 23  1  0  0  0  0
 25 17  2  0  0  0  0
M  END
>  <minimizedAffinity>
-4.45388317

$$$$
