
 OpenBabel03252500333D

 43 46  0  0  1  0  0  0  0  0999 V2000
   36.4350   29.6310   40.1500 N   0  0  0  0  0  0  0  0  0  0  0  0
   35.3060   28.8180   39.8560 C   0  0  0  0  0  0  0  0  0  0  0  0
   35.4490   28.1730   38.4760 C   0  0  0  0  0  0  0  0  0  0  0  0
   35.3670   29.3170   37.4860 C   0  0  0  0  0  0  0  0  0  0  0  0
   36.5940   30.1500   37.7570 C   0  0  0  0  0  0  0  0  0  0  0  0
   36.6260   30.6300   39.2000 C   0  0  2  0  0  0  0  0  0  0  0  0
   34.4570   29.5570   39.7020 H   0  0  0  0  0  0  0  0  0  0  0  0
   34.9130   28.1760   40.6250 H   0  0  0  0  0  0  0  0  0  0  0  0
   36.4740   27.7540   38.3580 H   0  0  0  0  0  0  0  0  0  0  0  0
   34.6910   27.3960   38.3160 H   0  0  0  0  0  0  0  0  0  0  0  0
   35.4090   28.9850   36.4380 H   0  0  0  0  0  0  0  0  0  0  0  0
   34.4700   29.9560   37.6740 H   0  0  0  0  0  0  0  0  0  0  0  0
   36.6210   31.0790   37.1430 H   0  0  0  0  0  0  0  0  0  0  0  0
   37.4760   29.4980   37.6090 H   0  0  0  0  0  0  0  0  0  0  0  0
   35.6410   31.1850   39.2340 H   0  0  0  0  0  0  0  0  0  0  0  0
   37.6580   31.6380   39.3870 C   0  0  0  0  0  0  0  0  0  0  0  0
   37.6360   32.7380   40.2190 C   0  0  0  0  0  0  0  0  0  0  0  0
   36.7720   32.8940   40.8470 H   0  0  0  0  0  0  0  0  0  0  0  0
   38.6300   33.6820   40.3600 C   0  0  0  0  0  3  0  0  0  0  0  0
   39.7700   33.5290   39.6000 C   0  0  0  0  0  0  0  0  0  0  0  0
   40.5530   34.2630   39.7030 H   0  0  0  0  0  0  0  0  0  0  0  0
   39.8950   32.4800   38.7460 C   0  0  0  0  0  0  0  0  0  0  0  0
   40.7850   32.3510   38.1460 H   0  0  0  0  0  0  0  0  0  0  0  0
   38.8690   31.5990   38.6710 C   0  0  0  0  0  3  0  0  0  0  0  0
   37.4790   29.0300   40.8700 C   0  0  0  0  0  0  0  0  0  0  0  0
   37.3400   27.9310   40.8860 H   0  0  0  0  0  0  0  0  0  0  0  0
   38.4810   29.2360   40.4480 H   0  0  0  0  0  0  0  0  0  0  0  0
   37.6660   28.4100   43.3970 C   0  0  1  0  0  0  0  0  0  0  0  0
   38.5630   29.4810   43.1480 C   0  0  0  0  0  0  0  0  0  0  0  0
   37.3480   29.4480   42.3010 C   0  0  1  0  0  0  0  0  0  0  0  0
   37.0030   28.4300   44.3000 H   0  0  0  0  0  0  0  0  0  0  0  0
   38.7170   30.3110   43.8740 H   0  0  0  0  0  0  0  0  0  0  0  0
   39.5230   29.2700   42.6000 H   0  0  0  0  0  0  0  0  0  0  0  0
   36.4190   29.9660   42.5360 H   0  0  0  0  0  0  0  0  0  0  0  0
   39.2100   26.5070   42.9380 C   0  0  0  0  0  0  0  0  0  0  0  0
   37.8740   27.0050   42.9610 C   0  0  0  0  0  0  0  0  0  0  0  0
   36.8600   26.1640   42.5790 C   0  0  0  0  0  0  0  0  0  0  0  0
   37.1810   24.8880   42.1940 N   0  0  0  0  0  0  0  0  0  0  0  0
   38.4630   24.4360   42.1800 C   0  0  0  0  0  0  0  0  0  0  0  0
   39.5020   25.2430   42.5540 N   0  0  0  0  0  0  0  0  0  0  0  0
   40.0570   27.1280   43.2300 H   0  0  0  0  0  0  0  0  0  0  0  0
   35.8470   26.5220   42.5900 H   0  0  0  0  0  0  0  0  0  0  0  0
   38.6710   23.4180   41.8680 H   0  0  0  0  0  0  0  0  0  0  0  0
  1 25  1  0  0  0  0
  2  1  1  0  0  0  0
  2  8  1  0  0  0  0
  3  2  1  0  0  0  0
  4 12  1  0  0  0  0
  4  5  1  0  0  0  0
  4  3  1  0  0  0  0
  5  6  1  0  0  0  0
  6 15  1  1  0  0  0
  6 16  1  0  0  0  0
  6  1  1  0  0  0  0
  7  2  1  0  0  0  0
  9  3  1  0  0  0  0
 10  3  1  0  0  0  0
 11  4  1  0  0  0  0
 13  5  1  0  0  0  0
 14  5  1  0  0  0  0
 16 17  1  0  0  0  0
 17 19  2  0  0  0  0
 17 18  1  0  0  0  0
 20 21  1  0  0  0  0
 20 19  1  0  0  0  0
 22 20  2  0  0  0  0
 23 22  1  0  0  0  0
 24 22  1  0  0  0  0
 24 16  2  0  0  0  0
 25 26  1  0  0  0  0
 25 30  1  0  0  0  0
 27 25  1  0  0  0  0
 28 31  1  1  0  0  0
 29 28  1  0  0  0  0
 29 32  1  0  0  0  0
 30 34  1  1  0  0  0
 30 29  1  0  0  0  0
 30 28  1  0  0  0  0
 33 29  1  0  0  0  0
 35 36  1  0  0  0  0
 35 41  1  0  0  0  0
 36 28  1  0  0  0  0
 37 42  1  0  0  0  0
 37 36  2  0  0  0  0
 38 37  1  0  0  0  0
 39 38  2  0  0  0  0
 39 40  1  0  0  0  0
 40 35  2  0  0  0  0
 43 39  1  0  0  0  0
M  END
>  <minimizedAffinity>
-5.61741972

$$$$

 OpenBabel03252500333D

 43 46  0  0  1  0  0  0  0  0999 V2000
   36.2300   29.9690   40.5430 N   0  0  0  0  0  0  0  0  0  0  0  0
   35.0650   29.2010   40.2680 C   0  0  0  0  0  0  0  0  0  0  0  0
   35.2730   28.3300   39.0280 C   0  0  0  0  0  0  0  0  0  0  0  0
   35.3760   29.2970   37.8670 C   0  0  0  0  0  0  0  0  0  0  0  0
   36.6430   30.0750   38.1250 C   0  0  0  0  0  0  0  0  0  0  0  0
   36.5900   30.7820   39.4710 C   0  0  2  0  0  0  0  0  0  0  0  0
   34.3000   29.9630   39.9150 H   0  0  0  0  0  0  0  0  0  0  0  0
   34.5520   28.7240   41.0850 H   0  0  0  0  0  0  0  0  0  0  0  0
   36.2640   27.8240   39.0800 H   0  0  0  0  0  0  0  0  0  0  0  0
   34.4670   27.5930   38.9170 H   0  0  0  0  0  0  0  0  0  0  0  0
   35.4820   28.7950   36.8940 H   0  0  0  0  0  0  0  0  0  0  0  0
   34.5250   30.0210   37.8620 H   0  0  0  0  0  0  0  0  0  0  0  0
   36.8030   30.8850   37.3790 H   0  0  0  0  0  0  0  0  0  0  0  0
   37.4750   29.3460   38.1720 H   0  0  0  0  0  0  0  0  0  0  0  0
   35.6580   31.4030   39.3190 H   0  0  0  0  0  0  0  0  0  0  0  0
   37.6840   31.7310   39.6000 C   0  0  0  0  0  0  0  0  0  0  0  0
   39.0320   31.5110   39.4110 C   0  0  0  0  0  0  0  0  0  0  0  0
   39.3570   30.5290   39.1030 H   0  0  0  0  0  0  0  0  0  0  0  0
   40.0440   32.4340   39.5570 C   0  0  0  0  0  3  0  0  0  0  0  0
   39.6940   33.7150   39.9310 C   0  0  0  0  0  0  0  0  0  0  0  0
   40.4790   34.4450   40.0490 H   0  0  0  0  0  0  0  0  0  0  0  0
   38.3920   34.0400   40.1440 C   0  0  0  0  0  0  0  0  0  0  0  0
   38.1060   35.0400   40.4370 H   0  0  0  0  0  0  0  0  0  0  0  0
   37.4610   33.0690   39.9780 C   0  0  0  0  0  3  0  0  0  0  0  0
   37.1510   29.4210   41.4490 C   0  0  0  0  0  0  0  0  0  0  0  0
   38.0500   29.0700   40.9060 H   0  0  0  0  0  0  0  0  0  0  0  0
   37.4850   30.1380   42.2240 H   0  0  0  0  0  0  0  0  0  0  0  0
   37.4920   27.0650   42.5150 C   0  0  1  0  0  0  0  0  0  0  0  0
   36.7840   27.8630   43.4500 C   0  0  0  0  0  0  0  0  0  0  0  0
   36.5450   28.1790   42.0230 C   0  0  1  0  0  0  0  0  0  0  0  0
   37.1620   26.0140   42.3080 H   0  0  0  0  0  0  0  0  0  0  0  0
   35.9610   27.4550   44.0790 H   0  0  0  0  0  0  0  0  0  0  0  0
   37.3420   28.6560   44.0200 H   0  0  0  0  0  0  0  0  0  0  0  0
   35.7440   27.7500   41.4230 H   0  0  0  0  0  0  0  0  0  0  0  0
   39.7840   27.7860   43.1800 C   0  0  0  0  0  0  0  0  0  0  0  0
   38.9350   27.2090   42.1900 C   0  0  0  0  0  0  0  0  0  0  0  0
   39.4940   26.8230   40.9990 C   0  0  0  0  0  0  0  0  0  0  0  0
   40.8400   27.0110   40.8180 N   0  0  0  0  0  0  0  0  0  0  0  0
   41.6290   27.5630   41.7770 C   0  0  0  0  0  0  0  0  0  0  0  0
   41.1100   27.9610   42.9790 N   0  0  0  0  0  0  0  0  0  0  0  0
   39.3970   28.1120   44.1450 H   0  0  0  0  0  0  0  0  0  0  0  0
   38.8700   26.3860   40.2410 H   0  0  0  0  0  0  0  0  0  0  0  0
   42.6900   27.6940   41.5920 H   0  0  0  0  0  0  0  0  0  0  0  0
  1 25  1  0  0  0  0
  2  1  1  0  0  0  0
  2  8  1  0  0  0  0
  3  9  1  0  0  0  0
  3  2  1  0  0  0  0
  4  5  1  0  0  0  0
  4  3  1  0  0  0  0
  5 14  1  0  0  0  0
  5  6  1  0  0  0  0
  6 15  1  6  0  0  0
  6 16  1  0  0  0  0
  6  1  1  0  0  0  0
  7  2  1  0  0  0  0
 10  3  1  0  0  0  0
 11  4  1  0  0  0  0
 12  4  1  0  0  0  0
 13  5  1  0  0  0  0
 16 24  1  0  0  0  0
 17 19  1  0  0  0  0
 17 16  2  0  0  0  0
 18 17  1  0  0  0  0
 19 20  2  0  0  0  0
 20 21  1  0  0  0  0
 20 22  1  0  0  0  0
 22 23  1  0  0  0  0
 24 22  2  0  0  0  0
 25 30  1  0  0  0  0
 25 27  1  0  0  0  0
 26 25  1  0  0  0  0
 28 31  1  6  0  0  0
 28 29  1  0  0  0  0
 29 33  1  0  0  0  0
 29 32  1  0  0  0  0
 30 34  1  6  0  0  0
 30 28  1  0  0  0  0
 30 29  1  0  0  0  0
 35 41  1  0  0  0  0
 36 28  1  0  0  0  0
 36 35  2  0  0  0  0
 37 36  1  0  0  0  0
 38 37  2  0  0  0  0
 38 39  1  0  0  0  0
 39 40  2  0  0  0  0
 40 35  1  0  0  0  0
 42 37  1  0  0  0  0
 43 39  1  0  0  0  0
M  END
>  <minimizedAffinity>
-5.58831692

$$$$

 OpenBabel03252500333D

 43 46  0  0  1  0  0  0  0  0999 V2000
   37.3470   29.4830   41.7650 N   0  0  0  0  0  0  0  0  0  0  0  0
   37.9170   29.3350   43.0600 C   0  0  0  0  0  0  0  0  0  0  0  0
   38.7950   28.0840   43.1240 C   0  0  0  0  0  0  0  0  0  0  0  0
   37.8410   26.9150   42.9890 C   0  0  0  0  0  0  0  0  0  0  0  0
   37.2790   27.0360   41.5950 C   0  0  0  0  0  0  0  0  0  0  0  0
   36.5890   28.3760   41.3940 C   0  0  2  0  0  0  0  0  0  0  0  0
   37.0380   29.0610   43.7260 H   0  0  0  0  0  0  0  0  0  0  0  0
   38.3160   30.2040   43.5550 H   0  0  0  0  0  0  0  0  0  0  0  0
   39.4520   28.0350   42.2260 H   0  0  0  0  0  0  0  0  0  0  0  0
   39.3930   28.0610   44.0450 H   0  0  0  0  0  0  0  0  0  0  0  0
   38.3410   25.9380   43.0670 H   0  0  0  0  0  0  0  0  0  0  0  0
   36.9920   26.9950   43.7100 H   0  0  0  0  0  0  0  0  0  0  0  0
   36.4940   26.2730   41.3860 H   0  0  0  0  0  0  0  0  0  0  0  0
   38.1310   26.9980   40.8900 H   0  0  0  0  0  0  0  0  0  0  0  0
   35.8250   28.3200   42.2260 H   0  0  0  0  0  0  0  0  0  0  0  0
   35.8270   28.3860   40.1550 C   0  0  0  0  0  0  0  0  0  0  0  0
   36.1380   27.7780   38.9570 C   0  0  0  0  0  0  0  0  0  0  0  0
   37.0400   27.1890   38.8950 H   0  0  0  0  0  0  0  0  0  0  0  0
   35.3960   27.8220   37.7970 C   0  0  0  0  0  3  0  0  0  0  0  0
   34.2200   28.5430   37.8140 C   0  0  0  0  0  0  0  0  0  0  0  0
   33.6340   28.5840   36.9110 H   0  0  0  0  0  0  0  0  0  0  0  0
   33.8200   29.1820   38.9450 C   0  0  0  0  0  0  0  0  0  0  0  0
   32.9010   29.7490   38.9700 H   0  0  0  0  0  0  0  0  0  0  0  0
   34.6110   29.0860   40.0410 C   0  0  0  0  0  3  0  0  0  0  0  0
   38.0460   30.2910   40.8540 C   0  0  0  0  0  0  0  0  0  0  0  0
   38.9820   30.6570   41.3180 H   0  0  0  0  0  0  0  0  0  0  0  0
   38.3170   29.7650   39.9180 H   0  0  0  0  0  0  0  0  0  0  0  0
   37.8970   32.7090   39.8880 C   0  0  1  0  0  0  0  0  0  0  0  0
   36.9240   31.9190   39.2240 C   0  0  0  0  0  0  0  0  0  0  0  0
   37.2310   31.5240   40.6180 C   0  0  1  0  0  0  0  0  0  0  0  0
   37.6310   33.7310   40.2660 H   0  0  0  0  0  0  0  0  0  0  0  0
   35.9150   32.3110   38.9630 H   0  0  0  0  0  0  0  0  0  0  0  0
   37.2620   31.1840   38.4420 H   0  0  0  0  0  0  0  0  0  0  0  0
   36.6900   31.8810   41.4930 H   0  0  0  0  0  0  0  0  0  0  0  0
   39.8120   32.1620   38.3880 C   0  0  0  0  0  0  0  0  0  0  0  0
   39.3630   32.6280   39.6590 C   0  0  0  0  0  0  0  0  0  0  0  0
   40.3040   32.9710   40.5950 C   0  0  0  0  0  0  0  0  0  0  0  0
   41.6290   32.8490   40.2640 N   0  0  0  0  0  0  0  0  0  0  0  0
   42.0320   32.4030   39.0440 C   0  0  0  0  0  0  0  0  0  0  0  0
   41.1250   32.0510   38.0830 N   0  0  0  0  0  0  0  0  0  0  0  0
   39.1100   31.8750   37.6050 H   0  0  0  0  0  0  0  0  0  0  0  0
   39.9850   33.3240   41.5590 H   0  0  0  0  0  0  0  0  0  0  0  0
   43.0920   32.3220   38.8250 H   0  0  0  0  0  0  0  0  0  0  0  0
  1  2  1  0  0  0  0
  2  3  1  0  0  0  0
  2  8  1  0  0  0  0
  2  7  1  0  0  0  0
  3 10  1  0  0  0  0
  4 11  1  0  0  0  0
  4  3  1  0  0  0  0
  4 12  1  0  0  0  0
  5  4  1  0  0  0  0
  6  5  1  0  0  0  0
  6  1  1  0  0  0  0
  6 15  1  1  0  0  0
  9  3  1  0  0  0  0
 13  5  1  0  0  0  0
 14  5  1  0  0  0  0
 16  6  1  0  0  0  0
 17 16  2  0  0  0  0
 18 17  1  0  0  0  0
 19 20  2  0  0  0  0
 19 17  1  0  0  0  0
 20 22  1  0  0  0  0
 21 20  1  0  0  0  0
 22 23  1  0  0  0  0
 22 24  2  0  0  0  0
 24 16  1  0  0  0  0
 25 26  1  0  0  0  0
 25  1  1  0  0  0  0
 27 25  1  0  0  0  0
 28 31  1  1  0  0  0
 28 30  1  0  0  0  0
 29 28  1  0  0  0  0
 29 30  1  0  0  0  0
 30 25  1  0  0  0  0
 30 34  1  1  0  0  0
 32 29  1  0  0  0  0
 33 29  1  0  0  0  0
 35 36  1  0  0  0  0
 36 28  1  0  0  0  0
 36 37  2  0  0  0  0
 37 42  1  0  0  0  0
 38 37  1  0  0  0  0
 39 38  2  0  0  0  0
 40 35  2  0  0  0  0
 40 39  1  0  0  0  0
 41 35  1  0  0  0  0
 43 39  1  0  0  0  0
M  END
>  <minimizedAffinity>
-5.54717016

$$$$

 OpenBabel03252500333D

 43 46  0  0  1  0  0  0  0  0999 V2000
   37.1180   25.8770   41.2120 N   0  0  0  0  0  0  0  0  0  0  0  0
   36.9940   24.5740   41.7670 C   0  0  0  0  0  0  0  0  0  0  0  0
   37.7900   23.5590   40.9450 C   0  0  0  0  0  0  0  0  0  0  0  0
   37.0800   23.4750   39.6100 C   0  0  0  0  0  0  0  0  0  0  0  0
   37.2590   24.8390   38.9920 C   0  0  0  0  0  0  0  0  0  0  0  0
   36.6890   25.9280   39.8880 C   0  0  2  0  0  0  0  0  0  0  0  0
   35.9170   24.2780   41.5590 H   0  0  0  0  0  0  0  0  0  0  0  0
   37.0610   24.4550   42.8350 H   0  0  0  0  0  0  0  0  0  0  0  0
   38.8020   23.9650   40.7170 H   0  0  0  0  0  0  0  0  0  0  0  0
   37.8670   22.5950   41.4650 H   0  0  0  0  0  0  0  0  0  0  0  0
   37.5270   22.7360   38.9280 H   0  0  0  0  0  0  0  0  0  0  0  0
   35.9850   23.2990   39.7400 H   0  0  0  0  0  0  0  0  0  0  0  0
   36.7130   24.9440   38.0270 H   0  0  0  0  0  0  0  0  0  0  0  0
   38.3470   25.0240   38.9060 H   0  0  0  0  0  0  0  0  0  0  0  0
   35.6210   25.5640   39.9680 H   0  0  0  0  0  0  0  0  0  0  0  0
   36.6250   27.1980   39.1830 C   0  0  0  0  0  0  0  0  0  0  0  0
   37.6270   27.8400   38.4860 C   0  0  0  0  0  0  0  0  0  0  0  0
   38.5900   27.3610   38.4090 H   0  0  0  0  0  0  0  0  0  0  0  0
   37.5320   29.0540   37.8410 C   0  0  0  0  0  3  0  0  0  0  0  0
   36.3190   29.7100   37.8840 C   0  0  0  0  0  0  0  0  0  0  0  0
   36.2350   30.6600   37.3830 H   0  0  0  0  0  0  0  0  0  0  0  0
   35.2640   29.1650   38.5450 C   0  0  0  0  0  0  0  0  0  0  0  0
   34.3100   29.6710   38.5860 H   0  0  0  0  0  0  0  0  0  0  0  0
   35.4460   27.9680   39.1520 C   0  0  0  0  0  3  0  0  0  0  0  0
   38.1300   26.6960   41.7360 C   0  0  0  0  0  0  0  0  0  0  0  0
   39.0900   26.1450   41.7490 H   0  0  0  0  0  0  0  0  0  0  0  0
   38.2850   27.6280   41.1590 H   0  0  0  0  0  0  0  0  0  0  0  0
   37.6120   28.4030   43.6390 C   0  0  1  0  0  0  0  0  0  0  0  0
   36.5010   27.5270   43.5310 C   0  0  0  0  0  0  0  0  0  0  0  0
   37.8170   26.9450   43.1780 C   0  0  1  0  0  0  0  0  0  0  0  0
   38.0280   28.6630   44.6460 H   0  0  0  0  0  0  0  0  0  0  0  0
   35.9460   27.1560   44.4230 H   0  0  0  0  0  0  0  0  0  0  0  0
   35.7940   27.6500   42.6650 H   0  0  0  0  0  0  0  0  0  0  0  0
   38.4660   26.4210   43.8770 H   0  0  0  0  0  0  0  0  0  0  0  0
   39.2770   29.9950   42.6850 C   0  0  0  0  0  0  0  0  0  0  0  0
   37.9490   29.4760   42.6670 C   0  0  0  0  0  0  0  0  0  0  0  0
   37.0600   29.9940   41.7600 C   0  0  0  0  0  0  0  0  0  0  0  0
   37.4920   30.9850   40.9170 N   0  0  0  0  0  0  0  0  0  0  0  0
   38.7640   31.4640   40.9530 C   0  0  0  0  0  0  0  0  0  0  0  0
   39.6800   30.9740   41.8430 N   0  0  0  0  0  0  0  0  0  0  0  0
   40.0270   29.6230   43.3840 H   0  0  0  0  0  0  0  0  0  0  0  0
   36.0550   29.6150   41.7320 H   0  0  0  0  0  0  0  0  0  0  0  0
   39.0630   32.2490   40.2660 H   0  0  0  0  0  0  0  0  0  0  0  0
  1 25  1  0  0  0  0
  1  2  1  0  0  0  0
  2  8  1  0  0  0  0
  3 10  1  0  0  0  0
  3  2  1  0  0  0  0
  4 12  1  0  0  0  0
  4  3  1  0  0  0  0
  5  4  1  0  0  0  0
  5  6  1  0  0  0  0
  6 15  1  1  0  0  0
  6  1  1  0  0  0  0
  7  2  1  0  0  0  0
  9  3  1  0  0  0  0
 11  4  1  0  0  0  0
 13  5  1  0  0  0  0
 14  5  1  0  0  0  0
 16  6  1  0  0  0  0
 17 16  2  0  0  0  0
 18 17  1  0  0  0  0
 19 20  2  0  0  0  0
 19 17  1  0  0  0  0
 20 22  1  0  0  0  0
 21 20  1  0  0  0  0
 22 23  1  0  0  0  0
 22 24  2  0  0  0  0
 24 16  1  0  0  0  0
 25 26  1  0  0  0  0
 25 30  1  0  0  0  0
 27 25  1  0  0  0  0
 28 31  1  1  0  0  0
 29 28  1  0  0  0  0
 29 32  1  0  0  0  0
 30 29  1  0  0  0  0
 30 28  1  0  0  0  0
 30 34  1  1  0  0  0
 33 29  1  0  0  0  0
 35 41  1  0  0  0  0
 36 35  1  0  0  0  0
 36 28  1  0  0  0  0
 37 36  2  0  0  0  0
 38 39  2  0  0  0  0
 38 37  1  0  0  0  0
 39 40  1  0  0  0  0
 40 35  2  0  0  0  0
 42 37  1  0  0  0  0
 43 39  1  0  0  0  0
M  END
>  <minimizedAffinity>
-5.50962448

$$$$

 OpenBabel03252500333D

 43 46  0  0  1  0  0  0  0  0999 V2000
   38.9970   31.1440   39.5390 N   0  0  0  0  0  0  0  0  0  0  0  0
   39.9170   32.2260   39.5870 C   0  0  0  0  0  0  0  0  0  0  0  0
   39.4380   33.2990   40.5680 C   0  0  0  0  0  0  0  0  0  0  0  0
   38.1890   33.8860   39.9440 C   0  0  0  0  0  0  0  0  0  0  0  0
   37.1900   32.7560   39.9440 C   0  0  0  0  0  0  0  0  0  0  0  0
   37.7180   31.5560   39.1720 C   0  0  2  0  0  0  0  0  0  0  0  0
   39.8060   32.7390   38.5800 H   0  0  0  0  0  0  0  0  0  0  0  0
   40.9710   32.0120   39.6200 H   0  0  0  0  0  0  0  0  0  0  0  0
   39.0990   32.8230   41.5160 H   0  0  0  0  0  0  0  0  0  0  0  0
   40.2230   34.0410   40.7650 H   0  0  0  0  0  0  0  0  0  0  0  0
   37.7600   34.7130   40.5300 H   0  0  0  0  0  0  0  0  0  0  0  0
   38.3650   34.1880   38.8830 H   0  0  0  0  0  0  0  0  0  0  0  0
   36.2380   33.0300   39.4350 H   0  0  0  0  0  0  0  0  0  0  0  0
   37.0540   32.4340   40.9940 H   0  0  0  0  0  0  0  0  0  0  0  0
   37.9030   32.0450   38.1690 H   0  0  0  0  0  0  0  0  0  0  0  0
   36.6640   30.5790   38.9500 C   0  0  0  0  0  0  0  0  0  0  0  0
   36.3210   29.9460   37.7740 C   0  0  0  0  0  0  0  0  0  0  0  0
   36.8990   30.1550   36.8870 H   0  0  0  0  0  0  0  0  0  0  0  0
   35.3040   29.0330   37.5980 C   0  0  0  0  0  3  0  0  0  0  0  0
   34.5390   28.7070   38.6990 C   0  0  0  0  0  0  0  0  0  0  0  0
   33.7400   27.9940   38.5710 H   0  0  0  0  0  0  0  0  0  0  0  0
   34.7920   29.2730   39.9070 C   0  0  0  0  0  0  0  0  0  0  0  0
   34.1990   29.0250   40.7760 H   0  0  0  0  0  0  0  0  0  0  0  0
   35.8120   30.1610   39.9890 C   0  0  0  0  0  3  0  0  0  0  0  0
   39.2520   30.0560   40.3880 C   0  0  0  0  0  0  0  0  0  0  0  0
   38.5120   29.2530   40.2030 H   0  0  0  0  0  0  0  0  0  0  0  0
   40.2610   29.6210   40.2560 H   0  0  0  0  0  0  0  0  0  0  0  0
   38.7730   29.4180   42.8720 C   0  0  1  0  0  0  0  0  0  0  0  0
   39.9750   30.1710   42.8440 C   0  0  0  0  0  0  0  0  0  0  0  0
   38.9850   30.5000   41.7920 C   0  0  1  0  0  0  0  0  0  0  0  0
   37.9880   29.6390   43.6410 H   0  0  0  0  0  0  0  0  0  0  0  0
   40.2280   30.9200   43.6290 H   0  0  0  0  0  0  0  0  0  0  0  0
   40.9150   29.6810   42.4670 H   0  0  0  0  0  0  0  0  0  0  0  0
   38.2230   31.2730   41.8830 H   0  0  0  0  0  0  0  0  0  0  0  0
   37.3230   27.5320   42.1240 C   0  0  0  0  0  0  0  0  0  0  0  0
   38.6360   28.0130   42.4070 C   0  0  0  0  0  0  0  0  0  0  0  0
   39.6930   27.1570   42.2370 C   0  0  0  0  0  0  0  0  0  0  0  0
   39.4360   25.8810   41.8040 N   0  0  0  0  0  0  0  0  0  0  0  0
   38.1760   25.4460   41.5410 C   0  0  0  0  0  0  0  0  0  0  0  0
   37.0940   26.2690   41.6990 N   0  0  0  0  0  0  0  0  0  0  0  0
   36.4450   28.1670   42.2420 H   0  0  0  0  0  0  0  0  0  0  0  0
   40.6890   27.5010   42.4440 H   0  0  0  0  0  0  0  0  0  0  0  0
   38.0180   24.4270   41.2010 H   0  0  0  0  0  0  0  0  0  0  0  0
  1  2  1  0  0  0  0
  1 25  1  0  0  0  0
  2  8  1  0  0  0  0
  2  3  1  0  0  0  0
  3 10  1  0  0  0  0
  3  9  1  0  0  0  0
  4 11  1  0  0  0  0
  4  3  1  0  0  0  0
  5  4  1  0  0  0  0
  5 14  1  0  0  0  0
  6 15  1  6  0  0  0
  6  1  1  0  0  0  0
  6  5  1  0  0  0  0
  7  2  1  0  0  0  0
 12  4  1  0  0  0  0
 13  5  1  0  0  0  0
 16  6  1  0  0  0  0
 16 24  1  0  0  0  0
 17 16  2  0  0  0  0
 18 17  1  0  0  0  0
 19 17  1  0  0  0  0
 19 20  2  0  0  0  0
 20 22  1  0  0  0  0
 21 20  1  0  0  0  0
 22 24  2  0  0  0  0
 22 23  1  0  0  0  0
 25 30  1  0  0  0  0
 26 25  1  0  0  0  0
 27 25  1  0  0  0  0
 28 31  1  1  0  0  0
 29 28  1  0  0  0  0
 29 32  1  0  0  0  0
 30 34  1  1  0  0  0
 30 29  1  0  0  0  0
 30 28  1  0  0  0  0
 33 29  1  0  0  0  0
 35 41  1  0  0  0  0
 35 36  1  0  0  0  0
 36 28  1  0  0  0  0
 37 36  2  0  0  0  0
 37 42  1  0  0  0  0
 38 37  1  0  0  0  0
 39 40  1  0  0  0  0
 39 38  2  0  0  0  0
 40 35  2  0  0  0  0
 43 39  1  0  0  0  0
M  END
>  <minimizedAffinity>
-5.50922394

$$$$

 OpenBabel03252500333D

 43 46  0  0  1  0  0  0  0  0999 V2000
   37.8920   26.0330   39.1670 N   0  0  0  0  0  0  0  0  0  0  0  0
   37.9380   24.9020   38.3070 C   0  0  0  0  0  0  0  0  0  0  0  0
   36.6850   24.0410   38.4800 C   0  0  0  0  0  0  0  0  0  0  0  0
   36.7810   23.4640   39.8770 C   0  0  0  0  0  0  0  0  0  0  0  0
   36.6750   24.6560   40.7940 C   0  0  0  0  0  0  0  0  0  0  0  0
   37.7700   25.6720   40.5070 C   0  0  2  0  0  0  0  0  0  0  0  0
   38.7560   24.2460   38.7440 H   0  0  0  0  0  0  0  0  0  0  0  0
   38.2680   25.0340   37.2920 H   0  0  0  0  0  0  0  0  0  0  0  0
   35.7780   24.6870   38.4890 H   0  0  0  0  0  0  0  0  0  0  0  0
   36.6100   23.2790   37.6930 H   0  0  0  0  0  0  0  0  0  0  0  0
   35.9560   22.7780   40.1200 H   0  0  0  0  0  0  0  0  0  0  0  0
   37.7740   22.9840   40.0530 H   0  0  0  0  0  0  0  0  0  0  0  0
   36.8090   24.3820   41.8650 H   0  0  0  0  0  0  0  0  0  0  0  0
   35.7070   25.1510   40.5840 H   0  0  0  0  0  0  0  0  0  0  0  0
   38.6780   25.0160   40.6610 H   0  0  0  0  0  0  0  0  0  0  0  0
   37.8260   26.6820   41.5510 C   0  0  0  0  0  0  0  0  0  0  0  0
   38.7980   27.6380   41.7630 C   0  0  0  0  0  0  0  0  0  0  0  0
   39.6270   27.6930   41.0740 H   0  0  0  0  0  0  0  0  0  0  0  0
   38.8240   28.5720   42.7740 C   0  0  0  0  0  3  0  0  0  0  0  0
   37.7830   28.5680   43.6790 C   0  0  0  0  0  0  0  0  0  0  0  0
   37.7950   29.2960   44.4740 H   0  0  0  0  0  0  0  0  0  0  0  0
   36.7720   27.6680   43.5620 C   0  0  0  0  0  0  0  0  0  0  0  0
   35.9510   27.6550   44.2650 H   0  0  0  0  0  0  0  0  0  0  0  0
   36.8260   26.7840   42.5360 C   0  0  0  0  0  3  0  0  0  0  0  0
   37.3670   27.2180   38.6290 C   0  0  0  0  0  0  0  0  0  0  0  0
   37.5910   28.0680   39.3020 H   0  0  0  0  0  0  0  0  0  0  0  0
   37.7730   27.4650   37.6290 H   0  0  0  0  0  0  0  0  0  0  0  0
   35.0490   28.3820   38.9070 C   0  0  1  0  0  0  0  0  0  0  0  0
   35.0960   27.8200   37.6050 C   0  0  0  0  0  0  0  0  0  0  0  0
   35.8750   27.1060   38.6430 C   0  0  1  0  0  0  0  0  0  0  0  0
   34.1350   28.2530   39.5430 H   0  0  0  0  0  0  0  0  0  0  0  0
   34.2130   27.3340   37.1330 H   0  0  0  0  0  0  0  0  0  0  0  0
   35.7190   28.3270   36.8160 H   0  0  0  0  0  0  0  0  0  0  0  0
   35.4910   26.2820   39.2430 H   0  0  0  0  0  0  0  0  0  0  0  0
   35.8150   29.8970   40.7330 C   0  0  0  0  0  0  0  0  0  0  0  0
   35.7930   29.5940   39.3400 C   0  0  0  0  0  0  0  0  0  0  0  0
   36.4530   30.4340   38.4810 C   0  0  0  0  0  0  0  0  0  0  0  0
   37.1020   31.5230   39.0040 N   0  0  0  0  0  0  0  0  0  0  0  0
   37.1090   31.7910   40.3370 C   0  0  0  0  0  0  0  0  0  0  0  0
   36.4620   30.9780   41.2260 N   0  0  0  0  0  0  0  0  0  0  0  0
   35.3070   29.2660   41.4630 H   0  0  0  0  0  0  0  0  0  0  0  0
   36.4480   30.2220   37.4280 H   0  0  0  0  0  0  0  0  0  0  0  0
   37.6350   32.6650   40.7070 H   0  0  0  0  0  0  0  0  0  0  0  0
  1  6  1  0  0  0  0
  2  3  1  0  0  0  0
  2  7  1  0  0  0  0
  2  1  1  0  0  0  0
  3  9  1  0  0  0  0
  3  4  1  0  0  0  0
  4 12  1  0  0  0  0
  4 11  1  0  0  0  0
  4  5  1  0  0  0  0
  5 13  1  0  0  0  0
  6 15  1  1  0  0  0
  6  5  1  0  0  0  0
  6 16  1  0  0  0  0
  8  2  1  0  0  0  0
 10  3  1  0  0  0  0
 14  5  1  0  0  0  0
 16 17  2  0  0  0  0
 16 24  1  0  0  0  0
 17 19  1  0  0  0  0
 18 17  1  0  0  0  0
 19 20  2  0  0  0  0
 20 21  1  0  0  0  0
 22 20  1  0  0  0  0
 22 23  1  0  0  0  0
 24 22  2  0  0  0  0
 25 30  1  0  0  0  0
 25  1  1  0  0  0  0
 25 26  1  0  0  0  0
 27 25  1  0  0  0  0
 28 36  1  0  0  0  0
 28 31  1  1  0  0  0
 29 30  1  0  0  0  0
 29 28  1  0  0  0  0
 30 28  1  0  0  0  0
 30 34  1  1  0  0  0
 32 29  1  0  0  0  0
 33 29  1  0  0  0  0
 35 40  1  0  0  0  0
 35 41  1  0  0  0  0
 36 35  2  0  0  0  0
 37 38  2  0  0  0  0
 37 36  1  0  0  0  0
 38 39  1  0  0  0  0
 39 43  1  0  0  0  0
 39 40  2  0  0  0  0
 42 37  1  0  0  0  0
M  END
>  <minimizedAffinity>
-5.40289545

$$$$

 OpenBabel03252500333D

 43 46  0  0  1  0  0  0  0  0999 V2000
   39.8380   30.2840   42.1390 N   0  0  0  0  0  0  0  0  0  0  0  0
   40.9410   31.1460   42.3850 C   0  0  0  0  0  0  0  0  0  0  0  0
   42.2620   30.4280   42.1020 C   0  0  0  0  0  0  0  0  0  0  0  0
   42.3710   29.3520   43.1630 C   0  0  0  0  0  0  0  0  0  0  0  0
   41.2360   28.4040   42.8690 C   0  0  0  0  0  0  0  0  0  0  0  0
   39.8960   29.1220   42.9040 C   0  0  2  0  0  0  0  0  0  0  0  0
   40.9580   31.2690   43.5150 H   0  0  0  0  0  0  0  0  0  0  0  0
   40.8910   32.1660   42.0460 H   0  0  0  0  0  0  0  0  0  0  0  0
   42.1970   29.8820   41.1340 H   0  0  0  0  0  0  0  0  0  0  0  0
   43.1060   31.1290   42.0970 H   0  0  0  0  0  0  0  0  0  0  0  0
   43.3100   28.7810   43.1050 H   0  0  0  0  0  0  0  0  0  0  0  0
   42.2120   29.7700   44.1870 H   0  0  0  0  0  0  0  0  0  0  0  0
   41.1500   27.5950   43.6300 H   0  0  0  0  0  0  0  0  0  0  0  0
   41.3780   28.0270   41.8380 H   0  0  0  0  0  0  0  0  0  0  0  0
   39.9310   29.5320   43.9580 H   0  0  0  0  0  0  0  0  0  0  0  0
   38.7970   28.1700   42.8830 C   0  0  0  0  0  0  0  0  0  0  0  0
   37.5440   28.3000   43.4440 C   0  0  0  0  0  0  0  0  0  0  0  0
   37.2980   29.2200   43.9510 H   0  0  0  0  0  0  0  0  0  0  0  0
   36.5300   27.3670   43.4150 C   0  0  0  0  0  3  0  0  0  0  0  0
   36.7740   26.1760   42.7640 C   0  0  0  0  0  0  0  0  0  0  0  0
   35.9870   25.4400   42.7370 H   0  0  0  0  0  0  0  0  0  0  0  0
   37.9760   25.9440   42.1760 C   0  0  0  0  0  0  0  0  0  0  0  0
   38.1780   25.0150   41.6640 H   0  0  0  0  0  0  0  0  0  0  0  0
   38.9170   26.9170   42.2530 C   0  0  0  0  0  3  0  0  0  0  0  0
   39.2550   30.3500   40.8640 C   0  0  0  0  0  0  0  0  0  0  0  0
   39.9730   30.7880   40.1440 H   0  0  0  0  0  0  0  0  0  0  0  0
   38.9440   29.3630   40.4700 H   0  0  0  0  0  0  0  0  0  0  0  0
   38.1160   32.4910   39.9030 C   0  0  1  0  0  0  0  0  0  0  0  0
   37.1930   31.4200   39.7810 C   0  0  0  0  0  0  0  0  0  0  0  0
   38.1300   31.3350   40.9250 C   0  0  1  0  0  0  0  0  0  0  0  0
   37.7750   33.4860   40.2910 H   0  0  0  0  0  0  0  0  0  0  0  0
   36.1020   31.5500   39.9590 H   0  0  0  0  0  0  0  0  0  0  0  0
   37.3600   30.6480   38.9790 H   0  0  0  0  0  0  0  0  0  0  0  0
   37.9200   31.7170   41.9230 H   0  0  0  0  0  0  0  0  0  0  0  0
   40.3060   33.6140   39.5020 C   0  0  0  0  0  0  0  0  0  0  0  0
   39.3300   32.6700   39.0650 C   0  0  0  0  0  0  0  0  0  0  0  0
   39.5630   31.9870   37.8990 C   0  0  0  0  0  0  0  0  0  0  0  0
   40.7230   32.2430   37.2130 N   0  0  0  0  0  0  0  0  0  0  0  0
   41.6380   33.1470   37.6510 C   0  0  0  0  0  0  0  0  0  0  0  0
   41.4420   33.8500   38.8080 N   0  0  0  0  0  0  0  0  0  0  0  0
   40.1750   34.1880   40.4200 H   0  0  0  0  0  0  0  0  0  0  0  0
   38.8400   31.2710   37.5540 H   0  0  0  0  0  0  0  0  0  0  0  0
   42.5420   33.3190   37.0760 H   0  0  0  0  0  0  0  0  0  0  0  0
  1  2  1  0  0  0  0
  1  6  1  0  0  0  0
  2  7  1  0  0  0  0
  3  2  1  0  0  0  0
  3  4  1  0  0  0  0
  4 12  1  0  0  0  0
  5  6  1  0  0  0  0
  5  4  1  0  0  0  0
  5 13  1  0  0  0  0
  6 15  1  1  0  0  0
  8  2  1  0  0  0  0
  9  3  1  0  0  0  0
 10  3  1  0  0  0  0
 11  4  1  0  0  0  0
 14  5  1  0  0  0  0
 16  6  1  0  0  0  0
 16 17  1  0  0  0  0
 17 18  1  0  0  0  0
 19 17  2  0  0  0  0
 20 19  1  0  0  0  0
 21 20  1  0  0  0  0
 22 24  1  0  0  0  0
 22 20  2  0  0  0  0
 23 22  1  0  0  0  0
 24 16  2  0  0  0  0
 25 30  1  0  0  0  0
 25  1  1  0  0  0  0
 26 25  1  0  0  0  0
 27 25  1  0  0  0  0
 28 31  1  1  0  0  0
 28 30  1  0  0  0  0
 29 28  1  0  0  0  0
 29 32  1  0  0  0  0
 29 30  1  0  0  0  0
 30 34  1  1  0  0  0
 33 29  1  0  0  0  0
 35 41  1  0  0  0  0
 36 35  1  0  0  0  0
 36 28  1  0  0  0  0
 37 36  2  0  0  0  0
 38 39  2  0  0  0  0
 38 37  1  0  0  0  0
 39 40  1  0  0  0  0
 40 35  2  0  0  0  0
 42 37  1  0  0  0  0
 43 39  1  0  0  0  0
M  END
>  <minimizedAffinity>
-5.31132269

$$$$

 OpenBabel03252500333D

 43 46  0  0  1  0  0  0  0  0999 V2000
   37.4650   30.9630   40.3290 N   0  0  0  0  0  0  0  0  0  0  0  0
   37.2790   32.2900   39.8530 C   0  0  0  0  0  0  0  0  0  0  0  0
   38.6250   32.9350   39.5150 C   0  0  0  0  0  0  0  0  0  0  0  0
   39.3370   33.1010   40.8410 C   0  0  0  0  0  0  0  0  0  0  0  0
   39.5870   31.6940   41.3230 C   0  0  0  0  0  0  0  0  0  0  0  0
   38.2860   30.9170   41.4530 C   0  0  2  0  0  0  0  0  0  0  0  0
   36.9420   32.8750   40.7660 H   0  0  0  0  0  0  0  0  0  0  0  0
   36.4870   32.4850   39.1510 H   0  0  0  0  0  0  0  0  0  0  0  0
   39.2510   32.2240   38.9300 H   0  0  0  0  0  0  0  0  0  0  0  0
   38.4910   33.8770   38.9660 H   0  0  0  0  0  0  0  0  0  0  0  0
   40.3120   33.6030   40.7500 H   0  0  0  0  0  0  0  0  0  0  0  0
   38.6870   33.6100   41.5940 H   0  0  0  0  0  0  0  0  0  0  0  0
   40.0420   31.6670   42.3390 H   0  0  0  0  0  0  0  0  0  0  0  0
   40.1960   31.1830   40.5520 H   0  0  0  0  0  0  0  0  0  0  0  0
   37.7380   31.5910   42.1770 H   0  0  0  0  0  0  0  0  0  0  0  0
   38.4990   29.6640   42.1590 C   0  0  0  0  0  0  0  0  0  0  0  0
   39.6130   28.8520   42.1410 C   0  0  0  0  0  0  0  0  0  0  0  0
   40.4680   29.1610   41.5600 H   0  0  0  0  0  0  0  0  0  0  0  0
   39.7730   27.6610   42.8140 C   0  0  0  0  0  3  0  0  0  0  0  0
   38.7230   27.2180   43.5910 C   0  0  0  0  0  0  0  0  0  0  0  0
   38.8390   26.2860   44.1210 H   0  0  0  0  0  0  0  0  0  0  0  0
   37.5770   27.9420   43.6800 C   0  0  0  0  0  0  0  0  0  0  0  0
   36.7480   27.6040   44.2850 H   0  0  0  0  0  0  0  0  0  0  0  0
   37.5050   29.1020   42.9830 C   0  0  0  0  0  3  0  0  0  0  0  0
   37.3830   29.9320   39.3810 C   0  0  0  0  0  0  0  0  0  0  0  0
   37.7950   30.2770   38.4130 H   0  0  0  0  0  0  0  0  0  0  0  0
   37.9350   29.0180   39.6750 H   0  0  0  0  0  0  0  0  0  0  0  0
   35.4370   28.2160   39.1090 C   0  0  1  0  0  0  0  0  0  0  0  0
   35.0990   29.0850   40.1780 C   0  0  0  0  0  0  0  0  0  0  0  0
   35.9340   29.6770   39.1060 C   0  0  1  0  0  0  0  0  0  0  0  0
   34.6730   27.9560   38.3310 H   0  0  0  0  0  0  0  0  0  0  0  0
   34.0600   29.4500   40.3430 H   0  0  0  0  0  0  0  0  0  0  0  0
   35.6220   28.9610   41.1660 H   0  0  0  0  0  0  0  0  0  0  0  0
   35.5400   30.2030   38.2380 H   0  0  0  0  0  0  0  0  0  0  0  0
   37.0230   26.6860   37.9420 C   0  0  0  0  0  0  0  0  0  0  0  0
   36.4690   27.1480   39.1720 C   0  0  0  0  0  0  0  0  0  0  0  0
   36.9160   26.5830   40.3390 C   0  0  0  0  0  0  0  0  0  0  0  0
   37.8710   25.6030   40.2650 N   0  0  0  0  0  0  0  0  0  0  0  0
   38.3840   25.1790   39.0800 C   0  0  0  0  0  0  0  0  0  0  0  0
   37.9650   25.7160   37.8940 N   0  0  0  0  0  0  0  0  0  0  0  0
   36.7060   27.0960   36.9830 H   0  0  0  0  0  0  0  0  0  0  0  0
   36.5110   26.9190   41.2760 H   0  0  0  0  0  0  0  0  0  0  0  0
   39.1390   24.4000   39.0680 H   0  0  0  0  0  0  0  0  0  0  0  0
  1  6  1  0  0  0  0
  2  1  1  0  0  0  0
  2  7  1  0  0  0  0
  3  2  1  0  0  0  0
  3  4  1  0  0  0  0
  4  5  1  0  0  0  0
  4 12  1  0  0  0  0
  5  6  1  0  0  0  0
  5 13  1  0  0  0  0
  6 16  1  0  0  0  0
  6 15  1  1  0  0  0
  8  2  1  0  0  0  0
  9  3  1  0  0  0  0
 10  3  1  0  0  0  0
 11  4  1  0  0  0  0
 14  5  1  0  0  0  0
 16 24  1  0  0  0  0
 17 16  2  0  0  0  0
 17 19  1  0  0  0  0
 18 17  1  0  0  0  0
 19 20  2  0  0  0  0
 20 22  1  0  0  0  0
 20 21  1  0  0  0  0
 22 23  1  0  0  0  0
 24 22  2  0  0  0  0
 25 27  1  0  0  0  0
 25  1  1  0  0  0  0
 26 25  1  0  0  0  0
 28 31  1  6  0  0  0
 28 36  1  0  0  0  0
 28 29  1  0  0  0  0
 29 32  1  0  0  0  0
 29 33  1  0  0  0  0
 30 34  1  6  0  0  0
 30 28  1  0  0  0  0
 30 25  1  0  0  0  0
 30 29  1  0  0  0  0
 35 36  1  0  0  0  0
 36 37  2  0  0  0  0
 37 42  1  0  0  0  0
 38 37  1  0  0  0  0
 39 38  2  0  0  0  0
 40 35  2  0  0  0  0
 40 39  1  0  0  0  0
 41 35  1  0  0  0  0
 43 39  1  0  0  0  0
M  END
>  <minimizedAffinity>
-5.21050978

$$$$

 OpenBabel03252500333D

 43 46  0  0  1  0  0  0  0  0999 V2000
   37.5720   29.0830   38.6420 N   0  0  0  0  0  0  0  0  0  0  0  0
   36.9050   29.0450   37.3870 C   0  0  0  0  0  0  0  0  0  0  0  0
   35.4450   29.4770   37.5380 C   0  0  0  0  0  0  0  0  0  0  0  0
   34.7840   28.3870   38.3570 C   0  0  0  0  0  0  0  0  0  0  0  0
   35.4490   28.4630   39.7080 C   0  0  0  0  0  0  0  0  0  0  0  0
   36.9540   28.2730   39.5920 C   0  0  2  0  0  0  0  0  0  0  0  0
   36.8160   27.9380   37.1470 H   0  0  0  0  0  0  0  0  0  0  0  0
   37.4100   29.4280   36.5180 H   0  0  0  0  0  0  0  0  0  0  0  0
   35.3830   30.3950   38.1650 H   0  0  0  0  0  0  0  0  0  0  0  0
   34.9720   29.6420   36.5610 H   0  0  0  0  0  0  0  0  0  0  0  0
   33.7050   28.5490   38.5030 H   0  0  0  0  0  0  0  0  0  0  0  0
   34.9890   27.3750   37.9300 H   0  0  0  0  0  0  0  0  0  0  0  0
   35.1090   27.6550   40.3950 H   0  0  0  0  0  0  0  0  0  0  0  0
   35.2780   29.4820   40.1050 H   0  0  0  0  0  0  0  0  0  0  0  0
   36.9770   27.2590   39.0920 H   0  0  0  0  0  0  0  0  0  0  0  0
   37.5550   28.0850   40.9030 C   0  0  0  0  0  0  0  0  0  0  0  0
   38.7910   27.5540   41.2070 C   0  0  0  0  0  0  0  0  0  0  0  0
   39.4360   27.2500   40.3980 H   0  0  0  0  0  0  0  0  0  0  0  0
   39.3210   27.3770   42.4660 C   0  0  0  0  0  3  0  0  0  0  0  0
   38.5540   27.7640   43.5450 C   0  0  0  0  0  0  0  0  0  0  0  0
   38.9610   27.6300   44.5350 H   0  0  0  0  0  0  0  0  0  0  0  0
   37.3200   28.3000   43.3570 C   0  0  0  0  0  0  0  0  0  0  0  0
   36.7110   28.6060   44.1950 H   0  0  0  0  0  0  0  0  0  0  0  0
   36.8760   28.4370   42.0850 C   0  0  0  0  0  3  0  0  0  0  0  0
   38.2650   30.2630   38.9560 C   0  0  0  0  0  0  0  0  0  0  0  0
   39.0150   30.0590   39.7450 H   0  0  0  0  0  0  0  0  0  0  0  0
   38.7980   30.7040   38.0910 H   0  0  0  0  0  0  0  0  0  0  0  0
   37.8320   32.2220   40.6230 C   0  0  1  0  0  0  0  0  0  0  0  0
   37.4410   32.6600   39.3310 C   0  0  0  0  0  0  0  0  0  0  0  0
   37.2950   31.2090   39.5900 C   0  0  1  0  0  0  0  0  0  0  0  0
   37.1730   32.4180   41.5080 H   0  0  0  0  0  0  0  0  0  0  0  0
   36.5410   33.2930   39.1640 H   0  0  0  0  0  0  0  0  0  0  0  0
   38.2390   32.9260   38.5830 H   0  0  0  0  0  0  0  0  0  0  0  0
   36.3870   30.7390   39.9660 H   0  0  0  0  0  0  0  0  0  0  0  0
   39.4830   31.1380   42.1460 C   0  0  0  0  0  0  0  0  0  0  0  0
   39.2370   32.0480   41.0760 C   0  0  0  0  0  0  0  0  0  0  0  0
   40.3050   32.7120   40.5290 C   0  0  0  0  0  0  0  0  0  0  0  0
   41.5550   32.4680   41.0360 N   0  0  0  0  0  0  0  0  0  0  0  0
   41.7640   31.5950   42.0570 C   0  0  0  0  0  0  0  0  0  0  0  0
   40.7250   30.9130   42.6310 N   0  0  0  0  0  0  0  0  0  0  0  0
   38.6740   30.5830   42.6210 H   0  0  0  0  0  0  0  0  0  0  0  0
   40.1400   33.4020   39.7210 H   0  0  0  0  0  0  0  0  0  0  0  0
   42.7700   31.4320   42.4280 H   0  0  0  0  0  0  0  0  0  0  0  0
  1 25  1  0  0  0  0
  1  6  1  0  0  0  0
  2  3  1  0  0  0  0
  2  1  1  0  0  0  0
  3  9  1  0  0  0  0
  3  4  1  0  0  0  0
  4 11  1  0  0  0  0
  4  5  1  0  0  0  0
  5 14  1  0  0  0  0
  5 13  1  0  0  0  0
  6 15  1  6  0  0  0
  6  5  1  0  0  0  0
  6 16  1  0  0  0  0
  7  2  1  0  0  0  0
  8  2  1  0  0  0  0
 10  3  1  0  0  0  0
 12  4  1  0  0  0  0
 16 17  2  0  0  0  0
 16 24  1  0  0  0  0
 17 19  1  0  0  0  0
 18 17  1  0  0  0  0
 19 20  2  0  0  0  0
 20 21  1  0  0  0  0
 22 20  1  0  0  0  0
 22 23  1  0  0  0  0
 24 22  2  0  0  0  0
 25 30  1  0  0  0  0
 25 26  1  0  0  0  0
 27 25  1  0  0  0  0
 28 36  1  0  0  0  0
 28 31  1  1  0  0  0
 29 30  1  0  0  0  0
 29 28  1  0  0  0  0
 30 34  1  1  0  0  0
 30 28  1  0  0  0  0
 32 29  1  0  0  0  0
 33 29  1  0  0  0  0
 35 41  1  0  0  0  0
 35 40  1  0  0  0  0
 36 35  2  0  0  0  0
 37 38  2  0  0  0  0
 37 36  1  0  0  0  0
 38 39  1  0  0  0  0
 39 43  1  0  0  0  0
 39 40  2  0  0  0  0
 42 37  1  0  0  0  0
M  END
>  <minimizedAffinity>
-5.18773937

$$$$
