
 OpenBabel03252502143D

 37 40  0  0  0  0  0  0  0  0999 V2000
   36.5710   29.7590   34.8090 Cl  0  0  0  0  0  0  0  0  0  0  0  0
   35.7480   29.3090   36.2910 C   0  0  0  0  0  0  0  0  0  0  0  0
   36.3560   29.4230   37.4990 C   0  0  0  0  0  0  0  0  0  0  0  0
   35.6090   29.0390   38.5920 C   0  0  0  0  0  0  0  0  0  0  0  0
   34.3440   28.5720   38.4930 C   0  0  0  0  0  0  0  0  0  0  0  0
   33.7390   28.4600   37.2690 C   0  0  0  0  0  0  0  0  0  0  0  0
   34.4600   28.8360   36.1670 C   0  0  0  0  0  0  0  0  0  0  0  0
   33.8160   28.2880   39.4060 H   0  0  0  0  0  0  0  0  0  0  0  0
   32.7260   28.0840   37.2220 H   0  0  0  0  0  0  0  0  0  0  0  0
   33.9810   28.7470   35.1970 H   0  0  0  0  0  0  0  0  0  0  0  0
   39.3440   31.7340   37.6610 C   0  0  0  0  0  0  0  0  0  0  0  0
   38.0340   31.2700   37.6030 C   0  0  0  0  0  0  0  0  0  0  0  0
   37.7120   29.9280   37.5610 C   0  0  0  0  0  0  0  0  0  0  0  0
   38.7740   29.0760   37.5810 N   0  0  0  0  0  0  0  0  0  0  0  0
   40.0430   29.5170   37.6380 C   0  0  0  0  0  0  0  0  0  0  0  0
   40.3380   30.8200   37.6780 N   0  0  0  0  0  0  0  0  0  0  0  0
   39.5650   32.7920   37.6920 H   0  0  0  0  0  0  0  0  0  0  0  0
   37.2030   31.9640   37.5870 H   0  0  0  0  0  0  0  0  0  0  0  0
   40.8070   28.7510   37.6490 H   0  0  0  0  0  0  0  0  0  0  0  0
   36.2380   29.1510   39.9210 C   0  0  0  0  0  0  0  0  0  0  0  0
   36.1360   30.3670   40.5810 C   0  0  0  0  0  0  0  0  0  0  0  0
   36.7530   30.3560   41.8020 C   0  0  0  0  0  0  0  0  0  0  0  0
   37.4200   29.3040   42.3780 C   0  0  0  0  0  0  0  0  0  0  0  0
   37.4700   28.1280   41.6450 C   0  0  0  0  0  0  0  0  0  0  0  0
   36.8770   28.1020   40.4480 N   0  0  0  0  0  0  0  0  0  0  0  0
   35.6360   31.2330   40.2020 H   0  0  0  0  0  0  0  0  0  0  0  0
   36.7250   31.2890   42.4050 H   0  0  0  0  0  0  0  0  0  0  0  0
   37.8900   29.3540   43.3500 H   0  0  0  0  0  0  0  0  0  0  0  0
   38.1390   26.9240   42.1190 C   0  0  0  0  0  0  0  0  0  0  0  0
   39.0970   27.0530   43.0990 C   0  0  0  0  0  0  0  0  0  0  0  0
   39.3530   28.0420   43.5150 H   0  0  0  0  0  0  0  0  0  0  0  0
   39.8030   26.0020   43.6350 C   0  0  0  0  0  3  0  0  0  0  0  0
   39.5650   24.7200   43.1870 C   0  0  0  0  0  0  0  0  0  0  0  0
   40.0560   23.8270   43.5350 H   0  0  0  0  0  0  0  0  0  0  0  0
   38.6040   24.5950   42.2050 C   0  0  0  0  0  0  0  0  0  0  0  0
   38.3500   23.6060   41.7910 H   0  0  0  0  0  0  0  0  0  0  0  0
   37.8910   25.6570   41.6640 C   0  0  0  0  0  3  0  0  0  0  0  0
  1  2  1  0  0  0  0
  2  3  1  0  0  0  0
  3 13  1  0  0  0  0
  3  4  2  0  0  0  0
  4 20  1  0  0  0  0
  5  4  1  0  0  0  0
  5  8  1  0  0  0  0
  6  5  2  0  0  0  0
  7  2  2  0  0  0  0
  7  6  1  0  0  0  0
  9  6  1  0  0  0  0
 10  7  1  0  0  0  0
 11 16  1  0  0  0  0
 11 17  1  0  0  0  0
 12 11  2  0  0  0  0
 13 14  2  0  0  0  0
 13 12  1  0  0  0  0
 14 15  1  0  0  0  0
 15 19  1  0  0  0  0
 15 16  2  0  0  0  0
 18 12  1  0  0  0  0
 20 25  2  0  0  0  0
 20 21  1  0  0  0  0
 21 22  2  0  0  0  0
 22 23  1  0  0  0  0
 22 27  1  0  0  0  0
 23 28  1  0  0  0  0
 24 29  1  0  0  0  0
 24 23  2  0  0  0  0
 25 24  1  0  0  0  0
 26 21  1  0  0  0  0
 29 30  1  0  0  0  0
 30 31  1  0  0  0  0
 30 32  2  0  0  0  0
 33 34  1  0  0  0  0
 33 32  1  0  0  0  0
 35 33  2  0  0  0  0
 36 35  1  0  0  0  0
 37 29  2  0  0  0  0
 37 35  1  0  0  0  0
M  END
>  <minimizedAffinity>
-6.16140985

$$$$

 OpenBabel03252502143D

 37 40  0  0  0  0  0  0  0  0999 V2000
   36.5750   29.3960   34.7840 Cl  0  0  0  0  0  0  0  0  0  0  0  0
   35.6870   29.1770   36.2810 C   0  0  0  0  0  0  0  0  0  0  0  0
   36.3020   29.2720   37.4870 C   0  0  0  0  0  0  0  0  0  0  0  0
   35.5000   29.0810   38.5910 C   0  0  0  0  0  0  0  0  0  0  0  0
   34.1770   28.8130   38.5060 C   0  0  0  0  0  0  0  0  0  0  0  0
   33.5660   28.7190   37.2830 C   0  0  0  0  0  0  0  0  0  0  0  0
   34.3410   28.9050   36.1690 C   0  0  0  0  0  0  0  0  0  0  0  0
   33.6090   28.6750   39.4270 H   0  0  0  0  0  0  0  0  0  0  0  0
   32.5070   28.5040   37.2470 H   0  0  0  0  0  0  0  0  0  0  0  0
   33.8570   28.8310   35.2000 H   0  0  0  0  0  0  0  0  0  0  0  0
   40.0640   28.8960   37.4900 C   0  0  0  0  0  0  0  0  0  0  0  0
   38.7050   28.5980   37.4410 C   0  0  0  0  0  0  0  0  0  0  0  0
   37.7200   29.5600   37.5350 C   0  0  0  0  0  0  0  0  0  0  0  0
   38.1690   30.8380   37.6810 N   0  0  0  0  0  0  0  0  0  0  0  0
   39.4790   31.1330   37.7280 C   0  0  0  0  0  0  0  0  0  0  0  0
   40.4220   30.1900   37.6350 N   0  0  0  0  0  0  0  0  0  0  0  0
   40.8130   28.1210   37.4140 H   0  0  0  0  0  0  0  0  0  0  0  0
   38.3690   27.5750   37.3250 H   0  0  0  0  0  0  0  0  0  0  0  0
   39.7210   32.1820   37.8460 H   0  0  0  0  0  0  0  0  0  0  0  0
   36.1350   29.1780   39.9190 C   0  0  0  0  0  0  0  0  0  0  0  0
   36.0660   30.3970   40.5780 C   0  0  0  0  0  0  0  0  0  0  0  0
   36.6850   30.3710   41.7980 C   0  0  0  0  0  0  0  0  0  0  0  0
   37.3250   29.3030   42.3740 C   0  0  0  0  0  0  0  0  0  0  0  0
   37.3440   28.1250   41.6420 C   0  0  0  0  0  0  0  0  0  0  0  0
   36.7470   28.1140   40.4460 N   0  0  0  0  0  0  0  0  0  0  0  0
   35.5870   31.2750   40.1990 H   0  0  0  0  0  0  0  0  0  0  0  0
   36.6820   31.3050   42.3990 H   0  0  0  0  0  0  0  0  0  0  0  0
   37.7990   29.3420   43.3440 H   0  0  0  0  0  0  0  0  0  0  0  0
   37.9820   26.9050   42.1160 C   0  0  0  0  0  0  0  0  0  0  0  0
   37.4000   25.6990   41.7980 C   0  0  0  0  0  0  0  0  0  0  0  0
   36.4740   25.6560   41.2010 H   0  0  0  0  0  0  0  0  0  0  0  0
   37.8960   24.4750   42.1800 C   0  0  0  0  0  3  0  0  0  0  0  0
   39.0510   24.4100   42.9310 C   0  0  0  0  0  0  0  0  0  0  0  0
   39.5270   23.5100   43.2820 H   0  0  0  0  0  0  0  0  0  0  0  0
   39.6310   25.6210   43.2470 C   0  0  0  0  0  0  0  0  0  0  0  0
   40.5570   25.6610   43.8440 H   0  0  0  0  0  0  0  0  0  0  0  0
   39.1290   26.8570   42.8610 C   0  0  0  0  0  3  0  0  0  0  0  0
  1  2  1  0  0  0  0
  2  3  1  0  0  0  0
  3 13  1  0  0  0  0
  3  4  2  0  0  0  0
  4 20  1  0  0  0  0
  5  4  1  0  0  0  0
  5  8  1  0  0  0  0
  6  5  2  0  0  0  0
  7  2  2  0  0  0  0
  7  6  1  0  0  0  0
  9  6  1  0  0  0  0
 10  7  1  0  0  0  0
 11 16  1  0  0  0  0
 12 11  2  0  0  0  0
 12 13  1  0  0  0  0
 13 14  2  0  0  0  0
 14 15  1  0  0  0  0
 15 19  1  0  0  0  0
 16 15  2  0  0  0  0
 17 11  1  0  0  0  0
 18 12  1  0  0  0  0
 20 25  2  0  0  0  0
 20 21  1  0  0  0  0
 21 22  2  0  0  0  0
 22 23  1  0  0  0  0
 22 27  1  0  0  0  0
 23 28  1  0  0  0  0
 24 29  1  0  0  0  0
 24 23  2  0  0  0  0
 25 24  1  0  0  0  0
 26 21  1  0  0  0  0
 29 37  1  0  0  0  0
 30 29  2  0  0  0  0
 30 32  1  0  0  0  0
 31 30  1  0  0  0  0
 32 33  2  0  0  0  0
 33 35  1  0  0  0  0
 33 34  1  0  0  0  0
 35 36  1  0  0  0  0
 37 35  2  0  0  0  0
M  END
>  <minimizedAffinity>
-6.03739262

$$$$

 OpenBabel03252502143D

 37 40  0  0  0  0  0  0  0  0999 V2000
   40.8660   32.3430   37.2250 Cl  0  0  0  0  0  0  0  0  0  0  0  0
   39.9450   32.3650   38.7170 C   0  0  0  0  0  0  0  0  0  0  0  0
   39.1910   31.3020   39.0980 C   0  0  0  0  0  0  0  0  0  0  0  0
   38.5140   31.4370   40.2900 C   0  0  0  0  0  0  0  0  0  0  0  0
   38.5780   32.5510   41.0540 C   0  0  0  0  0  0  0  0  0  0  0  0
   39.3410   33.6190   40.6600 C   0  0  0  0  0  0  0  0  0  0  0  0
   40.0260   33.5100   39.4790 C   0  0  0  0  0  0  0  0  0  0  0  0
   38.0120   32.5820   41.9860 H   0  0  0  0  0  0  0  0  0  0  0  0
   39.3730   34.4960   41.2930 H   0  0  0  0  0  0  0  0  0  0  0  0
   40.6310   34.3560   39.1670 H   0  0  0  0  0  0  0  0  0  0  0  0
   38.1180   28.7290   36.5450 C   0  0  0  0  0  0  0  0  0  0  0  0
   38.1390   29.8640   37.3490 C   0  0  0  0  0  0  0  0  0  0  0  0
   39.1500   30.1280   38.2510 C   0  0  0  0  0  0  0  0  0  0  0  0
   40.1380   29.1930   38.3050 N   0  0  0  0  0  0  0  0  0  0  0  0
   40.1250   28.0940   37.5300 C   0  0  0  0  0  0  0  0  0  0  0  0
   39.1380   27.8530   36.6610 N   0  0  0  0  0  0  0  0  0  0  0  0
   37.3120   28.5490   35.8470 H   0  0  0  0  0  0  0  0  0  0  0  0
   37.3420   30.5960   37.2920 H   0  0  0  0  0  0  0  0  0  0  0  0
   40.9620   27.4190   37.6560 H   0  0  0  0  0  0  0  0  0  0  0  0
   37.6850   30.3010   40.7350 C   0  0  0  0  0  0  0  0  0  0  0  0
   36.3110   30.4000   40.5610 C   0  0  0  0  0  0  0  0  0  0  0  0
   35.6440   29.2920   41.0080 C   0  0  0  0  0  0  0  0  0  0  0  0
   36.1960   28.1720   41.5770 C   0  0  0  0  0  0  0  0  0  0  0  0
   37.5760   28.1630   41.7110 C   0  0  0  0  0  0  0  0  0  0  0  0
   38.2610   29.2280   41.2840 N   0  0  0  0  0  0  0  0  0  0  0  0
   35.8050   31.2360   40.1270 H   0  0  0  0  0  0  0  0  0  0  0  0
   34.5380   29.2810   40.9100 H   0  0  0  0  0  0  0  0  0  0  0  0
   35.6160   27.3250   41.9130 H   0  0  0  0  0  0  0  0  0  0  0  0
   38.3110   27.0480   42.2950 C   0  0  0  0  0  0  0  0  0  0  0  0
   37.9590   25.7700   41.9230 C   0  0  0  0  0  0  0  0  0  0  0  0
   37.1430   25.5930   41.2040 H   0  0  0  0  0  0  0  0  0  0  0  0
   38.5680   24.6320   42.3960 C   0  0  0  0  0  3  0  0  0  0  0  0
   39.6020   24.7370   43.3030 C   0  0  0  0  0  0  0  0  0  0  0  0
   40.1490   23.9150   43.7360 H   0  0  0  0  0  0  0  0  0  0  0  0
   39.9510   26.0190   43.6720 C   0  0  0  0  0  0  0  0  0  0  0  0
   40.7670   26.1940   44.3920 H   0  0  0  0  0  0  0  0  0  0  0  0
   39.3350   27.1690   43.1940 C   0  0  0  0  0  3  0  0  0  0  0  0
  1  2  1  0  0  0  0
  2  3  2  0  0  0  0
  2  7  1  0  0  0  0
  3  4  1  0  0  0  0
  4 20  1  0  0  0  0
  4  5  2  0  0  0  0
  5  8  1  0  0  0  0
  6  5  1  0  0  0  0
  6  9  1  0  0  0  0
  7  6  2  0  0  0  0
 10  7  1  0  0  0  0
 11 16  2  0  0  0  0
 11 12  1  0  0  0  0
 12 13  2  0  0  0  0
 13 14  1  0  0  0  0
 13  3  1  0  0  0  0
 15 19  1  0  0  0  0
 15 14  2  0  0  0  0
 16 15  1  0  0  0  0
 17 11  1  0  0  0  0
 18 12  1  0  0  0  0
 20 25  1  0  0  0  0
 21 20  2  0  0  0  0
 21 22  1  0  0  0  0
 22 23  2  0  0  0  0
 23 24  1  0  0  0  0
 23 28  1  0  0  0  0
 24 29  1  0  0  0  0
 25 24  2  0  0  0  0
 26 21  1  0  0  0  0
 27 22  1  0  0  0  0
 29 37  1  0  0  0  0
 30 29  2  0  0  0  0
 30 32  1  0  0  0  0
 31 30  1  0  0  0  0
 32 33  2  0  0  0  0
 33 35  1  0  0  0  0
 33 34  1  0  0  0  0
 35 36  1  0  0  0  0
 37 35  2  0  0  0  0
M  END
>  <minimizedAffinity>
-6.00573015

$$$$

 OpenBabel03252502143D

 37 40  0  0  0  0  0  0  0  0999 V2000
   41.2900   32.5470   39.9670 Cl  0  0  0  0  0  0  0  0  0  0  0  0
   39.6360   32.0430   40.2650 C   0  0  0  0  0  0  0  0  0  0  0  0
   39.3570   30.8620   40.8740 C   0  0  0  0  0  0  0  0  0  0  0  0
   38.0210   30.5770   41.0540 C   0  0  0  0  0  0  0  0  0  0  0  0
   37.0280   31.4050   40.6560 C   0  0  0  0  0  0  0  0  0  0  0  0
   37.3220   32.5940   40.0420 C   0  0  0  0  0  0  0  0  0  0  0  0
   38.6430   32.9030   39.8520 C   0  0  0  0  0  0  0  0  0  0  0  0
   35.9930   31.1080   40.8340 H   0  0  0  0  0  0  0  0  0  0  0  0
   36.5070   33.2360   39.7360 H   0  0  0  0  0  0  0  0  0  0  0  0
   38.8750   33.8450   39.3660 H   0  0  0  0  0  0  0  0  0  0  0  0
   42.1400   29.2700   42.8770 C   0  0  0  0  0  0  0  0  0  0  0  0
   41.0910   30.1050   42.5020 C   0  0  0  0  0  0  0  0  0  0  0  0
   40.4480   30.0040   41.2840 C   0  0  0  0  0  0  0  0  0  0  0  0
   40.9120   29.0230   40.4620 N   0  0  0  0  0  0  0  0  0  0  0  0
   41.9240   28.2120   40.8180 C   0  0  0  0  0  0  0  0  0  0  0  0
   42.5370   28.3220   42.0010 N   0  0  0  0  0  0  0  0  0  0  0  0
   42.6250   29.3720   43.8380 H   0  0  0  0  0  0  0  0  0  0  0  0
   40.7370   30.8800   43.1700 H   0  0  0  0  0  0  0  0  0  0  0  0
   42.2100   27.4680   40.0860 H   0  0  0  0  0  0  0  0  0  0  0  0
   37.6790   29.3020   41.7120 C   0  0  0  0  0  0  0  0  0  0  0  0
   37.6540   29.2820   43.1000 C   0  0  0  0  0  0  0  0  0  0  0  0
   37.3250   28.0520   43.6010 C   0  0  0  0  0  0  0  0  0  0  0  0
   37.0410   26.9180   42.8820 C   0  0  0  0  0  0  0  0  0  0  0  0
   37.0910   27.0330   41.5010 C   0  0  0  0  0  0  0  0  0  0  0  0
   37.4080   28.2210   40.9760 N   0  0  0  0  0  0  0  0  0  0  0  0
   37.8620   30.1190   43.7310 H   0  0  0  0  0  0  0  0  0  0  0  0
   37.2810   27.9380   44.7050 H   0  0  0  0  0  0  0  0  0  0  0  0
   36.7880   25.9700   43.3350 H   0  0  0  0  0  0  0  0  0  0  0  0
   36.8160   25.9220   40.6000 C   0  0  0  0  0  0  0  0  0  0  0  0
   36.9150   24.6410   41.0950 C   0  0  0  0  0  0  0  0  0  0  0  0
   37.1960   24.4600   42.1460 H   0  0  0  0  0  0  0  0  0  0  0  0
   36.6830   23.5060   40.3560 C   0  0  0  0  0  3  0  0  0  0  0  0
   36.3260   23.6160   39.0290 C   0  0  0  0  0  0  0  0  0  0  0  0
   36.1200   22.7970   38.3590 H   0  0  0  0  0  0  0  0  0  0  0  0
   36.2270   24.9010   38.5360 C   0  0  0  0  0  0  0  0  0  0  0  0
   35.9460   25.0800   37.4860 H   0  0  0  0  0  0  0  0  0  0  0  0
   36.4620   26.0480   39.2840 C   0  0  0  0  0  3  0  0  0  0  0  0
  1  2  1  0  0  0  0
  2  3  1  0  0  0  0
  3  4  2  0  0  0  0
  3 13  1  0  0  0  0
  4 20  1  0  0  0  0
  5  8  1  0  0  0  0
  5  4  1  0  0  0  0
  6  5  2  0  0  0  0
  7  6  1  0  0  0  0
  7  2  2  0  0  0  0
  9  6  1  0  0  0  0
 10  7  1  0  0  0  0
 11 17  1  0  0  0  0
 12 11  1  0  0  0  0
 12 18  1  0  0  0  0
 13 12  2  0  0  0  0
 14 15  2  0  0  0  0
 14 13  1  0  0  0  0
 15 16  1  0  0  0  0
 16 11  2  0  0  0  0
 19 15  1  0  0  0  0
 20 21  1  0  0  0  0
 21 22  2  0  0  0  0
 21 26  1  0  0  0  0
 22 27  1  0  0  0  0
 23 28  1  0  0  0  0
 23 22  1  0  0  0  0
 24 23  2  0  0  0  0
 25 24  1  0  0  0  0
 25 20  2  0  0  0  0
 29 30  1  0  0  0  0
 29 24  1  0  0  0  0
 30 31  1  0  0  0  0
 32 30  2  0  0  0  0
 33 32  1  0  0  0  0
 34 33  1  0  0  0  0
 35 33  2  0  0  0  0
 35 37  1  0  0  0  0
 36 35  1  0  0  0  0
 37 29  2  0  0  0  0
M  END
>  <minimizedAffinity>
-5.899652

$$$$

 OpenBabel03252502143D

 37 40  0  0  0  0  0  0  0  0999 V2000
   41.2710   32.0300   39.7850 Cl  0  0  0  0  0  0  0  0  0  0  0  0
   41.2380   30.7710   41.0060 C   0  0  0  0  0  0  0  0  0  0  0  0
   40.1130   30.0510   41.2480 C   0  0  0  0  0  0  0  0  0  0  0  0
   40.2100   29.0900   42.2300 C   0  0  0  0  0  0  0  0  0  0  0  0
   41.3450   28.8590   42.9280 C   0  0  0  0  0  0  0  0  0  0  0  0
   42.4760   29.5920   42.6760 C   0  0  0  0  0  0  0  0  0  0  0  0
   42.4060   30.5540   41.7030 C   0  0  0  0  0  0  0  0  0  0  0  0
   41.3430   28.0790   43.6910 H   0  0  0  0  0  0  0  0  0  0  0  0
   43.3680   29.3830   43.2500 H   0  0  0  0  0  0  0  0  0  0  0  0
   43.3010   31.1340   41.5040 H   0  0  0  0  0  0  0  0  0  0  0  0
   37.4240   29.9520   38.5920 C   0  0  0  0  0  0  0  0  0  0  0  0
   38.5780   29.6680   39.3170 C   0  0  0  0  0  0  0  0  0  0  0  0
   38.9180   30.3300   40.4790 C   0  0  0  0  0  0  0  0  0  0  0  0
   38.0410   31.2930   40.8760 N   0  0  0  0  0  0  0  0  0  0  0  0
   36.9240   31.5720   40.1820 C   0  0  0  0  0  0  0  0  0  0  0  0
   36.6090   30.9220   39.0580 N   0  0  0  0  0  0  0  0  0  0  0  0
   37.1840   29.4170   37.6840 H   0  0  0  0  0  0  0  0  0  0  0  0
   39.2630   28.8990   38.9830 H   0  0  0  0  0  0  0  0  0  0  0  0
   36.3000   32.3570   40.5900 H   0  0  0  0  0  0  0  0  0  0  0  0
   39.0070   28.2870   42.5200 C   0  0  0  0  0  0  0  0  0  0  0  0
   38.1030   28.7930   43.4440 C   0  0  0  0  0  0  0  0  0  0  0  0
   37.0280   27.9680   43.6330 C   0  0  0  0  0  0  0  0  0  0  0  0
   36.7980   26.7630   43.0200 C   0  0  0  0  0  0  0  0  0  0  0  0
   37.7540   26.3380   42.1120 C   0  0  0  0  0  0  0  0  0  0  0  0
   38.8180   27.1190   41.9010 N   0  0  0  0  0  0  0  0  0  0  0  0
   38.2100   29.7210   43.9640 H   0  0  0  0  0  0  0  0  0  0  0  0
   36.2500   28.2900   44.3580 H   0  0  0  0  0  0  0  0  0  0  0  0
   35.9270   26.1520   43.2110 H   0  0  0  0  0  0  0  0  0  0  0  0
   37.6540   25.0820   41.3800 C   0  0  0  0  0  0  0  0  0  0  0  0
   36.5560   24.8830   40.5740 C   0  0  0  0  0  0  0  0  0  0  0  0
   35.7710   25.6530   40.4840 H   0  0  0  0  0  0  0  0  0  0  0  0
   36.3370   23.7480   39.8300 C   0  0  0  0  0  3  0  0  0  0  0  0
   37.2540   22.7190   39.8680 C   0  0  0  0  0  0  0  0  0  0  0  0
   37.1850   21.7890   39.3280 H   0  0  0  0  0  0  0  0  0  0  0  0
   38.3530   22.9220   40.6770 C   0  0  0  0  0  0  0  0  0  0  0  0
   39.1360   22.1520   40.7650 H   0  0  0  0  0  0  0  0  0  0  0  0
   38.5740   24.0700   41.4280 C   0  0  0  0  0  3  0  0  0  0  0  0
  1  2  1  0  0  0  0
  2  3  2  0  0  0  0
  2  7  1  0  0  0  0
  3  4  1  0  0  0  0
  4 20  1  0  0  0  0
  4  5  2  0  0  0  0
  5  8  1  0  0  0  0
  6  5  1  0  0  0  0
  6  9  1  0  0  0  0
  7  6  2  0  0  0  0
 10  7  1  0  0  0  0
 11 16  2  0  0  0  0
 11 12  1  0  0  0  0
 12 13  2  0  0  0  0
 13 14  1  0  0  0  0
 13  3  1  0  0  0  0
 15 19  1  0  0  0  0
 15 14  2  0  0  0  0
 16 15  1  0  0  0  0
 17 11  1  0  0  0  0
 18 12  1  0  0  0  0
 20 21  1  0  0  0  0
 21 22  2  0  0  0  0
 21 26  1  0  0  0  0
 22 27  1  0  0  0  0
 23 28  1  0  0  0  0
 23 22  1  0  0  0  0
 24 23  2  0  0  0  0
 25 24  1  0  0  0  0
 25 20  2  0  0  0  0
 29 37  1  0  0  0  0
 29 24  1  0  0  0  0
 30 29  2  0  0  0  0
 31 30  1  0  0  0  0
 32 33  2  0  0  0  0
 32 30  1  0  0  0  0
 33 35  1  0  0  0  0
 34 33  1  0  0  0  0
 35 36  1  0  0  0  0
 35 37  2  0  0  0  0
M  END
>  <minimizedAffinity>
-5.8927269

$$$$

 OpenBabel03252502143D

 37 40  0  0  0  0  0  0  0  0999 V2000
   37.1800   24.3080   40.3760 Cl  0  0  0  0  0  0  0  0  0  0  0  0
   36.6500   25.7280   39.4940 C   0  0  0  0  0  0  0  0  0  0  0  0
   36.9170   26.9800   39.9450 C   0  0  0  0  0  0  0  0  0  0  0  0
   36.4490   28.0160   39.1660 C   0  0  0  0  0  0  0  0  0  0  0  0
   35.7620   27.8240   38.0170 C   0  0  0  0  0  0  0  0  0  0  0  0
   35.4980   26.5560   37.5710 C   0  0  0  0  0  0  0  0  0  0  0  0
   35.9520   25.5080   38.3270 C   0  0  0  0  0  0  0  0  0  0  0  0
   35.4250   28.6970   37.4550 H   0  0  0  0  0  0  0  0  0  0  0  0
   34.9470   26.4340   36.6480 H   0  0  0  0  0  0  0  0  0  0  0  0
   35.7430   24.5030   37.9730 H   0  0  0  0  0  0  0  0  0  0  0  0
   37.7920   27.3980   43.5990 C   0  0  0  0  0  0  0  0  0  0  0  0
   37.0640   27.2420   42.4240 C   0  0  0  0  0  0  0  0  0  0  0  0
   37.6550   27.1420   41.1800 C   0  0  0  0  0  0  0  0  0  0  0  0
   39.0150   27.2080   41.1780 N   0  0  0  0  0  0  0  0  0  0  0  0
   39.7250   27.3570   42.3090 C   0  0  0  0  0  0  0  0  0  0  0  0
   39.1380   27.4530   43.5060 N   0  0  0  0  0  0  0  0  0  0  0  0
   37.3010   27.4730   44.5600 H   0  0  0  0  0  0  0  0  0  0  0  0
   35.9820   27.1920   42.4480 H   0  0  0  0  0  0  0  0  0  0  0  0
   40.8000   27.3970   42.1890 H   0  0  0  0  0  0  0  0  0  0  0  0
   36.7210   29.3910   39.6260 C   0  0  0  0  0  0  0  0  0  0  0  0
   35.8390   29.9500   40.5400 C   0  0  0  0  0  0  0  0  0  0  0  0
   36.1890   31.2240   40.8950 C   0  0  0  0  0  0  0  0  0  0  0  0
   37.2700   31.9380   40.4430 C   0  0  0  0  0  0  0  0  0  0  0  0
   38.0960   31.2990   39.5310 C   0  0  0  0  0  0  0  0  0  0  0  0
   37.7850   30.0520   39.1620 N   0  0  0  0  0  0  0  0  0  0  0  0
   34.9770   29.4610   40.9400 H   0  0  0  0  0  0  0  0  0  0  0  0
   35.5390   31.7540   41.6240 H   0  0  0  0  0  0  0  0  0  0  0  0
   37.4960   32.9460   40.7600 H   0  0  0  0  0  0  0  0  0  0  0  0
   39.2810   31.9220   38.9580 C   0  0  0  0  0  0  0  0  0  0  0  0
   39.8290   31.3630   37.8260 C   0  0  0  0  0  0  0  0  0  0  0  0
   39.3840   30.4660   37.3640 H   0  0  0  0  0  0  0  0  0  0  0  0
   40.9440   31.8490   37.1850 C   0  0  0  0  0  3  0  0  0  0  0  0
   41.5820   32.9670   37.6770 C   0  0  0  0  0  0  0  0  0  0  0  0
   42.4590   33.4320   37.2560 H   0  0  0  0  0  0  0  0  0  0  0  0
   41.0300   33.5240   38.8120 C   0  0  0  0  0  0  0  0  0  0  0  0
   41.4770   34.4200   39.2720 H   0  0  0  0  0  0  0  0  0  0  0  0
   39.9040   33.0330   39.4600 C   0  0  0  0  0  3  0  0  0  0  0  0
  2  3  1  0  0  0  0
  2  1  1  0  0  0  0
  3 13  1  0  0  0  0
  4 20  1  0  0  0  0
  4  3  2  0  0  0  0
  5  4  1  0  0  0  0
  6  5  2  0  0  0  0
  6  7  1  0  0  0  0
  7  2  2  0  0  0  0
  8  5  1  0  0  0  0
  9  6  1  0  0  0  0
 10  7  1  0  0  0  0
 11 17  1  0  0  0  0
 12 18  1  0  0  0  0
 12 11  2  0  0  0  0
 13 12  1  0  0  0  0
 14 13  2  0  0  0  0
 14 15  1  0  0  0  0
 15 16  2  0  0  0  0
 16 11  1  0  0  0  0
 19 15  1  0  0  0  0
 20 21  1  0  0  0  0
 21 22  2  0  0  0  0
 21 26  1  0  0  0  0
 22 27  1  0  0  0  0
 23 28  1  0  0  0  0
 23 22  1  0  0  0  0
 24 23  2  0  0  0  0
 25 24  1  0  0  0  0
 25 20  2  0  0  0  0
 29 37  1  0  0  0  0
 29 24  1  0  0  0  0
 30 29  2  0  0  0  0
 31 30  1  0  0  0  0
 32 33  2  0  0  0  0
 32 30  1  0  0  0  0
 33 35  1  0  0  0  0
 34 33  1  0  0  0  0
 35 36  1  0  0  0  0
 35 37  2  0  0  0  0
M  END
>  <minimizedAffinity>
-5.82656145

$$$$

 OpenBabel03252502143D

 37 40  0  0  0  0  0  0  0  0999 V2000
   36.5390   29.6620   36.5130 Cl  0  0  0  0  0  0  0  0  0  0  0  0
   36.4650   28.3090   37.6260 C   0  0  0  0  0  0  0  0  0  0  0  0
   36.8800   28.4290   38.9130 C   0  0  0  0  0  0  0  0  0  0  0  0
   36.7730   27.2970   39.6910 C   0  0  0  0  0  0  0  0  0  0  0  0
   36.2880   26.1240   39.2250 C   0  0  0  0  0  0  0  0  0  0  0  0
   35.8720   26.0130   37.9240 C   0  0  0  0  0  0  0  0  0  0  0  0
   35.9670   27.1240   37.1290 C   0  0  0  0  0  0  0  0  0  0  0  0
   36.2330   25.2710   39.9040 H   0  0  0  0  0  0  0  0  0  0  0  0
   35.4870   25.0620   37.5800 H   0  0  0  0  0  0  0  0  0  0  0  0
   35.6370   27.0360   36.0980 H   0  0  0  0  0  0  0  0  0  0  0  0
   37.1150   31.9370   40.3020 C   0  0  0  0  0  0  0  0  0  0  0  0
   36.6010   30.7190   39.8660 C   0  0  0  0  0  0  0  0  0  0  0  0
   37.3930   29.7020   39.3720 C   0  0  0  0  0  0  0  0  0  0  0  0
   38.7280   29.9710   39.3390 N   0  0  0  0  0  0  0  0  0  0  0  0
   39.2310   31.1440   39.7590 C   0  0  0  0  0  0  0  0  0  0  0  0
   38.4510   32.1200   40.2340 N   0  0  0  0  0  0  0  0  0  0  0  0
   36.4690   32.7160   40.6830 H   0  0  0  0  0  0  0  0  0  0  0  0
   35.5360   30.5260   39.9000 H   0  0  0  0  0  0  0  0  0  0  0  0
   40.3060   31.2480   39.6870 H   0  0  0  0  0  0  0  0  0  0  0  0
   37.2140   27.3900   41.0950 C   0  0  0  0  0  0  0  0  0  0  0  0
   36.2850   27.8170   42.0340 C   0  0  0  0  0  0  0  0  0  0  0  0
   36.8020   27.8660   43.3000 C   0  0  0  0  0  0  0  0  0  0  0  0
   38.0820   27.5470   43.6800 C   0  0  0  0  0  0  0  0  0  0  0  0
   38.9400   27.1300   42.6740 C   0  0  0  0  0  0  0  0  0  0  0  0
   38.4690   27.0700   41.4240 N   0  0  0  0  0  0  0  0  0  0  0  0
   35.2720   28.0840   41.8200 H   0  0  0  0  0  0  0  0  0  0  0  0
   36.1310   28.1980   44.1200 H   0  0  0  0  0  0  0  0  0  0  0  0
   38.4350   27.6050   44.6990 H   0  0  0  0  0  0  0  0  0  0  0  0
   40.3270   26.7570   42.9150 C   0  0  0  0  0  0  0  0  0  0  0  0
   41.2060   27.7390   43.3130 C   0  0  0  0  0  0  0  0  0  0  0  0
   40.8710   28.7810   43.4450 H   0  0  0  0  0  0  0  0  0  0  0  0
   42.5390   27.5250   43.5740 C   0  0  0  0  0  3  0  0  0  0  0  0
   43.0660   26.2580   43.4400 C   0  0  0  0  0  0  0  0  0  0  0  0
   44.0910   25.9780   43.6190 H   0  0  0  0  0  0  0  0  0  0  0  0
   42.1820   25.2770   43.0420 C   0  0  0  0  0  0  0  0  0  0  0  0
   42.5200   24.2360   42.9110 H   0  0  0  0  0  0  0  0  0  0  0  0
   40.8360   25.4940   42.7780 C   0  0  0  0  0  3  0  0  0  0  0  0
  1  2  1  0  0  0  0
  2  3  1  0  0  0  0
  3 13  1  0  0  0  0
  3  4  2  0  0  0  0
  4 20  1  0  0  0  0
  5  4  1  0  0  0  0
  5  8  1  0  0  0  0
  6  5  2  0  0  0  0
  7  2  2  0  0  0  0
  7  6  1  0  0  0  0
  9  6  1  0  0  0  0
 10  7  1  0  0  0  0
 11 17  1  0  0  0  0
 12 18  1  0  0  0  0
 12 11  2  0  0  0  0
 13 12  1  0  0  0  0
 14 13  2  0  0  0  0
 14 15  1  0  0  0  0
 15 16  2  0  0  0  0
 16 11  1  0  0  0  0
 19 15  1  0  0  0  0
 20 25  2  0  0  0  0
 20 21  1  0  0  0  0
 21 22  2  0  0  0  0
 22 23  1  0  0  0  0
 22 27  1  0  0  0  0
 23 28  1  0  0  0  0
 24 29  1  0  0  0  0
 24 23  2  0  0  0  0
 25 24  1  0  0  0  0
 26 21  1  0  0  0  0
 29 30  1  0  0  0  0
 30 31  1  0  0  0  0
 30 32  2  0  0  0  0
 33 32  1  0  0  0  0
 33 34  1  0  0  0  0
 35 33  2  0  0  0  0
 36 35  1  0  0  0  0
 37 29  2  0  0  0  0
 37 35  1  0  0  0  0
M  END
>  <minimizedAffinity>
-5.82514524

$$$$

 OpenBabel03252502143D

 37 40  0  0  0  0  0  0  0  0999 V2000
   36.6370   29.5610   36.2760 Cl  0  0  0  0  0  0  0  0  0  0  0  0
   36.5930   28.3420   37.5370 C   0  0  0  0  0  0  0  0  0  0  0  0
   36.9710   28.6280   38.8090 C   0  0  0  0  0  0  0  0  0  0  0  0
   36.8920   27.5890   39.7110 C   0  0  0  0  0  0  0  0  0  0  0  0
   36.4680   26.3490   39.3740 C   0  0  0  0  0  0  0  0  0  0  0  0
   36.0890   26.0710   38.0870 C   0  0  0  0  0  0  0  0  0  0  0  0
   36.1570   27.0870   37.1710 C   0  0  0  0  0  0  0  0  0  0  0  0
   36.4330   25.5790   40.1460 H   0  0  0  0  0  0  0  0  0  0  0  0
   35.7530   25.0710   37.8490 H   0  0  0  0  0  0  0  0  0  0  0  0
   35.8560   26.8670   36.1510 H   0  0  0  0  0  0  0  0  0  0  0  0
   37.0650   32.2150   39.9970 C   0  0  0  0  0  0  0  0  0  0  0  0
   36.6150   30.9330   39.6990 C   0  0  0  0  0  0  0  0  0  0  0  0
   37.4190   29.9670   39.1270 C   0  0  0  0  0  0  0  0  0  0  0  0
   38.6980   30.3550   38.8700 N   0  0  0  0  0  0  0  0  0  0  0  0
   39.1410   31.5920   39.1560 C   0  0  0  0  0  0  0  0  0  0  0  0
   38.3500   32.5170   39.7090 N   0  0  0  0  0  0  0  0  0  0  0  0
   36.4120   32.9510   40.4450 H   0  0  0  0  0  0  0  0  0  0  0  0
   35.5930   30.6440   39.9120 H   0  0  0  0  0  0  0  0  0  0  0  0
   40.1750   31.7910   38.9080 H   0  0  0  0  0  0  0  0  0  0  0  0
   37.2940   27.8630   41.1030 C   0  0  0  0  0  0  0  0  0  0  0  0
   36.3750   27.5860   42.1050 C   0  0  0  0  0  0  0  0  0  0  0  0
   36.8530   27.8770   43.3530 C   0  0  0  0  0  0  0  0  0  0  0  0
   38.0890   28.3880   43.6620 C   0  0  0  0  0  0  0  0  0  0  0  0
   38.9410   28.6330   42.5970 C   0  0  0  0  0  0  0  0  0  0  0  0
   38.5070   28.3600   41.3630 N   0  0  0  0  0  0  0  0  0  0  0  0
   35.3950   27.1880   41.9470 H   0  0  0  0  0  0  0  0  0  0  0  0
   36.1850   27.6890   44.2200 H   0  0  0  0  0  0  0  0  0  0  0  0
   38.4130   28.6000   44.6710 H   0  0  0  0  0  0  0  0  0  0  0  0
   40.2840   29.1750   42.7600 C   0  0  0  0  0  0  0  0  0  0  0  0
   41.2970   28.3100   43.1080 C   0  0  0  0  0  0  0  0  0  0  0  0
   41.0990   27.2360   43.2610 H   0  0  0  0  0  0  0  0  0  0  0  0
   42.6060   28.6870   43.2950 C   0  0  0  0  0  3  0  0  0  0  0  0
   42.9660   30.0080   43.1310 C   0  0  0  0  0  0  0  0  0  0  0  0
   43.9580   30.4120   43.2510 H   0  0  0  0  0  0  0  0  0  0  0  0
   41.9490   30.8710   42.7830 C   0  0  0  0  0  0  0  0  0  0  0  0
   42.1480   31.9440   42.6310 H   0  0  0  0  0  0  0  0  0  0  0  0
   40.6260   30.4890   42.5950 C   0  0  0  0  0  3  0  0  0  0  0  0
  1  2  1  0  0  0  0
  2  3  1  0  0  0  0
  3 13  1  0  0  0  0
  3  4  2  0  0  0  0
  4 20  1  0  0  0  0
  5  4  1  0  0  0  0
  5  8  1  0  0  0  0
  6  5  2  0  0  0  0
  7  2  2  0  0  0  0
  7  6  1  0  0  0  0
  9  6  1  0  0  0  0
 10  7  1  0  0  0  0
 11 17  1  0  0  0  0
 12 18  1  0  0  0  0
 12 11  2  0  0  0  0
 13 12  1  0  0  0  0
 14 13  2  0  0  0  0
 14 15  1  0  0  0  0
 15 16  2  0  0  0  0
 16 11  1  0  0  0  0
 19 15  1  0  0  0  0
 20 25  2  0  0  0  0
 20 21  1  0  0  0  0
 21 22  2  0  0  0  0
 22 23  1  0  0  0  0
 22 27  1  0  0  0  0
 23 28  1  0  0  0  0
 24 29  1  0  0  0  0
 24 23  2  0  0  0  0
 25 24  1  0  0  0  0
 26 21  1  0  0  0  0
 29 30  1  0  0  0  0
 30 31  1  0  0  0  0
 30 32  2  0  0  0  0
 33 34  1  0  0  0  0
 33 32  1  0  0  0  0
 35 33  2  0  0  0  0
 36 35  1  0  0  0  0
 37 29  2  0  0  0  0
 37 35  1  0  0  0  0
M  END
>  <minimizedAffinity>
-5.7686162

$$$$

 OpenBabel03252502143D

 37 40  0  0  0  0  0  0  0  0999 V2000
   35.9430   25.2740   37.0580 Cl  0  0  0  0  0  0  0  0  0  0  0  0
   35.7810   26.7050   38.0580 C   0  0  0  0  0  0  0  0  0  0  0  0
   36.3980   26.7980   39.2640 C   0  0  0  0  0  0  0  0  0  0  0  0
   36.1970   27.9710   39.9580 C   0  0  0  0  0  0  0  0  0  0  0  0
   35.4330   28.9840   39.4890 C   0  0  0  0  0  0  0  0  0  0  0  0
   34.8140   28.8800   38.2710 C   0  0  0  0  0  0  0  0  0  0  0  0
   34.9990   27.7240   37.5610 C   0  0  0  0  0  0  0  0  0  0  0  0
   35.3220   29.8830   40.0980 H   0  0  0  0  0  0  0  0  0  0  0  0
   34.2110   29.7080   37.9230 H   0  0  0  0  0  0  0  0  0  0  0  0
   34.5080   27.6420   36.5960 H   0  0  0  0  0  0  0  0  0  0  0  0
   37.5010   23.5580   40.8710 C   0  0  0  0  0  0  0  0  0  0  0  0
   36.7060   24.6130   40.4320 C   0  0  0  0  0  0  0  0  0  0  0  0
   37.2070   25.6910   39.7290 C   0  0  0  0  0  0  0  0  0  0  0  0
   38.5470   25.6550   39.4900 N   0  0  0  0  0  0  0  0  0  0  0  0
   39.3200   24.6390   39.9100 C   0  0  0  0  0  0  0  0  0  0  0  0
   38.8210   23.6020   40.5900 N   0  0  0  0  0  0  0  0  0  0  0  0
   37.0800   22.7270   41.4200 H   0  0  0  0  0  0  0  0  0  0  0  0
   35.6420   24.6230   40.6330 H   0  0  0  0  0  0  0  0  0  0  0  0
   40.3720   24.7150   39.6640 H   0  0  0  0  0  0  0  0  0  0  0  0
   36.8530   28.1080   41.2720 C   0  0  0  0  0  0  0  0  0  0  0  0
   36.2000   27.5760   42.3750 C   0  0  0  0  0  0  0  0  0  0  0  0
   36.8980   27.7590   43.5370 C   0  0  0  0  0  0  0  0  0  0  0  0
   38.1100   28.3870   43.6800 C   0  0  0  0  0  0  0  0  0  0  0  0
   38.6880   28.8860   42.5230 C   0  0  0  0  0  0  0  0  0  0  0  0
   38.0340   28.7250   41.3680 N   0  0  0  0  0  0  0  0  0  0  0  0
   35.2560   27.0740   42.3480 H   0  0  0  0  0  0  0  0  0  0  0  0
   36.4520   27.3670   44.4760 H   0  0  0  0  0  0  0  0  0  0  0  0
   38.6160   28.5030   44.6280 H   0  0  0  0  0  0  0  0  0  0  0  0
   39.9700   29.5780   42.5080 C   0  0  0  0  0  0  0  0  0  0  0  0
   41.0970   28.8670   42.8520 C   0  0  0  0  0  0  0  0  0  0  0  0
   41.0330   27.8030   43.1320 H   0  0  0  0  0  0  0  0  0  0  0  0
   42.3660   29.3950   42.8800 C   0  0  0  0  0  3  0  0  0  0  0  0
   42.5630   30.7190   42.5480 C   0  0  0  0  0  0  0  0  0  0  0  0
   43.5090   31.2340   42.5350 H   0  0  0  0  0  0  0  0  0  0  0  0
   41.4310   31.4280   42.2040 C   0  0  0  0  0  0  0  0  0  0  0  0
   41.4970   32.4920   41.9250 H   0  0  0  0  0  0  0  0  0  0  0  0
   40.1480   30.8940   42.1760 C   0  0  0  0  0  3  0  0  0  0  0  0
  1  2  1  0  0  0  0
  2  3  1  0  0  0  0
  3 13  1  0  0  0  0
  3  4  2  0  0  0  0
  4 20  1  0  0  0  0
  5  4  1  0  0  0  0
  5  8  1  0  0  0  0
  6  5  2  0  0  0  0
  7  2  2  0  0  0  0
  7  6  1  0  0  0  0
  9  6  1  0  0  0  0
 10  7  1  0  0  0  0
 11 17  1  0  0  0  0
 12 18  1  0  0  0  0
 12 11  2  0  0  0  0
 13 12  1  0  0  0  0
 14 13  2  0  0  0  0
 14 15  1  0  0  0  0
 15 16  2  0  0  0  0
 16 11  1  0  0  0  0
 19 15  1  0  0  0  0
 20 25  2  0  0  0  0
 20 21  1  0  0  0  0
 21 22  2  0  0  0  0
 22 23  1  0  0  0  0
 22 27  1  0  0  0  0
 23 28  1  0  0  0  0
 24 23  2  0  0  0  0
 25 24  1  0  0  0  0
 26 21  1  0  0  0  0
 29 24  1  0  0  0  0
 29 30  1  0  0  0  0
 30 32  2  0  0  0  0
 30 31  1  0  0  0  0
 33 32  1  0  0  0  0
 34 33  1  0  0  0  0
 35 33  2  0  0  0  0
 36 35  1  0  0  0  0
 37 35  1  0  0  0  0
 37 29  2  0  0  0  0
M  END
>  <minimizedAffinity>
-5.76428604

$$$$
