
 OpenBabel03252502453D

 31 33  0  0  1  0  0  0  0  0999 V2000
   37.9990   27.8990   43.5250 C   0  0  1  0  0  0  0  0  0  0  0  0
   36.6150   27.4820   43.4860 C   0  0  0  0  0  0  0  0  0  0  0  0
   37.7620   26.7420   42.8070 C   0  0  1  0  0  0  0  0  0  0  0  0
   38.3970   27.9200   44.5850 H   0  0  0  0  0  0  0  0  0  0  0  0
   36.1300   26.8580   44.2730 H   0  0  0  0  0  0  0  0  0  0  0  0
   35.8910   28.0210   42.8820 H   0  0  0  0  0  0  0  0  0  0  0  0
   38.2930   25.9030   43.3810 H   0  0  0  0  0  0  0  0  0  0  0  0
   37.2460   25.9490   41.7510 C   0  0  0  0  0  0  0  0  0  0  0  0
   37.0980   26.5490   40.4880 C   0  0  0  0  0  0  0  0  0  0  0  0
   37.3830   27.6030   40.3610 H   0  0  0  0  0  0  0  0  0  0  0  0
   36.6050   25.9060   39.3390 C   0  0  0  0  0  3  0  0  0  0  0  0
   36.2730   24.5950   39.5800 C   0  0  0  0  0  0  0  0  0  0  0  0
   35.8870   24.0720   38.7100 H   0  0  0  0  0  0  0  0  0  0  0  0
   36.3650   23.8830   40.7530 C   0  0  0  0  0  0  0  0  0  0  0  0
   36.0730   22.8500   40.8250 H   0  0  0  0  0  0  0  0  0  0  0  0
   36.8530   24.6010   41.7920 C   0  0  0  0  0  3  0  0  0  0  0  0
   38.3820   29.2200   42.9010 C   0  0  0  0  0  0  0  0  0  0  0  0
   39.2430   29.1270   42.2090 H   0  0  0  0  0  0  0  0  0  0  0  0
   38.6760   29.9110   43.7510 H   0  0  0  0  0  0  0  0  0  0  0  0
   37.1210   29.6440   42.2140 C   0  0  0  0  0  0  0  0  0  0  0  0
   36.4470   28.8020   41.9790 H   0  0  0  0  0  0  0  0  0  0  0  0
   36.6630   30.4690   42.7370 H   0  0  0  0  0  0  0  0  0  0  0  0
   38.8870   30.7750   39.0920 C   0  0  0  0  0  0  0  0  0  0  0  0
   38.5280   30.0000   40.2340 C   0  0  0  0  0  0  0  0  0  0  0  0
   37.4750   30.4300   40.9910 C   0  0  0  0  0  0  0  0  0  0  0  0
   36.8150   31.5660   40.6310 N   0  0  0  0  0  0  0  0  0  0  0  0
   37.1600   32.2740   39.5690 C   0  0  0  0  0  0  0  0  0  0  0  0
   38.1840   31.8940   38.8000 N   0  0  0  0  0  0  0  0  0  0  0  0
   39.6870   30.5480   38.4250 H   0  0  0  0  0  0  0  0  0  0  0  0
   39.1740   29.1520   40.3090 H   0  0  0  0  0  0  0  0  0  0  0  0
   36.5250   33.1440   39.4380 H   0  0  0  0  0  0  0  0  0  0  0  0
  1  4  1  1  0  0  0
  2  1  1  0  0  0  0
  2  5  1  0  0  0  0
  3  7  1  1  0  0  0
  3  2  1  0  0  0  0
  3  1  1  0  0  0  0
  6  2  1  0  0  0  0
  8 16  1  0  0  0  0
  8  3  1  0  0  0  0
  9  8  2  0  0  0  0
 10  9  1  0  0  0  0
 11 12  2  0  0  0  0
 11  9  1  0  0  0  0
 12 14  1  0  0  0  0
 13 12  1  0  0  0  0
 14 15  1  0  0  0  0
 14 16  2  0  0  0  0
 17  1  1  0  0  0  0
 17 19  1  0  0  0  0
 18 17  1  0  0  0  0
 20 22  1  0  0  0  0
 20 17  1  0  0  0  0
 21 20  1  0  0  0  0
 23 24  1  0  0  0  0
 24 30  1  0  0  0  0
 24 25  2  0  0  0  0
 25 20  1  0  0  0  0
 26 25  1  0  0  0  0
 27 26  2  0  0  0  0
 28 23  2  0  0  0  0
 28 27  1  0  0  0  0
 29 23  1  0  0  0  0
 31 27  1  0  0  0  0
M  END
>  <minimizedAffinity>
-5.06276846

$$$$

 OpenBabel03252502453D

 31 33  0  0  1  0  0  0  0  0999 V2000
   37.9360   27.8720   43.5420 C   0  0  1  0  0  0  0  0  0  0  0  0
   36.5580   27.4410   43.4700 C   0  0  0  0  0  0  0  0  0  0  0  0
   37.7160   26.7670   42.7410 C   0  0  1  0  0  0  0  0  0  0  0  0
   38.3330   27.8210   44.6010 H   0  0  0  0  0  0  0  0  0  0  0  0
   36.0810   26.7540   44.2090 H   0  0  0  0  0  0  0  0  0  0  0  0
   35.8270   28.0130   42.9070 H   0  0  0  0  0  0  0  0  0  0  0  0
   38.2570   25.8960   43.2530 H   0  0  0  0  0  0  0  0  0  0  0  0
   37.2110   26.0470   41.6290 C   0  0  0  0  0  0  0  0  0  0  0  0
   36.9340   24.6800   41.8000 C   0  0  0  0  0  0  0  0  0  0  0  0
   37.1170   24.2170   42.7810 H   0  0  0  0  0  0  0  0  0  0  0  0
   36.4300   23.8250   40.8040 C   0  0  0  0  0  3  0  0  0  0  0  0
   36.2300   24.4780   39.6130 C   0  0  0  0  0  0  0  0  0  0  0  0
   35.8420   23.8410   38.8220 H   0  0  0  0  0  0  0  0  0  0  0  0
   36.4540   25.7990   39.3040 C   0  0  0  0  0  0  0  0  0  0  0  0
   36.2570   26.2040   38.3270 H   0  0  0  0  0  0  0  0  0  0  0  0
   36.9370   26.5270   40.3370 C   0  0  0  0  0  3  0  0  0  0  0  0
   38.3020   29.2410   43.0170 C   0  0  0  0  0  0  0  0  0  0  0  0
   39.2170   29.2220   42.3910 H   0  0  0  0  0  0  0  0  0  0  0  0
   38.4970   29.8970   43.9210 H   0  0  0  0  0  0  0  0  0  0  0  0
   37.0780   29.6450   42.2550 C   0  0  0  0  0  0  0  0  0  0  0  0
   36.4230   28.7940   41.9960 H   0  0  0  0  0  0  0  0  0  0  0  0
   36.5860   30.4740   42.7410 H   0  0  0  0  0  0  0  0  0  0  0  0
   38.9780   30.7160   39.1920 C   0  0  0  0  0  0  0  0  0  0  0  0
   38.5600   29.9550   40.3230 C   0  0  0  0  0  0  0  0  0  0  0  0
   37.4940   30.4160   41.0430 C   0  0  0  0  0  0  0  0  0  0  0  0
   36.8760   31.5680   40.6570 N   0  0  0  0  0  0  0  0  0  0  0  0
   37.2760   32.2620   39.6050 C   0  0  0  0  0  0  0  0  0  0  0  0
   38.3150   31.8520   38.8720 N   0  0  0  0  0  0  0  0  0  0  0  0
   39.7940   30.4650   38.5530 H   0  0  0  0  0  0  0  0  0  0  0  0
   39.1800   29.0910   40.4230 H   0  0  0  0  0  0  0  0  0  0  0  0
   36.6690   33.1480   39.4490 H   0  0  0  0  0  0  0  0  0  0  0  0
  1  4  1  1  0  0  0
  2  1  1  0  0  0  0
  2  5  1  0  0  0  0
  3  7  1  1  0  0  0
  3  2  1  0  0  0  0
  3  1  1  0  0  0  0
  6  2  1  0  0  0  0
  8  9  1  0  0  0  0
  8  3  1  0  0  0  0
  9 10  1  0  0  0  0
 11  9  2  0  0  0  0
 12 11  1  0  0  0  0
 13 12  1  0  0  0  0
 14 12  2  0  0  0  0
 14 16  1  0  0  0  0
 15 14  1  0  0  0  0
 16  8  2  0  0  0  0
 17  1  1  0  0  0  0
 17 19  1  0  0  0  0
 18 17  1  0  0  0  0
 20 22  1  0  0  0  0
 20 17  1  0  0  0  0
 21 20  1  0  0  0  0
 23 24  1  0  0  0  0
 24 30  1  0  0  0  0
 24 25  2  0  0  0  0
 25 20  1  0  0  0  0
 26 25  1  0  0  0  0
 27 26  2  0  0  0  0
 28 23  2  0  0  0  0
 28 27  1  0  0  0  0
 29 23  1  0  0  0  0
 31 27  1  0  0  0  0
M  END
>  <minimizedAffinity>
-5.03644657

$$$$

 OpenBabel03252502453D

 31 33  0  0  1  0  0  0  0  0999 V2000
   36.0940   28.6200   41.2530 C   0  0  1  0  0  0  0  0  0  0  0  0
   36.8280   27.7630   40.3500 C   0  0  0  0  0  0  0  0  0  0  0  0
   36.6300   27.4880   41.8360 C   0  0  1  0  0  0  0  0  0  0  0  0
   35.0110   28.7230   40.9390 H   0  0  0  0  0  0  0  0  0  0  0  0
   36.3560   26.9740   39.7180 H   0  0  0  0  0  0  0  0  0  0  0  0
   37.8080   28.0540   39.9830 H   0  0  0  0  0  0  0  0  0  0  0  0
   35.7340   26.8510   42.1640 H   0  0  0  0  0  0  0  0  0  0  0  0
   37.6540   26.6200   42.2920 C   0  0  0  0  0  0  0  0  0  0  0  0
   38.6420   27.1540   43.1370 C   0  0  0  0  0  0  0  0  0  0  0  0
   38.5900   28.2160   43.4150 H   0  0  0  0  0  0  0  0  0  0  0  0
   39.7220   26.4320   43.6760 C   0  0  0  0  0  3  0  0  0  0  0  0
   39.7150   25.1160   43.2830 C   0  0  0  0  0  0  0  0  0  0  0  0
   40.5400   24.5330   43.6840 H   0  0  0  0  0  0  0  0  0  0  0  0
   38.8200   24.4640   42.4680 C   0  0  0  0  0  0  0  0  0  0  0  0
   38.9150   23.4200   42.2270 H   0  0  0  0  0  0  0  0  0  0  0  0
   37.8230   25.2540   42.0080 C   0  0  0  0  0  3  0  0  0  0  0  0
   36.5990   30.0230   41.5010 C   0  0  0  0  0  0  0  0  0  0  0  0
   36.6360   30.2720   42.5800 H   0  0  0  0  0  0  0  0  0  0  0  0
   35.8700   30.7280   40.9930 H   0  0  0  0  0  0  0  0  0  0  0  0
   37.9490   30.0120   40.8550 C   0  0  0  0  0  0  0  0  0  0  0  0
   38.7110   29.4680   41.4410 H   0  0  0  0  0  0  0  0  0  0  0  0
   37.8700   29.7190   39.8190 H   0  0  0  0  0  0  0  0  0  0  0  0
   37.8040   33.6450   39.8940 C   0  0  0  0  0  0  0  0  0  0  0  0
   37.3980   32.3120   40.2000 C   0  0  0  0  0  0  0  0  0  0  0  0
   38.3640   31.4210   40.5740 C   0  0  0  0  0  0  0  0  0  0  0  0
   39.6610   31.8330   40.6420 N   0  0  0  0  0  0  0  0  0  0  0  0
   40.0210   33.0720   40.3550 C   0  0  0  0  0  0  0  0  0  0  0  0
   39.1130   33.9780   39.9830 N   0  0  0  0  0  0  0  0  0  0  0  0
   37.1500   34.4300   39.5900 H   0  0  0  0  0  0  0  0  0  0  0  0
   36.3390   32.2270   40.0900 H   0  0  0  0  0  0  0  0  0  0  0  0
   41.0920   33.2190   40.4630 H   0  0  0  0  0  0  0  0  0  0  0  0
  1  4  1  6  0  0  0
  1 17  1  0  0  0  0
  1  3  1  0  0  0  0
  2  1  1  0  0  0  0
  2  3  1  0  0  0  0
  3  7  1  6  0  0  0
  3  8  1  0  0  0  0
  5  2  1  0  0  0  0
  6  2  1  0  0  0  0
  8  9  1  0  0  0  0
  9 10  1  0  0  0  0
  9 11  2  0  0  0  0
 12 11  1  0  0  0  0
 12 13  1  0  0  0  0
 14 12  2  0  0  0  0
 15 14  1  0  0  0  0
 16  8  2  0  0  0  0
 16 14  1  0  0  0  0
 17 18  1  0  0  0  0
 19 17  1  0  0  0  0
 20 21  1  0  0  0  0
 20 17  1  0  0  0  0
 22 20  1  0  0  0  0
 23 28  2  0  0  0  0
 23 24  1  0  0  0  0
 24 25  2  0  0  0  0
 25 26  1  0  0  0  0
 25 20  1  0  0  0  0
 27 31  1  0  0  0  0
 27 26  2  0  0  0  0
 28 27  1  0  0  0  0
 29 23  1  0  0  0  0
 30 24  1  0  0  0  0
M  END
>  <minimizedAffinity>
-4.88410997

$$$$

 OpenBabel03252502453D

 31 33  0  0  1  0  0  0  0  0999 V2000
   35.9950   30.0300   38.9550 C   0  0  1  0  0  0  0  0  0  0  0  0
   36.4140   28.6520   39.0770 C   0  0  0  0  0  0  0  0  0  0  0  0
   36.0710   29.5610   40.2530 C   0  0  1  0  0  0  0  0  0  0  0  0
   35.0320   30.1210   38.3660 H   0  0  0  0  0  0  0  0  0  0  0  0
   35.7180   27.7820   39.0130 H   0  0  0  0  0  0  0  0  0  0  0  0
   37.4460   28.3690   38.9010 H   0  0  0  0  0  0  0  0  0  0  0  0
   34.9950   29.5660   40.6500 H   0  0  0  0  0  0  0  0  0  0  0  0
   36.7010   29.0700   41.4230 C   0  0  0  0  0  0  0  0  0  0  0  0
   36.1950   27.8920   41.9990 C   0  0  0  0  0  0  0  0  0  0  0  0
   35.3350   27.3950   41.5290 H   0  0  0  0  0  0  0  0  0  0  0  0
   36.7040   27.2730   43.1550 C   0  0  0  0  0  3  0  0  0  0  0  0
   37.7750   27.9530   43.6800 C   0  0  0  0  0  0  0  0  0  0  0  0
   38.1880   27.4990   44.5760 H   0  0  0  0  0  0  0  0  0  0  0  0
   38.3710   29.1070   43.2270 C   0  0  0  0  0  0  0  0  0  0  0  0
   39.2140   29.5540   43.7240 H   0  0  0  0  0  0  0  0  0  0  0  0
   37.8010   29.6140   42.1090 C   0  0  0  0  0  3  0  0  0  0  0  0
   36.9530   31.0350   38.3580 C   0  0  0  0  0  0  0  0  0  0  0  0
   36.6360   31.3750   37.3530 H   0  0  0  0  0  0  0  0  0  0  0  0
   37.9560   30.5140   38.2630 H   0  0  0  0  0  0  0  0  0  0  0  0
   36.9600   32.1340   39.3750 C   0  0  0  0  0  0  0  0  0  0  0  0
   36.3190   32.9900   39.0970 H   0  0  0  0  0  0  0  0  0  0  0  0
   36.7950   31.7370   40.3640 H   0  0  0  0  0  0  0  0  0  0  0  0
   40.7020   32.0210   39.7340 C   0  0  0  0  0  0  0  0  0  0  0  0
   39.3600   31.6260   39.4540 C   0  0  0  0  0  0  0  0  0  0  0  0
   38.3730   32.5550   39.6240 C   0  0  0  0  0  0  0  0  0  0  0  0
   38.7030   33.8090   40.0450 N   0  0  0  0  0  0  0  0  0  0  0  0
   39.9520   34.1590   40.2990 C   0  0  0  0  0  0  0  0  0  0  0  0
   40.9500   33.2840   40.1500 N   0  0  0  0  0  0  0  0  0  0  0  0
   41.5570   31.3900   39.6420 H   0  0  0  0  0  0  0  0  0  0  0  0
   39.3460   30.6080   39.1290 H   0  0  0  0  0  0  0  0  0  0  0  0
   40.0260   35.1930   40.6240 H   0  0  0  0  0  0  0  0  0  0  0  0
  1  4  1  6  0  0  0
  1  2  1  0  0  0  0
  1  3  1  0  0  0  0
  2  3  1  0  0  0  0
  3  7  1  1  0  0  0
  3  8  1  0  0  0  0
  5  2  1  0  0  0  0
  6  2  1  0  0  0  0
  8  9  2  0  0  0  0
  8 16  1  0  0  0  0
  9 11  1  0  0  0  0
 10  9  1  0  0  0  0
 11 12  2  0  0  0  0
 12 13  1  0  0  0  0
 14 12  1  0  0  0  0
 14 15  1  0  0  0  0
 16 14  2  0  0  0  0
 17  1  1  0  0  0  0
 17 20  1  0  0  0  0
 18 17  1  0  0  0  0
 19 17  1  0  0  0  0
 20 25  1  0  0  0  0
 20 22  1  0  0  0  0
 21 20  1  0  0  0  0
 23 28  1  0  0  0  0
 24 25  1  0  0  0  0
 24 23  2  0  0  0  0
 25 26  2  0  0  0  0
 26 27  1  0  0  0  0
 27 31  1  0  0  0  0
 28 27  2  0  0  0  0
 29 23  1  0  0  0  0
 30 24  1  0  0  0  0
M  END
>  <minimizedAffinity>
-4.8332653

$$$$

 OpenBabel03252502453D

 31 33  0  0  1  0  0  0  0  0999 V2000
   38.0000   29.3850   42.9970 C   0  0  1  0  0  0  0  0  0  0  0  0
   37.1020   28.7670   42.0480 C   0  0  0  0  0  0  0  0  0  0  0  0
   37.9450   28.0060   43.0650 C   0  0  1  0  0  0  0  0  0  0  0  0
   37.4470   30.0790   43.7000 H   0  0  0  0  0  0  0  0  0  0  0  0
   36.0100   28.6220   42.2260 H   0  0  0  0  0  0  0  0  0  0  0  0
   37.3570   28.7190   40.9940 H   0  0  0  0  0  0  0  0  0  0  0  0
   37.4870   27.7600   44.0870 H   0  0  0  0  0  0  0  0  0  0  0  0
   38.1280   26.6730   42.6160 C   0  0  0  0  0  0  0  0  0  0  0  0
   36.9930   25.8520   42.5110 C   0  0  0  0  0  0  0  0  0  0  0  0
   36.0090   26.2640   42.7770 H   0  0  0  0  0  0  0  0  0  0  0  0
   36.9990   24.5130   42.0820 C   0  0  0  0  0  3  0  0  0  0  0  0
   38.2620   24.0740   41.7680 C   0  0  0  0  0  0  0  0  0  0  0  0
   38.2990   23.0410   41.4350 H   0  0  0  0  0  0  0  0  0  0  0  0
   39.4530   24.7610   41.8230 C   0  0  0  0  0  0  0  0  0  0  0  0
   40.3910   24.3110   41.5490 H   0  0  0  0  0  0  0  0  0  0  0  0
   39.3270   26.0400   42.2470 C   0  0  0  0  0  3  0  0  0  0  0  0
   39.1880   30.1630   42.4800 C   0  0  0  0  0  0  0  0  0  0  0  0
   40.1520   29.6910   42.7550 H   0  0  0  0  0  0  0  0  0  0  0  0
   39.1400   31.1900   42.9580 H   0  0  0  0  0  0  0  0  0  0  0  0
   38.9500   30.1940   41.0020 C   0  0  0  0  0  0  0  0  0  0  0  0
   39.7910   29.7860   40.4150 H   0  0  0  0  0  0  0  0  0  0  0  0
   37.9810   29.7810   40.7660 H   0  0  0  0  0  0  0  0  0  0  0  0
   39.0710   33.9380   40.6760 C   0  0  0  0  0  0  0  0  0  0  0  0
   39.4210   32.6020   41.0330 C   0  0  0  0  0  0  0  0  0  0  0  0
   38.6120   31.5920   40.5950 C   0  0  0  0  0  0  0  0  0  0  0  0
   37.5180   31.8940   39.8400 N   0  0  0  0  0  0  0  0  0  0  0  0
   37.2080   33.1380   39.5170 C   0  0  0  0  0  0  0  0  0  0  0  0
   37.9670   34.1580   39.9250 N   0  0  0  0  0  0  0  0  0  0  0  0
   39.6170   34.8100   40.9560 H   0  0  0  0  0  0  0  0  0  0  0  0
   40.3180   32.6100   41.6130 H   0  0  0  0  0  0  0  0  0  0  0  0
   36.3060   33.1880   38.9140 H   0  0  0  0  0  0  0  0  0  0  0  0
  1  3  1  0  0  0  0
  1  4  1  1  0  0  0
  2  5  1  0  0  0  0
  2  1  1  0  0  0  0
  2  3  1  0  0  0  0
  3  7  1  1  0  0  0
  6  2  1  0  0  0  0
  8  3  1  0  0  0  0
  9  8  1  0  0  0  0
  9 10  1  0  0  0  0
 11  9  2  0  0  0  0
 12 14  2  0  0  0  0
 12 11  1  0  0  0  0
 13 12  1  0  0  0  0
 14 16  1  0  0  0  0
 15 14  1  0  0  0  0
 16  8  2  0  0  0  0
 17 18  1  0  0  0  0
 17 19  1  0  0  0  0
 17  1  1  0  0  0  0
 20 17  1  0  0  0  0
 21 20  1  0  0  0  0
 22 20  1  0  0  0  0
 23 29  1  0  0  0  0
 23 24  1  0  0  0  0
 24 30  1  0  0  0  0
 25 20  1  0  0  0  0
 25 24  2  0  0  0  0
 26 25  1  0  0  0  0
 27 26  2  0  0  0  0
 27 28  1  0  0  0  0
 28 23  2  0  0  0  0
 31 27  1  0  0  0  0
M  END
>  <minimizedAffinity>
-4.82744598

$$$$

 OpenBabel03252502453D

 31 33  0  0  1  0  0  0  0  0999 V2000
   37.9620   28.8510   43.2700 C   0  0  1  0  0  0  0  0  0  0  0  0
   38.8830   29.8400   42.7580 C   0  0  0  0  0  0  0  0  0  0  0  0
   37.4370   29.6840   42.3000 C   0  0  1  0  0  0  0  0  0  0  0  0
   37.7890   28.9790   44.3810 H   0  0  0  0  0  0  0  0  0  0  0  0
   39.0590   30.8330   43.2360 H   0  0  0  0  0  0  0  0  0  0  0  0
   39.6910   29.5540   42.0930 H   0  0  0  0  0  0  0  0  0  0  0  0
   36.6240   30.3000   42.8250 H   0  0  0  0  0  0  0  0  0  0  0  0
   37.2930   30.2460   41.0070 C   0  0  0  0  0  0  0  0  0  0  0  0
   37.2580   29.3690   39.9090 C   0  0  0  0  0  0  0  0  0  0  0  0
   37.3430   28.2880   40.0860 H   0  0  0  0  0  0  0  0  0  0  0  0
   37.1190   29.7600   38.5650 C   0  0  0  0  0  3  0  0  0  0  0  0
   37.0190   31.1230   38.4290 C   0  0  0  0  0  0  0  0  0  0  0  0
   36.9130   31.4560   37.4000 H   0  0  0  0  0  0  0  0  0  0  0  0
   37.0370   32.0920   39.4050 C   0  0  0  0  0  0  0  0  0  0  0  0
   36.9500   33.1400   39.1790 H   0  0  0  0  0  0  0  0  0  0  0  0
   37.1740   31.6020   40.6590 C   0  0  0  0  0  3  0  0  0  0  0  0
   38.2680   27.3870   43.0540 C   0  0  0  0  0  0  0  0  0  0  0  0
   38.7590   26.9240   43.9330 H   0  0  0  0  0  0  0  0  0  0  0  0
   38.9780   27.3270   42.1720 H   0  0  0  0  0  0  0  0  0  0  0  0
   36.9210   26.8030   42.7600 C   0  0  0  0  0  0  0  0  0  0  0  0
   36.3960   26.4380   43.6600 H   0  0  0  0  0  0  0  0  0  0  0  0
   36.3490   27.4680   42.1310 H   0  0  0  0  0  0  0  0  0  0  0  0
   37.7010   23.4960   41.1480 C   0  0  0  0  0  0  0  0  0  0  0  0
   37.5190   24.5050   42.1400 C   0  0  0  0  0  0  0  0  0  0  0  0
   37.0720   25.7290   41.7300 C   0  0  0  0  0  0  0  0  0  0  0  0
   36.8170   25.9370   40.4070 N   0  0  0  0  0  0  0  0  0  0  0  0
   36.9900   24.9910   39.5000 C   0  0  0  0  0  0  0  0  0  0  0  0
   37.4280   23.7790   39.8530 N   0  0  0  0  0  0  0  0  0  0  0  0
   38.0440   22.5050   41.3390 H   0  0  0  0  0  0  0  0  0  0  0  0
   37.7680   24.1110   43.1010 H   0  0  0  0  0  0  0  0  0  0  0  0
   36.7380   25.3350   38.5020 H   0  0  0  0  0  0  0  0  0  0  0  0
  1  4  1  1  0  0  0
  2  5  1  0  0  0  0
  2  1  1  0  0  0  0
  3  2  1  0  0  0  0
  3  7  1  1  0  0  0
  3  1  1  0  0  0  0
  6  2  1  0  0  0  0
  8  3  1  0  0  0  0
  9 10  1  0  0  0  0
  9  8  2  0  0  0  0
 11  9  1  0  0  0  0
 12 11  2  0  0  0  0
 12 14  1  0  0  0  0
 13 12  1  0  0  0  0
 14 16  2  0  0  0  0
 15 14  1  0  0  0  0
 16  8  1  0  0  0  0
 17  1  1  0  0  0  0
 17 18  1  0  0  0  0
 19 17  1  0  0  0  0
 20 17  1  0  0  0  0
 20 21  1  0  0  0  0
 22 20  1  0  0  0  0
 23 29  1  0  0  0  0
 23 24  1  0  0  0  0
 24 30  1  0  0  0  0
 25 24  2  0  0  0  0
 25 20  1  0  0  0  0
 26 25  1  0  0  0  0
 27 28  1  0  0  0  0
 27 26  2  0  0  0  0
 28 23  2  0  0  0  0
 31 27  1  0  0  0  0
M  END
>  <minimizedAffinity>
-4.76267624

$$$$

 OpenBabel03252502453D

 31 33  0  0  1  0  0  0  0  0999 V2000
   38.4710   29.4160   42.8960 C   0  0  1  0  0  0  0  0  0  0  0  0
   37.5320   28.6400   43.6740 C   0  0  0  0  0  0  0  0  0  0  0  0
   38.6860   28.0510   42.8700 C   0  0  1  0  0  0  0  0  0  0  0  0
   39.0500   30.1400   43.5460 H   0  0  0  0  0  0  0  0  0  0  0  0
   37.6450   28.4380   44.7660 H   0  0  0  0  0  0  0  0  0  0  0  0
   36.5120   28.4990   43.3320 H   0  0  0  0  0  0  0  0  0  0  0  0
   39.6930   27.8830   43.3940 H   0  0  0  0  0  0  0  0  0  0  0  0
   38.4030   26.6950   42.5700 C   0  0  0  0  0  0  0  0  0  0  0  0
   39.3430   25.7240   42.9550 C   0  0  0  0  0  0  0  0  0  0  0  0
   40.2590   26.0440   43.4710 H   0  0  0  0  0  0  0  0  0  0  0  0
   39.2150   24.3420   42.7350 C   0  0  0  0  0  3  0  0  0  0  0  0
   38.0460   24.0250   42.0870 C   0  0  0  0  0  0  0  0  0  0  0  0
   37.9210   22.9610   41.9010 H   0  0  0  0  0  0  0  0  0  0  0  0
   37.0440   24.8620   41.6550 C   0  0  0  0  0  0  0  0  0  0  0  0
   36.1650   24.4980   41.1540 H   0  0  0  0  0  0  0  0  0  0  0  0
   37.2730   26.1690   41.9210 C   0  0  0  0  0  3  0  0  0  0  0  0
   37.9600   30.2170   41.7210 C   0  0  0  0  0  0  0  0  0  0  0  0
   38.4480   29.9270   40.7690 H   0  0  0  0  0  0  0  0  0  0  0  0
   38.2030   31.3030   41.9350 H   0  0  0  0  0  0  0  0  0  0  0  0
   36.4900   29.9320   41.7360 C   0  0  0  0  0  0  0  0  0  0  0  0
   36.2080   29.1250   42.4350 H   0  0  0  0  0  0  0  0  0  0  0  0
   35.9280   30.8480   41.8390 H   0  0  0  0  0  0  0  0  0  0  0  0
   36.4590   29.6520   37.9860 C   0  0  0  0  0  0  0  0  0  0  0  0
   36.9100   29.8900   39.3180 C   0  0  0  0  0  0  0  0  0  0  0  0
   36.0370   29.6430   40.3410 C   0  0  0  0  0  0  0  0  0  0  0  0
   34.7870   29.1820   40.0540 N   0  0  0  0  0  0  0  0  0  0  0  0
   34.3850   28.9660   38.8130 C   0  0  0  0  0  0  0  0  0  0  0  0
   35.2020   29.1950   37.7810 N   0  0  0  0  0  0  0  0  0  0  0  0
   37.0410   29.8070   37.1060 H   0  0  0  0  0  0  0  0  0  0  0  0
   37.9210   30.2340   39.2980 H   0  0  0  0  0  0  0  0  0  0  0  0
   33.3630   28.6010   38.7760 H   0  0  0  0  0  0  0  0  0  0  0  0
  1  4  1  1  0  0  0
  1  2  1  0  0  0  0
  2  5  1  0  0  0  0
  3  1  1  0  0  0  0
  3  7  1  1  0  0  0
  3  2  1  0  0  0  0
  6  2  1  0  0  0  0
  8  3  1  0  0  0  0
  8  9  1  0  0  0  0
  9 10  1  0  0  0  0
 11  9  2  0  0  0  0
 12 11  1  0  0  0  0
 13 12  1  0  0  0  0
 14 16  1  0  0  0  0
 14 12  2  0  0  0  0
 15 14  1  0  0  0  0
 16  8  2  0  0  0  0
 17 20  1  0  0  0  0
 17 19  1  0  0  0  0
 17  1  1  0  0  0  0
 18 17  1  0  0  0  0
 20 22  1  0  0  0  0
 20 21  1  0  0  0  0
 23 24  1  0  0  0  0
 24 25  2  0  0  0  0
 25 20  1  0  0  0  0
 26 25  1  0  0  0  0
 27 26  2  0  0  0  0
 28 23  2  0  0  0  0
 28 27  1  0  0  0  0
 29 23  1  0  0  0  0
 30 24  1  0  0  0  0
 31 27  1  0  0  0  0
M  END
>  <minimizedAffinity>
-4.76229095

$$$$

 OpenBabel03252502453D

 31 33  0  0  1  0  0  0  0  0999 V2000
   36.7450   29.1560   38.3610 C   0  0  1  0  0  0  0  0  0  0  0  0
   37.5430   28.0390   38.8160 C   0  0  0  0  0  0  0  0  0  0  0  0
   36.6210   28.8650   39.7070 C   0  0  1  0  0  0  0  0  0  0  0  0
   36.0000   28.8400   37.5700 H   0  0  0  0  0  0  0  0  0  0  0  0
   37.2140   26.9750   38.7570 H   0  0  0  0  0  0  0  0  0  0  0  0
   38.6190   28.1340   38.9220 H   0  0  0  0  0  0  0  0  0  0  0  0
   35.5380   28.5160   39.8520 H   0  0  0  0  0  0  0  0  0  0  0  0
   37.0410   28.7420   41.0550 C   0  0  0  0  0  0  0  0  0  0  0  0
   36.4120   27.7720   41.8550 C   0  0  0  0  0  0  0  0  0  0  0  0
   35.6220   27.1470   41.4140 H   0  0  0  0  0  0  0  0  0  0  0  0
   36.7090   27.5210   43.2060 C   0  0  0  0  0  3  0  0  0  0  0  0
   37.7040   28.3400   43.6800 C   0  0  0  0  0  0  0  0  0  0  0  0
   37.9550   28.1690   44.7230 H   0  0  0  0  0  0  0  0  0  0  0  0
   38.4020   29.3230   43.0170 C   0  0  0  0  0  0  0  0  0  0  0  0
   39.1690   29.9070   43.4950 H   0  0  0  0  0  0  0  0  0  0  0  0
   38.0340   29.4770   41.7240 C   0  0  0  0  0  3  0  0  0  0  0  0
   37.4450   30.3810   37.8200 C   0  0  0  0  0  0  0  0  0  0  0  0
   37.2420   30.5410   36.7420 H   0  0  0  0  0  0  0  0  0  0  0  0
   38.5570   30.2110   37.9570 H   0  0  0  0  0  0  0  0  0  0  0  0
   36.9110   31.4810   38.6860 C   0  0  0  0  0  0  0  0  0  0  0  0
   36.1330   32.0880   38.1920 H   0  0  0  0  0  0  0  0  0  0  0  0
   36.6490   31.1010   39.6620 H   0  0  0  0  0  0  0  0  0  0  0  0
   38.8700   34.1610   40.4530 C   0  0  0  0  0  0  0  0  0  0  0  0
   37.7830   33.3380   40.0340 C   0  0  0  0  0  0  0  0  0  0  0  0
   38.0540   32.3200   39.1620 C   0  0  0  0  0  0  0  0  0  0  0  0
   39.3340   32.1300   38.7350 N   0  0  0  0  0  0  0  0  0  0  0  0
   40.3300   32.9030   39.1340 C   0  0  0  0  0  0  0  0  0  0  0  0
   40.1140   33.9110   39.9830 N   0  0  0  0  0  0  0  0  0  0  0  0
   38.7900   34.9850   41.1250 H   0  0  0  0  0  0  0  0  0  0  0  0
   36.8830   33.6650   40.5050 H   0  0  0  0  0  0  0  0  0  0  0  0
   41.2760   32.6050   38.6920 H   0  0  0  0  0  0  0  0  0  0  0  0
  1  4  1  6  0  0  0
  1  2  1  0  0  0  0
  1  3  1  0  0  0  0
  2  6  1  0  0  0  0
  2  3  1  0  0  0  0
  3  7  1  1  0  0  0
  3  8  1  0  0  0  0
  5  2  1  0  0  0  0
  8 16  2  0  0  0  0
  8  9  1  0  0  0  0
  9 11  2  0  0  0  0
 10  9  1  0  0  0  0
 11 12  1  0  0  0  0
 12 13  1  0  0  0  0
 14 15  1  0  0  0  0
 14 12  2  0  0  0  0
 16 14  1  0  0  0  0
 17 19  1  0  0  0  0
 17  1  1  0  0  0  0
 17 20  1  0  0  0  0
 18 17  1  0  0  0  0
 20 25  1  0  0  0  0
 20 22  1  0  0  0  0
 21 20  1  0  0  0  0
 23 29  1  0  0  0  0
 24 23  1  0  0  0  0
 24 30  1  0  0  0  0
 25 24  2  0  0  0  0
 26 27  2  0  0  0  0
 26 25  1  0  0  0  0
 27 28  1  0  0  0  0
 28 23  2  0  0  0  0
 31 27  1  0  0  0  0
M  END
>  <minimizedAffinity>
-4.74076176

$$$$

 OpenBabel03252502453D

 31 33  0  0  1  0  0  0  0  0999 V2000
   37.4370   26.3330   42.5570 C   0  0  1  0  0  0  0  0  0  0  0  0
   36.7660   25.1130   42.1660 C   0  0  0  0  0  0  0  0  0  0  0  0
   37.3470   26.1330   41.1920 C   0  0  1  0  0  0  0  0  0  0  0  0
   38.3630   26.1180   43.1720 H   0  0  0  0  0  0  0  0  0  0  0  0
   37.2750   24.1240   42.0780 H   0  0  0  0  0  0  0  0  0  0  0  0
   35.6900   25.0160   42.2650 H   0  0  0  0  0  0  0  0  0  0  0  0
   38.4240   25.9930   40.8250 H   0  0  0  0  0  0  0  0  0  0  0  0
   36.7010   26.0010   39.9370 C   0  0  0  0  0  0  0  0  0  0  0  0
   36.2060   27.1650   39.3260 C   0  0  0  0  0  0  0  0  0  0  0  0
   36.3320   28.1310   39.8350 H   0  0  0  0  0  0  0  0  0  0  0  0
   35.5440   27.2090   38.0860 C   0  0  0  0  0  3  0  0  0  0  0  0
   35.4270   25.9660   37.5150 C   0  0  0  0  0  0  0  0  0  0  0  0
   34.9180   25.9680   36.5550 H   0  0  0  0  0  0  0  0  0  0  0  0
   35.8610   24.7520   37.9950 C   0  0  0  0  0  0  0  0  0  0  0  0
   35.7130   23.8330   37.4560 H   0  0  0  0  0  0  0  0  0  0  0  0
   36.4840   24.8290   39.1940 C   0  0  0  0  0  3  0  0  0  0  0  0
   36.6590   27.3840   43.3140 C   0  0  0  0  0  0  0  0  0  0  0  0
   36.1320   26.9660   44.1950 H   0  0  0  0  0  0  0  0  0  0  0  0
   35.8860   27.8000   42.5960 H   0  0  0  0  0  0  0  0  0  0  0  0
   37.7140   28.3820   43.6800 C   0  0  0  0  0  0  0  0  0  0  0  0
   37.5720   28.8200   44.6830 H   0  0  0  0  0  0  0  0  0  0  0  0
   38.6970   27.9810   43.4870 H   0  0  0  0  0  0  0  0  0  0  0  0
   39.0130   31.0990   41.4280 C   0  0  0  0  0  0  0  0  0  0  0  0
   38.9690   30.0690   42.4130 C   0  0  0  0  0  0  0  0  0  0  0  0
   37.7770   29.4320   42.6170 C   0  0  0  0  0  0  0  0  0  0  0  0
   36.6910   29.7970   41.8780 N   0  0  0  0  0  0  0  0  0  0  0  0
   36.7500   30.7530   40.9670 C   0  0  0  0  0  0  0  0  0  0  0  0
   37.8920   31.4060   40.7350 N   0  0  0  0  0  0  0  0  0  0  0  0
   39.8780   31.6690   41.1770 H   0  0  0  0  0  0  0  0  0  0  0  0
   39.9360   29.9500   42.8520 H   0  0  0  0  0  0  0  0  0  0  0  0
   35.7920   30.9080   40.4800 H   0  0  0  0  0  0  0  0  0  0  0  0
  1  4  1  1  0  0  0
  1 17  1  0  0  0  0
  2  6  1  0  0  0  0
  2  1  1  0  0  0  0
  3  7  1  6  0  0  0
  3  2  1  0  0  0  0
  3  1  1  0  0  0  0
  5  2  1  0  0  0  0
  8  3  1  0  0  0  0
  9 10  1  0  0  0  0
  9  8  1  0  0  0  0
 11  9  2  0  0  0  0
 12 14  2  0  0  0  0
 12 11  1  0  0  0  0
 13 12  1  0  0  0  0
 14 16  1  0  0  0  0
 15 14  1  0  0  0  0
 16  8  2  0  0  0  0
 17 20  1  0  0  0  0
 17 18  1  0  0  0  0
 19 17  1  0  0  0  0
 20 21  1  0  0  0  0
 22 20  1  0  0  0  0
 23 24  1  0  0  0  0
 24 25  2  0  0  0  0
 24 30  1  0  0  0  0
 25 20  1  0  0  0  0
 26 25  1  0  0  0  0
 27 26  2  0  0  0  0
 28 27  1  0  0  0  0
 28 23  2  0  0  0  0
 29 23  1  0  0  0  0
 31 27  1  0  0  0  0
M  END
>  <minimizedAffinity>
-4.72790575

$$$$
