
 OpenBabel03252507203D

 44 47  0  0  1  0  0  0  0  0999 V2000
   47.0100   33.3970   43.0520 C   0  0  0  0  0  0  0  0  0  0  0  0
   48.0850   33.0770   43.6260 O   0  0  0  0  0  0  0  0  0  0  0  0
   46.6090   32.9260   41.7550 N   0  0  0  0  0  0  0  0  0  0  0  0
   45.3340   32.4300   41.2770 C   0  0  0  0  0  0  0  0  0  0  0  0
   44.9500   33.1910   39.9940 C   0  0  0  0  0  0  0  0  0  0  0  0
   45.9600   32.8980   38.9130 C   0  0  0  0  0  0  0  0  0  0  0  0
   47.1700   32.2330   39.5060 C   0  0  0  0  0  0  0  0  0  0  0  0
   47.6450   32.9530   40.7440 C   0  0  2  0  0  0  0  0  0  0  0  0
   45.3690   31.3680   41.0480 H   0  0  0  0  0  0  0  0  0  0  0  0
   44.5500   32.7270   42.0060 H   0  0  0  0  0  0  0  0  0  0  0  0
   43.9240   32.8940   39.7100 H   0  0  0  0  0  0  0  0  0  0  0  0
   45.0350   34.2760   40.2210 H   0  0  0  0  0  0  0  0  0  0  0  0
   46.3170   33.8210   38.3890 H   0  0  0  0  0  0  0  0  0  0  0  0
   45.4940   32.2060   38.1800 H   0  0  0  0  0  0  0  0  0  0  0  0
   46.9480   31.1650   39.6720 H   0  0  0  0  0  0  0  0  0  0  0  0
   48.0090   32.3280   38.7680 H   0  0  0  0  0  0  0  0  0  0  0  0
   47.7780   34.0140   40.4550 H   0  0  0  0  0  0  0  0  0  0  0  0
   48.9510   32.4320   41.2040 C   0  0  0  0  0  0  0  0  0  0  0  0
   49.1330   31.0540   41.3840 C   0  0  0  0  0  0  0  0  0  0  0  0
   48.2610   30.4220   41.1570 H   0  0  0  0  0  0  0  0  0  0  0  0
   50.2650   30.4240   41.8050 C   0  0  0  0  0  3  0  0  0  0  0  0
   51.3480   31.2100   42.0860 C   0  0  0  0  0  0  0  0  0  0  0  0
   52.2620   30.7460   42.4230 H   0  0  0  0  0  0  0  0  0  0  0  0
   51.2470   32.5700   41.9350 C   0  0  0  0  0  0  0  0  0  0  0  0
   52.1110   33.2130   42.1570 H   0  0  0  0  0  0  0  0  0  0  0  0
   50.0790   33.1660   41.5050 C   0  0  0  0  0  3  0  0  0  0  0  0
   45.7360   35.4900   43.0920 C   0  0  0  0  0  0  0  0  0  0  0  0
   46.1230   34.3010   43.7480 C   0  0  0  0  0  0  0  0  0  0  0  0
   45.6480   34.0420   45.0180 C   0  0  0  0  0  0  0  0  0  0  0  0
   44.8230   34.9460   45.5900 N   0  0  0  0  0  0  0  0  0  0  0  0
   44.4450   36.0920   44.9690 C   0  0  0  0  0  0  0  0  0  0  0  0
   44.9100   36.3420   43.7300 N   0  0  0  0  0  0  0  0  0  0  0  0
   46.0930   35.7210   42.0960 H   0  0  0  0  0  0  0  0  0  0  0  0
   43.7810   36.7520   45.5110 H   0  0  0  0  0  0  0  0  0  0  0  0
   46.0570   32.8180   45.6760 C   0  0  0  0  0  0  0  0  0  0  0  0
   45.6050   31.6150   45.2230 C   0  0  0  0  0  0  0  0  0  0  0  0
   46.0040   30.4610   45.8610 C   0  0  0  0  0  0  0  0  0  0  0  0
   46.8590   30.4680   46.9630 C   0  0  0  0  0  0  0  0  0  0  0  0
   47.2820   31.7190   47.3760 C   0  0  0  0  0  0  0  0  0  0  0  0
   46.8730   32.8190   46.7290 N   0  0  0  0  0  0  0  0  0  0  0  0
   44.9460   31.4420   44.3990 H   0  0  0  0  0  0  0  0  0  0  0  0
   45.6840   29.4650   45.5560 H   0  0  0  0  0  0  0  0  0  0  0  0
   47.1860   29.5780   47.4820 H   0  0  0  0  0  0  0  0  0  0  0  0
   47.9480   31.8650   48.2170 H   0  0  0  0  0  0  0  0  0  0  0  0
  1  2  2  0  0  0  0
  1 28  1  0  0  0  0
  3  1  1  0  0  0  0
  4  3  1  0  0  0  0
  4 10  1  0  0  0  0
  5 12  1  0  0  0  0
  5  4  1  0  0  0  0
  6  7  1  0  0  0  0
  6  5  1  0  0  0  0
  7 15  1  0  0  0  0
  7  8  1  0  0  0  0
  8 17  1  6  0  0  0
  8 18  1  0  0  0  0
  8  3  1  0  0  0  0
  9  4  1  0  0  0  0
 11  5  1  0  0  0  0
 13  6  1  0  0  0  0
 14  6  1  0  0  0  0
 16  7  1  0  0  0  0
 18 19  2  0  0  0  0
 18 26  1  0  0  0  0
 19 21  1  0  0  0  0
 20 19  1  0  0  0  0
 21 22  2  0  0  0  0
 22 23  1  0  0  0  0
 24 22  1  0  0  0  0
 24 25  1  0  0  0  0
 26 24  2  0  0  0  0
 27 32  2  0  0  0  0
 27 28  1  0  0  0  0
 28 29  2  0  0  0  0
 29 30  1  0  0  0  0
 29 35  1  0  0  0  0
 31 34  1  0  0  0  0
 31 30  2  0  0  0  0
 32 31  1  0  0  0  0
 33 27  1  0  0  0  0
 35 40  1  0  0  0  0
 36 35  2  0  0  0  0
 36 37  1  0  0  0  0
 37 38  2  0  0  0  0
 38 39  1  0  0  0  0
 38 43  1  0  0  0  0
 39 44  1  0  0  0  0
 40 39  2  0  0  0  0
 41 36  1  0  0  0  0
 42 37  1  0  0  0  0
M  END
>  <minimizedAffinity>
-5.45923567

>  <minimizedRMSD>
0.744562089

$$$$
