
 OpenBabel03242518323D

 28 30  0  0  0  0  0  0  0  0999 V2000
   47.3410   33.8770   39.7760 C   0  0  0  0  0  0  0  0  0  0  0  0
   48.3100   34.6460   39.1920 C   0  0  0  0  0  0  0  0  0  0  0  0
   48.3290   34.3680   37.8430 C   0  0  0  0  0  0  0  0  0  0  0  0
   47.3340   33.4080   37.6650 C   0  0  0  0  0  0  0  0  0  0  0  0
   46.7670   33.1380   38.8320 O   0  0  0  0  0  0  0  0  0  0  0  0
   48.8870   35.3160   39.8150 H   0  0  0  0  0  0  0  0  0  0  0  0
   48.9910   34.8300   37.1530 H   0  0  0  0  0  0  0  0  0  0  0  0
   46.9990   32.8140   36.3720 C   0  0  0  0  0  0  0  0  0  0  0  0
   45.6670   32.5810   36.0080 C   0  0  0  0  0  0  0  0  0  0  0  0
   44.9120   32.8630   36.7330 H   0  0  0  0  0  0  0  0  0  0  0  0
   45.3950   32.0110   34.7610 C   0  0  0  0  0  0  0  0  0  0  0  0
   46.4210   31.6810   33.8980 C   0  0  0  0  0  0  0  0  0  0  0  0
   46.0340   31.2530   32.9830 H   0  0  0  0  0  0  0  0  0  0  0  0
   47.7290   31.9210   34.2760 C   0  0  0  0  0  0  0  0  0  0  0  0
   48.4490   31.6160   33.5050 H   0  0  0  0  0  0  0  0  0  0  0  0
   48.0110   32.4780   35.4930 C   0  0  0  0  0  0  0  0  0  0  0  0
   46.9130   33.7740   41.1160 O   0  0  0  0  0  0  0  0  0  0  0  0
   47.2020   34.7840   42.0380 C   0  0  0  0  0  0  0  0  0  0  0  0
   48.1740   35.5340   41.7550 O   0  0  0  0  0  0  0  0  0  0  0  0
   46.3640   34.8400   43.1830 C   0  0  0  0  0  0  0  0  0  0  0  0
   45.4790   35.9190   43.1560 C   0  0  0  0  0  0  0  0  0  0  0  0
   44.6130   36.0410   44.2630 C   0  0  0  0  0  0  0  0  0  0  0  0
   44.6910   35.1220   45.2670 N   0  0  0  0  0  0  0  0  0  0  0  0
   45.5710   34.1090   45.2200 C   0  0  0  0  0  0  0  0  0  0  0  0
   46.4130   33.9650   44.1750 N   0  0  0  0  0  0  0  0  0  0  0  0
   45.4130   36.6560   42.3590 H   0  0  0  0  0  0  0  0  0  0  0  0
   43.8910   36.8650   44.3100 H   0  0  0  0  0  0  0  0  0  0  0  0
   45.5470   33.4380   46.0700 H   0  0  0  0  0  0  0  0  0  0  0  0
  1 17  1  0  0  0  0
  2  1  2  0  0  0  0
  2  6  1  0  0  0  0
  3  2  1  0  0  0  0
  4  3  2  0  0  0  0
  4  5  1  0  0  0  0
  5  1  1  0  0  0  0
  7  3  1  0  0  0  0
  8  4  1  0  0  0  0
  9  8  1  0  0  0  0
  9 10  1  0  0  0  0
 11  9  2  0  0  0  0
 12 14  2  0  0  0  0
 12 11  1  0  0  0  0
 13 12  1  0  0  0  0
 14 16  1  0  0  0  0
 15 14  1  0  0  0  0
 16  8  2  0  0  0  0
 17 18  1  0  0  0  0
 18 20  1  0  0  0  0
 19 18  2  0  0  0  0
 20 25  1  0  0  0  0
 21 20  2  0  0  0  0
 21 22  1  0  0  0  0
 22 27  1  0  0  0  0
 22 23  2  0  0  0  0
 24 23  1  0  0  0  0
 24 28  1  0  0  0  0
 25 24  2  0  0  0  0
 26 21  1  0  0  0  0
M  END
>  <minimizedAffinity>
-5.1042738

>  <minimizedRMSD>
0.881037414

$$$$
