
 OpenBabel03242514143D

 34 36  0  0  0  0  0  0  0  0999 V2000
   38.5420   30.7580   41.2340 C   0  0  0  0  0  0  0  0  0  0  0  0
   37.4380   30.9300   40.4180 C   0  0  0  0  0  0  0  0  0  0  0  0
   37.2520   32.2150   39.9470 C   0  0  0  0  0  0  0  0  0  0  0  0
   38.1340   33.1840   40.2990 N   0  0  0  0  0  0  0  0  0  0  0  0
   39.1880   33.0120   41.0720 C   0  0  0  0  0  0  0  0  0  0  0  0
   39.3690   31.7860   41.5280 N   0  0  0  0  0  0  0  0  0  0  0  0
   36.5310   32.6840   39.3190 H   0  0  0  0  0  0  0  0  0  0  0  0
   39.9300   33.7200   41.3920 H   0  0  0  0  0  0  0  0  0  0  0  0
   38.6760   29.4210   41.8310 C   0  0  0  0  0  0  0  0  0  0  0  0
   38.9050   28.3220   40.9590 C   0  0  0  0  0  0  0  0  0  0  0  0
   37.7090   27.4230   40.7860 C   0  0  0  0  0  0  0  0  0  0  0  0
   37.3950   26.7800   42.1430 C   0  0  0  0  0  0  0  0  0  0  0  0
   37.3880   27.7760   43.2600 C   0  0  0  0  0  0  0  0  0  0  0  0
   37.4370   29.1850   42.7310 C   0  0  0  0  0  0  0  0  0  0  0  0
   39.4360   29.5680   42.6230 H   0  0  0  0  0  0  0  0  0  0  0  0
   39.5510   27.6000   41.5800 H   0  0  0  0  0  0  0  0  0  0  0  0
   39.6010   28.3850   40.1230 H   0  0  0  0  0  0  0  0  0  0  0  0
   36.7360   27.9010   40.6130 H   0  0  0  0  0  0  0  0  0  0  0  0
   37.9100   26.5830   40.0890 H   0  0  0  0  0  0  0  0  0  0  0  0
   38.1450   25.9670   42.3010 H   0  0  0  0  0  0  0  0  0  0  0  0
   36.4150   26.2640   42.1030 H   0  0  0  0  0  0  0  0  0  0  0  0
   38.3770   27.6410   43.7920 H   0  0  0  0  0  0  0  0  0  0  0  0
   36.5410   27.7020   43.9370 H   0  0  0  0  0  0  0  0  0  0  0  0
   36.5100   29.4360   42.1560 H   0  0  0  0  0  0  0  0  0  0  0  0
   37.4640   29.8860   43.5850 H   0  0  0  0  0  0  0  0  0  0  0  0
   36.3730   30.2310   39.7530 C   0  0  0  0  0  0  0  0  0  0  0  0
   36.5450   29.9780   38.3700 C   0  0  0  0  0  0  0  0  0  0  0  0
   37.4560   30.3530   37.8760 H   0  0  0  0  0  0  0  0  0  0  0  0
   35.6420   29.2840   37.5770 C   0  0  0  0  0  3  0  0  0  0  0  0
   34.5370   28.8520   38.2720 C   0  0  0  0  0  0  0  0  0  0  0  0
   33.7970   28.3040   37.6920 H   0  0  0  0  0  0  0  0  0  0  0  0
   34.2520   29.0290   39.5970 C   0  0  0  0  0  0  0  0  0  0  0  0
   33.3580   28.6570   40.0730 H   0  0  0  0  0  0  0  0  0  0  0  0
   35.1960   29.7240   40.3060 C   0  0  0  0  0  3  0  0  0  0  0  0
  1  6  1  0  0  0  0
  1  9  1  0  0  0  0
  2  1  2  0  0  0  0
  3  4  2  0  0  0  0
  3  2  1  0  0  0  0
  4  5  1  0  0  0  0
  5  8  1  0  0  0  0
  5  6  2  0  0  0  0
  7  3  1  0  0  0  0
  9 15  1  0  0  0  0
  9 14  1  0  0  0  0
 10 16  1  0  0  0  0
 10  9  1  0  0  0  0
 11 10  1  0  0  0  0
 11 12  1  0  0  0  0
 12 20  1  0  0  0  0
 12 13  1  0  0  0  0
 13 22  1  0  0  0  0
 13 23  1  0  0  0  0
 14 13  1  0  0  0  0
 14 25  1  0  0  0  0
 17 10  1  0  0  0  0
 18 11  1  0  0  0  0
 19 11  1  0  0  0  0
 21 12  1  0  0  0  0
 24 14  1  0  0  0  0
 26 34  1  0  0  0  0
 26  2  1  0  0  0  0
 27 26  2  0  0  0  0
 28 27  1  0  0  0  0
 29 30  2  0  0  0  0
 29 27  1  0  0  0  0
 30 32  1  0  0  0  0
 31 30  1  0  0  0  0
 32 33  1  0  0  0  0
 32 34  2  0  0  0  0
M  END
>  <minimizedAffinity>
-5.36287451

$$$$

 OpenBabel03242514143D

 34 36  0  0  0  0  0  0  0  0999 V2000
   38.0370   30.4070   40.7690 C   0  0  0  0  0  0  0  0  0  0  0  0
   37.0940   30.6380   39.7830 C   0  0  0  0  0  0  0  0  0  0  0  0
   36.9840   31.9530   39.3730 C   0  0  0  0  0  0  0  0  0  0  0  0
   37.7820   32.8920   39.9400 N   0  0  0  0  0  0  0  0  0  0  0  0
   38.6830   32.6640   40.8760 C   0  0  0  0  0  0  0  0  0  0  0  0
   38.7900   31.4100   41.2730 N   0  0  0  0  0  0  0  0  0  0  0  0
   36.3820   32.4660   38.6600 H   0  0  0  0  0  0  0  0  0  0  0  0
   39.3500   33.3460   41.3700 H   0  0  0  0  0  0  0  0  0  0  0  0
   38.0730   29.0330   41.2890 C   0  0  0  0  0  0  0  0  0  0  0  0
   37.0560   28.6380   42.2010 C   0  0  0  0  0  0  0  0  0  0  0  0
   37.5300   28.5060   43.6240 C   0  0  0  0  0  0  0  0  0  0  0  0
   38.5600   27.3710   43.6790 C   0  0  0  0  0  0  0  0  0  0  0  0
   39.5800   27.4690   42.5890 C   0  0  0  0  0  0  0  0  0  0  0  0
   39.4860   28.7920   41.8760 C   0  0  0  0  0  0  0  0  0  0  0  0
   38.1610   28.4140   40.3750 H   0  0  0  0  0  0  0  0  0  0  0  0
   36.9040   27.5180   41.9850 H   0  0  0  0  0  0  0  0  0  0  0  0
   36.0110   28.9110   42.0510 H   0  0  0  0  0  0  0  0  0  0  0  0
   38.1640   29.3090   44.0230 H   0  0  0  0  0  0  0  0  0  0  0  0
   36.7140   28.2120   44.3160 H   0  0  0  0  0  0  0  0  0  0  0  0
   37.9900   26.4100   43.6450 H   0  0  0  0  0  0  0  0  0  0  0  0
   39.0710   27.3670   44.6630 H   0  0  0  0  0  0  0  0  0  0  0  0
   39.2670   26.7080   41.8120 H   0  0  0  0  0  0  0  0  0  0  0  0
   40.6100   27.3330   42.9090 H   0  0  0  0  0  0  0  0  0  0  0  0
   39.7530   29.6400   42.5560 H   0  0  0  0  0  0  0  0  0  0  0  0
   40.2310   28.8110   41.0600 H   0  0  0  0  0  0  0  0  0  0  0  0
   36.1700   29.9900   38.8940 C   0  0  0  0  0  0  0  0  0  0  0  0
   36.5340   29.9390   37.5260 C   0  0  0  0  0  0  0  0  0  0  0  0
   37.4750   30.4200   37.2130 H   0  0  0  0  0  0  0  0  0  0  0  0
   35.7860   29.3210   36.5330 C   0  0  0  0  0  3  0  0  0  0  0  0
   34.6310   28.7470   37.0090 C   0  0  0  0  0  0  0  0  0  0  0  0
   34.0080   28.2500   36.2680 H   0  0  0  0  0  0  0  0  0  0  0  0
   34.1680   28.7250   38.2950 C   0  0  0  0  0  0  0  0  0  0  0  0
   33.2450   28.2500   38.5920 H   0  0  0  0  0  0  0  0  0  0  0  0
   34.9670   29.3580   39.2100 C   0  0  0  0  0  3  0  0  0  0  0  0
  1  6  1  0  0  0  0
  1  9  1  0  0  0  0
  2  1  2  0  0  0  0
  3  2  1  0  0  0  0
  3  4  2  0  0  0  0
  4  5  1  0  0  0  0
  5  6  2  0  0  0  0
  5  8  1  0  0  0  0
  7  3  1  0  0  0  0
  9 14  1  0  0  0  0
  9 10  1  0  0  0  0
 10 11  1  0  0  0  0
 11 12  1  0  0  0  0
 11 18  1  0  0  0  0
 11 19  1  0  0  0  0
 12 21  1  0  0  0  0
 13 23  1  0  0  0  0
 13 12  1  0  0  0  0
 14 24  1  0  0  0  0
 14 13  1  0  0  0  0
 15  9  1  0  0  0  0
 16 10  1  0  0  0  0
 17 10  1  0  0  0  0
 20 12  1  0  0  0  0
 22 13  1  0  0  0  0
 25 14  1  0  0  0  0
 26 34  1  0  0  0  0
 26  2  1  0  0  0  0
 27 26  2  0  0  0  0
 28 27  1  0  0  0  0
 29 30  2  0  0  0  0
 29 27  1  0  0  0  0
 30 32  1  0  0  0  0
 31 30  1  0  0  0  0
 32 33  1  0  0  0  0
 32 34  2  0  0  0  0
M  END
>  <minimizedAffinity>
-5.34563875

$$$$

 OpenBabel03242514143D

 34 36  0  0  0  0  0  0  0  0999 V2000
   37.6100   29.8360   41.3320 C   0  0  0  0  0  0  0  0  0  0  0  0
   36.7300   28.8830   40.8480 C   0  0  0  0  0  0  0  0  0  0  0  0
   36.4280   27.8630   41.7290 C   0  0  0  0  0  0  0  0  0  0  0  0
   36.9890   27.8660   42.9640 N   0  0  0  0  0  0  0  0  0  0  0  0
   37.8230   28.7800   43.4210 C   0  0  0  0  0  0  0  0  0  0  0  0
   38.1170   29.7560   42.5820 N   0  0  0  0  0  0  0  0  0  0  0  0
   35.8100   26.9960   41.6860 H   0  0  0  0  0  0  0  0  0  0  0  0
   38.3040   28.8550   44.3780 H   0  0  0  0  0  0  0  0  0  0  0  0
   38.0230   30.8560   40.3580 C   0  0  0  0  0  0  0  0  0  0  0  0
   39.3310   31.4000   40.4780 C   0  0  0  0  0  0  0  0  0  0  0  0
   39.3580   32.8110   41.0030 C   0  0  0  0  0  0  0  0  0  0  0  0
   38.6560   33.7140   39.9810 C   0  0  0  0  0  0  0  0  0  0  0  0
   37.3520   33.1460   39.5160 C   0  0  0  0  0  0  0  0  0  0  0  0
   36.9430   31.9660   40.3570 C   0  0  0  0  0  0  0  0  0  0  0  0
   37.7880   30.3890   39.3820 H   0  0  0  0  0  0  0  0  0  0  0  0
   39.6390   31.6340   39.3930 H   0  0  0  0  0  0  0  0  0  0  0  0
   40.1970   30.7750   40.6930 H   0  0  0  0  0  0  0  0  0  0  0  0
   38.7260   33.0400   41.8710 H   0  0  0  0  0  0  0  0  0  0  0  0
   40.3910   33.2050   41.1010 H   0  0  0  0  0  0  0  0  0  0  0  0
   39.3750   33.8770   39.1410 H   0  0  0  0  0  0  0  0  0  0  0  0
   38.4870   34.7200   40.4140 H   0  0  0  0  0  0  0  0  0  0  0  0
   37.5610   32.7060   38.4950 H   0  0  0  0  0  0  0  0  0  0  0  0
   36.5240   33.8500   39.5010 H   0  0  0  0  0  0  0  0  0  0  0  0
   36.7290   32.2740   41.4120 H   0  0  0  0  0  0  0  0  0  0  0  0
   35.9950   31.5570   39.9620 H   0  0  0  0  0  0  0  0  0  0  0  0
   35.8800   28.5540   39.7370 C   0  0  0  0  0  0  0  0  0  0  0  0
   36.2510   27.4250   38.9670 C   0  0  0  0  0  0  0  0  0  0  0  0
   37.1740   26.8850   39.2340 H   0  0  0  0  0  0  0  0  0  0  0  0
   35.5310   26.9370   37.8850 C   0  0  0  0  0  3  0  0  0  0  0  0
   34.3960   27.6670   37.6210 C   0  0  0  0  0  0  0  0  0  0  0  0
   33.7970   27.3240   36.7800 H   0  0  0  0  0  0  0  0  0  0  0  0
   33.9290   28.7680   38.2830 C   0  0  0  0  0  0  0  0  0  0  0  0
   33.0230   29.2900   38.0150 H   0  0  0  0  0  0  0  0  0  0  0  0
   34.7000   29.1820   39.3370 C   0  0  0  0  0  3  0  0  0  0  0  0
  1  6  1  0  0  0  0
  2  1  2  0  0  0  0
  2  3  1  0  0  0  0
  3  4  2  0  0  0  0
  4  5  1  0  0  0  0
  5  8  1  0  0  0  0
  6  5  2  0  0  0  0
  7  3  1  0  0  0  0
  9 10  1  0  0  0  0
  9  1  1  0  0  0  0
 10 17  1  0  0  0  0
 10 11  1  0  0  0  0
 11 19  1  0  0  0  0
 11 18  1  0  0  0  0
 12 21  1  0  0  0  0
 12 11  1  0  0  0  0
 13 12  1  0  0  0  0
 13 14  1  0  0  0  0
 14  9  1  0  0  0  0
 14 24  1  0  0  0  0
 15  9  1  0  0  0  0
 16 10  1  0  0  0  0
 20 12  1  0  0  0  0
 22 13  1  0  0  0  0
 23 13  1  0  0  0  0
 25 14  1  0  0  0  0
 26  2  1  0  0  0  0
 27 28  1  0  0  0  0
 27 26  2  0  0  0  0
 29 27  1  0  0  0  0
 30 29  2  0  0  0  0
 30 32  1  0  0  0  0
 31 30  1  0  0  0  0
 32 34  2  0  0  0  0
 33 32  1  0  0  0  0
 34 26  1  0  0  0  0
M  END
>  <minimizedAffinity>
-5.28515482

$$$$

 OpenBabel03242514143D

 34 36  0  0  0  0  0  0  0  0999 V2000
   36.8730   29.7980   38.7750 C   0  0  0  0  0  0  0  0  0  0  0  0
   36.4480   28.6350   39.3930 C   0  0  0  0  0  0  0  0  0  0  0  0
   35.6350   27.8250   38.6220 C   0  0  0  0  0  0  0  0  0  0  0  0
   35.3250   28.2090   37.3580 N   0  0  0  0  0  0  0  0  0  0  0  0
   35.7400   29.3160   36.7740 C   0  0  0  0  0  0  0  0  0  0  0  0
   36.5140   30.0950   37.5060 N   0  0  0  0  0  0  0  0  0  0  0  0
   35.1470   26.8920   38.7770 H   0  0  0  0  0  0  0  0  0  0  0  0
   35.5430   29.6870   35.7850 H   0  0  0  0  0  0  0  0  0  0  0  0
   37.6390   30.7150   39.6310 C   0  0  0  0  0  0  0  0  0  0  0  0
   36.9540   31.8220   40.2020 C   0  0  0  0  0  0  0  0  0  0  0  0
   37.3010   33.1450   39.5710 C   0  0  0  0  0  0  0  0  0  0  0  0
   38.7840   33.4270   39.8410 C   0  0  0  0  0  0  0  0  0  0  0  0
   39.6540   32.2450   39.5530 C   0  0  0  0  0  0  0  0  0  0  0  0
   38.8860   31.1690   38.8320 C   0  0  0  0  0  0  0  0  0  0  0  0
   38.1370   30.0380   40.3520 H   0  0  0  0  0  0  0  0  0  0  0  0
   37.4820   31.9900   41.2110 H   0  0  0  0  0  0  0  0  0  0  0  0
   35.9560   31.7240   40.6280 H   0  0  0  0  0  0  0  0  0  0  0  0
   37.3320   33.1900   38.4740 H   0  0  0  0  0  0  0  0  0  0  0  0
   36.7410   33.9890   40.0250 H   0  0  0  0  0  0  0  0  0  0  0  0
   38.8640   33.7670   40.9020 H   0  0  0  0  0  0  0  0  0  0  0  0
   39.1240   34.2920   39.2360 H   0  0  0  0  0  0  0  0  0  0  0  0
   39.8930   31.7920   40.5620 H   0  0  0  0  0  0  0  0  0  0  0  0
   40.5490   32.4620   38.9750 H   0  0  0  0  0  0  0  0  0  0  0  0
   38.5680   31.5100   37.8140 H   0  0  0  0  0  0  0  0  0  0  0  0
   39.5530   30.3030   38.6670 H   0  0  0  0  0  0  0  0  0  0  0  0
   36.5920   27.8370   40.5800 C   0  0  0  0  0  0  0  0  0  0  0  0
   36.9610   26.4830   40.3940 C   0  0  0  0  0  0  0  0  0  0  0  0
   37.0840   26.1060   39.3650 H   0  0  0  0  0  0  0  0  0  0  0  0
   37.1830   25.5780   41.4230 C   0  0  0  0  0  3  0  0  0  0  0  0
   37.0090   26.1290   42.6700 C   0  0  0  0  0  0  0  0  0  0  0  0
   37.1710   25.4580   43.5120 H   0  0  0  0  0  0  0  0  0  0  0  0
   36.6570   27.4120   42.9840 C   0  0  0  0  0  0  0  0  0  0  0  0
   36.5400   27.7720   43.9940 H   0  0  0  0  0  0  0  0  0  0  0  0
   36.4570   28.2380   41.9090 C   0  0  0  0  0  3  0  0  0  0  0  0
  1  2  1  0  0  0  0
  1  9  1  0  0  0  0
  2 26  1  0  0  0  0
  3  7  1  0  0  0  0
  3  2  2  0  0  0  0
  4  3  1  0  0  0  0
  5  4  2  0  0  0  0
  5  6  1  0  0  0  0
  6  1  2  0  0  0  0
  8  5  1  0  0  0  0
  9 10  1  0  0  0  0
  9 15  1  0  0  0  0
 10 17  1  0  0  0  0
 10 16  1  0  0  0  0
 11 12  1  0  0  0  0
 11 19  1  0  0  0  0
 11 10  1  0  0  0  0
 12 20  1  0  0  0  0
 13 12  1  0  0  0  0
 13 22  1  0  0  0  0
 14 13  1  0  0  0  0
 14  9  1  0  0  0  0
 18 11  1  0  0  0  0
 21 12  1  0  0  0  0
 23 13  1  0  0  0  0
 24 14  1  0  0  0  0
 25 14  1  0  0  0  0
 26 34  1  0  0  0  0
 27 26  2  0  0  0  0
 27 29  1  0  0  0  0
 28 27  1  0  0  0  0
 29 30  2  0  0  0  0
 30 32  1  0  0  0  0
 30 31  1  0  0  0  0
 32 33  1  0  0  0  0
 34 32  2  0  0  0  0
M  END
>  <minimizedAffinity>
-5.18601418

$$$$

 OpenBabel03242514143D

 34 36  0  0  0  0  0  0  0  0999 V2000
   38.7070   31.8770   40.9380 C   0  0  0  0  0  0  0  0  0  0  0  0
   37.5360   31.7240   40.2160 C   0  0  0  0  0  0  0  0  0  0  0  0
   37.0770   32.8710   39.5960 C   0  0  0  0  0  0  0  0  0  0  0  0
   37.7810   34.0230   39.7270 N   0  0  0  0  0  0  0  0  0  0  0  0
   38.9000   34.1590   40.4110 C   0  0  0  0  0  0  0  0  0  0  0  0
   39.3420   33.0680   41.0080 N   0  0  0  0  0  0  0  0  0  0  0  0
   36.2370   33.1030   38.9830 H   0  0  0  0  0  0  0  0  0  0  0  0
   39.5130   35.0290   40.5600 H   0  0  0  0  0  0  0  0  0  0  0  0
   39.1340   30.6910   41.6930 C   0  0  0  0  0  0  0  0  0  0  0  0
   39.9200   30.8920   42.8610 C   0  0  0  0  0  0  0  0  0  0  0  0
   41.3680   30.5140   42.6930 C   0  0  0  0  0  0  0  0  0  0  0  0
   41.4400   29.0040   42.4340 C   0  0  0  0  0  0  0  0  0  0  0  0
   40.4570   28.5530   41.4010 C   0  0  0  0  0  0  0  0  0  0  0  0
   39.8300   29.7280   40.6990 C   0  0  0  0  0  0  0  0  0  0  0  0
   38.1920   30.1290   41.8430 H   0  0  0  0  0  0  0  0  0  0  0  0
   39.6160   30.0270   43.5570 H   0  0  0  0  0  0  0  0  0  0  0  0
   39.6940   31.6810   43.5780 H   0  0  0  0  0  0  0  0  0  0  0  0
   41.8770   30.8520   41.7800 H   0  0  0  0  0  0  0  0  0  0  0  0
   41.9610   30.6950   43.6130 H   0  0  0  0  0  0  0  0  0  0  0  0
   41.2890   28.4960   43.4180 H   0  0  0  0  0  0  0  0  0  0  0  0
   42.4640   28.7200   42.1180 H   0  0  0  0  0  0  0  0  0  0  0  0
   39.6050   28.0830   41.9780 H   0  0  0  0  0  0  0  0  0  0  0  0
   40.8590   27.8860   40.6430 H   0  0  0  0  0  0  0  0  0  0  0  0
   40.5870   30.2970   40.1020 H   0  0  0  0  0  0  0  0  0  0  0  0
   39.0880   29.3540   39.9690 H   0  0  0  0  0  0  0  0  0  0  0  0
   36.5800   30.7550   39.7570 C   0  0  0  0  0  0  0  0  0  0  0  0
   36.5840   30.4650   38.3710 C   0  0  0  0  0  0  0  0  0  0  0  0
   37.2860   31.0120   37.7210 H   0  0  0  0  0  0  0  0  0  0  0  0
   35.7610   29.5310   37.7580 C   0  0  0  0  0  3  0  0  0  0  0  0
   34.9200   28.8950   38.6400 C   0  0  0  0  0  0  0  0  0  0  0  0
   34.2520   28.1530   38.2070 H   0  0  0  0  0  0  0  0  0  0  0  0
   34.8170   29.0810   39.9900 C   0  0  0  0  0  0  0  0  0  0  0  0
   34.1270   28.5390   40.6200 H   0  0  0  0  0  0  0  0  0  0  0  0
   35.6650   30.0210   40.5130 C   0  0  0  0  0  3  0  0  0  0  0  0
  1  6  1  0  0  0  0
  1  9  1  0  0  0  0
  2  1  2  0  0  0  0
  3  4  2  0  0  0  0
  3  2  1  0  0  0  0
  4  5  1  0  0  0  0
  5  8  1  0  0  0  0
  5  6  2  0  0  0  0
  7  3  1  0  0  0  0
  9 15  1  0  0  0  0
  9 10  1  0  0  0  0
 10 16  1  0  0  0  0
 10 17  1  0  0  0  0
 11 10  1  0  0  0  0
 11 19  1  0  0  0  0
 12 11  1  0  0  0  0
 12 20  1  0  0  0  0
 13 22  1  0  0  0  0
 13 12  1  0  0  0  0
 14 13  1  0  0  0  0
 14  9  1  0  0  0  0
 18 11  1  0  0  0  0
 21 12  1  0  0  0  0
 23 13  1  0  0  0  0
 24 14  1  0  0  0  0
 25 14  1  0  0  0  0
 26  2  1  0  0  0  0
 26 34  1  0  0  0  0
 27 26  2  0  0  0  0
 28 27  1  0  0  0  0
 29 27  1  0  0  0  0
 29 30  2  0  0  0  0
 30 32  1  0  0  0  0
 31 30  1  0  0  0  0
 32 34  2  0  0  0  0
 32 33  1  0  0  0  0
M  END
>  <minimizedAffinity>
-5.18287468

$$$$

 OpenBabel03242514143D

 34 36  0  0  0  0  0  0  0  0999 V2000
   36.9870   29.3430   40.5980 C   0  0  0  0  0  0  0  0  0  0  0  0
   36.4520   29.8110   39.4100 C   0  0  0  0  0  0  0  0  0  0  0  0
   36.8360   31.0920   39.0600 C   0  0  0  0  0  0  0  0  0  0  0  0
   37.6820   31.7750   39.8700 N   0  0  0  0  0  0  0  0  0  0  0  0
   38.1920   31.3200   40.9980 C   0  0  0  0  0  0  0  0  0  0  0  0
   37.8270   30.0980   41.3390 N   0  0  0  0  0  0  0  0  0  0  0  0
   36.6200   31.7380   38.2410 H   0  0  0  0  0  0  0  0  0  0  0  0
   38.8650   31.7940   41.6890 H   0  0  0  0  0  0  0  0  0  0  0  0
   36.4900   28.0290   41.0310 C   0  0  0  0  0  0  0  0  0  0  0  0
   36.4900   27.7440   42.4240 C   0  0  0  0  0  0  0  0  0  0  0  0
   37.5540   26.7650   42.8460 C   0  0  0  0  0  0  0  0  0  0  0  0
   37.2550   25.4180   42.1750 C   0  0  0  0  0  0  0  0  0  0  0  0
   36.9470   25.5600   40.7170 C   0  0  0  0  0  0  0  0  0  0  0  0
   37.2590   26.9500   40.2300 C   0  0  0  0  0  0  0  0  0  0  0  0
   35.5070   27.9470   40.5270 H   0  0  0  0  0  0  0  0  0  0  0  0
   35.5800   27.0530   42.5700 H   0  0  0  0  0  0  0  0  0  0  0  0
   36.1740   28.4800   43.1630 H   0  0  0  0  0  0  0  0  0  0  0  0
   38.5660   26.9150   42.4470 H   0  0  0  0  0  0  0  0  0  0  0  0
   37.5410   26.5720   43.9380 H   0  0  0  0  0  0  0  0  0  0  0  0
   36.4170   24.9480   42.7440 H   0  0  0  0  0  0  0  0  0  0  0  0
   38.1130   24.7290   42.3050 H   0  0  0  0  0  0  0  0  0  0  0  0
   35.8220   25.4790   40.6370 H   0  0  0  0  0  0  0  0  0  0  0  0
   37.4590   24.8550   40.0680 H   0  0  0  0  0  0  0  0  0  0  0  0
   38.3570   27.1630   40.2830 H   0  0  0  0  0  0  0  0  0  0  0  0
   36.9880   27.0230   39.1610 H   0  0  0  0  0  0  0  0  0  0  0  0
   35.6600   29.4340   38.2720 C   0  0  0  0  0  0  0  0  0  0  0  0
   34.3140   29.0750   38.5260 C   0  0  0  0  0  0  0  0  0  0  0  0
   33.9570   29.0710   39.5680 H   0  0  0  0  0  0  0  0  0  0  0  0
   33.3940   28.7230   37.5470 C   0  0  0  0  0  3  0  0  0  0  0  0
   33.9200   28.7560   36.2780 C   0  0  0  0  0  0  0  0  0  0  0  0
   33.2370   28.4850   35.4750 H   0  0  0  0  0  0  0  0  0  0  0  0
   35.1930   29.0820   35.9000 C   0  0  0  0  0  0  0  0  0  0  0  0
   35.5330   29.0850   34.8760 H   0  0  0  0  0  0  0  0  0  0  0  0
   36.0350   29.4160   36.9280 C   0  0  0  0  0  3  0  0  0  0  0  0
  1  9  1  0  0  0  0
  1  6  1  0  0  0  0
  2  1  2  0  0  0  0
  3  2  1  0  0  0  0
  3  4  2  0  0  0  0
  4  5  1  0  0  0  0
  5  6  2  0  0  0  0
  5  8  1  0  0  0  0
  7  3  1  0  0  0  0
  9 10  1  0  0  0  0
 10 16  1  0  0  0  0
 10 11  1  0  0  0  0
 10 17  1  0  0  0  0
 11 19  1  0  0  0  0
 12 21  1  0  0  0  0
 12 20  1  0  0  0  0
 12 11  1  0  0  0  0
 13 12  1  0  0  0  0
 14 24  1  0  0  0  0
 14 13  1  0  0  0  0
 14  9  1  0  0  0  0
 15  9  1  0  0  0  0
 18 11  1  0  0  0  0
 22 13  1  0  0  0  0
 23 13  1  0  0  0  0
 25 14  1  0  0  0  0
 26 27  1  0  0  0  0
 26  2  1  0  0  0  0
 27 28  1  0  0  0  0
 29 27  2  0  0  0  0
 30 29  1  0  0  0  0
 31 30  1  0  0  0  0
 32 30  2  0  0  0  0
 32 34  1  0  0  0  0
 33 32  1  0  0  0  0
 34 26  2  0  0  0  0
M  END
>  <minimizedAffinity>
-5.15504503

$$$$

 OpenBabel03242514143D

 34 36  0  0  0  0  0  0  0  0999 V2000
   38.5110   31.0190   40.6120 C   0  0  0  0  0  0  0  0  0  0  0  0
   38.7490   29.8890   41.3750 C   0  0  0  0  0  0  0  0  0  0  0  0
   39.9560   29.8810   42.0480 C   0  0  0  0  0  0  0  0  0  0  0  0
   40.7920   30.9410   41.9240 N   0  0  0  0  0  0  0  0  0  0  0  0
   40.5560   32.0170   41.1980 C   0  0  0  0  0  0  0  0  0  0  0  0
   39.4060   32.0300   40.5510 N   0  0  0  0  0  0  0  0  0  0  0  0
   40.4420   29.1940   42.7020 H   0  0  0  0  0  0  0  0  0  0  0  0
   41.1600   32.8930   41.0510 H   0  0  0  0  0  0  0  0  0  0  0  0
   37.2840   30.9790   39.8040 C   0  0  0  0  0  0  0  0  0  0  0  0
   36.0460   30.8080   40.4800 C   0  0  0  0  0  0  0  0  0  0  0  0
   35.4390   29.4410   40.3060 C   0  0  0  0  0  0  0  0  0  0  0  0
   35.0970   29.2570   38.8220 C   0  0  0  0  0  0  0  0  0  0  0  0
   36.2200   29.6650   37.9200 C   0  0  0  0  0  0  0  0  0  0  0  0
   37.4830   29.9070   38.7030 C   0  0  0  0  0  0  0  0  0  0  0  0
   37.3620   31.8860   39.1730 H   0  0  0  0  0  0  0  0  0  0  0  0
   35.2910   31.3940   39.8380 H   0  0  0  0  0  0  0  0  0  0  0  0
   35.8180   31.3360   41.4060 H   0  0  0  0  0  0  0  0  0  0  0  0
   36.1040   28.5750   40.4190 H   0  0  0  0  0  0  0  0  0  0  0  0
   34.4820   29.3300   40.8560 H   0  0  0  0  0  0  0  0  0  0  0  0
   34.1620   29.8370   38.6280 H   0  0  0  0  0  0  0  0  0  0  0  0
   34.8270   28.2010   38.6200 H   0  0  0  0  0  0  0  0  0  0  0  0
   35.9350   30.6850   37.5240 H   0  0  0  0  0  0  0  0  0  0  0  0
   36.4490   28.9620   37.1240 H   0  0  0  0  0  0  0  0  0  0  0  0
   37.8590   28.9620   39.1720 H   0  0  0  0  0  0  0  0  0  0  0  0
   38.2760   30.2370   38.0080 H   0  0  0  0  0  0  0  0  0  0  0  0
   38.1580   28.6660   41.8440 C   0  0  0  0  0  0  0  0  0  0  0  0
   37.4880   28.7210   43.0900 C   0  0  0  0  0  0  0  0  0  0  0  0
   37.4820   29.6730   43.6440 H   0  0  0  0  0  0  0  0  0  0  0  0
   36.8270   27.6500   43.6780 C   0  0  0  0  0  3  0  0  0  0  0  0
   36.8820   26.5040   42.9210 C   0  0  0  0  0  0  0  0  0  0  0  0
   36.3800   25.6340   43.3410 H   0  0  0  0  0  0  0  0  0  0  0  0
   37.4910   26.3200   41.7120 C   0  0  0  0  0  0  0  0  0  0  0  0
   37.4910   25.3830   41.1760 H   0  0  0  0  0  0  0  0  0  0  0  0
   38.1190   27.4270   41.2040 C   0  0  0  0  0  3  0  0  0  0  0  0
  1  2  1  0  0  0  0
  2 26  1  0  0  0  0
  2  3  2  0  0  0  0
  3  7  1  0  0  0  0
  4  3  1  0  0  0  0
  5  4  2  0  0  0  0
  6  1  2  0  0  0  0
  6  5  1  0  0  0  0
  8  5  1  0  0  0  0
  9 10  1  0  0  0  0
  9  1  1  0  0  0  0
 10 17  1  0  0  0  0
 11 18  1  0  0  0  0
 11 10  1  0  0  0  0
 11 19  1  0  0  0  0
 12 11  1  0  0  0  0
 13 14  1  0  0  0  0
 13 12  1  0  0  0  0
 14 24  1  0  0  0  0
 14  9  1  0  0  0  0
 15  9  1  0  0  0  0
 16 10  1  0  0  0  0
 20 12  1  0  0  0  0
 21 12  1  0  0  0  0
 22 13  1  0  0  0  0
 23 13  1  0  0  0  0
 25 14  1  0  0  0  0
 26 27  1  0  0  0  0
 27 28  1  0  0  0  0
 27 29  2  0  0  0  0
 30 31  1  0  0  0  0
 30 29  1  0  0  0  0
 32 30  2  0  0  0  0
 33 32  1  0  0  0  0
 34 32  1  0  0  0  0
 34 26  2  0  0  0  0
M  END
>  <minimizedAffinity>
-5.15194988

$$$$

 OpenBabel03242514143D

 34 36  0  0  0  0  0  0  0  0999 V2000
   36.7850   28.1770   41.3060 C   0  0  0  0  0  0  0  0  0  0  0  0
   37.4050   29.4110   41.4050 C   0  0  0  0  0  0  0  0  0  0  0  0
   38.0390   29.6530   42.6090 C   0  0  0  0  0  0  0  0  0  0  0  0
   38.0160   28.7000   43.5730 N   0  0  0  0  0  0  0  0  0  0  0  0
   37.4290   27.5230   43.4700 C   0  0  0  0  0  0  0  0  0  0  0  0
   36.8200   27.2870   42.3230 N   0  0  0  0  0  0  0  0  0  0  0  0
   38.5930   30.4690   43.0100 H   0  0  0  0  0  0  0  0  0  0  0  0
   37.3690   26.7200   44.1800 H   0  0  0  0  0  0  0  0  0  0  0  0
   36.0120   27.9630   40.0750 C   0  0  0  0  0  0  0  0  0  0  0  0
   36.7250   27.8740   38.8480 C   0  0  0  0  0  0  0  0  0  0  0  0
   36.5770   29.0870   37.9670 C   0  0  0  0  0  0  0  0  0  0  0  0
   35.1050   29.1980   37.5520 C   0  0  0  0  0  0  0  0  0  0  0  0
   34.1690   29.0330   38.7080 C   0  0  0  0  0  0  0  0  0  0  0  0
   34.9150   29.0550   40.0160 C   0  0  0  0  0  0  0  0  0  0  0  0
   35.3730   27.0930   40.3200 H   0  0  0  0  0  0  0  0  0  0  0  0
   36.0990   27.1460   38.2110 H   0  0  0  0  0  0  0  0  0  0  0  0
   37.6530   27.3090   38.7600 H   0  0  0  0  0  0  0  0  0  0  0  0
   36.6790   30.0720   38.4420 H   0  0  0  0  0  0  0  0  0  0  0  0
   37.1550   28.9970   37.0240 H   0  0  0  0  0  0  0  0  0  0  0  0
   34.9320   28.4380   36.7510 H   0  0  0  0  0  0  0  0  0  0  0  0
   34.9190   30.1760   37.0640 H   0  0  0  0  0  0  0  0  0  0  0  0
   33.7730   27.9760   38.6280 H   0  0  0  0  0  0  0  0  0  0  0  0
   33.3720   29.7690   38.7640 H   0  0  0  0  0  0  0  0  0  0  0  0
   35.3800   30.0570   40.2020 H   0  0  0  0  0  0  0  0  0  0  0  0
   34.1950   28.8970   40.8400 H   0  0  0  0  0  0  0  0  0  0  0  0
   37.7420   30.5960   40.6670 C   0  0  0  0  0  0  0  0  0  0  0  0
   39.0040   30.6070   40.0240 C   0  0  0  0  0  0  0  0  0  0  0  0
   39.6650   29.7340   40.1470 H   0  0  0  0  0  0  0  0  0  0  0  0
   39.4790   31.6470   39.2370 C   0  0  0  0  0  3  0  0  0  0  0  0
   38.5930   32.6930   39.1360 C   0  0  0  0  0  0  0  0  0  0  0  0
   38.9210   33.5360   38.5300 H   0  0  0  0  0  0  0  0  0  0  0  0
   37.3550   32.8070   39.7020 C   0  0  0  0  0  0  0  0  0  0  0  0
   36.7130   33.6650   39.5750 H   0  0  0  0  0  0  0  0  0  0  0  0
   36.9630   31.7360   40.4620 C   0  0  0  0  0  3  0  0  0  0  0  0
  1  2  2  0  0  0  0
  1  6  1  0  0  0  0
  2  3  1  0  0  0  0
  3  7  1  0  0  0  0
  3  4  2  0  0  0  0
  5  4  1  0  0  0  0
  5  8  1  0  0  0  0
  6  5  2  0  0  0  0
  9 15  1  0  0  0  0
  9  1  1  0  0  0  0
 10  9  1  0  0  0  0
 11 18  1  0  0  0  0
 11 10  1  0  0  0  0
 12 11  1  0  0  0  0
 12 13  1  0  0  0  0
 13 23  1  0  0  0  0
 13 14  1  0  0  0  0
 14  9  1  0  0  0  0
 14 24  1  0  0  0  0
 14 25  1  0  0  0  0
 16 10  1  0  0  0  0
 17 10  1  0  0  0  0
 19 11  1  0  0  0  0
 20 12  1  0  0  0  0
 21 12  1  0  0  0  0
 22 13  1  0  0  0  0
 26  2  1  0  0  0  0
 27 28  1  0  0  0  0
 27 26  2  0  0  0  0
 29 27  1  0  0  0  0
 30 29  2  0  0  0  0
 30 32  1  0  0  0  0
 31 30  1  0  0  0  0
 32 34  2  0  0  0  0
 33 32  1  0  0  0  0
 34 26  1  0  0  0  0
M  END
>  <minimizedAffinity>
-5.13406229

$$$$

 OpenBabel03242514143D

 34 36  0  0  0  0  0  0  0  0999 V2000
   36.8620   30.4120   39.1200 C   0  0  0  0  0  0  0  0  0  0  0  0
   37.3380   30.1860   40.4000 C   0  0  0  0  0  0  0  0  0  0  0  0
   37.8580   31.2970   41.0360 C   0  0  0  0  0  0  0  0  0  0  0  0
   37.8630   32.4900   40.3890 N   0  0  0  0  0  0  0  0  0  0  0  0
   37.4030   32.6980   39.1710 C   0  0  0  0  0  0  0  0  0  0  0  0
   36.9070   31.6400   38.5570 N   0  0  0  0  0  0  0  0  0  0  0  0
   38.2930   31.4760   41.9910 H   0  0  0  0  0  0  0  0  0  0  0  0
   37.3680   33.6050   38.5950 H   0  0  0  0  0  0  0  0  0  0  0  0
   36.4170   29.2110   38.3980 C   0  0  0  0  0  0  0  0  0  0  0  0
   36.7880   29.0790   37.0320 C   0  0  0  0  0  0  0  0  0  0  0  0
   35.6510   29.2980   36.0680 C   0  0  0  0  0  0  0  0  0  0  0  0
   34.6140   28.1910   36.2960 C   0  0  0  0  0  0  0  0  0  0  0  0
   34.2980   27.9910   37.7450 C   0  0  0  0  0  0  0  0  0  0  0  0
   34.8840   29.0950   38.5850 C   0  0  0  0  0  0  0  0  0  0  0  0
   36.7320   28.3820   39.0610 H   0  0  0  0  0  0  0  0  0  0  0  0
   36.9020   27.9440   36.8800 H   0  0  0  0  0  0  0  0  0  0  0  0
   37.7890   29.3270   36.6800 H   0  0  0  0  0  0  0  0  0  0  0  0
   34.9970   30.1610   36.2450 H   0  0  0  0  0  0  0  0  0  0  0  0
   35.9720   29.2030   35.0100 H   0  0  0  0  0  0  0  0  0  0  0  0
   35.0130   27.2650   35.8150 H   0  0  0  0  0  0  0  0  0  0  0  0
   33.6820   28.4220   35.7440 H   0  0  0  0  0  0  0  0  0  0  0  0
   34.8720   27.0670   38.0550 H   0  0  0  0  0  0  0  0  0  0  0  0
   33.2390   27.9180   37.9790 H   0  0  0  0  0  0  0  0  0  0  0  0
   34.4080   30.0810   38.3500 H   0  0  0  0  0  0  0  0  0  0  0  0
   34.6570   28.8940   39.6480 H   0  0  0  0  0  0  0  0  0  0  0  0
   37.4390   29.1970   41.4370 C   0  0  0  0  0  0  0  0  0  0  0  0
   38.6700   29.1310   42.1340 C   0  0  0  0  0  0  0  0  0  0  0  0
   39.4840   29.8080   41.8300 H   0  0  0  0  0  0  0  0  0  0  0  0
   38.9330   28.2680   43.1880 C   0  0  0  0  0  3  0  0  0  0  0  0
   37.8660   27.4610   43.5030 C   0  0  0  0  0  0  0  0  0  0  0  0
   38.0240   26.7640   44.3230 H   0  0  0  0  0  0  0  0  0  0  0  0
   36.6340   27.4250   42.9130 C   0  0  0  0  0  0  0  0  0  0  0  0
   35.8410   26.7590   43.2180 H   0  0  0  0  0  0  0  0  0  0  0  0
   36.4580   28.3100   41.8810 C   0  0  0  0  0  3  0  0  0  0  0  0
  1  2  1  0  0  0  0
  2  3  2  0  0  0  0
  2 26  1  0  0  0  0
  3  7  1  0  0  0  0
  4  3  1  0  0  0  0
  5  4  2  0  0  0  0
  6  1  2  0  0  0  0
  6  5  1  0  0  0  0
  8  5  1  0  0  0  0
  9 14  1  0  0  0  0
  9 15  1  0  0  0  0
  9  1  1  0  0  0  0
 10  9  1  0  0  0  0
 11 18  1  0  0  0  0
 11 12  1  0  0  0  0
 11 10  1  0  0  0  0
 12 13  1  0  0  0  0
 13 23  1  0  0  0  0
 13 22  1  0  0  0  0
 13 14  1  0  0  0  0
 14 25  1  0  0  0  0
 16 10  1  0  0  0  0
 17 10  1  0  0  0  0
 19 11  1  0  0  0  0
 20 12  1  0  0  0  0
 21 12  1  0  0  0  0
 24 14  1  0  0  0  0
 26 34  2  0  0  0  0
 26 27  1  0  0  0  0
 27 29  2  0  0  0  0
 28 27  1  0  0  0  0
 29 30  1  0  0  0  0
 30 31  1  0  0  0  0
 32 33  1  0  0  0  0
 32 30  2  0  0  0  0
 34 32  1  0  0  0  0
M  END
>  <minimizedAffinity>
-5.12685776

$$$$
