
 OpenBabel03252507203D

 44 47  0  0  1  0  0  0  0  0999 V2000
   47.0490   33.1950   43.1080 C   0  0  0  0  0  0  0  0  0  0  0  0
   48.1860   33.0270   43.6260 O   0  0  0  0  0  0  0  0  0  0  0  0
   46.5760   32.5000   41.9430 N   0  0  0  0  0  0  0  0  0  0  0  0
   45.3010   31.8680   41.6650 C   0  0  0  0  0  0  0  0  0  0  0  0
   44.7660   32.3910   40.3190 C   0  0  0  0  0  0  0  0  0  0  0  0
   45.7030   31.9790   39.2100 C   0  0  0  0  0  0  0  0  0  0  0  0
   46.9970   31.4820   39.7890 C   0  0  0  0  0  0  0  0  0  0  0  0
   47.5230   32.4160   40.8510 C   0  0  2  0  0  0  0  0  0  0  0  0
   45.3870   30.7870   41.6030 H   0  0  0  0  0  0  0  0  0  0  0  0
   44.5610   32.2380   42.4060 H   0  0  0  0  0  0  0  0  0  0  0  0
   43.7420   32.0000   40.1790 H   0  0  0  0  0  0  0  0  0  0  0  0
   44.7980   33.5010   40.3650 H   0  0  0  0  0  0  0  0  0  0  0  0
   45.9550   32.8220   38.5180 H   0  0  0  0  0  0  0  0  0  0  0  0
   45.2250   31.1550   38.6390 H   0  0  0  0  0  0  0  0  0  0  0  0
   46.8590   30.4450   40.1390 H   0  0  0  0  0  0  0  0  0  0  0  0
   47.7650   31.4990   38.9720 H   0  0  0  0  0  0  0  0  0  0  0  0
   47.5630   33.4220   40.3880 H   0  0  0  0  0  0  0  0  0  0  0  0
   48.8930   32.0440   41.2660 C   0  0  0  0  0  0  0  0  0  0  0  0
   49.1610   30.7440   41.7170 C   0  0  0  0  0  0  0  0  0  0  0  0
   48.3040   30.0550   41.7280 H   0  0  0  0  0  0  0  0  0  0  0  0
   50.3610   30.2550   42.1370 C   0  0  0  0  0  3  0  0  0  0  0  0
   51.4250   31.1120   42.1240 C   0  0  0  0  0  0  0  0  0  0  0  0
   52.3900   30.7580   42.4500 H   0  0  0  0  0  0  0  0  0  0  0  0
   51.2410   32.4020   41.6940 C   0  0  0  0  0  0  0  0  0  0  0  0
   52.0890   33.1020   41.6790 H   0  0  0  0  0  0  0  0  0  0  0  0
   50.0080   32.8570   41.2770 C   0  0  0  0  0  3  0  0  0  0  0  0
   45.7870   35.2920   42.9870 C   0  0  0  0  0  0  0  0  0  0  0  0
   46.1640   34.1520   43.7310 C   0  0  0  0  0  0  0  0  0  0  0  0
   45.6830   33.9910   45.0150 C   0  0  0  0  0  0  0  0  0  0  0  0
   44.8600   34.9390   45.5150 N   0  0  0  0  0  0  0  0  0  0  0  0
   44.4920   36.0380   44.8080 C   0  0  0  0  0  0  0  0  0  0  0  0
   44.9630   36.1930   43.5560 N   0  0  0  0  0  0  0  0  0  0  0  0
   46.1490   35.4460   41.9780 H   0  0  0  0  0  0  0  0  0  0  0  0
   43.8290   36.7400   45.2970 H   0  0  0  0  0  0  0  0  0  0  0  0
   46.0830   32.8180   45.7640 C   0  0  0  0  0  0  0  0  0  0  0  0
   45.6150   31.5890   45.4080 C   0  0  0  0  0  0  0  0  0  0  0  0
   46.0040   30.4820   46.1320 C   0  0  0  0  0  0  0  0  0  0  0  0
   46.8670   30.5660   47.2260 C   0  0  0  0  0  0  0  0  0  0  0  0
   47.3070   31.8400   47.5370 C   0  0  0  0  0  0  0  0  0  0  0  0
   46.9050   32.8910   46.8090 N   0  0  0  0  0  0  0  0  0  0  0  0
   44.9490   31.3590   44.6040 H   0  0  0  0  0  0  0  0  0  0  0  0
   45.6720   29.4700   45.9070 H   0  0  0  0  0  0  0  0  0  0  0  0
   47.1870   29.7150   47.8100 H   0  0  0  0  0  0  0  0  0  0  0  0
   47.9790   32.0430   48.3610 H   0  0  0  0  0  0  0  0  0  0  0  0
  1  2  2  0  0  0  0
  1 28  1  0  0  0  0
  3  1  1  0  0  0  0
  4  3  1  0  0  0  0
  4 10  1  0  0  0  0
  5 12  1  0  0  0  0
  5  4  1  0  0  0  0
  6  7  1  0  0  0  0
  6  5  1  0  0  0  0
  7 15  1  0  0  0  0
  7  8  1  0  0  0  0
  8 17  1  6  0  0  0
  8 18  1  0  0  0  0
  8  3  1  0  0  0  0
  9  4  1  0  0  0  0
 11  5  1  0  0  0  0
 13  6  1  0  0  0  0
 14  6  1  0  0  0  0
 16  7  1  0  0  0  0
 18 26  2  0  0  0  0
 18 19  1  0  0  0  0
 19 20  1  0  0  0  0
 19 21  2  0  0  0  0
 22 21  1  0  0  0  0
 22 23  1  0  0  0  0
 24 22  2  0  0  0  0
 25 24  1  0  0  0  0
 26 24  1  0  0  0  0
 27 32  2  0  0  0  0
 27 28  1  0  0  0  0
 28 29  2  0  0  0  0
 29 30  1  0  0  0  0
 29 35  1  0  0  0  0
 31 34  1  0  0  0  0
 31 30  2  0  0  0  0
 32 31  1  0  0  0  0
 33 27  1  0  0  0  0
 35 40  1  0  0  0  0
 36 35  2  0  0  0  0
 36 37  1  0  0  0  0
 37 38  2  0  0  0  0
 38 39  1  0  0  0  0
 38 43  1  0  0  0  0
 39 44  1  0  0  0  0
 40 39  2  0  0  0  0
 41 36  1  0  0  0  0
 42 37  1  0  0  0  0
M  END
>  <minimizedAffinity>
-5.30599165

>  <minimizedRMSD>
1.07882035

$$$$
