
 OpenBabel03252500593D

 38 40  0  0  0  0  0  0  0  0999 V2000
   36.5270   28.9850   40.0280 O   0  0  0  0  0  0  0  0  0  0  0  0
   36.8840   30.3790   40.5290 P   0  0  1  0  0  0  0  0  0  0  0  0
   35.5370   30.9850   41.3690 O   0  0  0  0  0  0  0  0  0  0  0  0
   34.7400   30.9410   40.8020 H   0  0  0  0  0  0  0  0  0  0  0  0
   38.1720   30.2790   41.6310 O   0  0  0  0  0  0  0  0  0  0  0  0
   38.7710   28.3310   42.8140 C   0  0  0  0  0  0  0  0  0  0  0  0
   39.0460   29.2110   41.7870 C   0  0  0  0  0  0  0  0  0  0  0  0
   40.1830   28.9570   40.9870 C   0  0  0  0  0  0  0  0  0  0  0  0
   40.9210   27.8680   41.2850 N   0  0  0  0  0  0  0  0  0  0  0  0
   40.6380   27.0330   42.2790 C   0  0  0  0  0  0  0  0  0  0  0  0
   39.5600   27.2690   43.0420 N   0  0  0  0  0  0  0  0  0  0  0  0
   40.3430   29.6730   40.2090 H   0  0  0  0  0  0  0  0  0  0  0  0
   41.2860   26.1840   42.4450 H   0  0  0  0  0  0  0  0  0  0  0  0
   37.6140   28.5310   43.6820 C   0  0  0  0  0  0  0  0  0  0  0  0
   37.9640   28.3510   44.7360 H   0  0  0  0  0  0  0  0  0  0  0  0
   37.1450   29.5150   43.6140 H   0  0  0  0  0  0  0  0  0  0  0  0
   36.5970   27.4650   43.3840 C   0  0  0  0  0  0  0  0  0  0  0  0
   37.0030   26.6960   42.6810 H   0  0  0  0  0  0  0  0  0  0  0  0
   36.2500   26.9480   44.3030 H   0  0  0  0  0  0  0  0  0  0  0  0
   35.7350   27.9220   42.8620 H   0  0  0  0  0  0  0  0  0  0  0  0
   37.1980   31.4190   39.2370 O   0  0  0  0  0  0  0  0  0  0  0  0
   38.1920   32.3680   39.3840 C   0  0  0  0  0  0  0  0  0  0  0  0
   37.8830   33.5160   40.0930 C   0  0  0  0  0  0  0  0  0  0  0  0
   38.8180   34.5330   40.2970 C   0  0  0  0  0  0  0  0  0  0  0  0
   40.0570   34.3740   39.7810 N   0  0  0  0  0  0  0  0  0  0  0  0
   40.3530   33.2550   39.0930 C   0  0  0  0  0  0  0  0  0  0  0  0
   39.4420   32.3050   38.9150 N   0  0  0  0  0  0  0  0  0  0  0  0
   36.9020   33.6950   40.5290 H   0  0  0  0  0  0  0  0  0  0  0  0
   38.5520   35.4100   40.8480 H   0  0  0  0  0  0  0  0  0  0  0  0
   41.7080   33.0740   38.5250 C   0  0  0  0  0  0  0  0  0  0  0  0
   41.9230   32.0470   37.6200 C   0  0  0  0  0  0  0  0  0  0  0  0
   41.0850   31.4200   37.3680 H   0  0  0  0  0  0  0  0  0  0  0  0
   43.1960   31.8790   37.0880 C   0  0  0  0  0  3  0  0  0  0  0  0
   44.1840   32.7540   37.4950 C   0  0  0  0  0  0  0  0  0  0  0  0
   45.1950   32.6400   37.0890 H   0  0  0  0  0  0  0  0  0  0  0  0
   44.0210   33.7900   38.3920 C   0  0  0  0  0  0  0  0  0  0  0  0
   44.8380   34.4320   38.6620 H   0  0  0  0  0  0  0  0  0  0  0  0
   42.7380   33.9390   38.9110 C   0  0  0  0  0  3  0  0  0  0  0  0
  2  1  2  6  0  0  0
  2  3  1  0  0  0  0
  2  5  1  0  0  0  0
  4  3  1  0  0  0  0
  5  7  1  0  0  0  0
  6 11  1  0  0  0  0
  6 14  1  0  0  0  0
  7  6  2  0  0  0  0
  8  9  2  0  0  0  0
  8  7  1  0  0  0  0
  9 10  1  0  0  0  0
 10 13  1  0  0  0  0
 10 11  2  0  0  0  0
 12  8  1  0  0  0  0
 14 15  1  0  0  0  0
 16 14  1  0  0  0  0
 17 14  1  0  0  0  0
 17 19  1  0  0  0  0
 18 17  1  0  0  0  0
 20 17  1  0  0  0  0
 21 22  1  0  0  0  0
 21  2  1  0  0  0  0
 22 23  1  0  0  0  0
 23 24  2  0  0  0  0
 23 28  1  0  0  0  0
 24 29  1  0  0  0  0
 25 24  1  0  0  0  0
 26 25  2  0  0  0  0
 27 26  1  0  0  0  0
 27 22  2  0  0  0  0
 30 38  1  0  0  0  0
 30 26  1  0  0  0  0
 31 30  2  0  0  0  0
 32 31  1  0  0  0  0
 33 34  2  0  0  0  0
 33 31  1  0  0  0  0
 34 36  1  0  0  0  0
 35 34  1  0  0  0  0
 36 37  1  0  0  0  0
 36 38  2  0  0  0  0
M  END
>  <minimizedAffinity>
-5.77996159

$$$$

 OpenBabel03252500593D

 38 40  0  0  0  0  0  0  0  0999 V2000
   37.4910   32.8720   40.5800 O   0  0  0  0  0  0  0  0  0  0  0  0
   37.1440   31.4000   40.4010 P   0  0  1  0  0  0  0  0  0  0  0  0
   35.6860   31.1110   41.2250 O   0  0  0  0  0  0  0  0  0  0  0  0
   35.7620   31.4080   42.1560 H   0  0  0  0  0  0  0  0  0  0  0  0
   36.8760   31.0700   38.7580 O   0  0  0  0  0  0  0  0  0  0  0  0
   36.4720   29.1390   37.4700 C   0  0  0  0  0  0  0  0  0  0  0  0
   37.3890   30.0010   38.0350 C   0  0  0  0  0  0  0  0  0  0  0  0
   38.7610   29.7280   37.8340 C   0  0  0  0  0  0  0  0  0  0  0  0
   39.0780   28.6400   37.1020 N   0  0  0  0  0  0  0  0  0  0  0  0
   38.1780   27.8230   36.5670 C   0  0  0  0  0  0  0  0  0  0  0  0
   36.8740   28.0770   36.7530 N   0  0  0  0  0  0  0  0  0  0  0  0
   39.4230   30.4300   38.2960 H   0  0  0  0  0  0  0  0  0  0  0  0
   38.5230   26.9740   35.9920 H   0  0  0  0  0  0  0  0  0  0  0  0
   35.0370   29.3580   37.6350 C   0  0  0  0  0  0  0  0  0  0  0  0
   34.8920   30.4640   37.7730 H   0  0  0  0  0  0  0  0  0  0  0  0
   34.4150   29.0050   36.8100 H   0  0  0  0  0  0  0  0  0  0  0  0
   34.5940   28.7080   38.9170 C   0  0  0  0  0  0  0  0  0  0  0  0
   35.4650   28.3330   39.5080 H   0  0  0  0  0  0  0  0  0  0  0  0
   34.0100   29.4010   39.5560 H   0  0  0  0  0  0  0  0  0  0  0  0
   33.9870   27.8150   38.6780 H   0  0  0  0  0  0  0  0  0  0  0  0
   38.3310   30.4150   41.0890 O   0  0  0  0  0  0  0  0  0  0  0  0
   37.9390   29.2230   41.6690 C   0  0  0  0  0  0  0  0  0  0  0  0
   37.7780   29.2000   43.0440 C   0  0  0  0  0  0  0  0  0  0  0  0
   37.3860   28.0450   43.7230 C   0  0  0  0  0  0  0  0  0  0  0  0
   37.1600   26.9250   43.0010 N   0  0  0  0  0  0  0  0  0  0  0  0
   37.3180   26.9530   41.6640 C   0  0  0  0  0  0  0  0  0  0  0  0
   37.6920   28.0670   41.0460 N   0  0  0  0  0  0  0  0  0  0  0  0
   37.9470   30.0730   43.6740 H   0  0  0  0  0  0  0  0  0  0  0  0
   37.2700   28.0560   44.7860 H   0  0  0  0  0  0  0  0  0  0  0  0
   37.0720   25.7310   40.8670 C   0  0  0  0  0  0  0  0  0  0  0  0
   36.5510   25.8580   39.5880 C   0  0  0  0  0  0  0  0  0  0  0  0
   36.3480   26.8520   39.2290 H   0  0  0  0  0  0  0  0  0  0  0  0
   36.3220   24.7090   38.8410 C   0  0  0  0  0  3  0  0  0  0  0  0
   36.6270   23.4930   39.4200 C   0  0  0  0  0  0  0  0  0  0  0  0
   36.4530   22.5740   38.8500 H   0  0  0  0  0  0  0  0  0  0  0  0
   37.1460   23.3130   40.6870 C   0  0  0  0  0  0  0  0  0  0  0  0
   37.3590   22.3340   41.0710 H   0  0  0  0  0  0  0  0  0  0  0  0
   37.3680   24.4780   41.4150 C   0  0  0  0  0  3  0  0  0  0  0  0
  2  1  2  1  0  0  0
  2 21  1  0  0  0  0
  2  3  1  0  0  0  0
  3  4  1  0  0  0  0
  5  2  1  0  0  0  0
  6 14  1  0  0  0  0
  6  7  1  0  0  0  0
  7  5  1  0  0  0  0
  8  7  2  0  0  0  0
  8 12  1  0  0  0  0
  9  8  1  0  0  0  0
 10 11  1  0  0  0  0
 10  9  2  0  0  0  0
 11  6  2  0  0  0  0
 13 10  1  0  0  0  0
 14 15  1  0  0  0  0
 14 17  1  0  0  0  0
 16 14  1  0  0  0  0
 17 18  1  0  0  0  0
 17 19  1  0  0  0  0
 20 17  1  0  0  0  0
 21 22  1  0  0  0  0
 22 23  1  0  0  0  0
 23 28  1  0  0  0  0
 23 24  2  0  0  0  0
 24 29  1  0  0  0  0
 25 24  1  0  0  0  0
 26 25  2  0  0  0  0
 27 26  1  0  0  0  0
 27 22  2  0  0  0  0
 30 38  1  0  0  0  0
 30 26  1  0  0  0  0
 31 30  2  0  0  0  0
 32 31  1  0  0  0  0
 33 34  2  0  0  0  0
 33 31  1  0  0  0  0
 34 36  1  0  0  0  0
 35 34  1  0  0  0  0
 36 37  1  0  0  0  0
 36 38  2  0  0  0  0
M  END
>  <minimizedAffinity>
-5.74122858

$$$$

 OpenBabel03252500593D

 38 40  0  0  0  0  0  0  0  0999 V2000
   40.2820   29.6460   41.2150 O   0  0  0  0  0  0  0  0  0  0  0  0
   39.3000   30.3590   42.1360 P   0  0  1  0  0  0  0  0  0  0  0  0
   40.1670   31.5340   43.0040 O   0  0  0  0  0  0  0  0  0  0  0  0
   40.9330   31.1210   43.4550 H   0  0  0  0  0  0  0  0  0  0  0  0
   38.1290   31.1680   41.2100 O   0  0  0  0  0  0  0  0  0  0  0  0
   36.7560   30.3250   39.4900 C   0  0  0  0  0  0  0  0  0  0  0  0
   37.8980   31.0120   39.8500 C   0  0  0  0  0  0  0  0  0  0  0  0
   38.7310   31.4930   38.8150 C   0  0  0  0  0  0  0  0  0  0  0  0
   38.3490   31.2480   37.5440 N   0  0  0  0  0  0  0  0  0  0  0  0
   37.2450   30.5850   37.2210 C   0  0  0  0  0  0  0  0  0  0  0  0
   36.4490   30.1250   38.1990 N   0  0  0  0  0  0  0  0  0  0  0  0
   39.6000   32.0150   39.1550 H   0  0  0  0  0  0  0  0  0  0  0  0
   37.0160   30.4350   36.1740 H   0  0  0  0  0  0  0  0  0  0  0  0
   35.8480   29.7990   40.5060 C   0  0  0  0  0  0  0  0  0  0  0  0
   36.4000   28.9770   41.0400 H   0  0  0  0  0  0  0  0  0  0  0  0
   35.4860   30.5300   41.2310 H   0  0  0  0  0  0  0  0  0  0  0  0
   34.6800   29.1480   39.8180 C   0  0  0  0  0  0  0  0  0  0  0  0
   34.8350   29.0930   38.7120 H   0  0  0  0  0  0  0  0  0  0  0  0
   34.4910   28.1220   40.1960 H   0  0  0  0  0  0  0  0  0  0  0  0
   33.7790   29.7740   39.9640 H   0  0  0  0  0  0  0  0  0  0  0  0
   38.6330   29.2800   43.2510 O   0  0  0  0  0  0  0  0  0  0  0  0
   38.6560   27.9300   42.9530 C   0  0  0  0  0  0  0  0  0  0  0  0
   39.5190   27.1270   43.6800 C   0  0  0  0  0  0  0  0  0  0  0  0
   39.6160   25.7530   43.4540 C   0  0  0  0  0  0  0  0  0  0  0  0
   38.8360   25.2060   42.4950 N   0  0  0  0  0  0  0  0  0  0  0  0
   37.9980   25.9920   41.7920 C   0  0  0  0  0  0  0  0  0  0  0  0
   37.9280   27.2970   42.0280 N   0  0  0  0  0  0  0  0  0  0  0  0
   40.1690   27.5150   44.4630 H   0  0  0  0  0  0  0  0  0  0  0  0
   40.2910   25.1570   44.0300 H   0  0  0  0  0  0  0  0  0  0  0  0
   37.1410   25.4000   40.7400 C   0  0  0  0  0  0  0  0  0  0  0  0
   36.8930   26.1300   39.5880 C   0  0  0  0  0  0  0  0  0  0  0  0
   37.3420   27.1060   39.5100 H   0  0  0  0  0  0  0  0  0  0  0  0
   36.0890   25.5730   38.6010 C   0  0  0  0  0  3  0  0  0  0  0  0
   35.5760   24.3110   38.8270 C   0  0  0  0  0  0  0  0  0  0  0  0
   34.9380   23.8520   38.0630 H   0  0  0  0  0  0  0  0  0  0  0  0
   35.7920   23.5450   39.9550 C   0  0  0  0  0  0  0  0  0  0  0  0
   35.3580   22.5680   40.0600 H   0  0  0  0  0  0  0  0  0  0  0  0
   36.6000   24.1230   40.9280 C   0  0  0  0  0  3  0  0  0  0  0  0
  2  1  2  6  0  0  0
  2  3  1  0  0  0  0
  2 21  1  0  0  0  0
  3  4  1  0  0  0  0
  5  2  1  0  0  0  0
  6  7  1  0  0  0  0
  6 14  1  0  0  0  0
  7  5  1  0  0  0  0
  8 12  1  0  0  0  0
  8  7  2  0  0  0  0
  9  8  1  0  0  0  0
 10  9  2  0  0  0  0
 10 11  1  0  0  0  0
 11  6  2  0  0  0  0
 13 10  1  0  0  0  0
 14 15  1  0  0  0  0
 14 16  1  0  0  0  0
 17 20  1  0  0  0  0
 17 19  1  0  0  0  0
 17 14  1  0  0  0  0
 18 17  1  0  0  0  0
 22 21  1  0  0  0  0
 22 23  1  0  0  0  0
 23 28  1  0  0  0  0
 24 23  2  0  0  0  0
 24 29  1  0  0  0  0
 25 24  1  0  0  0  0
 26 27  1  0  0  0  0
 26 25  2  0  0  0  0
 27 22  2  0  0  0  0
 30 38  1  0  0  0  0
 30 26  1  0  0  0  0
 31 30  2  0  0  0  0
 32 31  1  0  0  0  0
 33 34  2  0  0  0  0
 33 31  1  0  0  0  0
 34 36  1  0  0  0  0
 35 34  1  0  0  0  0
 36 37  1  0  0  0  0
 36 38  2  0  0  0  0
M  END
>  <minimizedAffinity>
-5.61524248

$$$$

 OpenBabel03252500593D

 38 40  0  0  0  0  0  0  0  0999 V2000
   41.1360   29.2220   41.9790 O   0  0  0  0  0  0  0  0  0  0  0  0
   40.4450   30.5770   42.0630 P   0  0  1  0  0  0  0  0  0  0  0  0
   41.5330   31.6650   42.7840 O   0  0  0  0  0  0  0  0  0  0  0  0
   41.8480   31.3070   43.6400 H   0  0  0  0  0  0  0  0  0  0  0  0
   40.1120   31.1480   40.4990 O   0  0  0  0  0  0  0  0  0  0  0  0
   38.2730   31.7560   39.1570 C   0  0  0  0  0  0  0  0  0  0  0  0
   39.1640   32.1020   40.1530 C   0  0  0  0  0  0  0  0  0  0  0  0
   39.0420   33.3860   40.7300 C   0  0  0  0  0  0  0  0  0  0  0  0
   38.0580   34.1850   40.2670 N   0  0  0  0  0  0  0  0  0  0  0  0
   37.2100   33.8320   39.3080 C   0  0  0  0  0  0  0  0  0  0  0  0
   37.3210   32.6140   38.7550 N   0  0  0  0  0  0  0  0  0  0  0  0
   39.7600   33.5960   41.4940 H   0  0  0  0  0  0  0  0  0  0  0  0
   36.4510   34.5370   38.9980 H   0  0  0  0  0  0  0  0  0  0  0  0
   38.3390   30.4470   38.5140 C   0  0  0  0  0  0  0  0  0  0  0  0
   39.3780   30.3430   38.0960 H   0  0  0  0  0  0  0  0  0  0  0  0
   38.1180   29.5980   39.1640 H   0  0  0  0  0  0  0  0  0  0  0  0
   37.4040   30.4390   37.3370 C   0  0  0  0  0  0  0  0  0  0  0  0
   36.9840   31.4560   37.1410 H   0  0  0  0  0  0  0  0  0  0  0  0
   37.9010   30.0820   36.4110 H   0  0  0  0  0  0  0  0  0  0  0  0
   36.5350   29.7950   37.5690 H   0  0  0  0  0  0  0  0  0  0  0  0
   39.0730   30.4910   43.0430 O   0  0  0  0  0  0  0  0  0  0  0  0
   38.1450   29.5000   42.7870 C   0  0  0  0  0  0  0  0  0  0  0  0
   37.8780   28.5930   43.7990 C   0  0  0  0  0  0  0  0  0  0  0  0
   36.9570   27.5560   43.6380 C   0  0  0  0  0  0  0  0  0  0  0  0
   36.3150   27.4490   42.4540 N   0  0  0  0  0  0  0  0  0  0  0  0
   36.5770   28.3350   41.4730 C   0  0  0  0  0  0  0  0  0  0  0  0
   37.4590   29.3100   41.6550 N   0  0  0  0  0  0  0  0  0  0  0  0
   38.3670   28.6320   44.7710 H   0  0  0  0  0  0  0  0  0  0  0  0
   36.7720   26.8690   44.4370 H   0  0  0  0  0  0  0  0  0  0  0  0
   35.8770   28.2240   40.1740 C   0  0  0  0  0  0  0  0  0  0  0  0
   36.2710   27.2380   39.2820 C   0  0  0  0  0  0  0  0  0  0  0  0
   37.0770   26.5900   39.5800 H   0  0  0  0  0  0  0  0  0  0  0  0
   35.6120   27.1360   38.0640 C   0  0  0  0  0  3  0  0  0  0  0  0
   34.5930   28.0310   37.8060 C   0  0  0  0  0  0  0  0  0  0  0  0
   34.0600   27.9700   36.8500 H   0  0  0  0  0  0  0  0  0  0  0  0
   34.1640   29.0290   38.6580 C   0  0  0  0  0  0  0  0  0  0  0  0
   33.3620   29.6900   38.3880 H   0  0  0  0  0  0  0  0  0  0  0  0
   34.8380   29.1110   39.8720 C   0  0  0  0  0  3  0  0  0  0  0  0
  2  1  2  6  0  0  0
  2  3  1  0  0  0  0
  2 21  1  0  0  0  0
  3  4  1  0  0  0  0
  5  2  1  0  0  0  0
  6  7  1  0  0  0  0
  7  5  1  0  0  0  0
  7  8  2  0  0  0  0
  8 12  1  0  0  0  0
  9  8  1  0  0  0  0
 10  9  2  0  0  0  0
 11  6  2  0  0  0  0
 11 10  1  0  0  0  0
 13 10  1  0  0  0  0
 14  6  1  0  0  0  0
 14 16  1  0  0  0  0
 15 14  1  0  0  0  0
 17 20  1  0  0  0  0
 17 14  1  0  0  0  0
 18 17  1  0  0  0  0
 19 17  1  0  0  0  0
 22 21  1  0  0  0  0
 22 23  1  0  0  0  0
 23 28  1  0  0  0  0
 24 23  2  0  0  0  0
 24 29  1  0  0  0  0
 25 24  1  0  0  0  0
 26 27  1  0  0  0  0
 26 25  2  0  0  0  0
 27 22  2  0  0  0  0
 30 26  1  0  0  0  0
 31 32  1  0  0  0  0
 31 30  2  0  0  0  0
 33 31  1  0  0  0  0
 34 33  2  0  0  0  0
 34 36  1  0  0  0  0
 35 34  1  0  0  0  0
 36 38  2  0  0  0  0
 37 36  1  0  0  0  0
 38 30  1  0  0  0  0
M  END
>  <minimizedAffinity>
-5.54582691

$$$$

 OpenBabel03252500593D

 38 40  0  0  0  0  0  0  0  0999 V2000
   35.1940   29.4370   39.1740 O   0  0  0  0  0  0  0  0  0  0  0  0
   36.3010   30.2770   39.7960 P   0  0  1  0  0  0  0  0  0  0  0  0
   35.7180   30.8880   41.2700 O   0  0  0  0  0  0  0  0  0  0  0  0
   34.8710   31.3590   41.1270 H   0  0  0  0  0  0  0  0  0  0  0  0
   37.6410   29.2940   40.1430 O   0  0  0  0  0  0  0  0  0  0  0  0
   39.0180   28.8980   42.0140 C   0  0  0  0  0  0  0  0  0  0  0  0
   37.8660   28.5890   41.3180 C   0  0  0  0  0  0  0  0  0  0  0  0
   37.0210   27.5910   41.8520 C   0  0  0  0  0  0  0  0  0  0  0  0
   37.4000   27.0080   43.0080 N   0  0  0  0  0  0  0  0  0  0  0  0
   38.5120   27.3210   43.6620 C   0  0  0  0  0  0  0  0  0  0  0  0
   39.3200   28.2680   43.1600 N   0  0  0  0  0  0  0  0  0  0  0  0
   36.1460   27.3960   41.2680 H   0  0  0  0  0  0  0  0  0  0  0  0
   38.7380   26.8020   44.5840 H   0  0  0  0  0  0  0  0  0  0  0  0
   39.9390   29.9180   41.5220 C   0  0  0  0  0  0  0  0  0  0  0  0
   40.9790   29.5200   41.6810 H   0  0  0  0  0  0  0  0  0  0  0  0
   39.8080   30.1970   40.4750 H   0  0  0  0  0  0  0  0  0  0  0  0
   39.8140   31.1400   42.3900 C   0  0  0  0  0  0  0  0  0  0  0  0
   39.1620   30.9470   43.2770 H   0  0  0  0  0  0  0  0  0  0  0  0
   40.8000   31.4980   42.7520 H   0  0  0  0  0  0  0  0  0  0  0  0
   39.3110   31.9410   41.8170 H   0  0  0  0  0  0  0  0  0  0  0  0
   36.6830   31.5920   38.8070 O   0  0  0  0  0  0  0  0  0  0  0  0
   37.8140   32.3290   39.1030 C   0  0  0  0  0  0  0  0  0  0  0  0
   37.6530   33.4740   39.8640 C   0  0  0  0  0  0  0  0  0  0  0  0
   38.7330   34.2860   40.2160 C   0  0  0  0  0  0  0  0  0  0  0  0
   39.9660   33.9270   39.7930 N   0  0  0  0  0  0  0  0  0  0  0  0
   40.1170   32.8120   39.0530 C   0  0  0  0  0  0  0  0  0  0  0  0
   39.0700   32.0600   38.7340 N   0  0  0  0  0  0  0  0  0  0  0  0
   36.6840   33.8090   40.2310 H   0  0  0  0  0  0  0  0  0  0  0  0
   38.5800   35.1650   40.8050 H   0  0  0  0  0  0  0  0  0  0  0  0
   41.4640   32.4140   38.5870 C   0  0  0  0  0  0  0  0  0  0  0  0
   41.6190   31.9790   37.2790 C   0  0  0  0  0  0  0  0  0  0  0  0
   40.7420   31.9520   36.6560 H   0  0  0  0  0  0  0  0  0  0  0  0
   42.8850   31.6070   36.8430 C   0  0  0  0  0  3  0  0  0  0  0  0
   43.9260   31.6890   37.7460 C   0  0  0  0  0  0  0  0  0  0  0  0
   44.9330   31.3990   37.4240 H   0  0  0  0  0  0  0  0  0  0  0  0
   43.8240   32.1140   39.0550 C   0  0  0  0  0  0  0  0  0  0  0  0
   44.6820   32.1520   39.7010 H   0  0  0  0  0  0  0  0  0  0  0  0
   42.5480   32.4820   39.4690 C   0  0  0  0  0  3  0  0  0  0  0  0
  2  1  2  6  0  0  0
  2  5  1  0  0  0  0
  2  3  1  0  0  0  0
  4  3  1  0  0  0  0
  5  7  1  0  0  0  0
  6 11  1  0  0  0  0
  7  8  1  0  0  0  0
  7  6  2  0  0  0  0
  8  9  2  0  0  0  0
  9 10  1  0  0  0  0
 10 13  1  0  0  0  0
 11 10  2  0  0  0  0
 12  8  1  0  0  0  0
 14 15  1  0  0  0  0
 14  6  1  0  0  0  0
 14 17  1  0  0  0  0
 16 14  1  0  0  0  0
 17 19  1  0  0  0  0
 17 18  1  0  0  0  0
 20 17  1  0  0  0  0
 21 22  1  0  0  0  0
 21  2  1  0  0  0  0
 22 23  1  0  0  0  0
 23 24  2  0  0  0  0
 23 28  1  0  0  0  0
 24 29  1  0  0  0  0
 25 24  1  0  0  0  0
 26 25  2  0  0  0  0
 27 26  1  0  0  0  0
 27 22  2  0  0  0  0
 30 26  1  0  0  0  0
 30 38  1  0  0  0  0
 31 30  2  0  0  0  0
 32 31  1  0  0  0  0
 33 31  1  0  0  0  0
 33 34  2  0  0  0  0
 34 36  1  0  0  0  0
 35 34  1  0  0  0  0
 36 38  2  0  0  0  0
 36 37  1  0  0  0  0
M  END
>  <minimizedAffinity>
-5.49622631

$$$$

 OpenBabel03252500593D

 38 40  0  0  0  0  0  0  0  0999 V2000
   39.7510   34.1490   39.7420 O   0  0  0  0  0  0  0  0  0  0  0  0
   39.3380   32.7120   40.0350 P   0  0  1  0  0  0  0  0  0  0  0  0
   39.3610   32.5040   41.7200 O   0  0  0  0  0  0  0  0  0  0  0  0
   40.2340   32.7650   42.0800 H   0  0  0  0  0  0  0  0  0  0  0  0
   37.7450   32.4550   39.5090 O   0  0  0  0  0  0  0  0  0  0  0  0
   36.4950   30.5200   39.0110 C   0  0  0  0  0  0  0  0  0  0  0  0
   37.3250   31.5280   38.5640 C   0  0  0  0  0  0  0  0  0  0  0  0
   37.6770   31.5340   37.1950 C   0  0  0  0  0  0  0  0  0  0  0  0
   37.1750   30.5510   36.4200 N   0  0  0  0  0  0  0  0  0  0  0  0
   36.3770   29.5900   36.8710 C   0  0  0  0  0  0  0  0  0  0  0  0
   36.0390   29.5790   38.1700 N   0  0  0  0  0  0  0  0  0  0  0  0
   38.3220   32.3380   36.9090 H   0  0  0  0  0  0  0  0  0  0  0  0
   36.0200   28.8410   36.1770 H   0  0  0  0  0  0  0  0  0  0  0  0
   36.0900   30.4500   40.4120 C   0  0  0  0  0  0  0  0  0  0  0  0
   37.0340   30.3740   41.0190 H   0  0  0  0  0  0  0  0  0  0  0  0
   35.4920   31.2920   40.7660 H   0  0  0  0  0  0  0  0  0  0  0  0
   35.3380   29.1670   40.6340 C   0  0  0  0  0  0  0  0  0  0  0  0
   35.3780   28.5080   39.7310 H   0  0  0  0  0  0  0  0  0  0  0  0
   35.7300   28.5970   41.5000 H   0  0  0  0  0  0  0  0  0  0  0  0
   34.2670   29.3980   40.7890 H   0  0  0  0  0  0  0  0  0  0  0  0
   40.4400   31.6230   39.3640 O   0  0  0  0  0  0  0  0  0  0  0  0
   40.4950   30.3420   39.8810 C   0  0  0  0  0  0  0  0  0  0  0  0
   41.6130   29.5790   39.5880 C   0  0  0  0  0  0  0  0  0  0  0  0
   41.7620   28.2750   40.0630 C   0  0  0  0  0  0  0  0  0  0  0  0
   40.7770   27.7580   40.8310 N   0  0  0  0  0  0  0  0  0  0  0  0
   39.6930   28.5050   41.1130 C   0  0  0  0  0  0  0  0  0  0  0  0
   39.5790   29.7430   40.6470 N   0  0  0  0  0  0  0  0  0  0  0  0
   42.4340   29.9460   38.9740 H   0  0  0  0  0  0  0  0  0  0  0  0
   42.6350   27.7080   39.8200 H   0  0  0  0  0  0  0  0  0  0  0  0
   38.6110   27.9450   41.9540 C   0  0  0  0  0  0  0  0  0  0  0  0
   38.1930   28.6560   43.0690 C   0  0  0  0  0  0  0  0  0  0  0  0
   38.6810   29.5930   43.2740 H   0  0  0  0  0  0  0  0  0  0  0  0
   37.1770   28.1290   43.8570 C   0  0  0  0  0  3  0  0  0  0  0  0
   36.6350   26.9160   43.4810 C   0  0  0  0  0  0  0  0  0  0  0  0
   35.8330   26.4810   44.0880 H   0  0  0  0  0  0  0  0  0  0  0  0
   37.0150   26.1710   42.3830 C   0  0  0  0  0  0  0  0  0  0  0  0
   36.5460   25.2320   42.1530 H   0  0  0  0  0  0  0  0  0  0  0  0
   38.0330   26.7180   41.6090 C   0  0  0  0  0  3  0  0  0  0  0  0
  2  1  2  6  0  0  0
  2  3  1  0  0  0  0
  3  4  1  0  0  0  0
  5  2  1  0  0  0  0
  6 14  1  0  0  0  0
  7  6  1  0  0  0  0
  7  5  1  0  0  0  0
  8  7  2  0  0  0  0
  9 10  2  0  0  0  0
  9  8  1  0  0  0  0
 10 11  1  0  0  0  0
 11  6  2  0  0  0  0
 12  8  1  0  0  0  0
 13 10  1  0  0  0  0
 14 17  1  0  0  0  0
 14 16  1  0  0  0  0
 14 15  1  0  0  0  0
 17 20  1  0  0  0  0
 17 19  1  0  0  0  0
 18 17  1  0  0  0  0
 21 22  1  0  0  0  0
 21  2  1  0  0  0  0
 22 27  1  0  0  0  0
 23 22  2  0  0  0  0
 23 24  1  0  0  0  0
 24 25  2  0  0  0  0
 25 26  1  0  0  0  0
 26 30  1  0  0  0  0
 27 26  2  0  0  0  0
 28 23  1  0  0  0  0
 29 24  1  0  0  0  0
 30 31  1  0  0  0  0
 31 32  1  0  0  0  0
 31 33  2  0  0  0  0
 34 33  1  0  0  0  0
 34 35  1  0  0  0  0
 36 34  2  0  0  0  0
 37 36  1  0  0  0  0
 38 30  2  0  0  0  0
 38 36  1  0  0  0  0
M  END
>  <minimizedAffinity>
-5.41198587

$$$$

 OpenBabel03252500593D

 38 40  0  0  0  0  0  0  0  0999 V2000
   37.1730   29.5730   39.7050 O   0  0  0  0  0  0  0  0  0  0  0  0
   37.0450   30.7690   40.6400 P   0  0  1  0  0  0  0  0  0  0  0  0
   35.4580   30.7800   41.2470 O   0  0  0  0  0  0  0  0  0  0  0  0
   34.8150   30.7610   40.5080 H   0  0  0  0  0  0  0  0  0  0  0  0
   38.0960   30.5810   41.9590 O   0  0  0  0  0  0  0  0  0  0  0  0
   39.7660   28.9910   42.4460 C   0  0  0  0  0  0  0  0  0  0  0  0
   38.4490   29.3850   42.5710 C   0  0  0  0  0  0  0  0  0  0  0  0
   37.5780   28.5480   43.3040 C   0  0  0  0  0  0  0  0  0  0  0  0
   38.0970   27.4190   43.8300 N   0  0  0  0  0  0  0  0  0  0  0  0
   39.3680   27.0590   43.6980 C   0  0  0  0  0  0  0  0  0  0  0  0
   40.2010   27.8500   43.0030 N   0  0  0  0  0  0  0  0  0  0  0  0
   36.5720   28.9060   43.3650 H   0  0  0  0  0  0  0  0  0  0  0  0
   39.6980   26.1370   44.1550 H   0  0  0  0  0  0  0  0  0  0  0  0
   40.7240   29.8060   41.7030 C   0  0  0  0  0  0  0  0  0  0  0  0
   41.4990   29.1020   41.2930 H   0  0  0  0  0  0  0  0  0  0  0  0
   40.2990   30.3980   40.8900 H   0  0  0  0  0  0  0  0  0  0  0  0
   41.4400   30.7100   42.6670 C   0  0  0  0  0  0  0  0  0  0  0  0
   41.1830   30.4640   43.7270 H   0  0  0  0  0  0  0  0  0  0  0  0
   42.5420   30.6550   42.5530 H   0  0  0  0  0  0  0  0  0  0  0  0
   41.0970   31.7510   42.5100 H   0  0  0  0  0  0  0  0  0  0  0  0
   37.2870   32.2140   39.8010 O   0  0  0  0  0  0  0  0  0  0  0  0
   38.5730   32.7140   39.7130 C   0  0  0  0  0  0  0  0  0  0  0  0
   38.8240   33.9460   40.2920 C   0  0  0  0  0  0  0  0  0  0  0  0
   40.0890   34.5360   40.2570 C   0  0  0  0  0  0  0  0  0  0  0  0
   41.0870   33.8700   39.6350 N   0  0  0  0  0  0  0  0  0  0  0  0
   40.8380   32.6710   39.0740 C   0  0  0  0  0  0  0  0  0  0  0  0
   39.6240   32.1360   39.1230 N   0  0  0  0  0  0  0  0  0  0  0  0
   38.0570   34.5250   40.8050 H   0  0  0  0  0  0  0  0  0  0  0  0
   40.2530   35.4890   40.7120 H   0  0  0  0  0  0  0  0  0  0  0  0
   41.9260   31.9360   38.3920 C   0  0  0  0  0  0  0  0  0  0  0  0
   41.7110   31.4580   37.1080 C   0  0  0  0  0  0  0  0  0  0  0  0
   40.7490   31.6470   36.6610 H   0  0  0  0  0  0  0  0  0  0  0  0
   42.7340   30.7690   36.4700 C   0  0  0  0  0  3  0  0  0  0  0  0
   43.9190   30.5960   37.1560 C   0  0  0  0  0  0  0  0  0  0  0  0
   44.7400   30.0550   36.6720 H   0  0  0  0  0  0  0  0  0  0  0  0
   44.1840   31.0510   38.4320 C   0  0  0  0  0  0  0  0  0  0  0  0
   45.1330   30.8790   38.9030 H   0  0  0  0  0  0  0  0  0  0  0  0
   43.1450   31.7390   39.0510 C   0  0  0  0  0  3  0  0  0  0  0  0
  2  1  2  6  0  0  0
  2  3  1  0  0  0  0
  2  5  1  0  0  0  0
  4  3  1  0  0  0  0
  5  7  1  0  0  0  0
  6  7  2  0  0  0  0
  6 11  1  0  0  0  0
  7  8  1  0  0  0  0
  8 12  1  0  0  0  0
  8  9  2  0  0  0  0
 10  9  1  0  0  0  0
 10 13  1  0  0  0  0
 11 10  2  0  0  0  0
 14  6  1  0  0  0  0
 14 17  1  0  0  0  0
 15 14  1  0  0  0  0
 16 14  1  0  0  0  0
 17 18  1  0  0  0  0
 19 17  1  0  0  0  0
 20 17  1  0  0  0  0
 21  2  1  0  0  0  0
 22 21  1  0  0  0  0
 22 23  1  0  0  0  0
 23 28  1  0  0  0  0
 24 23  2  0  0  0  0
 24 29  1  0  0  0  0
 25 24  1  0  0  0  0
 26 27  1  0  0  0  0
 26 25  2  0  0  0  0
 27 22  2  0  0  0  0
 30 38  1  0  0  0  0
 30 26  1  0  0  0  0
 31 30  2  0  0  0  0
 32 31  1  0  0  0  0
 33 31  1  0  0  0  0
 33 34  2  0  0  0  0
 34 36  1  0  0  0  0
 35 34  1  0  0  0  0
 36 37  1  0  0  0  0
 36 38  2  0  0  0  0
M  END
>  <minimizedAffinity>
-5.40159416

$$$$

 OpenBabel03252500593D

 38 40  0  0  0  0  0  0  0  0999 V2000
   37.1320   30.7720   37.0920 O   0  0  0  0  0  0  0  0  0  0  0  0
   38.4990   31.0910   37.6830 P   0  0  1  0  0  0  0  0  0  0  0  0
   39.1880   32.3320   36.7480 O   0  0  0  0  0  0  0  0  0  0  0  0
   39.1960   32.0750   35.8020 H   0  0  0  0  0  0  0  0  0  0  0  0
   38.3160   31.6840   39.2630 O   0  0  0  0  0  0  0  0  0  0  0  0
   37.5130   30.5320   41.1550 C   0  0  0  0  0  0  0  0  0  0  0  0
   38.5960   31.0010   40.4400 C   0  0  0  0  0  0  0  0  0  0  0  0
   39.8860   30.7520   40.9590 C   0  0  0  0  0  0  0  0  0  0  0  0
   39.9680   30.0700   42.1200 N   0  0  0  0  0  0  0  0  0  0  0  0
   38.9130   29.6270   42.7920 C   0  0  0  0  0  0  0  0  0  0  0  0
   37.6840   29.8600   42.3050 N   0  0  0  0  0  0  0  0  0  0  0  0
   40.6840   31.1400   40.3610 H   0  0  0  0  0  0  0  0  0  0  0  0
   39.0720   29.0870   43.7160 H   0  0  0  0  0  0  0  0  0  0  0  0
   36.1490   30.7520   40.6810 C   0  0  0  0  0  0  0  0  0  0  0  0
   35.5300   31.0150   41.5820 H   0  0  0  0  0  0  0  0  0  0  0  0
   36.0410   31.5300   39.9220 H   0  0  0  0  0  0  0  0  0  0  0  0
   35.6040   29.4530   40.1550 C   0  0  0  0  0  0  0  0  0  0  0  0
   36.2980   28.6030   40.3680 H   0  0  0  0  0  0  0  0  0  0  0  0
   34.6120   29.2110   40.5870 H   0  0  0  0  0  0  0  0  0  0  0  0
   35.5310   29.5110   39.0520 H   0  0  0  0  0  0  0  0  0  0  0  0
   39.5190   29.7490   37.5930 O   0  0  0  0  0  0  0  0  0  0  0  0
   38.9490   28.4900   37.5970 C   0  0  0  0  0  0  0  0  0  0  0  0
   38.7960   27.8510   36.3780 C   0  0  0  0  0  0  0  0  0  0  0  0
   38.2310   26.5780   36.2770 C   0  0  0  0  0  0  0  0  0  0  0  0
   37.8280   25.9650   37.4130 N   0  0  0  0  0  0  0  0  0  0  0  0
   37.9810   26.5910   38.5950 C   0  0  0  0  0  0  0  0  0  0  0  0
   38.5210   27.8030   38.6600 N   0  0  0  0  0  0  0  0  0  0  0  0
   39.1020   28.2980   35.4340 H   0  0  0  0  0  0  0  0  0  0  0  0
   38.1240   26.1080   35.3220 H   0  0  0  0  0  0  0  0  0  0  0  0
   37.5420   25.9260   39.8430 C   0  0  0  0  0  0  0  0  0  0  0  0
   37.7650   26.5620   41.0550 C   0  0  0  0  0  0  0  0  0  0  0  0
   38.2510   27.5220   41.0320 H   0  0  0  0  0  0  0  0  0  0  0  0
   37.3510   25.9370   42.2250 C   0  0  0  0  0  3  0  0  0  0  0  0
   36.7380   24.7050   42.1140 C   0  0  0  0  0  0  0  0  0  0  0  0
   36.4050   24.1930   43.0230 H   0  0  0  0  0  0  0  0  0  0  0  0
   36.4940   24.0310   40.9340 C   0  0  0  0  0  0  0  0  0  0  0  0
   36.0100   23.0720   40.9250 H   0  0  0  0  0  0  0  0  0  0  0  0
   36.9160   24.6770   39.7760 C   0  0  0  0  0  3  0  0  0  0  0  0
  2  1  2  6  0  0  0
  2  5  1  0  0  0  0
  3  2  1  0  0  0  0
  4  3  1  0  0  0  0
  5  7  1  0  0  0  0
  6 11  1  0  0  0  0
  7  8  1  0  0  0  0
  7  6  2  0  0  0  0
  8  9  2  0  0  0  0
  9 10  1  0  0  0  0
 10 13  1  0  0  0  0
 11 10  2  0  0  0  0
 12  8  1  0  0  0  0
 14  6  1  0  0  0  0
 14 15  1  0  0  0  0
 16 14  1  0  0  0  0
 17 18  1  0  0  0  0
 17 19  1  0  0  0  0
 17 14  1  0  0  0  0
 20 17  1  0  0  0  0
 21 22  1  0  0  0  0
 21  2  1  0  0  0  0
 22 27  1  0  0  0  0
 23 22  2  0  0  0  0
 24 23  1  0  0  0  0
 24 25  2  0  0  0  0
 25 26  1  0  0  0  0
 26 27  2  0  0  0  0
 26 30  1  0  0  0  0
 28 23  1  0  0  0  0
 29 24  1  0  0  0  0
 30 31  1  0  0  0  0
 31 33  2  0  0  0  0
 32 31  1  0  0  0  0
 34 33  1  0  0  0  0
 34 35  1  0  0  0  0
 36 34  2  0  0  0  0
 37 36  1  0  0  0  0
 38 30  2  0  0  0  0
 38 36  1  0  0  0  0
M  END
>  <minimizedAffinity>
-5.38240576

$$$$

 OpenBabel03252500593D

 38 40  0  0  0  0  0  0  0  0999 V2000
   36.8560   30.5840   38.9720 O   0  0  0  0  0  0  0  0  0  0  0  0
   36.8330   30.3000   40.4680 P   0  0  1  0  0  0  0  0  0  0  0  0
   35.7090   31.3580   41.1760 O   0  0  0  0  0  0  0  0  0  0  0  0
   35.9210   32.2840   40.9340 H   0  0  0  0  0  0  0  0  0  0  0  0
   36.2870   28.7160   40.7410 O   0  0  0  0  0  0  0  0  0  0  0  0
   37.1480   26.8540   41.9020 C   0  0  0  0  0  0  0  0  0  0  0  0
   37.0570   27.5600   40.7190 C   0  0  0  0  0  0  0  0  0  0  0  0
   37.7480   27.0550   39.5950 C   0  0  0  0  0  0  0  0  0  0  0  0
   38.4500   25.9140   39.7580 N   0  0  0  0  0  0  0  0  0  0  0  0
   38.5240   25.2500   40.9050 C   0  0  0  0  0  0  0  0  0  0  0  0
   37.8690   25.7250   41.9770 N   0  0  0  0  0  0  0  0  0  0  0  0
   37.6410   27.6450   38.7100 H   0  0  0  0  0  0  0  0  0  0  0  0
   39.1100   24.3420   40.9450 H   0  0  0  0  0  0  0  0  0  0  0  0
   36.4600   27.3160   43.1040 C   0  0  0  0  0  0  0  0  0  0  0  0
   35.5970   27.9500   42.7620 H   0  0  0  0  0  0  0  0  0  0  0  0
   36.0970   26.5260   43.7640 H   0  0  0  0  0  0  0  0  0  0  0  0
   37.3810   28.2280   43.8670 C   0  0  0  0  0  0  0  0  0  0  0  0
   38.3090   28.4520   43.2860 H   0  0  0  0  0  0  0  0  0  0  0  0
   36.8930   29.1890   44.1300 H   0  0  0  0  0  0  0  0  0  0  0  0
   37.7200   27.7140   44.7860 H   0  0  0  0  0  0  0  0  0  0  0  0
   38.3420   30.6080   41.1600 O   0  0  0  0  0  0  0  0  0  0  0  0
   39.1470   31.5700   40.5780 C   0  0  0  0  0  0  0  0  0  0  0  0
   38.8820   32.8950   40.8770 C   0  0  0  0  0  0  0  0  0  0  0  0
   39.6380   33.9390   40.3400 C   0  0  0  0  0  0  0  0  0  0  0  0
   40.6560   33.6280   39.5060 N   0  0  0  0  0  0  0  0  0  0  0  0
   40.9090   32.3370   39.2200 C   0  0  0  0  0  0  0  0  0  0  0  0
   40.1720   31.3650   39.7460 N   0  0  0  0  0  0  0  0  0  0  0  0
   38.0750   33.2020   41.5410 H   0  0  0  0  0  0  0  0  0  0  0  0
   39.4100   34.9540   40.5870 H   0  0  0  0  0  0  0  0  0  0  0  0
   42.0220   31.9890   38.3080 C   0  0  0  0  0  0  0  0  0  0  0  0
   43.2860   32.4960   38.5690 C   0  0  0  0  0  0  0  0  0  0  0  0
   43.4000   33.1280   39.4340 H   0  0  0  0  0  0  0  0  0  0  0  0
   44.3290   32.1680   37.7130 C   0  0  0  0  0  3  0  0  0  0  0  0
   44.0470   31.3470   36.6390 C   0  0  0  0  0  0  0  0  0  0  0  0
   44.8540   31.0760   35.9500 H   0  0  0  0  0  0  0  0  0  0  0  0
   42.8090   30.8170   36.3360 C   0  0  0  0  0  0  0  0  0  0  0  0
   42.6640   30.1840   35.4810 H   0  0  0  0  0  0  0  0  0  0  0  0
   41.7800   31.1590   37.2080 C   0  0  0  0  0  3  0  0  0  0  0  0
  2  1  2  6  0  0  0
  2  5  1  0  0  0  0
  2 21  1  0  0  0  0
  2  3  1  0  0  0  0
  4  3  1  0  0  0  0
  6 11  1  0  0  0  0
  6 14  1  0  0  0  0
  7  5  1  0  0  0  0
  7  6  2  0  0  0  0
  8  9  2  0  0  0  0
  8  7  1  0  0  0  0
  9 10  1  0  0  0  0
 10 13  1  0  0  0  0
 10 11  2  0  0  0  0
 12  8  1  0  0  0  0
 14 16  1  0  0  0  0
 14 17  1  0  0  0  0
 15 14  1  0  0  0  0
 17 19  1  0  0  0  0
 17 20  1  0  0  0  0
 18 17  1  0  0  0  0
 22 23  1  0  0  0  0
 22 21  1  0  0  0  0
 23 28  1  0  0  0  0
 24 29  1  0  0  0  0
 24 23  2  0  0  0  0
 25 24  1  0  0  0  0
 26 25  2  0  0  0  0
 26 27  1  0  0  0  0
 27 22  2  0  0  0  0
 30 31  1  0  0  0  0
 30 26  1  0  0  0  0
 31 32  1  0  0  0  0
 33 31  2  0  0  0  0
 34 33  1  0  0  0  0
 35 34  1  0  0  0  0
 36 34  2  0  0  0  0
 36 38  1  0  0  0  0
 37 36  1  0  0  0  0
 38 30  2  0  0  0  0
M  END
>  <minimizedAffinity>
-5.37755108

$$$$
