
 OpenBabel03252502083D

 48 52  0  0  0  0  0  0  0  0999 V2000
   45.6940   33.8190   45.3550 C   0  0  0  0  0  0  0  0  0  0  0  0
   44.7980   34.7550   45.7020 N   0  0  0  0  0  0  0  0  0  0  0  0
   44.4810   35.8200   44.9750 C   0  0  0  0  0  0  0  0  0  0  0  0
   45.0840   36.0210   43.7780 N   0  0  0  0  0  0  0  0  0  0  0  0
   45.9940   35.1610   43.3240 C   0  0  0  0  0  0  0  0  0  0  0  0
   46.6080   35.3660   42.1090 C   0  0  0  0  0  0  0  0  0  0  0  0
   47.5470   34.4930   41.6220 C   0  0  0  0  0  0  0  0  0  0  0  0
   47.8640   33.3840   42.4000 C   0  0  0  0  0  0  0  0  0  0  0  0
   47.2060   33.2330   43.6220 C   0  0  0  0  0  0  0  0  0  0  0  0
   46.2790   34.0780   44.1220 C   0  0  0  0  0  0  0  0  0  0  0  0
   43.7370   36.5100   45.3620 H   0  0  0  0  0  0  0  0  0  0  0  0
   46.3100   36.2490   41.5630 H   0  0  0  0  0  0  0  0  0  0  0  0
   47.9900   34.7070   40.6680 H   0  0  0  0  0  0  0  0  0  0  0  0
   47.5250   32.0350   47.9170 C   0  0  0  0  0  0  0  0  0  0  0  0
   47.0190   30.7310   47.9230 C   0  0  0  0  0  0  0  0  0  0  0  0
   46.0070   30.4560   47.0380 C   0  0  0  0  0  0  0  0  0  0  0  0
   45.5610   31.4130   46.2250 N   0  0  0  0  0  0  0  0  0  0  0  0
   46.0240   32.6450   46.1990 C   0  0  0  0  0  0  0  0  0  0  0  0
   47.0190   32.9410   47.0660 N   0  0  0  0  0  0  0  0  0  0  0  0
   45.4550   29.1950   47.0090 N   0  0  0  0  0  0  0  0  0  0  0  0
   44.2570   28.8380   46.2090 C   0  0  0  0  0  0  0  0  0  0  0  0
   44.1660   27.3370   46.2460 C   0  0  0  0  0  0  0  0  0  0  0  0
   44.8260   27.0030   47.5440 C   0  0  0  0  0  0  0  0  0  0  0  0
   45.8910   28.0320   47.7100 C   0  0  0  0  0  0  0  0  0  0  0  0
   48.3290   32.3030   48.6060 H   0  0  0  0  0  0  0  0  0  0  0  0
   44.5310   29.1050   45.1510 H   0  0  0  0  0  0  0  0  0  0  0  0
   43.3580   29.3460   46.5640 H   0  0  0  0  0  0  0  0  0  0  0  0
   44.7280   26.8620   45.4200 H   0  0  0  0  0  0  0  0  0  0  0  0
   43.1200   26.9920   46.1740 H   0  0  0  0  0  0  0  0  0  0  0  0
   45.2150   25.9610   47.5900 H   0  0  0  0  0  0  0  0  0  0  0  0
   44.0440   27.0600   48.3290 H   0  0  0  0  0  0  0  0  0  0  0  0
   46.8330   27.5900   47.3140 H   0  0  0  0  0  0  0  0  0  0  0  0
   45.9320   28.1630   48.8350 H   0  0  0  0  0  0  0  0  0  0  0  0
   47.6020   29.8250   48.7660 N   0  0  0  0  0  0  0  0  0  0  0  0
   47.4570   29.7390   49.8140 H   0  0  0  0  0  0  0  0  0  0  0  0
   48.2890   29.0530   48.5760 H   0  0  0  0  0  0  0  0  0  0  0  0
   48.8480   32.5250   41.8050 C   0  0  0  0  0  0  0  0  0  0  0  0
   48.6880   31.3530   41.0950 C   0  0  0  0  0  0  0  0  0  0  0  0
   47.6630   31.0440   40.9590 H   0  0  0  0  0  0  0  0  0  0  0  0
   49.7490   30.6320   40.5900 C   0  0  0  0  0  0  0  0  0  0  0  0
   51.0470   31.0560   40.7760 C   0  0  0  0  0  0  0  0  0  0  0  0
   51.8290   30.4440   40.3530 H   0  0  0  0  0  0  0  0  0  0  0  0
   51.2690   32.2190   41.4740 C   0  0  0  0  0  0  0  0  0  0  0  0
   52.2790   32.5700   41.6310 H   0  0  0  0  0  0  0  0  0  0  0  0
   50.1850   32.9100   41.9620 C   0  0  0  0  0  0  0  0  0  0  0  0
   47.6630   32.0470   44.2830 N   0  0  0  0  0  0  0  0  0  0  0  0
   47.4090   31.0390   44.2530 H   0  0  0  0  0  0  0  0  0  0  0  0
   48.3980   31.8370   44.9890 H   0  0  0  0  0  0  0  0  0  0  0  0
  1  2  1  0  0  0  0
  1 18  1  0  0  0  0
  3 11  1  0  0  0  0
  3  2  2  0  0  0  0
  4  3  1  0  0  0  0
  5  4  2  0  0  0  0
  5 10  1  0  0  0  0
  6  5  1  0  0  0  0
  7  6  2  0  0  0  0
  7  8  1  0  0  0  0
  8  9  2  0  0  0  0
  9 10  1  0  0  0  0
  9 46  1  0  0  0  0
 10  1  2  0  0  0  0
 12  6  1  0  0  0  0
 13  7  1  0  0  0  0
 14 15  1  0  0  0  0
 14 25  1  0  0  0  0
 15 34  1  0  0  0  0
 16 15  2  0  0  0  0
 17 16  1  0  0  0  0
 18 17  2  0  0  0  0
 18 19  1  0  0  0  0
 19 14  2  0  0  0  0
 20 16  1  0  0  0  0
 20 24  1  0  0  0  0
 21 22  1  0  0  0  0
 21 27  1  0  0  0  0
 21 20  1  0  0  0  0
 22 23  1  0  0  0  0
 23 30  1  0  0  0  0
 23 24  1  0  0  0  0
 23 31  1  0  0  0  0
 24 33  1  0  0  0  0
 26 21  1  0  0  0  0
 28 22  1  0  0  0  0
 29 22  1  0  0  0  0
 32 24  1  0  0  0  0
 34 35  1  0  0  0  0
 36 34  1  0  0  0  0
 37 45  1  0  0  0  0
 37  8  1  0  0  0  0
 38 37  2  0  0  0  0
 39 38  1  0  0  0  0
 40 41  2  0  0  0  0
 40 38  1  0  0  0  0
 41 43  1  0  0  0  0
 42 41  1  0  0  0  0
 43 44  1  0  0  0  0
 43 45  2  0  0  0  0
 46 48  1  0  0  0  0
 47 46  1  0  0  0  0
M  END
>  <minimizedAffinity>
-7.17458153

>  <minimizedRMSD>
0.321531326

$$$$
