
 OpenBabel03252507083D

 24 25  0  0  0  0  0  0  0  0999 V2000
   44.6310   35.6190   44.8250 C   0  0  0  0  0  0  0  0  0  0  0  0
   45.2130   35.7920   43.5610 C   0  0  0  0  0  0  0  0  0  0  0  0
   46.1800   34.8740   43.1510 C   0  0  0  0  0  0  0  0  0  0  0  0
   46.5120   33.8500   44.0020 N   0  0  0  0  0  0  0  0  0  0  0  0
   45.9330   33.7190   45.2000 C   0  0  0  0  0  0  0  0  0  0  0  0
   45.0020   34.5830   45.6230 N   0  0  0  0  0  0  0  0  0  0  0  0
   43.8790   36.2830   45.2140 H   0  0  0  0  0  0  0  0  0  0  0  0
   44.8660   36.6280   43.0000 H   0  0  0  0  0  0  0  0  0  0  0  0
   46.3240   32.6100   46.0670 C   0  0  0  0  0  0  0  0  0  0  0  0
   46.1050   31.3000   45.6800 C   0  0  0  0  0  0  0  0  0  0  0  0
   45.6440   31.0480   44.7320 H   0  0  0  0  0  0  0  0  0  0  0  0
   46.5030   30.3070   46.5570 C   0  0  0  0  0  3  0  0  0  0  0  0
   47.0980   30.5370   47.7820 C   0  0  0  0  0  0  0  0  0  0  0  0
   47.3930   29.7290   48.4350 H   0  0  0  0  0  0  0  0  0  0  0  0
   47.3170   31.8620   48.1700 C   0  0  0  0  0  0  0  0  0  0  0  0
   47.7810   32.0740   49.1230 H   0  0  0  0  0  0  0  0  0  0  0  0
   46.9180   32.8330   47.2920 C   0  0  0  0  0  3  0  0  0  0  0  0
   46.7410   35.0640   41.9010 O   0  0  0  0  0  0  0  0  0  0  0  0
   48.5070   33.3010   41.0320 O   0  0  0  0  0  0  0  0  0  0  0  0
   48.3890   34.6840   41.6660 P   0  0  0  0  0  0  0  0  0  0  0  0
   49.0740   35.8610   40.6890 O   0  0  0  0  0  0  0  0  0  0  0  0
   49.4580   35.4020   39.8890 H   0  0  0  0  0  0  0  0  0  0  0  0
   49.1210   34.6220   43.1900 O   0  0  0  0  0  0  0  0  0  0  0  0
   48.8450   33.7600   43.5960 H   0  0  0  0  0  0  0  0  0  0  0  0
  1  7  1  0  0  0  0
  1  6  1  0  0  0  0
  2  1  2  0  0  0  0
  3  2  1  0  0  0  0
  3  4  2  0  0  0  0
  4  5  1  0  0  0  0
  5  6  2  0  0  0  0
  5  9  1  0  0  0  0
  8  2  1  0  0  0  0
  9 17  1  0  0  0  0
 10  9  2  0  0  0  0
 10 12  1  0  0  0  0
 11 10  1  0  0  0  0
 12 13  2  0  0  0  0
 13 15  1  0  0  0  0
 13 14  1  0  0  0  0
 15 16  1  0  0  0  0
 17 15  2  0  0  0  0
 18  3  1  0  0  0  0
 19 20  2  0  0  0  0
 20 18  1  0  0  0  0
 20 23  1  0  0  0  0
 21 20  1  0  0  0  0
 22 21  1  0  0  0  0
 23 24  1  0  0  0  0
M  END
>  <minimizedAffinity>
-5.56165218

>  <minimizedRMSD>
0.502400398

$$$$
