
 OpenBabel03252507523D

 31 33  0  0  1  0  0  0  0  0999 V2000
   36.9510   29.7910   41.5830 C   0  0  2  0  0  0  0  0  0  0  0  0
   38.0950   29.8990   42.5420 C   0  0  0  0  0  0  0  0  0  0  0  0
   37.7270   28.7740   43.5070 C   0  0  0  0  0  0  0  0  0  0  0  0
   37.0960   27.7120   42.6250 C   0  0  1  0  0  0  0  0  0  0  0  0
   37.0210   28.3030   41.2320 C   0  0  0  0  0  0  0  0  0  0  0  0
   36.0010   29.9490   42.0860 H   0  0  0  0  0  0  0  0  0  0  0  0
   39.0630   29.6700   42.0830 H   0  0  0  0  0  0  0  0  0  0  0  0
   38.1070   30.8670   43.0960 H   0  0  0  0  0  0  0  0  0  0  0  0
   36.9630   29.2210   44.1890 H   0  0  0  0  0  0  0  0  0  0  0  0
   38.6370   28.4420   44.0210 H   0  0  0  0  0  0  0  0  0  0  0  0
   36.0710   27.4600   43.0030 H   0  0  0  0  0  0  0  0  0  0  0  0
   37.8940   28.0490   40.6140 H   0  0  0  0  0  0  0  0  0  0  0  0
   36.0430   28.0290   40.8060 H   0  0  0  0  0  0  0  0  0  0  0  0
   37.1410   31.0420   38.0310 C   0  0  0  0  0  0  0  0  0  0  0  0
   37.0230   30.1220   39.0810 C   0  0  0  0  0  0  0  0  0  0  0  0
   37.0680   30.6510   40.3850 C   0  0  0  0  0  0  0  0  0  0  0  0
   37.2220   32.0080   40.5740 N   0  0  0  0  0  0  0  0  0  0  0  0
   37.3300   32.8350   39.5130 C   0  0  0  0  0  0  0  0  0  0  0  0
   37.2900   32.3590   38.2500 N   0  0  0  0  0  0  0  0  0  0  0  0
   37.0930   30.5330   37.0790 H   0  0  0  0  0  0  0  0  0  0  0  0
   36.9020   29.0700   39.0060 H   0  0  0  0  0  0  0  0  0  0  0  0
   37.4520   33.9050   39.6100 H   0  0  0  0  0  0  0  0  0  0  0  0
   37.9230   26.5060   42.7260 C   0  0  0  0  0  0  0  0  0  0  0  0
   37.5440   25.3060   42.1680 C   0  0  0  0  0  0  0  0  0  0  0  0
   36.6220   25.2030   41.6310 H   0  0  0  0  0  0  0  0  0  0  0  0
   38.3430   24.1650   42.2730 C   0  0  0  0  0  3  0  0  0  0  0  0
   39.5570   24.2020   42.9510 C   0  0  0  0  0  0  0  0  0  0  0  0
   40.2270   23.3740   43.0770 H   0  0  0  0  0  0  0  0  0  0  0  0
   39.9530   25.3960   43.5160 C   0  0  0  0  0  0  0  0  0  0  0  0
   40.8970   25.4790   44.0590 H   0  0  0  0  0  0  0  0  0  0  0  0
   39.1490   26.5070   43.4000 C   0  0  0  0  0  3  0  0  0  0  0  0
  1  6  1  1  0  0  0
  1  2  1  0  0  0  0
  2  8  1  0  0  0  0
  2  3  1  0  0  0  0
  3 10  1  0  0  0  0
  3  9  1  0  0  0  0
  4 23  1  0  0  0  0
  4 11  1  1  0  0  0
  4  3  1  0  0  0  0
  5  1  1  0  0  0  0
  5  4  1  0  0  0  0
  7  2  1  0  0  0  0
 12  5  1  0  0  0  0
 13  5  1  0  0  0  0
 14 19  2  0  0  0  0
 14 15  1  0  0  0  0
 15 16  2  0  0  0  0
 16 17  1  0  0  0  0
 16  1  1  0  0  0  0
 18 22  1  0  0  0  0
 18 17  2  0  0  0  0
 19 18  1  0  0  0  0
 20 14  1  0  0  0  0
 21 15  1  0  0  0  0
 23 31  1  0  0  0  0
 24 26  1  0  0  0  0
 24 23  2  0  0  0  0
 25 24  1  0  0  0  0
 26 27  2  0  0  0  0
 27 28  1  0  0  0  0
 27 29  1  0  0  0  0
 29 30  1  0  0  0  0
 31 29  2  0  0  0  0
M  END
>  <minimizedAffinity>
-5.55944443

$$$$

 OpenBabel03252507523D

 31 33  0  0  1  0  0  0  0  0999 V2000
   37.3330   29.5420   42.2630 C   0  0  2  0  0  0  0  0  0  0  0  0
   38.4520   29.0360   43.1180 C   0  0  0  0  0  0  0  0  0  0  0  0
   37.8160   27.7490   43.6380 C   0  0  0  0  0  0  0  0  0  0  0  0
   36.9730   27.2490   42.4780 C   0  0  1  0  0  0  0  0  0  0  0  0
   37.0630   28.3090   41.3990 C   0  0  0  0  0  0  0  0  0  0  0  0
   36.4350   29.7120   42.8520 H   0  0  0  0  0  0  0  0  0  0  0  0
   39.3490   28.7810   42.5430 H   0  0  0  0  0  0  0  0  0  0  0  0
   38.6770   29.7070   43.9800 H   0  0  0  0  0  0  0  0  0  0  0  0
   37.1630   28.0740   44.4850 H   0  0  0  0  0  0  0  0  0  0  0  0
   38.6150   27.0590   43.9360 H   0  0  0  0  0  0  0  0  0  0  0  0
   35.9100   27.1120   42.8090 H   0  0  0  0  0  0  0  0  0  0  0  0
   37.8650   28.1100   40.6730 H   0  0  0  0  0  0  0  0  0  0  0  0
   36.0570   28.4330   40.9690 H   0  0  0  0  0  0  0  0  0  0  0  0
   37.1760   32.4440   39.8620 C   0  0  0  0  0  0  0  0  0  0  0  0
   36.7360   31.3210   40.5740 C   0  0  0  0  0  0  0  0  0  0  0  0
   37.6680   30.7300   41.4480 C   0  0  0  0  0  0  0  0  0  0  0  0
   38.9350   31.2600   41.5660 N   0  0  0  0  0  0  0  0  0  0  0  0
   39.2880   32.3450   40.8460 C   0  0  0  0  0  0  0  0  0  0  0  0
   38.4170   32.9350   40.0000 N   0  0  0  0  0  0  0  0  0  0  0  0
   36.3860   32.8170   39.2240 H   0  0  0  0  0  0  0  0  0  0  0  0
   35.7790   30.8640   40.5310 H   0  0  0  0  0  0  0  0  0  0  0  0
   40.2700   32.7970   40.9040 H   0  0  0  0  0  0  0  0  0  0  0  0
   37.4970   25.9380   42.0850 C   0  0  0  0  0  0  0  0  0  0  0  0
   38.7020   25.4600   42.5450 C   0  0  0  0  0  0  0  0  0  0  0  0
   39.3130   26.0320   43.2160 H   0  0  0  0  0  0  0  0  0  0  0  0
   39.1880   24.2080   42.1610 C   0  0  0  0  0  3  0  0  0  0  0  0
   38.4650   23.3960   41.2940 C   0  0  0  0  0  0  0  0  0  0  0  0
   38.7660   22.4250   40.9520 H   0  0  0  0  0  0  0  0  0  0  0  0
   37.2550   23.8580   40.8230 C   0  0  0  0  0  0  0  0  0  0  0  0
   36.6480   23.2600   40.1400 H   0  0  0  0  0  0  0  0  0  0  0  0
   36.7970   25.0950   41.2150 C   0  0  0  0  0  3  0  0  0  0  0  0
  1  6  1  1  0  0  0
  1  2  1  0  0  0  0
  2  3  1  0  0  0  0
  2  8  1  0  0  0  0
  3 10  1  0  0  0  0
  3  9  1  0  0  0  0
  4 11  1  1  0  0  0
  4  3  1  0  0  0  0
  5  1  1  0  0  0  0
  5  4  1  0  0  0  0
  7  2  1  0  0  0  0
 12  5  1  0  0  0  0
 13  5  1  0  0  0  0
 14 19  2  0  0  0  0
 14 15  1  0  0  0  0
 15 16  2  0  0  0  0
 16 17  1  0  0  0  0
 16  1  1  0  0  0  0
 18 22  1  0  0  0  0
 18 17  2  0  0  0  0
 19 18  1  0  0  0  0
 20 14  1  0  0  0  0
 21 15  1  0  0  0  0
 23  4  1  0  0  0  0
 23 24  1  0  0  0  0
 24 25  1  0  0  0  0
 26 24  2  0  0  0  0
 27 26  1  0  0  0  0
 28 27  1  0  0  0  0
 29 31  1  0  0  0  0
 29 27  2  0  0  0  0
 30 29  1  0  0  0  0
 31 23  2  0  0  0  0
M  END
>  <minimizedAffinity>
-5.38811445

$$$$

 OpenBabel03252507523D

 31 33  0  0  1  0  0  0  0  0999 V2000
   38.9620   30.2840   42.2670 C   0  0  2  0  0  0  0  0  0  0  0  0
   40.1660   29.5210   41.8100 C   0  0  0  0  0  0  0  0  0  0  0  0
   40.2080   28.4410   42.8880 C   0  0  0  0  0  0  0  0  0  0  0  0
   38.7480   28.1580   43.1970 C   0  0  1  0  0  0  0  0  0  0  0  0
   37.9420   29.1510   42.3850 C   0  0  0  0  0  0  0  0  0  0  0  0
   39.1070   30.6810   43.2690 H   0  0  0  0  0  0  0  0  0  0  0  0
   40.0260   29.0430   40.8340 H   0  0  0  0  0  0  0  0  0  0  0  0
   41.1040   30.1220   41.8570 H   0  0  0  0  0  0  0  0  0  0  0  0
   40.7060   28.9270   43.7620 H   0  0  0  0  0  0  0  0  0  0  0  0
   40.7550   27.5740   42.4940 H   0  0  0  0  0  0  0  0  0  0  0  0
   38.5560   28.2960   44.2930 H   0  0  0  0  0  0  0  0  0  0  0  0
   37.6310   28.7510   41.4090 H   0  0  0  0  0  0  0  0  0  0  0  0
   37.1270   29.5210   43.0260 H   0  0  0  0  0  0  0  0  0  0  0  0
   37.0290   32.2810   39.7200 C   0  0  0  0  0  0  0  0  0  0  0  0
   37.3470   31.2060   40.5590 C   0  0  0  0  0  0  0  0  0  0  0  0
   38.5140   31.3420   41.3350 C   0  0  0  0  0  0  0  0  0  0  0  0
   39.2740   32.4890   41.2430 N   0  0  0  0  0  0  0  0  0  0  0  0
   38.9040   33.4840   40.4100 C   0  0  0  0  0  0  0  0  0  0  0  0
   37.7910   33.3850   39.6530 N   0  0  0  0  0  0  0  0  0  0  0  0
   36.1190   32.0740   39.1730 H   0  0  0  0  0  0  0  0  0  0  0  0
   36.8080   30.3000   40.6790 H   0  0  0  0  0  0  0  0  0  0  0  0
   39.4670   34.4020   40.3020 H   0  0  0  0  0  0  0  0  0  0  0  0
   38.4900   26.7540   42.8660 C   0  0  0  0  0  0  0  0  0  0  0  0
   39.4550   25.7810   42.9930 C   0  0  0  0  0  0  0  0  0  0  0  0
   40.4420   26.0100   43.3420 H   0  0  0  0  0  0  0  0  0  0  0  0
   39.1940   24.4460   42.6740 C   0  0  0  0  0  3  0  0  0  0  0  0
   37.9420   24.0520   42.2130 C   0  0  0  0  0  0  0  0  0  0  0  0
   37.6610   23.0520   41.9470 H   0  0  0  0  0  0  0  0  0  0  0  0
   36.9630   25.0140   42.0800 C   0  0  0  0  0  0  0  0  0  0  0  0
   35.9640   24.7590   41.7220 H   0  0  0  0  0  0  0  0  0  0  0  0
   37.2440   26.3230   42.4000 C   0  0  0  0  0  3  0  0  0  0  0  0
  1  5  1  0  0  0  0
  1  6  1  1  0  0  0
  2  8  1  0  0  0  0
  2  1  1  0  0  0  0
  2  3  1  0  0  0  0
  3  4  1  0  0  0  0
  3  9  1  0  0  0  0
  4 11  1  1  0  0  0
  5 13  1  0  0  0  0
  5  4  1  0  0  0  0
  7  2  1  0  0  0  0
 10  3  1  0  0  0  0
 12  5  1  0  0  0  0
 14 15  1  0  0  0  0
 15 21  1  0  0  0  0
 15 16  2  0  0  0  0
 16  1  1  0  0  0  0
 17 16  1  0  0  0  0
 18 17  2  0  0  0  0
 19 14  2  0  0  0  0
 19 18  1  0  0  0  0
 20 14  1  0  0  0  0
 22 18  1  0  0  0  0
 23 24  1  0  0  0  0
 23  4  1  0  0  0  0
 24 25  1  0  0  0  0
 26 24  2  0  0  0  0
 27 26  1  0  0  0  0
 28 27  1  0  0  0  0
 29 27  2  0  0  0  0
 29 31  1  0  0  0  0
 30 29  1  0  0  0  0
 31 23  2  0  0  0  0
M  END
>  <minimizedAffinity>
-5.34348917

$$$$

 OpenBabel03252507523D

 31 33  0  0  1  0  0  0  0  0999 V2000
   36.8830   30.6510   39.6640 C   0  0  2  0  0  0  0  0  0  0  0  0
   35.8230   30.4110   40.6930 C   0  0  0  0  0  0  0  0  0  0  0  0
   35.2900   29.0670   40.2040 C   0  0  0  0  0  0  0  0  0  0  0  0
   36.5140   28.3490   39.6640 C   0  0  1  0  0  0  0  0  0  0  0  0
   37.6600   29.3360   39.7540 C   0  0  0  0  0  0  0  0  0  0  0  0
   36.4560   30.6930   38.6650 H   0  0  0  0  0  0  0  0  0  0  0  0
   36.2270   30.2870   41.7030 H   0  0  0  0  0  0  0  0  0  0  0  0
   35.0030   31.1660   40.6540 H   0  0  0  0  0  0  0  0  0  0  0  0
   34.5870   29.3220   39.3730 H   0  0  0  0  0  0  0  0  0  0  0  0
   34.8100   28.5540   41.0460 H   0  0  0  0  0  0  0  0  0  0  0  0
   36.3390   28.0430   38.5990 H   0  0  0  0  0  0  0  0  0  0  0  0
   38.2330   29.2400   40.6880 H   0  0  0  0  0  0  0  0  0  0  0  0
   38.2490   29.2490   38.8270 H   0  0  0  0  0  0  0  0  0  0  0  0
   38.2310   34.1610   39.9300 C   0  0  0  0  0  0  0  0  0  0  0  0
   37.3250   33.1360   39.6300 C   0  0  0  0  0  0  0  0  0  0  0  0
   37.7430   31.8250   39.9260 C   0  0  0  0  0  0  0  0  0  0  0  0
   38.9860   31.6060   40.4800 N   0  0  0  0  0  0  0  0  0  0  0  0
   39.8070   32.6450   40.7420 C   0  0  0  0  0  0  0  0  0  0  0  0
   39.4350   33.9140   40.4700 N   0  0  0  0  0  0  0  0  0  0  0  0
   37.8120   35.1220   39.6640 H   0  0  0  0  0  0  0  0  0  0  0  0
   36.3570   33.2340   39.2050 H   0  0  0  0  0  0  0  0  0  0  0  0
   40.7910   32.5240   41.1760 H   0  0  0  0  0  0  0  0  0  0  0  0
   36.6990   27.1320   40.4590 C   0  0  0  0  0  0  0  0  0  0  0  0
   36.9570   27.1690   41.8100 C   0  0  0  0  0  0  0  0  0  0  0  0
   37.0340   28.0970   42.3420 H   0  0  0  0  0  0  0  0  0  0  0  0
   37.1310   26.0000   42.5550 C   0  0  0  0  0  3  0  0  0  0  0  0
   37.0500   24.7500   41.9510 C   0  0  0  0  0  0  0  0  0  0  0  0
   37.1700   23.8080   42.4500 H   0  0  0  0  0  0  0  0  0  0  0  0
   36.7920   24.6930   40.5980 C   0  0  0  0  0  0  0  0  0  0  0  0
   36.7180   23.7370   40.0760 H   0  0  0  0  0  0  0  0  0  0  0  0
   36.6240   25.8590   39.8850 C   0  0  0  0  0  3  0  0  0  0  0  0
  1  6  1  6  0  0  0
  1  5  1  0  0  0  0
  1 16  1  0  0  0  0
  1  2  1  0  0  0  0
  2  7  1  0  0  0  0
  3  2  1  0  0  0  0
  3 10  1  0  0  0  0
  4 11  1  6  0  0  0
  4  5  1  0  0  0  0
  4  3  1  0  0  0  0
  4 23  1  0  0  0  0
  5 12  1  0  0  0  0
  8  2  1  0  0  0  0
  9  3  1  0  0  0  0
 13  5  1  0  0  0  0
 14 19  1  0  0  0  0
 15 16  1  0  0  0  0
 15 14  2  0  0  0  0
 16 17  2  0  0  0  0
 17 18  1  0  0  0  0
 18 22  1  0  0  0  0
 19 18  2  0  0  0  0
 20 14  1  0  0  0  0
 21 15  1  0  0  0  0
 23 24  1  0  0  0  0
 24 25  1  0  0  0  0
 24 26  2  0  0  0  0
 27 28  1  0  0  0  0
 27 26  1  0  0  0  0
 29 27  2  0  0  0  0
 30 29  1  0  0  0  0
 31 23  2  0  0  0  0
 31 29  1  0  0  0  0
M  END
>  <minimizedAffinity>
-5.32907104

$$$$

 OpenBabel03252507523D

 31 33  0  0  1  0  0  0  0  0999 V2000
   37.2400   27.7710   42.2660 C   0  0  2  0  0  0  0  0  0  0  0  0
   36.8130   27.8410   40.8330 C   0  0  0  0  0  0  0  0  0  0  0  0
   36.1340   29.2070   40.8350 C   0  0  0  0  0  0  0  0  0  0  0  0
   36.9560   30.0370   41.8050 C   0  0  1  0  0  0  0  0  0  0  0  0
   37.9860   29.0990   42.4000 C   0  0  0  0  0  0  0  0  0  0  0  0
   36.3830   27.8250   42.9330 H   0  0  0  0  0  0  0  0  0  0  0  0
   37.6580   27.8650   40.1360 H   0  0  0  0  0  0  0  0  0  0  0  0
   36.0640   27.0590   40.5650 H   0  0  0  0  0  0  0  0  0  0  0  0
   35.1130   29.0190   41.2480 H   0  0  0  0  0  0  0  0  0  0  0  0
   36.1290   29.5970   39.8090 H   0  0  0  0  0  0  0  0  0  0  0  0
   36.2930   30.4570   42.6060 H   0  0  0  0  0  0  0  0  0  0  0  0
   38.9400   29.1120   41.8540 H   0  0  0  0  0  0  0  0  0  0  0  0
   38.0540   29.3200   43.4770 H   0  0  0  0  0  0  0  0  0  0  0  0
   39.9510   25.5650   43.6800 C   0  0  0  0  0  0  0  0  0  0  0  0
   39.2210   26.7360   43.4400 C   0  0  0  0  0  0  0  0  0  0  0  0
   38.1000   26.6140   42.5980 C   0  0  0  0  0  0  0  0  0  0  0  0
   37.7730   25.3880   42.0580 N   0  0  0  0  0  0  0  0  0  0  0  0
   38.5250   24.3020   42.3330 C   0  0  0  0  0  0  0  0  0  0  0  0
   39.6060   24.3860   43.1380 N   0  0  0  0  0  0  0  0  0  0  0  0
   40.7860   25.7700   44.3350 H   0  0  0  0  0  0  0  0  0  0  0  0
   39.4160   27.7070   43.8230 H   0  0  0  0  0  0  0  0  0  0  0  0
   38.3100   23.3190   41.9340 H   0  0  0  0  0  0  0  0  0  0  0  0
   37.5230   31.1610   41.0540 C   0  0  0  0  0  0  0  0  0  0  0  0
   36.8020   31.8470   40.1030 C   0  0  0  0  0  0  0  0  0  0  0  0
   35.7890   31.5850   39.8690 H   0  0  0  0  0  0  0  0  0  0  0  0
   37.3560   32.9160   39.3950 C   0  0  0  0  0  3  0  0  0  0  0  0
   38.6640   33.3280   39.6290 C   0  0  0  0  0  0  0  0  0  0  0  0
   39.1620   34.1360   39.1310 H   0  0  0  0  0  0  0  0  0  0  0  0
   39.4010   32.6530   40.5790 C   0  0  0  0  0  0  0  0  0  0  0  0
   40.4320   32.9350   40.8010 H   0  0  0  0  0  0  0  0  0  0  0  0
   38.8340   31.6020   41.2630 C   0  0  0  0  0  3  0  0  0  0  0  0
  1  5  1  0  0  0  0
  1 16  1  0  0  0  0
  1  6  1  1  0  0  0
  2  3  1  0  0  0  0
  2  1  1  0  0  0  0
  3  9  1  0  0  0  0
  3  4  1  0  0  0  0
  4  5  1  0  0  0  0
  4 11  1  1  0  0  0
  5 13  1  0  0  0  0
  7  2  1  0  0  0  0
  8  2  1  0  0  0  0
 10  3  1  0  0  0  0
 12  5  1  0  0  0  0
 14 20  1  0  0  0  0
 15 14  1  0  0  0  0
 15 21  1  0  0  0  0
 16 15  2  0  0  0  0
 17 18  2  0  0  0  0
 17 16  1  0  0  0  0
 18 19  1  0  0  0  0
 19 14  2  0  0  0  0
 22 18  1  0  0  0  0
 23 31  1  0  0  0  0
 23  4  1  0  0  0  0
 24 23  2  0  0  0  0
 25 24  1  0  0  0  0
 26 27  2  0  0  0  0
 26 24  1  0  0  0  0
 27 29  1  0  0  0  0
 28 27  1  0  0  0  0
 29 30  1  0  0  0  0
 29 31  2  0  0  0  0
M  END
>  <minimizedAffinity>
-5.26497602

$$$$

 OpenBabel03252507523D

 31 33  0  0  1  0  0  0  0  0999 V2000
   36.9440   27.6910   42.0600 C   0  0  2  0  0  0  0  0  0  0  0  0
   36.5290   27.8420   40.6290 C   0  0  0  0  0  0  0  0  0  0  0  0
   35.9290   29.2440   40.6830 C   0  0  0  0  0  0  0  0  0  0  0  0
   36.7930   29.9860   41.6870 C   0  0  1  0  0  0  0  0  0  0  0  0
   37.7640   28.9680   42.2480 C   0  0  0  0  0  0  0  0  0  0  0  0
   36.0880   27.7680   42.7260 H   0  0  0  0  0  0  0  0  0  0  0  0
   37.3770   27.8440   39.9360 H   0  0  0  0  0  0  0  0  0  0  0  0
   35.7380   27.1160   40.3290 H   0  0  0  0  0  0  0  0  0  0  0  0
   34.8970   29.0990   41.0860 H   0  0  0  0  0  0  0  0  0  0  0  0
   35.9520   29.6730   39.6730 H   0  0  0  0  0  0  0  0  0  0  0  0
   36.1510   30.4120   42.5030 H   0  0  0  0  0  0  0  0  0  0  0  0
   38.7200   28.9470   41.7050 H   0  0  0  0  0  0  0  0  0  0  0  0
   37.8400   29.1420   43.3320 H   0  0  0  0  0  0  0  0  0  0  0  0
   38.1570   24.1270   42.2600 C   0  0  0  0  0  0  0  0  0  0  0  0
   37.3170   25.1980   41.9280 C   0  0  0  0  0  0  0  0  0  0  0  0
   37.7340   26.4750   42.3480 C   0  0  0  0  0  0  0  0  0  0  0  0
   38.9130   26.6190   43.0470 N   0  0  0  0  0  0  0  0  0  0  0  0
   39.6720   25.5400   43.3320 C   0  0  0  0  0  0  0  0  0  0  0  0
   39.2990   24.3020   42.9430 N   0  0  0  0  0  0  0  0  0  0  0  0
   37.7440   23.1980   41.8910 H   0  0  0  0  0  0  0  0  0  0  0  0
   36.4000   25.1570   41.3930 H   0  0  0  0  0  0  0  0  0  0  0  0
   40.6040   25.6020   43.8780 H   0  0  0  0  0  0  0  0  0  0  0  0
   37.4270   31.1040   40.9820 C   0  0  0  0  0  0  0  0  0  0  0  0
   36.7620   31.8460   40.0320 C   0  0  0  0  0  0  0  0  0  0  0  0
   35.7450   31.6350   39.7660 H   0  0  0  0  0  0  0  0  0  0  0  0
   37.3800   32.9080   39.3690 C   0  0  0  0  0  3  0  0  0  0  0  0
   38.6980   33.2560   39.6480 C   0  0  0  0  0  0  0  0  0  0  0  0
   39.2430   34.0560   39.1850 H   0  0  0  0  0  0  0  0  0  0  0  0
   39.3800   32.5250   40.5970 C   0  0  0  0  0  0  0  0  0  0  0  0
   40.4150   32.7560   40.8540 H   0  0  0  0  0  0  0  0  0  0  0  0
   38.7500   31.4820   41.2370 C   0  0  0  0  0  3  0  0  0  0  0  0
  1  5  1  0  0  0  0
  1 16  1  0  0  0  0
  1  6  1  1  0  0  0
  2  3  1  0  0  0  0
  2  1  1  0  0  0  0
  3  9  1  0  0  0  0
  3  4  1  0  0  0  0
  4  5  1  0  0  0  0
  4 11  1  1  0  0  0
  5 13  1  0  0  0  0
  7  2  1  0  0  0  0
  8  2  1  0  0  0  0
 10  3  1  0  0  0  0
 12  5  1  0  0  0  0
 14 19  1  0  0  0  0
 15 14  2  0  0  0  0
 15 16  1  0  0  0  0
 16 17  2  0  0  0  0
 17 18  1  0  0  0  0
 18 22  1  0  0  0  0
 19 18  2  0  0  0  0
 20 14  1  0  0  0  0
 21 15  1  0  0  0  0
 23 31  1  0  0  0  0
 23  4  1  0  0  0  0
 24 23  2  0  0  0  0
 25 24  1  0  0  0  0
 26 27  2  0  0  0  0
 26 24  1  0  0  0  0
 27 29  1  0  0  0  0
 28 27  1  0  0  0  0
 29 30  1  0  0  0  0
 29 31  2  0  0  0  0
M  END
>  <minimizedAffinity>
-5.21965027

$$$$

 OpenBabel03252507523D

 31 33  0  0  1  0  0  0  0  0999 V2000
   35.4660   29.5720   38.3130 C   0  0  2  0  0  0  0  0  0  0  0  0
   36.5010   30.5330   38.8090 C   0  0  0  0  0  0  0  0  0  0  0  0
   36.1450   30.5500   40.2930 C   0  0  0  0  0  0  0  0  0  0  0  0
   35.6940   29.1310   40.5900 C   0  0  1  0  0  0  0  0  0  0  0  0
   35.6970   28.3970   39.2650 C   0  0  0  0  0  0  0  0  0  0  0  0
   34.4620   29.9410   38.5110 H   0  0  0  0  0  0  0  0  0  0  0  0
   37.5240   30.1570   38.6940 H   0  0  0  0  0  0  0  0  0  0  0  0
   36.3760   31.5590   38.3910 H   0  0  0  0  0  0  0  0  0  0  0  0
   35.2840   31.2590   40.3730 H   0  0  0  0  0  0  0  0  0  0  0  0
   37.0290   30.8640   40.8620 H   0  0  0  0  0  0  0  0  0  0  0  0
   34.6640   29.1410   41.0330 H   0  0  0  0  0  0  0  0  0  0  0  0
   36.6430   27.8700   39.0720 H   0  0  0  0  0  0  0  0  0  0  0  0
   34.7920   27.7720   39.2270 H   0  0  0  0  0  0  0  0  0  0  0  0
   36.8850   28.7460   34.9200 C   0  0  0  0  0  0  0  0  0  0  0  0
   36.8750   29.1380   36.2640 C   0  0  0  0  0  0  0  0  0  0  0  0
   35.6180   29.1790   36.8960 C   0  0  0  0  0  0  0  0  0  0  0  0
   34.4820   28.8420   36.1910 N   0  0  0  0  0  0  0  0  0  0  0  0
   34.5690   28.4730   34.8960 C   0  0  0  0  0  0  0  0  0  0  0  0
   35.7600   28.4240   34.2620 N   0  0  0  0  0  0  0  0  0  0  0  0
   37.8960   28.7490   34.5350 H   0  0  0  0  0  0  0  0  0  0  0  0
   37.7090   29.4090   36.8630 H   0  0  0  0  0  0  0  0  0  0  0  0
   33.7070   28.2000   34.3010 H   0  0  0  0  0  0  0  0  0  0  0  0
   36.6100   28.5770   41.5910 C   0  0  0  0  0  0  0  0  0  0  0  0
   37.3680   29.3770   42.4150 C   0  0  0  0  0  0  0  0  0  0  0  0
   37.3200   30.4470   42.3590 H   0  0  0  0  0  0  0  0  0  0  0  0
   38.2380   28.8350   43.3650 C   0  0  0  0  0  3  0  0  0  0  0  0
   38.3670   27.4580   43.5110 C   0  0  0  0  0  0  0  0  0  0  0  0
   39.0090   26.9630   44.2130 H   0  0  0  0  0  0  0  0  0  0  0  0
   37.6150   26.6400   42.6940 C   0  0  0  0  0  0  0  0  0  0  0  0
   37.6790   25.5530   42.7680 H   0  0  0  0  0  0  0  0  0  0  0  0
   36.7660   27.1980   41.7650 C   0  0  0  0  0  3  0  0  0  0  0  0
  1  6  1  1  0  0  0
  1  2  1  0  0  0  0
  1  5  1  0  0  0  0
  2  3  1  0  0  0  0
  3  9  1  0  0  0  0
  3  4  1  0  0  0  0
  3 10  1  0  0  0  0
  4 11  1  1  0  0  0
  4 23  1  0  0  0  0
  5  4  1  0  0  0  0
  7  2  1  0  0  0  0
  8  2  1  0  0  0  0
 12  5  1  0  0  0  0
 13  5  1  0  0  0  0
 14 15  1  0  0  0  0
 15 21  1  0  0  0  0
 15 16  2  0  0  0  0
 16  1  1  0  0  0  0
 17 16  1  0  0  0  0
 18 17  2  0  0  0  0
 19 18  1  0  0  0  0
 19 14  2  0  0  0  0
 20 14  1  0  0  0  0
 22 18  1  0  0  0  0
 23 31  2  0  0  0  0
 23 24  1  0  0  0  0
 24 26  2  0  0  0  0
 25 24  1  0  0  0  0
 26 27  1  0  0  0  0
 27 28  1  0  0  0  0
 29 30  1  0  0  0  0
 29 27  2  0  0  0  0
 31 29  1  0  0  0  0
M  END
>  <minimizedAffinity>
-5.06883717

$$$$

 OpenBabel03252507523D

 31 33  0  0  1  0  0  0  0  0999 V2000
   38.0940   30.1280   42.1250 C   0  0  2  0  0  0  0  0  0  0  0  0
   38.5450   29.1720   43.1850 C   0  0  0  0  0  0  0  0  0  0  0  0
   37.3110   28.2780   43.2660 C   0  0  0  0  0  0  0  0  0  0  0  0
   36.7980   28.2130   41.8380 C   0  0  1  0  0  0  0  0  0  0  0  0
   37.6720   29.1490   41.0280 C   0  0  0  0  0  0  0  0  0  0  0  0
   37.1970   30.6590   42.4320 H   0  0  0  0  0  0  0  0  0  0  0  0
   39.4040   28.5660   42.8780 H   0  0  0  0  0  0  0  0  0  0  0  0
   38.7050   29.6650   44.1730 H   0  0  0  0  0  0  0  0  0  0  0  0
   36.5930   28.8380   43.9140 H   0  0  0  0  0  0  0  0  0  0  0  0
   37.6100   27.3050   43.6760 H   0  0  0  0  0  0  0  0  0  0  0  0
   35.7260   28.5420   41.8010 H   0  0  0  0  0  0  0  0  0  0  0  0
   38.5250   28.6360   40.5600 H   0  0  0  0  0  0  0  0  0  0  0  0
   37.0170   29.7030   40.3390 H   0  0  0  0  0  0  0  0  0  0  0  0
   41.3880   31.8290   41.4380 C   0  0  0  0  0  0  0  0  0  0  0  0
   40.5010   30.8680   41.9390 C   0  0  0  0  0  0  0  0  0  0  0  0
   39.1360   31.0690   41.6590 C   0  0  0  0  0  0  0  0  0  0  0  0
   38.7370   32.1680   40.9280 N   0  0  0  0  0  0  0  0  0  0  0  0
   39.6490   33.0540   40.4780 C   0  0  0  0  0  0  0  0  0  0  0  0
   40.9660   32.8890   40.7290 N   0  0  0  0  0  0  0  0  0  0  0  0
   42.4040   31.5790   41.7090 H   0  0  0  0  0  0  0  0  0  0  0  0
   40.7400   30.0030   42.5050 H   0  0  0  0  0  0  0  0  0  0  0  0
   39.3860   33.9300   39.9010 H   0  0  0  0  0  0  0  0  0  0  0  0
   36.8550   26.8110   41.4120 C   0  0  0  0  0  0  0  0  0  0  0  0
   36.7540   26.4410   40.0910 C   0  0  0  0  0  0  0  0  0  0  0  0
   36.6300   27.1670   39.3120 H   0  0  0  0  0  0  0  0  0  0  0  0
   36.8090   25.1010   39.7000 C   0  0  0  0  0  3  0  0  0  0  0  0
   36.9690   24.0880   40.6400 C   0  0  0  0  0  0  0  0  0  0  0  0
   37.0210   23.0390   40.4240 H   0  0  0  0  0  0  0  0  0  0  0  0
   37.0720   24.4400   41.9690 C   0  0  0  0  0  0  0  0  0  0  0  0
   37.1990   23.6850   42.7470 H   0  0  0  0  0  0  0  0  0  0  0  0
   37.0150   25.7680   42.3300 C   0  0  0  0  0  3  0  0  0  0  0  0
  1  6  1  1  0  0  0
  1  2  1  0  0  0  0
  2  3  1  0  0  0  0
  2  8  1  0  0  0  0
  3 10  1  0  0  0  0
  3  9  1  0  0  0  0
  4 11  1  6  0  0  0
  4  3  1  0  0  0  0
  5  4  1  0  0  0  0
  5  1  1  0  0  0  0
  7  2  1  0  0  0  0
 12  5  1  0  0  0  0
 13  5  1  0  0  0  0
 14 20  1  0  0  0  0
 14 15  1  0  0  0  0
 15 21  1  0  0  0  0
 16 15  2  0  0  0  0
 16  1  1  0  0  0  0
 17 16  1  0  0  0  0
 18 19  1  0  0  0  0
 18 17  2  0  0  0  0
 19 14  2  0  0  0  0
 22 18  1  0  0  0  0
 23  4  1  0  0  0  0
 23 31  1  0  0  0  0
 24 23  2  0  0  0  0
 25 24  1  0  0  0  0
 26 24  1  0  0  0  0
 26 27  2  0  0  0  0
 27 29  1  0  0  0  0
 28 27  1  0  0  0  0
 29 31  2  0  0  0  0
 29 30  1  0  0  0  0
M  END
>  <minimizedAffinity>
-5.00165367

$$$$

 OpenBabel03252507523D

 31 33  0  0  1  0  0  0  0  0999 V2000
   35.4960   29.5700   38.1710 C   0  0  2  0  0  0  0  0  0  0  0  0
   36.6520   30.4330   38.5700 C   0  0  0  0  0  0  0  0  0  0  0  0
   36.3300   30.6260   40.0490 C   0  0  0  0  0  0  0  0  0  0  0  0
   35.7130   29.3060   40.4770 C   0  0  1  0  0  0  0  0  0  0  0  0
   35.5990   28.4640   39.2230 C   0  0  0  0  0  0  0  0  0  0  0  0
   34.5510   30.0780   38.3440 H   0  0  0  0  0  0  0  0  0  0  0  0
   37.6180   29.9230   38.4800 H   0  0  0  0  0  0  0  0  0  0  0  0
   36.6480   31.4260   38.0610 H   0  0  0  0  0  0  0  0  0  0  0  0
   35.5660   31.4420   40.0720 H   0  0  0  0  0  0  0  0  0  0  0  0
   37.2570   30.8760   40.5800 H   0  0  0  0  0  0  0  0  0  0  0  0
   34.7010   29.4850   40.9260 H   0  0  0  0  0  0  0  0  0  0  0  0
   36.4680   27.8070   39.0710 H   0  0  0  0  0  0  0  0  0  0  0  0
   34.6220   27.9570   39.2500 H   0  0  0  0  0  0  0  0  0  0  0  0
   35.0180   27.4820   35.0690 C   0  0  0  0  0  0  0  0  0  0  0  0
   34.8670   27.8820   36.4030 C   0  0  0  0  0  0  0  0  0  0  0  0
   35.5710   29.0360   36.7940 C   0  0  0  0  0  0  0  0  0  0  0  0
   36.3560   29.7080   35.8810 N   0  0  0  0  0  0  0  0  0  0  0  0
   36.4540   29.2630   34.6110 C   0  0  0  0  0  0  0  0  0  0  0  0
   35.7910   28.1590   34.2050 N   0  0  0  0  0  0  0  0  0  0  0  0
   34.4370   26.5910   34.8760 H   0  0  0  0  0  0  0  0  0  0  0  0
   34.2800   27.4140   37.1540 H   0  0  0  0  0  0  0  0  0  0  0  0
   37.0570   29.7540   33.8580 H   0  0  0  0  0  0  0  0  0  0  0  0
   36.5730   28.7330   41.5160 C   0  0  0  0  0  0  0  0  0  0  0  0
   36.6040   27.3830   41.7810 C   0  0  0  0  0  0  0  0  0  0  0  0
   35.9960   26.6890   41.2340 H   0  0  0  0  0  0  0  0  0  0  0  0
   37.4290   26.8510   42.7750 C   0  0  0  0  0  3  0  0  0  0  0  0
   38.2520   27.6740   43.5360 C   0  0  0  0  0  0  0  0  0  0  0  0
   38.9130   27.3460   44.3150 H   0  0  0  0  0  0  0  0  0  0  0  0
   38.2350   29.0290   43.2850 C   0  0  0  0  0  0  0  0  0  0  0  0
   38.8620   29.7190   43.8530 H   0  0  0  0  0  0  0  0  0  0  0  0
   37.4140   29.5300   42.3000 C   0  0  0  0  0  3  0  0  0  0  0  0
  1  6  1  1  0  0  0
  1  2  1  0  0  0  0
  1  5  1  0  0  0  0
  2  3  1  0  0  0  0
  3  9  1  0  0  0  0
  3  4  1  0  0  0  0
  3 10  1  0  0  0  0
  4 11  1  1  0  0  0
  4 23  1  0  0  0  0
  5 13  1  0  0  0  0
  5  4  1  0  0  0  0
  7  2  1  0  0  0  0
  8  2  1  0  0  0  0
 12  5  1  0  0  0  0
 14 15  1  0  0  0  0
 15 16  2  0  0  0  0
 15 21  1  0  0  0  0
 16  1  1  0  0  0  0
 17 16  1  0  0  0  0
 18 17  2  0  0  0  0
 19 18  1  0  0  0  0
 19 14  2  0  0  0  0
 20 14  1  0  0  0  0
 22 18  1  0  0  0  0
 23 24  2  0  0  0  0
 23 31  1  0  0  0  0
 24 26  1  0  0  0  0
 25 24  1  0  0  0  0
 26 27  2  0  0  0  0
 27 28  1  0  0  0  0
 29 27  1  0  0  0  0
 29 30  1  0  0  0  0
 31 29  2  0  0  0  0
M  END
>  <minimizedAffinity>
-4.99739695

$$$$
