
 OpenBabel03252507083D

 24 25  0  0  0  0  0  0  0  0999 V2000
   44.5570   35.9620   44.5260 C   0  0  0  0  0  0  0  0  0  0  0  0
   45.1890   35.9090   43.2750 C   0  0  0  0  0  0  0  0  0  0  0  0
   46.1020   34.8800   43.0430 C   0  0  0  0  0  0  0  0  0  0  0  0
   46.3360   33.9740   44.0460 N   0  0  0  0  0  0  0  0  0  0  0  0
   45.7120   34.0590   45.2250 C   0  0  0  0  0  0  0  0  0  0  0  0
   44.8300   35.0340   45.4800 N   0  0  0  0  0  0  0  0  0  0  0  0
   43.8420   36.7230   44.7820 H   0  0  0  0  0  0  0  0  0  0  0  0
   44.9190   36.6740   42.5850 H   0  0  0  0  0  0  0  0  0  0  0  0
   45.9970   33.0680   46.2600 C   0  0  0  0  0  0  0  0  0  0  0  0
   47.0130   32.1430   46.0910 C   0  0  0  0  0  0  0  0  0  0  0  0
   47.6280   32.1180   45.1980 H   0  0  0  0  0  0  0  0  0  0  0  0
   47.2200   31.2370   47.1170 C   0  0  0  0  0  0  0  0  0  0  0  0
   46.4850   31.1980   48.2850 C   0  0  0  0  0  0  0  0  0  0  0  0
   46.6830   30.4710   49.0600 H   0  0  0  0  0  0  0  0  0  0  0  0
   45.4600   32.1340   48.4520 C   0  0  0  0  0  0  0  0  0  0  0  0
   44.8690   32.1270   49.3570 H   0  0  0  0  0  0  0  0  0  0  0  0
   45.2680   33.0220   47.4300 C   0  0  0  0  0  0  0  0  0  0  0  0
   46.7140   34.8480   41.8020 O   0  0  0  0  0  0  0  0  0  0  0  0
   48.6900   33.2470   41.0840 O   0  0  0  0  0  0  0  0  0  0  0  0
   48.4020   34.6050   41.7170 P   0  0  0  0  0  0  0  0  0  0  0  0
   49.0750   35.8500   40.8190 O   0  0  0  0  0  0  0  0  0  0  0  0
   49.5670   35.4370   40.0540 H   0  0  0  0  0  0  0  0  0  0  0  0
   48.9940   34.5770   43.3020 O   0  0  0  0  0  0  0  0  0  0  0  0
   48.7530   33.6890   43.6720 H   0  0  0  0  0  0  0  0  0  0  0  0
  1  7  1  0  0  0  0
  1  6  1  0  0  0  0
  2  1  2  0  0  0  0
  3  2  1  0  0  0  0
  3  4  2  0  0  0  0
  4  5  1  0  0  0  0
  5  6  2  0  0  0  0
  5  9  1  0  0  0  0
  8  2  1  0  0  0  0
  9 17  1  0  0  0  0
 10  9  2  0  0  0  0
 10 12  1  0  0  0  0
 11 10  1  0  0  0  0
 12 13  2  0  0  0  0
 13 15  1  0  0  0  0
 13 14  1  0  0  0  0
 15 16  1  0  0  0  0
 17 15  2  0  0  0  0
 18  3  1  0  0  0  0
 19 20  2  0  0  0  0
 20 18  1  0  0  0  0
 20 23  1  0  0  0  0
 21 20  1  0  0  0  0
 22 21  1  0  0  0  0
 23 24  1  0  0  0  0
M  END
>  <minimizedAffinity>
-5.87906504

>  <minimizedRMSD>
0.439000487

$$$$
