
 OpenBabel03242518333D

 28 30  0  0  0  0  0  0  0  0999 V2000
   38.2150   28.9800   42.7140 C   0  0  0  0  0  0  0  0  0  0  0  0
   37.3610   28.5230   43.6800 C   0  0  0  0  0  0  0  0  0  0  0  0
   36.7670   27.3680   43.2220 C   0  0  0  0  0  0  0  0  0  0  0  0
   37.3090   27.1700   41.9530 C   0  0  0  0  0  0  0  0  0  0  0  0
   38.1660   28.1440   41.6810 O   0  0  0  0  0  0  0  0  0  0  0  0
   37.2700   29.0840   44.6010 H   0  0  0  0  0  0  0  0  0  0  0  0
   36.0580   26.8070   43.7780 H   0  0  0  0  0  0  0  0  0  0  0  0
   36.9610   26.0460   41.0860 C   0  0  0  0  0  0  0  0  0  0  0  0
   36.9900   24.7300   41.5610 C   0  0  0  0  0  0  0  0  0  0  0  0
   37.2830   24.5970   42.5960 H   0  0  0  0  0  0  0  0  0  0  0  0
   36.6480   23.6880   40.6940 C   0  0  0  0  0  3  0  0  0  0  0  0
   36.2860   23.9490   39.3880 C   0  0  0  0  0  0  0  0  0  0  0  0
   36.0530   23.0330   38.8600 H   0  0  0  0  0  0  0  0  0  0  0  0
   36.2620   25.2560   38.9380 C   0  0  0  0  0  0  0  0  0  0  0  0
   35.9580   25.3300   37.8860 H   0  0  0  0  0  0  0  0  0  0  0  0
   36.5940   26.2860   39.7740 C   0  0  0  0  0  3  0  0  0  0  0  0
   39.0600   30.1090   42.6740 O   0  0  0  0  0  0  0  0  0  0  0  0
   39.5720   30.5750   41.4610 C   0  0  0  0  0  0  0  0  0  0  0  0
   40.6930   30.1140   41.1170 O   0  0  0  0  0  0  0  0  0  0  0  0
   38.7660   31.5150   40.7640 C   0  0  0  0  0  0  0  0  0  0  0  0
   39.1310   32.8380   41.0200 C   0  0  0  0  0  0  0  0  0  0  0  0
   38.3730   33.8300   40.3620 C   0  0  0  0  0  0  0  0  0  0  0  0
   37.3580   33.4470   39.5370 N   0  0  0  0  0  0  0  0  0  0  0  0
   37.0680   32.1500   39.3410 C   0  0  0  0  0  0  0  0  0  0  0  0
   37.7730   31.1780   39.9560 N   0  0  0  0  0  0  0  0  0  0  0  0
   39.9400   33.1500   41.6770 H   0  0  0  0  0  0  0  0  0  0  0  0
   38.6030   34.8910   40.5160 H   0  0  0  0  0  0  0  0  0  0  0  0
   36.2420   31.9590   38.6670 H   0  0  0  0  0  0  0  0  0  0  0  0
  1  2  2  0  0  0  0
  2  6  1  0  0  0  0
  3  2  1  0  0  0  0
  3  7  1  0  0  0  0
  4  3  2  0  0  0  0
  5  4  1  0  0  0  0
  5  1  1  0  0  0  0
  8  9  1  0  0  0  0
  8  4  1  0  0  0  0
  9 10  1  0  0  0  0
 11  9  2  0  0  0  0
 12 11  1  0  0  0  0
 13 12  1  0  0  0  0
 14 12  2  0  0  0  0
 14 16  1  0  0  0  0
 15 14  1  0  0  0  0
 16  8  2  0  0  0  0
 17  1  1  0  0  0  0
 18 17  1  0  0  0  0
 19 18  2  0  0  0  0
 20 21  1  0  0  0  0
 20 18  1  0  0  0  0
 21 26  1  0  0  0  0
 22 27  1  0  0  0  0
 22 21  2  0  0  0  0
 23 22  1  0  0  0  0
 24 23  2  0  0  0  0
 24 25  1  0  0  0  0
 25 20  2  0  0  0  0
 28 24  1  0  0  0  0
M  END
>  <minimizedAffinity>
-5.32678413

$$$$

 OpenBabel03242518333D

 28 30  0  0  0  0  0  0  0  0999 V2000
   37.5130   30.8150   40.9190 C   0  0  0  0  0  0  0  0  0  0  0  0
   36.1520   30.8250   40.7880 C   0  0  0  0  0  0  0  0  0  0  0  0
   35.7070   29.5220   40.7900 C   0  0  0  0  0  0  0  0  0  0  0  0
   36.8610   28.7530   40.9260 C   0  0  0  0  0  0  0  0  0  0  0  0
   37.9170   29.5510   41.0000 O   0  0  0  0  0  0  0  0  0  0  0  0
   35.6450   31.7780   40.7070 H   0  0  0  0  0  0  0  0  0  0  0  0
   34.6850   29.2460   40.7010 H   0  0  0  0  0  0  0  0  0  0  0  0
   36.8650   27.2920   40.9760 C   0  0  0  0  0  0  0  0  0  0  0  0
   36.6200   26.5300   39.8270 C   0  0  0  0  0  0  0  0  0  0  0  0
   36.4300   27.0810   38.9130 H   0  0  0  0  0  0  0  0  0  0  0  0
   36.6340   25.1360   39.9230 C   0  0  0  0  0  3  0  0  0  0  0  0
   36.8860   24.5150   41.1300 C   0  0  0  0  0  0  0  0  0  0  0  0
   36.8600   23.4380   41.0250 H   0  0  0  0  0  0  0  0  0  0  0  0
   37.1270   25.2860   42.2520 C   0  0  0  0  0  0  0  0  0  0  0  0
   37.3130   24.6750   43.1460 H   0  0  0  0  0  0  0  0  0  0  0  0
   37.1160   26.6510   42.1740 C   0  0  0  0  0  3  0  0  0  0  0  0
   38.4530   31.8650   40.9740 O   0  0  0  0  0  0  0  0  0  0  0  0
   38.4510   32.8770   40.0110 C   0  0  0  0  0  0  0  0  0  0  0  0
   37.4270   33.6110   39.9770 O   0  0  0  0  0  0  0  0  0  0  0  0
   39.6050   32.9550   39.1870 C   0  0  0  0  0  0  0  0  0  0  0  0
   39.6230   31.9830   38.1850 C   0  0  0  0  0  0  0  0  0  0  0  0
   40.7410   31.9970   37.3240 C   0  0  0  0  0  0  0  0  0  0  0  0
   41.7110   32.9340   37.5180 N   0  0  0  0  0  0  0  0  0  0  0  0
   41.6230   33.8390   38.5070 C   0  0  0  0  0  0  0  0  0  0  0  0
   40.5660   33.8510   39.3470 N   0  0  0  0  0  0  0  0  0  0  0  0
   38.8510   31.2330   38.0250 H   0  0  0  0  0  0  0  0  0  0  0  0
   40.8220   31.2640   36.5140 H   0  0  0  0  0  0  0  0  0  0  0  0
   42.4490   34.5360   38.5700 H   0  0  0  0  0  0  0  0  0  0  0  0
  1 17  1  0  0  0  0
  1  5  1  0  0  0  0
  2  3  1  0  0  0  0
  2  1  2  0  0  0  0
  3  4  2  0  0  0  0
  4  8  1  0  0  0  0
  4  5  1  0  0  0  0
  6  2  1  0  0  0  0
  7  3  1  0  0  0  0
  8 16  1  0  0  0  0
  9 11  1  0  0  0  0
  9  8  2  0  0  0  0
 10  9  1  0  0  0  0
 11 12  2  0  0  0  0
 12 14  1  0  0  0  0
 13 12  1  0  0  0  0
 14 15  1  0  0  0  0
 16 14  2  0  0  0  0
 18 17  1  0  0  0  0
 19 18  2  0  0  0  0
 20 25  1  0  0  0  0
 20 18  1  0  0  0  0
 21 20  2  0  0  0  0
 22 23  2  0  0  0  0
 22 21  1  0  0  0  0
 23 24  1  0  0  0  0
 24 28  1  0  0  0  0
 24 25  2  0  0  0  0
 26 21  1  0  0  0  0
 27 22  1  0  0  0  0
M  END
>  <minimizedAffinity>
-5.29948997

$$$$

 OpenBabel03242518333D

 28 30  0  0  0  0  0  0  0  0999 V2000
   36.5810   28.5120   41.9290 C   0  0  0  0  0  0  0  0  0  0  0  0
   35.6350   28.6910   40.9580 C   0  0  0  0  0  0  0  0  0  0  0  0
   35.8670   29.9030   40.3450 C   0  0  0  0  0  0  0  0  0  0  0  0
   36.9840   30.4210   40.9960 C   0  0  0  0  0  0  0  0  0  0  0  0
   37.3840   29.5710   41.9320 O   0  0  0  0  0  0  0  0  0  0  0  0
   34.8890   27.9210   40.8110 H   0  0  0  0  0  0  0  0  0  0  0  0
   35.2740   30.2880   39.5520 H   0  0  0  0  0  0  0  0  0  0  0  0
   37.5920   31.7090   40.6690 C   0  0  0  0  0  0  0  0  0  0  0  0
   36.9240   32.6400   39.8650 C   0  0  0  0  0  0  0  0  0  0  0  0
   35.9430   32.3510   39.5040 H   0  0  0  0  0  0  0  0  0  0  0  0
   37.5450   33.8590   39.5790 C   0  0  0  0  0  3  0  0  0  0  0  0
   38.7980   34.1460   40.0810 C   0  0  0  0  0  0  0  0  0  0  0  0
   39.1280   35.1270   39.7640 H   0  0  0  0  0  0  0  0  0  0  0  0
   39.4410   33.2140   40.8750 C   0  0  0  0  0  0  0  0  0  0  0  0
   40.4280   33.5600   41.2100 H   0  0  0  0  0  0  0  0  0  0  0  0
   38.8460   32.0170   41.1630 C   0  0  0  0  0  3  0  0  0  0  0  0
   36.7960   27.4550   42.8380 O   0  0  0  0  0  0  0  0  0  0  0  0
   38.0200   26.7820   42.8750 C   0  0  0  0  0  0  0  0  0  0  0  0
   38.8790   27.2310   43.6800 O   0  0  0  0  0  0  0  0  0  0  0  0
   38.1460   25.6720   41.9970 C   0  0  0  0  0  0  0  0  0  0  0  0
   36.9780   24.9130   41.9100 C   0  0  0  0  0  0  0  0  0  0  0  0
   37.0280   23.7910   41.0550 C   0  0  0  0  0  0  0  0  0  0  0  0
   38.1830   23.5220   40.3850 N   0  0  0  0  0  0  0  0  0  0  0  0
   39.2690   24.3020   40.5220 C   0  0  0  0  0  0  0  0  0  0  0  0
   39.2530   25.3820   41.3320 N   0  0  0  0  0  0  0  0  0  0  0  0
   36.0530   25.1230   42.4420 H   0  0  0  0  0  0  0  0  0  0  0  0
   36.1470   23.1490   40.9370 H   0  0  0  0  0  0  0  0  0  0  0  0
   40.1320   23.9960   39.9440 H   0  0  0  0  0  0  0  0  0  0  0  0
  1  5  1  0  0  0  0
  1 17  1  0  0  0  0
  2  1  2  0  0  0  0
  3  2  1  0  0  0  0
  3  4  2  0  0  0  0
  4  5  1  0  0  0  0
  6  2  1  0  0  0  0
  7  3  1  0  0  0  0
  8  4  1  0  0  0  0
  8 16  1  0  0  0  0
  9  8  2  0  0  0  0
 10  9  1  0  0  0  0
 11  9  1  0  0  0  0
 11 12  2  0  0  0  0
 12 14  1  0  0  0  0
 13 12  1  0  0  0  0
 14 16  2  0  0  0  0
 14 15  1  0  0  0  0
 17 18  1  0  0  0  0
 18 19  2  0  0  0  0
 20 18  1  0  0  0  0
 21 20  1  0  0  0  0
 21 26  1  0  0  0  0
 22 21  2  0  0  0  0
 23 24  2  0  0  0  0
 23 22  1  0  0  0  0
 24 25  1  0  0  0  0
 25 20  2  0  0  0  0
 27 22  1  0  0  0  0
 28 24  1  0  0  0  0
M  END
>  <minimizedAffinity>
-5.29081392

$$$$

 OpenBabel03242518333D

 28 30  0  0  0  0  0  0  0  0999 V2000
   37.0240   29.2160   42.1590 C   0  0  0  0  0  0  0  0  0  0  0  0
   37.7100   28.9120   43.3020 C   0  0  0  0  0  0  0  0  0  0  0  0
   38.0360   27.5740   43.2690 C   0  0  0  0  0  0  0  0  0  0  0  0
   37.5140   27.1120   42.0630 C   0  0  0  0  0  0  0  0  0  0  0  0
   36.9190   28.1110   41.4270 O   0  0  0  0  0  0  0  0  0  0  0  0
   37.8910   29.6980   44.0240 H   0  0  0  0  0  0  0  0  0  0  0  0
   38.5720   27.0770   44.0390 H   0  0  0  0  0  0  0  0  0  0  0  0
   37.6250   25.7280   41.6050 C   0  0  0  0  0  0  0  0  0  0  0  0
   38.7760   24.9730   41.8600 C   0  0  0  0  0  0  0  0  0  0  0  0
   39.5680   25.4700   42.4090 H   0  0  0  0  0  0  0  0  0  0  0  0
   38.8370   23.6540   41.4020 C   0  0  0  0  0  3  0  0  0  0  0  0
   37.7800   23.0990   40.7100 C   0  0  0  0  0  0  0  0  0  0  0  0
   37.9940   22.0750   40.4320 H   0  0  0  0  0  0  0  0  0  0  0  0
   36.6510   23.8610   40.4690 C   0  0  0  0  0  0  0  0  0  0  0  0
   35.8850   23.3080   39.9110 H   0  0  0  0  0  0  0  0  0  0  0  0
   36.5770   25.1540   40.9100 C   0  0  0  0  0  3  0  0  0  0  0  0
   36.4690   30.4280   41.6980 O   0  0  0  0  0  0  0  0  0  0  0  0
   36.8360   30.9570   40.4590 C   0  0  0  0  0  0  0  0  0  0  0  0
   36.2040   30.5240   39.4590 O   0  0  0  0  0  0  0  0  0  0  0  0
   37.8800   31.9210   40.4780 C   0  0  0  0  0  0  0  0  0  0  0  0
   37.4920   33.1520   39.9470 C   0  0  0  0  0  0  0  0  0  0  0  0
   38.4780   34.1610   39.9310 C   0  0  0  0  0  0  0  0  0  0  0  0
   39.7180   33.8800   40.4220 N   0  0  0  0  0  0  0  0  0  0  0  0
   40.0160   32.6680   40.9170 C   0  0  0  0  0  0  0  0  0  0  0  0
   39.0950   31.6810   40.9460 N   0  0  0  0  0  0  0  0  0  0  0  0
   36.5040   33.3820   39.5540 H   0  0  0  0  0  0  0  0  0  0  0  0
   38.2440   35.1540   39.5290 H   0  0  0  0  0  0  0  0  0  0  0  0
   41.0300   32.5540   41.2800 H   0  0  0  0  0  0  0  0  0  0  0  0
  1  2  2  0  0  0  0
  2  6  1  0  0  0  0
  3  2  1  0  0  0  0
  3  7  1  0  0  0  0
  4  3  2  0  0  0  0
  5  4  1  0  0  0  0
  5  1  1  0  0  0  0
  8  9  1  0  0  0  0
  8  4  1  0  0  0  0
  9 10  1  0  0  0  0
 11  9  2  0  0  0  0
 12 11  1  0  0  0  0
 13 12  1  0  0  0  0
 14 12  2  0  0  0  0
 14 16  1  0  0  0  0
 15 14  1  0  0  0  0
 16  8  2  0  0  0  0
 17  1  1  0  0  0  0
 18 20  1  0  0  0  0
 18 17  1  0  0  0  0
 19 18  2  0  0  0  0
 20 25  1  0  0  0  0
 21 20  2  0  0  0  0
 22 21  1  0  0  0  0
 22 23  2  0  0  0  0
 23 24  1  0  0  0  0
 24 25  2  0  0  0  0
 24 28  1  0  0  0  0
 26 21  1  0  0  0  0
 27 22  1  0  0  0  0
M  END
>  <minimizedAffinity>
-5.23234272

$$$$

 OpenBabel03242518333D

 28 30  0  0  0  0  0  0  0  0999 V2000
   36.5740   28.5040   40.9140 C   0  0  0  0  0  0  0  0  0  0  0  0
   35.5770   29.0920   40.1850 C   0  0  0  0  0  0  0  0  0  0  0  0
   35.9600   30.3810   39.8880 C   0  0  0  0  0  0  0  0  0  0  0  0
   37.2170   30.5210   40.4720 C   0  0  0  0  0  0  0  0  0  0  0  0
   37.5540   29.3890   41.0740 O   0  0  0  0  0  0  0  0  0  0  0  0
   34.6920   28.5140   39.9560 H   0  0  0  0  0  0  0  0  0  0  0  0
   35.3660   31.0600   39.3280 H   0  0  0  0  0  0  0  0  0  0  0  0
   38.0120   31.7460   40.4090 C   0  0  0  0  0  0  0  0  0  0  0  0
   39.3680   31.7460   40.7600 C   0  0  0  0  0  0  0  0  0  0  0  0
   39.7850   30.7970   41.0760 H   0  0  0  0  0  0  0  0  0  0  0  0
   40.0880   32.9420   40.6840 C   0  0  0  0  0  3  0  0  0  0  0  0
   39.4760   34.1070   40.2690 C   0  0  0  0  0  0  0  0  0  0  0  0
   40.1750   34.9340   40.2680 H   0  0  0  0  0  0  0  0  0  0  0  0
   38.1360   34.0860   39.9260 C   0  0  0  0  0  0  0  0  0  0  0  0
   37.7690   35.0730   39.6140 H   0  0  0  0  0  0  0  0  0  0  0  0
   37.4190   32.9240   39.9960 C   0  0  0  0  0  3  0  0  0  0  0  0
   36.6890   27.2110   41.4650 O   0  0  0  0  0  0  0  0  0  0  0  0
   37.1000   27.0310   42.7870 C   0  0  0  0  0  0  0  0  0  0  0  0
   36.2590   27.3300   43.6770 O   0  0  0  0  0  0  0  0  0  0  0  0
   38.4180   26.5330   42.9690 C   0  0  0  0  0  0  0  0  0  0  0  0
   38.5560   25.2040   42.5670 C   0  0  0  0  0  0  0  0  0  0  0  0
   39.8400   24.6390   42.7170 C   0  0  0  0  0  0  0  0  0  0  0  0
   40.8430   25.4050   43.2330 N   0  0  0  0  0  0  0  0  0  0  0  0
   40.6310   26.6810   43.5970 C   0  0  0  0  0  0  0  0  0  0  0  0
   39.4140   27.2500   43.4660 N   0  0  0  0  0  0  0  0  0  0  0  0
   37.7610   24.5870   42.1550 H   0  0  0  0  0  0  0  0  0  0  0  0
   40.0230   23.5990   42.4230 H   0  0  0  0  0  0  0  0  0  0  0  0
   41.4960   27.1970   43.9940 H   0  0  0  0  0  0  0  0  0  0  0  0
  1  5  1  0  0  0  0
  1 17  1  0  0  0  0
  2  1  2  0  0  0  0
  3  2  1  0  0  0  0
  3  4  2  0  0  0  0
  4  5  1  0  0  0  0
  6  2  1  0  0  0  0
  7  3  1  0  0  0  0
  8  4  1  0  0  0  0
  8  9  1  0  0  0  0
  9 10  1  0  0  0  0
 11  9  2  0  0  0  0
 12 11  1  0  0  0  0
 13 12  1  0  0  0  0
 14 16  1  0  0  0  0
 14 12  2  0  0  0  0
 15 14  1  0  0  0  0
 16  8  2  0  0  0  0
 17 18  1  0  0  0  0
 18 20  1  0  0  0  0
 18 19  2  0  0  0  0
 20 25  1  0  0  0  0
 21 22  1  0  0  0  0
 21 20  2  0  0  0  0
 22 23  2  0  0  0  0
 23 24  1  0  0  0  0
 24 28  1  0  0  0  0
 25 24  2  0  0  0  0
 26 21  1  0  0  0  0
 27 22  1  0  0  0  0
M  END
>  <minimizedAffinity>
-5.14359283

$$$$

 OpenBabel03242518333D

 28 30  0  0  0  0  0  0  0  0999 V2000
   39.1740   26.7470   42.9860 C   0  0  0  0  0  0  0  0  0  0  0  0
   39.8920   25.7230   43.5400 C   0  0  0  0  0  0  0  0  0  0  0  0
   39.5180   24.5490   42.9240 C   0  0  0  0  0  0  0  0  0  0  0  0
   38.5550   24.9290   41.9910 C   0  0  0  0  0  0  0  0  0  0  0  0
   38.3730   26.2410   42.0530 O   0  0  0  0  0  0  0  0  0  0  0  0
   40.6010   25.9510   44.3250 H   0  0  0  0  0  0  0  0  0  0  0  0
   39.9240   23.5990   43.1670 H   0  0  0  0  0  0  0  0  0  0  0  0
   37.8720   23.9950   41.0990 C   0  0  0  0  0  0  0  0  0  0  0  0
   38.5150   22.8430   40.6300 C   0  0  0  0  0  0  0  0  0  0  0  0
   39.5350   22.6890   40.9640 H   0  0  0  0  0  0  0  0  0  0  0  0
   37.8220   21.9780   39.7790 C   0  0  0  0  0  3  0  0  0  0  0  0
   36.5220   22.2510   39.4030 C   0  0  0  0  0  0  0  0  0  0  0  0
   36.1390   21.4820   38.7450 H   0  0  0  0  0  0  0  0  0  0  0  0
   35.9040   23.3940   39.8780 C   0  0  0  0  0  0  0  0  0  0  0  0
   34.8760   23.4960   39.5080 H   0  0  0  0  0  0  0  0  0  0  0  0
   36.5700   24.2490   40.7120 C   0  0  0  0  0  3  0  0  0  0  0  0
   39.1710   28.1330   43.2490 O   0  0  0  0  0  0  0  0  0  0  0  0
   38.0130   28.8930   43.0660 C   0  0  0  0  0  0  0  0  0  0  0  0
   36.9850   28.4970   43.6800 O   0  0  0  0  0  0  0  0  0  0  0  0
   38.1350   30.0190   42.2090 C   0  0  0  0  0  0  0  0  0  0  0  0
   39.3980   30.6110   42.2680 C   0  0  0  0  0  0  0  0  0  0  0  0
   39.5950   31.7390   41.4430 C   0  0  0  0  0  0  0  0  0  0  0  0
   38.5670   32.1700   40.6580 N   0  0  0  0  0  0  0  0  0  0  0  0
   37.3790   31.5450   40.6560 C   0  0  0  0  0  0  0  0  0  0  0  0
   37.1580   30.4650   41.4350 N   0  0  0  0  0  0  0  0  0  0  0  0
   40.2210   30.2720   42.8920 H   0  0  0  0  0  0  0  0  0  0  0  0
   40.5610   32.2550   41.4370 H   0  0  0  0  0  0  0  0  0  0  0  0
   36.6340   31.9720   39.9960 H   0  0  0  0  0  0  0  0  0  0  0  0
  1 17  1  0  0  0  0
  1  2  2  0  0  0  0
  2  6  1  0  0  0  0
  3  7  1  0  0  0  0
  3  2  1  0  0  0  0
  4  5  1  0  0  0  0
  4  3  2  0  0  0  0
  5  1  1  0  0  0  0
  8  4  1  0  0  0  0
  9 10  1  0  0  0  0
  9  8  2  0  0  0  0
 11  9  1  0  0  0  0
 12 11  2  0  0  0  0
 12 14  1  0  0  0  0
 13 12  1  0  0  0  0
 14 16  2  0  0  0  0
 15 14  1  0  0  0  0
 16  8  1  0  0  0  0
 18 17  1  0  0  0  0
 18 19  2  0  0  0  0
 20 21  1  0  0  0  0
 20 18  1  0  0  0  0
 21 26  1  0  0  0  0
 22 21  2  0  0  0  0
 23 22  1  0  0  0  0
 24 23  2  0  0  0  0
 24 25  1  0  0  0  0
 25 20  2  0  0  0  0
 27 22  1  0  0  0  0
 28 24  1  0  0  0  0
M  END
>  <minimizedAffinity>
-5.06025505

$$$$

 OpenBabel03242518333D

 28 30  0  0  0  0  0  0  0  0999 V2000
   37.5370   30.0050   41.8310 C   0  0  0  0  0  0  0  0  0  0  0  0
   38.7270   30.1410   42.4910 C   0  0  0  0  0  0  0  0  0  0  0  0
   39.2070   28.8830   42.7820 C   0  0  0  0  0  0  0  0  0  0  0  0
   38.2510   28.0100   42.2670 C   0  0  0  0  0  0  0  0  0  0  0  0
   37.2710   28.7080   41.7090 O   0  0  0  0  0  0  0  0  0  0  0  0
   39.1040   31.1370   42.6820 H   0  0  0  0  0  0  0  0  0  0  0  0
   40.1200   28.7020   43.2940 H   0  0  0  0  0  0  0  0  0  0  0  0
   38.3490   26.5540   42.3490 C   0  0  0  0  0  0  0  0  0  0  0  0
   37.2930   25.7350   41.9340 C   0  0  0  0  0  0  0  0  0  0  0  0
   36.4110   26.2380   41.5540 H   0  0  0  0  0  0  0  0  0  0  0  0
   37.4320   24.3470   42.0320 C   0  0  0  0  0  3  0  0  0  0  0  0
   38.5920   23.7890   42.5290 C   0  0  0  0  0  0  0  0  0  0  0  0
   38.5310   22.7090   42.5340 H   0  0  0  0  0  0  0  0  0  0  0  0
   39.6250   24.6160   42.9330 C   0  0  0  0  0  0  0  0  0  0  0  0
   40.4890   24.0520   43.3080 H   0  0  0  0  0  0  0  0  0  0  0  0
   39.5030   25.9750   42.8430 C   0  0  0  0  0  3  0  0  0  0  0  0
   36.6420   30.9650   41.3150 O   0  0  0  0  0  0  0  0  0  0  0  0
   36.8930   31.5910   40.0920 C   0  0  0  0  0  0  0  0  0  0  0  0
   37.3200   32.7750   40.1500 O   0  0  0  0  0  0  0  0  0  0  0  0
   36.6330   30.8150   38.9300 C   0  0  0  0  0  0  0  0  0  0  0  0
   37.4520   31.1610   37.8530 C   0  0  0  0  0  0  0  0  0  0  0  0
   37.2520   30.4320   36.6610 C   0  0  0  0  0  0  0  0  0  0  0  0
   36.2960   29.4600   36.6340 N   0  0  0  0  0  0  0  0  0  0  0  0
   35.5470   29.1860   37.7140 C   0  0  0  0  0  0  0  0  0  0  0  0
   35.7140   29.8650   38.8690 N   0  0  0  0  0  0  0  0  0  0  0  0
   38.2150   31.9350   37.8690 H   0  0  0  0  0  0  0  0  0  0  0  0
   37.8580   30.6490   35.7740 H   0  0  0  0  0  0  0  0  0  0  0  0
   34.8180   28.3950   37.5820 H   0  0  0  0  0  0  0  0  0  0  0  0
  1  2  2  0  0  0  0
  2  6  1  0  0  0  0
  2  3  1  0  0  0  0
  3  7  1  0  0  0  0
  4  8  1  0  0  0  0
  4  3  2  0  0  0  0
  5  1  1  0  0  0  0
  5  4  1  0  0  0  0
  8 16  1  0  0  0  0
  9 11  1  0  0  0  0
  9  8  2  0  0  0  0
 10  9  1  0  0  0  0
 11 12  2  0  0  0  0
 12 13  1  0  0  0  0
 12 14  1  0  0  0  0
 14 15  1  0  0  0  0
 16 14  2  0  0  0  0
 17  1  1  0  0  0  0
 18 19  2  0  0  0  0
 18 17  1  0  0  0  0
 20 18  1  0  0  0  0
 21 26  1  0  0  0  0
 21 20  2  0  0  0  0
 22 21  1  0  0  0  0
 23 22  2  0  0  0  0
 23 24  1  0  0  0  0
 24 25  2  0  0  0  0
 25 20  1  0  0  0  0
 27 22  1  0  0  0  0
 28 24  1  0  0  0  0
M  END
>  <minimizedAffinity>
-5.04916573

$$$$

 OpenBabel03242518333D

 28 30  0  0  0  0  0  0  0  0999 V2000
   36.9870   28.0310   41.4850 C   0  0  0  0  0  0  0  0  0  0  0  0
   36.8070   27.5870   42.7660 C   0  0  0  0  0  0  0  0  0  0  0  0
   37.9830   27.7720   43.4580 C   0  0  0  0  0  0  0  0  0  0  0  0
   38.8540   28.3410   42.5310 C   0  0  0  0  0  0  0  0  0  0  0  0
   38.2330   28.4810   41.3680 O   0  0  0  0  0  0  0  0  0  0  0  0
   35.8430   27.1820   43.0440 H   0  0  0  0  0  0  0  0  0  0  0  0
   38.1160   27.5110   44.4790 H   0  0  0  0  0  0  0  0  0  0  0  0
   40.2360   28.7110   42.8330 C   0  0  0  0  0  0  0  0  0  0  0  0
   41.1210   27.7910   43.4070 C   0  0  0  0  0  0  0  0  0  0  0  0
   40.7260   26.8020   43.6110 H   0  0  0  0  0  0  0  0  0  0  0  0
   42.4330   28.1910   43.6770 C   0  0  0  0  0  3  0  0  0  0  0  0
   42.8540   29.4720   43.3850 C   0  0  0  0  0  0  0  0  0  0  0  0
   43.8920   29.6110   43.6570 H   0  0  0  0  0  0  0  0  0  0  0  0
   41.9640   30.3660   42.8170 C   0  0  0  0  0  0  0  0  0  0  0  0
   42.4180   31.3480   42.6340 H   0  0  0  0  0  0  0  0  0  0  0  0
   40.6770   29.9890   42.5470 C   0  0  0  0  0  3  0  0  0  0  0  0
   36.1130   28.0690   40.3790 O   0  0  0  0  0  0  0  0  0  0  0  0
   35.4160   29.2370   40.0600 C   0  0  0  0  0  0  0  0  0  0  0  0
   34.1590   29.1660   40.1080 O   0  0  0  0  0  0  0  0  0  0  0  0
   36.2110   30.3640   39.7170 C   0  0  0  0  0  0  0  0  0  0  0  0
   36.6790   30.3180   38.4030 C   0  0  0  0  0  0  0  0  0  0  0  0
   37.4780   31.4050   37.9900 C   0  0  0  0  0  0  0  0  0  0  0  0
   37.7380   32.4080   38.8760 N   0  0  0  0  0  0  0  0  0  0  0  0
   37.2500   32.3800   40.1270 C   0  0  0  0  0  0  0  0  0  0  0  0
   36.4830   31.3540   40.5520 N   0  0  0  0  0  0  0  0  0  0  0  0
   36.4750   29.5210   37.6920 H   0  0  0  0  0  0  0  0  0  0  0  0
   37.8810   31.4370   36.9710 H   0  0  0  0  0  0  0  0  0  0  0  0
   37.5180   33.2270   40.7460 H   0  0  0  0  0  0  0  0  0  0  0  0
  1  2  2  0  0  0  0
  2  6  1  0  0  0  0
  2  3  1  0  0  0  0
  3  7  1  0  0  0  0
  4  8  1  0  0  0  0
  4  3  2  0  0  0  0
  5  1  1  0  0  0  0
  5  4  1  0  0  0  0
  8  9  1  0  0  0  0
  9 10  1  0  0  0  0
  9 11  2  0  0  0  0
 12 13  1  0  0  0  0
 12 11  1  0  0  0  0
 14 12  2  0  0  0  0
 15 14  1  0  0  0  0
 16 14  1  0  0  0  0
 16  8  2  0  0  0  0
 17  1  1  0  0  0  0
 18 19  2  0  0  0  0
 18 17  1  0  0  0  0
 20 18  1  0  0  0  0
 20 25  1  0  0  0  0
 21 20  2  0  0  0  0
 22 21  1  0  0  0  0
 22 23  2  0  0  0  0
 23 24  1  0  0  0  0
 24 25  2  0  0  0  0
 24 28  1  0  0  0  0
 26 21  1  0  0  0  0
 27 22  1  0  0  0  0
M  END
>  <minimizedAffinity>
-5.02415085

$$$$

 OpenBabel03242518333D

 28 30  0  0  0  0  0  0  0  0999 V2000
   36.9260   30.5190   41.0550 C   0  0  0  0  0  0  0  0  0  0  0  0
   35.8850   29.7090   40.6960 C   0  0  0  0  0  0  0  0  0  0  0  0
   36.1870   28.4200   41.0790 C   0  0  0  0  0  0  0  0  0  0  0  0
   37.4430   28.5130   41.6740 C   0  0  0  0  0  0  0  0  0  0  0  0
   37.8560   29.7720   41.6430 O   0  0  0  0  0  0  0  0  0  0  0  0
   35.0300   30.1500   40.2000 H   0  0  0  0  0  0  0  0  0  0  0  0
   35.5450   27.5900   40.9180 H   0  0  0  0  0  0  0  0  0  0  0  0
   38.1650   27.3710   42.2330 C   0  0  0  0  0  0  0  0  0  0  0  0
   37.8390   26.0600   41.8660 C   0  0  0  0  0  0  0  0  0  0  0  0
   37.0310   25.9450   41.1530 H   0  0  0  0  0  0  0  0  0  0  0  0
   38.5570   25.0010   42.4270 C   0  0  0  0  0  3  0  0  0  0  0  0
   39.5740   25.2380   43.3300 C   0  0  0  0  0  0  0  0  0  0  0  0
   40.0210   24.3110   43.6630 H   0  0  0  0  0  0  0  0  0  0  0  0
   39.8810   26.5410   43.6790 C   0  0  0  0  0  0  0  0  0  0  0  0
   40.7050   26.5960   44.4020 H   0  0  0  0  0  0  0  0  0  0  0  0
   39.1870   27.5880   43.1380 C   0  0  0  0  0  3  0  0  0  0  0  0
   37.1250   31.9070   40.8980 O   0  0  0  0  0  0  0  0  0  0  0  0
   37.7130   32.4180   39.7380 C   0  0  0  0  0  0  0  0  0  0  0  0
   36.9380   32.6210   38.7650 O   0  0  0  0  0  0  0  0  0  0  0  0
   39.1140   32.6450   39.7970 C   0  0  0  0  0  0  0  0  0  0  0  0
   39.8420   31.7540   39.0080 C   0  0  0  0  0  0  0  0  0  0  0  0
   41.2430   31.9180   39.0160 C   0  0  0  0  0  0  0  0  0  0  0  0
   41.7880   32.9110   39.7750 N   0  0  0  0  0  0  0  0  0  0  0  0
   41.0180   33.7300   40.5090 C   0  0  0  0  0  0  0  0  0  0  0  0
   39.6750   33.5990   40.5230 N   0  0  0  0  0  0  0  0  0  0  0  0
   39.4140   30.9600   38.4000 H   0  0  0  0  0  0  0  0  0  0  0  0
   41.8800   31.2530   38.4190 H   0  0  0  0  0  0  0  0  0  0  0  0
   41.5550   34.4830   41.0740 H   0  0  0  0  0  0  0  0  0  0  0  0
  1  5  1  0  0  0  0
  2  1  2  0  0  0  0
  2  3  1  0  0  0  0
  3  4  2  0  0  0  0
  4  8  1  0  0  0  0
  5  4  1  0  0  0  0
  6  2  1  0  0  0  0
  7  3  1  0  0  0  0
  8 16  1  0  0  0  0
  9  8  2  0  0  0  0
  9 11  1  0  0  0  0
 10  9  1  0  0  0  0
 11 12  2  0  0  0  0
 12 13  1  0  0  0  0
 12 14  1  0  0  0  0
 14 15  1  0  0  0  0
 16 14  2  0  0  0  0
 17  1  1  0  0  0  0
 18 20  1  0  0  0  0
 18 17  1  0  0  0  0
 19 18  2  0  0  0  0
 20 25  1  0  0  0  0
 21 22  1  0  0  0  0
 21 20  2  0  0  0  0
 22 23  2  0  0  0  0
 23 24  1  0  0  0  0
 24 25  2  0  0  0  0
 24 28  1  0  0  0  0
 26 21  1  0  0  0  0
 27 22  1  0  0  0  0
M  END
>  <minimizedAffinity>
-5.0100174

$$$$
