
 OpenBabel03252509213D

 25 27  0  0  0  0  0  0  0  0999 V2000
   44.7840   35.5850   45.3790 C   0  0  0  0  0  0  0  0  0  0  0  0
   45.3550   36.0460   44.1500 C   0  0  0  0  0  0  0  0  0  0  0  0
   45.8400   35.0570   43.3200 C   0  0  0  0  0  0  0  0  0  0  0  0
   45.7700   33.7240   43.6660 N   0  0  0  0  0  0  0  0  0  0  0  0
   45.2180   33.3380   44.8410 C   0  0  0  0  0  0  0  0  0  0  0  0
   44.7270   34.2710   45.6950 N   0  0  0  0  0  0  0  0  0  0  0  0
   44.3570   36.1940   46.1550 H   0  0  0  0  0  0  0  0  0  0  0  0
   45.2390   32.2670   44.9610 H   0  0  0  0  0  0  0  0  0  0  0  0
   45.2870   37.4600   43.9780 C   0  0  0  0  0  0  0  0  0  0  0  0
   45.3030   38.2790   42.8760 C   0  0  0  0  0  0  0  0  0  0  0  0
   45.3390   37.7500   41.9370 H   0  0  0  0  0  0  0  0  0  0  0  0
   45.2530   39.6510   42.9780 C   0  0  0  0  0  3  0  0  0  0  0  0
   45.1860   40.2810   44.1820 C   0  0  0  0  0  0  0  0  0  0  0  0
   45.1500   41.3590   44.1860 H   0  0  0  0  0  0  0  0  0  0  0  0
   45.1670   39.5050   45.3210 C   0  0  0  0  0  0  0  0  0  0  0  0
   45.1130   40.0290   46.2610 H   0  0  0  0  0  0  0  0  0  0  0  0
   45.2180   38.1110   45.2140 C   0  0  0  0  0  3  0  0  0  0  0  0
   46.3770   35.4950   41.9800 C   0  0  0  0  0  0  0  0  0  0  0  0
   47.8980   35.2750   41.9070 C   0  0  0  0  0  0  0  0  0  0  0  0
   46.8490   34.4610   41.0880 C   0  0  0  0  0  0  0  0  0  0  0  0
   46.1940   36.5630   41.7340 H   0  0  0  0  0  0  0  0  0  0  0  0
   48.3970   34.7670   42.7270 H   0  0  0  0  0  0  0  0  0  0  0  0
   48.4810   35.9610   41.2710 H   0  0  0  0  0  0  0  0  0  0  0  0
   46.7710   33.4050   41.4330 H   0  0  0  0  0  0  0  0  0  0  0  0
   46.8590   34.6140   39.9840 H   0  0  0  0  0  0  0  0  0  0  0  0
  1  6  1  0  0  0  0
  1  7  1  0  0  0  0
  2  1  2  0  0  0  0
  3  4  2  0  0  0  0
  3  2  1  0  0  0  0
  4  5  1  0  0  0  0
  5  8  1  0  0  0  0
  5  6  2  0  0  0  0
  9  2  1  0  0  0  0
  9 17  1  0  0  0  0
 10 12  1  0  0  0  0
 10  9  2  0  0  0  0
 11 10  1  0  0  0  0
 12 13  2  0  0  0  0
 13 14  1  0  0  0  0
 13 15  1  0  0  0  0
 15 16  1  0  0  0  0
 17 15  2  0  0  0  0
 18  3  1  0  0  0  0
 19 18  1  0  0  0  0
 19 22  1  0  0  0  0
 20 24  1  0  0  0  0
 20 19  1  0  0  0  0
 20 18  1  0  0  0  0
 21 18  1  0  0  0  0
 23 19  1  0  0  0  0
 25 20  1  0  0  0  0
M  END
>  <minimizedAffinity>
-0.0434010513

>  <minimizedRMSD>
2.03041387

$$$$
