
 OpenBabel03252505553D

 33 35  0  0  0  0  0  0  0  0999 V2000
   38.4710   26.9610   43.3910 C   0  0  0  0  0  0  0  0  0  0  0  0
   39.7030   26.5990   43.8670 C   0  0  0  0  0  0  0  0  0  0  0  0
   40.2820   25.4430   43.4680 C   0  0  0  0  0  0  0  0  0  0  0  0
   39.6580   24.6330   42.5980 N   0  0  0  0  0  0  0  0  0  0  0  0
   38.4520   24.9680   42.1200 C   0  0  0  0  0  0  0  0  0  0  0  0
   37.8530   26.1270   42.5100 N   0  0  0  0  0  0  0  0  0  0  0  0
   40.1160   27.3180   44.5590 H   0  0  0  0  0  0  0  0  0  0  0  0
   41.2550   25.2400   43.8960 H   0  0  0  0  0  0  0  0  0  0  0  0
   37.7630   24.0730   41.1590 C   0  0  0  0  0  0  0  0  0  0  0  0
   38.4410   22.9740   40.6740 C   0  0  0  0  0  0  0  0  0  0  0  0
   39.4710   22.7770   41.0020 H   0  0  0  0  0  0  0  0  0  0  0  0
   37.7640   22.1510   39.7720 C   0  0  0  0  0  3  0  0  0  0  0  0
   36.4530   22.4810   39.4110 C   0  0  0  0  0  0  0  0  0  0  0  0
   35.9610   21.8330   38.7190 H   0  0  0  0  0  0  0  0  0  0  0  0
   35.8440   23.5990   39.9400 C   0  0  0  0  0  0  0  0  0  0  0  0
   34.8260   23.8450   39.6540 H   0  0  0  0  0  0  0  0  0  0  0  0
   36.4770   24.4380   40.8350 C   0  0  0  0  0  3  0  0  0  0  0  0
   37.6510   28.1450   43.6720 C   0  0  0  0  0  0  0  0  0  0  0  0
   36.8650   27.9170   44.4380 H   0  0  0  0  0  0  0  0  0  0  0  0
   38.2670   28.9620   44.1130 H   0  0  0  0  0  0  0  0  0  0  0  0
   37.0520   28.5490   42.4660 O   0  0  0  0  0  0  0  0  0  0  0  0
   36.6720   31.5580   40.5980 C   0  0  0  0  0  0  0  0  0  0  0  0
   37.9320   32.1360   40.6370 C   0  0  0  0  0  0  0  0  0  0  0  0
   38.9370   31.4510   41.3370 C   0  0  0  0  0  0  0  0  0  0  0  0
   38.6400   30.2850   41.9270 N   0  0  0  0  0  0  0  0  0  0  0  0
   37.4000   29.7610   41.8640 C   0  0  0  0  0  0  0  0  0  0  0  0
   36.4170   30.3870   41.2070 N   0  0  0  0  0  0  0  0  0  0  0  0
   35.8500   32.0470   40.0700 H   0  0  0  0  0  0  0  0  0  0  0  0
   39.9200   31.9050   41.3650 H   0  0  0  0  0  0  0  0  0  0  0  0
   38.1470   33.4410   39.9400 C   0  0  0  0  0  0  0  0  0  0  0  0
   39.1590   33.2030   39.0430 F   0  0  0  0  0  0  0  0  0  0  0  0
   38.5800   34.3420   40.9250 F   0  0  0  0  0  0  0  0  0  0  0  0
   36.9830   33.8470   39.3700 F   0  0  0  0  0  0  0  0  0  0  0  0
  1 18  1  0  0  0  0
  1  2  1  0  0  0  0
  2  7  1  0  0  0  0
  3  2  2  0  0  0  0
  3  8  1  0  0  0  0
  4  3  1  0  0  0  0
  5  6  1  0  0  0  0
  5  4  2  0  0  0  0
  6  1  2  0  0  0  0
  9  5  1  0  0  0  0
 10 11  1  0  0  0  0
 10  9  2  0  0  0  0
 12 10  1  0  0  0  0
 13 12  2  0  0  0  0
 13 15  1  0  0  0  0
 14 13  1  0  0  0  0
 15 17  2  0  0  0  0
 16 15  1  0  0  0  0
 17  9  1  0  0  0  0
 18 20  1  0  0  0  0
 18 19  1  0  0  0  0
 21 18  1  0  0  0  0
 22 23  2  0  0  0  0
 22 27  1  0  0  0  0
 23 24  1  0  0  0  0
 24 29  1  0  0  0  0
 24 25  2  0  0  0  0
 26 25  1  0  0  0  0
 26 21  1  0  0  0  0
 27 26  2  0  0  0  0
 28 22  1  0  0  0  0
 30 23  1  0  0  0  0
 30 32  1  0  0  0  0
 31 30  1  0  0  0  0
 33 30  1  0  0  0  0
M  END
>  <minimizedAffinity>
-6.21250105

$$$$

 OpenBabel03252505553D

 33 35  0  0  0  0  0  0  0  0999 V2000
   38.5450   26.9320   43.3670 C   0  0  0  0  0  0  0  0  0  0  0  0
   39.7490   26.5130   43.8670 C   0  0  0  0  0  0  0  0  0  0  0  0
   40.2750   25.3250   43.4900 C   0  0  0  0  0  0  0  0  0  0  0  0
   39.6240   24.5380   42.6180 N   0  0  0  0  0  0  0  0  0  0  0  0
   38.4450   24.9280   42.1160 C   0  0  0  0  0  0  0  0  0  0  0  0
   37.9000   26.1210   42.4840 N   0  0  0  0  0  0  0  0  0  0  0  0
   40.1880   27.2170   44.5580 H   0  0  0  0  0  0  0  0  0  0  0  0
   41.2300   25.0770   43.9360 H   0  0  0  0  0  0  0  0  0  0  0  0
   37.7270   24.0590   41.1530 C   0  0  0  0  0  0  0  0  0  0  0  0
   36.4260   24.3740   40.8180 C   0  0  0  0  0  0  0  0  0  0  0  0
   35.9430   25.2550   41.2640 H   0  0  0  0  0  0  0  0  0  0  0  0
   35.7790   23.5360   39.9090 C   0  0  0  0  0  3  0  0  0  0  0  0
   36.4720   22.4360   39.3930 C   0  0  0  0  0  0  0  0  0  0  0  0
   35.9510   21.8140   38.6990 H   0  0  0  0  0  0  0  0  0  0  0  0
   37.7730   22.1890   39.7780 C   0  0  0  0  0  0  0  0  0  0  0  0
   38.3030   21.3320   39.3710 H   0  0  0  0  0  0  0  0  0  0  0  0
   38.4500   22.9910   40.6740 C   0  0  0  0  0  3  0  0  0  0  0  0
   37.7840   28.1600   43.6210 C   0  0  0  0  0  0  0  0  0  0  0  0
   37.0720   28.0190   44.4760 H   0  0  0  0  0  0  0  0  0  0  0  0
   38.4580   28.9920   43.9300 H   0  0  0  0  0  0  0  0  0  0  0  0
   37.0780   28.4790   42.4480 O   0  0  0  0  0  0  0  0  0  0  0  0
   38.7680   31.3970   41.3010 C   0  0  0  0  0  0  0  0  0  0  0  0
   37.7910   32.0990   40.6130 C   0  0  0  0  0  0  0  0  0  0  0  0
   36.5090   31.5330   40.5510 C   0  0  0  0  0  0  0  0  0  0  0  0
   36.2870   30.3560   41.1520 N   0  0  0  0  0  0  0  0  0  0  0  0
   37.2690   29.7070   41.8100 C   0  0  0  0  0  0  0  0  0  0  0  0
   38.5030   30.2170   41.8880 N   0  0  0  0  0  0  0  0  0  0  0  0
   39.7850   31.7880   41.3800 H   0  0  0  0  0  0  0  0  0  0  0  0
   35.7480   32.0850   40.0130 H   0  0  0  0  0  0  0  0  0  0  0  0
   38.1540   33.4050   39.9820 C   0  0  0  0  0  0  0  0  0  0  0  0
   39.1330   33.0980   39.0680 F   0  0  0  0  0  0  0  0  0  0  0  0
   38.6880   34.1990   41.0090 F   0  0  0  0  0  0  0  0  0  0  0  0
   37.0450   33.9700   39.4400 F   0  0  0  0  0  0  0  0  0  0  0  0
  1 18  1  0  0  0  0
  1  2  1  0  0  0  0
  2  7  1  0  0  0  0
  3  2  2  0  0  0  0
  3  8  1  0  0  0  0
  4  3  1  0  0  0  0
  5  6  1  0  0  0  0
  5  4  2  0  0  0  0
  6  1  2  0  0  0  0
  9  5  1  0  0  0  0
 10  9  1  0  0  0  0
 10 11  1  0  0  0  0
 12 10  2  0  0  0  0
 13 15  2  0  0  0  0
 13 12  1  0  0  0  0
 14 13  1  0  0  0  0
 15 17  1  0  0  0  0
 16 15  1  0  0  0  0
 17  9  2  0  0  0  0
 18 20  1  0  0  0  0
 18 19  1  0  0  0  0
 21 18  1  0  0  0  0
 22 28  1  0  0  0  0
 22 27  1  0  0  0  0
 23 22  2  0  0  0  0
 24 23  1  0  0  0  0
 24 25  2  0  0  0  0
 25 26  1  0  0  0  0
 26 27  2  0  0  0  0
 26 21  1  0  0  0  0
 29 24  1  0  0  0  0
 30 23  1  0  0  0  0
 30 32  1  0  0  0  0
 31 30  1  0  0  0  0
 33 30  1  0  0  0  0
M  END
>  <minimizedAffinity>
-6.2117486

$$$$

 OpenBabel03252505553D

 33 35  0  0  0  0  0  0  0  0999 V2000
   38.9840   31.6860   41.0460 C   0  0  0  0  0  0  0  0  0  0  0  0
   38.7910   33.0360   40.9220 C   0  0  0  0  0  0  0  0  0  0  0  0
   37.9370   33.5270   39.9940 C   0  0  0  0  0  0  0  0  0  0  0  0
   37.2650   32.6970   39.1800 N   0  0  0  0  0  0  0  0  0  0  0  0
   37.4390   31.3730   39.2840 C   0  0  0  0  0  0  0  0  0  0  0  0
   38.2940   30.8600   40.2120 N   0  0  0  0  0  0  0  0  0  0  0  0
   39.3770   33.6120   41.6220 H   0  0  0  0  0  0  0  0  0  0  0  0
   37.8480   34.6060   39.9700 H   0  0  0  0  0  0  0  0  0  0  0  0
   36.6970   30.4580   38.3850 C   0  0  0  0  0  0  0  0  0  0  0  0
   35.6760   29.6930   38.9120 C   0  0  0  0  0  0  0  0  0  0  0  0
   35.4290   29.7720   39.9800 H   0  0  0  0  0  0  0  0  0  0  0  0
   34.9970   28.8420   38.0380 C   0  0  0  0  0  3  0  0  0  0  0  0
   35.3810   28.8080   36.6940 C   0  0  0  0  0  0  0  0  0  0  0  0
   34.8430   28.1470   36.0500 H   0  0  0  0  0  0  0  0  0  0  0  0
   36.4130   29.6030   36.2440 C   0  0  0  0  0  0  0  0  0  0  0  0
   36.7040   29.5700   35.1970 H   0  0  0  0  0  0  0  0  0  0  0  0
   37.1110   30.4590   37.0720 C   0  0  0  0  0  3  0  0  0  0  0  0
   39.8430   30.9270   41.9600 C   0  0  0  0  0  0  0  0  0  0  0  0
   40.4350   30.1530   41.4050 H   0  0  0  0  0  0  0  0  0  0  0  0
   40.5990   31.5890   42.4410 H   0  0  0  0  0  0  0  0  0  0  0  0
   39.0160   30.3120   42.9170 O   0  0  0  0  0  0  0  0  0  0  0  0
   39.1660   26.8160   42.2510 C   0  0  0  0  0  0  0  0  0  0  0  0
   37.8490   26.3990   42.3670 C   0  0  0  0  0  0  0  0  0  0  0  0
   36.8880   27.3690   42.6870 C   0  0  0  0  0  0  0  0  0  0  0  0
   37.2780   28.6390   42.8640 N   0  0  0  0  0  0  0  0  0  0  0  0
   38.5710   29.0000   42.7410 C   0  0  0  0  0  0  0  0  0  0  0  0
   39.5150   28.1020   42.4380 N   0  0  0  0  0  0  0  0  0  0  0  0
   39.9570   26.1050   42.0050 H   0  0  0  0  0  0  0  0  0  0  0  0
   35.8600   27.0380   42.7770 H   0  0  0  0  0  0  0  0  0  0  0  0
   37.5310   24.9540   42.1470 C   0  0  0  0  0  0  0  0  0  0  0  0
   38.5510   24.2690   42.7610 F   0  0  0  0  0  0  0  0  0  0  0  0
   37.5830   24.7500   40.7600 F   0  0  0  0  0  0  0  0  0  0  0  0
   36.2980   24.6810   42.6460 F   0  0  0  0  0  0  0  0  0  0  0  0
  1 18  1  0  0  0  0
  2  1  1  0  0  0  0
  2  7  1  0  0  0  0
  3  2  2  0  0  0  0
  4  5  2  0  0  0  0
  4  3  1  0  0  0  0
  5  6  1  0  0  0  0
  6  1  2  0  0  0  0
  8  3  1  0  0  0  0
  9 10  1  0  0  0  0
  9  5  1  0  0  0  0
 10 11  1  0  0  0  0
 12 10  2  0  0  0  0
 13 12  1  0  0  0  0
 14 13  1  0  0  0  0
 15 13  2  0  0  0  0
 15 17  1  0  0  0  0
 16 15  1  0  0  0  0
 17  9  2  0  0  0  0
 18 20  1  0  0  0  0
 18 21  1  0  0  0  0
 19 18  1  0  0  0  0
 22 23  2  0  0  0  0
 22 27  1  0  0  0  0
 23 24  1  0  0  0  0
 24 29  1  0  0  0  0
 24 25  2  0  0  0  0
 26 25  1  0  0  0  0
 26 21  1  0  0  0  0
 27 26  2  0  0  0  0
 28 22  1  0  0  0  0
 30 23  1  0  0  0  0
 30 33  1  0  0  0  0
 30 31  1  0  0  0  0
 32 30  1  0  0  0  0
M  END
>  <minimizedAffinity>
-5.85543203

$$$$

 OpenBabel03252505553D

 33 35  0  0  0  0  0  0  0  0999 V2000
   38.3730   26.9560   43.4740 C   0  0  0  0  0  0  0  0  0  0  0  0
   39.6530   26.6670   43.8660 C   0  0  0  0  0  0  0  0  0  0  0  0
   40.2880   25.5710   43.3890 C   0  0  0  0  0  0  0  0  0  0  0  0
   39.6730   24.7500   42.5230 N   0  0  0  0  0  0  0  0  0  0  0  0
   38.4210   25.0140   42.1250 C   0  0  0  0  0  0  0  0  0  0  0  0
   37.7660   26.1120   42.5940 N   0  0  0  0  0  0  0  0  0  0  0  0
   40.0540   27.3880   44.5630 H   0  0  0  0  0  0  0  0  0  0  0  0
   41.2960   25.4230   43.7540 H   0  0  0  0  0  0  0  0  0  0  0  0
   37.7420   24.1080   41.1690 C   0  0  0  0  0  0  0  0  0  0  0  0
   36.4630   24.4180   40.7540 C   0  0  0  0  0  0  0  0  0  0  0  0
   35.9690   25.3230   41.1340 H   0  0  0  0  0  0  0  0  0  0  0  0
   35.8530   23.5440   39.8530 C   0  0  0  0  0  3  0  0  0  0  0  0
   36.5590   22.4160   39.4240 C   0  0  0  0  0  0  0  0  0  0  0  0
   36.0660   21.7660   38.7340 H   0  0  0  0  0  0  0  0  0  0  0  0
   37.8350   22.1740   39.8860 C   0  0  0  0  0  0  0  0  0  0  0  0
   38.3750   21.2950   39.5460 H   0  0  0  0  0  0  0  0  0  0  0  0
   38.4760   23.0120   40.7760 C   0  0  0  0  0  3  0  0  0  0  0  0
   37.4910   28.0670   43.8460 C   0  0  0  0  0  0  0  0  0  0  0  0
   36.4990   27.9820   43.3290 H   0  0  0  0  0  0  0  0  0  0  0  0
   37.2600   28.0460   44.9360 H   0  0  0  0  0  0  0  0  0  0  0  0
   38.1290   29.2650   43.4800 O   0  0  0  0  0  0  0  0  0  0  0  0
   36.5500   30.1300   40.4070 C   0  0  0  0  0  0  0  0  0  0  0  0
   37.5510   30.7630   39.6850 C   0  0  0  0  0  0  0  0  0  0  0  0
   38.8080   30.8880   40.2940 C   0  0  0  0  0  0  0  0  0  0  0  0
   38.9860   30.3980   41.5280 N   0  0  0  0  0  0  0  0  0  0  0  0
   37.9830   29.7890   42.1940 C   0  0  0  0  0  0  0  0  0  0  0  0
   36.7710   29.6530   41.6440 N   0  0  0  0  0  0  0  0  0  0  0  0
   35.5510   30.0050   39.9840 H   0  0  0  0  0  0  0  0  0  0  0  0
   39.5870   31.3840   39.7270 H   0  0  0  0  0  0  0  0  0  0  0  0
   37.2360   31.2710   38.3140 C   0  0  0  0  0  0  0  0  0  0  0  0
   36.1210   30.5710   37.9230 F   0  0  0  0  0  0  0  0  0  0  0  0
   38.3300   30.9200   37.5080 F   0  0  0  0  0  0  0  0  0  0  0  0
   37.0620   32.6170   38.3590 F   0  0  0  0  0  0  0  0  0  0  0  0
  1 18  1  0  0  0  0
  1  2  1  0  0  0  0
  2  7  1  0  0  0  0
  3  8  1  0  0  0  0
  3  2  2  0  0  0  0
  4  3  1  0  0  0  0
  5  4  2  0  0  0  0
  5  6  1  0  0  0  0
  6  1  2  0  0  0  0
  9  5  1  0  0  0  0
 10 11  1  0  0  0  0
 10  9  2  0  0  0  0
 12 10  1  0  0  0  0
 13 12  2  0  0  0  0
 13 15  1  0  0  0  0
 14 13  1  0  0  0  0
 15 17  2  0  0  0  0
 16 15  1  0  0  0  0
 17  9  1  0  0  0  0
 18 20  1  0  0  0  0
 19 18  1  0  0  0  0
 21 18  1  0  0  0  0
 22 27  1  0  0  0  0
 23 24  1  0  0  0  0
 23 22  2  0  0  0  0
 24 25  2  0  0  0  0
 25 26  1  0  0  0  0
 26 21  1  0  0  0  0
 27 26  2  0  0  0  0
 28 22  1  0  0  0  0
 29 24  1  0  0  0  0
 30 33  1  0  0  0  0
 30 23  1  0  0  0  0
 31 30  1  0  0  0  0
 32 30  1  0  0  0  0
M  END
>  <minimizedAffinity>
-5.7811718

$$$$

 OpenBabel03252505553D

 33 35  0  0  0  0  0  0  0  0999 V2000
   37.4840   26.3170   42.4570 C   0  0  0  0  0  0  0  0  0  0  0  0
   37.2700   25.0600   41.9570 C   0  0  0  0  0  0  0  0  0  0  0  0
   38.2940   24.1840   41.8360 C   0  0  0  0  0  0  0  0  0  0  0  0
   39.5370   24.5330   42.2060 N   0  0  0  0  0  0  0  0  0  0  0  0
   39.7690   25.7570   42.6980 C   0  0  0  0  0  0  0  0  0  0  0  0
   38.7510   26.6530   42.8270 N   0  0  0  0  0  0  0  0  0  0  0  0
   36.2390   24.8820   41.6910 H   0  0  0  0  0  0  0  0  0  0  0  0
   38.0310   23.2150   41.4320 H   0  0  0  0  0  0  0  0  0  0  0  0
   41.1410   26.1410   43.1060 C   0  0  0  0  0  0  0  0  0  0  0  0
   42.1350   25.1850   43.0730 C   0  0  0  0  0  0  0  0  0  0  0  0
   41.9010   24.1620   42.7490 H   0  0  0  0  0  0  0  0  0  0  0  0
   43.4160   25.5800   43.4630 C   0  0  0  0  0  3  0  0  0  0  0  0
   43.6220   26.9050   43.8610 C   0  0  0  0  0  0  0  0  0  0  0  0
   44.6130   27.1770   44.1540 H   0  0  0  0  0  0  0  0  0  0  0  0
   42.5750   27.8020   43.8670 C   0  0  0  0  0  0  0  0  0  0  0  0
   42.7460   28.8290   44.1770 H   0  0  0  0  0  0  0  0  0  0  0  0
   41.2940   27.4540   43.4890 C   0  0  0  0  0  3  0  0  0  0  0  0
   36.5500   27.4250   42.6800 C   0  0  0  0  0  0  0  0  0  0  0  0
   35.9490   27.6350   41.7570 H   0  0  0  0  0  0  0  0  0  0  0  0
   35.8040   27.1670   43.4670 H   0  0  0  0  0  0  0  0  0  0  0  0
   37.3030   28.5580   43.0380 O   0  0  0  0  0  0  0  0  0  0  0  0
   38.7580   31.3350   41.3490 C   0  0  0  0  0  0  0  0  0  0  0  0
   37.7320   31.8130   40.5490 C   0  0  0  0  0  0  0  0  0  0  0  0
   36.5010   31.1430   40.6050 C   0  0  0  0  0  0  0  0  0  0  0  0
   36.3720   30.0860   41.4180 N   0  0  0  0  0  0  0  0  0  0  0  0
   37.3980   29.6540   42.1790 C   0  0  0  0  0  0  0  0  0  0  0  0
   38.5860   30.2690   42.1500 N   0  0  0  0  0  0  0  0  0  0  0  0
   39.7390   31.8160   41.3460 H   0  0  0  0  0  0  0  0  0  0  0  0
   35.7020   31.5200   39.9780 H   0  0  0  0  0  0  0  0  0  0  0  0
   37.9920   33.0030   39.6810 C   0  0  0  0  0  0  0  0  0  0  0  0
   39.0840   32.6570   38.9230 F   0  0  0  0  0  0  0  0  0  0  0  0
   38.3240   34.0540   40.5490 F   0  0  0  0  0  0  0  0  0  0  0  0
   36.8800   33.2870   38.9560 F   0  0  0  0  0  0  0  0  0  0  0  0
  1 18  1  0  0  0  0
  1  6  1  0  0  0  0
  2  1  2  0  0  0  0
  3  2  1  0  0  0  0
  3  4  2  0  0  0  0
  4  5  1  0  0  0  0
  5  6  2  0  0  0  0
  5  9  1  0  0  0  0
  7  2  1  0  0  0  0
  8  3  1  0  0  0  0
  9 17  1  0  0  0  0
 10  9  2  0  0  0  0
 10 12  1  0  0  0  0
 11 10  1  0  0  0  0
 12 13  2  0  0  0  0
 13 15  1  0  0  0  0
 13 14  1  0  0  0  0
 15 16  1  0  0  0  0
 17 15  2  0  0  0  0
 18 21  1  0  0  0  0
 18 20  1  0  0  0  0
 19 18  1  0  0  0  0
 22 27  1  0  0  0  0
 23 24  1  0  0  0  0
 23 22  2  0  0  0  0
 24 25  2  0  0  0  0
 25 26  1  0  0  0  0
 26 21  1  0  0  0  0
 27 26  2  0  0  0  0
 28 22  1  0  0  0  0
 29 24  1  0  0  0  0
 30 32  1  0  0  0  0
 30 23  1  0  0  0  0
 31 30  1  0  0  0  0
 33 30  1  0  0  0  0
M  END
>  <minimizedAffinity>
-5.68956089

$$$$

 OpenBabel03252505553D

 33 35  0  0  0  0  0  0  0  0999 V2000
   34.0110   27.6150   36.5010 C   0  0  0  0  0  0  0  0  0  0  0  0
   33.2980   26.4900   36.1830 C   0  0  0  0  0  0  0  0  0  0  0  0
   31.9980   26.5790   35.8190 C   0  0  0  0  0  0  0  0  0  0  0  0
   31.3870   27.7730   35.7640 N   0  0  0  0  0  0  0  0  0  0  0  0
   32.0650   28.8870   36.0710 C   0  0  0  0  0  0  0  0  0  0  0  0
   33.3750   28.8170   36.4390 N   0  0  0  0  0  0  0  0  0  0  0  0
   33.8820   25.5850   36.2600 H   0  0  0  0  0  0  0  0  0  0  0  0
   31.5160   25.6390   35.5850 H   0  0  0  0  0  0  0  0  0  0  0  0
   31.3890   30.2050   36.0100 C   0  0  0  0  0  0  0  0  0  0  0  0
   31.4930   30.9500   34.8530 C   0  0  0  0  0  0  0  0  0  0  0  0
   32.0690   30.5620   34.0010 H   0  0  0  0  0  0  0  0  0  0  0  0
   30.8450   32.1860   34.8280 C   0  0  0  0  0  3  0  0  0  0  0  0
   30.1350   32.5990   35.9600 C   0  0  0  0  0  0  0  0  0  0  0  0
   29.6490   33.5490   35.9110 H   0  0  0  0  0  0  0  0  0  0  0  0
   30.0790   31.7950   37.0790 C   0  0  0  0  0  0  0  0  0  0  0  0
   29.5230   32.1250   37.9530 H   0  0  0  0  0  0  0  0  0  0  0  0
   30.7040   30.5670   37.1460 C   0  0  0  0  0  3  0  0  0  0  0  0
   35.4090   27.7710   36.9180 C   0  0  0  0  0  0  0  0  0  0  0  0
   35.7910   26.8320   37.3970 H   0  0  0  0  0  0  0  0  0  0  0  0
   36.0710   27.9460   36.0390 H   0  0  0  0  0  0  0  0  0  0  0  0
   35.4700   28.8410   37.8280 O   0  0  0  0  0  0  0  0  0  0  0  0
   36.6970   27.1270   40.6990 C   0  0  0  0  0  0  0  0  0  0  0  0
   36.6100   28.0710   41.7120 C   0  0  0  0  0  0  0  0  0  0  0  0
   36.1100   29.3370   41.3770 C   0  0  0  0  0  0  0  0  0  0  0  0
   35.7420   29.5770   40.1110 N   0  0  0  0  0  0  0  0  0  0  0  0
   35.8440   28.6300   39.1570 C   0  0  0  0  0  0  0  0  0  0  0  0
   36.3170   27.4110   39.4410 N   0  0  0  0  0  0  0  0  0  0  0  0
   37.0800   26.1250   40.9020 H   0  0  0  0  0  0  0  0  0  0  0  0
   36.0440   30.0710   42.1700 H   0  0  0  0  0  0  0  0  0  0  0  0
   37.0510   27.6890   43.0890 C   0  0  0  0  0  0  0  0  0  0  0  0
   35.8990   27.3240   43.7430 F   0  0  0  0  0  0  0  0  0  0  0  0
   37.5810   28.8530   43.6660 F   0  0  0  0  0  0  0  0  0  0  0  0
   37.9810   26.7030   43.0100 F   0  0  0  0  0  0  0  0  0  0  0  0
  1 18  1  0  0  0  0
  2  7  1  0  0  0  0
  2  1  2  0  0  0  0
  3  2  1  0  0  0  0
  4  3  2  0  0  0  0
  4  5  1  0  0  0  0
  5  6  2  0  0  0  0
  6  1  1  0  0  0  0
  8  3  1  0  0  0  0
  9  5  1  0  0  0  0
  9 17  1  0  0  0  0
 10  9  2  0  0  0  0
 11 10  1  0  0  0  0
 12 10  1  0  0  0  0
 12 13  2  0  0  0  0
 13 15  1  0  0  0  0
 14 13  1  0  0  0  0
 15 17  2  0  0  0  0
 15 16  1  0  0  0  0
 18 19  1  0  0  0  0
 18 21  1  0  0  0  0
 20 18  1  0  0  0  0
 21 26  1  0  0  0  0
 22 28  1  0  0  0  0
 22 23  1  0  0  0  0
 23 30  1  0  0  0  0
 24 23  2  0  0  0  0
 24 29  1  0  0  0  0
 25 24  1  0  0  0  0
 26 27  1  0  0  0  0
 26 25  2  0  0  0  0
 27 22  2  0  0  0  0
 30 32  1  0  0  0  0
 30 31  1  0  0  0  0
 33 30  1  0  0  0  0
M  END
>  <minimizedAffinity>
-5.53028679

$$$$

 OpenBabel03252505553D

 33 35  0  0  0  0  0  0  0  0999 V2000
   36.8700   30.7600   39.7800 C   0  0  0  0  0  0  0  0  0  0  0  0
   36.5600   30.2560   38.5450 C   0  0  0  0  0  0  0  0  0  0  0  0
   37.3020   30.5840   37.4620 C   0  0  0  0  0  0  0  0  0  0  0  0
   38.3550   31.4090   37.5820 N   0  0  0  0  0  0  0  0  0  0  0  0
   38.6760   31.9130   38.7810 C   0  0  0  0  0  0  0  0  0  0  0  0
   37.9410   31.5940   39.8830 N   0  0  0  0  0  0  0  0  0  0  0  0
   35.6980   29.6060   38.5580 H   0  0  0  0  0  0  0  0  0  0  0  0
   36.9830   30.1390   36.5280 H   0  0  0  0  0  0  0  0  0  0  0  0
   39.8380   32.8230   38.9130 C   0  0  0  0  0  0  0  0  0  0  0  0
   39.8860   33.6870   39.9880 C   0  0  0  0  0  0  0  0  0  0  0  0
   39.0710   33.6890   40.7250 H   0  0  0  0  0  0  0  0  0  0  0  0
   40.9940   34.5300   40.0830 C   0  0  0  0  0  3  0  0  0  0  0  0
   41.9840   34.4580   39.0970 C   0  0  0  0  0  0  0  0  0  0  0  0
   42.8200   35.1150   39.1970 H   0  0  0  0  0  0  0  0  0  0  0  0
   41.8630   33.5670   38.0520 C   0  0  0  0  0  0  0  0  0  0  0  0
   42.6380   33.5180   37.2910 H   0  0  0  0  0  0  0  0  0  0  0  0
   40.7850   32.7150   37.9200 C   0  0  0  0  0  3  0  0  0  0  0  0
   36.2260   30.5540   41.0820 C   0  0  0  0  0  0  0  0  0  0  0  0
   35.7270   31.4940   41.4350 H   0  0  0  0  0  0  0  0  0  0  0  0
   35.4120   29.7960   41.0100 H   0  0  0  0  0  0  0  0  0  0  0  0
   37.2180   30.1580   41.9960 O   0  0  0  0  0  0  0  0  0  0  0  0
   39.2600   27.2430   42.1540 C   0  0  0  0  0  0  0  0  0  0  0  0
   38.3610   26.2210   42.4160 C   0  0  0  0  0  0  0  0  0  0  0  0
   37.0070   26.5650   42.5400 C   0  0  0  0  0  0  0  0  0  0  0  0
   36.6450   27.8480   42.4010 N   0  0  0  0  0  0  0  0  0  0  0  0
   37.5550   28.8110   42.1470 C   0  0  0  0  0  0  0  0  0  0  0  0
   38.8550   28.5190   42.0230 N   0  0  0  0  0  0  0  0  0  0  0  0
   40.3270   27.0350   42.0480 H   0  0  0  0  0  0  0  0  0  0  0  0
   36.3080   25.7630   42.7450 H   0  0  0  0  0  0  0  0  0  0  0  0
   38.8800   24.8250   42.5510 C   0  0  0  0  0  0  0  0  0  0  0  0
   39.5870   24.5960   41.3950 F   0  0  0  0  0  0  0  0  0  0  0  0
   37.7510   23.9920   42.5950 F   0  0  0  0  0  0  0  0  0  0  0  0
   39.6190   24.7240   43.6850 F   0  0  0  0  0  0  0  0  0  0  0  0
  1  6  1  0  0  0  0
  1 18  1  0  0  0  0
  2  7  1  0  0  0  0
  2  1  2  0  0  0  0
  3  4  2  0  0  0  0
  3  2  1  0  0  0  0
  4  5  1  0  0  0  0
  5  9  1  0  0  0  0
  5  6  2  0  0  0  0
  8  3  1  0  0  0  0
  9 10  1  0  0  0  0
 10 12  2  0  0  0  0
 10 11  1  0  0  0  0
 13 14  1  0  0  0  0
 13 12  1  0  0  0  0
 15 13  2  0  0  0  0
 16 15  1  0  0  0  0
 17 15  1  0  0  0  0
 17  9  2  0  0  0  0
 18 19  1  0  0  0  0
 18 21  1  0  0  0  0
 20 18  1  0  0  0  0
 21 26  1  0  0  0  0
 22 23  1  0  0  0  0
 23 24  2  0  0  0  0
 23 30  1  0  0  0  0
 24 29  1  0  0  0  0
 25 24  1  0  0  0  0
 26 25  2  0  0  0  0
 27 26  1  0  0  0  0
 27 22  2  0  0  0  0
 28 22  1  0  0  0  0
 30 32  1  0  0  0  0
 30 33  1  0  0  0  0
 31 30  1  0  0  0  0
M  END
>  <minimizedAffinity>
-5.50484133

$$$$

 OpenBabel03252505553D

 33 35  0  0  0  0  0  0  0  0999 V2000
   37.5240   32.2100   39.4840 C   0  0  0  0  0  0  0  0  0  0  0  0
   37.3720   31.7570   38.2010 C   0  0  0  0  0  0  0  0  0  0  0  0
   37.1770   30.4410   37.9550 C   0  0  0  0  0  0  0  0  0  0  0  0
   37.1300   29.5580   38.9660 N   0  0  0  0  0  0  0  0  0  0  0  0
   37.2770   29.9800   40.2290 C   0  0  0  0  0  0  0  0  0  0  0  0
   37.4730   31.3010   40.4970 N   0  0  0  0  0  0  0  0  0  0  0  0
   37.4270   32.5450   37.4660 H   0  0  0  0  0  0  0  0  0  0  0  0
   37.0670   30.1750   36.9110 H   0  0  0  0  0  0  0  0  0  0  0  0
   37.2240   29.0050   41.3440 C   0  0  0  0  0  0  0  0  0  0  0  0
   36.8270   27.7110   41.0760 C   0  0  0  0  0  0  0  0  0  0  0  0
   36.5570   27.4220   40.0510 H   0  0  0  0  0  0  0  0  0  0  0  0
   36.7890   26.8180   42.1490 C   0  0  0  0  0  3  0  0  0  0  0  0
   37.1490   27.2750   43.4200 C   0  0  0  0  0  0  0  0  0  0  0  0
   37.1100   26.5690   44.2210 H   0  0  0  0  0  0  0  0  0  0  0  0
   37.5350   28.5850   43.6070 C   0  0  0  0  0  0  0  0  0  0  0  0
   37.8130   28.9300   44.5990 H   0  0  0  0  0  0  0  0  0  0  0  0
   37.5870   29.5010   42.5750 C   0  0  0  0  0  3  0  0  0  0  0  0
   37.7440   33.5670   39.9950 C   0  0  0  0  0  0  0  0  0  0  0  0
   37.8760   34.2960   39.1530 H   0  0  0  0  0  0  0  0  0  0  0  0
   36.8560   33.9290   40.5640 H   0  0  0  0  0  0  0  0  0  0  0  0
   38.8950   33.5430   40.8030 O   0  0  0  0  0  0  0  0  0  0  0  0
   41.7550   34.3380   38.8350 C   0  0  0  0  0  0  0  0  0  0  0  0
   42.6170   33.2740   39.0550 C   0  0  0  0  0  0  0  0  0  0  0  0
   42.1820   32.2560   39.9150 C   0  0  0  0  0  0  0  0  0  0  0  0
   40.9690   32.3520   40.4780 N   0  0  0  0  0  0  0  0  0  0  0  0
   40.1640   33.4060   40.2360 C   0  0  0  0  0  0  0  0  0  0  0  0
   40.5460   34.3960   39.4210 N   0  0  0  0  0  0  0  0  0  0  0  0
   42.0410   35.1600   38.1750 H   0  0  0  0  0  0  0  0  0  0  0  0
   42.8580   31.4270   40.0850 H   0  0  0  0  0  0  0  0  0  0  0  0
   43.9470   33.2730   38.3710 C   0  0  0  0  0  0  0  0  0  0  0  0
   43.7060   32.7450   37.1260 F   0  0  0  0  0  0  0  0  0  0  0  0
   44.7650   32.4050   39.1110 F   0  0  0  0  0  0  0  0  0  0  0  0
   44.4470   34.5350   38.3520 F   0  0  0  0  0  0  0  0  0  0  0  0
  1 18  1  0  0  0  0
  1  6  1  0  0  0  0
  2  1  2  0  0  0  0
  3  2  1  0  0  0  0
  3  4  2  0  0  0  0
  4  5  1  0  0  0  0
  5  6  2  0  0  0  0
  5  9  1  0  0  0  0
  7  2  1  0  0  0  0
  8  3  1  0  0  0  0
  9 17  1  0  0  0  0
 10  9  2  0  0  0  0
 10 12  1  0  0  0  0
 11 10  1  0  0  0  0
 12 13  2  0  0  0  0
 13 15  1  0  0  0  0
 13 14  1  0  0  0  0
 15 16  1  0  0  0  0
 17 15  2  0  0  0  0
 18 20  1  0  0  0  0
 18 21  1  0  0  0  0
 19 18  1  0  0  0  0
 22 23  2  0  0  0  0
 22 27  1  0  0  0  0
 23 24  1  0  0  0  0
 24 29  1  0  0  0  0
 24 25  2  0  0  0  0
 26 25  1  0  0  0  0
 26 21  1  0  0  0  0
 27 26  2  0  0  0  0
 28 22  1  0  0  0  0
 30 23  1  0  0  0  0
 30 32  1  0  0  0  0
 31 30  1  0  0  0  0
 33 30  1  0  0  0  0
M  END
>  <minimizedAffinity>
-5.43939447

$$$$

 OpenBabel03252505553D

 33 35  0  0  0  0  0  0  0  0999 V2000
   36.1400   25.7360   38.7210 C   0  0  0  0  0  0  0  0  0  0  0  0
   35.6140   24.4750   38.8060 C   0  0  0  0  0  0  0  0  0  0  0  0
   35.8930   23.6830   39.8680 C   0  0  0  0  0  0  0  0  0  0  0  0
   36.6890   24.1230   40.8550 N   0  0  0  0  0  0  0  0  0  0  0  0
   37.2140   25.3540   40.7920 C   0  0  0  0  0  0  0  0  0  0  0  0
   36.9450   26.1650   39.7320 N   0  0  0  0  0  0  0  0  0  0  0  0
   34.9900   24.2200   37.9630 H   0  0  0  0  0  0  0  0  0  0  0  0
   35.4330   22.7030   39.8500 H   0  0  0  0  0  0  0  0  0  0  0  0
   38.0930   25.8390   41.8830 C   0  0  0  0  0  0  0  0  0  0  0  0
   37.8350   27.0730   42.4440 C   0  0  0  0  0  0  0  0  0  0  0  0
   36.9900   27.6740   42.0800 H   0  0  0  0  0  0  0  0  0  0  0  0
   38.6810   27.5000   43.4690 C   0  0  0  0  0  3  0  0  0  0  0  0
   39.7320   26.6680   43.8670 C   0  0  0  0  0  0  0  0  0  0  0  0
   40.3620   27.0220   44.6530 H   0  0  0  0  0  0  0  0  0  0  0  0
   39.9250   25.4470   43.2550 C   0  0  0  0  0  0  0  0  0  0  0  0
   40.7440   24.8080   43.5730 H   0  0  0  0  0  0  0  0  0  0  0  0
   39.1120   24.9860   42.2390 C   0  0  0  0  0  3  0  0  0  0  0  0
   35.9870   26.7640   37.6860 C   0  0  0  0  0  0  0  0  0  0  0  0
   36.9860   27.1040   37.3070 H   0  0  0  0  0  0  0  0  0  0  0  0
   35.4540   26.3590   36.7950 H   0  0  0  0  0  0  0  0  0  0  0  0
   35.2890   27.8450   38.2530 O   0  0  0  0  0  0  0  0  0  0  0  0
   36.2120   30.7960   40.0210 C   0  0  0  0  0  0  0  0  0  0  0  0
   37.1210   31.4180   39.1800 C   0  0  0  0  0  0  0  0  0  0  0  0
   37.4170   30.7840   37.9640 C   0  0  0  0  0  0  0  0  0  0  0  0
   36.8150   29.6230   37.6720 N   0  0  0  0  0  0  0  0  0  0  0  0
   35.9360   29.0530   38.5210 C   0  0  0  0  0  0  0  0  0  0  0  0
   35.6310   29.6290   39.6900 N   0  0  0  0  0  0  0  0  0  0  0  0
   35.9440   31.2430   40.9820 H   0  0  0  0  0  0  0  0  0  0  0  0
   38.1280   31.2730   37.3090 H   0  0  0  0  0  0  0  0  0  0  0  0
   37.7300   32.7140   39.6110 C   0  0  0  0  0  0  0  0  0  0  0  0
   37.9150   32.5860   40.9660 F   0  0  0  0  0  0  0  0  0  0  0  0
   36.7690   33.7020   39.3490 F   0  0  0  0  0  0  0  0  0  0  0  0
   38.8730   32.9320   38.9120 F   0  0  0  0  0  0  0  0  0  0  0  0
  1  2  2  0  0  0  0
  1  6  1  0  0  0  0
  2  3  1  0  0  0  0
  3  4  2  0  0  0  0
  5  4  1  0  0  0  0
  5  9  1  0  0  0  0
  6  5  2  0  0  0  0
  7  2  1  0  0  0  0
  8  3  1  0  0  0  0
  9 17  2  0  0  0  0
  9 10  1  0  0  0  0
 10 12  2  0  0  0  0
 11 10  1  0  0  0  0
 12 13  1  0  0  0  0
 13 14  1  0  0  0  0
 15 16  1  0  0  0  0
 15 13  2  0  0  0  0
 17 15  1  0  0  0  0
 18 21  1  0  0  0  0
 18  1  1  0  0  0  0
 19 18  1  0  0  0  0
 20 18  1  0  0  0  0
 21 26  1  0  0  0  0
 22 28  1  0  0  0  0
 23 30  1  0  0  0  0
 23 22  2  0  0  0  0
 24 23  1  0  0  0  0
 25 24  2  0  0  0  0
 25 26  1  0  0  0  0
 26 27  2  0  0  0  0
 27 22  1  0  0  0  0
 29 24  1  0  0  0  0
 30 31  1  0  0  0  0
 32 30  1  0  0  0  0
 33 30  1  0  0  0  0
M  END
>  <minimizedAffinity>
-5.41055632

$$$$
