
 OpenBabel03252502443D

 31 33  0  0  1  0  0  0  0  0999 V2000
   48.8540   35.1400   41.4650 C   0  0  1  0  0  0  0  0  0  0  0  0
   49.7720   34.9660   42.5690 C   0  0  0  0  0  0  0  0  0  0  0  0
   49.3990   33.8740   41.5720 C   0  0  1  0  0  0  0  0  0  0  0  0
   49.2190   35.9310   40.7420 H   0  0  0  0  0  0  0  0  0  0  0  0
   50.8580   35.2150   42.5200 H   0  0  0  0  0  0  0  0  0  0  0  0
   49.4070   34.9100   43.5900 H   0  0  0  0  0  0  0  0  0  0  0  0
   50.0510   33.7340   40.6390 H   0  0  0  0  0  0  0  0  0  0  0  0
   49.6360   32.6060   42.1590 C   0  0  0  0  0  0  0  0  0  0  0  0
   50.9330   32.0710   42.0700 C   0  0  0  0  0  0  0  0  0  0  0  0
   51.7140   32.6480   41.5540 H   0  0  0  0  0  0  0  0  0  0  0  0
   51.3350   30.8310   42.5980 C   0  0  0  0  0  0  0  0  0  0  0  0
   50.3040   30.1760   43.2260 C   0  0  0  0  0  0  0  0  0  0  0  0
   50.5850   29.2120   43.6420 H   0  0  0  0  0  0  0  0  0  0  0  0
   48.9980   30.5740   43.3870 C   0  0  0  0  0  0  0  0  0  0  0  0
   48.2710   29.9730   43.9030 H   0  0  0  0  0  0  0  0  0  0  0  0
   48.7250   31.7820   42.8410 C   0  0  0  0  0  0  0  0  0  0  0  0
   47.4100   35.4700   41.7610 C   0  0  0  0  0  0  0  0  0  0  0  0
   46.8630   35.8170   40.8620 H   0  0  0  0  0  0  0  0  0  0  0  0
   47.4150   36.3070   42.5260 H   0  0  0  0  0  0  0  0  0  0  0  0
   46.8790   34.1810   42.3090 C   0  0  0  0  0  0  0  0  0  0  0  0
   46.3040   33.5960   41.5710 H   0  0  0  0  0  0  0  0  0  0  0  0
   47.6570   33.6380   42.8230 H   0  0  0  0  0  0  0  0  0  0  0  0
   44.5290   35.8650   44.7150 C   0  0  0  0  0  0  0  0  0  0  0  0
   45.2620   35.5700   43.5280 C   0  0  0  0  0  0  0  0  0  0  0  0
   46.0740   34.4710   43.5370 C   0  0  0  0  0  0  0  0  0  0  0  0
   46.1500   33.7070   44.6630 N   0  0  0  0  0  0  0  0  0  0  0  0
   45.4630   33.9940   45.7550 C   0  0  0  0  0  0  0  0  0  0  0  0
   44.6580   35.0600   45.7940 N   0  0  0  0  0  0  0  0  0  0  0  0
   43.8650   36.6920   44.8350 H   0  0  0  0  0  0  0  0  0  0  0  0
   45.0350   36.2950   42.7770 H   0  0  0  0  0  0  0  0  0  0  0  0
   45.6470   33.2780   46.5500 H   0  0  0  0  0  0  0  0  0  0  0  0
  1  4  1  6  0  0  0
  1  3  1  0  0  0  0
  1 17  1  0  0  0  0
  1  2  1  0  0  0  0
  2  6  1  0  0  0  0
  3  7  1  6  0  0  0
  3  8  1  0  0  0  0
  3  2  1  0  0  0  0
  5  2  1  0  0  0  0
  8 16  1  0  0  0  0
  9  8  2  0  0  0  0
  9 11  1  0  0  0  0
 10  9  1  0  0  0  0
 11 12  2  0  0  0  0
 12 14  1  0  0  0  0
 12 13  1  0  0  0  0
 14 15  1  0  0  0  0
 16 14  2  0  0  0  0
 17 20  1  0  0  0  0
 17 19  1  0  0  0  0
 18 17  1  0  0  0  0
 20 22  1  0  0  0  0
 20 25  1  0  0  0  0
 21 20  1  0  0  0  0
 23 29  1  0  0  0  0
 23 28  1  0  0  0  0
 24 25  1  0  0  0  0
 24 23  2  0  0  0  0
 25 26  2  0  0  0  0
 26 27  1  0  0  0  0
 27 28  2  0  0  0  0
 27 31  1  0  0  0  0
 30 24  1  0  0  0  0
M  END
>  <minimizedAffinity>
-4.8502717

>  <minimizedRMSD>
0.717054069

$$$$
