
 OpenBabel03252504493D

 24 25  0  0  0  0  0  0  0  0999 V2000
   45.6930   34.5360   44.2020 C   0  0  0  0  0  0  0  0  0  0  0  0
   46.7750   34.2660   43.3630 C   0  0  0  0  0  0  0  0  0  0  0  0
   47.5670   33.1630   43.6920 C   0  0  0  0  0  0  0  0  0  0  0  0
   47.2490   32.4310   44.7860 N   0  0  0  0  0  0  0  0  0  0  0  0
   46.1880   32.7260   45.5770 C   0  0  0  0  0  0  0  0  0  0  0  0
   45.4150   33.7800   45.2800 N   0  0  0  0  0  0  0  0  0  0  0  0
   45.0080   35.3690   44.0440 H   0  0  0  0  0  0  0  0  0  0  0  0
   48.4060   32.9140   43.0840 H   0  0  0  0  0  0  0  0  0  0  0  0
   45.8640   31.9230   46.7510 C   0  0  0  0  0  0  0  0  0  0  0  0
   45.7690   32.5500   47.9860 C   0  0  0  0  0  0  0  0  0  0  0  0
   45.9270   33.6260   48.1270 H   0  0  0  0  0  0  0  0  0  0  0  0
   45.4680   31.8750   49.1520 C   0  0  0  0  0  0  0  0  0  0  0  0
   45.2470   30.5110   49.1020 C   0  0  0  0  0  0  0  0  0  0  0  0
   45.0040   29.9020   49.9770 H   0  0  0  0  0  0  0  0  0  0  0  0
   45.3440   29.8920   47.8570 C   0  0  0  0  0  0  0  0  0  0  0  0
   45.1760   28.8330   47.8060 H   0  0  0  0  0  0  0  0  0  0  0  0
   45.6470   30.5600   46.6750 C   0  0  0  0  0  0  0  0  0  0  0  0
   47.0160   35.1200   42.2220 C   0  0  0  0  0  0  0  0  0  0  0  0
   46.5370   34.6860   41.2960 H   0  0  0  0  0  0  0  0  0  0  0  0
   46.6890   36.1380   42.4110 H   0  0  0  0  0  0  0  0  0  0  0  0
   48.5100   35.1530   41.9500 C   0  0  0  0  0  0  0  0  0  0  0  0
   49.0070   35.7790   42.7180 H   0  0  0  0  0  0  0  0  0  0  0  0
   48.6340   35.7180   40.9850 H   0  0  0  0  0  0  0  0  0  0  0  0
   48.9160   34.1500   41.8240 H   0  0  0  0  0  0  0  0  0  0  0  0
  1  6  1  0  0  0  0
  2  3  1  0  0  0  0
  2  1  2  0  0  0  0
  3  4  2  0  0  0  0
  4  5  1  0  0  0  0
  5  9  1  0  0  0  0
  6  5  2  0  0  0  0
  7  1  1  0  0  0  0
  8  3  1  0  0  0  0
  9 10  1  0  0  0  0
 10 11  1  0  0  0  0
 10 12  2  0  0  0  0
 13 12  1  0  0  0  0
 13 14  1  0  0  0  0
 15 13  2  0  0  0  0
 16 15  1  0  0  0  0
 17  9  2  0  0  0  0
 17 15  1  0  0  0  0
 18 20  1  0  0  0  0
 18  2  1  0  0  0  0
 19 18  1  0  0  0  0
 21 18  1  0  0  0  0
 21 22  1  0  0  0  0
 23 21  1  0  0  0  0
 24 21  1  0  0  0  0
M  END
>  <minimizedAffinity>
-4.70856476

>  <minimizedRMSD>
1.95634615

$$$$
