
 OpenBabel03242515263D

 31 33  0  0  0  0  0  0  0  0999 V2000
   44.5150   35.5980   44.0970 C   0  0  0  0  0  0  0  0  0  0  0  0
   44.4770   34.9390   42.8730 C   0  0  0  0  0  0  0  0  0  0  0  0
   44.9060   33.6310   42.8500 C   0  0  0  0  0  0  0  0  0  0  0  0
   45.3330   33.0680   43.9990 N   0  0  0  0  0  0  0  0  0  0  0  0
   45.3590   33.7330   45.1720 C   0  0  0  0  0  0  0  0  0  0  0  0
   44.9510   35.0080   45.2440 N   0  0  0  0  0  0  0  0  0  0  0  0
   44.2010   36.6420   44.2520 H   0  0  0  0  0  0  0  0  0  0  0  0
   44.8710   33.1300   41.8920 H   0  0  0  0  0  0  0  0  0  0  0  0
   45.8420   33.0270   46.3560 C   0  0  0  0  0  0  0  0  0  0  0  0
   45.1620   33.0980   47.5560 C   0  0  0  0  0  0  0  0  0  0  0  0
   44.2530   33.6790   47.6580 H   0  0  0  0  0  0  0  0  0  0  0  0
   45.6120   32.4320   48.6840 C   0  0  0  0  0  0  0  0  0  0  0  0
   46.7740   31.6880   48.5590 C   0  0  0  0  0  0  0  0  0  0  0  0
   47.1000   31.1790   49.4590 H   0  0  0  0  0  0  0  0  0  0  0  0
   47.4920   31.5820   47.3840 C   0  0  0  0  0  0  0  0  0  0  0  0
   48.3910   30.9810   47.3670 H   0  0  0  0  0  0  0  0  0  0  0  0
   46.9910   32.2760   46.2760 C   0  0  0  0  0  0  0  0  0  0  0  0
   43.9800   35.7210   41.7370 C   0  0  0  0  0  0  0  0  0  0  0  0
   44.7630   35.6260   40.9320 H   0  0  0  0  0  0  0  0  0  0  0  0
   43.9380   36.7860   41.9620 H   0  0  0  0  0  0  0  0  0  0  0  0
   42.7270   35.1440   41.2830 N   0  0  0  0  0  0  0  0  0  0  0  0
   41.5970   35.3990   41.9320 C   0  0  0  0  0  0  0  0  0  0  0  0
   40.4260   34.8230   41.4590 C   0  0  0  0  0  0  0  0  0  0  0  0
   40.4310   34.0130   40.3540 C   0  0  0  0  0  0  0  0  0  0  0  0
   39.3650   33.5040   39.9440 O   0  0  0  0  0  0  0  0  0  0  0  0
   41.6040   33.7740   39.7150 N   0  0  0  0  0  0  0  0  0  0  0  0
   42.7600   34.3380   40.1760 C   0  0  0  0  0  0  0  0  0  0  0  0
   43.8060   34.0780   39.5440 O   0  0  0  0  0  0  0  0  0  0  0  0
   41.5410   36.0350   42.8150 H   0  0  0  0  0  0  0  0  0  0  0  0
   39.4850   34.9930   41.9430 H   0  0  0  0  0  0  0  0  0  0  0  0
   41.6330   33.1560   38.8660 H   0  0  0  0  0  0  0  0  0  0  0  0
  1  7  1  0  0  0  0
  1  6  1  0  0  0  0
  2  1  2  0  0  0  0
  3  2  1  0  0  0  0
  3  4  2  0  0  0  0
  4  5  1  0  0  0  0
  5  6  2  0  0  0  0
  5  9  1  0  0  0  0
  8  3  1  0  0  0  0
  9 10  1  0  0  0  0
 10 11  1  0  0  0  0
 10 12  2  0  0  0  0
 13 12  1  0  0  0  0
 13 14  1  0  0  0  0
 15 13  2  0  0  0  0
 16 15  1  0  0  0  0
 17  9  2  0  0  0  0
 17 15  1  0  0  0  0
 18 20  1  0  0  0  0
 18  2  1  0  0  0  0
 19 18  1  0  0  0  0
 21 18  1  0  0  0  0
 21 22  1  0  0  0  0
 22 29  1  0  0  0  0
 23 22  2  0  0  0  0
 23 30  1  0  0  0  0
 24 23  1  0  0  0  0
 25 24  2  0  0  0  0
 26 27  1  0  0  0  0
 26 24  1  0  0  0  0
 27 21  1  0  0  0  0
 28 27  2  0  0  0  0
 31 26  1  0  0  0  0
M  END
>  <minimizedAffinity>
-5.69403172

>  <minimizedRMSD>
1.11251307

$$$$
