
 OpenBabel03242511553D

 34 36  0  0  1  0  0  0  0  0999 V2000
   35.9930   29.6580   40.2210 C   0  0  2  0  0  0  0  0  0  0  0  0
   34.7690   28.9410   39.8050 C   0  0  0  0  0  0  0  0  0  0  0  0
   34.8610   28.3320   38.4440 C   0  0  0  0  0  0  0  0  0  0  0  0
   35.2730   29.3280   37.3770 C   0  0  0  0  0  0  0  0  0  0  0  0
   36.3470   30.2660   37.8130 C   0  0  0  0  0  0  0  0  0  0  0  0
   37.0050   29.8480   39.1070 C   0  0  1  0  0  0  0  0  0  0  0  0
   35.7340   30.6830   40.6230 H   0  0  0  0  0  0  0  0  0  0  0  0
   34.5340   28.1130   40.5080 H   0  0  0  0  0  0  0  0  0  0  0  0
   33.8960   29.6490   39.7810 H   0  0  0  0  0  0  0  0  0  0  0  0
   33.8000   28.0560   38.1670 H   0  0  0  0  0  0  0  0  0  0  0  0
   35.4260   27.4120   38.3450 H   0  0  0  0  0  0  0  0  0  0  0  0
   34.3940   29.8860   36.9830 H   0  0  0  0  0  0  0  0  0  0  0  0
   35.6350   28.7290   36.5080 H   0  0  0  0  0  0  0  0  0  0  0  0
   37.1720   30.2990   37.0550 H   0  0  0  0  0  0  0  0  0  0  0  0
   35.9650   31.3050   37.8470 H   0  0  0  0  0  0  0  0  0  0  0  0
   37.6110   28.9520   38.9410 H   0  0  0  0  0  0  0  0  0  0  0  0
   36.6830   28.9830   41.3370 C   0  0  0  0  0  0  0  0  0  0  0  0
   36.7980   27.5840   41.2300 C   0  0  0  0  0  0  0  0  0  0  0  0
   37.4310   26.8540   42.2430 C   0  0  0  0  0  0  0  0  0  0  0  0
   37.9100   27.5640   43.2980 N   0  0  0  0  0  0  0  0  0  0  0  0
   37.7910   28.9150   43.3840 C   0  0  0  0  0  0  0  0  0  0  0  0
   37.1760   29.6190   42.3990 N   0  0  0  0  0  0  0  0  0  0  0  0
   36.4480   26.9420   40.4340 H   0  0  0  0  0  0  0  0  0  0  0  0
   37.5520   25.7840   42.2240 H   0  0  0  0  0  0  0  0  0  0  0  0
   38.1900   29.4350   44.2440 H   0  0  0  0  0  0  0  0  0  0  0  0
   37.8710   30.9910   39.5110 C   0  0  0  0  0  0  0  0  0  0  0  0
   39.2530   30.8510   39.6230 C   0  0  0  0  0  0  0  0  0  0  0  0
   39.7190   29.8950   39.4150 H   0  0  0  0  0  0  0  0  0  0  0  0
   40.0490   31.9150   39.9980 C   0  0  0  0  0  3  0  0  0  0  0  0
   39.4680   33.1280   40.2630 C   0  0  0  0  0  0  0  0  0  0  0  0
   40.1210   33.9620   40.5590 H   0  0  0  0  0  0  0  0  0  0  0  0
   38.1040   33.2920   40.1580 C   0  0  0  0  0  0  0  0  0  0  0  0
   37.7200   34.2760   40.3830 H   0  0  0  0  0  0  0  0  0  0  0  0
   37.3110   32.2220   39.7830 C   0  0  0  0  0  3  0  0  0  0  0  0
  1  7  1  1  0  0  0
  1 17  1  0  0  0  0
  2  1  1  0  0  0  0
  2  8  1  0  0  0  0
  3  2  1  0  0  0  0
  4  5  1  0  0  0  0
  4  3  1  0  0  0  0
  5 15  1  0  0  0  0
  5  6  1  0  0  0  0
  6 16  1  6  0  0  0
  6 26  1  0  0  0  0
  6  1  1  0  0  0  0
  9  2  1  0  0  0  0
 10  3  1  0  0  0  0
 11  3  1  0  0  0  0
 12  4  1  0  0  0  0
 13  4  1  0  0  0  0
 14  5  1  0  0  0  0
 17 22  1  0  0  0  0
 18 17  2  0  0  0  0
 18 19  1  0  0  0  0
 19 20  2  0  0  0  0
 20 21  1  0  0  0  0
 21 25  1  0  0  0  0
 22 21  2  0  0  0  0
 23 18  1  0  0  0  0
 24 19  1  0  0  0  0
 26 27  2  0  0  0  0
 26 34  1  0  0  0  0
 27 29  1  0  0  0  0
 28 27  1  0  0  0  0
 29 30  2  0  0  0  0
 30 31  1  0  0  0  0
 32 30  1  0  0  0  0
 32 33  1  0  0  0  0
 34 32  2  0  0  0  0
M  END
>  <minimizedAffinity>
-5.20704985

$$$$

 OpenBabel03242511553D

 34 36  0  0  1  0  0  0  0  0999 V2000
   38.5750   30.8760   40.2320 C   0  0  2  0  0  0  0  0  0  0  0  0
   39.6100   31.8840   40.5430 C   0  0  0  0  0  0  0  0  0  0  0  0
   39.0550   33.2080   40.9590 C   0  0  0  0  0  0  0  0  0  0  0  0
   38.0570   33.7700   39.9650 C   0  0  0  0  0  0  0  0  0  0  0  0
   37.1240   32.7490   39.4070 C   0  0  0  0  0  0  0  0  0  0  0  0
   37.1680   31.4380   40.1580 C   0  0  1  0  0  0  0  0  0  0  0  0
   38.7940   30.3760   39.2420 H   0  0  0  0  0  0  0  0  0  0  0  0
   40.2660   31.5400   41.3710 H   0  0  0  0  0  0  0  0  0  0  0  0
   40.2480   32.0740   39.6360 H   0  0  0  0  0  0  0  0  0  0  0  0
   39.9270   33.9270   40.9100 H   0  0  0  0  0  0  0  0  0  0  0  0
   38.6760   33.2950   41.9710 H   0  0  0  0  0  0  0  0  0  0  0  0
   38.5700   34.3280   39.1490 H   0  0  0  0  0  0  0  0  0  0  0  0
   37.4720   34.5470   40.5110 H   0  0  0  0  0  0  0  0  0  0  0  0
   36.0630   33.1020   39.4830 H   0  0  0  0  0  0  0  0  0  0  0  0
   37.2930   32.6220   38.3200 H   0  0  0  0  0  0  0  0  0  0  0  0
   36.7190   31.5640   41.1480 H   0  0  0  0  0  0  0  0  0  0  0  0
   38.5600   29.7720   41.2120 C   0  0  0  0  0  0  0  0  0  0  0  0
   39.0740   28.5430   40.7580 C   0  0  0  0  0  0  0  0  0  0  0  0
   39.0960   27.4350   41.6130 C   0  0  0  0  0  0  0  0  0  0  0  0
   38.6050   27.6210   42.8660 N   0  0  0  0  0  0  0  0  0  0  0  0
   38.1130   28.8160   43.2870 C   0  0  0  0  0  0  0  0  0  0  0  0
   38.0930   29.8880   42.4540 N   0  0  0  0  0  0  0  0  0  0  0  0
   39.4810   28.3050   39.7850 H   0  0  0  0  0  0  0  0  0  0  0  0
   39.4750   26.4670   41.3290 H   0  0  0  0  0  0  0  0  0  0  0  0
   37.7330   28.9140   44.2950 H   0  0  0  0  0  0  0  0  0  0  0  0
   36.3690   30.4770   39.3450 C   0  0  0  0  0  0  0  0  0  0  0  0
   35.3130   29.7600   39.9020 C   0  0  0  0  0  0  0  0  0  0  0  0
   35.0580   29.8930   40.9460 H   0  0  0  0  0  0  0  0  0  0  0  0
   34.5780   28.8710   39.1430 C   0  0  0  0  0  3  0  0  0  0  0  0
   34.8940   28.6940   37.8200 C   0  0  0  0  0  0  0  0  0  0  0  0
   34.2950   27.9830   37.2350 H   0  0  0  0  0  0  0  0  0  0  0  0
   35.9340   29.3950   37.2470 C   0  0  0  0  0  0  0  0  0  0  0  0
   36.1220   29.2020   36.2010 H   0  0  0  0  0  0  0  0  0  0  0  0
   36.6680   30.2830   38.0120 C   0  0  0  0  0  3  0  0  0  0  0  0
  1  7  1  6  0  0  0
  1  2  1  0  0  0  0
  1 17  1  0  0  0  0
  2  3  1  0  0  0  0
  2  8  1  0  0  0  0
  3 11  1  0  0  0  0
  4 13  1  0  0  0  0
  4  3  1  0  0  0  0
  5 14  1  0  0  0  0
  5  4  1  0  0  0  0
  5  6  1  0  0  0  0
  6  1  1  0  0  0  0
  6 16  1  1  0  0  0
  9  2  1  0  0  0  0
 10  3  1  0  0  0  0
 12  4  1  0  0  0  0
 15  5  1  0  0  0  0
 17 22  1  0  0  0  0
 18 17  2  0  0  0  0
 18 19  1  0  0  0  0
 19 20  2  0  0  0  0
 20 21  1  0  0  0  0
 21 25  1  0  0  0  0
 22 21  2  0  0  0  0
 23 18  1  0  0  0  0
 24 19  1  0  0  0  0
 26 27  1  0  0  0  0
 26  6  1  0  0  0  0
 27 28  1  0  0  0  0
 29 27  2  0  0  0  0
 30 29  1  0  0  0  0
 31 30  1  0  0  0  0
 32 30  2  0  0  0  0
 32 34  1  0  0  0  0
 33 32  1  0  0  0  0
 34 26  2  0  0  0  0
M  END
>  <minimizedAffinity>
-5.18634939

$$$$

 OpenBabel03242511553D

 34 36  0  0  1  0  0  0  0  0999 V2000
   37.4900   29.6080   41.7140 C   0  0  2  0  0  0  0  0  0  0  0  0
   38.1600   29.4560   43.0220 C   0  0  0  0  0  0  0  0  0  0  0  0
   38.8390   28.1370   43.2010 C   0  0  0  0  0  0  0  0  0  0  0  0
   37.9190   26.9590   42.9430 C   0  0  0  0  0  0  0  0  0  0  0  0
   37.0190   27.1450   41.7680 C   0  0  0  0  0  0  0  0  0  0  0  0
   37.4090   28.3250   40.9090 C   0  0  1  0  0  0  0  0  0  0  0  0
   36.4350   29.9910   41.8520 H   0  0  0  0  0  0  0  0  0  0  0  0
   38.9390   30.2360   43.1640 H   0  0  0  0  0  0  0  0  0  0  0  0
   37.4090   29.5460   43.8530 H   0  0  0  0  0  0  0  0  0  0  0  0
   39.0710   28.0670   44.3050 H   0  0  0  0  0  0  0  0  0  0  0  0
   39.7910   27.9930   42.7040 H   0  0  0  0  0  0  0  0  0  0  0  0
   37.3340   26.6950   43.8530 H   0  0  0  0  0  0  0  0  0  0  0  0
   38.5780   26.0760   42.7670 H   0  0  0  0  0  0  0  0  0  0  0  0
   37.0670   26.2530   41.0900 H   0  0  0  0  0  0  0  0  0  0  0  0
   35.9610   27.1860   42.0920 H   0  0  0  0  0  0  0  0  0  0  0  0
   38.3430   28.1070   40.3820 H   0  0  0  0  0  0  0  0  0  0  0  0
   38.1460   30.6230   40.8650 C   0  0  0  0  0  0  0  0  0  0  0  0
   37.4150   31.8070   40.6490 C   0  0  0  0  0  0  0  0  0  0  0  0
   37.9520   32.8250   39.8530 C   0  0  0  0  0  0  0  0  0  0  0  0
   39.1830   32.6000   39.3230 N   0  0  0  0  0  0  0  0  0  0  0  0
   39.8750   31.4510   39.5430 C   0  0  0  0  0  0  0  0  0  0  0  0
   39.3500   30.4660   40.3160 N   0  0  0  0  0  0  0  0  0  0  0  0
   36.4370   32.0680   41.0270 H   0  0  0  0  0  0  0  0  0  0  0  0
   37.4460   33.7530   39.6480 H   0  0  0  0  0  0  0  0  0  0  0  0
   40.8520   31.3200   39.0990 H   0  0  0  0  0  0  0  0  0  0  0  0
   36.2940   28.5050   39.9350 C   0  0  0  0  0  0  0  0  0  0  0  0
   36.4560   28.2030   38.5850 C   0  0  0  0  0  0  0  0  0  0  0  0
   37.4060   27.8300   38.2220 H   0  0  0  0  0  0  0  0  0  0  0  0
   35.4190   28.3720   37.6890 C   0  0  0  0  0  3  0  0  0  0  0  0
   34.2120   28.8440   38.1370 C   0  0  0  0  0  0  0  0  0  0  0  0
   33.4010   28.9700   37.4070 H   0  0  0  0  0  0  0  0  0  0  0  0
   34.0290   29.1480   39.4690 C   0  0  0  0  0  0  0  0  0  0  0  0
   33.0520   29.5150   39.7470 H   0  0  0  0  0  0  0  0  0  0  0  0
   35.0710   28.9780   40.3620 C   0  0  0  0  0  3  0  0  0  0  0  0
  1  7  1  1  0  0  0
  1  2  1  0  0  0  0
  2  8  1  0  0  0  0
  2  3  1  0  0  0  0
  2  9  1  0  0  0  0
  3 10  1  0  0  0  0
  4  3  1  0  0  0  0
  4 12  1  0  0  0  0
  5 15  1  0  0  0  0
  5  4  1  0  0  0  0
  6 16  1  6  0  0  0
  6  1  1  0  0  0  0
  6  5  1  0  0  0  0
 11  3  1  0  0  0  0
 13  4  1  0  0  0  0
 14  5  1  0  0  0  0
 17  1  1  0  0  0  0
 18 17  1  0  0  0  0
 18 23  1  0  0  0  0
 19 18  2  0  0  0  0
 20 21  2  0  0  0  0
 20 19  1  0  0  0  0
 21 22  1  0  0  0  0
 22 17  2  0  0  0  0
 24 19  1  0  0  0  0
 25 21  1  0  0  0  0
 26 34  1  0  0  0  0
 26  6  1  0  0  0  0
 27 26  2  0  0  0  0
 28 27  1  0  0  0  0
 29 30  2  0  0  0  0
 29 27  1  0  0  0  0
 30 32  1  0  0  0  0
 31 30  1  0  0  0  0
 32 33  1  0  0  0  0
 32 34  2  0  0  0  0
M  END
>  <minimizedAffinity>
-5.17082644

$$$$

 OpenBabel03242511553D

 34 36  0  0  1  0  0  0  0  0999 V2000
   37.1400   28.3740   40.7800 C   0  0  2  0  0  0  0  0  0  0  0  0
   37.0080   27.1000   41.5170 C   0  0  0  0  0  0  0  0  0  0  0  0
   36.6920   27.2730   42.9670 C   0  0  0  0  0  0  0  0  0  0  0  0
   37.6660   28.1920   43.6790 C   0  0  0  0  0  0  0  0  0  0  0  0
   38.0480   29.3950   42.8840 C   0  0  0  0  0  0  0  0  0  0  0  0
   37.1720   29.6020   41.6700 C   0  0  1  0  0  0  0  0  0  0  0  0
   38.0870   28.3770   40.1610 H   0  0  0  0  0  0  0  0  0  0  0  0
   36.1970   26.4740   41.0880 H   0  0  0  0  0  0  0  0  0  0  0  0
   37.9720   26.5230   41.4660 H   0  0  0  0  0  0  0  0  0  0  0  0
   36.8760   26.2610   43.4370 H   0  0  0  0  0  0  0  0  0  0  0  0
   35.6700   27.5230   43.2290 H   0  0  0  0  0  0  0  0  0  0  0  0
   38.5690   27.6380   44.0210 H   0  0  0  0  0  0  0  0  0  0  0  0
   37.1630   28.5170   44.6210 H   0  0  0  0  0  0  0  0  0  0  0  0
   37.9340   30.3250   43.4980 H   0  0  0  0  0  0  0  0  0  0  0  0
   39.1260   29.3650   42.6300 H   0  0  0  0  0  0  0  0  0  0  0  0
   36.1710   29.9120   41.9850 H   0  0  0  0  0  0  0  0  0  0  0  0
   36.0530   28.5660   39.7990 C   0  0  0  0  0  0  0  0  0  0  0  0
   36.3740   28.2640   38.4620 C   0  0  0  0  0  0  0  0  0  0  0  0
   35.4110   28.4210   37.4590 C   0  0  0  0  0  0  0  0  0  0  0  0
   34.1890   28.8690   37.8510 N   0  0  0  0  0  0  0  0  0  0  0  0
   33.8970   29.1550   39.1470 C   0  0  0  0  0  0  0  0  0  0  0  0
   34.8350   29.0020   40.1170 N   0  0  0  0  0  0  0  0  0  0  0  0
   37.3130   27.9070   38.0630 H   0  0  0  0  0  0  0  0  0  0  0  0
   35.5900   28.2080   36.4180 H   0  0  0  0  0  0  0  0  0  0  0  0
   32.9090   29.5080   39.4080 H   0  0  0  0  0  0  0  0  0  0  0  0
   37.8240   30.6840   40.8780 C   0  0  0  0  0  0  0  0  0  0  0  0
   37.1290   31.8350   40.5150 C   0  0  0  0  0  0  0  0  0  0  0  0
   36.0930   31.9590   40.8080 H   0  0  0  0  0  0  0  0  0  0  0  0
   37.7400   32.8330   39.7810 C   0  0  0  0  0  3  0  0  0  0  0  0
   39.0500   32.6860   39.4060 C   0  0  0  0  0  0  0  0  0  0  0  0
   39.5160   33.4930   38.8230 H   0  0  0  0  0  0  0  0  0  0  0  0
   39.7580   31.5560   39.7550 C   0  0  0  0  0  0  0  0  0  0  0  0
   40.7850   31.5120   39.4230 H   0  0  0  0  0  0  0  0  0  0  0  0
   39.1410   30.5590   40.4890 C   0  0  0  0  0  3  0  0  0  0  0  0
  1  7  1  6  0  0  0
  1  2  1  0  0  0  0
  1  6  1  0  0  0  0
  2  3  1  0  0  0  0
  3 11  1  0  0  0  0
  3 10  1  0  0  0  0
  3  4  1  0  0  0  0
  4 12  1  0  0  0  0
  4 13  1  0  0  0  0
  5 14  1  0  0  0  0
  5  4  1  0  0  0  0
  6 16  1  1  0  0  0
  6  5  1  0  0  0  0
  8  2  1  0  0  0  0
  9  2  1  0  0  0  0
 15  5  1  0  0  0  0
 17 22  1  0  0  0  0
 17  1  1  0  0  0  0
 18 17  2  0  0  0  0
 19 20  2  0  0  0  0
 19 18  1  0  0  0  0
 20 21  1  0  0  0  0
 21 25  1  0  0  0  0
 21 22  2  0  0  0  0
 23 18  1  0  0  0  0
 24 19  1  0  0  0  0
 26  6  1  0  0  0  0
 27 28  1  0  0  0  0
 27 26  1  0  0  0  0
 29 27  2  0  0  0  0
 30 32  2  0  0  0  0
 30 29  1  0  0  0  0
 31 30  1  0  0  0  0
 32 34  1  0  0  0  0
 33 32  1  0  0  0  0
 34 26  2  0  0  0  0
M  END
>  <minimizedAffinity>
-5.07322121

$$$$

 OpenBabel03242511553D

 34 36  0  0  1  0  0  0  0  0999 V2000
   37.5570   27.0020   42.3880 C   0  0  2  0  0  0  0  0  0  0  0  0
   38.2330   27.4260   43.6330 C   0  0  0  0  0  0  0  0  0  0  0  0
   39.6840   27.0730   43.6790 C   0  0  0  0  0  0  0  0  0  0  0  0
   39.9450   25.6020   43.4150 C   0  0  0  0  0  0  0  0  0  0  0  0
   39.1060   25.0300   42.3230 C   0  0  0  0  0  0  0  0  0  0  0  0
   38.3920   26.0870   41.5130 C   0  0  1  0  0  0  0  0  0  0  0  0
   36.5940   26.4600   42.6260 H   0  0  0  0  0  0  0  0  0  0  0  0
   38.1690   28.5270   43.7660 H   0  0  0  0  0  0  0  0  0  0  0  0
   37.7540   26.9290   44.5200 H   0  0  0  0  0  0  0  0  0  0  0  0
   39.9930   27.2180   44.7570 H   0  0  0  0  0  0  0  0  0  0  0  0
   40.3670   27.6900   43.1060 H   0  0  0  0  0  0  0  0  0  0  0  0
   39.8470   25.0010   44.3470 H   0  0  0  0  0  0  0  0  0  0  0  0
   41.0220   25.5170   43.1380 H   0  0  0  0  0  0  0  0  0  0  0  0
   39.7430   24.4710   41.5890 H   0  0  0  0  0  0  0  0  0  0  0  0
   38.4150   24.2640   42.7240 H   0  0  0  0  0  0  0  0  0  0  0  0
   39.1160   26.6400   40.9070 H   0  0  0  0  0  0  0  0  0  0  0  0
   37.1430   28.1520   41.5600 C   0  0  0  0  0  0  0  0  0  0  0  0
   38.1880   28.9280   41.0230 C   0  0  0  0  0  0  0  0  0  0  0  0
   37.8940   30.0420   40.2290 C   0  0  0  0  0  0  0  0  0  0  0  0
   36.5790   30.3140   40.0200 N   0  0  0  0  0  0  0  0  0  0  0  0
   35.5830   29.5520   40.5460 C   0  0  0  0  0  0  0  0  0  0  0  0
   35.8730   28.4720   41.3160 N   0  0  0  0  0  0  0  0  0  0  0  0
   39.2530   28.7870   41.1370 H   0  0  0  0  0  0  0  0  0  0  0  0
   38.6440   30.6770   39.7880 H   0  0  0  0  0  0  0  0  0  0  0  0
   34.5510   29.8090   40.3510 H   0  0  0  0  0  0  0  0  0  0  0  0
   37.4370   25.3510   40.6360 C   0  0  0  0  0  0  0  0  0  0  0  0
   37.2960   25.6730   39.2880 C   0  0  0  0  0  0  0  0  0  0  0  0
   37.8850   26.4730   38.8560 H   0  0  0  0  0  0  0  0  0  0  0  0
   36.4090   24.9880   38.4820 C   0  0  0  0  0  3  0  0  0  0  0  0
   35.6580   23.9740   39.0180 C   0  0  0  0  0  0  0  0  0  0  0  0
   34.9590   23.4410   38.3580 H   0  0  0  0  0  0  0  0  0  0  0  0
   35.7820   23.6370   40.3490 C   0  0  0  0  0  0  0  0  0  0  0  0
   35.1570   22.8280   40.6990 H   0  0  0  0  0  0  0  0  0  0  0  0
   36.6710   24.3280   41.1520 C   0  0  0  0  0  3  0  0  0  0  0  0
  1  7  1  1  0  0  0
  1  2  1  0  0  0  0
  2  3  1  0  0  0  0
  2  8  1  0  0  0  0
  2  9  1  0  0  0  0
  3 10  1  0  0  0  0
  4  3  1  0  0  0  0
  4 12  1  0  0  0  0
  5 15  1  0  0  0  0
  5  4  1  0  0  0  0
  6 16  1  6  0  0  0
  6  5  1  0  0  0  0
  6  1  1  0  0  0  0
 11  3  1  0  0  0  0
 13  4  1  0  0  0  0
 14  5  1  0  0  0  0
 17  1  1  0  0  0  0
 18 23  1  0  0  0  0
 18 17  2  0  0  0  0
 19 18  1  0  0  0  0
 20 19  2  0  0  0  0
 20 21  1  0  0  0  0
 21 22  2  0  0  0  0
 22 17  1  0  0  0  0
 24 19  1  0  0  0  0
 25 21  1  0  0  0  0
 26 34  1  0  0  0  0
 26  6  1  0  0  0  0
 27 26  2  0  0  0  0
 28 27  1  0  0  0  0
 29 30  2  0  0  0  0
 29 27  1  0  0  0  0
 30 32  1  0  0  0  0
 31 30  1  0  0  0  0
 32 33  1  0  0  0  0
 32 34  2  0  0  0  0
M  END
>  <minimizedAffinity>
-5.06895399

$$$$

 OpenBabel03242511553D

 34 36  0  0  1  0  0  0  0  0999 V2000
   36.8910   30.6870   40.5480 C   0  0  2  0  0  0  0  0  0  0  0  0
   37.1140   32.1370   40.3740 C   0  0  0  0  0  0  0  0  0  0  0  0
   38.5550   32.5140   40.2440 C   0  0  0  0  0  0  0  0  0  0  0  0
   39.4090   31.9840   41.3800 C   0  0  0  0  0  0  0  0  0  0  0  0
   39.0700   30.5900   41.7870 C   0  0  0  0  0  0  0  0  0  0  0  0
   38.1590   29.8940   40.8040 C   0  0  1  0  0  0  0  0  0  0  0  0
   36.1890   30.4950   41.4130 H   0  0  0  0  0  0  0  0  0  0  0  0
   36.6040   32.5120   39.4610 H   0  0  0  0  0  0  0  0  0  0  0  0
   36.7150   32.6980   41.2630 H   0  0  0  0  0  0  0  0  0  0  0  0
   38.5840   33.6360   40.3780 H   0  0  0  0  0  0  0  0  0  0  0  0
   39.0340   32.3330   39.2890 H   0  0  0  0  0  0  0  0  0  0  0  0
   39.3890   32.6700   42.2560 H   0  0  0  0  0  0  0  0  0  0  0  0
   40.4660   32.0180   41.0220 H   0  0  0  0  0  0  0  0  0  0  0  0
   39.9950   29.9590   41.8370 H   0  0  0  0  0  0  0  0  0  0  0  0
   38.6720   30.5740   42.8210 H   0  0  0  0  0  0  0  0  0  0  0  0
   38.7060   29.6780   39.8810 H   0  0  0  0  0  0  0  0  0  0  0  0
   36.2180   30.0820   39.3810 C   0  0  0  0  0  0  0  0  0  0  0  0
   34.9920   29.4430   39.6450 C   0  0  0  0  0  0  0  0  0  0  0  0
   34.2820   28.8350   38.6030 C   0  0  0  0  0  0  0  0  0  0  0  0
   34.8380   28.9020   37.3650 N   0  0  0  0  0  0  0  0  0  0  0  0
   36.0230   29.5250   37.1290 C   0  0  0  0  0  0  0  0  0  0  0  0
   36.7090   30.1130   38.1430 N   0  0  0  0  0  0  0  0  0  0  0  0
   34.4800   29.3410   40.5910 H   0  0  0  0  0  0  0  0  0  0  0  0
   33.3400   28.3290   38.7350 H   0  0  0  0  0  0  0  0  0  0  0  0
   36.4240   29.5520   36.1250 H   0  0  0  0  0  0  0  0  0  0  0  0
   37.7400   28.6250   41.4650 C   0  0  0  0  0  0  0  0  0  0  0  0
   37.9420   27.3890   40.8570 C   0  0  0  0  0  0  0  0  0  0  0  0
   38.4120   27.3340   39.8820 H   0  0  0  0  0  0  0  0  0  0  0  0
   37.5510   26.2180   41.4760 C   0  0  0  0  0  3  0  0  0  0  0  0
   36.9540   26.2760   42.7090 C   0  0  0  0  0  0  0  0  0  0  0  0
   36.6520   25.3330   43.1840 H   0  0  0  0  0  0  0  0  0  0  0  0
   36.7450   27.4880   43.3310 C   0  0  0  0  0  0  0  0  0  0  0  0
   36.2700   27.4540   44.3010 H   0  0  0  0  0  0  0  0  0  0  0  0
   37.1380   28.6580   42.7060 C   0  0  0  0  0  3  0  0  0  0  0  0
  1  6  1  0  0  0  0
  1  7  1  1  0  0  0
  2  1  1  0  0  0  0
  2  9  1  0  0  0  0
  3  2  1  0  0  0  0
  3 10  1  0  0  0  0
  3  4  1  0  0  0  0
  4  5  1  0  0  0  0
  4 12  1  0  0  0  0
  5 14  1  0  0  0  0
  5 15  1  0  0  0  0
  6 16  1  6  0  0  0
  6 26  1  0  0  0  0
  6  5  1  0  0  0  0
  8  2  1  0  0  0  0
 11  3  1  0  0  0  0
 13  4  1  0  0  0  0
 17 18  1  0  0  0  0
 17  1  1  0  0  0  0
 18 23  1  0  0  0  0
 19 24  1  0  0  0  0
 19 18  2  0  0  0  0
 20 19  1  0  0  0  0
 21 20  2  0  0  0  0
 21 22  1  0  0  0  0
 22 17  2  0  0  0  0
 25 21  1  0  0  0  0
 26 34  1  0  0  0  0
 27 26  2  0  0  0  0
 27 29  1  0  0  0  0
 28 27  1  0  0  0  0
 29 30  2  0  0  0  0
 30 31  1  0  0  0  0
 30 32  1  0  0  0  0
 32 33  1  0  0  0  0
 34 32  2  0  0  0  0
M  END
>  <minimizedAffinity>
-5.03349638

$$$$

 OpenBabel03242511553D

 34 36  0  0  1  0  0  0  0  0999 V2000
   36.6900   30.5120   40.5200 C   0  0  2  0  0  0  0  0  0  0  0  0
   36.8790   31.9690   40.3600 C   0  0  0  0  0  0  0  0  0  0  0  0
   38.3060   32.3740   40.1780 C   0  0  0  0  0  0  0  0  0  0  0  0
   39.2160   31.8440   41.2690 C   0  0  0  0  0  0  0  0  0  0  0  0
   38.9190   30.4380   41.6690 C   0  0  0  0  0  0  0  0  0  0  0  0
   37.9820   29.7390   40.7120 C   0  0  1  0  0  0  0  0  0  0  0  0
   36.0280   30.2940   41.4110 H   0  0  0  0  0  0  0  0  0  0  0  0
   36.3250   32.3470   39.4750 H   0  0  0  0  0  0  0  0  0  0  0  0
   36.5070   32.5090   41.2740 H   0  0  0  0  0  0  0  0  0  0  0  0
   38.3200   33.4950   40.3280 H   0  0  0  0  0  0  0  0  0  0  0  0
   38.7490   32.2160   39.2010 H   0  0  0  0  0  0  0  0  0  0  0  0
   39.2180   32.5170   42.1560 H   0  0  0  0  0  0  0  0  0  0  0  0
   40.2560   31.9040   40.8700 H   0  0  0  0  0  0  0  0  0  0  0  0
   39.8570   29.8240   41.6710 H   0  0  0  0  0  0  0  0  0  0  0  0
   38.5640   30.3990   42.7170 H   0  0  0  0  0  0  0  0  0  0  0  0
   38.4950   29.5480   39.7650 H   0  0  0  0  0  0  0  0  0  0  0  0
   35.9810   29.9120   39.3730 C   0  0  0  0  0  0  0  0  0  0  0  0
   36.6410   29.9970   38.1320 C   0  0  0  0  0  0  0  0  0  0  0  0
   36.0450   29.4620   36.9850 C   0  0  0  0  0  0  0  0  0  0  0  0
   34.8290   28.8770   37.1450 N   0  0  0  0  0  0  0  0  0  0  0  0
   34.2070   28.8030   38.3510 C   0  0  0  0  0  0  0  0  0  0  0  0
   34.7890   29.3230   39.4620 N   0  0  0  0  0  0  0  0  0  0  0  0
   37.6010   30.4420   37.9140 H   0  0  0  0  0  0  0  0  0  0  0  0
   36.4950   29.4930   36.0060 H   0  0  0  0  0  0  0  0  0  0  0  0
   33.2390   28.3260   38.4270 H   0  0  0  0  0  0  0  0  0  0  0  0
   37.6130   28.4540   41.3710 C   0  0  0  0  0  0  0  0  0  0  0  0
   37.0370   28.4270   42.6390 C   0  0  0  0  0  0  0  0  0  0  0  0
   36.8480   29.3540   43.1680 H   0  0  0  0  0  0  0  0  0  0  0  0
   36.6990   27.2320   43.2420 C   0  0  0  0  0  3  0  0  0  0  0  0
   36.9340   26.0550   42.5810 C   0  0  0  0  0  0  0  0  0  0  0  0
   36.6560   25.1160   43.0800 H   0  0  0  0  0  0  0  0  0  0  0  0
   37.5020   26.0560   41.3250 C   0  0  0  0  0  0  0  0  0  0  0  0
   37.6570   25.0890   40.8680 H   0  0  0  0  0  0  0  0  0  0  0  0
   37.8400   27.2560   40.7260 C   0  0  0  0  0  3  0  0  0  0  0  0
  1  6  1  0  0  0  0
  1  7  1  1  0  0  0
  2  1  1  0  0  0  0
  2  9  1  0  0  0  0
  3 10  1  0  0  0  0
  3  2  1  0  0  0  0
  3  4  1  0  0  0  0
  4  5  1  0  0  0  0
  4 12  1  0  0  0  0
  5 14  1  0  0  0  0
  5 15  1  0  0  0  0
  6 16  1  6  0  0  0
  6 26  1  0  0  0  0
  6  5  1  0  0  0  0
  8  2  1  0  0  0  0
 11  3  1  0  0  0  0
 13  4  1  0  0  0  0
 17 22  1  0  0  0  0
 17  1  1  0  0  0  0
 18 17  2  0  0  0  0
 19 20  2  0  0  0  0
 19 18  1  0  0  0  0
 20 21  1  0  0  0  0
 21 25  1  0  0  0  0
 21 22  2  0  0  0  0
 23 18  1  0  0  0  0
 24 19  1  0  0  0  0
 26 27  1  0  0  0  0
 27 28  1  0  0  0  0
 27 29  2  0  0  0  0
 30 31  1  0  0  0  0
 30 29  1  0  0  0  0
 32 30  2  0  0  0  0
 33 32  1  0  0  0  0
 34 32  1  0  0  0  0
 34 26  2  0  0  0  0
M  END
>  <minimizedAffinity>
-4.95441437

$$$$

 OpenBabel03242511553D

 34 36  0  0  1  0  0  0  0  0999 V2000
   37.7060   29.6250   39.2060 C   0  0  2  0  0  0  0  0  0  0  0  0
   37.3030   29.7770   37.7920 C   0  0  0  0  0  0  0  0  0  0  0  0
   35.8320   29.6470   37.5670 C   0  0  0  0  0  0  0  0  0  0  0  0
   35.2580   28.3650   38.1400 C   0  0  0  0  0  0  0  0  0  0  0  0
   35.8100   28.0040   39.4780 C   0  0  0  0  0  0  0  0  0  0  0  0
   36.5960   29.1270   40.1130 C   0  0  1  0  0  0  0  0  0  0  0  0
   38.5690   28.9000   39.2960 H   0  0  0  0  0  0  0  0  0  0  0  0
   37.5970   30.7750   37.4000 H   0  0  0  0  0  0  0  0  0  0  0  0
   37.7960   28.9860   37.1630 H   0  0  0  0  0  0  0  0  0  0  0  0
   35.7090   29.5270   36.4490 H   0  0  0  0  0  0  0  0  0  0  0  0
   35.2090   30.4940   37.8290 H   0  0  0  0  0  0  0  0  0  0  0  0
   35.3650   27.5190   37.4250 H   0  0  0  0  0  0  0  0  0  0  0  0
   34.1570   28.5230   38.2250 H   0  0  0  0  0  0  0  0  0  0  0  0
   34.9810   27.7750   40.1970 H   0  0  0  0  0  0  0  0  0  0  0  0
   36.3880   27.0620   39.4180 H   0  0  0  0  0  0  0  0  0  0  0  0
   35.9160   29.9300   40.4140 H   0  0  0  0  0  0  0  0  0  0  0  0
   38.2160   30.8850   39.7800 C   0  0  0  0  0  0  0  0  0  0  0  0
   37.3130   31.9650   39.7860 C   0  0  0  0  0  0  0  0  0  0  0  0
   37.7080   33.2040   40.3050 C   0  0  0  0  0  0  0  0  0  0  0  0
   38.9770   33.2890   40.7840 N   0  0  0  0  0  0  0  0  0  0  0  0
   39.8340   32.2350   40.7710 C   0  0  0  0  0  0  0  0  0  0  0  0
   39.4480   31.0350   40.2660 N   0  0  0  0  0  0  0  0  0  0  0  0
   36.2940   31.9880   39.4270 H   0  0  0  0  0  0  0  0  0  0  0  0
   37.0680   34.0700   40.3390 H   0  0  0  0  0  0  0  0  0  0  0  0
   40.8350   32.3520   41.1650 H   0  0  0  0  0  0  0  0  0  0  0  0
   37.2590   28.5340   41.3090 C   0  0  0  0  0  0  0  0  0  0  0  0
   37.1120   29.0970   42.5740 C   0  0  0  0  0  0  0  0  0  0  0  0
   36.5050   29.9860   42.7050 H   0  0  0  0  0  0  0  0  0  0  0  0
   37.7290   28.5420   43.6770 C   0  0  0  0  0  3  0  0  0  0  0  0
   38.4990   27.4180   43.5220 C   0  0  0  0  0  0  0  0  0  0  0  0
   38.9800   26.9920   44.4140 H   0  0  0  0  0  0  0  0  0  0  0  0
   38.6580   26.8420   42.2800 C   0  0  0  0  0  0  0  0  0  0  0  0
   39.2780   25.9590   42.2370 H   0  0  0  0  0  0  0  0  0  0  0  0
   38.0380   27.4030   41.1780 C   0  0  0  0  0  3  0  0  0  0  0  0
  1  7  1  1  0  0  0
  1 17  1  0  0  0  0
  1  6  1  0  0  0  0
  2  1  1  0  0  0  0
  3  2  1  0  0  0  0
  3 11  1  0  0  0  0
  3  4  1  0  0  0  0
  4 13  1  0  0  0  0
  4  5  1  0  0  0  0
  5  6  1  0  0  0  0
  5 14  1  0  0  0  0
  6 16  1  1  0  0  0
  6 26  1  0  0  0  0
  8  2  1  0  0  0  0
  9  2  1  0  0  0  0
 10  3  1  0  0  0  0
 12  4  1  0  0  0  0
 15  5  1  0  0  0  0
 17 18  2  0  0  0  0
 17 22  1  0  0  0  0
 18 19  1  0  0  0  0
 19 24  1  0  0  0  0
 19 20  2  0  0  0  0
 21 20  1  0  0  0  0
 21 25  1  0  0  0  0
 22 21  2  0  0  0  0
 23 18  1  0  0  0  0
 26 27  1  0  0  0  0
 27 28  1  0  0  0  0
 27 29  2  0  0  0  0
 30 29  1  0  0  0  0
 30 31  1  0  0  0  0
 32 30  2  0  0  0  0
 33 32  1  0  0  0  0
 34 26  2  0  0  0  0
 34 32  1  0  0  0  0
M  END
>  <minimizedAffinity>
-4.89961004

$$$$

 OpenBabel03242511553D

 34 36  0  0  1  0  0  0  0  0999 V2000
   38.2160   28.7140   41.0600 C   0  0  2  0  0  0  0  0  0  0  0  0
   37.0310   27.8510   40.8720 C   0  0  0  0  0  0  0  0  0  0  0  0
   36.0930   27.8540   42.0350 C   0  0  0  0  0  0  0  0  0  0  0  0
   36.7780   27.5250   43.3480 C   0  0  0  0  0  0  0  0  0  0  0  0
   38.1130   28.1700   43.5070 C   0  0  0  0  0  0  0  0  0  0  0  0
   38.3770   29.2400   42.4730 C   0  0  1  0  0  0  0  0  0  0  0  0
   39.1610   28.1530   40.7960 H   0  0  0  0  0  0  0  0  0  0  0  0
   36.4410   28.1720   39.9870 H   0  0  0  0  0  0  0  0  0  0  0  0
   37.3520   26.7830   40.7210 H   0  0  0  0  0  0  0  0  0  0  0  0
   35.3980   26.9780   41.8610 H   0  0  0  0  0  0  0  0  0  0  0  0
   35.4410   28.7110   42.1490 H   0  0  0  0  0  0  0  0  0  0  0  0
   36.8470   26.4250   43.5040 H   0  0  0  0  0  0  0  0  0  0  0  0
   36.0970   27.8810   44.1560 H   0  0  0  0  0  0  0  0  0  0  0  0
   38.1850   28.6870   44.4980 H   0  0  0  0  0  0  0  0  0  0  0  0
   38.9130   27.4040   43.5390 H   0  0  0  0  0  0  0  0  0  0  0  0
   37.7400   30.1080   42.6680 H   0  0  0  0  0  0  0  0  0  0  0  0
   38.2070   29.8780   40.1520 C   0  0  0  0  0  0  0  0  0  0  0  0
   37.2160   30.8450   40.4050 C   0  0  0  0  0  0  0  0  0  0  0  0
   37.1250   31.9820   39.5930 C   0  0  0  0  0  0  0  0  0  0  0  0
   38.0260   32.0830   38.5810 N   0  0  0  0  0  0  0  0  0  0  0  0
   38.9770   31.1400   38.3530 C   0  0  0  0  0  0  0  0  0  0  0  0
   39.0620   30.0380   39.1420 N   0  0  0  0  0  0  0  0  0  0  0  0
   36.4630   30.8460   41.1800 H   0  0  0  0  0  0  0  0  0  0  0  0
   36.3910   32.7580   39.7310 H   0  0  0  0  0  0  0  0  0  0  0  0
   39.6730   31.2670   37.5340 H   0  0  0  0  0  0  0  0  0  0  0  0
   39.8140   29.6090   42.6280 C   0  0  0  0  0  0  0  0  0  0  0  0
   40.2160   30.9400   42.7150 C   0  0  0  0  0  0  0  0  0  0  0  0
   39.4790   31.7330   42.6700 H   0  0  0  0  0  0  0  0  0  0  0  0
   41.5480   31.2730   42.8570 C   0  0  0  0  0  3  0  0  0  0  0  0
   42.4880   30.2770   42.9140 C   0  0  0  0  0  0  0  0  0  0  0  0
   43.5420   30.5650   43.0280 H   0  0  0  0  0  0  0  0  0  0  0  0
   42.1140   28.9530   42.8310 C   0  0  0  0  0  0  0  0  0  0  0  0
   42.9110   28.2250   42.8840 H   0  0  0  0  0  0  0  0  0  0  0  0
   40.7780   28.6240   42.6880 C   0  0  0  0  0  3  0  0  0  0  0  0
  1  7  1  6  0  0  0
  1  6  1  0  0  0  0
  2  1  1  0  0  0  0
  2  3  1  0  0  0  0
  3 11  1  0  0  0  0
  3  4  1  0  0  0  0
  4 12  1  0  0  0  0
  4  5  1  0  0  0  0
  4 13  1  0  0  0  0
  5 15  1  0  0  0  0
  5 14  1  0  0  0  0
  6 26  1  0  0  0  0
  6 16  1  1  0  0  0
  6  5  1  0  0  0  0
  8  2  1  0  0  0  0
  9  2  1  0  0  0  0
 10  3  1  0  0  0  0
 17 18  1  0  0  0  0
 17  1  1  0  0  0  0
 18 23  1  0  0  0  0
 19 24  1  0  0  0  0
 19 18  2  0  0  0  0
 20 19  1  0  0  0  0
 21 20  2  0  0  0  0
 21 22  1  0  0  0  0
 22 17  2  0  0  0  0
 25 21  1  0  0  0  0
 26 34  2  0  0  0  0
 26 27  1  0  0  0  0
 27 29  2  0  0  0  0
 28 27  1  0  0  0  0
 29 30  1  0  0  0  0
 30 31  1  0  0  0  0
 32 33  1  0  0  0  0
 32 30  2  0  0  0  0
 34 32  1  0  0  0  0
M  END
>  <minimizedAffinity>
-4.89762449

$$$$
