
 OpenBabel03252506563D

 38 42  0  0  0  0  0  0  0  0999 V2000
   47.2950   31.3260   45.1950 C   0  0  0  0  0  0  0  0  0  0  0  0
   46.9000   32.6600   45.1270 C   0  0  0  0  0  0  0  0  0  0  0  0
   46.2680   33.3150   46.1560 C   0  0  0  0  0  0  0  0  0  0  0  0
   45.9950   32.6380   47.3340 C   0  0  0  0  0  0  0  0  0  0  0  0
   45.4060   32.9400   48.5280 N   0  0  0  0  0  0  0  0  0  0  0  0
   45.4330   31.8320   49.3150 C   0  0  0  0  0  0  0  0  0  0  0  0
   46.0340   30.8580   48.6050 N   0  0  0  0  0  0  0  0  0  0  0  0
   46.3870   31.3210   47.3970 C   0  0  0  0  0  0  0  0  0  0  0  0
   47.0200   30.6470   46.3790 C   0  0  0  0  0  0  0  0  0  0  0  0
   47.7960   30.8240   44.3680 H   0  0  0  0  0  0  0  0  0  0  0  0
   45.9630   34.3550   46.0940 H   0  0  0  0  0  0  0  0  0  0  0  0
   45.0150   33.8930   48.7440 H   0  0  0  0  0  0  0  0  0  0  0  0
   45.0280   31.7800   50.3350 H   0  0  0  0  0  0  0  0  0  0  0  0
   46.6020   35.1170   42.3970 C   0  0  0  0  0  0  0  0  0  0  0  0
   47.6950   34.7900   41.5760 C   0  0  0  0  0  0  0  0  0  0  0  0
   48.5150   33.7370   41.9680 C   0  0  0  0  0  0  0  0  0  0  0  0
   48.2270   33.0660   43.1280 N   0  0  0  0  0  0  0  0  0  0  0  0
   47.1750   33.4030   43.8920 C   0  0  0  0  0  0  0  0  0  0  0  0
   46.3630   34.4220   43.5350 N   0  0  0  0  0  0  0  0  0  0  0  0
   45.9490   35.9300   42.1170 H   0  0  0  0  0  0  0  0  0  0  0  0
   47.8760   35.3510   40.6720 H   0  0  0  0  0  0  0  0  0  0  0  0
   49.3700   33.4510   41.3640 H   0  0  0  0  0  0  0  0  0  0  0  0
   47.4030   29.2370   46.5360 C   0  0  0  0  0  0  0  0  0  0  0  0
   48.6900   28.7630   46.4630 C   0  0  0  0  0  0  0  0  0  0  0  0
   48.5560   27.3790   46.6740 C   0  0  0  0  0  0  0  0  0  0  0  0
   47.2070   27.1040   46.8590 C   0  0  0  0  0  0  0  0  0  0  0  0
   46.5810   28.2580   46.7640 O   0  0  0  0  0  0  0  0  0  0  0  0
   49.6230   29.2960   46.2870 H   0  0  0  0  0  0  0  0  0  0  0  0
   49.3640   26.6530   46.6890 H   0  0  0  0  0  0  0  0  0  0  0  0
   46.5820   25.7880   47.1130 C   0  0  0  0  0  0  0  0  0  0  0  0
   47.4450   24.7430   47.3770 C   0  0  0  0  0  0  0  0  0  0  0  0
   48.5160   24.8950   47.3940 H   0  0  0  0  0  0  0  0  0  0  0  0
   46.8330   23.5080   47.6140 C   0  0  0  0  0  3  0  0  0  0  0  0
   45.4570   23.3590   47.5830 C   0  0  0  0  0  0  0  0  0  0  0  0
   45.0320   22.3810   47.7740 H   0  0  0  0  0  0  0  0  0  0  0  0
   44.6640   24.4560   47.3120 C   0  0  0  0  0  0  0  0  0  0  0  0
   43.5700   24.3620   47.2830 H   0  0  0  0  0  0  0  0  0  0  0  0
   45.2040   25.7240   47.0650 C   0  0  0  0  0  3  0  0  0  0  0  0
  1  9  1  0  0  0  0
  2  1  2  0  0  0  0
  2  3  1  0  0  0  0
  3  4  2  0  0  0  0
  4  8  1  0  0  0  0
  4  5  1  0  0  0  0
  5 12  1  0  0  0  0
  5  6  1  0  0  0  0
  6 13  1  0  0  0  0
  7  6  2  0  0  0  0
  8  7  1  0  0  0  0
  9 23  1  0  0  0  0
  9  8  2  0  0  0  0
 10  1  1  0  0  0  0
 11  3  1  0  0  0  0
 14 19  1  0  0  0  0
 15 16  1  0  0  0  0
 15 14  2  0  0  0  0
 16 17  2  0  0  0  0
 17 18  1  0  0  0  0
 18  2  1  0  0  0  0
 19 18  2  0  0  0  0
 20 14  1  0  0  0  0
 21 15  1  0  0  0  0
 22 16  1  0  0  0  0
 23 27  1  0  0  0  0
 24 23  2  0  0  0  0
 24 25  1  0  0  0  0
 25 29  1  0  0  0  0
 25 26  2  0  0  0  0
 26 30  1  0  0  0  0
 27 26  1  0  0  0  0
 28 24  1  0  0  0  0
 30 31  1  0  0  0  0
 31 32  1  0  0  0  0
 31 33  2  0  0  0  0
 34 33  1  0  0  0  0
 34 35  1  0  0  0  0
 36 34  2  0  0  0  0
 37 36  1  0  0  0  0
 38 30  2  0  0  0  0
 38 36  1  0  0  0  0
M  END
>  <minimizedAffinity>
-5.64347792

>  <minimizedRMSD>
0.559133589

$$$$
