
 OpenBabel03252506563D

 38 42  0  0  0  0  0  0  0  0999 V2000
   47.2540   31.3870   45.1740 C   0  0  0  0  0  0  0  0  0  0  0  0
   46.8660   32.7250   45.1490 C   0  0  0  0  0  0  0  0  0  0  0  0
   46.2380   33.3490   46.1990 C   0  0  0  0  0  0  0  0  0  0  0  0
   45.9630   32.6350   47.3560 C   0  0  0  0  0  0  0  0  0  0  0  0
   45.3760   32.9020   48.5600 N   0  0  0  0  0  0  0  0  0  0  0  0
   45.3980   31.7680   49.3100 C   0  0  0  0  0  0  0  0  0  0  0  0
   45.9940   30.8150   48.5680 N   0  0  0  0  0  0  0  0  0  0  0  0
   46.3480   31.3150   47.3750 C   0  0  0  0  0  0  0  0  0  0  0  0
   46.9780   30.6720   46.3350 C   0  0  0  0  0  0  0  0  0  0  0  0
   47.7520   30.9100   44.3310 H   0  0  0  0  0  0  0  0  0  0  0  0
   45.9390   34.3920   46.1720 H   0  0  0  0  0  0  0  0  0  0  0  0
   44.9900   33.8490   48.8060 H   0  0  0  0  0  0  0  0  0  0  0  0
   44.9940   31.6860   50.3280 H   0  0  0  0  0  0  0  0  0  0  0  0
   46.4970   35.1690   42.4160 C   0  0  0  0  0  0  0  0  0  0  0  0
   47.6690   34.9660   41.6700 C   0  0  0  0  0  0  0  0  0  0  0  0
   48.5660   33.9990   42.1110 C   0  0  0  0  0  0  0  0  0  0  0  0
   48.2740   33.2880   43.2460 N   0  0  0  0  0  0  0  0  0  0  0  0
   47.1440   33.5060   43.9390 C   0  0  0  0  0  0  0  0  0  0  0  0
   46.2560   34.4390   43.5330 N   0  0  0  0  0  0  0  0  0  0  0  0
   45.7820   35.9130   42.0970 H   0  0  0  0  0  0  0  0  0  0  0  0
   47.8510   35.5530   40.7820 H   0  0  0  0  0  0  0  0  0  0  0  0
   49.4850   33.8100   41.5640 H   0  0  0  0  0  0  0  0  0  0  0  0
   47.3530   29.2560   46.4460 C   0  0  0  0  0  0  0  0  0  0  0  0
   48.6340   28.7740   46.3200 C   0  0  0  0  0  0  0  0  0  0  0  0
   48.4950   27.3860   46.5020 C   0  0  0  0  0  0  0  0  0  0  0  0
   47.1510   27.1170   46.7250 C   0  0  0  0  0  0  0  0  0  0  0  0
   46.5320   28.2780   46.6780 O   0  0  0  0  0  0  0  0  0  0  0  0
   49.5650   29.3040   46.1240 H   0  0  0  0  0  0  0  0  0  0  0  0
   49.2970   26.6530   46.4720 H   0  0  0  0  0  0  0  0  0  0  0  0
   46.5230   25.8000   46.9680 C   0  0  0  0  0  0  0  0  0  0  0  0
   45.1430   25.7720   46.9660 C   0  0  0  0  0  0  0  0  0  0  0  0
   44.5680   26.6710   46.7950 H   0  0  0  0  0  0  0  0  0  0  0  0
   44.5720   24.5160   47.1980 C   0  0  0  0  0  3  0  0  0  0  0  0
   45.3470   23.3910   47.4130 C   0  0  0  0  0  0  0  0  0  0  0  0
   44.8550   22.4410   47.5890 H   0  0  0  0  0  0  0  0  0  0  0  0
   46.7230   23.5050   47.3990 C   0  0  0  0  0  0  0  0  0  0  0  0
   47.3580   22.6260   47.5680 H   0  0  0  0  0  0  0  0  0  0  0  0
   47.3670   24.7270   47.1740 C   0  0  0  0  0  3  0  0  0  0  0  0
  1  9  1  0  0  0  0
  2  1  2  0  0  0  0
  2  3  1  0  0  0  0
  3  4  2  0  0  0  0
  4  8  1  0  0  0  0
  4  5  1  0  0  0  0
  5 12  1  0  0  0  0
  5  6  1  0  0  0  0
  6 13  1  0  0  0  0
  7  6  2  0  0  0  0
  8  7  1  0  0  0  0
  9 23  1  0  0  0  0
  9  8  2  0  0  0  0
 10  1  1  0  0  0  0
 11  3  1  0  0  0  0
 14 19  1  0  0  0  0
 15 16  1  0  0  0  0
 15 14  2  0  0  0  0
 16 17  2  0  0  0  0
 17 18  1  0  0  0  0
 18  2  1  0  0  0  0
 19 18  2  0  0  0  0
 20 14  1  0  0  0  0
 21 15  1  0  0  0  0
 22 16  1  0  0  0  0
 23 27  1  0  0  0  0
 24 23  2  0  0  0  0
 24 25  1  0  0  0  0
 25 26  2  0  0  0  0
 26 30  1  0  0  0  0
 27 26  1  0  0  0  0
 28 24  1  0  0  0  0
 29 25  1  0  0  0  0
 30 38  1  0  0  0  0
 31 30  2  0  0  0  0
 31 33  1  0  0  0  0
 32 31  1  0  0  0  0
 33 34  2  0  0  0  0
 34 35  1  0  0  0  0
 36 34  1  0  0  0  0
 36 37  1  0  0  0  0
 38 36  2  0  0  0  0
M  END
>  <minimizedAffinity>
-5.65696287

>  <minimizedRMSD>
0.484871387

$$$$
