
 OpenBabel03252506563D

 38 42  0  0  0  0  0  0  0  0999 V2000
   47.3380   31.3170   45.2300 C   0  0  0  0  0  0  0  0  0  0  0  0
   46.9080   32.6390   45.1400 C   0  0  0  0  0  0  0  0  0  0  0  0
   46.2460   33.2890   46.1530 C   0  0  0  0  0  0  0  0  0  0  0  0
   45.9770   32.6200   47.3370 C   0  0  0  0  0  0  0  0  0  0  0  0
   45.3660   32.9210   48.5200 N   0  0  0  0  0  0  0  0  0  0  0  0
   45.4130   31.8240   49.3210 C   0  0  0  0  0  0  0  0  0  0  0  0
   46.0490   30.8570   48.6300 N   0  0  0  0  0  0  0  0  0  0  0  0
   46.4040   31.3150   47.4210 C   0  0  0  0  0  0  0  0  0  0  0  0
   47.0670   30.6450   46.4190 C   0  0  0  0  0  0  0  0  0  0  0  0
   47.8620   30.8180   44.4150 H   0  0  0  0  0  0  0  0  0  0  0  0
   45.9150   34.3200   46.0740 H   0  0  0  0  0  0  0  0  0  0  0  0
   44.9470   33.8660   48.7190 H   0  0  0  0  0  0  0  0  0  0  0  0
   44.9970   31.7740   50.3370 H   0  0  0  0  0  0  0  0  0  0  0  0
   46.6080   35.0880   42.4020 C   0  0  0  0  0  0  0  0  0  0  0  0
   47.6880   34.7450   41.5720 C   0  0  0  0  0  0  0  0  0  0  0  0
   48.5000   33.6850   41.9600 C   0  0  0  0  0  0  0  0  0  0  0  0
   48.2180   33.0220   43.1250 N   0  0  0  0  0  0  0  0  0  0  0  0
   47.1780   33.3740   43.8990 C   0  0  0  0  0  0  0  0  0  0  0  0
   46.3730   34.3990   43.5460 N   0  0  0  0  0  0  0  0  0  0  0  0
   45.9600   35.9070   42.1260 H   0  0  0  0  0  0  0  0  0  0  0  0
   47.8660   35.3010   40.6630 H   0  0  0  0  0  0  0  0  0  0  0  0
   49.3460   33.3870   41.3470 H   0  0  0  0  0  0  0  0  0  0  0  0
   47.4860   29.2490   46.5990 C   0  0  0  0  0  0  0  0  0  0  0  0
   48.7860   28.8080   46.5430 C   0  0  0  0  0  0  0  0  0  0  0  0
   48.6860   27.4240   46.7720 C   0  0  0  0  0  0  0  0  0  0  0  0
   47.3440   27.1160   46.9500 C   0  0  0  0  0  0  0  0  0  0  0  0
   46.6880   28.2520   46.8330 O   0  0  0  0  0  0  0  0  0  0  0  0
   49.7060   29.3630   46.3660 H   0  0  0  0  0  0  0  0  0  0  0  0
   49.5130   26.7200   46.8030 H   0  0  0  0  0  0  0  0  0  0  0  0
   46.7520   25.7870   47.2160 C   0  0  0  0  0  0  0  0  0  0  0  0
   46.1730   25.6160   48.4570 C   0  0  0  0  0  0  0  0  0  0  0  0
   46.1610   26.4170   49.1830 H   0  0  0  0  0  0  0  0  0  0  0  0
   45.6190   24.3520   48.6880 C   0  0  0  0  0  3  0  0  0  0  0  0
   45.6570   23.3540   47.7310 C   0  0  0  0  0  0  0  0  0  0  0  0
   45.2130   22.3920   47.9600 H   0  0  0  0  0  0  0  0  0  0  0  0
   46.2550   23.6080   46.5130 C   0  0  0  0  0  0  0  0  0  0  0  0
   46.2960   22.8320   45.7380 H   0  0  0  0  0  0  0  0  0  0  0  0
   46.8310   24.8470   46.2090 C   0  0  0  0  0  3  0  0  0  0  0  0
  1  9  1  0  0  0  0
  2  1  2  0  0  0  0
  2  3  1  0  0  0  0
  3  4  2  0  0  0  0
  4  8  1  0  0  0  0
  4  5  1  0  0  0  0
  5 12  1  0  0  0  0
  5  6  1  0  0  0  0
  6 13  1  0  0  0  0
  7  6  2  0  0  0  0
  8  7  1  0  0  0  0
  9 23  1  0  0  0  0
  9  8  2  0  0  0  0
 10  1  1  0  0  0  0
 11  3  1  0  0  0  0
 14 19  1  0  0  0  0
 15 16  1  0  0  0  0
 15 14  2  0  0  0  0
 16 17  2  0  0  0  0
 17 18  1  0  0  0  0
 18  2  1  0  0  0  0
 19 18  2  0  0  0  0
 20 14  1  0  0  0  0
 21 15  1  0  0  0  0
 22 16  1  0  0  0  0
 23 27  1  0  0  0  0
 24 23  2  0  0  0  0
 24 25  1  0  0  0  0
 25 29  1  0  0  0  0
 25 26  2  0  0  0  0
 26 30  1  0  0  0  0
 27 26  1  0  0  0  0
 28 24  1  0  0  0  0
 30 31  1  0  0  0  0
 31 33  2  0  0  0  0
 31 32  1  0  0  0  0
 34 35  1  0  0  0  0
 34 33  1  0  0  0  0
 36 34  2  0  0  0  0
 37 36  1  0  0  0  0
 38 36  1  0  0  0  0
 38 30  2  0  0  0  0
M  END
>  <minimizedAffinity>
-5.6497035

>  <minimizedRMSD>
0.622695565

$$$$
