
 OpenBabel03242520233D

 44 47  0  0  0  0  0  0  0  0999 V2000
   39.0360   33.9920   40.6600 C   0  0  0  0  0  0  0  0  0  0  0  0
   39.9000   34.3400   40.0810 H   0  0  0  0  0  0  0  0  0  0  0  0
   38.8300   34.8040   41.4090 H   0  0  0  0  0  0  0  0  0  0  0  0
   40.5600   32.1990   41.2860 C   0  0  0  0  0  0  0  0  0  0  0  0
   41.5380   32.7300   40.6610 O   0  0  0  0  0  0  0  0  0  0  0  0
   39.2900   32.7860   41.4240 N   0  0  0  0  0  0  0  0  0  0  0  0
   38.5460   32.4190   42.0230 H   0  0  0  0  0  0  0  0  0  0  0  0
   40.7490   30.8700   41.9210 C   0  0  0  0  0  0  0  0  0  0  0  0
   41.9970   30.5330   42.4130 C   0  0  0  0  0  0  0  0  0  0  0  0
   42.2900   29.3340   43.0270 C   0  0  0  0  0  0  0  0  0  0  0  0
   41.2400   28.4200   43.1470 C   0  0  0  0  0  0  0  0  0  0  0  0
   40.0290   28.8090   42.6430 C   0  0  0  0  0  0  0  0  0  0  0  0
   39.7500   29.9690   42.0500 N   0  0  0  0  0  0  0  0  0  0  0  0
   42.7940   31.2690   42.3020 H   0  0  0  0  0  0  0  0  0  0  0  0
   43.3090   29.1630   43.3810 H   0  0  0  0  0  0  0  0  0  0  0  0
   41.4610   27.4950   43.6200 H   0  0  0  0  0  0  0  0  0  0  0  0
   38.8940   27.8960   42.7410 C   0  0  0  0  0  0  0  0  0  0  0  0
   37.7290   28.2630   43.4050 C   0  0  0  0  0  0  0  0  0  0  0  0
   37.6450   29.2580   43.8710 H   0  0  0  0  0  0  0  0  0  0  0  0
   36.6040   27.4630   43.5470 C   0  0  0  0  0  3  0  0  0  0  0  0
   36.6390   26.2030   42.9870 C   0  0  0  0  0  0  0  0  0  0  0  0
   35.7470   25.6070   43.1160 H   0  0  0  0  0  0  0  0  0  0  0  0
   37.7690   25.7850   42.3150 C   0  0  0  0  0  0  0  0  0  0  0  0
   37.7800   24.7910   41.8810 H   0  0  0  0  0  0  0  0  0  0  0  0
   38.8550   26.6270   42.2090 C   0  0  0  0  0  3  0  0  0  0  0  0
   37.7750   33.8720   39.7980 C   0  0  0  0  0  0  0  0  0  0  0  0
   36.8980   34.0030   40.4480 H   0  0  0  0  0  0  0  0  0  0  0  0
   37.8600   34.6620   39.0300 H   0  0  0  0  0  0  0  0  0  0  0  0
   36.7090   30.3740   38.8100 C   0  0  0  0  0  0  0  0  0  0  0  0
   36.7200   31.6430   39.4490 C   0  0  0  0  0  0  0  0  0  0  0  0
   37.7320   32.5350   39.1620 C   0  0  0  0  0  0  0  0  0  0  0  0
   38.6820   32.1140   38.2560 N   0  0  0  0  0  0  0  0  0  0  0  0
   38.6230   30.8830   37.6720 C   0  0  0  0  0  0  0  0  0  0  0  0
   37.6420   30.0230   37.9500 N   0  0  0  0  0  0  0  0  0  0  0  0
   35.9630   31.9460   40.1540 H   0  0  0  0  0  0  0  0  0  0  0  0
   39.4060   30.6210   36.9690 H   0  0  0  0  0  0  0  0  0  0  0  0
   35.6100   29.4220   39.1440 C   0  0  0  0  0  0  0  0  0  0  0  0
   36.1720   28.1400   39.8750 C   0  0  0  0  0  0  0  0  0  0  0  0
   35.1740   29.0670   40.4330 C   0  0  0  0  0  0  0  0  0  0  0  0
   35.0180   29.1610   38.2280 H   0  0  0  0  0  0  0  0  0  0  0  0
   35.7980   27.1870   39.4660 H   0  0  0  0  0  0  0  0  0  0  0  0
   37.2190   28.1580   40.1760 H   0  0  0  0  0  0  0  0  0  0  0  0
   34.1380   28.6910   40.5720 H   0  0  0  0  0  0  0  0  0  0  0  0
   35.4950   29.6450   41.3490 H   0  0  0  0  0  0  0  0  0  0  0  0
  1  3  1  0  0  0  0
  1  6  1  0  0  0  0
  2  1  1  0  0  0  0
  4  6  1  0  0  0  0
  4  8  1  0  0  0  0
  5  4  2  0  0  0  0
  6  7  1  0  0  0  0
  8 13  2  0  0  0  0
  8  9  1  0  0  0  0
  9 10  2  0  0  0  0
 10 11  1  0  0  0  0
 10 15  1  0  0  0  0
 11 16  1  0  0  0  0
 12 17  1  0  0  0  0
 12 11  2  0  0  0  0
 13 12  1  0  0  0  0
 14  9  1  0  0  0  0
 17 18  1  0  0  0  0
 18 20  2  0  0  0  0
 18 19  1  0  0  0  0
 21 22  1  0  0  0  0
 21 20  1  0  0  0  0
 23 21  2  0  0  0  0
 24 23  1  0  0  0  0
 25 23  1  0  0  0  0
 25 17  2  0  0  0  0
 26 27  1  0  0  0  0
 26  1  1  0  0  0  0
 28 26  1  0  0  0  0
 29 37  1  0  0  0  0
 29 30  1  0  0  0  0
 30 35  1  0  0  0  0
 31 30  2  0  0  0  0
 31 26  1  0  0  0  0
 32 31  1  0  0  0  0
 33 34  1  0  0  0  0
 33 32  2  0  0  0  0
 34 29  2  0  0  0  0
 36 33  1  0  0  0  0
 37 38  1  0  0  0  0
 37 39  1  0  0  0  0
 38 42  1  0  0  0  0
 38 39  1  0  0  0  0
 39 43  1  0  0  0  0
 39 44  1  0  0  0  0
 40 37  1  0  0  0  0
 41 38  1  0  0  0  0
M  END
>  <minimizedAffinity>
-5.99093246

$$$$

 OpenBabel03242520233D

 44 47  0  0  0  0  0  0  0  0999 V2000
   41.3460   28.3980   43.1000 C   0  0  0  0  0  0  0  0  0  0  0  0
   41.6310   29.0200   43.9570 H   0  0  0  0  0  0  0  0  0  0  0  0
   42.3050   28.1790   42.5560 H   0  0  0  0  0  0  0  0  0  0  0  0
   40.3960   30.4700   42.2430 C   0  0  0  0  0  0  0  0  0  0  0  0
   41.1310   31.1900   42.9990 O   0  0  0  0  0  0  0  0  0  0  0  0
   40.4820   29.0700   42.1490 N   0  0  0  0  0  0  0  0  0  0  0  0
   39.9780   28.5060   41.4600 H   0  0  0  0  0  0  0  0  0  0  0  0
   39.3710   31.1300   41.3950 C   0  0  0  0  0  0  0  0  0  0  0  0
   39.4510   32.4950   41.1880 C   0  0  0  0  0  0  0  0  0  0  0  0
   38.5630   33.2150   40.4170 C   0  0  0  0  0  0  0  0  0  0  0  0
   37.5270   32.4940   39.8180 C   0  0  0  0  0  0  0  0  0  0  0  0
   37.5000   31.1470   40.0590 C   0  0  0  0  0  0  0  0  0  0  0  0
   38.3600   30.4550   40.8050 N   0  0  0  0  0  0  0  0  0  0  0  0
   40.2710   33.0280   41.6700 H   0  0  0  0  0  0  0  0  0  0  0  0
   38.7120   34.2920   40.3160 H   0  0  0  0  0  0  0  0  0  0  0  0
   36.8410   33.0440   39.2230 H   0  0  0  0  0  0  0  0  0  0  0  0
   36.4410   30.3410   39.4590 C   0  0  0  0  0  0  0  0  0  0  0  0
   35.4380   29.7750   40.2380 C   0  0  0  0  0  0  0  0  0  0  0  0
   35.4270   29.9300   41.3280 H   0  0  0  0  0  0  0  0  0  0  0  0
   34.3950   28.9980   39.7560 C   0  0  0  0  0  3  0  0  0  0  0  0
   34.3450   28.7630   38.3980 C   0  0  0  0  0  0  0  0  0  0  0  0
   33.5200   28.1540   38.0560 H   0  0  0  0  0  0  0  0  0  0  0  0
   35.3140   29.2990   37.5750 C   0  0  0  0  0  0  0  0  0  0  0  0
   35.2600   29.1050   36.5100 H   0  0  0  0  0  0  0  0  0  0  0  0
   36.3250   30.0640   38.1160 C   0  0  0  0  0  3  0  0  0  0  0  0
   40.7800   27.0430   43.5350 C   0  0  0  0  0  0  0  0  0  0  0  0
   41.2910   26.2550   42.9640 H   0  0  0  0  0  0  0  0  0  0  0  0
   40.9680   26.9730   44.6220 H   0  0  0  0  0  0  0  0  0  0  0  0
   37.3950   26.0600   42.1480 C   0  0  0  0  0  0  0  0  0  0  0  0
   38.7960   26.0760   42.3800 C   0  0  0  0  0  0  0  0  0  0  0  0
   39.3250   26.9990   43.2580 C   0  0  0  0  0  0  0  0  0  0  0  0
   38.4300   27.8590   43.8570 N   0  0  0  0  0  0  0  0  0  0  0  0
   37.0930   27.7990   43.5990 C   0  0  0  0  0  0  0  0  0  0  0  0
   36.5840   26.9050   42.7500 N   0  0  0  0  0  0  0  0  0  0  0  0
   39.4740   25.3920   41.8960 H   0  0  0  0  0  0  0  0  0  0  0  0
   36.4490   28.5080   44.1080 H   0  0  0  0  0  0  0  0  0  0  0  0
   36.8470   25.0600   41.1860 C   0  0  0  0  0  0  0  0  0  0  0  0
   36.6430   25.7000   39.7570 C   0  0  0  0  0  0  0  0  0  0  0  0
   37.5010   24.5420   40.0550 C   0  0  0  0  0  0  0  0  0  0  0  0
   35.9030   24.6030   41.5830 H   0  0  0  0  0  0  0  0  0  0  0  0
   35.6590   25.4920   39.3050 H   0  0  0  0  0  0  0  0  0  0  0  0
   37.0450   26.7000   39.5980 H   0  0  0  0  0  0  0  0  0  0  0  0
   37.1950   23.5530   39.6550 H   0  0  0  0  0  0  0  0  0  0  0  0
   38.6090   24.6920   39.8890 H   0  0  0  0  0  0  0  0  0  0  0  0
  1 26  1  0  0  0  0
  1  2  1  0  0  0  0
  3  1  1  0  0  0  0
  4  5  2  0  0  0  0
  6  4  1  0  0  0  0
  6  1  1  0  0  0  0
  7  6  1  0  0  0  0
  8  4  1  0  0  0  0
  9  8  1  0  0  0  0
  9 14  1  0  0  0  0
 10  9  2  0  0  0  0
 11 12  2  0  0  0  0
 11 10  1  0  0  0  0
 12 13  1  0  0  0  0
 13  8  2  0  0  0  0
 15 10  1  0  0  0  0
 16 11  1  0  0  0  0
 17 12  1  0  0  0  0
 17 18  1  0  0  0  0
 18 19  1  0  0  0  0
 20 18  2  0  0  0  0
 21 20  1  0  0  0  0
 22 21  1  0  0  0  0
 23 25  1  0  0  0  0
 23 21  2  0  0  0  0
 24 23  1  0  0  0  0
 25 17  2  0  0  0  0
 26 28  1  0  0  0  0
 27 26  1  0  0  0  0
 29 30  2  0  0  0  0
 29 34  1  0  0  0  0
 30 31  1  0  0  0  0
 31 26  1  0  0  0  0
 31 32  2  0  0  0  0
 33 32  1  0  0  0  0
 33 36  1  0  0  0  0
 34 33  2  0  0  0  0
 35 30  1  0  0  0  0
 37 40  1  0  0  0  0
 37 29  1  0  0  0  0
 38 39  1  0  0  0  0
 38 37  1  0  0  0  0
 39 37  1  0  0  0  0
 41 38  1  0  0  0  0
 42 38  1  0  0  0  0
 43 39  1  0  0  0  0
 44 39  1  0  0  0  0
M  END
>  <minimizedAffinity>
-5.84975815

$$$$

 OpenBabel03242520233D

 44 47  0  0  0  0  0  0  0  0999 V2000
   38.9030   33.9120   40.3410 C   0  0  0  0  0  0  0  0  0  0  0  0
   39.6620   34.1300   39.5790 H   0  0  0  0  0  0  0  0  0  0  0  0
   38.8820   34.8140   41.0100 H   0  0  0  0  0  0  0  0  0  0  0  0
   40.4470   32.1250   40.9330 C   0  0  0  0  0  0  0  0  0  0  0  0
   41.3370   32.5410   40.1180 O   0  0  0  0  0  0  0  0  0  0  0  0
   39.2310   32.7820   41.1880 N   0  0  0  0  0  0  0  0  0  0  0  0
   38.5730   32.5150   41.9250 H   0  0  0  0  0  0  0  0  0  0  0  0
   40.6860   30.8620   41.6770 C   0  0  0  0  0  0  0  0  0  0  0  0
   41.9050   30.6740   42.3040 C   0  0  0  0  0  0  0  0  0  0  0  0
   42.2390   29.5480   43.0270 C   0  0  0  0  0  0  0  0  0  0  0  0
   41.2650   28.5510   43.1150 C   0  0  0  0  0  0  0  0  0  0  0  0
   40.0800   28.7930   42.4760 C   0  0  0  0  0  0  0  0  0  0  0  0
   39.7610   29.8820   41.7780 N   0  0  0  0  0  0  0  0  0  0  0  0
   42.6420   31.4720   42.2140 H   0  0  0  0  0  0  0  0  0  0  0  0
   43.2290   29.4950   43.4830 H   0  0  0  0  0  0  0  0  0  0  0  0
   41.5180   27.6820   43.6710 H   0  0  0  0  0  0  0  0  0  0  0  0
   39.0240   27.7870   42.5340 C   0  0  0  0  0  0  0  0  0  0  0  0
   37.7780   28.0800   43.0790 C   0  0  0  0  0  0  0  0  0  0  0  0
   37.5690   29.0860   43.4760 H   0  0  0  0  0  0  0  0  0  0  0  0
   36.7190   27.1900   43.1750 C   0  0  0  0  0  3  0  0  0  0  0  0
   36.9110   25.9110   42.6950 C   0  0  0  0  0  0  0  0  0  0  0  0
   36.0650   25.2430   42.7860 H   0  0  0  0  0  0  0  0  0  0  0  0
   38.1260   25.5630   42.1450 C   0  0  0  0  0  0  0  0  0  0  0  0
   38.2610   24.5530   41.7720 H   0  0  0  0  0  0  0  0  0  0  0  0
   39.1400   26.4940   42.0770 C   0  0  0  0  0  3  0  0  0  0  0  0
   37.5000   33.7920   39.7380 C   0  0  0  0  0  0  0  0  0  0  0  0
   36.8010   34.3530   40.3740 H   0  0  0  0  0  0  0  0  0  0  0  0
   37.5750   34.2070   38.7160 H   0  0  0  0  0  0  0  0  0  0  0  0
   36.8540   30.2620   38.5280 C   0  0  0  0  0  0  0  0  0  0  0  0
   37.2400   31.6280   38.5320 C   0  0  0  0  0  0  0  0  0  0  0  0
   37.0990   32.3660   39.6890 C   0  0  0  0  0  0  0  0  0  0  0  0
   36.5780   31.7040   40.7800 N   0  0  0  0  0  0  0  0  0  0  0  0
   36.2240   30.3890   40.7200 C   0  0  0  0  0  0  0  0  0  0  0  0
   36.3620   29.6780   39.6010 N   0  0  0  0  0  0  0  0  0  0  0  0
   37.6450   32.1210   37.6630 H   0  0  0  0  0  0  0  0  0  0  0  0
   35.8200   29.9350   41.6180 H   0  0  0  0  0  0  0  0  0  0  0  0
   37.0050   29.4860   37.2630 C   0  0  0  0  0  0  0  0  0  0  0  0
   35.6110   29.2890   36.5470 C   0  0  0  0  0  0  0  0  0  0  0  0
   36.7810   29.9610   35.9590 C   0  0  0  0  0  0  0  0  0  0  0  0
   37.5240   28.5100   37.4540 H   0  0  0  0  0  0  0  0  0  0  0  0
   35.4120   28.2540   36.2230 H   0  0  0  0  0  0  0  0  0  0  0  0
   34.7630   29.8400   36.9510 H   0  0  0  0  0  0  0  0  0  0  0  0
   37.2890   29.4660   35.1040 H   0  0  0  0  0  0  0  0  0  0  0  0
   36.6600   31.0630   35.7400 H   0  0  0  0  0  0  0  0  0  0  0  0
  1  3  1  0  0  0  0
  1  6  1  0  0  0  0
  2  1  1  0  0  0  0
  4  6  1  0  0  0  0
  4  8  1  0  0  0  0
  5  4  2  0  0  0  0
  6  7  1  0  0  0  0
  8 13  2  0  0  0  0
  8  9  1  0  0  0  0
  9 10  2  0  0  0  0
 10 11  1  0  0  0  0
 10 15  1  0  0  0  0
 11 16  1  0  0  0  0
 12 17  1  0  0  0  0
 12 11  2  0  0  0  0
 13 12  1  0  0  0  0
 14  9  1  0  0  0  0
 17 18  1  0  0  0  0
 18 20  2  0  0  0  0
 18 19  1  0  0  0  0
 21 22  1  0  0  0  0
 21 20  1  0  0  0  0
 23 21  2  0  0  0  0
 24 23  1  0  0  0  0
 25 23  1  0  0  0  0
 25 17  2  0  0  0  0
 26  1  1  0  0  0  0
 26 27  1  0  0  0  0
 28 26  1  0  0  0  0
 29 30  2  0  0  0  0
 29 34  1  0  0  0  0
 30 31  1  0  0  0  0
 31 26  1  0  0  0  0
 31 32  2  0  0  0  0
 33 32  1  0  0  0  0
 33 36  1  0  0  0  0
 34 33  2  0  0  0  0
 35 30  1  0  0  0  0
 37 40  1  0  0  0  0
 37 29  1  0  0  0  0
 38 42  1  0  0  0  0
 38 37  1  0  0  0  0
 39 38  1  0  0  0  0
 39 37  1  0  0  0  0
 41 38  1  0  0  0  0
 43 39  1  0  0  0  0
 44 39  1  0  0  0  0
M  END
>  <minimizedAffinity>
-5.84697533

$$$$

 OpenBabel03242520233D

 44 47  0  0  0  0  0  0  0  0999 V2000
   36.9400   23.3700   39.6150 C   0  0  0  0  0  0  0  0  0  0  0  0
   37.6240   23.1320   38.7920 H   0  0  0  0  0  0  0  0  0  0  0  0
   36.1880   22.5350   39.6320 H   0  0  0  0  0  0  0  0  0  0  0  0
   36.0790   25.0690   38.0990 C   0  0  0  0  0  0  0  0  0  0  0  0
   36.4650   24.4280   37.0650 O   0  0  0  0  0  0  0  0  0  0  0  0
   36.1880   24.5930   39.4170 N   0  0  0  0  0  0  0  0  0  0  0  0
   35.7730   25.0520   40.2320 H   0  0  0  0  0  0  0  0  0  0  0  0
   35.4720   26.4140   37.9270 C   0  0  0  0  0  0  0  0  0  0  0  0
   34.3330   26.5400   37.1520 C   0  0  0  0  0  0  0  0  0  0  0  0
   33.6780   27.7320   36.9260 C   0  0  0  0  0  0  0  0  0  0  0  0
   34.2210   28.8680   37.5320 C   0  0  0  0  0  0  0  0  0  0  0  0
   35.3460   28.6810   38.2870 C   0  0  0  0  0  0  0  0  0  0  0  0
   35.9770   27.5270   38.5020 N   0  0  0  0  0  0  0  0  0  0  0  0
   33.9360   25.6340   36.6930 H   0  0  0  0  0  0  0  0  0  0  0  0
   32.7860   27.7280   36.2960 H   0  0  0  0  0  0  0  0  0  0  0  0
   33.7200   29.7890   37.3610 H   0  0  0  0  0  0  0  0  0  0  0  0
   35.9580   29.8310   38.9450 C   0  0  0  0  0  0  0  0  0  0  0  0
   36.7240   30.7470   38.2300 C   0  0  0  0  0  0  0  0  0  0  0  0
   36.8790   30.6160   37.1480 H   0  0  0  0  0  0  0  0  0  0  0  0
   37.3400   31.8660   38.7710 C   0  0  0  0  0  3  0  0  0  0  0  0
   37.1870   32.0930   40.1230 C   0  0  0  0  0  0  0  0  0  0  0  0
   37.6810   32.9730   40.5110 H   0  0  0  0  0  0  0  0  0  0  0  0
   36.4390   31.2170   40.8820 C   0  0  0  0  0  0  0  0  0  0  0  0
   36.3280   31.4100   41.9430 H   0  0  0  0  0  0  0  0  0  0  0  0
   35.8500   30.1230   40.2850 C   0  0  0  0  0  3  0  0  0  0  0  0
   37.6440   23.3410   40.9760 C   0  0  0  0  0  0  0  0  0  0  0  0
   36.8850   23.1850   41.7550 H   0  0  0  0  0  0  0  0  0  0  0  0
   38.3750   22.5130   40.9180 H   0  0  0  0  0  0  0  0  0  0  0  0
   38.7530   26.6280   42.4960 C   0  0  0  0  0  0  0  0  0  0  0  0
   38.0570   25.4040   42.3090 C   0  0  0  0  0  0  0  0  0  0  0  0
   38.3400   24.6290   41.2030 C   0  0  0  0  0  0  0  0  0  0  0  0
   39.2980   25.1170   40.3410 N   0  0  0  0  0  0  0  0  0  0  0  0
   39.9360   26.3000   40.5700 C   0  0  0  0  0  0  0  0  0  0  0  0
   39.6620   27.0460   41.6410 N   0  0  0  0  0  0  0  0  0  0  0  0
   37.3110   25.0470   43.0000 H   0  0  0  0  0  0  0  0  0  0  0  0
   40.6790   26.6200   39.8480 H   0  0  0  0  0  0  0  0  0  0  0  0
   38.4240   27.4540   43.6950 C   0  0  0  0  0  0  0  0  0  0  0  0
   37.8310   28.8560   43.2720 C   0  0  0  0  0  0  0  0  0  0  0  0
   37.1410   27.8580   44.1050 C   0  0  0  0  0  0  0  0  0  0  0  0
   39.3170   27.5570   44.3650 H   0  0  0  0  0  0  0  0  0  0  0  0
   38.2870   29.7140   43.7930 H   0  0  0  0  0  0  0  0  0  0  0  0
   37.5980   28.9990   42.2180 H   0  0  0  0  0  0  0  0  0  0  0  0
   36.9640   28.1060   45.1720 H   0  0  0  0  0  0  0  0  0  0  0  0
   36.2050   27.4060   43.6600 H   0  0  0  0  0  0  0  0  0  0  0  0
  1  3  1  0  0  0  0
  1 26  1  0  0  0  0
  2  1  1  0  0  0  0
  4  6  1  0  0  0  0
  5  4  2  0  0  0  0
  6  1  1  0  0  0  0
  6  7  1  0  0  0  0
  8  4  1  0  0  0  0
  8 13  1  0  0  0  0
  9  8  2  0  0  0  0
 10  9  1  0  0  0  0
 10 11  2  0  0  0  0
 11 12  1  0  0  0  0
 12 13  2  0  0  0  0
 12 17  1  0  0  0  0
 14  9  1  0  0  0  0
 15 10  1  0  0  0  0
 16 11  1  0  0  0  0
 17 25  1  0  0  0  0
 18 20  1  0  0  0  0
 18 17  2  0  0  0  0
 19 18  1  0  0  0  0
 20 21  2  0  0  0  0
 21 22  1  0  0  0  0
 21 23  1  0  0  0  0
 23 24  1  0  0  0  0
 25 23  2  0  0  0  0
 26 31  1  0  0  0  0
 26 27  1  0  0  0  0
 28 26  1  0  0  0  0
 29 37  1  0  0  0  0
 30 29  1  0  0  0  0
 30 35  1  0  0  0  0
 31 30  2  0  0  0  0
 32 33  2  0  0  0  0
 32 31  1  0  0  0  0
 33 34  1  0  0  0  0
 34 29  2  0  0  0  0
 36 33  1  0  0  0  0
 37 39  1  0  0  0  0
 37 40  1  0  0  0  0
 38 37  1  0  0  0  0
 38 41  1  0  0  0  0
 38 39  1  0  0  0  0
 39 43  1  0  0  0  0
 42 38  1  0  0  0  0
 44 39  1  0  0  0  0
M  END
>  <minimizedAffinity>
-5.77470732

$$$$

 OpenBabel03242520233D

 44 47  0  0  0  0  0  0  0  0999 V2000
   36.4190   29.8350   37.7230 C   0  0  0  0  0  0  0  0  0  0  0  0
   35.4190   30.2380   37.9270 H   0  0  0  0  0  0  0  0  0  0  0  0
   36.2640   29.0160   36.9700 H   0  0  0  0  0  0  0  0  0  0  0  0
   36.2700   29.1040   40.0410 C   0  0  0  0  0  0  0  0  0  0  0  0
   35.0230   29.3690   40.1080 O   0  0  0  0  0  0  0  0  0  0  0  0
   37.0460   29.2160   38.8750 N   0  0  0  0  0  0  0  0  0  0  0  0
   38.0130   28.8920   38.7910 H   0  0  0  0  0  0  0  0  0  0  0  0
   36.9740   28.6440   41.2650 C   0  0  0  0  0  0  0  0  0  0  0  0
   36.2860   27.8740   42.1850 C   0  0  0  0  0  0  0  0  0  0  0  0
   36.8350   27.3850   43.3520 C   0  0  0  0  0  0  0  0  0  0  0  0
   38.1740   27.7040   43.5940 C   0  0  0  0  0  0  0  0  0  0  0  0
   38.8020   28.4680   42.6490 C   0  0  0  0  0  0  0  0  0  0  0  0
   38.2680   28.9380   41.5230 N   0  0  0  0  0  0  0  0  0  0  0  0
   35.2430   27.6440   41.9650 H   0  0  0  0  0  0  0  0  0  0  0  0
   36.2080   26.7860   44.0140 H   0  0  0  0  0  0  0  0  0  0  0  0
   38.6010   27.3290   44.4910 H   0  0  0  0  0  0  0  0  0  0  0  0
   40.2020   28.8320   42.8470 C   0  0  0  0  0  0  0  0  0  0  0  0
   40.6610   30.1120   42.5560 C   0  0  0  0  0  0  0  0  0  0  0  0
   39.9690   30.8760   42.1690 H   0  0  0  0  0  0  0  0  0  0  0  0
   41.9700   30.5460   42.7140 C   0  0  0  0  0  3  0  0  0  0  0  0
   42.8920   29.6400   43.1950 C   0  0  0  0  0  0  0  0  0  0  0  0
   43.9020   30.0110   43.3050 H   0  0  0  0  0  0  0  0  0  0  0  0
   42.4930   28.3560   43.5010 C   0  0  0  0  0  0  0  0  0  0  0  0
   43.2300   27.6560   43.8790 H   0  0  0  0  0  0  0  0  0  0  0  0
   41.1770   27.9860   43.3230 C   0  0  0  0  0  3  0  0  0  0  0  0
   37.3320   30.8670   37.0550 C   0  0  0  0  0  0  0  0  0  0  0  0
   38.1460   30.3310   36.5460 H   0  0  0  0  0  0  0  0  0  0  0  0
   36.6870   31.4300   36.3550 H   0  0  0  0  0  0  0  0  0  0  0  0
   39.7560   32.8180   39.2140 C   0  0  0  0  0  0  0  0  0  0  0  0
   39.2570   31.9320   38.2230 C   0  0  0  0  0  0  0  0  0  0  0  0
   37.8940   31.7740   38.0830 C   0  0  0  0  0  0  0  0  0  0  0  0
   37.1000   32.5060   38.9400 N   0  0  0  0  0  0  0  0  0  0  0  0
   37.6330   33.3430   39.8750 C   0  0  0  0  0  0  0  0  0  0  0  0
   38.9510   33.4950   40.0070 N   0  0  0  0  0  0  0  0  0  0  0  0
   39.9010   31.3710   37.5660 H   0  0  0  0  0  0  0  0  0  0  0  0
   36.9460   33.8870   40.5140 H   0  0  0  0  0  0  0  0  0  0  0  0
   41.2340   32.9650   39.3540 C   0  0  0  0  0  0  0  0  0  0  0  0
   41.7460   34.2710   38.6280 C   0  0  0  0  0  0  0  0  0  0  0  0
   41.9100   33.9750   40.0610 C   0  0  0  0  0  0  0  0  0  0  0  0
   41.7610   32.0450   38.9910 H   0  0  0  0  0  0  0  0  0  0  0  0
   42.6230   34.1130   37.9800 H   0  0  0  0  0  0  0  0  0  0  0  0
   40.9900   34.9620   38.2570 H   0  0  0  0  0  0  0  0  0  0  0  0
   42.9370   33.7820   40.4360 H   0  0  0  0  0  0  0  0  0  0  0  0
   41.3700   34.6660   40.7730 H   0  0  0  0  0  0  0  0  0  0  0  0
  1  2  1  0  0  0  0
  1  6  1  0  0  0  0
  3  1  1  0  0  0  0
  4  5  2  0  0  0  0
  4  8  1  0  0  0  0
  6  4  1  0  0  0  0
  7  6  1  0  0  0  0
  8 13  2  0  0  0  0
  8  9  1  0  0  0  0
  9 10  2  0  0  0  0
 10 11  1  0  0  0  0
 10 15  1  0  0  0  0
 11 16  1  0  0  0  0
 12 17  1  0  0  0  0
 12 11  2  0  0  0  0
 13 12  1  0  0  0  0
 14  9  1  0  0  0  0
 17 25  1  0  0  0  0
 18 20  1  0  0  0  0
 18 17  2  0  0  0  0
 19 18  1  0  0  0  0
 20 21  2  0  0  0  0
 21 22  1  0  0  0  0
 21 23  1  0  0  0  0
 23 24  1  0  0  0  0
 25 23  2  0  0  0  0
 26  1  1  0  0  0  0
 26 31  1  0  0  0  0
 27 26  1  0  0  0  0
 28 26  1  0  0  0  0
 29 37  1  0  0  0  0
 29 34  1  0  0  0  0
 30 29  2  0  0  0  0
 31 30  1  0  0  0  0
 31 32  2  0  0  0  0
 32 33  1  0  0  0  0
 33 34  2  0  0  0  0
 33 36  1  0  0  0  0
 35 30  1  0  0  0  0
 37 39  1  0  0  0  0
 38 37  1  0  0  0  0
 38 39  1  0  0  0  0
 39 43  1  0  0  0  0
 39 44  1  0  0  0  0
 40 37  1  0  0  0  0
 41 38  1  0  0  0  0
 42 38  1  0  0  0  0
M  END
>  <minimizedAffinity>
-5.74367523

$$$$

 OpenBabel03242520233D

 44 47  0  0  0  0  0  0  0  0999 V2000
   36.0870   29.8900   38.2300 C   0  0  0  0  0  0  0  0  0  0  0  0
   36.7670   29.1420   37.8050 H   0  0  0  0  0  0  0  0  0  0  0  0
   35.3700   30.1460   37.4040 H   0  0  0  0  0  0  0  0  0  0  0  0
   38.1410   31.1700   38.4980 C   0  0  0  0  0  0  0  0  0  0  0  0
   38.8530   30.2550   37.9640 O   0  0  0  0  0  0  0  0  0  0  0  0
   36.7400   31.1300   38.6030 N   0  0  0  0  0  0  0  0  0  0  0  0
   36.1620   31.9120   38.9210 H   0  0  0  0  0  0  0  0  0  0  0  0
   38.8130   32.3710   39.0570 C   0  0  0  0  0  0  0  0  0  0  0  0
   38.0500   33.3270   39.7010 C   0  0  0  0  0  0  0  0  0  0  0  0
   38.5620   34.4770   40.2640 C   0  0  0  0  0  0  0  0  0  0  0  0
   39.9430   34.6610   40.1630 C   0  0  0  0  0  0  0  0  0  0  0  0
   40.6450   33.6820   39.5160 C   0  0  0  0  0  0  0  0  0  0  0  0
   40.1470   32.5720   38.9730 N   0  0  0  0  0  0  0  0  0  0  0  0
   36.9750   33.1520   39.7620 H   0  0  0  0  0  0  0  0  0  0  0  0
   37.8740   35.1720   40.7510 H   0  0  0  0  0  0  0  0  0  0  0  0
   40.3410   35.5460   40.5960 H   0  0  0  0  0  0  0  0  0  0  0  0
   42.0920   33.8190   39.3800 C   0  0  0  0  0  0  0  0  0  0  0  0
   42.9050   34.0170   40.4920 C   0  0  0  0  0  0  0  0  0  0  0  0
   42.4640   34.0730   41.4990 H   0  0  0  0  0  0  0  0  0  0  0  0
   44.2850   34.1570   40.4570 C   0  0  0  0  0  3  0  0  0  0  0  0
   44.9050   34.0970   39.2270 C   0  0  0  0  0  0  0  0  0  0  0  0
   45.9800   34.2100   39.2360 H   0  0  0  0  0  0  0  0  0  0  0  0
   44.1490   33.9030   38.0890 C   0  0  0  0  0  0  0  0  0  0  0  0
   44.6520   33.8580   37.1300 H   0  0  0  0  0  0  0  0  0  0  0  0
   42.7810   33.7700   38.1900 C   0  0  0  0  0  3  0  0  0  0  0  0
   35.2420   29.3180   39.3720 C   0  0  0  0  0  0  0  0  0  0  0  0
   34.6110   30.1240   39.7730 H   0  0  0  0  0  0  0  0  0  0  0  0
   34.6520   28.4960   38.9260 H   0  0  0  0  0  0  0  0  0  0  0  0
   37.4020   27.0230   41.4730 C   0  0  0  0  0  0  0  0  0  0  0  0
   36.5420   27.4810   40.4390 C   0  0  0  0  0  0  0  0  0  0  0  0
   36.1300   28.7980   40.4370 C   0  0  0  0  0  0  0  0  0  0  0  0
   36.5960   29.5880   41.4660 N   0  0  0  0  0  0  0  0  0  0  0  0
   37.4210   29.0960   42.4330 C   0  0  0  0  0  0  0  0  0  0  0  0
   37.8180   27.8220   42.4320 N   0  0  0  0  0  0  0  0  0  0  0  0
   36.1920   26.8400   39.6460 H   0  0  0  0  0  0  0  0  0  0  0  0
   37.7470   29.7770   43.2120 H   0  0  0  0  0  0  0  0  0  0  0  0
   37.8250   25.5920   41.4610 C   0  0  0  0  0  0  0  0  0  0  0  0
   36.8000   24.6910   42.2550 C   0  0  0  0  0  0  0  0  0  0  0  0
   37.1540   24.5270   40.8350 C   0  0  0  0  0  0  0  0  0  0  0  0
   38.8720   25.4840   41.8480 H   0  0  0  0  0  0  0  0  0  0  0  0
   37.2700   23.9970   42.9720 H   0  0  0  0  0  0  0  0  0  0  0  0
   35.8700   25.1590   42.5750 H   0  0  0  0  0  0  0  0  0  0  0  0
   37.7250   23.6210   40.5440 H   0  0  0  0  0  0  0  0  0  0  0  0
   36.3190   24.7040   40.0950 H   0  0  0  0  0  0  0  0  0  0  0  0
  1  6  1  0  0  0  0
  1 26  1  0  0  0  0
  2  1  1  0  0  0  0
  3  1  1  0  0  0  0
  4  6  1  0  0  0  0
  4  8  1  0  0  0  0
  5  4  2  0  0  0  0
  6  7  1  0  0  0  0
  8  9  1  0  0  0  0
  9 14  1  0  0  0  0
  9 10  2  0  0  0  0
 10 15  1  0  0  0  0
 11 10  1  0  0  0  0
 11 16  1  0  0  0  0
 12 11  2  0  0  0  0
 13  8  2  0  0  0  0
 13 12  1  0  0  0  0
 17 12  1  0  0  0  0
 17 18  1  0  0  0  0
 18 19  1  0  0  0  0
 20 18  2  0  0  0  0
 21 22  1  0  0  0  0
 21 20  1  0  0  0  0
 23 25  1  0  0  0  0
 23 21  2  0  0  0  0
 24 23  1  0  0  0  0
 25 17  2  0  0  0  0
 26 27  1  0  0  0  0
 26 31  1  0  0  0  0
 28 26  1  0  0  0  0
 29 34  1  0  0  0  0
 30 29  2  0  0  0  0
 31 30  1  0  0  0  0
 31 32  2  0  0  0  0
 32 33  1  0  0  0  0
 33 36  1  0  0  0  0
 34 33  2  0  0  0  0
 35 30  1  0  0  0  0
 37 29  1  0  0  0  0
 37 40  1  0  0  0  0
 37 38  1  0  0  0  0
 38 42  1  0  0  0  0
 38 41  1  0  0  0  0
 39 37  1  0  0  0  0
 39 38  1  0  0  0  0
 43 39  1  0  0  0  0
 44 39  1  0  0  0  0
M  END
>  <minimizedAffinity>
-5.7134409

$$$$

 OpenBabel03242520233D

 44 47  0  0  0  0  0  0  0  0999 V2000
   37.8390   32.4490   40.1410 C   0  0  0  0  0  0  0  0  0  0  0  0
   38.9060   32.6510   40.2950 H   0  0  0  0  0  0  0  0  0  0  0  0
   37.3000   33.3210   40.6000 H   0  0  0  0  0  0  0  0  0  0  0  0
   38.3100   30.5190   41.5490 C   0  0  0  0  0  0  0  0  0  0  0  0
   39.5130   30.8910   41.7600 O   0  0  0  0  0  0  0  0  0  0  0  0
   37.3620   31.2650   40.8280 N   0  0  0  0  0  0  0  0  0  0  0  0
   36.3690   31.0250   40.7600 H   0  0  0  0  0  0  0  0  0  0  0  0
   37.8550   29.2140   42.0910 C   0  0  0  0  0  0  0  0  0  0  0  0
   37.6970   29.0740   43.4580 C   0  0  0  0  0  0  0  0  0  0  0  0
   37.2750   27.9150   44.0750 C   0  0  0  0  0  0  0  0  0  0  0  0
   36.9950   26.8300   43.2410 C   0  0  0  0  0  0  0  0  0  0  0  0
   37.1680   27.0280   41.8990 C   0  0  0  0  0  0  0  0  0  0  0  0
   37.5770   28.1490   41.3060 N   0  0  0  0  0  0  0  0  0  0  0  0
   37.9250   29.9400   44.0790 H   0  0  0  0  0  0  0  0  0  0  0  0
   37.1830   27.9050   45.1620 H   0  0  0  0  0  0  0  0  0  0  0  0
   36.6690   25.9350   43.7120 H   0  0  0  0  0  0  0  0  0  0  0  0
   36.8900   25.9300   40.9780 C   0  0  0  0  0  0  0  0  0  0  0  0
   36.6050   26.1680   39.6370 C   0  0  0  0  0  0  0  0  0  0  0  0
   36.5850   27.1980   39.2480 H   0  0  0  0  0  0  0  0  0  0  0  0
   36.3300   25.1890   38.6930 C   0  0  0  0  0  3  0  0  0  0  0  0
   36.3390   23.8750   39.1110 C   0  0  0  0  0  0  0  0  0  0  0  0
   36.1200   23.1380   38.3500 H   0  0  0  0  0  0  0  0  0  0  0  0
   36.6150   23.5780   40.4290 C   0  0  0  0  0  0  0  0  0  0  0  0
   36.6180   22.5400   40.7420 H   0  0  0  0  0  0  0  0  0  0  0  0
   36.8810   24.5970   41.3200 C   0  0  0  0  0  3  0  0  0  0  0  0
   37.4620   32.4450   38.6560 C   0  0  0  0  0  0  0  0  0  0  0  0
   36.4380   32.8320   38.5570 H   0  0  0  0  0  0  0  0  0  0  0  0
   38.2120   33.0840   38.1540 H   0  0  0  0  0  0  0  0  0  0  0  0
   36.5070   29.1080   37.1410 C   0  0  0  0  0  0  0  0  0  0  0  0
   36.4010   30.4310   37.6450 C   0  0  0  0  0  0  0  0  0  0  0  0
   37.5280   31.0610   38.1300 C   0  0  0  0  0  0  0  0  0  0  0  0
   38.7010   30.3380   38.0890 N   0  0  0  0  0  0  0  0  0  0  0  0
   38.7460   29.0690   37.5930 C   0  0  0  0  0  0  0  0  0  0  0  0
   37.6540   28.4620   37.1240 N   0  0  0  0  0  0  0  0  0  0  0  0
   35.4690   30.9730   37.6660 H   0  0  0  0  0  0  0  0  0  0  0  0
   39.7040   28.5610   37.5930 H   0  0  0  0  0  0  0  0  0  0  0  0
   35.2720   28.4420   36.6310 C   0  0  0  0  0  0  0  0  0  0  0  0
   34.2370   28.1960   37.7980 C   0  0  0  0  0  0  0  0  0  0  0  0
   33.9810   28.9960   36.5890 C   0  0  0  0  0  0  0  0  0  0  0  0
   35.5270   27.4960   36.0860 H   0  0  0  0  0  0  0  0  0  0  0  0
   33.8180   27.1770   37.8230 H   0  0  0  0  0  0  0  0  0  0  0  0
   34.4580   28.6510   38.7630 H   0  0  0  0  0  0  0  0  0  0  0  0
   33.2450   28.6050   35.8550 H   0  0  0  0  0  0  0  0  0  0  0  0
   33.8010   30.0990   36.7560 H   0  0  0  0  0  0  0  0  0  0  0  0
  1  2  1  0  0  0  0
  1  3  1  0  0  0  0
  1  6  1  0  0  0  0
  4  5  2  0  0  0  0
  4  8  1  0  0  0  0
  6  4  1  0  0  0  0
  7  6  1  0  0  0  0
  8  9  1  0  0  0  0
  9 10  2  0  0  0  0
  9 14  1  0  0  0  0
 10 15  1  0  0  0  0
 11 16  1  0  0  0  0
 11 10  1  0  0  0  0
 12 11  2  0  0  0  0
 13 12  1  0  0  0  0
 13  8  2  0  0  0  0
 17 25  1  0  0  0  0
 17 12  1  0  0  0  0
 18 17  2  0  0  0  0
 19 18  1  0  0  0  0
 20 21  2  0  0  0  0
 20 18  1  0  0  0  0
 21 23  1  0  0  0  0
 22 21  1  0  0  0  0
 23 24  1  0  0  0  0
 23 25  2  0  0  0  0
 26  1  1  0  0  0  0
 27 26  1  0  0  0  0
 28 26  1  0  0  0  0
 29 30  1  0  0  0  0
 30 35  1  0  0  0  0
 30 31  2  0  0  0  0
 31 26  1  0  0  0  0
 32 31  1  0  0  0  0
 33 36  1  0  0  0  0
 33 32  2  0  0  0  0
 34 29  2  0  0  0  0
 34 33  1  0  0  0  0
 37 29  1  0  0  0  0
 37 38  1  0  0  0  0
 38 41  1  0  0  0  0
 38 42  1  0  0  0  0
 39 37  1  0  0  0  0
 39 44  1  0  0  0  0
 39 38  1  0  0  0  0
 40 37  1  0  0  0  0
 43 39  1  0  0  0  0
M  END
>  <minimizedAffinity>
-5.71283293

$$$$

 OpenBabel03242520233D

 44 47  0  0  0  0  0  0  0  0999 V2000
   35.9970   29.1330   36.9890 C   0  0  0  0  0  0  0  0  0  0  0  0
   34.9980   29.4800   37.2790 H   0  0  0  0  0  0  0  0  0  0  0  0
   35.8800   28.7170   35.9520 H   0  0  0  0  0  0  0  0  0  0  0  0
   35.6750   26.9220   37.9560 C   0  0  0  0  0  0  0  0  0  0  0  0
   34.5950   26.7270   37.3050 O   0  0  0  0  0  0  0  0  0  0  0  0
   36.5010   28.0490   37.8090 N   0  0  0  0  0  0  0  0  0  0  0  0
   37.4240   28.1500   38.2410 H   0  0  0  0  0  0  0  0  0  0  0  0
   36.1140   25.9030   38.9440 C   0  0  0  0  0  0  0  0  0  0  0  0
   35.6770   24.5990   38.7990 C   0  0  0  0  0  0  0  0  0  0  0  0
   36.0210   23.5670   39.6480 C   0  0  0  0  0  0  0  0  0  0  0  0
   36.8670   23.8900   40.7120 C   0  0  0  0  0  0  0  0  0  0  0  0
   37.2670   25.1950   40.8030 C   0  0  0  0  0  0  0  0  0  0  0  0
   36.9310   26.1890   39.9810 N   0  0  0  0  0  0  0  0  0  0  0  0
   35.0170   24.3810   37.9590 H   0  0  0  0  0  0  0  0  0  0  0  0
   35.6220   22.5710   39.4490 H   0  0  0  0  0  0  0  0  0  0  0  0
   37.1350   23.0990   41.3680 H   0  0  0  0  0  0  0  0  0  0  0  0
   38.1520   25.5910   41.8940 C   0  0  0  0  0  0  0  0  0  0  0  0
   38.0600   26.8520   42.4740 C   0  0  0  0  0  0  0  0  0  0  0  0
   37.3110   27.5750   42.1160 H   0  0  0  0  0  0  0  0  0  0  0  0
   38.8570   27.3130   43.5120 C   0  0  0  0  0  3  0  0  0  0  0  0
   39.8170   26.4580   44.0120 C   0  0  0  0  0  0  0  0  0  0  0  0
   40.4200   26.8500   44.8200 H   0  0  0  0  0  0  0  0  0  0  0  0
   39.9540   25.1950   43.4750 C   0  0  0  0  0  0  0  0  0  0  0  0
   40.7140   24.5360   43.8790 H   0  0  0  0  0  0  0  0  0  0  0  0
   39.1310   24.7960   42.4440 C   0  0  0  0  0  3  0  0  0  0  0  0
   36.9990   30.2860   36.8780 C   0  0  0  0  0  0  0  0  0  0  0  0
   37.9590   29.8790   36.5320 H   0  0  0  0  0  0  0  0  0  0  0  0
   36.5550   31.0020   36.1620 H   0  0  0  0  0  0  0  0  0  0  0  0
   38.2600   32.4880   39.6900 C   0  0  0  0  0  0  0  0  0  0  0  0
   38.1310   31.8950   38.4060 C   0  0  0  0  0  0  0  0  0  0  0  0
   37.1730   30.9230   38.2050 C   0  0  0  0  0  0  0  0  0  0  0  0
   36.3970   30.5910   39.2940 N   0  0  0  0  0  0  0  0  0  0  0  0
   36.5640   31.1930   40.5060 C   0  0  0  0  0  0  0  0  0  0  0  0
   37.4890   32.1340   40.6980 N   0  0  0  0  0  0  0  0  0  0  0  0
   38.7520   32.1740   37.5710 H   0  0  0  0  0  0  0  0  0  0  0  0
   35.9160   30.8810   41.3180 H   0  0  0  0  0  0  0  0  0  0  0  0
   39.3090   33.5300   39.8880 C   0  0  0  0  0  0  0  0  0  0  0  0
   40.6390   32.8960   40.4560 C   0  0  0  0  0  0  0  0  0  0  0  0
   40.5250   33.6350   39.1890 C   0  0  0  0  0  0  0  0  0  0  0  0
   38.9270   34.3620   40.5350 H   0  0  0  0  0  0  0  0  0  0  0  0
   41.0660   33.4380   41.3160 H   0  0  0  0  0  0  0  0  0  0  0  0
   40.6940   31.8090   40.4960 H   0  0  0  0  0  0  0  0  0  0  0  0
   41.0270   34.6230   39.1170 H   0  0  0  0  0  0  0  0  0  0  0  0
   40.7240   33.0390   38.2500 H   0  0  0  0  0  0  0  0  0  0  0  0
  1  2  1  0  0  0  0
  1  6  1  0  0  0  0
  3  1  1  0  0  0  0
  4  8  1  0  0  0  0
  5  4  2  0  0  0  0
  6  4  1  0  0  0  0
  6  7  1  0  0  0  0
  8 13  1  0  0  0  0
  9  8  2  0  0  0  0
  9 10  1  0  0  0  0
 10 11  2  0  0  0  0
 11 12  1  0  0  0  0
 11 16  1  0  0  0  0
 12 17  1  0  0  0  0
 13 12  2  0  0  0  0
 14  9  1  0  0  0  0
 15 10  1  0  0  0  0
 17 25  2  0  0  0  0
 17 18  1  0  0  0  0
 18 20  2  0  0  0  0
 19 18  1  0  0  0  0
 20 21  1  0  0  0  0
 21 22  1  0  0  0  0
 23 24  1  0  0  0  0
 23 21  2  0  0  0  0
 25 23  1  0  0  0  0
 26  1  1  0  0  0  0
 26 31  1  0  0  0  0
 27 26  1  0  0  0  0
 28 26  1  0  0  0  0
 29 37  1  0  0  0  0
 29 34  1  0  0  0  0
 30 29  2  0  0  0  0
 31 30  1  0  0  0  0
 31 32  2  0  0  0  0
 32 33  1  0  0  0  0
 33 34  2  0  0  0  0
 33 36  1  0  0  0  0
 35 30  1  0  0  0  0
 37 38  1  0  0  0  0
 37 40  1  0  0  0  0
 38 42  1  0  0  0  0
 38 41  1  0  0  0  0
 39 37  1  0  0  0  0
 39 38  1  0  0  0  0
 43 39  1  0  0  0  0
 44 39  1  0  0  0  0
M  END
>  <minimizedAffinity>
-5.67091465

$$$$

 OpenBabel03242520233D

 44 47  0  0  0  0  0  0  0  0999 V2000
   37.2030   31.8020   40.4900 C   0  0  0  0  0  0  0  0  0  0  0  0
   36.6680   32.7600   40.5070 H   0  0  0  0  0  0  0  0  0  0  0  0
   37.0240   31.3410   41.4980 H   0  0  0  0  0  0  0  0  0  0  0  0
   39.1410   33.2310   40.1340 C   0  0  0  0  0  0  0  0  0  0  0  0
   38.4430   34.2980   40.1990 O   0  0  0  0  0  0  0  0  0  0  0  0
   38.6390   31.9370   40.3510 N   0  0  0  0  0  0  0  0  0  0  0  0
   39.2190   31.0960   40.4160 H   0  0  0  0  0  0  0  0  0  0  0  0
   40.5860   33.3360   39.8060 C   0  0  0  0  0  0  0  0  0  0  0  0
   41.3670   34.2400   40.5040 C   0  0  0  0  0  0  0  0  0  0  0  0
   42.7180   34.4210   40.2940 C   0  0  0  0  0  0  0  0  0  0  0  0
   43.3090   33.6270   39.3080 C   0  0  0  0  0  0  0  0  0  0  0  0
   42.4870   32.7520   38.6520 C   0  0  0  0  0  0  0  0  0  0  0  0
   41.1820   32.5800   38.8580 N   0  0  0  0  0  0  0  0  0  0  0  0
   40.8740   34.8440   41.2660 H   0  0  0  0  0  0  0  0  0  0  0  0
   43.2470   35.1620   40.8970 H   0  0  0  0  0  0  0  0  0  0  0  0
   44.3490   33.7630   39.1420 H   0  0  0  0  0  0  0  0  0  0  0  0
   43.0480   31.8960   37.6120 C   0  0  0  0  0  0  0  0  0  0  0  0
   42.2800   30.9150   36.9930 C   0  0  0  0  0  0  0  0  0  0  0  0
   41.2270   30.7700   37.2820 H   0  0  0  0  0  0  0  0  0  0  0  0
   42.7280   30.0590   35.9980 C   0  0  0  0  0  3  0  0  0  0  0  0
   44.0380   30.1850   35.5860 C   0  0  0  0  0  0  0  0  0  0  0  0
   44.3550   29.5030   34.8090 H   0  0  0  0  0  0  0  0  0  0  0  0
   44.8480   31.1410   36.1640 C   0  0  0  0  0  0  0  0  0  0  0  0
   45.8750   31.2270   35.8280 H   0  0  0  0  0  0  0  0  0  0  0  0
   44.3430   31.9620   37.1490 C   0  0  0  0  0  3  0  0  0  0  0  0
   36.6130   30.8310   39.4620 C   0  0  0  0  0  0  0  0  0  0  0  0
   35.5240   30.9750   39.4350 H   0  0  0  0  0  0  0  0  0  0  0  0
   37.1010   31.0770   38.5010 H   0  0  0  0  0  0  0  0  0  0  0  0
   37.0790   27.6740   41.5020 C   0  0  0  0  0  0  0  0  0  0  0  0
   36.7780   29.0200   41.1640 C   0  0  0  0  0  0  0  0  0  0  0  0
   36.9260   29.4380   39.8580 C   0  0  0  0  0  0  0  0  0  0  0  0
   37.3680   28.4930   38.9580 N   0  0  0  0  0  0  0  0  0  0  0  0
   37.6420   27.2120   39.3370 C   0  0  0  0  0  0  0  0  0  0  0  0
   37.4970   26.8100   40.6000 N   0  0  0  0  0  0  0  0  0  0  0  0
   36.4340   29.7390   41.8900 H   0  0  0  0  0  0  0  0  0  0  0  0
   37.9860   26.5230   38.5730 H   0  0  0  0  0  0  0  0  0  0  0  0
   36.9220   27.2470   42.9230 C   0  0  0  0  0  0  0  0  0  0  0  0
   38.3060   27.2800   43.6820 C   0  0  0  0  0  0  0  0  0  0  0  0
   37.1100   28.0490   44.0620 C   0  0  0  0  0  0  0  0  0  0  0  0
   36.4300   26.2410   42.9840 H   0  0  0  0  0  0  0  0  0  0  0  0
   38.5230   26.3700   44.2650 H   0  0  0  0  0  0  0  0  0  0  0  0
   39.1490   27.7310   43.1590 H   0  0  0  0  0  0  0  0  0  0  0  0
   36.5990   27.7770   45.0090 H   0  0  0  0  0  0  0  0  0  0  0  0
   37.2020   29.1730   43.9890 H   0  0  0  0  0  0  0  0  0  0  0  0
  1  2  1  0  0  0  0
  1  3  1  0  0  0  0
  4  5  2  0  0  0  0
  4  6  1  0  0  0  0
  6  7  1  0  0  0  0
  6  1  1  0  0  0  0
  8  4  1  0  0  0  0
  8  9  1  0  0  0  0
  9 14  1  0  0  0  0
 10  9  2  0  0  0  0
 10 15  1  0  0  0  0
 11 10  1  0  0  0  0
 12 13  1  0  0  0  0
 12 11  2  0  0  0  0
 13  8  2  0  0  0  0
 16 11  1  0  0  0  0
 17 12  1  0  0  0  0
 18 19  1  0  0  0  0
 18 17  2  0  0  0  0
 20 18  1  0  0  0  0
 21 20  2  0  0  0  0
 21 23  1  0  0  0  0
 22 21  1  0  0  0  0
 23 25  2  0  0  0  0
 24 23  1  0  0  0  0
 25 17  1  0  0  0  0
 26 31  1  0  0  0  0
 26  1  1  0  0  0  0
 27 26  1  0  0  0  0
 28 26  1  0  0  0  0
 29 37  1  0  0  0  0
 30 29  1  0  0  0  0
 30 35  1  0  0  0  0
 31 30  2  0  0  0  0
 32 33  2  0  0  0  0
 32 31  1  0  0  0  0
 33 34  1  0  0  0  0
 34 29  2  0  0  0  0
 36 33  1  0  0  0  0
 37 40  1  0  0  0  0
 37 38  1  0  0  0  0
 37 39  1  0  0  0  0
 38 39  1  0  0  0  0
 38 41  1  0  0  0  0
 39 43  1  0  0  0  0
 42 38  1  0  0  0  0
 44 39  1  0  0  0  0
M  END
>  <minimizedAffinity>
-5.60931063

$$$$
