
 OpenBabel03252506563D

 38 42  0  0  0  0  0  0  0  0999 V2000
   47.2270   31.3790   45.1470 C   0  0  0  0  0  0  0  0  0  0  0  0
   46.8640   32.7250   45.1390 C   0  0  0  0  0  0  0  0  0  0  0  0
   46.2560   33.3490   46.1990 C   0  0  0  0  0  0  0  0  0  0  0  0
   45.9750   32.6290   47.3510 C   0  0  0  0  0  0  0  0  0  0  0  0
   45.4010   32.8940   48.5610 N   0  0  0  0  0  0  0  0  0  0  0  0
   45.4070   31.7530   49.2990 C   0  0  0  0  0  0  0  0  0  0  0  0
   45.9790   30.7960   48.5440 N   0  0  0  0  0  0  0  0  0  0  0  0
   46.3340   31.3020   47.3530 C   0  0  0  0  0  0  0  0  0  0  0  0
   46.9440   30.6570   46.3030 C   0  0  0  0  0  0  0  0  0  0  0  0
   47.7100   30.9010   44.2950 H   0  0  0  0  0  0  0  0  0  0  0  0
   45.9760   34.3980   46.1850 H   0  0  0  0  0  0  0  0  0  0  0  0
   45.0350   33.8470   48.8200 H   0  0  0  0  0  0  0  0  0  0  0  0
   45.0070   31.6680   50.3190 H   0  0  0  0  0  0  0  0  0  0  0  0
   46.5080   35.1810   42.4150 C   0  0  0  0  0  0  0  0  0  0  0  0
   47.6870   34.9850   41.6760 C   0  0  0  0  0  0  0  0  0  0  0  0
   48.5830   34.0180   42.1200 C   0  0  0  0  0  0  0  0  0  0  0  0
   48.2850   33.3010   43.2490 N   0  0  0  0  0  0  0  0  0  0  0  0
   47.1490   33.5130   43.9340 C   0  0  0  0  0  0  0  0  0  0  0  0
   46.2610   34.4450   43.5260 N   0  0  0  0  0  0  0  0  0  0  0  0
   45.7940   35.9250   42.0940 H   0  0  0  0  0  0  0  0  0  0  0  0
   47.8740   35.5770   40.7930 H   0  0  0  0  0  0  0  0  0  0  0  0
   49.5070   33.8350   41.5790 H   0  0  0  0  0  0  0  0  0  0  0  0
   47.2940   29.2330   46.3970 C   0  0  0  0  0  0  0  0  0  0  0  0
   48.5720   28.7360   46.3330 C   0  0  0  0  0  0  0  0  0  0  0  0
   48.4040   27.3450   46.4690 C   0  0  0  0  0  0  0  0  0  0  0  0
   47.0460   27.0910   46.6040 C   0  0  0  0  0  0  0  0  0  0  0  0
   46.4460   28.2620   46.5520 O   0  0  0  0  0  0  0  0  0  0  0  0
   49.5210   29.2560   46.2090 H   0  0  0  0  0  0  0  0  0  0  0  0
   49.1960   26.6020   46.4670 H   0  0  0  0  0  0  0  0  0  0  0  0
   46.3870   25.7780   46.7730 C   0  0  0  0  0  0  0  0  0  0  0  0
   47.2130   24.6720   46.7410 C   0  0  0  0  0  0  0  0  0  0  0  0
   48.2800   24.7780   46.5990 H   0  0  0  0  0  0  0  0  0  0  0  0
   46.5690   23.4410   46.9020 C   0  0  0  0  0  3  0  0  0  0  0  0
   45.2000   23.3520   47.0810 C   0  0  0  0  0  0  0  0  0  0  0  0
   44.7490   22.3750   47.2020 H   0  0  0  0  0  0  0  0  0  0  0  0
   44.4450   24.5080   47.1010 C   0  0  0  0  0  0  0  0  0  0  0  0
   43.3560   24.4630   47.2410 H   0  0  0  0  0  0  0  0  0  0  0  0
   45.0170   25.7760   46.9450 C   0  0  0  0  0  3  0  0  0  0  0  0
  1  9  1  0  0  0  0
  2  1  2  0  0  0  0
  2  3  1  0  0  0  0
  3  4  2  0  0  0  0
  4  8  1  0  0  0  0
  4  5  1  0  0  0  0
  5 12  1  0  0  0  0
  5  6  1  0  0  0  0
  6 13  1  0  0  0  0
  7  6  2  0  0  0  0
  8  7  1  0  0  0  0
  9 23  1  0  0  0  0
  9  8  2  0  0  0  0
 10  1  1  0  0  0  0
 11  3  1  0  0  0  0
 14 19  1  0  0  0  0
 15 16  1  0  0  0  0
 15 14  2  0  0  0  0
 16 17  2  0  0  0  0
 17 18  1  0  0  0  0
 18  2  1  0  0  0  0
 19 18  2  0  0  0  0
 20 14  1  0  0  0  0
 21 15  1  0  0  0  0
 22 16  1  0  0  0  0
 23 27  1  0  0  0  0
 24 23  2  0  0  0  0
 24 25  1  0  0  0  0
 25 26  2  0  0  0  0
 26 30  1  0  0  0  0
 27 26  1  0  0  0  0
 28 24  1  0  0  0  0
 29 25  1  0  0  0  0
 30 38  1  0  0  0  0
 31 30  2  0  0  0  0
 31 33  1  0  0  0  0
 32 31  1  0  0  0  0
 33 34  2  0  0  0  0
 34 36  1  0  0  0  0
 34 35  1  0  0  0  0
 36 37  1  0  0  0  0
 38 36  2  0  0  0  0
M  END
>  <minimizedAffinity>
-5.62917376

>  <minimizedRMSD>
0.365378827

$$$$
