
 OpenBabel03252506573D

 38 42  0  0  0  0  0  0  0  0999 V2000
   47.3280   31.3480   45.2100 C   0  0  0  0  0  0  0  0  0  0  0  0
   46.9030   32.6720   45.1190 C   0  0  0  0  0  0  0  0  0  0  0  0
   46.2490   33.3270   46.1330 C   0  0  0  0  0  0  0  0  0  0  0  0
   45.9830   32.6610   47.3200 C   0  0  0  0  0  0  0  0  0  0  0  0
   45.3780   32.9680   48.5050 N   0  0  0  0  0  0  0  0  0  0  0  0
   45.4240   31.8720   49.3080 C   0  0  0  0  0  0  0  0  0  0  0  0
   46.0530   30.9020   48.6170 N   0  0  0  0  0  0  0  0  0  0  0  0
   46.4040   31.3550   47.4050 C   0  0  0  0  0  0  0  0  0  0  0  0
   47.0600   30.6810   46.4020 C   0  0  0  0  0  0  0  0  0  0  0  0
   47.8460   30.8460   44.3940 H   0  0  0  0  0  0  0  0  0  0  0  0
   45.9210   34.3590   46.0540 H   0  0  0  0  0  0  0  0  0  0  0  0
   44.9640   33.9150   48.7040 H   0  0  0  0  0  0  0  0  0  0  0  0
   45.0130   31.8270   50.3260 H   0  0  0  0  0  0  0  0  0  0  0  0
   46.6010   35.1160   42.3770 C   0  0  0  0  0  0  0  0  0  0  0  0
   47.6750   34.7660   41.5420 C   0  0  0  0  0  0  0  0  0  0  0  0
   48.4850   33.7030   41.9290 C   0  0  0  0  0  0  0  0  0  0  0  0
   48.2050   33.0440   43.0970 N   0  0  0  0  0  0  0  0  0  0  0  0
   47.1700   33.4020   43.8750 C   0  0  0  0  0  0  0  0  0  0  0  0
   46.3680   34.4310   43.5240 N   0  0  0  0  0  0  0  0  0  0  0  0
   45.9550   35.9370   42.1030 H   0  0  0  0  0  0  0  0  0  0  0  0
   47.8510   35.3190   40.6320 H   0  0  0  0  0  0  0  0  0  0  0  0
   49.3260   33.4010   41.3120 H   0  0  0  0  0  0  0  0  0  0  0  0
   47.4740   29.2830   46.5830 C   0  0  0  0  0  0  0  0  0  0  0  0
   48.7560   28.8190   46.4180 C   0  0  0  0  0  0  0  0  0  0  0  0
   48.6590   27.4430   46.6960 C   0  0  0  0  0  0  0  0  0  0  0  0
   47.3350   27.1640   47.0090 C   0  0  0  0  0  0  0  0  0  0  0  0
   46.6880   28.3060   46.9210 O   0  0  0  0  0  0  0  0  0  0  0  0
   49.6630   29.3520   46.1390 H   0  0  0  0  0  0  0  0  0  0  0  0
   49.4750   26.7260   46.6700 H   0  0  0  0  0  0  0  0  0  0  0  0
   46.7520   25.8530   47.3700 C   0  0  0  0  0  0  0  0  0  0  0  0
   47.6460   24.8640   47.7250 C   0  0  0  0  0  0  0  0  0  0  0  0
   48.7120   25.0520   47.7340 H   0  0  0  0  0  0  0  0  0  0  0  0
   47.0730   23.6330   48.0620 C   0  0  0  0  0  3  0  0  0  0  0  0
   45.7040   23.4360   48.0380 C   0  0  0  0  0  0  0  0  0  0  0  0
   45.3100   22.4640   48.3080 H   0  0  0  0  0  0  0  0  0  0  0  0
   44.8770   24.4790   47.6710 C   0  0  0  0  0  0  0  0  0  0  0  0
   43.7880   24.3460   47.6430 H   0  0  0  0  0  0  0  0  0  0  0  0
   45.3770   25.7390   47.3190 C   0  0  0  0  0  3  0  0  0  0  0  0
  1  9  1  0  0  0  0
  2  1  2  0  0  0  0
  2  3  1  0  0  0  0
  3  4  2  0  0  0  0
  4  8  1  0  0  0  0
  4  5  1  0  0  0  0
  5 12  1  0  0  0  0
  5  6  1  0  0  0  0
  6 13  1  0  0  0  0
  7  6  2  0  0  0  0
  8  7  1  0  0  0  0
  9 23  1  0  0  0  0
  9  8  2  0  0  0  0
 10  1  1  0  0  0  0
 11  3  1  0  0  0  0
 14 19  1  0  0  0  0
 15 16  1  0  0  0  0
 15 14  2  0  0  0  0
 16 17  2  0  0  0  0
 17 18  1  0  0  0  0
 18  2  1  0  0  0  0
 19 18  2  0  0  0  0
 20 14  1  0  0  0  0
 21 15  1  0  0  0  0
 22 16  1  0  0  0  0
 23 27  1  0  0  0  0
 24 23  2  0  0  0  0
 24 25  1  0  0  0  0
 25 26  2  0  0  0  0
 26 30  1  0  0  0  0
 27 26  1  0  0  0  0
 28 24  1  0  0  0  0
 29 25  1  0  0  0  0
 30 31  1  0  0  0  0
 31 32  1  0  0  0  0
 31 33  2  0  0  0  0
 34 33  1  0  0  0  0
 34 35  1  0  0  0  0
 36 34  2  0  0  0  0
 37 36  1  0  0  0  0
 38 30  2  0  0  0  0
 38 36  1  0  0  0  0
M  END
>  <minimizedAffinity>
-5.67093325

>  <minimizedRMSD>
0.768835425

$$$$
