
 OpenBabel03252506573D

 38 42  0  0  0  0  0  0  0  0999 V2000
   47.3380   31.3160   45.2300 C   0  0  0  0  0  0  0  0  0  0  0  0
   46.9090   32.6380   45.1400 C   0  0  0  0  0  0  0  0  0  0  0  0
   46.2470   33.2880   46.1530 C   0  0  0  0  0  0  0  0  0  0  0  0
   45.9770   32.6190   47.3370 C   0  0  0  0  0  0  0  0  0  0  0  0
   45.3660   32.9200   48.5200 N   0  0  0  0  0  0  0  0  0  0  0  0
   45.4130   31.8230   49.3200 C   0  0  0  0  0  0  0  0  0  0  0  0
   46.0490   30.8570   48.6300 N   0  0  0  0  0  0  0  0  0  0  0  0
   46.4040   31.3140   47.4210 C   0  0  0  0  0  0  0  0  0  0  0  0
   47.0680   30.6450   46.4190 C   0  0  0  0  0  0  0  0  0  0  0  0
   47.8630   30.8180   44.4160 H   0  0  0  0  0  0  0  0  0  0  0  0
   45.9150   34.3190   46.0740 H   0  0  0  0  0  0  0  0  0  0  0  0
   44.9460   33.8650   48.7180 H   0  0  0  0  0  0  0  0  0  0  0  0
   44.9970   31.7740   50.3360 H   0  0  0  0  0  0  0  0  0  0  0  0
   46.6090   35.0870   42.4020 C   0  0  0  0  0  0  0  0  0  0  0  0
   47.6890   34.7440   41.5720 C   0  0  0  0  0  0  0  0  0  0  0  0
   48.5020   33.6840   41.9600 C   0  0  0  0  0  0  0  0  0  0  0  0
   48.2190   33.0210   43.1260 N   0  0  0  0  0  0  0  0  0  0  0  0
   47.1790   33.3730   43.8990 C   0  0  0  0  0  0  0  0  0  0  0  0
   46.3740   34.3980   43.5460 N   0  0  0  0  0  0  0  0  0  0  0  0
   45.9610   35.9050   42.1260 H   0  0  0  0  0  0  0  0  0  0  0  0
   47.8670   35.2990   40.6630 H   0  0  0  0  0  0  0  0  0  0  0  0
   49.3480   33.3860   41.3480 H   0  0  0  0  0  0  0  0  0  0  0  0
   47.4860   29.2480   46.6000 C   0  0  0  0  0  0  0  0  0  0  0  0
   48.7860   28.8060   46.5340 C   0  0  0  0  0  0  0  0  0  0  0  0
   48.6870   27.4230   46.7670 C   0  0  0  0  0  0  0  0  0  0  0  0
   47.3460   27.1170   46.9570 C   0  0  0  0  0  0  0  0  0  0  0  0
   46.6900   28.2520   46.8440 O   0  0  0  0  0  0  0  0  0  0  0  0
   49.7050   29.3600   46.3480 H   0  0  0  0  0  0  0  0  0  0  0  0
   49.5130   26.7180   46.7930 H   0  0  0  0  0  0  0  0  0  0  0  0
   46.7540   25.7890   47.2330 C   0  0  0  0  0  0  0  0  0  0  0  0
   46.8530   24.8560   46.2210 C   0  0  0  0  0  0  0  0  0  0  0  0
   47.3390   25.0970   45.2850 H   0  0  0  0  0  0  0  0  0  0  0  0
   46.2870   23.6070   46.5020 C   0  0  0  0  0  3  0  0  0  0  0  0
   45.6750   23.3420   47.7150 C   0  0  0  0  0  0  0  0  0  0  0  0
   45.2530   22.3580   47.8840 H   0  0  0  0  0  0  0  0  0  0  0  0
   45.6180   24.3320   48.6760 C   0  0  0  0  0  0  0  0  0  0  0  0
   45.1370   24.1450   49.6440 H   0  0  0  0  0  0  0  0  0  0  0  0
   46.1630   25.6050   48.4660 C   0  0  0  0  0  3  0  0  0  0  0  0
  1  9  1  0  0  0  0
  2  1  2  0  0  0  0
  2  3  1  0  0  0  0
  3  4  2  0  0  0  0
  4  8  1  0  0  0  0
  4  5  1  0  0  0  0
  5 12  1  0  0  0  0
  5  6  1  0  0  0  0
  6 13  1  0  0  0  0
  7  6  2  0  0  0  0
  8  7  1  0  0  0  0
  9 23  1  0  0  0  0
  9  8  2  0  0  0  0
 10  1  1  0  0  0  0
 11  3  1  0  0  0  0
 14 19  1  0  0  0  0
 15 16  1  0  0  0  0
 15 14  2  0  0  0  0
 16 17  2  0  0  0  0
 17 18  1  0  0  0  0
 18  2  1  0  0  0  0
 19 18  2  0  0  0  0
 20 14  1  0  0  0  0
 21 15  1  0  0  0  0
 22 16  1  0  0  0  0
 23 27  1  0  0  0  0
 24 23  2  0  0  0  0
 24 25  1  0  0  0  0
 25 29  1  0  0  0  0
 25 26  2  0  0  0  0
 26 30  1  0  0  0  0
 27 26  1  0  0  0  0
 28 24  1  0  0  0  0
 30 38  1  0  0  0  0
 31 33  1  0  0  0  0
 31 30  2  0  0  0  0
 32 31  1  0  0  0  0
 33 34  2  0  0  0  0
 34 35  1  0  0  0  0
 34 36  1  0  0  0  0
 36 37  1  0  0  0  0
 38 36  2  0  0  0  0
M  END
>  <minimizedAffinity>
-5.64764929

>  <minimizedRMSD>
0.728033781

$$$$
