
 OpenBabel03252506563D

 38 42  0  0  0  0  0  0  0  0999 V2000
   47.3380   31.3160   45.2300 C   0  0  0  0  0  0  0  0  0  0  0  0
   46.9080   32.6390   45.1400 C   0  0  0  0  0  0  0  0  0  0  0  0
   46.2470   33.2890   46.1530 C   0  0  0  0  0  0  0  0  0  0  0  0
   45.9780   32.6190   47.3370 C   0  0  0  0  0  0  0  0  0  0  0  0
   45.3660   32.9210   48.5200 N   0  0  0  0  0  0  0  0  0  0  0  0
   45.4130   31.8230   49.3200 C   0  0  0  0  0  0  0  0  0  0  0  0
   46.0490   30.8570   48.6300 N   0  0  0  0  0  0  0  0  0  0  0  0
   46.4040   31.3150   47.4200 C   0  0  0  0  0  0  0  0  0  0  0  0
   47.0670   30.6450   46.4190 C   0  0  0  0  0  0  0  0  0  0  0  0
   47.8620   30.8180   44.4150 H   0  0  0  0  0  0  0  0  0  0  0  0
   45.9160   34.3200   46.0740 H   0  0  0  0  0  0  0  0  0  0  0  0
   44.9470   33.8660   48.7190 H   0  0  0  0  0  0  0  0  0  0  0  0
   44.9970   31.7740   50.3360 H   0  0  0  0  0  0  0  0  0  0  0  0
   46.6090   35.0870   42.4020 C   0  0  0  0  0  0  0  0  0  0  0  0
   47.6900   34.7450   41.5720 C   0  0  0  0  0  0  0  0  0  0  0  0
   48.5020   33.6850   41.9600 C   0  0  0  0  0  0  0  0  0  0  0  0
   48.2200   33.0220   43.1260 N   0  0  0  0  0  0  0  0  0  0  0  0
   47.1790   33.3730   43.8990 C   0  0  0  0  0  0  0  0  0  0  0  0
   46.3740   34.3990   43.5450 N   0  0  0  0  0  0  0  0  0  0  0  0
   45.9610   35.9050   42.1250 H   0  0  0  0  0  0  0  0  0  0  0  0
   47.8680   35.3000   40.6630 H   0  0  0  0  0  0  0  0  0  0  0  0
   49.3490   33.3880   41.3480 H   0  0  0  0  0  0  0  0  0  0  0  0
   47.4850   29.2480   46.5990 C   0  0  0  0  0  0  0  0  0  0  0  0
   48.7840   28.8060   46.5320 C   0  0  0  0  0  0  0  0  0  0  0  0
   48.6850   27.4220   46.7660 C   0  0  0  0  0  0  0  0  0  0  0  0
   47.3430   27.1170   46.9560 C   0  0  0  0  0  0  0  0  0  0  0  0
   46.6880   28.2530   46.8430 O   0  0  0  0  0  0  0  0  0  0  0  0
   49.7030   29.3590   46.3460 H   0  0  0  0  0  0  0  0  0  0  0  0
   49.5110   26.7170   46.7910 H   0  0  0  0  0  0  0  0  0  0  0  0
   46.7520   25.7890   47.2320 C   0  0  0  0  0  0  0  0  0  0  0  0
   46.8470   24.8570   46.2190 C   0  0  0  0  0  0  0  0  0  0  0  0
   47.3300   25.0980   45.2820 H   0  0  0  0  0  0  0  0  0  0  0  0
   46.2800   23.6080   46.5020 C   0  0  0  0  0  3  0  0  0  0  0  0
   45.6710   23.3430   47.7150 C   0  0  0  0  0  0  0  0  0  0  0  0
   45.2480   22.3600   47.8840 H   0  0  0  0  0  0  0  0  0  0  0  0
   45.6190   24.3320   48.6770 C   0  0  0  0  0  0  0  0  0  0  0  0
   45.1400   24.1440   49.6460 H   0  0  0  0  0  0  0  0  0  0  0  0
   46.1630   25.6050   48.4660 C   0  0  0  0  0  3  0  0  0  0  0  0
  1  9  1  0  0  0  0
  2  1  2  0  0  0  0
  2  3  1  0  0  0  0
  3  4  2  0  0  0  0
  4  8  1  0  0  0  0
  4  5  1  0  0  0  0
  5 12  1  0  0  0  0
  5  6  1  0  0  0  0
  6 13  1  0  0  0  0
  7  6  2  0  0  0  0
  8  7  1  0  0  0  0
  9 23  1  0  0  0  0
  9  8  2  0  0  0  0
 10  1  1  0  0  0  0
 11  3  1  0  0  0  0
 14 19  1  0  0  0  0
 15 16  1  0  0  0  0
 15 14  2  0  0  0  0
 16 17  2  0  0  0  0
 17 18  1  0  0  0  0
 18  2  1  0  0  0  0
 19 18  2  0  0  0  0
 20 14  1  0  0  0  0
 21 15  1  0  0  0  0
 22 16  1  0  0  0  0
 23 27  1  0  0  0  0
 24 23  2  0  0  0  0
 24 25  1  0  0  0  0
 25 29  1  0  0  0  0
 25 26  2  0  0  0  0
 26 30  1  0  0  0  0
 27 26  1  0  0  0  0
 28 24  1  0  0  0  0
 30 38  1  0  0  0  0
 31 33  1  0  0  0  0
 31 30  2  0  0  0  0
 32 31  1  0  0  0  0
 33 34  2  0  0  0  0
 34 35  1  0  0  0  0
 34 36  1  0  0  0  0
 36 37  1  0  0  0  0
 38 36  2  0  0  0  0
M  END
>  <minimizedAffinity>
-5.64773226

>  <minimizedRMSD>
0.634048939

$$$$
