
 OpenBabel03252506563D

 38 42  0  0  0  0  0  0  0  0999 V2000
   47.3000   31.3220   45.2040 C   0  0  0  0  0  0  0  0  0  0  0  0
   46.9000   32.6550   45.1320 C   0  0  0  0  0  0  0  0  0  0  0  0
   46.2640   33.3100   46.1580 C   0  0  0  0  0  0  0  0  0  0  0  0
   45.9910   32.6340   47.3380 C   0  0  0  0  0  0  0  0  0  0  0  0
   45.3990   32.9370   48.5300 N   0  0  0  0  0  0  0  0  0  0  0  0
   45.4280   31.8300   49.3190 C   0  0  0  0  0  0  0  0  0  0  0  0
   46.0350   30.8560   48.6120 N   0  0  0  0  0  0  0  0  0  0  0  0
   46.3880   31.3190   47.4040 C   0  0  0  0  0  0  0  0  0  0  0  0
   47.0260   30.6450   46.3890 C   0  0  0  0  0  0  0  0  0  0  0  0
   47.8050   30.8210   44.3790 H   0  0  0  0  0  0  0  0  0  0  0  0
   45.9560   34.3490   46.0940 H   0  0  0  0  0  0  0  0  0  0  0  0
   45.0040   33.8890   48.7430 H   0  0  0  0  0  0  0  0  0  0  0  0
   45.0210   31.7790   50.3380 H   0  0  0  0  0  0  0  0  0  0  0  0
   46.6040   35.1100   42.4000 C   0  0  0  0  0  0  0  0  0  0  0  0
   47.6950   34.7800   41.5790 C   0  0  0  0  0  0  0  0  0  0  0  0
   48.5130   33.7260   41.9710 C   0  0  0  0  0  0  0  0  0  0  0  0
   48.2260   33.0560   43.1310 N   0  0  0  0  0  0  0  0  0  0  0  0
   47.1760   33.3960   43.8960 C   0  0  0  0  0  0  0  0  0  0  0  0
   46.3650   34.4160   43.5390 N   0  0  0  0  0  0  0  0  0  0  0  0
   45.9510   35.9240   42.1210 H   0  0  0  0  0  0  0  0  0  0  0  0
   47.8760   35.3410   40.6740 H   0  0  0  0  0  0  0  0  0  0  0  0
   49.3670   33.4380   41.3650 H   0  0  0  0  0  0  0  0  0  0  0  0
   47.4130   29.2370   46.5500 C   0  0  0  0  0  0  0  0  0  0  0  0
   48.7040   28.7690   46.4920 C   0  0  0  0  0  0  0  0  0  0  0  0
   48.5730   27.3840   46.7000 C   0  0  0  0  0  0  0  0  0  0  0  0
   47.2240   27.1030   46.8690 C   0  0  0  0  0  0  0  0  0  0  0  0
   46.5940   28.2540   46.7670 O   0  0  0  0  0  0  0  0  0  0  0  0
   49.6360   29.3060   46.3260 H   0  0  0  0  0  0  0  0  0  0  0  0
   49.3850   26.6620   46.7240 H   0  0  0  0  0  0  0  0  0  0  0  0
   46.6020   25.7830   47.1150 C   0  0  0  0  0  0  0  0  0  0  0  0
   46.2810   25.4950   48.4250 C   0  0  0  0  0  0  0  0  0  0  0  0
   46.4790   26.2060   49.2170 H   0  0  0  0  0  0  0  0  0  0  0  0
   45.6940   24.2430   48.6350 C   0  0  0  0  0  3  0  0  0  0  0  0
   45.4580   23.3650   47.5930 C   0  0  0  0  0  0  0  0  0  0  0  0
   45.0010   22.4060   47.8070 H   0  0  0  0  0  0  0  0  0  0  0  0
   45.8100   23.7300   46.3080 C   0  0  0  0  0  0  0  0  0  0  0  0
   45.6340   23.0510   45.4650 H   0  0  0  0  0  0  0  0  0  0  0  0
   46.4020   24.9670   46.0200 C   0  0  0  0  0  3  0  0  0  0  0  0
  1  9  1  0  0  0  0
  2  1  2  0  0  0  0
  2  3  1  0  0  0  0
  3  4  2  0  0  0  0
  4  8  1  0  0  0  0
  4  5  1  0  0  0  0
  5 12  1  0  0  0  0
  5  6  1  0  0  0  0
  6 13  1  0  0  0  0
  7  6  2  0  0  0  0
  8  7  1  0  0  0  0
  9 23  1  0  0  0  0
  9  8  2  0  0  0  0
 10  1  1  0  0  0  0
 11  3  1  0  0  0  0
 14 19  1  0  0  0  0
 15 16  1  0  0  0  0
 15 14  2  0  0  0  0
 16 17  2  0  0  0  0
 17 18  1  0  0  0  0
 18  2  1  0  0  0  0
 19 18  2  0  0  0  0
 20 14  1  0  0  0  0
 21 15  1  0  0  0  0
 22 16  1  0  0  0  0
 23 27  1  0  0  0  0
 24 23  2  0  0  0  0
 24 25  1  0  0  0  0
 25 29  1  0  0  0  0
 25 26  2  0  0  0  0
 26 30  1  0  0  0  0
 27 26  1  0  0  0  0
 28 24  1  0  0  0  0
 30 31  1  0  0  0  0
 31 33  2  0  0  0  0
 31 32  1  0  0  0  0
 34 35  1  0  0  0  0
 34 33  1  0  0  0  0
 36 34  2  0  0  0  0
 37 36  1  0  0  0  0
 38 36  1  0  0  0  0
 38 30  2  0  0  0  0
M  END
>  <minimizedAffinity>
-5.64329767

>  <minimizedRMSD>
0.551340222

$$$$
