
 OpenBabel03252506573D

 38 42  0  0  0  0  0  0  0  0999 V2000
   47.3390   31.3240   45.2200 C   0  0  0  0  0  0  0  0  0  0  0  0
   46.9100   32.6470   45.1300 C   0  0  0  0  0  0  0  0  0  0  0  0
   46.2520   33.2980   46.1450 C   0  0  0  0  0  0  0  0  0  0  0  0
   45.9850   32.6290   47.3290 C   0  0  0  0  0  0  0  0  0  0  0  0
   45.3760   32.9320   48.5140 N   0  0  0  0  0  0  0  0  0  0  0  0
   45.4240   31.8340   49.3150 C   0  0  0  0  0  0  0  0  0  0  0  0
   46.0570   30.8670   48.6230 N   0  0  0  0  0  0  0  0  0  0  0  0
   46.4090   31.3240   47.4130 C   0  0  0  0  0  0  0  0  0  0  0  0
   47.0700   30.6540   46.4100 C   0  0  0  0  0  0  0  0  0  0  0  0
   47.8610   30.8250   44.4040 H   0  0  0  0  0  0  0  0  0  0  0  0
   45.9210   34.3300   46.0670 H   0  0  0  0  0  0  0  0  0  0  0  0
   44.9580   33.8770   48.7130 H   0  0  0  0  0  0  0  0  0  0  0  0
   45.0100   31.7860   50.3310 H   0  0  0  0  0  0  0  0  0  0  0  0
   46.6040   35.0920   42.3900 C   0  0  0  0  0  0  0  0  0  0  0  0
   47.6850   34.7510   41.5600 C   0  0  0  0  0  0  0  0  0  0  0  0
   48.5010   33.6950   41.9500 C   0  0  0  0  0  0  0  0  0  0  0  0
   48.2210   33.0320   43.1160 N   0  0  0  0  0  0  0  0  0  0  0  0
   47.1790   33.3810   43.8890 C   0  0  0  0  0  0  0  0  0  0  0  0
   46.3710   34.4040   43.5340 N   0  0  0  0  0  0  0  0  0  0  0  0
   45.9530   35.9080   42.1120 H   0  0  0  0  0  0  0  0  0  0  0  0
   47.8620   35.3070   40.6510 H   0  0  0  0  0  0  0  0  0  0  0  0
   49.3490   33.3990   41.3380 H   0  0  0  0  0  0  0  0  0  0  0  0
   47.4870   29.2570   46.5890 C   0  0  0  0  0  0  0  0  0  0  0  0
   48.6670   28.7270   46.1260 C   0  0  0  0  0  0  0  0  0  0  0  0
   48.6190   27.3810   46.5330 C   0  0  0  0  0  0  0  0  0  0  0  0
   47.4240   27.1830   47.2100 C   0  0  0  0  0  0  0  0  0  0  0  0
   46.8010   28.3420   47.2050 O   0  0  0  0  0  0  0  0  0  0  0  0
   49.4770   29.1990   45.5720 H   0  0  0  0  0  0  0  0  0  0  0  0
   49.3830   26.6300   46.3500 H   0  0  0  0  0  0  0  0  0  0  0  0
   46.9310   25.9290   47.8210 C   0  0  0  0  0  0  0  0  0  0  0  0
   45.7290   25.4490   47.3450 C   0  0  0  0  0  0  0  0  0  0  0  0
   45.1880   25.9730   46.5670 H   0  0  0  0  0  0  0  0  0  0  0  0
   45.2810   24.2620   47.9360 C   0  0  0  0  0  0  0  0  0  0  0  0
   46.0050   23.6260   48.9280 C   0  0  0  0  0  0  0  0  0  0  0  0
   45.6160   22.7090   49.3540 H   0  0  0  0  0  0  0  0  0  0  0  0
   47.2020   24.1730   49.3500 C   0  0  0  0  0  0  0  0  0  0  0  0
   47.7930   23.6850   50.1350 H   0  0  0  0  0  0  0  0  0  0  0  0
   47.7120   25.3570   48.8050 C   0  0  0  0  0  0  0  0  0  0  0  0
  1  9  1  0  0  0  0
  2  1  2  0  0  0  0
  2  3  1  0  0  0  0
  3  4  2  0  0  0  0
  4  8  1  0  0  0  0
  4  5  1  0  0  0  0
  5 12  1  0  0  0  0
  5  6  1  0  0  0  0
  6 13  1  0  0  0  0
  7  6  2  0  0  0  0
  8  7  1  0  0  0  0
  9 23  1  0  0  0  0
  9  8  2  0  0  0  0
 10  1  1  0  0  0  0
 11  3  1  0  0  0  0
 14 19  1  0  0  0  0
 15 16  1  0  0  0  0
 15 14  2  0  0  0  0
 16 17  2  0  0  0  0
 17 18  1  0  0  0  0
 18  2  1  0  0  0  0
 19 18  2  0  0  0  0
 20 14  1  0  0  0  0
 21 15  1  0  0  0  0
 22 16  1  0  0  0  0
 23 27  1  0  0  0  0
 24 25  1  0  0  0  0
 24 23  2  0  0  0  0
 25 26  2  0  0  0  0
 26 30  1  0  0  0  0
 27 26  1  0  0  0  0
 28 24  1  0  0  0  0
 29 25  1  0  0  0  0
 30 38  1  0  0  0  0
 31 30  2  0  0  0  0
 31 33  1  0  0  0  0
 32 31  1  0  0  0  0
 33 34  2  0  0  0  0
 34 36  1  0  0  0  0
 34 35  1  0  0  0  0
 36 37  1  0  0  0  0
 38 36  2  0  0  0  0
M  END
>  <minimizedAffinity>
-5.89180851

>  <minimizedRMSD>
1.11358237

$$$$
