
 OpenBabel03252506573D

 38 42  0  0  0  0  0  0  0  0999 V2000
   47.3370   31.3240   45.2190 C   0  0  0  0  0  0  0  0  0  0  0  0
   46.9110   32.6480   45.1300 C   0  0  0  0  0  0  0  0  0  0  0  0
   46.2540   33.3000   46.1450 C   0  0  0  0  0  0  0  0  0  0  0  0
   45.9860   32.6310   47.3300 C   0  0  0  0  0  0  0  0  0  0  0  0
   45.3790   32.9350   48.5140 N   0  0  0  0  0  0  0  0  0  0  0  0
   45.4250   31.8380   49.3150 C   0  0  0  0  0  0  0  0  0  0  0  0
   46.0560   30.8690   48.6230 N   0  0  0  0  0  0  0  0  0  0  0  0
   46.4090   31.3250   47.4130 C   0  0  0  0  0  0  0  0  0  0  0  0
   47.0680   30.6540   46.4090 C   0  0  0  0  0  0  0  0  0  0  0  0
   47.8570   30.8240   44.4040 H   0  0  0  0  0  0  0  0  0  0  0  0
   45.9250   34.3320   46.0670 H   0  0  0  0  0  0  0  0  0  0  0  0
   44.9630   33.8810   48.7140 H   0  0  0  0  0  0  0  0  0  0  0  0
   45.0110   31.7900   50.3320 H   0  0  0  0  0  0  0  0  0  0  0  0
   46.6060   35.0910   42.3890 C   0  0  0  0  0  0  0  0  0  0  0  0
   47.6880   34.7500   41.5600 C   0  0  0  0  0  0  0  0  0  0  0  0
   48.5030   33.6930   41.9500 C   0  0  0  0  0  0  0  0  0  0  0  0
   48.2220   33.0310   43.1160 N   0  0  0  0  0  0  0  0  0  0  0  0
   47.1800   33.3810   43.8880 C   0  0  0  0  0  0  0  0  0  0  0  0
   46.3720   34.4040   43.5330 N   0  0  0  0  0  0  0  0  0  0  0  0
   45.9560   35.9070   42.1110 H   0  0  0  0  0  0  0  0  0  0  0  0
   47.8650   35.3050   40.6500 H   0  0  0  0  0  0  0  0  0  0  0  0
   49.3500   33.3970   41.3390 H   0  0  0  0  0  0  0  0  0  0  0  0
   47.4820   29.2560   46.5890 C   0  0  0  0  0  0  0  0  0  0  0  0
   48.6670   28.7270   46.1360 C   0  0  0  0  0  0  0  0  0  0  0  0
   48.6140   27.3800   46.5380 C   0  0  0  0  0  0  0  0  0  0  0  0
   47.4110   27.1800   47.2030 C   0  0  0  0  0  0  0  0  0  0  0  0
   46.7900   28.3400   47.1950 O   0  0  0  0  0  0  0  0  0  0  0  0
   49.4820   29.2010   45.5910 H   0  0  0  0  0  0  0  0  0  0  0  0
   49.3790   26.6290   46.3600 H   0  0  0  0  0  0  0  0  0  0  0  0
   46.9130   25.9240   47.8050 C   0  0  0  0  0  0  0  0  0  0  0  0
   47.7000   25.3670   48.7920 C   0  0  0  0  0  0  0  0  0  0  0  0
   48.6260   25.8340   49.0970 H   0  0  0  0  0  0  0  0  0  0  0  0
   47.2090   24.1800   49.3480 C   0  0  0  0  0  3  0  0  0  0  0  0
   46.0170   23.6170   48.9280 C   0  0  0  0  0  0  0  0  0  0  0  0
   45.6800   22.6970   49.3900 H   0  0  0  0  0  0  0  0  0  0  0  0
   45.2890   24.2390   47.9340 C   0  0  0  0  0  0  0  0  0  0  0  0
   44.3410   23.8110   47.5840 H   0  0  0  0  0  0  0  0  0  0  0  0
   45.7150   25.4290   47.3300 C   0  0  0  0  0  3  0  0  0  0  0  0
  1  9  1  0  0  0  0
  2  1  2  0  0  0  0
  2  3  1  0  0  0  0
  3  4  2  0  0  0  0
  4  8  1  0  0  0  0
  4  5  1  0  0  0  0
  5 12  1  0  0  0  0
  5  6  1  0  0  0  0
  6 13  1  0  0  0  0
  7  6  2  0  0  0  0
  8  7  1  0  0  0  0
  9 23  1  0  0  0  0
  9  8  2  0  0  0  0
 10  1  1  0  0  0  0
 11  3  1  0  0  0  0
 14 19  1  0  0  0  0
 15 16  1  0  0  0  0
 15 14  2  0  0  0  0
 16 17  2  0  0  0  0
 17 18  1  0  0  0  0
 18  2  1  0  0  0  0
 19 18  2  0  0  0  0
 20 14  1  0  0  0  0
 21 15  1  0  0  0  0
 22 16  1  0  0  0  0
 23 27  1  0  0  0  0
 24 25  1  0  0  0  0
 24 23  2  0  0  0  0
 25 26  2  0  0  0  0
 26 30  1  0  0  0  0
 27 26  1  0  0  0  0
 28 24  1  0  0  0  0
 29 25  1  0  0  0  0
 30 31  1  0  0  0  0
 31 32  1  0  0  0  0
 31 33  2  0  0  0  0
 34 33  1  0  0  0  0
 34 35  1  0  0  0  0
 36 34  2  0  0  0  0
 37 36  1  0  0  0  0
 38 30  2  0  0  0  0
 38 36  1  0  0  0  0
M  END
>  <minimizedAffinity>
-5.89123249

>  <minimizedRMSD>
1.11635911

$$$$
