
 OpenBabel03252506573D

 38 42  0  0  0  0  0  0  0  0999 V2000
   47.2270   31.3790   45.1460 C   0  0  0  0  0  0  0  0  0  0  0  0
   46.8640   32.7250   45.1380 C   0  0  0  0  0  0  0  0  0  0  0  0
   46.2560   33.3500   46.1990 C   0  0  0  0  0  0  0  0  0  0  0  0
   45.9750   32.6300   47.3500 C   0  0  0  0  0  0  0  0  0  0  0  0
   45.4020   32.8950   48.5610 N   0  0  0  0  0  0  0  0  0  0  0  0
   45.4070   31.7540   49.2990 C   0  0  0  0  0  0  0  0  0  0  0  0
   45.9790   30.7960   48.5430 N   0  0  0  0  0  0  0  0  0  0  0  0
   46.3340   31.3020   47.3530 C   0  0  0  0  0  0  0  0  0  0  0  0
   46.9440   30.6570   46.3020 C   0  0  0  0  0  0  0  0  0  0  0  0
   47.7090   30.9020   44.2950 H   0  0  0  0  0  0  0  0  0  0  0  0
   45.9770   34.3990   46.1840 H   0  0  0  0  0  0  0  0  0  0  0  0
   45.0360   33.8470   48.8200 H   0  0  0  0  0  0  0  0  0  0  0  0
   45.0080   31.6680   50.3190 H   0  0  0  0  0  0  0  0  0  0  0  0
   46.5080   35.1810   42.4140 C   0  0  0  0  0  0  0  0  0  0  0  0
   47.6880   34.9850   41.6760 C   0  0  0  0  0  0  0  0  0  0  0  0
   48.5840   34.0190   42.1200 C   0  0  0  0  0  0  0  0  0  0  0  0
   48.2860   33.3020   43.2490 N   0  0  0  0  0  0  0  0  0  0  0  0
   47.1490   33.5130   43.9340 C   0  0  0  0  0  0  0  0  0  0  0  0
   46.2610   34.4450   43.5250 N   0  0  0  0  0  0  0  0  0  0  0  0
   45.7930   35.9240   42.0920 H   0  0  0  0  0  0  0  0  0  0  0  0
   47.8740   35.5780   40.7930 H   0  0  0  0  0  0  0  0  0  0  0  0
   49.5080   33.8370   41.5790 H   0  0  0  0  0  0  0  0  0  0  0  0
   47.2930   29.2330   46.3960 C   0  0  0  0  0  0  0  0  0  0  0  0
   48.5720   28.7350   46.3330 C   0  0  0  0  0  0  0  0  0  0  0  0
   48.4030   27.3450   46.4680 C   0  0  0  0  0  0  0  0  0  0  0  0
   47.0440   27.0920   46.6020 C   0  0  0  0  0  0  0  0  0  0  0  0
   46.4450   28.2620   46.5510 O   0  0  0  0  0  0  0  0  0  0  0  0
   49.5200   29.2560   46.2090 H   0  0  0  0  0  0  0  0  0  0  0  0
   49.1950   26.6020   46.4660 H   0  0  0  0  0  0  0  0  0  0  0  0
   46.3850   25.7780   46.7710 C   0  0  0  0  0  0  0  0  0  0  0  0
   47.2100   24.6720   46.7350 C   0  0  0  0  0  0  0  0  0  0  0  0
   48.2770   24.7770   46.5910 H   0  0  0  0  0  0  0  0  0  0  0  0
   46.5660   23.4410   46.8960 C   0  0  0  0  0  3  0  0  0  0  0  0
   45.1970   23.3520   47.0770 C   0  0  0  0  0  0  0  0  0  0  0  0
   44.7460   22.3750   47.1970 H   0  0  0  0  0  0  0  0  0  0  0  0
   44.4420   24.5090   47.1020 C   0  0  0  0  0  0  0  0  0  0  0  0
   43.3560   24.4640   47.2430 H   0  0  0  0  0  0  0  0  0  0  0  0
   45.0160   25.7770   46.9460 C   0  0  0  0  0  3  0  0  0  0  0  0
  1  9  1  0  0  0  0
  2  1  2  0  0  0  0
  2  3  1  0  0  0  0
  3  4  2  0  0  0  0
  4  8  1  0  0  0  0
  4  5  1  0  0  0  0
  5 12  1  0  0  0  0
  5  6  1  0  0  0  0
  6 13  1  0  0  0  0
  7  6  2  0  0  0  0
  8  7  1  0  0  0  0
  9 23  1  0  0  0  0
  9  8  2  0  0  0  0
 10  1  1  0  0  0  0
 11  3  1  0  0  0  0
 14 19  1  0  0  0  0
 15 16  1  0  0  0  0
 15 14  2  0  0  0  0
 16 17  2  0  0  0  0
 17 18  1  0  0  0  0
 18  2  1  0  0  0  0
 19 18  2  0  0  0  0
 20 14  1  0  0  0  0
 21 15  1  0  0  0  0
 22 16  1  0  0  0  0
 23 27  1  0  0  0  0
 24 23  2  0  0  0  0
 24 25  1  0  0  0  0
 25 26  2  0  0  0  0
 26 30  1  0  0  0  0
 27 26  1  0  0  0  0
 28 24  1  0  0  0  0
 29 25  1  0  0  0  0
 30 38  1  0  0  0  0
 31 30  2  0  0  0  0
 31 33  1  0  0  0  0
 32 31  1  0  0  0  0
 33 34  2  0  0  0  0
 34 36  1  0  0  0  0
 34 35  1  0  0  0  0
 36 37  1  0  0  0  0
 38 36  2  0  0  0  0
M  END
>  <minimizedAffinity>
-5.62887335

>  <minimizedRMSD>
0.349865228

$$$$
