
 OpenBabel03242518413D

 37 39  0  0  1  0  0  0  0  0999 V2000
   36.6550   30.7240   40.7060 C   0  0  0  0  0  0  0  0  0  0  0  0
   35.6160   29.9800   40.1270 C   0  0  0  0  0  0  0  0  0  0  0  0
   35.5310   28.7630   40.7720 C   0  0  0  0  0  0  0  0  0  0  0  0
   36.5140   28.8190   41.7070 C   0  0  0  0  0  0  0  0  0  0  0  0
   37.1660   29.9700   41.6610 O   0  0  0  0  0  0  0  0  0  0  0  0
   35.0340   30.3860   39.3110 H   0  0  0  0  0  0  0  0  0  0  0  0
   34.8190   27.9920   40.5320 H   0  0  0  0  0  0  0  0  0  0  0  0
   36.8150   27.7280   42.6610 C   0  0  2  0  0  0  0  0  0  0  0  0
   37.3100   28.0260   44.0020 C   0  0  0  0  0  0  0  0  0  0  0  0
   38.3260   27.6120   43.0020 C   0  0  1  0  0  0  0  0  0  0  0  0
   36.2950   26.7760   42.4700 H   0  0  0  0  0  0  0  0  0  0  0  0
   37.0900   27.3600   44.8710 H   0  0  0  0  0  0  0  0  0  0  0  0
   37.3360   29.1090   44.3090 H   0  0  0  0  0  0  0  0  0  0  0  0
   38.9950   28.3130   42.5050 H   0  0  0  0  0  0  0  0  0  0  0  0
   39.9900   25.9250   43.7610 C   0  0  0  0  0  0  0  0  0  0  0  0
   40.7410   26.8100   44.2650 O   0  0  0  0  0  0  0  0  0  0  0  0
   38.7760   26.2240   43.0920 N   0  0  0  0  0  0  0  0  0  0  0  0
   40.3770   24.9160   43.8970 H   0  0  0  0  0  0  0  0  0  0  0  0
   38.2140   25.4570   42.6720 H   0  0  0  0  0  0  0  0  0  0  0  0
   37.1560   32.0220   40.4240 O   0  0  0  0  0  0  0  0  0  0  0  0
   38.2780   32.1460   39.5800 C   0  0  0  0  0  0  0  0  0  0  0  0
   38.4530   31.2040   38.7500 O   0  0  0  0  0  0  0  0  0  0  0  0
   39.0850   33.2980   39.7440 C   0  0  0  0  0  0  0  0  0  0  0  0
   38.4400   34.4550   40.0340 C   0  0  0  0  0  0  0  0  0  0  0  0
   39.1810   35.6200   40.2060 C   0  0  0  0  0  0  0  0  0  0  0  0
   40.5160   35.5450   40.0770 N   0  0  0  0  0  0  0  0  0  0  0  0
   41.1330   34.3980   39.7920 C   0  0  0  0  0  0  0  0  0  0  0  0
   40.3930   33.3020   39.6330 N   0  0  0  0  0  0  0  0  0  0  0  0
   37.3660   34.5260   40.1390 H   0  0  0  0  0  0  0  0  0  0  0  0
   38.6630   36.5610   40.4420 H   0  0  0  0  0  0  0  0  0  0  0  0
   42.5010   34.4920   39.6930 O   0  0  0  0  0  0  0  0  0  0  0  0
   43.5610   32.4970   38.3960 O   0  0  0  0  0  0  0  0  0  0  0  0
   43.2630   33.9790   38.2630 P   0  0  0  0  0  0  0  0  0  0  0  0
   42.2130   34.1470   36.9440 O   0  0  0  0  0  0  0  0  0  0  0  0
   41.7550   35.0200   37.0040 H   0  0  0  0  0  0  0  0  0  0  0  0
   44.7210   34.7570   37.9630 O   0  0  0  0  0  0  0  0  0  0  0  0
   44.6160   35.7100   38.1830 H   0  0  0  0  0  0  0  0  0  0  0  0
  1  5  1  0  0  0  0
  2  1  2  0  0  0  0
  2  3  1  0  0  0  0
  3  4  2  0  0  0  0
  4  8  1  0  0  0  0
  5  4  1  0  0  0  0
  6  2  1  0  0  0  0
  7  3  1  0  0  0  0
  8 11  1  6  0  0  0
  8 10  1  0  0  0  0
  8  9  1  0  0  0  0
  9 13  1  0  0  0  0
  9 12  1  0  0  0  0
 10 14  1  6  0  0  0
 10 17  1  0  0  0  0
 10  9  1  0  0  0  0
 15 18  1  0  0  0  0
 15 16  2  0  0  0  0
 17 15  1  0  0  0  0
 19 17  1  0  0  0  0
 20  1  1  0  0  0  0
 21 23  1  0  0  0  0
 21 20  1  0  0  0  0
 22 21  2  0  0  0  0
 23 24  1  0  0  0  0
 24 29  1  0  0  0  0
 24 25  2  0  0  0  0
 25 30  1  0  0  0  0
 26 25  1  0  0  0  0
 27 26  2  0  0  0  0
 28 23  2  0  0  0  0
 28 27  1  0  0  0  0
 31 27  1  0  0  0  0
 33 32  2  0  0  0  0
 33 31  1  0  0  0  0
 34 35  1  0  0  0  0
 34 33  1  0  0  0  0
 36 37  1  0  0  0  0
 36 33  1  0  0  0  0
M  END
>  <minimizedAffinity>
-6.6941514

$$$$

 OpenBabel03242518413D

 37 39  0  0  1  0  0  0  0  0999 V2000
   36.7940   30.8670   40.8450 C   0  0  0  0  0  0  0  0  0  0  0  0
   35.7680   30.1630   40.1980 C   0  0  0  0  0  0  0  0  0  0  0  0
   35.6520   28.9160   40.7790 C   0  0  0  0  0  0  0  0  0  0  0  0
   36.6060   28.9170   41.7460 C   0  0  0  0  0  0  0  0  0  0  0  0
   37.2680   30.0620   41.7770 O   0  0  0  0  0  0  0  0  0  0  0  0
   35.2160   30.6140   39.3840 H   0  0  0  0  0  0  0  0  0  0  0  0
   34.9420   28.1650   40.4790 H   0  0  0  0  0  0  0  0  0  0  0  0
   36.8670   27.7780   42.6540 C   0  0  2  0  0  0  0  0  0  0  0  0
   37.4540   27.9960   43.9730 C   0  0  0  0  0  0  0  0  0  0  0  0
   38.3800   27.5320   42.9090 C   0  0  1  0  0  0  0  0  0  0  0  0
   36.2620   26.8760   42.4680 H   0  0  0  0  0  0  0  0  0  0  0  0
   37.2270   27.3240   44.8360 H   0  0  0  0  0  0  0  0  0  0  0  0
   37.5840   29.0640   44.3050 H   0  0  0  0  0  0  0  0  0  0  0  0
   39.0760   28.1920   42.3930 H   0  0  0  0  0  0  0  0  0  0  0  0
   39.9060   25.6900   43.5910 C   0  0  0  0  0  0  0  0  0  0  0  0
   40.7240   26.4910   44.1290 O   0  0  0  0  0  0  0  0  0  0  0  0
   38.7190   26.1110   42.9390 N   0  0  0  0  0  0  0  0  0  0  0  0
   40.2130   24.6490   43.6830 H   0  0  0  0  0  0  0  0  0  0  0  0
   38.0990   25.4080   42.4890 H   0  0  0  0  0  0  0  0  0  0  0  0
   37.3150   32.1730   40.6430 O   0  0  0  0  0  0  0  0  0  0  0  0
   38.4380   32.3310   39.8040 C   0  0  0  0  0  0  0  0  0  0  0  0
   38.6150   31.4220   38.9400 O   0  0  0  0  0  0  0  0  0  0  0  0
   39.2410   33.4790   40.0120 C   0  0  0  0  0  0  0  0  0  0  0  0
   38.5920   34.6670   40.1020 C   0  0  0  0  0  0  0  0  0  0  0  0
   39.3290   35.8280   40.3050 C   0  0  0  0  0  0  0  0  0  0  0  0
   40.6640   35.7200   40.4060 N   0  0  0  0  0  0  0  0  0  0  0  0
   41.2850   34.5440   40.3150 C   0  0  0  0  0  0  0  0  0  0  0  0
   40.5480   33.4520   40.1200 N   0  0  0  0  0  0  0  0  0  0  0  0
   37.5180   34.7640   40.0210 H   0  0  0  0  0  0  0  0  0  0  0  0
   38.8080   36.7940   40.3790 H   0  0  0  0  0  0  0  0  0  0  0  0
   42.6530   34.6060   40.4380 O   0  0  0  0  0  0  0  0  0  0  0  0
   44.7870   35.2770   41.7740 O   0  0  0  0  0  0  0  0  0  0  0  0
   43.3330   34.8870   41.9710 P   0  0  0  0  0  0  0  0  0  0  0  0
   42.5730   36.2040   42.7180 O   0  0  0  0  0  0  0  0  0  0  0  0
   41.5970   36.1310   42.5880 H   0  0  0  0  0  0  0  0  0  0  0  0
   43.3070   33.5400   42.9730 O   0  0  0  0  0  0  0  0  0  0  0  0
   42.4400   33.0870   42.8630 H   0  0  0  0  0  0  0  0  0  0  0  0
  1  5  1  0  0  0  0
  2  3  1  0  0  0  0
  2  1  2  0  0  0  0
  3  4  2  0  0  0  0
  4  5  1  0  0  0  0
  4  8  1  0  0  0  0
  6  2  1  0  0  0  0
  7  3  1  0  0  0  0
  8 11  1  6  0  0  0
  8 10  1  0  0  0  0
  8  9  1  0  0  0  0
  9 13  1  0  0  0  0
  9 12  1  0  0  0  0
 10 14  1  6  0  0  0
 10 17  1  0  0  0  0
 10  9  1  0  0  0  0
 15 18  1  0  0  0  0
 15 16  2  0  0  0  0
 17 15  1  0  0  0  0
 19 17  1  0  0  0  0
 20  1  1  0  0  0  0
 21 23  1  0  0  0  0
 21 20  1  0  0  0  0
 22 21  2  0  0  0  0
 23 24  2  0  0  0  0
 23 28  1  0  0  0  0
 24 25  1  0  0  0  0
 25 30  1  0  0  0  0
 25 26  2  0  0  0  0
 27 26  1  0  0  0  0
 27 31  1  0  0  0  0
 28 27  2  0  0  0  0
 29 24  1  0  0  0  0
 31 33  1  0  0  0  0
 32 33  2  0  0  0  0
 33 34  1  0  0  0  0
 33 36  1  0  0  0  0
 35 34  1  0  0  0  0
 37 36  1  0  0  0  0
M  END
>  <minimizedAffinity>
-6.55571699

$$$$

 OpenBabel03242518413D

 37 39  0  0  1  0  0  0  0  0999 V2000
   37.3610   29.7370   42.0930 C   0  0  0  0  0  0  0  0  0  0  0  0
   36.1820   29.3800   41.4230 C   0  0  0  0  0  0  0  0  0  0  0  0
   35.9590   30.2860   40.4060 C   0  0  0  0  0  0  0  0  0  0  0  0
   37.0040   31.1480   40.5020 C   0  0  0  0  0  0  0  0  0  0  0  0
   37.8190   30.8190   41.4920 O   0  0  0  0  0  0  0  0  0  0  0  0
   35.6110   28.5140   41.7320 H   0  0  0  0  0  0  0  0  0  0  0  0
   35.1220   30.2530   39.7290 H   0  0  0  0  0  0  0  0  0  0  0  0
   37.2060   32.3100   39.6070 C   0  0  2  0  0  0  0  0  0  0  0  0
   38.4420   32.4560   38.8450 C   0  0  0  0  0  0  0  0  0  0  0  0
   38.3360   33.2630   40.0870 C   0  0  1  0  0  0  0  0  0  0  0  0
   36.2860   32.8010   39.2550 H   0  0  0  0  0  0  0  0  0  0  0  0
   38.4640   32.9720   37.8540 H   0  0  0  0  0  0  0  0  0  0  0  0
   39.1690   31.5970   38.8790 H   0  0  0  0  0  0  0  0  0  0  0  0
   38.8380   32.9980   41.0160 H   0  0  0  0  0  0  0  0  0  0  0  0
   38.9950   35.6620   40.0910 C   0  0  0  0  0  0  0  0  0  0  0  0
   40.1770   35.3940   40.4540 O   0  0  0  0  0  0  0  0  0  0  0  0
   37.9970   34.6720   39.9000 N   0  0  0  0  0  0  0  0  0  0  0  0
   38.8300   36.7280   39.9420 H   0  0  0  0  0  0  0  0  0  0  0  0
   37.0330   34.9540   39.6300 H   0  0  0  0  0  0  0  0  0  0  0  0
   38.0330   29.1490   43.1970 O   0  0  0  0  0  0  0  0  0  0  0  0
   37.5250   27.9500   43.7390 C   0  0  0  0  0  0  0  0  0  0  0  0
   36.6980   28.0800   44.6890 O   0  0  0  0  0  0  0  0  0  0  0  0
   37.9870   26.7380   43.1690 C   0  0  0  0  0  0  0  0  0  0  0  0
   37.0750   26.0010   42.4880 C   0  0  0  0  0  0  0  0  0  0  0  0
   37.4730   24.8010   41.9070 C   0  0  0  0  0  0  0  0  0  0  0  0
   38.7540   24.4240   42.0480 N   0  0  0  0  0  0  0  0  0  0  0  0
   39.6360   25.1610   42.7220 C   0  0  0  0  0  0  0  0  0  0  0  0
   39.2220   26.3050   43.2660 N   0  0  0  0  0  0  0  0  0  0  0  0
   36.0430   26.2960   42.3690 H   0  0  0  0  0  0  0  0  0  0  0  0
   36.7380   24.1990   41.3530 H   0  0  0  0  0  0  0  0  0  0  0  0
   40.9050   24.6330   42.7750 O   0  0  0  0  0  0  0  0  0  0  0  0
   42.5050   26.6350   42.3080 O   0  0  0  0  0  0  0  0  0  0  0  0
   42.1760   25.5960   43.3640 P   0  0  0  0  0  0  0  0  0  0  0  0
   41.6800   26.4440   44.7440 O   0  0  0  0  0  0  0  0  0  0  0  0
   41.1730   25.8360   45.3330 H   0  0  0  0  0  0  0  0  0  0  0  0
   43.5830   24.7320   43.6720 O   0  0  0  0  0  0  0  0  0  0  0  0
   43.3370   23.8780   44.0950 H   0  0  0  0  0  0  0  0  0  0  0  0
  1 20  1  0  0  0  0
  2  6  1  0  0  0  0
  2  1  2  0  0  0  0
  3  4  2  0  0  0  0
  3  2  1  0  0  0  0
  4  5  1  0  0  0  0
  5  1  1  0  0  0  0
  7  3  1  0  0  0  0
  8 11  1  6  0  0  0
  8 10  1  0  0  0  0
  8  4  1  0  0  0  0
  9 13  1  0  0  0  0
  9  8  1  0  0  0  0
  9 10  1  0  0  0  0
 10 14  1  1  0  0  0
 12  9  1  0  0  0  0
 15 16  2  0  0  0  0
 17 10  1  0  0  0  0
 17 15  1  0  0  0  0
 18 15  1  0  0  0  0
 19 17  1  0  0  0  0
 20 21  1  0  0  0  0
 21 22  2  0  0  0  0
 23 28  1  0  0  0  0
 23 21  1  0  0  0  0
 24 23  2  0  0  0  0
 25 26  2  0  0  0  0
 25 24  1  0  0  0  0
 26 27  1  0  0  0  0
 27 31  1  0  0  0  0
 27 28  2  0  0  0  0
 29 24  1  0  0  0  0
 30 25  1  0  0  0  0
 31 33  1  0  0  0  0
 32 33  2  0  0  0  0
 33 36  1  0  0  0  0
 33 34  1  0  0  0  0
 34 35  1  0  0  0  0
 36 37  1  0  0  0  0
M  END
>  <minimizedAffinity>
-6.53210402

$$$$

 OpenBabel03242518413D

 37 39  0  0  1  0  0  0  0  0999 V2000
   36.4330   29.5400   40.3160 C   0  0  0  0  0  0  0  0  0  0  0  0
   36.3460   28.3050   39.6540 C   0  0  0  0  0  0  0  0  0  0  0  0
   36.5900   27.2970   40.5640 C   0  0  0  0  0  0  0  0  0  0  0  0
   36.8140   27.9570   41.7300 C   0  0  0  0  0  0  0  0  0  0  0  0
   36.7200   29.2670   41.5750 O   0  0  0  0  0  0  0  0  0  0  0  0
   36.1190   28.2600   38.5970 H   0  0  0  0  0  0  0  0  0  0  0  0
   36.5870   26.2460   40.3280 H   0  0  0  0  0  0  0  0  0  0  0  0
   37.1220   27.2890   43.0150 C   0  0  2  0  0  0  0  0  0  0  0  0
   37.1650   28.0520   44.2590 C   0  0  0  0  0  0  0  0  0  0  0  0
   38.4740   27.7410   43.6310 C   0  0  1  0  0  0  0  0  0  0  0  0
   36.9220   26.2060   43.0450 H   0  0  0  0  0  0  0  0  0  0  0  0
   36.9030   27.5900   45.2420 H   0  0  0  0  0  0  0  0  0  0  0  0
   36.8410   29.1290   44.2100 H   0  0  0  0  0  0  0  0  0  0  0  0
   39.0520   28.4680   43.0630 H   0  0  0  0  0  0  0  0  0  0  0  0
   40.3700   26.1310   43.5720 C   0  0  0  0  0  0  0  0  0  0  0  0
   40.7830   26.5710   42.4610 O   0  0  0  0  0  0  0  0  0  0  0  0
   39.2160   26.6320   44.2280 N   0  0  0  0  0  0  0  0  0  0  0  0
   40.9920   25.3280   43.9670 H   0  0  0  0  0  0  0  0  0  0  0  0
   38.9070   26.2100   45.1270 H   0  0  0  0  0  0  0  0  0  0  0  0
   36.2710   30.8720   39.8520 O   0  0  0  0  0  0  0  0  0  0  0  0
   37.1170   31.3400   38.8260 C   0  0  0  0  0  0  0  0  0  0  0  0
   36.9150   30.8500   37.6760 O   0  0  0  0  0  0  0  0  0  0  0  0
   38.0960   32.2990   39.1850 C   0  0  0  0  0  0  0  0  0  0  0  0
   37.6480   33.4220   39.8010 C   0  0  0  0  0  0  0  0  0  0  0  0
   38.5650   34.3990   40.1760 C   0  0  0  0  0  0  0  0  0  0  0  0
   39.8630   34.1840   39.9110 N   0  0  0  0  0  0  0  0  0  0  0  0
   40.2850   33.0740   39.3040 C   0  0  0  0  0  0  0  0  0  0  0  0
   39.3810   32.1590   38.9580 N   0  0  0  0  0  0  0  0  0  0  0  0
   36.6060   33.6040   40.0190 H   0  0  0  0  0  0  0  0  0  0  0  0
   38.2080   35.3110   40.6760 H   0  0  0  0  0  0  0  0  0  0  0  0
   41.6440   33.0090   39.1050 O   0  0  0  0  0  0  0  0  0  0  0  0
   43.8970   34.2420   38.6730 O   0  0  0  0  0  0  0  0  0  0  0  0
   42.4240   34.2950   38.3120 P   0  0  0  0  0  0  0  0  0  0  0  0
   42.3260   34.0970   36.6330 O   0  0  0  0  0  0  0  0  0  0  0  0
   41.4100   33.8180   36.3930 H   0  0  0  0  0  0  0  0  0  0  0  0
   41.8510   35.8080   38.7650 O   0  0  0  0  0  0  0  0  0  0  0  0
   40.8710   35.7600   38.8400 H   0  0  0  0  0  0  0  0  0  0  0  0
  1  5  1  0  0  0  0
  2  1  2  0  0  0  0
  2  3  1  0  0  0  0
  3  4  2  0  0  0  0
  4  8  1  0  0  0  0
  5  4  1  0  0  0  0
  6  2  1  0  0  0  0
  7  3  1  0  0  0  0
  8 11  1  1  0  0  0
  8 10  1  0  0  0  0
  8  9  1  0  0  0  0
  9 12  1  0  0  0  0
 10 14  1  6  0  0  0
 10 17  1  0  0  0  0
 10  9  1  0  0  0  0
 13  9  1  0  0  0  0
 15 18  1  0  0  0  0
 15 17  1  0  0  0  0
 16 15  2  0  0  0  0
 17 19  1  0  0  0  0
 20  1  1  0  0  0  0
 21 23  1  0  0  0  0
 21 20  1  0  0  0  0
 22 21  2  0  0  0  0
 23 24  1  0  0  0  0
 24 29  1  0  0  0  0
 24 25  2  0  0  0  0
 25 30  1  0  0  0  0
 26 25  1  0  0  0  0
 27 26  2  0  0  0  0
 28 23  2  0  0  0  0
 28 27  1  0  0  0  0
 31 27  1  0  0  0  0
 33 32  2  0  0  0  0
 33 36  1  0  0  0  0
 33 31  1  0  0  0  0
 34 33  1  0  0  0  0
 35 34  1  0  0  0  0
 36 37  1  0  0  0  0
M  END
>  <minimizedAffinity>
-6.39518356

$$$$

 OpenBabel03242518413D

 37 39  0  0  1  0  0  0  0  0999 V2000
   37.4560   31.0950   40.6310 C   0  0  0  0  0  0  0  0  0  0  0  0
   37.5460   30.4300   39.3980 C   0  0  0  0  0  0  0  0  0  0  0  0
   37.1560   29.1180   39.5730 C   0  0  0  0  0  0  0  0  0  0  0  0
   36.8480   29.0420   40.8940 C   0  0  0  0  0  0  0  0  0  0  0  0
   37.0260   30.2030   41.5040 O   0  0  0  0  0  0  0  0  0  0  0  0
   37.8800   30.9540   38.5120 H   0  0  0  0  0  0  0  0  0  0  0  0
   37.1280   28.3790   38.7900 H   0  0  0  0  0  0  0  0  0  0  0  0
   36.3690   27.8120   41.5640 C   0  0  2  0  0  0  0  0  0  0  0  0
   36.6910   27.5550   42.9650 C   0  0  0  0  0  0  0  0  0  0  0  0
   37.5180   26.8430   41.9580 C   0  0  1  0  0  0  0  0  0  0  0  0
   35.4830   27.3410   41.1120 H   0  0  0  0  0  0  0  0  0  0  0  0
   36.0070   26.9700   43.6270 H   0  0  0  0  0  0  0  0  0  0  0  0
   37.2090   28.3790   43.5310 H   0  0  0  0  0  0  0  0  0  0  0  0
   38.5290   27.1490   41.6910 H   0  0  0  0  0  0  0  0  0  0  0  0
   38.0310   24.4220   42.2120 C   0  0  0  0  0  0  0  0  0  0  0  0
   39.1190   24.6580   42.8120 O   0  0  0  0  0  0  0  0  0  0  0  0
   37.1720   25.4420   41.7280 N   0  0  0  0  0  0  0  0  0  0  0  0
   37.8290   23.3570   42.1080 H   0  0  0  0  0  0  0  0  0  0  0  0
   36.3040   25.1870   41.2160 H   0  0  0  0  0  0  0  0  0  0  0  0
   37.7340   32.4370   41.0020 O   0  0  0  0  0  0  0  0  0  0  0  0
   37.9290   33.3930   39.9850 C   0  0  0  0  0  0  0  0  0  0  0  0
   36.9060   33.6880   39.2990 O   0  0  0  0  0  0  0  0  0  0  0  0
   39.2360   33.9210   39.8370 C   0  0  0  0  0  0  0  0  0  0  0  0
   39.3890   35.2440   40.0940 C   0  0  0  0  0  0  0  0  0  0  0  0
   40.6500   35.8170   39.9650 C   0  0  0  0  0  0  0  0  0  0  0  0
   41.6690   35.0270   39.5900 N   0  0  0  0  0  0  0  0  0  0  0  0
   41.4990   33.7280   39.3420 C   0  0  0  0  0  0  0  0  0  0  0  0
   40.2780   33.2110   39.4740 N   0  0  0  0  0  0  0  0  0  0  0  0
   38.5750   35.8880   40.3960 H   0  0  0  0  0  0  0  0  0  0  0  0
   40.7800   36.8890   40.1720 H   0  0  0  0  0  0  0  0  0  0  0  0
   42.6420   33.0610   38.9670 O   0  0  0  0  0  0  0  0  0  0  0  0
   44.5300   32.6790   37.2140 O   0  0  0  0  0  0  0  0  0  0  0  0
   43.6790   33.7760   37.8270 P   0  0  0  0  0  0  0  0  0  0  0  0
   42.7820   34.4600   36.5630 O   0  0  0  0  0  0  0  0  0  0  0  0
   42.0100   34.9460   36.9400 H   0  0  0  0  0  0  0  0  0  0  0  0
   44.7260   34.9090   38.4910 O   0  0  0  0  0  0  0  0  0  0  0  0
   44.2280   35.4450   39.1500 H   0  0  0  0  0  0  0  0  0  0  0  0
  1 20  1  0  0  0  0
  1  5  1  0  0  0  0
  2  3  1  0  0  0  0
  2  1  2  0  0  0  0
  3  4  2  0  0  0  0
  4  5  1  0  0  0  0
  4  8  1  0  0  0  0
  6  2  1  0  0  0  0
  7  3  1  0  0  0  0
  8 11  1  6  0  0  0
  8 10  1  0  0  0  0
  8  9  1  0  0  0  0
  9 13  1  0  0  0  0
  9 12  1  0  0  0  0
 10 14  1  6  0  0  0
 10  9  1  0  0  0  0
 15 16  2  0  0  0  0
 17 10  1  0  0  0  0
 17 15  1  0  0  0  0
 18 15  1  0  0  0  0
 19 17  1  0  0  0  0
 21 20  1  0  0  0  0
 22 21  2  0  0  0  0
 23 21  1  0  0  0  0
 23 24  1  0  0  0  0
 24 29  1  0  0  0  0
 25 24  2  0  0  0  0
 25 30  1  0  0  0  0
 26 25  1  0  0  0  0
 27 28  1  0  0  0  0
 27 26  2  0  0  0  0
 28 23  2  0  0  0  0
 31 27  1  0  0  0  0
 32 33  2  0  0  0  0
 33 36  1  0  0  0  0
 33 31  1  0  0  0  0
 34 35  1  0  0  0  0
 34 33  1  0  0  0  0
 36 37  1  0  0  0  0
M  END
>  <minimizedAffinity>
-6.25749159

$$$$

 OpenBabel03242518413D

 37 39  0  0  1  0  0  0  0  0999 V2000
   36.6630   30.8460   40.8610 C   0  0  0  0  0  0  0  0  0  0  0  0
   35.7350   30.0700   40.1490 C   0  0  0  0  0  0  0  0  0  0  0  0
   35.6720   28.8170   40.7250 C   0  0  0  0  0  0  0  0  0  0  0  0
   36.5590   28.8850   41.7510 C   0  0  0  0  0  0  0  0  0  0  0  0
   37.1330   30.0740   41.8230 O   0  0  0  0  0  0  0  0  0  0  0  0
   35.2050   30.4830   39.3010 H   0  0  0  0  0  0  0  0  0  0  0  0
   35.0390   28.0170   40.3800 H   0  0  0  0  0  0  0  0  0  0  0  0
   36.8430   27.7640   42.6760 C   0  0  2  0  0  0  0  0  0  0  0  0
   37.3950   28.0170   44.0050 C   0  0  0  0  0  0  0  0  0  0  0  0
   38.3580   27.5770   42.9640 C   0  0  1  0  0  0  0  0  0  0  0  0
   36.2760   26.8390   42.4880 H   0  0  0  0  0  0  0  0  0  0  0  0
   37.1750   27.3460   44.8700 H   0  0  0  0  0  0  0  0  0  0  0  0
   37.4790   29.0930   44.3280 H   0  0  0  0  0  0  0  0  0  0  0  0
   39.0400   28.2570   42.4560 H   0  0  0  0  0  0  0  0  0  0  0  0
   39.9210   25.7960   43.7230 C   0  0  0  0  0  0  0  0  0  0  0  0
   40.6820   26.6290   44.2930 O   0  0  0  0  0  0  0  0  0  0  0  0
   38.7490   26.1700   43.0160 N   0  0  0  0  0  0  0  0  0  0  0  0
   40.2620   24.7670   43.8330 H   0  0  0  0  0  0  0  0  0  0  0  0
   38.1770   25.4430   42.5410 H   0  0  0  0  0  0  0  0  0  0  0  0
   37.0990   32.1860   40.6900 O   0  0  0  0  0  0  0  0  0  0  0  0
   37.8500   32.5130   39.5420 C   0  0  0  0  0  0  0  0  0  0  0  0
   37.1970   32.5950   38.4590 O   0  0  0  0  0  0  0  0  0  0  0  0
   39.2410   32.7130   39.7160 C   0  0  0  0  0  0  0  0  0  0  0  0
   40.0500   31.6740   39.3900 C   0  0  0  0  0  0  0  0  0  0  0  0
   41.4260   31.8140   39.5410 C   0  0  0  0  0  0  0  0  0  0  0  0
   41.8950   32.9830   40.0060 N   0  0  0  0  0  0  0  0  0  0  0  0
   41.0850   33.9930   40.3220 C   0  0  0  0  0  0  0  0  0  0  0  0
   39.7730   33.8260   40.1660 N   0  0  0  0  0  0  0  0  0  0  0  0
   39.6810   30.7300   39.0150 H   0  0  0  0  0  0  0  0  0  0  0  0
   42.0860   30.9750   39.2780 H   0  0  0  0  0  0  0  0  0  0  0  0
   41.7250   35.1190   40.7850 O   0  0  0  0  0  0  0  0  0  0  0  0
   43.0270   36.0280   42.8500 O   0  0  0  0  0  0  0  0  0  0  0  0
   43.0830   34.9420   41.7920 P   0  0  0  0  0  0  0  0  0  0  0  0
   43.0180   33.4600   42.6110 O   0  0  0  0  0  0  0  0  0  0  0  0
   42.7440   32.7530   41.9790 H   0  0  0  0  0  0  0  0  0  0  0  0
   44.5440   35.1080   40.9800 O   0  0  0  0  0  0  0  0  0  0  0  0
   44.4740   34.6460   40.1150 H   0  0  0  0  0  0  0  0  0  0  0  0
  1  5  1  0  0  0  0
  2  3  1  0  0  0  0
  2  1  2  0  0  0  0
  3  4  2  0  0  0  0
  4  5  1  0  0  0  0
  4  8  1  0  0  0  0
  6  2  1  0  0  0  0
  7  3  1  0  0  0  0
  8 11  1  6  0  0  0
  8 10  1  0  0  0  0
  8  9  1  0  0  0  0
  9 13  1  0  0  0  0
  9 12  1  0  0  0  0
 10 14  1  6  0  0  0
 10 17  1  0  0  0  0
 10  9  1  0  0  0  0
 15 18  1  0  0  0  0
 15 16  2  0  0  0  0
 17 15  1  0  0  0  0
 19 17  1  0  0  0  0
 20  1  1  0  0  0  0
 21 23  1  0  0  0  0
 21 20  1  0  0  0  0
 22 21  2  0  0  0  0
 23 28  1  0  0  0  0
 24 25  1  0  0  0  0
 24 23  2  0  0  0  0
 25 26  2  0  0  0  0
 26 27  1  0  0  0  0
 27 31  1  0  0  0  0
 28 27  2  0  0  0  0
 29 24  1  0  0  0  0
 30 25  1  0  0  0  0
 31 33  1  0  0  0  0
 33 34  1  0  0  0  0
 33 32  2  0  0  0  0
 35 34  1  0  0  0  0
 36 33  1  0  0  0  0
 37 36  1  0  0  0  0
M  END
>  <minimizedAffinity>
-6.22641897

$$$$

 OpenBabel03242518413D

 37 39  0  0  1  0  0  0  0  0999 V2000
   37.3080   29.9180   41.7340 C   0  0  0  0  0  0  0  0  0  0  0  0
   38.4630   29.8110   42.5230 C   0  0  0  0  0  0  0  0  0  0  0  0
   38.6110   28.4960   42.9150 C   0  0  0  0  0  0  0  0  0  0  0  0
   37.5480   27.8660   42.3530 C   0  0  0  0  0  0  0  0  0  0  0  0
   36.7920   28.7060   41.6640 O   0  0  0  0  0  0  0  0  0  0  0  0
   39.0720   30.6810   42.7320 H   0  0  0  0  0  0  0  0  0  0  0  0
   39.4150   28.1280   43.5300 H   0  0  0  0  0  0  0  0  0  0  0  0
   37.2730   26.4180   42.4920 C   0  0  2  0  0  0  0  0  0  0  0  0
   38.3650   25.4490   42.4760 C   0  0  0  0  0  0  0  0  0  0  0  0
   37.6060   25.6060   41.2100 C   0  0  1  0  0  0  0  0  0  0  0  0
   36.3230   26.1620   42.9850 H   0  0  0  0  0  0  0  0  0  0  0  0
   38.3040   24.4850   43.0380 H   0  0  0  0  0  0  0  0  0  0  0  0
   39.4140   25.8590   42.4730 H   0  0  0  0  0  0  0  0  0  0  0  0
   37.9780   26.1710   40.3560 H   0  0  0  0  0  0  0  0  0  0  0  0
   37.0050   23.4020   40.2230 C   0  0  0  0  0  0  0  0  0  0  0  0
   38.1750   23.2190   39.7790 O   0  0  0  0  0  0  0  0  0  0  0  0
   36.6150   24.5680   40.9310 N   0  0  0  0  0  0  0  0  0  0  0  0
   36.3350   22.5730   40.0030 H   0  0  0  0  0  0  0  0  0  0  0  0
   35.6310   24.6770   41.2470 H   0  0  0  0  0  0  0  0  0  0  0  0
   36.7070   31.0300   41.0870 O   0  0  0  0  0  0  0  0  0  0  0  0
   37.2100   31.4370   39.8340 C   0  0  0  0  0  0  0  0  0  0  0  0
   36.7590   30.8140   38.8280 O   0  0  0  0  0  0  0  0  0  0  0  0
   38.1590   32.4890   39.8310 C   0  0  0  0  0  0  0  0  0  0  0  0
   37.7210   33.7030   40.2510 C   0  0  0  0  0  0  0  0  0  0  0  0
   38.6090   34.7740   40.2680 C   0  0  0  0  0  0  0  0  0  0  0  0
   39.8710   34.5550   39.8670 N   0  0  0  0  0  0  0  0  0  0  0  0
   40.2840   33.3550   39.4580 C   0  0  0  0  0  0  0  0  0  0  0  0
   39.4080   32.3520   39.4530 N   0  0  0  0  0  0  0  0  0  0  0  0
   36.7070   33.8880   40.5750 H   0  0  0  0  0  0  0  0  0  0  0  0
   38.2590   35.7600   40.6080 H   0  0  0  0  0  0  0  0  0  0  0  0
   41.6050   33.3010   39.0790 O   0  0  0  0  0  0  0  0  0  0  0  0
   43.0180   31.9330   37.3710 O   0  0  0  0  0  0  0  0  0  0  0  0
   41.9840   33.0420   37.4430 P   0  0  0  0  0  0  0  0  0  0  0  0
   40.6200   32.4910   36.6030 O   0  0  0  0  0  0  0  0  0  0  0  0
   39.8350   33.0230   36.8760 H   0  0  0  0  0  0  0  0  0  0  0  0
   42.6430   34.3890   36.6860 O   0  0  0  0  0  0  0  0  0  0  0  0
   42.1500   35.1860   36.9860 H   0  0  0  0  0  0  0  0  0  0  0  0
  1  2  2  0  0  0  0
  2  6  1  0  0  0  0
  2  3  1  0  0  0  0
  3  7  1  0  0  0  0
  4  8  1  0  0  0  0
  4  3  2  0  0  0  0
  5  1  1  0  0  0  0
  5  4  1  0  0  0  0
  8 11  1  1  0  0  0
  9  8  1  0  0  0  0
  9 12  1  0  0  0  0
 10 14  1  6  0  0  0
 10  9  1  0  0  0  0
 10  8  1  0  0  0  0
 13  9  1  0  0  0  0
 15 17  1  0  0  0  0
 16 15  2  0  0  0  0
 17 10  1  0  0  0  0
 17 19  1  0  0  0  0
 18 15  1  0  0  0  0
 20  1  1  0  0  0  0
 21 20  1  0  0  0  0
 22 21  2  0  0  0  0
 23 21  1  0  0  0  0
 23 24  1  0  0  0  0
 24 25  2  0  0  0  0
 24 29  1  0  0  0  0
 25 30  1  0  0  0  0
 26 25  1  0  0  0  0
 27 26  2  0  0  0  0
 28 27  1  0  0  0  0
 28 23  2  0  0  0  0
 31 27  1  0  0  0  0
 32 33  2  0  0  0  0
 33 31  1  0  0  0  0
 34 35  1  0  0  0  0
 34 33  1  0  0  0  0
 36 37  1  0  0  0  0
 36 33  1  0  0  0  0
M  END
>  <minimizedAffinity>
-6.22181559

$$$$

 OpenBabel03242518413D

 37 39  0  0  1  0  0  0  0  0999 V2000
   36.2970   28.7730   41.3540 C   0  0  0  0  0  0  0  0  0  0  0  0
   36.0150   28.6900   39.9820 C   0  0  0  0  0  0  0  0  0  0  0  0
   36.1640   29.9430   39.4220 C   0  0  0  0  0  0  0  0  0  0  0  0
   36.5270   30.7270   40.4700 C   0  0  0  0  0  0  0  0  0  0  0  0
   36.6030   30.0340   41.5950 O   0  0  0  0  0  0  0  0  0  0  0  0
   35.7340   27.7470   39.5320 H   0  0  0  0  0  0  0  0  0  0  0  0
   36.0100   30.1700   38.3810 H   0  0  0  0  0  0  0  0  0  0  0  0
   36.8070   32.1760   40.3620 C   0  0  2  0  0  0  0  0  0  0  0  0
   37.4200   32.7290   39.1570 C   0  0  0  0  0  0  0  0  0  0  0  0
   38.3250   32.5050   40.3130 C   0  0  1  0  0  0  0  0  0  0  0  0
   36.2000   32.8250   41.0120 H   0  0  0  0  0  0  0  0  0  0  0  0
   37.2110   33.7720   38.8170 H   0  0  0  0  0  0  0  0  0  0  0  0
   37.5560   32.0290   38.2860 H   0  0  0  0  0  0  0  0  0  0  0  0
   39.0100   31.6610   40.3810 H   0  0  0  0  0  0  0  0  0  0  0  0
   39.6480   34.5920   40.6000 C   0  0  0  0  0  0  0  0  0  0  0  0
   40.2840   34.4030   39.5240 O   0  0  0  0  0  0  0  0  0  0  0  0
   38.6660   33.6940   41.0910 N   0  0  0  0  0  0  0  0  0  0  0  0
   39.9360   35.5140   41.1050 H   0  0  0  0  0  0  0  0  0  0  0  0
   38.1960   33.8870   41.9980 H   0  0  0  0  0  0  0  0  0  0  0  0
   36.2940   27.7910   42.3790 O   0  0  0  0  0  0  0  0  0  0  0  0
   37.3830   27.7430   43.2740 C   0  0  0  0  0  0  0  0  0  0  0  0
   37.3510   28.5760   44.2280 O   0  0  0  0  0  0  0  0  0  0  0  0
   38.3870   26.7790   43.0160 C   0  0  0  0  0  0  0  0  0  0  0  0
   39.4300   26.7410   43.8840 C   0  0  0  0  0  0  0  0  0  0  0  0
   40.4470   25.8140   43.6800 C   0  0  0  0  0  0  0  0  0  0  0  0
   40.3490   24.9900   42.6250 N   0  0  0  0  0  0  0  0  0  0  0  0
   39.3170   25.0410   41.7820 C   0  0  0  0  0  0  0  0  0  0  0  0
   38.3610   25.9410   42.0060 N   0  0  0  0  0  0  0  0  0  0  0  0
   39.5170   27.4000   44.7360 H   0  0  0  0  0  0  0  0  0  0  0  0
   41.2940   25.7790   44.3800 H   0  0  0  0  0  0  0  0  0  0  0  0
   39.3700   24.1310   40.7540 O   0  0  0  0  0  0  0  0  0  0  0  0
   37.8020   23.2720   38.8590 O   0  0  0  0  0  0  0  0  0  0  0  0
   37.9750   23.2410   40.3660 P   0  0  0  0  0  0  0  0  0  0  0  0
   38.1750   21.6150   40.8000 O   0  0  0  0  0  0  0  0  0  0  0  0
   38.5900   21.5680   41.6950 H   0  0  0  0  0  0  0  0  0  0  0  0
   36.5710   23.8670   41.0440 O   0  0  0  0  0  0  0  0  0  0  0  0
   36.7690   24.1490   41.9660 H   0  0  0  0  0  0  0  0  0  0  0  0
  1  5  1  0  0  0  0
  1 20  1  0  0  0  0
  2  1  2  0  0  0  0
  3  2  1  0  0  0  0
  3  4  2  0  0  0  0
  4  5  1  0  0  0  0
  6  2  1  0  0  0  0
  7  3  1  0  0  0  0
  8  4  1  0  0  0  0
  8 11  1  1  0  0  0
  9 10  1  0  0  0  0
  9  8  1  0  0  0  0
 10  8  1  0  0  0  0
 10 14  1  6  0  0  0
 10 17  1  0  0  0  0
 12  9  1  0  0  0  0
 13  9  1  0  0  0  0
 15 17  1  0  0  0  0
 15 18  1  0  0  0  0
 16 15  2  0  0  0  0
 17 19  1  0  0  0  0
 20 21  1  0  0  0  0
 21 22  2  0  0  0  0
 23 21  1  0  0  0  0
 23 24  1  0  0  0  0
 24 29  1  0  0  0  0
 25 24  2  0  0  0  0
 25 30  1  0  0  0  0
 26 25  1  0  0  0  0
 27 28  1  0  0  0  0
 27 26  2  0  0  0  0
 28 23  2  0  0  0  0
 31 27  1  0  0  0  0
 32 33  2  0  0  0  0
 33 31  1  0  0  0  0
 33 34  1  0  0  0  0
 33 36  1  0  0  0  0
 34 35  1  0  0  0  0
 36 37  1  0  0  0  0
M  END
>  <minimizedAffinity>
-5.92111826

$$$$

 OpenBabel03242518413D

 37 39  0  0  1  0  0  0  0  0999 V2000
   38.0800   32.5340   39.9520 C   0  0  0  0  0  0  0  0  0  0  0  0
   37.2670   33.4650   39.2860 C   0  0  0  0  0  0  0  0  0  0  0  0
   37.7360   34.7350   39.5550 C   0  0  0  0  0  0  0  0  0  0  0  0
   38.8040   34.5230   40.3670 C   0  0  0  0  0  0  0  0  0  0  0  0
   38.9970   33.2340   40.5930 O   0  0  0  0  0  0  0  0  0  0  0  0
   36.4320   33.1360   38.6830 H   0  0  0  0  0  0  0  0  0  0  0  0
   37.3000   35.6410   39.1720 H   0  0  0  0  0  0  0  0  0  0  0  0
   39.6480   35.6030   40.9250 C   0  0  2  0  0  0  0  0  0  0  0  0
   40.2600   36.5980   40.0490 C   0  0  0  0  0  0  0  0  0  0  0  0
   41.1400   35.4930   40.5060 C   0  0  1  0  0  0  0  0  0  0  0  0
   39.4670   35.8460   41.9840 H   0  0  0  0  0  0  0  0  0  0  0  0
   40.4620   37.6410   40.3940 H   0  0  0  0  0  0  0  0  0  0  0  0
   39.9660   36.5730   38.9620 H   0  0  0  0  0  0  0  0  0  0  0  0
   41.4100   34.6460   39.8780 H   0  0  0  0  0  0  0  0  0  0  0  0
   43.2020   35.0160   41.8140 C   0  0  0  0  0  0  0  0  0  0  0  0
   43.4680   33.9890   41.1260 O   0  0  0  0  0  0  0  0  0  0  0  0
   42.0540   35.8210   41.5980 N   0  0  0  0  0  0  0  0  0  0  0  0
   43.9450   35.2120   42.5860 H   0  0  0  0  0  0  0  0  0  0  0  0
   41.8710   36.6380   42.2150 H   0  0  0  0  0  0  0  0  0  0  0  0
   38.0370   31.1160   40.0100 O   0  0  0  0  0  0  0  0  0  0  0  0
   37.3810   30.5030   41.0970 C   0  0  0  0  0  0  0  0  0  0  0  0
   36.2300   30.9550   41.3750 O   0  0  0  0  0  0  0  0  0  0  0  0
   38.0680   29.4560   41.7580 C   0  0  0  0  0  0  0  0  0  0  0  0
   39.2870   29.7580   42.2700 C   0  0  0  0  0  0  0  0  0  0  0  0
   40.0100   28.7680   42.9300 C   0  0  0  0  0  0  0  0  0  0  0  0
   39.4610   27.5470   43.0320 N   0  0  0  0  0  0  0  0  0  0  0  0
   38.2610   27.2680   42.5220 C   0  0  0  0  0  0  0  0  0  0  0  0
   37.5970   28.2390   41.8960 N   0  0  0  0  0  0  0  0  0  0  0  0
   39.7370   30.7380   42.1930 H   0  0  0  0  0  0  0  0  0  0  0  0
   40.9980   29.0080   43.3470 H   0  0  0  0  0  0  0  0  0  0  0  0
   37.8440   25.9710   42.7100 O   0  0  0  0  0  0  0  0  0  0  0  0
   37.8950   23.7460   41.3570 O   0  0  0  0  0  0  0  0  0  0  0  0
   38.8020   24.7010   42.1120 P   0  0  0  0  0  0  0  0  0  0  0  0
   39.9280   25.2910   40.9920 O   0  0  0  0  0  0  0  0  0  0  0  0
   40.3280   26.1220   41.3430 H   0  0  0  0  0  0  0  0  0  0  0  0
   39.5700   23.8160   43.3150 O   0  0  0  0  0  0  0  0  0  0  0  0
   39.9020   24.4420   43.9970 H   0  0  0  0  0  0  0  0  0  0  0  0
  1 20  1  0  0  0  0
  1  5  1  0  0  0  0
  2  3  1  0  0  0  0
  2  1  2  0  0  0  0
  3  4  2  0  0  0  0
  4  5  1  0  0  0  0
  4  8  1  0  0  0  0
  6  2  1  0  0  0  0
  7  3  1  0  0  0  0
  8 11  1  1  0  0  0
  9 12  1  0  0  0  0
  9 10  1  0  0  0  0
  9  8  1  0  0  0  0
 10 14  1  6  0  0  0
 10  8  1  0  0  0  0
 10 17  1  0  0  0  0
 13  9  1  0  0  0  0
 15 18  1  0  0  0  0
 16 15  2  0  0  0  0
 17 15  1  0  0  0  0
 17 19  1  0  0  0  0
 20 21  1  0  0  0  0
 21 22  2  0  0  0  0
 21 23  1  0  0  0  0
 23 28  2  0  0  0  0
 23 24  1  0  0  0  0
 24 25  2  0  0  0  0
 25 26  1  0  0  0  0
 25 30  1  0  0  0  0
 27 31  1  0  0  0  0
 27 26  2  0  0  0  0
 28 27  1  0  0  0  0
 29 24  1  0  0  0  0
 32 33  2  0  0  0  0
 33 31  1  0  0  0  0
 33 36  1  0  0  0  0
 34 35  1  0  0  0  0
 34 33  1  0  0  0  0
 36 37  1  0  0  0  0
M  END
>  <minimizedAffinity>
-5.88262177

$$$$
