
 OpenBabel03242518383D

 37 39  0  0  1  0  0  0  0  0999 V2000
   47.2700   33.7130   39.8650 C   0  0  0  0  0  0  0  0  0  0  0  0
   48.2770   34.3420   39.1160 C   0  0  0  0  0  0  0  0  0  0  0  0
   47.9930   34.1890   37.7740 C   0  0  0  0  0  0  0  0  0  0  0  0
   46.8350   33.4790   37.7650 C   0  0  0  0  0  0  0  0  0  0  0  0
   46.4200   33.2060   38.9920 O   0  0  0  0  0  0  0  0  0  0  0  0
   49.1020   34.8390   39.6090 H   0  0  0  0  0  0  0  0  0  0  0  0
   48.6000   34.5730   36.9730 H   0  0  0  0  0  0  0  0  0  0  0  0
   46.1250   33.0660   36.5340 C   0  0  2  0  0  0  0  0  0  0  0  0
   45.7520   31.6710   36.3220 C   0  0  0  0  0  0  0  0  0  0  0  0
   46.9730   32.1390   35.6200 C   0  0  1  0  0  0  0  0  0  0  0  0
   45.5690   33.8650   36.0180 H   0  0  0  0  0  0  0  0  0  0  0  0
   44.8500   31.3870   35.7260 H   0  0  0  0  0  0  0  0  0  0  0  0
   45.9210   30.9600   37.1790 H   0  0  0  0  0  0  0  0  0  0  0  0
   47.9820   31.9090   35.9590 H   0  0  0  0  0  0  0  0  0  0  0  0
   47.9550   32.5350   33.3680 C   0  0  0  0  0  0  0  0  0  0  0  0
   49.1370   32.3910   33.7960 O   0  0  0  0  0  0  0  0  0  0  0  0
   46.8100   32.4500   34.2010 N   0  0  0  0  0  0  0  0  0  0  0  0
   47.9150   32.7320   32.2980 H   0  0  0  0  0  0  0  0  0  0  0  0
   45.8640   32.6070   33.7980 H   0  0  0  0  0  0  0  0  0  0  0  0
   47.0820   33.5770   41.2650 O   0  0  0  0  0  0  0  0  0  0  0  0
   47.2530   34.7120   42.0850 C   0  0  0  0  0  0  0  0  0  0  0  0
   48.2080   35.4820   41.7710 O   0  0  0  0  0  0  0  0  0  0  0  0
   46.3480   34.8710   43.1630 C   0  0  0  0  0  0  0  0  0  0  0  0
   45.4640   35.8960   43.0680 C   0  0  0  0  0  0  0  0  0  0  0  0
   44.5510   36.1010   44.0970 C   0  0  0  0  0  0  0  0  0  0  0  0
   44.5850   35.2650   45.1480 N   0  0  0  0  0  0  0  0  0  0  0  0
   45.4610   34.2630   45.2240 C   0  0  0  0  0  0  0  0  0  0  0  0
   46.3210   34.0960   44.2210 N   0  0  0  0  0  0  0  0  0  0  0  0
   45.4300   36.5730   42.2260 H   0  0  0  0  0  0  0  0  0  0  0  0
   43.8330   36.9300   44.0250 H   0  0  0  0  0  0  0  0  0  0  0  0
   45.3650   33.5020   46.3650 O   0  0  0  0  0  0  0  0  0  0  0  0
   47.4760   32.6270   47.6140 O   0  0  0  0  0  0  0  0  0  0  0  0
   46.4400   32.2050   46.5880 P   0  0  0  0  0  0  0  0  0  0  0  0
   45.6250   30.8700   47.2380 O   0  0  0  0  0  0  0  0  0  0  0  0
   44.7650   30.7570   46.7680 H   0  0  0  0  0  0  0  0  0  0  0  0
   47.2680   31.7730   45.1920 O   0  0  0  0  0  0  0  0  0  0  0  0
   46.6380   31.8030   44.4350 H   0  0  0  0  0  0  0  0  0  0  0  0
  1 20  1  0  0  0  0
  2  6  1  0  0  0  0
  2  1  2  0  0  0  0
  3  2  1  0  0  0  0
  4  3  2  0  0  0  0
  4  5  1  0  0  0  0
  5  1  1  0  0  0  0
  7  3  1  0  0  0  0
  8 11  1  6  0  0  0
  8  4  1  0  0  0  0
  9  8  1  0  0  0  0
  9 13  1  0  0  0  0
 10 14  1  1  0  0  0
 10  9  1  0  0  0  0
 10  8  1  0  0  0  0
 12  9  1  0  0  0  0
 15 16  2  0  0  0  0
 15 17  1  0  0  0  0
 17 10  1  0  0  0  0
 18 15  1  0  0  0  0
 19 17  1  0  0  0  0
 20 21  1  0  0  0  0
 21 23  1  0  0  0  0
 22 21  2  0  0  0  0
 23 28  1  0  0  0  0
 24 23  2  0  0  0  0
 24 25  1  0  0  0  0
 25 26  2  0  0  0  0
 26 27  1  0  0  0  0
 27 31  1  0  0  0  0
 28 27  2  0  0  0  0
 29 24  1  0  0  0  0
 30 25  1  0  0  0  0
 31 33  1  0  0  0  0
 33 34  1  0  0  0  0
 33 32  2  0  0  0  0
 35 34  1  0  0  0  0
 36 33  1  0  0  0  0
 37 36  1  0  0  0  0
M  END
>  <minimizedAffinity>
-5.61010456

>  <minimizedRMSD>
0.305388749

$$$$
