
 OpenBabel03242523553D

 43 45  0  0  1  0  0  0  0  0999 V2000
   42.8120   34.4100   38.8760 C   0  0  1  0  0  0  0  0  0  0  0  0
   42.9910   35.1830   40.1750 C   0  0  1  0  0  0  0  0  0  0  0  0
   41.7130   35.5180   40.6680 O   0  0  0  0  0  0  0  0  0  0  0  0
   40.8060   35.8200   39.6510 C   0  0  0  0  0  0  0  0  0  0  0  0
   40.4400   34.6040   38.8310 C   0  0  2  0  0  0  0  0  0  0  0  0
   41.5960   33.5610   39.0480 C   0  0  1  0  0  0  0  0  0  0  0  0
   43.7290   33.7970   38.6610 H   0  0  0  0  0  0  0  0  0  0  0  0
   43.6260   36.0650   40.0680 H   0  0  0  0  0  0  0  0  0  0  0  0
   41.1480   36.6670   39.0270 H   0  0  0  0  0  0  0  0  0  0  0  0
   39.8900   36.1440   40.1730 H   0  0  0  0  0  0  0  0  0  0  0  0
   39.4930   34.1220   39.1400 H   0  0  0  0  0  0  0  0  0  0  0  0
   41.3690   33.3940   40.1510 H   0  0  0  0  0  0  0  0  0  0  0  0
   42.6490   35.2870   37.7960 O   0  0  0  0  0  0  0  0  0  0  0  0
   42.8020   34.7950   36.9700 H   0  0  0  0  0  0  0  0  0  0  0  0
   40.4760   34.9120   37.4820 O   0  0  0  0  0  0  0  0  0  0  0  0
   39.7400   34.4350   36.9980 H   0  0  0  0  0  0  0  0  0  0  0  0
   43.4620   34.2420   41.1030 O   0  0  0  0  0  0  0  0  0  0  0  0
   44.5920   34.3590   41.8080 C   0  0  0  0  0  0  0  0  0  0  0  0
   45.8280   34.4790   41.1790 C   0  0  0  0  0  0  0  0  0  0  0  0
   46.9760   34.5980   41.9380 C   0  0  0  0  0  0  0  0  0  0  0  0
   46.8660   34.5950   43.3120 N   0  0  0  0  0  0  0  0  0  0  0  0
   45.6480   34.4750   43.9030 C   0  0  0  0  0  0  0  0  0  0  0  0
   44.5220   34.3580   43.1510 N   0  0  0  0  0  0  0  0  0  0  0  0
   45.9270   34.4830   40.1070 H   0  0  0  0  0  0  0  0  0  0  0  0
   45.5660   34.4730   44.9910 H   0  0  0  0  0  0  0  0  0  0  0  0
   48.3330   34.7120   41.3130 C   0  0  0  0  0  0  0  0  0  0  0  0
   49.0680   36.0340   41.5150 C   0  0  0  0  0  0  0  0  0  0  0  0
   49.5120   34.6860   42.1250 C   0  0  0  0  0  0  0  0  0  0  0  0
   48.3260   34.4410   40.2240 H   0  0  0  0  0  0  0  0  0  0  0  0
   48.5880   36.7520   42.2220 H   0  0  0  0  0  0  0  0  0  0  0  0
   49.7410   36.4180   40.7480 H   0  0  0  0  0  0  0  0  0  0  0  0
   50.4640   34.2690   41.7700 H   0  0  0  0  0  0  0  0  0  0  0  0
   49.3850   34.5780   43.2250 H   0  0  0  0  0  0  0  0  0  0  0  0
   41.4090   32.5610   38.1730 O   0  0  0  0  0  0  0  0  0  0  0  0
   40.5940   31.4830   38.2780 C   0  0  0  0  0  0  0  0  0  0  0  0
   39.5810   31.3160   37.4690 O   0  0  0  0  0  0  0  0  0  0  0  0
   40.3360   30.3010   38.9780 O   0  0  0  0  0  0  0  0  0  0  0  0
   39.3850   29.0970   41.0960 O   0  0  0  0  0  0  0  0  0  0  0  0
   39.0290   30.1760   40.0790 P   0  0  0  0  0  0  0  0  0  0  0  0
   37.5580   29.9230   39.3400 O   0  0  0  0  0  0  0  0  0  0  0  0
   36.9500   29.3240   39.8690 H   0  0  0  0  0  0  0  0  0  0  0  0
   38.9570   31.6210   40.9960 O   0  0  0  0  0  0  0  0  0  0  0  0
   39.7640   31.7180   41.5610 H   0  0  0  0  0  0  0  0  0  0  0  0
  1  7  1  6  0  0  0
  1  6  1  0  0  0  0
  1  2  1  0  0  0  0
  2  8  1  6  0  0  0
  2  3  1  0  0  0  0
  2 17  1  0  0  0  0
  4 10  1  0  0  0  0
  4  3  1  0  0  0  0
  5  6  1  0  0  0  0
  5 11  1  1  0  0  0
  5  4  1  0  0  0  0
  6 12  1  1  0  0  0
  9  4  1  0  0  0  0
 13  1  1  0  0  0  0
 14 13  1  0  0  0  0
 15  5  1  0  0  0  0
 16 15  1  0  0  0  0
 17 18  1  0  0  0  0
 18 23  1  0  0  0  0
 19 18  2  0  0  0  0
 19 20  1  0  0  0  0
 20 21  2  0  0  0  0
 21 22  1  0  0  0  0
 22 25  1  0  0  0  0
 23 22  2  0  0  0  0
 24 19  1  0  0  0  0
 26 27  1  0  0  0  0
 26 20  1  0  0  0  0
 26 28  1  0  0  0  0
 27 28  1  0  0  0  0
 27 30  1  0  0  0  0
 28 33  1  0  0  0  0
 29 26  1  0  0  0  0
 31 27  1  0  0  0  0
 32 28  1  0  0  0  0
 34 35  1  0  0  0  0
 34  6  1  0  0  0  0
 35 37  1  0  0  0  0
 36 35  2  0  0  0  0
 37 39  1  0  0  0  0
 39 42  1  0  0  0  0
 39 38  2  0  0  0  0
 40 41  1  0  0  0  0
 40 39  1  0  0  0  0
 42 43  1  0  0  0  0
M  END
>  <minimizedAffinity>
-5.76869917

>  <minimizedRMSD>
0.689260364

$$$$
