
 OpenBabel03252508003D

 27 28  0  0  1  0  0  0  0  0999 V2000
   46.3640   34.8050   43.1790 C   0  0  0  0  0  0  0  0  0  0  0  0
   45.3930   35.7970   43.4210 C   0  0  0  0  0  0  0  0  0  0  0  0
   44.6290   35.6830   44.5870 C   0  0  0  0  0  0  0  0  0  0  0  0
   44.8750   34.6250   45.4030 N   0  0  0  0  0  0  0  0  0  0  0  0
   45.8340   33.6970   45.1050 C   0  0  0  0  0  0  0  0  0  0  0  0
   46.5850   33.7580   44.0150 N   0  0  0  0  0  0  0  0  0  0  0  0
   45.2410   36.6100   42.7430 H   0  0  0  0  0  0  0  0  0  0  0  0
   43.8830   36.4210   44.8020 H   0  0  0  0  0  0  0  0  0  0  0  0
   46.0560   32.5690   46.0660 C   0  0  1  0  0  0  0  0  0  0  0  0
   46.8230   32.8300   47.3420 C   0  0  0  0  0  0  0  0  0  0  0  0
   45.3230   32.7000   47.3420 C   0  0  1  0  0  0  0  0  0  0  0  0
   46.2230   31.5740   45.6440 H   0  0  0  0  0  0  0  0  0  0  0  0
   47.4000   31.9840   47.7620 H   0  0  0  0  0  0  0  0  0  0  0  0
   47.3130   33.8160   47.4360 H   0  0  0  0  0  0  0  0  0  0  0  0
   44.9220   31.8630   47.9100 H   0  0  0  0  0  0  0  0  0  0  0  0
   44.6790   33.9790   47.6740 N   0  0  0  0  0  0  0  0  0  0  0  0
   44.9420   34.2030   48.6680 H   0  0  0  0  0  0  0  0  0  0  0  0
   43.6340   33.8750   47.6680 H   0  0  0  0  0  0  0  0  0  0  0  0
   47.1270   34.9850   41.9680 C   0  0  0  0  0  0  0  0  0  0  0  0
   48.2350   35.6270   41.9120 O   0  0  0  0  0  0  0  0  0  0  0  0
   46.6510   34.4360   40.7620 O   0  0  0  0  0  0  0  0  0  0  0  0
   46.9880   33.3370   38.3440 O   0  0  0  0  0  0  0  0  0  0  0  0
   47.7210   33.8200   39.5610 P   0  0  0  0  0  0  0  0  0  0  0  0
   48.7780   35.0980   39.1690 O   0  0  0  0  0  0  0  0  0  0  0  0
   48.9910   35.6160   39.9850 H   0  0  0  0  0  0  0  0  0  0  0  0
   48.6910   32.5900   40.2160 O   0  0  0  0  0  0  0  0  0  0  0  0
   49.3950   33.0290   40.7700 H   0  0  0  0  0  0  0  0  0  0  0  0
  1  2  2  0  0  0  0
  1  6  1  0  0  0  0
  2  3  1  0  0  0  0
  3  8  1  0  0  0  0
  3  4  2  0  0  0  0
  5  4  1  0  0  0  0
  5  9  1  0  0  0  0
  6  5  2  0  0  0  0
  7  2  1  0  0  0  0
  9 12  1  6  0  0  0
  9 11  1  0  0  0  0
  9 10  1  0  0  0  0
 10 14  1  0  0  0  0
 10 13  1  0  0  0  0
 11 10  1  0  0  0  0
 11 16  1  0  0  0  0
 11 15  1  1  0  0  0
 16 17  1  0  0  0  0
 18 16  1  0  0  0  0
 19  1  1  0  0  0  0
 20 19  2  0  0  0  0
 21 19  1  0  0  0  0
 22 23  2  0  0  0  0
 23 26  1  0  0  0  0
 23 21  1  0  0  0  0
 24 23  1  0  0  0  0
 24 25  1  0  0  0  0
 26 27  1  0  0  0  0
M  END
>  <minimizedAffinity>
-5.41634226

>  <minimizedRMSD>
1.86714458

$$$$
