
 OpenBabel03242518383D

 37 39  0  0  1  0  0  0  0  0999 V2000
   48.2210   34.3290   40.8660 C   0  0  0  0  0  0  0  0  0  0  0  0
   48.4450   35.0910   42.0230 C   0  0  0  0  0  0  0  0  0  0  0  0
   49.5980   34.6390   42.6340 C   0  0  0  0  0  0  0  0  0  0  0  0
   50.0190   33.6300   41.8280 C   0  0  0  0  0  0  0  0  0  0  0  0
   49.2080   33.4570   40.7980 O   0  0  0  0  0  0  0  0  0  0  0  0
   47.7650   35.8840   42.3040 H   0  0  0  0  0  0  0  0  0  0  0  0
   50.0080   35.0440   43.5430 H   0  0  0  0  0  0  0  0  0  0  0  0
   51.2390   32.8270   42.0740 C   0  0  2  0  0  0  0  0  0  0  0  0
   51.6550   31.7960   41.1270 C   0  0  0  0  0  0  0  0  0  0  0  0
   50.9400   31.3250   42.3400 C   0  0  1  0  0  0  0  0  0  0  0  0
   51.9830   33.2900   42.7400 H   0  0  0  0  0  0  0  0  0  0  0  0
   52.7300   31.5290   40.9850 H   0  0  0  0  0  0  0  0  0  0  0  0
   51.0810   31.7270   40.1610 H   0  0  0  0  0  0  0  0  0  0  0  0
   49.8920   31.0280   42.3380 H   0  0  0  0  0  0  0  0  0  0  0  0
   51.6820   29.3850   43.7090 C   0  0  0  0  0  0  0  0  0  0  0  0
   50.8660   28.6020   43.1420 O   0  0  0  0  0  0  0  0  0  0  0  0
   51.7810   30.7650   43.3950 N   0  0  0  0  0  0  0  0  0  0  0  0
   52.2940   28.8870   44.4600 H   0  0  0  0  0  0  0  0  0  0  0  0
   52.4500   31.3670   43.9160 H   0  0  0  0  0  0  0  0  0  0  0  0
   47.1920   34.3800   39.8890 O   0  0  0  0  0  0  0  0  0  0  0  0
   46.4080   33.2280   39.6700 C   0  0  0  0  0  0  0  0  0  0  0  0
   46.8910   32.3760   38.8670 O   0  0  0  0  0  0  0  0  0  0  0  0
   45.1770   33.1450   40.3650 C   0  0  0  0  0  0  0  0  0  0  0  0
   45.1790   32.4400   41.5240 C   0  0  0  0  0  0  0  0  0  0  0  0
   43.9970   32.3240   42.2480 C   0  0  0  0  0  0  0  0  0  0  0  0
   42.8970   32.9220   41.7640 N   0  0  0  0  0  0  0  0  0  0  0  0
   42.9130   33.6110   40.6220 C   0  0  0  0  0  0  0  0  0  0  0  0
   44.0620   33.7020   39.9530 N   0  0  0  0  0  0  0  0  0  0  0  0
   46.0590   31.9550   41.9210 H   0  0  0  0  0  0  0  0  0  0  0  0
   43.9940   31.7540   43.1890 H   0  0  0  0  0  0  0  0  0  0  0  0
   41.7040   34.1600   40.2650 O   0  0  0  0  0  0  0  0  0  0  0  0
   39.9010   35.9760   40.7480 O   0  0  0  0  0  0  0  0  0  0  0  0
   40.7760   34.9530   41.4480 P   0  0  0  0  0  0  0  0  0  0  0  0
   39.7320   33.8560   42.2080 O   0  0  0  0  0  0  0  0  0  0  0  0
   40.2240   33.0250   42.4060 H   0  0  0  0  0  0  0  0  0  0  0  0
   41.6990   35.7770   42.5830 O   0  0  0  0  0  0  0  0  0  0  0  0
   42.4740   35.2190   42.8190 H   0  0  0  0  0  0  0  0  0  0  0  0
  1  2  2  0  0  0  0
  2  6  1  0  0  0  0
  2  3  1  0  0  0  0
  3  7  1  0  0  0  0
  4  8  1  0  0  0  0
  4  3  2  0  0  0  0
  5  1  1  0  0  0  0
  5  4  1  0  0  0  0
  8 10  1  0  0  0  0
  8 11  1  1  0  0  0
  9  8  1  0  0  0  0
  9 10  1  0  0  0  0
 10 14  1  6  0  0  0
 10 17  1  0  0  0  0
 12  9  1  0  0  0  0
 13  9  1  0  0  0  0
 15 18  1  0  0  0  0
 16 15  2  0  0  0  0
 17 15  1  0  0  0  0
 17 19  1  0  0  0  0
 20  1  1  0  0  0  0
 21 20  1  0  0  0  0
 21 23  1  0  0  0  0
 22 21  2  0  0  0  0
 23 24  1  0  0  0  0
 24 29  1  0  0  0  0
 24 25  2  0  0  0  0
 25 30  1  0  0  0  0
 26 25  1  0  0  0  0
 27 26  2  0  0  0  0
 28 23  2  0  0  0  0
 28 27  1  0  0  0  0
 31 27  1  0  0  0  0
 31 33  1  0  0  0  0
 32 33  2  0  0  0  0
 33 34  1  0  0  0  0
 33 36  1  0  0  0  0
 34 35  1  0  0  0  0
 36 37  1  0  0  0  0
M  END
>  <minimizedAffinity>
-5.11255074

>  <minimizedRMSD>
6.41471195

$$$$
