
 OpenBabel03252508013D

 27 28  0  0  1  0  0  0  0  0999 V2000
   46.2730   34.8140   43.2130 C   0  0  0  0  0  0  0  0  0  0  0  0
   45.3250   35.8170   43.5000 C   0  0  0  0  0  0  0  0  0  0  0  0
   44.6050   35.7040   44.6940 C   0  0  0  0  0  0  0  0  0  0  0  0
   44.8680   34.6360   45.4910 N   0  0  0  0  0  0  0  0  0  0  0  0
   45.8010   33.6970   45.1500 C   0  0  0  0  0  0  0  0  0  0  0  0
   46.5110   33.7570   44.0320 N   0  0  0  0  0  0  0  0  0  0  0  0
   45.1590   36.6380   42.8350 H   0  0  0  0  0  0  0  0  0  0  0  0
   43.8780   36.4490   44.9430 H   0  0  0  0  0  0  0  0  0  0  0  0
   46.0460   32.5590   46.0930 C   0  0  1  0  0  0  0  0  0  0  0  0
   46.8350   32.8060   47.3570 C   0  0  0  0  0  0  0  0  0  0  0  0
   45.3350   32.6710   47.3830 C   0  0  1  0  0  0  0  0  0  0  0  0
   46.2080   31.5690   45.6550 H   0  0  0  0  0  0  0  0  0  0  0  0
   47.4220   31.9580   47.7560 H   0  0  0  0  0  0  0  0  0  0  0  0
   47.3230   33.7930   47.4540 H   0  0  0  0  0  0  0  0  0  0  0  0
   44.9480   31.8260   47.9480 H   0  0  0  0  0  0  0  0  0  0  0  0
   44.6940   33.9440   47.7430 N   0  0  0  0  0  0  0  0  0  0  0  0
   44.9740   34.1560   48.7340 H   0  0  0  0  0  0  0  0  0  0  0  0
   43.6480   33.8360   47.7540 H   0  0  0  0  0  0  0  0  0  0  0  0
   46.9910   34.9950   41.9750 C   0  0  0  0  0  0  0  0  0  0  0  0
   48.0960   35.6370   41.8790 O   0  0  0  0  0  0  0  0  0  0  0  0
   46.4710   34.4450   40.7870 O   0  0  0  0  0  0  0  0  0  0  0  0
   45.7940   32.1850   39.5210 O   0  0  0  0  0  0  0  0  0  0  0  0
   46.9150   32.8710   40.2480 P   0  0  0  0  0  0  0  0  0  0  0  0
   48.2630   33.0820   39.2280 O   0  0  0  0  0  0  0  0  0  0  0  0
   48.8420   33.8020   39.5840 H   0  0  0  0  0  0  0  0  0  0  0  0
   47.4560   31.9330   41.5560 O   0  0  0  0  0  0  0  0  0  0  0  0
   48.3810   32.2350   41.7760 H   0  0  0  0  0  0  0  0  0  0  0  0
  1  2  2  0  0  0  0
  1  6  1  0  0  0  0
  2  3  1  0  0  0  0
  3  8  1  0  0  0  0
  3  4  2  0  0  0  0
  5  4  1  0  0  0  0
  5  9  1  0  0  0  0
  6  5  2  0  0  0  0
  7  2  1  0  0  0  0
  9 12  1  6  0  0  0
  9 10  1  0  0  0  0
  9 11  1  0  0  0  0
 10 11  1  0  0  0  0
 10 14  1  0  0  0  0
 10 13  1  0  0  0  0
 11 16  1  0  0  0  0
 11 15  1  1  0  0  0
 16 18  1  0  0  0  0
 16 17  1  0  0  0  0
 19  1  1  0  0  0  0
 20 19  2  0  0  0  0
 21 19  1  0  0  0  0
 22 23  2  0  0  0  0
 23 21  1  0  0  0  0
 23 26  1  0  0  0  0
 24 25  1  0  0  0  0
 24 23  1  0  0  0  0
 26 27  1  0  0  0  0
M  END
>  <minimizedAffinity>
-4.87625647

>  <minimizedRMSD>
1.45239627

$$$$
