
 OpenBabel03252502283D

 33 34  0  0  0  0  0  0  0  0999 V2000
   44.9350   34.4390   41.3790 C   0  0  0  0  0  0  0  0  0  0  0  0
   45.2170   35.0130   42.6190 C   0  0  0  0  0  0  0  0  0  0  0  0
   46.5490   35.2760   42.9390 C   0  0  0  0  0  0  0  0  0  0  0  0
   47.5350   34.9700   42.0500 C   0  0  0  0  0  0  0  0  0  0  0  0
   47.2800   34.4030   40.8190 C   0  0  0  0  0  0  0  0  0  0  0  0
   45.9410   34.1470   40.5160 C   0  0  0  0  0  0  0  0  0  0  0  0
   44.4270   35.2530   43.3210 H   0  0  0  0  0  0  0  0  0  0  0  0
   46.7810   35.7180   43.8900 H   0  0  0  0  0  0  0  0  0  0  0  0
   48.5590   35.1890   42.3340 H   0  0  0  0  0  0  0  0  0  0  0  0
   48.0410   34.1570   40.1090 H   0  0  0  0  0  0  0  0  0  0  0  0
   41.3020   34.7750   40.4190 C   0  0  0  0  0  0  0  0  0  0  0  0
   42.6430   35.1380   40.6500 C   0  0  0  0  0  0  0  0  0  0  0  0
   43.5330   34.1950   41.1050 C   0  0  0  0  0  0  0  0  0  0  0  0
   43.0460   32.9450   41.3060 N   0  0  0  0  0  0  0  0  0  0  0  0
   41.7600   32.6020   41.0840 C   0  0  0  0  0  0  0  0  0  0  0  0
   40.8810   33.5240   40.6360 N   0  0  0  0  0  0  0  0  0  0  0  0
   43.0070   36.1460   40.4810 H   0  0  0  0  0  0  0  0  0  0  0  0
   41.4750   31.5690   41.2780 H   0  0  0  0  0  0  0  0  0  0  0  0
   40.3410   35.7860   39.9300 C   0  0  0  0  0  0  0  0  0  0  0  0
   39.1810   35.1000   39.5310 F   0  0  0  0  0  0  0  0  0  0  0  0
   40.8690   36.2920   38.7340 F   0  0  0  0  0  0  0  0  0  0  0  0
   40.0420   36.7540   40.8360 F   0  0  0  0  0  0  0  0  0  0  0  0
   45.3460   32.2680   38.8060 C   0  0  0  0  0  0  0  0  0  0  0  0
   45.5360   31.2370   39.4380 O   0  0  0  0  0  0  0  0  0  0  0  0
   45.5350   33.5800   39.2890 N   0  0  0  0  0  0  0  0  0  0  0  0
   45.3490   34.4060   38.6410 H   0  0  0  0  0  0  0  0  0  0  0  0
   44.9010   32.1350   37.4760 O   0  0  0  0  0  0  0  0  0  0  0  0
   46.9280   31.6260   35.8200 O   0  0  0  0  0  0  0  0  0  0  0  0
   45.9640   32.7010   36.2580 P   0  0  0  0  0  0  0  0  0  0  0  0
   44.9760   33.0610   34.9090 O   0  0  0  0  0  0  0  0  0  0  0  0
   44.1040   33.4000   35.2500 H   0  0  0  0  0  0  0  0  0  0  0  0
   46.7760   34.0980   36.6810 O   0  0  0  0  0  0  0  0  0  0  0  0
   47.6100   33.8890   37.1970 H   0  0  0  0  0  0  0  0  0  0  0  0
  1  2  1  0  0  0  0
  2  3  2  0  0  0  0
  2  7  1  0  0  0  0
  3  8  1  0  0  0  0
  4  9  1  0  0  0  0
  4  3  1  0  0  0  0
  5  4  2  0  0  0  0
  6  5  1  0  0  0  0
  6  1  2  0  0  0  0
 10  5  1  0  0  0  0
 11 16  2  0  0  0  0
 11 12  1  0  0  0  0
 12 13  2  0  0  0  0
 13 14  1  0  0  0  0
 13  1  1  0  0  0  0
 15 18  1  0  0  0  0
 15 14  2  0  0  0  0
 16 15  1  0  0  0  0
 17 12  1  0  0  0  0
 19 11  1  0  0  0  0
 19 22  1  0  0  0  0
 20 19  1  0  0  0  0
 21 19  1  0  0  0  0
 23 25  1  0  0  0  0
 23 24  2  0  0  0  0
 25  6  1  0  0  0  0
 26 25  1  0  0  0  0
 27 23  1  0  0  0  0
 28 29  2  0  0  0  0
 29 32  1  0  0  0  0
 29 27  1  0  0  0  0
 30 31  1  0  0  0  0
 30 29  1  0  0  0  0
 32 33  1  0  0  0  0
M  END
>  <minimizedAffinity>
-6.44223261

>  <minimizedRMSD>
0.470247775

$$$$
