
 OpenBabel03252502283D

 33 34  0  0  0  0  0  0  0  0999 V2000
   45.2230   34.3030   40.9320 C   0  0  0  0  0  0  0  0  0  0  0  0
   45.6400   34.8420   42.1500 C   0  0  0  0  0  0  0  0  0  0  0  0
   47.0040   35.0650   42.3410 C   0  0  0  0  0  0  0  0  0  0  0  0
   47.8890   34.7550   41.3540 C   0  0  0  0  0  0  0  0  0  0  0  0
   47.4990   34.2220   40.1430 C   0  0  0  0  0  0  0  0  0  0  0  0
   46.1300   34.0060   39.9690 C   0  0  0  0  0  0  0  0  0  0  0  0
   44.9290   35.0850   42.9310 H   0  0  0  0  0  0  0  0  0  0  0  0
   47.3390   35.4800   43.2740 H   0  0  0  0  0  0  0  0  0  0  0  0
   48.9410   34.9430   41.5390 H   0  0  0  0  0  0  0  0  0  0  0  0
   48.1800   33.9730   39.3560 H   0  0  0  0  0  0  0  0  0  0  0  0
   41.5190   34.7540   40.3670 C   0  0  0  0  0  0  0  0  0  0  0  0
   42.8860   35.0800   40.4750 C   0  0  0  0  0  0  0  0  0  0  0  0
   43.7950   34.0990   40.7930 C   0  0  0  0  0  0  0  0  0  0  0  0
   43.3000   32.8510   40.9870 N   0  0  0  0  0  0  0  0  0  0  0  0
   41.9900   32.5440   40.8830 C   0  0  0  0  0  0  0  0  0  0  0  0
   41.0930   33.5030   40.5700 N   0  0  0  0  0  0  0  0  0  0  0  0
   43.2550   36.0870   40.3150 H   0  0  0  0  0  0  0  0  0  0  0  0
   41.7010   31.5090   41.0590 H   0  0  0  0  0  0  0  0  0  0  0  0
   40.5390   35.8060   40.0260 C   0  0  0  0  0  0  0  0  0  0  0  0
   39.3080   35.1680   39.7910 F   0  0  0  0  0  0  0  0  0  0  0  0
   40.9110   36.3060   38.7700 F   0  0  0  0  0  0  0  0  0  0  0  0
   40.4090   36.7740   40.9710 F   0  0  0  0  0  0  0  0  0  0  0  0
   45.4300   32.1830   38.2380 C   0  0  0  0  0  0  0  0  0  0  0  0
   45.7860   31.1370   38.7670 O   0  0  0  0  0  0  0  0  0  0  0  0
   45.5910   33.4760   38.7770 N   0  0  0  0  0  0  0  0  0  0  0  0
   45.2520   34.3190   38.2180 H   0  0  0  0  0  0  0  0  0  0  0  0
   44.8040   32.0870   36.9800 O   0  0  0  0  0  0  0  0  0  0  0  0
   46.2620   30.8860   35.0960 O   0  0  0  0  0  0  0  0  0  0  0  0
   45.8240   32.2360   35.6110 P   0  0  0  0  0  0  0  0  0  0  0  0
   44.8610   32.9460   34.3890 O   0  0  0  0  0  0  0  0  0  0  0  0
   44.2270   33.5760   34.8250 H   0  0  0  0  0  0  0  0  0  0  0  0
   47.1390   33.2350   35.8660 O   0  0  0  0  0  0  0  0  0  0  0  0
   47.9010   32.7300   36.2780 H   0  0  0  0  0  0  0  0  0  0  0  0
  1  2  1  0  0  0  0
  2  3  2  0  0  0  0
  2  7  1  0  0  0  0
  3  8  1  0  0  0  0
  4  9  1  0  0  0  0
  4  3  1  0  0  0  0
  5  4  2  0  0  0  0
  6  5  1  0  0  0  0
  6  1  2  0  0  0  0
 10  5  1  0  0  0  0
 11 12  2  0  0  0  0
 11 16  1  0  0  0  0
 12 13  1  0  0  0  0
 13  1  1  0  0  0  0
 13 14  2  0  0  0  0
 15 14  1  0  0  0  0
 15 18  1  0  0  0  0
 16 15  2  0  0  0  0
 17 12  1  0  0  0  0
 19 11  1  0  0  0  0
 19 22  1  0  0  0  0
 20 19  1  0  0  0  0
 21 19  1  0  0  0  0
 23 24  2  0  0  0  0
 23 25  1  0  0  0  0
 25  6  1  0  0  0  0
 26 25  1  0  0  0  0
 27 23  1  0  0  0  0
 28 29  2  0  0  0  0
 29 32  1  0  0  0  0
 29 27  1  0  0  0  0
 30 31  1  0  0  0  0
 30 29  1  0  0  0  0
 32 33  1  0  0  0  0
M  END
>  <minimizedAffinity>
-6.4973588

>  <minimizedRMSD>
0.375509143

$$$$
