
 OpenBabel03242519353D

 38 39  0  0  0  0  0  0  0  0999 V2000
   46.0450   33.3350   45.6010 C   0  0  0  0  0  0  0  0  0  0  0  0
   46.6380   32.9930   44.3960 C   0  0  0  0  0  0  0  0  0  0  0  0
   46.3440   33.7030   43.2470 C   0  0  0  0  0  0  0  0  0  0  0  0
   45.4430   34.7320   43.3860 N   0  0  0  0  0  0  0  0  0  0  0  0
   44.8650   35.0490   44.5780 C   0  0  0  0  0  0  0  0  0  0  0  0
   45.1630   34.3610   45.6700 N   0  0  0  0  0  0  0  0  0  0  0  0
   43.9190   36.1190   44.5860 N   0  0  0  0  0  0  0  0  0  0  0  0
   48.2390   32.7610   42.2590 C   0  0  0  0  0  0  0  0  0  0  0  0
   48.6240   32.5490   43.4320 O   0  0  0  0  0  0  0  0  0  0  0  0
   46.9600   33.4030   42.0110 N   0  0  0  0  0  0  0  0  0  0  0  0
   47.2430   32.1220   44.5610 H   0  0  0  0  0  0  0  0  0  0  0  0
   43.1150   35.8740   43.9390 H   0  0  0  0  0  0  0  0  0  0  0  0
   44.1490   36.9360   45.1940 H   0  0  0  0  0  0  0  0  0  0  0  0
   46.5420   33.6150   41.1050 H   0  0  0  0  0  0  0  0  0  0  0  0
   46.4720   32.5920   46.8260 C   0  0  0  0  0  0  0  0  0  0  0  0
   46.8350   31.1950   46.5070 C   0  0  0  0  0  0  0  0  0  0  0  0
   45.8310   30.2310   47.0700 C   0  0  0  0  0  0  0  0  0  0  0  0
   45.6250   30.3870   48.5600 C   0  0  0  0  0  0  0  0  0  0  0  0
   45.5790   31.8010   49.0120 C   0  0  0  0  0  0  0  0  0  0  0  0
   45.4140   32.7660   47.8630 C   0  0  0  0  0  0  0  0  0  0  0  0
   47.3930   33.1490   47.1720 H   0  0  0  0  0  0  0  0  0  0  0  0
   47.8050   30.9460   46.9850 H   0  0  0  0  0  0  0  0  0  0  0  0
   46.9420   30.9450   45.4470 H   0  0  0  0  0  0  0  0  0  0  0  0
   44.8730   30.3190   46.5270 H   0  0  0  0  0  0  0  0  0  0  0  0
   46.2350   29.2070   46.8640 H   0  0  0  0  0  0  0  0  0  0  0  0
   46.4460   29.8080   49.0510 H   0  0  0  0  0  0  0  0  0  0  0  0
   44.6770   29.8600   48.7970 H   0  0  0  0  0  0  0  0  0  0  0  0
   46.5830   32.0440   49.4680 H   0  0  0  0  0  0  0  0  0  0  0  0
   44.7800   32.0030   49.7510 H   0  0  0  0  0  0  0  0  0  0  0  0
   45.4210   33.7740   48.3000 H   0  0  0  0  0  0  0  0  0  0  0  0
   44.4360   32.5670   47.3570 H   0  0  0  0  0  0  0  0  0  0  0  0
   48.9800   32.4110   41.0550 O   0  0  0  0  0  0  0  0  0  0  0  0
   47.0910   32.7780   39.2370 O   0  0  0  0  0  0  0  0  0  0  0  0
   48.4970   33.1840   39.5790 P   0  0  0  0  0  0  0  0  0  0  0  0
   49.5910   32.7320   38.3710 O   0  0  0  0  0  0  0  0  0  0  0  0
   49.9400   31.8210   38.5080 H   0  0  0  0  0  0  0  0  0  0  0  0
   48.4860   34.8710   39.7860 O   0  0  0  0  0  0  0  0  0  0  0  0
   49.4060   35.2320   39.8460 H   0  0  0  0  0  0  0  0  0  0  0  0
  1  6  1  0  0  0  0
  1 15  1  0  0  0  0
  2 11  1  0  0  0  0
  2  1  2  0  0  0  0
  3  4  2  0  0  0  0
  3  2  1  0  0  0  0
  4  5  1  0  0  0  0
  5  7  1  0  0  0  0
  5  6  2  0  0  0  0
  7 13  1  0  0  0  0
  8  9  2  0  0  0  0
 10  8  1  0  0  0  0
 10  3  1  0  0  0  0
 12  7  1  0  0  0  0
 14 10  1  0  0  0  0
 15 21  1  0  0  0  0
 15 20  1  0  0  0  0
 16 15  1  0  0  0  0
 16 22  1  0  0  0  0
 16 17  1  0  0  0  0
 17 18  1  0  0  0  0
 18 27  1  0  0  0  0
 18 19  1  0  0  0  0
 18 26  1  0  0  0  0
 19 28  1  0  0  0  0
 19 29  1  0  0  0  0
 20 30  1  0  0  0  0
 20 19  1  0  0  0  0
 23 16  1  0  0  0  0
 24 17  1  0  0  0  0
 25 17  1  0  0  0  0
 31 20  1  0  0  0  0
 32  8  1  0  0  0  0
 33 34  2  0  0  0  0
 34 37  1  0  0  0  0
 34 32  1  0  0  0  0
 35 36  1  0  0  0  0
 35 34  1  0  0  0  0
 37 38  1  0  0  0  0
M  END
>  <minimizedAffinity>
-5.93168974

>  <minimizedRMSD>
1.56489992

$$$$
