
 OpenBabel03242523553D

 43 45  0  0  1  0  0  0  0  0999 V2000
   42.7960   34.4700   38.7150 C   0  0  1  0  0  0  0  0  0  0  0  0
   43.0010   35.1670   40.0510 C   0  0  1  0  0  0  0  0  0  0  0  0
   41.7340   35.4580   40.5970 O   0  0  0  0  0  0  0  0  0  0  0  0
   40.7980   35.8100   39.6230 C   0  0  0  0  0  0  0  0  0  0  0  0
   40.4210   34.6400   38.7430 C   0  0  2  0  0  0  0  0  0  0  0  0
   41.5930   33.5990   38.8670 C   0  0  1  0  0  0  0  0  0  0  0  0
   43.7120   33.8810   38.4390 H   0  0  0  0  0  0  0  0  0  0  0  0
   43.6250   36.0610   39.9800 H   0  0  0  0  0  0  0  0  0  0  0  0
   41.1150   36.6960   39.0420 H   0  0  0  0  0  0  0  0  0  0  0  0
   39.8920   36.0920   40.1880 H   0  0  0  0  0  0  0  0  0  0  0  0
   39.4870   34.1300   39.0470 H   0  0  0  0  0  0  0  0  0  0  0  0
   41.3960   33.3640   39.9640 H   0  0  0  0  0  0  0  0  0  0  0  0
   42.5950   35.4080   37.6930 O   0  0  0  0  0  0  0  0  0  0  0  0
   42.7300   34.9670   36.8350 H   0  0  0  0  0  0  0  0  0  0  0  0
   40.4180   35.0270   37.4140 O   0  0  0  0  0  0  0  0  0  0  0  0
   39.6740   34.5710   36.9210 H   0  0  0  0  0  0  0  0  0  0  0  0
   43.5060   34.1780   40.9100 O   0  0  0  0  0  0  0  0  0  0  0  0
   44.6000   34.3050   41.6670 C   0  0  0  0  0  0  0  0  0  0  0  0
   45.8650   34.4250   41.0970 C   0  0  0  0  0  0  0  0  0  0  0  0
   46.9750   34.5550   41.9090 C   0  0  0  0  0  0  0  0  0  0  0  0
   46.7990   34.5620   43.2760 N   0  0  0  0  0  0  0  0  0  0  0  0
   45.5540   34.4430   43.8080 C   0  0  0  0  0  0  0  0  0  0  0  0
   44.4660   34.3160   43.0050 N   0  0  0  0  0  0  0  0  0  0  0  0
   46.0150   34.4210   40.0310 H   0  0  0  0  0  0  0  0  0  0  0  0
   45.4210   34.4490   44.8920 H   0  0  0  0  0  0  0  0  0  0  0  0
   48.3600   34.6690   41.3490 C   0  0  0  0  0  0  0  0  0  0  0  0
   49.0570   36.0160   41.5210 C   0  0  0  0  0  0  0  0  0  0  0  0
   49.4950   34.7090   42.2190 C   0  0  0  0  0  0  0  0  0  0  0  0
   48.4140   34.3460   40.2750 H   0  0  0  0  0  0  0  0  0  0  0  0
   48.5260   36.7560   42.1670 H   0  0  0  0  0  0  0  0  0  0  0  0
   49.7610   36.3770   40.7710 H   0  0  0  0  0  0  0  0  0  0  0  0
   50.4720   34.2970   41.9340 H   0  0  0  0  0  0  0  0  0  0  0  0
   49.3140   34.6520   43.3160 H   0  0  0  0  0  0  0  0  0  0  0  0
   41.3910   32.6510   37.9390 O   0  0  0  0  0  0  0  0  0  0  0  0
   40.5480   31.5910   37.9780 C   0  0  0  0  0  0  0  0  0  0  0  0
   39.3400   31.6660   37.4830 O   0  0  0  0  0  0  0  0  0  0  0  0
   40.3910   30.2590   38.3750 O   0  0  0  0  0  0  0  0  0  0  0  0
   40.1040   27.6880   37.9910 O   0  0  0  0  0  0  0  0  0  0  0  0
   40.0760   29.0140   37.2390 P   0  0  0  0  0  0  0  0  0  0  0  0
   41.0920   29.0450   35.9200 O   0  0  0  0  0  0  0  0  0  0  0  0
   41.3230   28.1300   35.5800 H   0  0  0  0  0  0  0  0  0  0  0  0
   38.4550   29.1700   36.7050 O   0  0  0  0  0  0  0  0  0  0  0  0
   37.8250   29.0070   37.4510 H   0  0  0  0  0  0  0  0  0  0  0  0
  1  7  1  6  0  0  0
  1  6  1  0  0  0  0
  1  2  1  0  0  0  0
  2  8  1  6  0  0  0
  2  3  1  0  0  0  0
  2 17  1  0  0  0  0
  4 10  1  0  0  0  0
  4  3  1  0  0  0  0
  5  6  1  0  0  0  0
  5 11  1  1  0  0  0
  5  4  1  0  0  0  0
  6 12  1  1  0  0  0
  9  4  1  0  0  0  0
 13  1  1  0  0  0  0
 14 13  1  0  0  0  0
 15  5  1  0  0  0  0
 16 15  1  0  0  0  0
 17 18  1  0  0  0  0
 18 23  1  0  0  0  0
 19 18  2  0  0  0  0
 19 20  1  0  0  0  0
 20 21  2  0  0  0  0
 21 22  1  0  0  0  0
 22 25  1  0  0  0  0
 23 22  2  0  0  0  0
 24 19  1  0  0  0  0
 26 27  1  0  0  0  0
 26 20  1  0  0  0  0
 26 28  1  0  0  0  0
 27 30  1  0  0  0  0
 27 28  1  0  0  0  0
 28 33  1  0  0  0  0
 29 26  1  0  0  0  0
 31 27  1  0  0  0  0
 32 28  1  0  0  0  0
 34 35  1  0  0  0  0
 34  6  1  0  0  0  0
 35 37  1  0  0  0  0
 36 35  2  0  0  0  0
 39 38  2  0  0  0  0
 39 37  1  0  0  0  0
 40 39  1  0  0  0  0
 41 40  1  0  0  0  0
 42 39  1  0  0  0  0
 42 43  1  0  0  0  0
M  END
>  <minimizedAffinity>
-5.47295094

>  <minimizedRMSD>
0.291731328

$$$$
