
 OpenBabel03242514343D

 24 24  0  0  0  0  0  0  0  0999 V2000
   49.6650   35.1770   42.8000 O   0  0  0  0  0  0  0  0  0  0  0  0
   49.0260   34.2310   41.8570 P   0  0  1  0  0  0  0  0  0  0  0  0
   50.1870   33.1220   41.3640 O   0  0  0  0  0  0  0  0  0  0  0  0
   49.9710   32.2440   41.7530 H   0  0  0  0  0  0  0  0  0  0  0  0
   47.7120   33.4130   42.6250 O   0  0  0  0  0  0  0  0  0  0  0  0
   46.1800   35.2500   42.6540 C   0  0  0  0  0  0  0  0  0  0  0  0
   46.7150   34.1360   43.2800 C   0  0  0  0  0  0  0  0  0  0  0  0
   46.2310   33.7860   44.5430 C   0  0  0  0  0  0  0  0  0  0  0  0
   45.2510   34.5670   45.0910 N   0  0  0  0  0  0  0  0  0  0  0  0
   44.7570   35.6340   44.4580 C   0  0  0  0  0  0  0  0  0  0  0  0
   45.2190   35.9690   43.2530 N   0  0  0  0  0  0  0  0  0  0  0  0
   46.4860   35.6030   41.6780 H   0  0  0  0  0  0  0  0  0  0  0  0
   46.6410   32.9210   45.0380 H   0  0  0  0  0  0  0  0  0  0  0  0
   43.9840   36.1840   44.9810 H   0  0  0  0  0  0  0  0  0  0  0  0
   48.4660   35.0620   40.5300 O   0  0  0  0  0  0  0  0  0  0  0  0
   48.0560   34.5340   39.3520 C   0  0  0  0  0  0  0  0  0  0  0  0
   47.0200   33.7840   39.5050 O   0  0  0  0  0  0  0  0  0  0  0  0
   48.0740   34.2940   37.9830 O   0  0  0  0  0  0  0  0  0  0  0  0
   48.2310   31.6750   37.3730 O   0  0  0  0  0  0  0  0  0  0  0  0
   48.8400   33.0240   37.1890 P   0  0  0  0  0  0  0  0  0  0  0  0
   50.5020   32.9490   37.5300 O   0  0  0  0  0  0  0  0  0  0  0  0
   50.9480   33.6410   36.9840 H   0  0  0  0  0  0  0  0  0  0  0  0
   48.7330   33.3860   35.5170 O   0  0  0  0  0  0  0  0  0  0  0  0
   49.0600   34.3160   35.4270 H   0  0  0  0  0  0  0  0  0  0  0  0
  2  5  1  0  0  0  0
  2  1  2  1  0  0  0
  3  4  1  0  0  0  0
  3  2  1  0  0  0  0
  5  7  1  0  0  0  0
  6 11  2  0  0  0  0
  6  7  1  0  0  0  0
  7  8  2  0  0  0  0
  8 13  1  0  0  0  0
  8  9  1  0  0  0  0
 10 14  1  0  0  0  0
 10  9  2  0  0  0  0
 11 10  1  0  0  0  0
 12  6  1  0  0  0  0
 15  2  1  0  0  0  0
 16 17  2  0  0  0  0
 16 15  1  0  0  0  0
 18 16  1  0  0  0  0
 20 19  2  0  0  0  0
 20 21  1  0  0  0  0
 20 18  1  0  0  0  0
 22 21  1  0  0  0  0
 23 20  1  0  0  0  0
 24 23  1  0  0  0  0
M  END
>  <minimizedAffinity>
-4.72962618

>  <minimizedRMSD>
0.631203592

$$$$
