
 OpenBabel03242523563D

 43 45  0  0  1  0  0  0  0  0999 V2000
   37.6430   32.2360   40.6630 C   0  0  1  0  0  0  0  0  0  0  0  0
   37.0790   30.8680   41.0190 C   0  0  1  0  0  0  0  0  0  0  0  0
   37.0670   30.0770   39.8520 O   0  0  0  0  0  0  0  0  0  0  0  0
   36.7680   30.8160   38.7060 C   0  0  0  0  0  0  0  0  0  0  0  0
   37.8760   31.7770   38.3390 C   0  0  2  0  0  0  0  0  0  0  0  0
   38.7140   32.0050   39.6490 C   0  0  1  0  0  0  0  0  0  0  0  0
   38.0350   32.7450   41.5850 H   0  0  0  0  0  0  0  0  0  0  0  0
   36.0910   30.9160   41.4830 H   0  0  0  0  0  0  0  0  0  0  0  0
   35.7810   31.3100   38.7750 H   0  0  0  0  0  0  0  0  0  0  0  0
   36.7070   30.0700   37.8950 H   0  0  0  0  0  0  0  0  0  0  0  0
   38.5660   31.3930   37.5630 H   0  0  0  0  0  0  0  0  0  0  0  0
   39.1020   30.9360   39.7020 H   0  0  0  0  0  0  0  0  0  0  0  0
   36.6410   33.0630   40.1390 O   0  0  0  0  0  0  0  0  0  0  0  0
   36.9520   33.9850   40.1680 H   0  0  0  0  0  0  0  0  0  0  0  0
   37.3450   33.0160   38.0260 O   0  0  0  0  0  0  0  0  0  0  0  0
   37.8590   33.4340   37.2740 H   0  0  0  0  0  0  0  0  0  0  0  0
   38.0610   30.2590   41.8160 O   0  0  0  0  0  0  0  0  0  0  0  0
   38.0040   29.0070   42.2810 C   0  0  0  0  0  0  0  0  0  0  0  0
   39.0750   28.1300   42.1330 C   0  0  0  0  0  0  0  0  0  0  0  0
   38.9820   26.8440   42.6250 C   0  0  0  0  0  0  0  0  0  0  0  0
   37.8200   26.4570   43.2580 N   0  0  0  0  0  0  0  0  0  0  0  0
   36.7880   27.3320   43.3900 C   0  0  0  0  0  0  0  0  0  0  0  0
   36.8840   28.5970   42.9030 N   0  0  0  0  0  0  0  0  0  0  0  0
   39.9880   28.4190   41.6410 H   0  0  0  0  0  0  0  0  0  0  0  0
   35.8700   27.0210   43.8910 H   0  0  0  0  0  0  0  0  0  0  0  0
   40.0970   25.8530   42.4770 C   0  0  0  0  0  0  0  0  0  0  0  0
   39.7840   24.4110   42.8650 C   0  0  0  0  0  0  0  0  0  0  0  0
   40.0740   24.8850   41.4230 C   0  0  0  0  0  0  0  0  0  0  0  0
   41.0380   26.1900   42.9880 H   0  0  0  0  0  0  0  0  0  0  0  0
   38.7140   24.1930   43.0980 H   0  0  0  0  0  0  0  0  0  0  0  0
   40.5580   23.7680   43.2860 H   0  0  0  0  0  0  0  0  0  0  0  0
   40.9900   24.5060   40.9510 H   0  0  0  0  0  0  0  0  0  0  0  0
   39.2080   24.8950   40.7250 H   0  0  0  0  0  0  0  0  0  0  0  0
   39.5700   33.0110   39.4110 O   0  0  0  0  0  0  0  0  0  0  0  0
   40.9130   33.0430   39.5950 C   0  0  0  0  0  0  0  0  0  0  0  0
   41.4330   33.3970   40.7410 O   0  0  0  0  0  0  0  0  0  0  0  0
   42.1600   32.8280   39.0010 O   0  0  0  0  0  0  0  0  0  0  0  0
   43.2900   31.5670   37.0080 O   0  0  0  0  0  0  0  0  0  0  0  0
   42.3410   32.7240   37.3010 P   0  0  0  0  0  0  0  0  0  0  0  0
   42.8110   34.1560   36.5920 O   0  0  0  0  0  0  0  0  0  0  0  0
   43.4300   34.0250   35.8130 H   0  0  0  0  0  0  0  0  0  0  0  0
   40.8440   32.2290   36.6290 O   0  0  0  0  0  0  0  0  0  0  0  0
   40.6150   31.3110   36.9230 H   0  0  0  0  0  0  0  0  0  0  0  0
  1  2  1  0  0  0  0
  1  7  1  1  0  0  0
  2  8  1  1  0  0  0
  2 17  1  0  0  0  0
  3  2  1  0  0  0  0
  4  9  1  0  0  0  0
  4  3  1  0  0  0  0
  5 11  1  6  0  0  0
  5  4  1  0  0  0  0
  5  6  1  0  0  0  0
  6 12  1  1  0  0  0
  6  1  1  0  0  0  0
 10  4  1  0  0  0  0
 13 14  1  0  0  0  0
 13  1  1  0  0  0  0
 15  5  1  0  0  0  0
 16 15  1  0  0  0  0
 17 18  1  0  0  0  0
 18 23  1  0  0  0  0
 19 18  2  0  0  0  0
 19 20  1  0  0  0  0
 20 21  2  0  0  0  0
 21 22  1  0  0  0  0
 22 25  1  0  0  0  0
 23 22  2  0  0  0  0
 24 19  1  0  0  0  0
 26 20  1  0  0  0  0
 26 27  1  0  0  0  0
 26 29  1  0  0  0  0
 27 30  1  0  0  0  0
 27 31  1  0  0  0  0
 28 26  1  0  0  0  0
 28 27  1  0  0  0  0
 32 28  1  0  0  0  0
 33 28  1  0  0  0  0
 34 35  1  0  0  0  0
 34  6  1  0  0  0  0
 35 36  2  0  0  0  0
 37 35  1  0  0  0  0
 38 39  2  0  0  0  0
 39 37  1  0  0  0  0
 40 39  1  0  0  0  0
 41 40  1  0  0  0  0
 42 43  1  0  0  0  0
 42 39  1  0  0  0  0
M  END
>  <minimizedAffinity>
-6.18406534

$$$$

 OpenBabel03242523563D

 43 45  0  0  1  0  0  0  0  0999 V2000
   37.1170   30.2690   41.3210 C   0  0  1  0  0  0  0  0  0  0  0  0
   36.7250   28.8590   40.9030 C   0  0  1  0  0  0  0  0  0  0  0  0
   36.6930   28.8090   39.4950 O   0  0  0  0  0  0  0  0  0  0  0  0
   36.2250   29.9940   38.9250 C   0  0  0  0  0  0  0  0  0  0  0  0
   37.1960   31.1380   39.1060 C   0  0  2  0  0  0  0  0  0  0  0  0
   38.1160   30.7490   40.3200 C   0  0  1  0  0  0  0  0  0  0  0  0
   37.5340   30.2620   42.3650 H   0  0  0  0  0  0  0  0  0  0  0  0
   35.7800   28.5270   41.3400 H   0  0  0  0  0  0  0  0  0  0  0  0
   35.2030   30.2440   39.2660 H   0  0  0  0  0  0  0  0  0  0  0  0
   36.1700   29.7870   37.8420 H   0  0  0  0  0  0  0  0  0  0  0  0
   37.8520   31.3150   38.2330 H   0  0  0  0  0  0  0  0  0  0  0  0
   38.6120   29.8730   39.7880 H   0  0  0  0  0  0  0  0  0  0  0  0
   35.9970   31.1100   41.3380 O   0  0  0  0  0  0  0  0  0  0  0  0
   36.2160   31.9090   41.8490 H   0  0  0  0  0  0  0  0  0  0  0  0
   36.5200   32.2750   39.5130 O   0  0  0  0  0  0  0  0  0  0  0  0
   36.9240   33.0890   39.0910 H   0  0  0  0  0  0  0  0  0  0  0  0
   37.8270   28.0550   41.2330 O   0  0  0  0  0  0  0  0  0  0  0  0
   37.7920   26.7280   41.3800 C   0  0  0  0  0  0  0  0  0  0  0  0
   36.8490   25.9500   40.7140 C   0  0  0  0  0  0  0  0  0  0  0  0
   36.8410   24.5800   40.8890 C   0  0  0  0  0  0  0  0  0  0  0  0
   37.7780   24.0120   41.7260 N   0  0  0  0  0  0  0  0  0  0  0  0
   38.6880   24.7930   42.3660 C   0  0  0  0  0  0  0  0  0  0  0  0
   38.6910   26.1410   42.1910 N   0  0  0  0  0  0  0  0  0  0  0  0
   36.1120   26.3810   40.0580 H   0  0  0  0  0  0  0  0  0  0  0  0
   39.4280   24.3390   43.0280 H   0  0  0  0  0  0  0  0  0  0  0  0
   35.8370   23.6980   40.2120 C   0  0  0  0  0  0  0  0  0  0  0  0
   35.5690   23.9780   38.7350 C   0  0  0  0  0  0  0  0  0  0  0  0
   36.2580   22.7030   39.2720 C   0  0  0  0  0  0  0  0  0  0  0  0
   34.8660   23.6480   40.7730 H   0  0  0  0  0  0  0  0  0  0  0  0
   36.2420   24.7270   38.2550 H   0  0  0  0  0  0  0  0  0  0  0  0
   34.5820   23.8030   38.3070 H   0  0  0  0  0  0  0  0  0  0  0  0
   35.7220   21.7550   39.1380 H   0  0  0  0  0  0  0  0  0  0  0  0
   37.3470   22.6090   39.0670 H   0  0  0  0  0  0  0  0  0  0  0  0
   38.8440   31.8300   40.6400 O   0  0  0  0  0  0  0  0  0  0  0  0
   39.7230   32.5180   39.8720 C   0  0  0  0  0  0  0  0  0  0  0  0
   39.4580   33.7290   39.4550 O   0  0  0  0  0  0  0  0  0  0  0  0
   40.9720   32.4870   39.2450 O   0  0  0  0  0  0  0  0  0  0  0  0
   41.5760   30.8790   37.2720 O   0  0  0  0  0  0  0  0  0  0  0  0
   41.1230   32.3090   37.5480 P   0  0  0  0  0  0  0  0  0  0  0  0
   42.1020   33.4570   36.8420 O   0  0  0  0  0  0  0  0  0  0  0  0
   42.6380   33.0980   36.0730 H   0  0  0  0  0  0  0  0  0  0  0  0
   39.5590   32.4020   36.8540 O   0  0  0  0  0  0  0  0  0  0  0  0
   39.0000   31.6380   37.1480 H   0  0  0  0  0  0  0  0  0  0  0  0
  1 13  1  0  0  0  0
  1  7  1  1  0  0  0
  2 17  1  0  0  0  0
  2  1  1  0  0  0  0
  2  8  1  1  0  0  0
  3  2  1  0  0  0  0
  4  5  1  0  0  0  0
  4  9  1  0  0  0  0
  4  3  1  0  0  0  0
  5 11  1  6  0  0  0
  5 15  1  0  0  0  0
  5  6  1  0  0  0  0
  6 12  1  6  0  0  0
  6 34  1  0  0  0  0
  6  1  1  0  0  0  0
 10  4  1  0  0  0  0
 13 14  1  0  0  0  0
 16 15  1  0  0  0  0
 17 18  1  0  0  0  0
 18 23  1  0  0  0  0
 19 20  1  0  0  0  0
 19 18  2  0  0  0  0
 20 21  2  0  0  0  0
 21 22  1  0  0  0  0
 22 25  1  0  0  0  0
 23 22  2  0  0  0  0
 24 19  1  0  0  0  0
 26 29  1  0  0  0  0
 26 20  1  0  0  0  0
 27 28  1  0  0  0  0
 27 26  1  0  0  0  0
 28 26  1  0  0  0  0
 30 27  1  0  0  0  0
 31 27  1  0  0  0  0
 32 28  1  0  0  0  0
 33 28  1  0  0  0  0
 35 34  1  0  0  0  0
 36 35  2  0  0  0  0
 37 35  1  0  0  0  0
 38 39  2  0  0  0  0
 39 37  1  0  0  0  0
 40 39  1  0  0  0  0
 41 40  1  0  0  0  0
 42 43  1  0  0  0  0
 42 39  1  0  0  0  0
M  END
>  <minimizedAffinity>
-6.04530668

$$$$

 OpenBabel03242523563D

 43 45  0  0  1  0  0  0  0  0999 V2000
   37.7380   31.4190   40.7000 C   0  0  1  0  0  0  0  0  0  0  0  0
   37.4480   30.0080   40.2120 C   0  0  1  0  0  0  0  0  0  0  0  0
   37.4990   30.0080   38.8030 O   0  0  0  0  0  0  0  0  0  0  0  0
   37.0000   31.1880   38.2480 C   0  0  0  0  0  0  0  0  0  0  0  0
   37.8950   32.3740   38.5250 C   0  0  2  0  0  0  0  0  0  0  0  0
   38.7640   31.9880   39.7760 C   0  0  1  0  0  0  0  0  0  0  0  0
   38.0940   31.3950   41.7650 H   0  0  0  0  0  0  0  0  0  0  0  0
   36.4990   29.6100   40.5810 H   0  0  0  0  0  0  0  0  0  0  0  0
   35.9470   31.3710   38.5370 H   0  0  0  0  0  0  0  0  0  0  0  0
   37.0170   31.0190   37.1570 H   0  0  0  0  0  0  0  0  0  0  0  0
   38.5890   32.6170   37.6980 H   0  0  0  0  0  0  0  0  0  0  0  0
   39.3360   31.1610   39.2440 H   0  0  0  0  0  0  0  0  0  0  0  0
   36.5740   32.1990   40.6800 O   0  0  0  0  0  0  0  0  0  0  0  0
   36.7200   32.9890   41.2300 H   0  0  0  0  0  0  0  0  0  0  0  0
   37.1350   33.4580   38.9300 O   0  0  0  0  0  0  0  0  0  0  0  0
   37.5170   34.3070   38.5610 H   0  0  0  0  0  0  0  0  0  0  0  0
   38.5720   29.2510   40.5780 O   0  0  0  0  0  0  0  0  0  0  0  0
   38.5670   28.2470   41.4600 C   0  0  0  0  0  0  0  0  0  0  0  0
   37.8390   27.0830   41.2290 C   0  0  0  0  0  0  0  0  0  0  0  0
   37.8560   26.0650   42.1620 C   0  0  0  0  0  0  0  0  0  0  0  0
   38.6020   26.2300   43.3100 N   0  0  0  0  0  0  0  0  0  0  0  0
   39.3040   27.3760   43.5130 C   0  0  0  0  0  0  0  0  0  0  0  0
   39.2830   28.3750   42.5910 N   0  0  0  0  0  0  0  0  0  0  0  0
   37.2520   26.9420   40.3370 H   0  0  0  0  0  0  0  0  0  0  0  0
   39.8930   27.5020   44.4230 H   0  0  0  0  0  0  0  0  0  0  0  0
   37.0760   24.8000   41.9720 C   0  0  0  0  0  0  0  0  0  0  0  0
   36.6100   24.4920   40.5520 C   0  0  0  0  0  0  0  0  0  0  0  0
   37.6680   23.6710   41.3210 C   0  0  0  0  0  0  0  0  0  0  0  0
   36.2120   24.7210   42.6830 H   0  0  0  0  0  0  0  0  0  0  0  0
   37.0050   25.1680   39.7560 H   0  0  0  0  0  0  0  0  0  0  0  0
   35.6750   23.9600   40.3780 H   0  0  0  0  0  0  0  0  0  0  0  0
   37.4040   22.6370   41.5780 H   0  0  0  0  0  0  0  0  0  0  0  0
   38.7190   23.7660   40.9660 H   0  0  0  0  0  0  0  0  0  0  0  0
   39.4130   33.0930   40.1750 O   0  0  0  0  0  0  0  0  0  0  0  0
   40.7290   33.3940   40.0550 C   0  0  0  0  0  0  0  0  0  0  0  0
   41.6270   32.8230   40.8140 O   0  0  0  0  0  0  0  0  0  0  0  0
   41.6750   34.1610   39.3690 O   0  0  0  0  0  0  0  0  0  0  0  0
   44.1090   33.5810   38.6080 O   0  0  0  0  0  0  0  0  0  0  0  0
   42.6600   33.4860   38.1410 P   0  0  0  0  0  0  0  0  0  0  0  0
   42.4090   34.1610   36.6390 O   0  0  0  0  0  0  0  0  0  0  0  0
   43.2470   34.2320   36.0930 H   0  0  0  0  0  0  0  0  0  0  0  0
   42.3460   31.8040   38.0610 O   0  0  0  0  0  0  0  0  0  0  0  0
   42.6290   31.3550   38.8970 H   0  0  0  0  0  0  0  0  0  0  0  0
  1  7  1  1  0  0  0
  2 17  1  0  0  0  0
  2  8  1  1  0  0  0
  2  1  1  0  0  0  0
  3  2  1  0  0  0  0
  4  5  1  0  0  0  0
  4  9  1  0  0  0  0
  4  3  1  0  0  0  0
  5 11  1  6  0  0  0
  5 15  1  0  0  0  0
  5  6  1  0  0  0  0
  6 12  1  6  0  0  0
  6 34  1  0  0  0  0
  6  1  1  0  0  0  0
 10  4  1  0  0  0  0
 13  1  1  0  0  0  0
 13 14  1  0  0  0  0
 16 15  1  0  0  0  0
 17 18  1  0  0  0  0
 18 23  1  0  0  0  0
 19 18  2  0  0  0  0
 19 20  1  0  0  0  0
 20 21  2  0  0  0  0
 21 22  1  0  0  0  0
 22 25  1  0  0  0  0
 23 22  2  0  0  0  0
 24 19  1  0  0  0  0
 26 20  1  0  0  0  0
 26 29  1  0  0  0  0
 27 28  1  0  0  0  0
 27 26  1  0  0  0  0
 28 32  1  0  0  0  0
 28 26  1  0  0  0  0
 30 27  1  0  0  0  0
 31 27  1  0  0  0  0
 33 28  1  0  0  0  0
 35 34  1  0  0  0  0
 35 36  2  0  0  0  0
 37 35  1  0  0  0  0
 39 38  2  0  0  0  0
 39 37  1  0  0  0  0
 40 39  1  0  0  0  0
 41 40  1  0  0  0  0
 42 39  1  0  0  0  0
 42 43  1  0  0  0  0
M  END
>  <minimizedAffinity>
-5.91583776

$$$$

 OpenBabel03242523563D

 43 45  0  0  1  0  0  0  0  0999 V2000
   37.6340   29.2310   41.8740 C   0  0  1  0  0  0  0  0  0  0  0  0
   37.2760   27.7970   41.5130 C   0  0  1  0  0  0  0  0  0  0  0  0
   36.3220   27.8280   40.4750 O   0  0  0  0  0  0  0  0  0  0  0  0
   35.4270   28.8920   40.5990 C   0  0  0  0  0  0  0  0  0  0  0  0
   36.0900   30.2290   40.3610 C   0  0  2  0  0  0  0  0  0  0  0  0
   37.6280   30.0070   40.5980 C   0  0  1  0  0  0  0  0  0  0  0  0
   38.6350   29.2640   42.3850 H   0  0  0  0  0  0  0  0  0  0  0  0
   36.9240   27.2120   42.3660 H   0  0  0  0  0  0  0  0  0  0  0  0
   34.8690   28.8570   41.5540 H   0  0  0  0  0  0  0  0  0  0  0  0
   34.6960   28.7450   39.7850 H   0  0  0  0  0  0  0  0  0  0  0  0
   35.9630   30.6180   39.3330 H   0  0  0  0  0  0  0  0  0  0  0  0
   37.7650   29.3180   39.7020 H   0  0  0  0  0  0  0  0  0  0  0  0
   36.7020   29.7620   42.7750 O   0  0  0  0  0  0  0  0  0  0  0  0
   37.0850   30.5580   43.1860 H   0  0  0  0  0  0  0  0  0  0  0  0
   35.6990   31.1330   41.3330 O   0  0  0  0  0  0  0  0  0  0  0  0
   35.5950   32.0470   40.9360 H   0  0  0  0  0  0  0  0  0  0  0  0
   38.4200   27.2760   40.8890 O   0  0  0  0  0  0  0  0  0  0  0  0
   39.3500   26.5290   41.4930 C   0  0  0  0  0  0  0  0  0  0  0  0
   40.7050   26.8310   41.3810 C   0  0  0  0  0  0  0  0  0  0  0  0
   41.6390   26.0380   42.0180 C   0  0  0  0  0  0  0  0  0  0  0  0
   41.2010   24.9580   42.7550 N   0  0  0  0  0  0  0  0  0  0  0  0
   39.8730   24.6840   42.8480 C   0  0  0  0  0  0  0  0  0  0  0  0
   38.9580   25.4670   42.2190 N   0  0  0  0  0  0  0  0  0  0  0  0
   41.0590   27.6700   40.8090 H   0  0  0  0  0  0  0  0  0  0  0  0
   39.5320   23.8280   43.4330 H   0  0  0  0  0  0  0  0  0  0  0  0
   43.1100   26.3050   41.9170 C   0  0  0  0  0  0  0  0  0  0  0  0
   43.8670   25.5480   40.8290 C   0  0  0  0  0  0  0  0  0  0  0  0
   43.6360   27.0760   40.8310 C   0  0  0  0  0  0  0  0  0  0  0  0
   43.6340   26.1850   42.9010 H   0  0  0  0  0  0  0  0  0  0  0  0
   43.2370   24.9630   40.1180 H   0  0  0  0  0  0  0  0  0  0  0  0
   44.9070   25.2560   40.9770 H   0  0  0  0  0  0  0  0  0  0  0  0
   44.5240   27.7130   40.9360 H   0  0  0  0  0  0  0  0  0  0  0  0
   42.9200   27.4660   40.0740 H   0  0  0  0  0  0  0  0  0  0  0  0
   38.2150   31.2140   40.6040 O   0  0  0  0  0  0  0  0  0  0  0  0
   39.1480   31.7070   39.7540 C   0  0  0  0  0  0  0  0  0  0  0  0
   39.0450   32.9120   39.2580 O   0  0  0  0  0  0  0  0  0  0  0  0
   40.3480   31.4450   39.0850 O   0  0  0  0  0  0  0  0  0  0  0  0
   41.6830   31.2460   36.8450 O   0  0  0  0  0  0  0  0  0  0  0  0
   40.7130   32.1680   37.5750 P   0  0  0  0  0  0  0  0  0  0  0  0
   41.2650   33.7350   37.7040 O   0  0  0  0  0  0  0  0  0  0  0  0
   41.9650   33.9630   37.0220 H   0  0  0  0  0  0  0  0  0  0  0  0
   39.2970   32.1490   36.6110 O   0  0  0  0  0  0  0  0  0  0  0  0
   39.0320   31.2200   36.3970 H   0  0  0  0  0  0  0  0  0  0  0  0
  1  7  1  1  0  0  0
  1 13  1  0  0  0  0
  2  1  1  0  0  0  0
  2  8  1  1  0  0  0
  3  4  1  0  0  0  0
  3  2  1  0  0  0  0
  4  9  1  0  0  0  0
  5 11  1  6  0  0  0
  5  6  1  0  0  0  0
  5  4  1  0  0  0  0
  5 15  1  0  0  0  0
  6 12  1  6  0  0  0
  6 34  1  0  0  0  0
  6  1  1  0  0  0  0
 10  4  1  0  0  0  0
 13 14  1  0  0  0  0
 16 15  1  0  0  0  0
 17 18  1  0  0  0  0
 17  2  1  0  0  0  0
 18 23  1  0  0  0  0
 19 18  2  0  0  0  0
 19 20  1  0  0  0  0
 20 21  2  0  0  0  0
 21 22  1  0  0  0  0
 22 25  1  0  0  0  0
 23 22  2  0  0  0  0
 24 19  1  0  0  0  0
 26 20  1  0  0  0  0
 26 29  1  0  0  0  0
 27 28  1  0  0  0  0
 27 31  1  0  0  0  0
 27 26  1  0  0  0  0
 28 32  1  0  0  0  0
 28 26  1  0  0  0  0
 30 27  1  0  0  0  0
 33 28  1  0  0  0  0
 35 34  1  0  0  0  0
 36 35  2  0  0  0  0
 37 35  1  0  0  0  0
 38 39  2  0  0  0  0
 39 40  1  0  0  0  0
 39 37  1  0  0  0  0
 41 40  1  0  0  0  0
 42 39  1  0  0  0  0
 43 42  1  0  0  0  0
M  END
>  <minimizedAffinity>
-5.81670237

$$$$

 OpenBabel03242523563D

 43 45  0  0  1  0  0  0  0  0999 V2000
   39.5470   30.9080   40.2280 C   0  0  1  0  0  0  0  0  0  0  0  0
   40.4460   30.7770   41.4490 C   0  0  1  0  0  0  0  0  0  0  0  0
   41.0030   32.0420   41.7240 O   0  0  0  0  0  0  0  0  0  0  0  0
   41.2920   32.7670   40.5660 C   0  0  0  0  0  0  0  0  0  0  0  0
   40.0410   33.2040   39.8390 C   0  0  2  0  0  0  0  0  0  0  0  0
   38.8920   32.2460   40.3210 C   0  0  1  0  0  0  0  0  0  0  0  0
   38.7980   30.0710   40.2070 H   0  0  0  0  0  0  0  0  0  0  0  0
   41.2180   30.0120   41.3360 H   0  0  0  0  0  0  0  0  0  0  0  0
   42.0030   32.2330   39.9080 H   0  0  0  0  0  0  0  0  0  0  0  0
   41.7950   33.6820   40.9210 H   0  0  0  0  0  0  0  0  0  0  0  0
   39.7290   34.2420   40.0640 H   0  0  0  0  0  0  0  0  0  0  0  0
   38.8940   32.6270   41.3940 H   0  0  0  0  0  0  0  0  0  0  0  0
   40.2970   30.8110   39.0480 O   0  0  0  0  0  0  0  0  0  0  0  0
   39.6900   30.6330   38.3080 H   0  0  0  0  0  0  0  0  0  0  0  0
   40.1710   32.9610   38.4820 O   0  0  0  0  0  0  0  0  0  0  0  0
   39.7370   33.6950   37.9550 H   0  0  0  0  0  0  0  0  0  0  0  0
   39.5750   30.5630   42.5280 O   0  0  0  0  0  0  0  0  0  0  0  0
   39.0990   29.3720   42.9050 C   0  0  0  0  0  0  0  0  0  0  0  0
   39.9430   28.2810   43.0920 C   0  0  0  0  0  0  0  0  0  0  0  0
   39.4170   27.0650   43.4820 C   0  0  0  0  0  0  0  0  0  0  0  0
   38.0560   26.9630   43.6790 N   0  0  0  0  0  0  0  0  0  0  0  0
   37.2530   28.0430   43.4900 C   0  0  0  0  0  0  0  0  0  0  0  0
   37.7750   29.2370   43.1050 N   0  0  0  0  0  0  0  0  0  0  0  0
   41.0060   28.3480   42.9420 H   0  0  0  0  0  0  0  0  0  0  0  0
   36.1760   27.9570   43.6470 H   0  0  0  0  0  0  0  0  0  0  0  0
   40.2770   25.8540   43.6800 C   0  0  0  0  0  0  0  0  0  0  0  0
   39.8080   24.5680   43.0040 C   0  0  0  0  0  0  0  0  0  0  0  0
   41.0800   25.3490   42.6080 C   0  0  0  0  0  0  0  0  0  0  0  0
   40.4960   25.6580   44.7630 H   0  0  0  0  0  0  0  0  0  0  0  0
   38.9390   24.6730   42.3130 H   0  0  0  0  0  0  0  0  0  0  0  0
   40.0070   23.5970   43.4600 H   0  0  0  0  0  0  0  0  0  0  0  0
   42.0440   24.8500   42.7770 H   0  0  0  0  0  0  0  0  0  0  0  0
   41.0450   25.8850   41.6330 H   0  0  0  0  0  0  0  0  0  0  0  0
   37.8240   32.4700   39.5400 O   0  0  0  0  0  0  0  0  0  0  0  0
   37.1930   31.6140   38.7000 C   0  0  0  0  0  0  0  0  0  0  0  0
   37.3390   31.7040   37.4040 O   0  0  0  0  0  0  0  0  0  0  0  0
   36.3310   30.5170   38.6110 O   0  0  0  0  0  0  0  0  0  0  0  0
   34.2840   29.2560   39.6410 O   0  0  0  0  0  0  0  0  0  0  0  0
   35.6700   29.7750   40.0070 P   0  0  0  0  0  0  0  0  0  0  0  0
   35.6700   30.7620   41.3490 O   0  0  0  0  0  0  0  0  0  0  0  0
   34.8680   30.6280   41.9360 H   0  0  0  0  0  0  0  0  0  0  0  0
   36.5790   28.3630   40.3480 O   0  0  0  0  0  0  0  0  0  0  0  0
   36.4740   27.6960   39.6240 H   0  0  0  0  0  0  0  0  0  0  0  0
  1  7  1  1  0  0  0
  1  6  1  0  0  0  0
  1  2  1  0  0  0  0
  2  8  1  6  0  0  0
  2  3  1  0  0  0  0
  2 17  1  0  0  0  0
  4 10  1  0  0  0  0
  4  3  1  0  0  0  0
  5 11  1  1  0  0  0
  5  6  1  0  0  0  0
  5  4  1  0  0  0  0
  6 12  1  1  0  0  0
  9  4  1  0  0  0  0
 13  1  1  0  0  0  0
 14 13  1  0  0  0  0
 15  5  1  0  0  0  0
 16 15  1  0  0  0  0
 17 18  1  0  0  0  0
 18 19  2  0  0  0  0
 18 23  1  0  0  0  0
 19 20  1  0  0  0  0
 20 21  2  0  0  0  0
 20 26  1  0  0  0  0
 22 25  1  0  0  0  0
 22 21  1  0  0  0  0
 23 22  2  0  0  0  0
 24 19  1  0  0  0  0
 26 29  1  0  0  0  0
 27 31  1  0  0  0  0
 27 26  1  0  0  0  0
 28 32  1  0  0  0  0
 28 27  1  0  0  0  0
 28 26  1  0  0  0  0
 30 27  1  0  0  0  0
 33 28  1  0  0  0  0
 34  6  1  0  0  0  0
 35 34  1  0  0  0  0
 36 35  2  0  0  0  0
 37 35  1  0  0  0  0
 37 39  1  0  0  0  0
 38 39  2  0  0  0  0
 39 42  1  0  0  0  0
 39 40  1  0  0  0  0
 40 41  1  0  0  0  0
 43 42  1  0  0  0  0
M  END
>  <minimizedAffinity>
-5.78304577

$$$$

 OpenBabel03242523563D

 43 45  0  0  1  0  0  0  0  0999 V2000
   37.3960   32.2570   39.3010 C   0  0  1  0  0  0  0  0  0  0  0  0
   38.9030   32.3040   39.5070 C   0  0  1  0  0  0  0  0  0  0  0  0
   39.2650   31.2470   40.3670 O   0  0  0  0  0  0  0  0  0  0  0  0
   38.3080   31.0070   41.3550 C   0  0  0  0  0  0  0  0  0  0  0  0
   37.0310   30.4330   40.7870 C   0  0  2  0  0  0  0  0  0  0  0  0
   37.0160   30.8140   39.2620 C   0  0  1  0  0  0  0  0  0  0  0  0
   37.1170   32.7940   38.3540 H   0  0  0  0  0  0  0  0  0  0  0  0
   39.2570   33.2680   39.8810 H   0  0  0  0  0  0  0  0  0  0  0  0
   38.1310   31.8980   41.9880 H   0  0  0  0  0  0  0  0  0  0  0  0
   38.7530   30.2290   41.9990 H   0  0  0  0  0  0  0  0  0  0  0  0
   36.9620   29.3310   40.8580 H   0  0  0  0  0  0  0  0  0  0  0  0
   37.9100   30.1640   38.9920 H   0  0  0  0  0  0  0  0  0  0  0  0
   36.7330   32.9110   40.3470 O   0  0  0  0  0  0  0  0  0  0  0  0
   35.8190   33.0960   40.0680 H   0  0  0  0  0  0  0  0  0  0  0  0
   35.9350   31.0790   41.3340 O   0  0  0  0  0  0  0  0  0  0  0  0
   35.1860   30.4300   41.4790 H   0  0  0  0  0  0  0  0  0  0  0  0
   39.4570   31.9250   38.2740 O   0  0  0  0  0  0  0  0  0  0  0  0
   40.7220   32.1430   37.9020 C   0  0  0  0  0  0  0  0  0  0  0  0
   41.5290   31.1070   37.4390 C   0  0  0  0  0  0  0  0  0  0  0  0
   42.8320   31.3680   37.0630 C   0  0  0  0  0  0  0  0  0  0  0  0
   43.3040   32.6600   37.1560 N   0  0  0  0  0  0  0  0  0  0  0  0
   42.4960   33.6540   37.6110 C   0  0  0  0  0  0  0  0  0  0  0  0
   41.2150   33.3920   37.9810 N   0  0  0  0  0  0  0  0  0  0  0  0
   41.1730   30.0950   37.3620 H   0  0  0  0  0  0  0  0  0  0  0  0
   42.8750   34.6750   37.6840 H   0  0  0  0  0  0  0  0  0  0  0  0
   43.7500   30.2880   36.5750 C   0  0  0  0  0  0  0  0  0  0  0  0
   43.2810   29.4920   35.3610 C   0  0  0  0  0  0  0  0  0  0  0  0
   44.4890   30.4550   35.3610 C   0  0  0  0  0  0  0  0  0  0  0  0
   44.0580   29.5870   37.3960 H   0  0  0  0  0  0  0  0  0  0  0  0
   42.3580   29.8710   34.8600 H   0  0  0  0  0  0  0  0  0  0  0  0
   43.5500   28.4410   35.2480 H   0  0  0  0  0  0  0  0  0  0  0  0
   45.4800   30.0090   35.2080 H   0  0  0  0  0  0  0  0  0  0  0  0
   44.3600   31.4060   34.7980 H   0  0  0  0  0  0  0  0  0  0  0  0
   35.8020   30.5050   38.7790 O   0  0  0  0  0  0  0  0  0  0  0  0
   35.4340   29.4400   38.0260 C   0  0  0  0  0  0  0  0  0  0  0  0
   34.4780   28.6350   38.4100 O   0  0  0  0  0  0  0  0  0  0  0  0
   35.6690   28.7310   36.8450 O   0  0  0  0  0  0  0  0  0  0  0  0
   35.3970   29.9850   34.5660 O   0  0  0  0  0  0  0  0  0  0  0  0
   36.4680   29.4480   35.5090 P   0  0  0  0  0  0  0  0  0  0  0  0
   37.5550   28.4330   34.7600 O   0  0  0  0  0  0  0  0  0  0  0  0
   37.5930   28.5610   33.7650 H   0  0  0  0  0  0  0  0  0  0  0  0
   37.2920   30.8460   36.0610 O   0  0  0  0  0  0  0  0  0  0  0  0
   36.6490   31.5290   36.3770 H   0  0  0  0  0  0  0  0  0  0  0  0
  1  7  1  6  0  0  0
  1  2  1  0  0  0  0
  1 13  1  0  0  0  0
  2  8  1  1  0  0  0
  2  3  1  0  0  0  0
  3  4  1  0  0  0  0
  4  9  1  0  0  0  0
  4 10  1  0  0  0  0
  5 11  1  1  0  0  0
  5 15  1  0  0  0  0
  5  4  1  0  0  0  0
  6 12  1  6  0  0  0
  6  1  1  0  0  0  0
  6  5  1  0  0  0  0
 14 13  1  0  0  0  0
 15 16  1  0  0  0  0
 17  2  1  0  0  0  0
 18 23  1  0  0  0  0
 18 17  1  0  0  0  0
 19 18  2  0  0  0  0
 20 21  2  0  0  0  0
 20 19  1  0  0  0  0
 21 22  1  0  0  0  0
 22 25  1  0  0  0  0
 22 23  2  0  0  0  0
 24 19  1  0  0  0  0
 26 20  1  0  0  0  0
 26 29  1  0  0  0  0
 27 28  1  0  0  0  0
 27 26  1  0  0  0  0
 28 26  1  0  0  0  0
 30 27  1  0  0  0  0
 31 27  1  0  0  0  0
 32 28  1  0  0  0  0
 33 28  1  0  0  0  0
 34  6  1  0  0  0  0
 35 36  2  0  0  0  0
 35 34  1  0  0  0  0
 37 35  1  0  0  0  0
 38 39  2  0  0  0  0
 39 42  1  0  0  0  0
 39 37  1  0  0  0  0
 40 39  1  0  0  0  0
 41 40  1  0  0  0  0
 42 43  1  0  0  0  0
M  END
>  <minimizedAffinity>
-5.71164989

$$$$

 OpenBabel03242523563D

 43 45  0  0  1  0  0  0  0  0999 V2000
   38.7920   32.6910   39.3840 C   0  0  1  0  0  0  0  0  0  0  0  0
   38.3040   31.4990   40.1940 C   0  0  1  0  0  0  0  0  0  0  0  0
   38.5880   30.3240   39.4670 O   0  0  0  0  0  0  0  0  0  0  0  0
   38.4410   30.4960   38.0890 C   0  0  0  0  0  0  0  0  0  0  0  0
   39.5010   31.4050   37.5100 C   0  0  2  0  0  0  0  0  0  0  0  0
   40.0520   32.2610   38.7070 C   0  0  1  0  0  0  0  0  0  0  0  0
   38.9540   33.5760   40.0560 H   0  0  0  0  0  0  0  0  0  0  0  0
   37.2470   31.5620   40.4610 H   0  0  0  0  0  0  0  0  0  0  0  0
   37.4150   30.8100   37.8170 H   0  0  0  0  0  0  0  0  0  0  0  0
   38.6050   29.4940   37.6580 H   0  0  0  0  0  0  0  0  0  0  0  0
   40.3570   30.8670   37.0600 H   0  0  0  0  0  0  0  0  0  0  0  0
   40.5230   31.3770   39.2480 H   0  0  0  0  0  0  0  0  0  0  0  0
   37.8320   33.0710   38.4360 O   0  0  0  0  0  0  0  0  0  0  0  0
   38.0430   33.9690   38.1240 H   0  0  0  0  0  0  0  0  0  0  0  0
   38.9220   32.3180   36.6460 O   0  0  0  0  0  0  0  0  0  0  0  0
   39.5260   32.4880   35.8640 H   0  0  0  0  0  0  0  0  0  0  0  0
   39.1730   31.4190   41.2940 O   0  0  0  0  0  0  0  0  0  0  0  0
   39.5230   30.2880   41.9140 C   0  0  0  0  0  0  0  0  0  0  0  0
   38.5650   29.4180   42.4290 C   0  0  0  0  0  0  0  0  0  0  0  0
   38.9630   28.2580   43.0650 C   0  0  0  0  0  0  0  0  0  0  0  0
   40.3110   27.9890   43.1740 N   0  0  0  0  0  0  0  0  0  0  0  0
   41.2260   28.8550   42.6630 C   0  0  0  0  0  0  0  0  0  0  0  0
   40.8300   29.9950   42.0390 N   0  0  0  0  0  0  0  0  0  0  0  0
   37.5110   29.6170   42.3510 H   0  0  0  0  0  0  0  0  0  0  0  0
   42.2920   28.6380   42.7530 H   0  0  0  0  0  0  0  0  0  0  0  0
   37.9760   27.2960   43.6530 C   0  0  0  0  0  0  0  0  0  0  0  0
   36.5090   27.5200   43.2960 C   0  0  0  0  0  0  0  0  0  0  0  0
   37.3460   26.3070   42.8330 C   0  0  0  0  0  0  0  0  0  0  0  0
   38.0870   27.1990   44.7660 H   0  0  0  0  0  0  0  0  0  0  0  0
   36.3130   28.2990   42.5200 H   0  0  0  0  0  0  0  0  0  0  0  0
   35.7200   27.2710   44.0060 H   0  0  0  0  0  0  0  0  0  0  0  0
   37.0500   25.3230   43.2180 H   0  0  0  0  0  0  0  0  0  0  0  0
   37.6140   26.2780   41.7530 H   0  0  0  0  0  0  0  0  0  0  0  0
   40.8370   33.2190   38.1920 O   0  0  0  0  0  0  0  0  0  0  0  0
   42.0850   33.1070   37.6750 C   0  0  0  0  0  0  0  0  0  0  0  0
   42.7650   34.1610   37.3080 O   0  0  0  0  0  0  0  0  0  0  0  0
   43.1060   32.2210   37.3170 O   0  0  0  0  0  0  0  0  0  0  0  0
   45.5400   31.2730   37.4410 O   0  0  0  0  0  0  0  0  0  0  0  0
   44.7510   32.5610   37.6520 P   0  0  0  0  0  0  0  0  0  0  0  0
   44.9980   33.2460   39.1500 O   0  0  0  0  0  0  0  0  0  0  0  0
   45.8520   32.9480   39.5840 H   0  0  0  0  0  0  0  0  0  0  0  0
   45.3380   33.6250   36.4440 O   0  0  0  0  0  0  0  0  0  0  0  0
   45.3390   33.1820   35.5580 H   0  0  0  0  0  0  0  0  0  0  0  0
  1  7  1  1  0  0  0
  1  2  1  0  0  0  0
  2  8  1  1  0  0  0
  2 17  1  0  0  0  0
  3  2  1  0  0  0  0
  4  3  1  0  0  0  0
  5 11  1  6  0  0  0
  5  4  1  0  0  0  0
  5  6  1  0  0  0  0
  6 12  1  1  0  0  0
  6  1  1  0  0  0  0
  9  4  1  0  0  0  0
 10  4  1  0  0  0  0
 13  1  1  0  0  0  0
 14 13  1  0  0  0  0
 15  5  1  0  0  0  0
 16 15  1  0  0  0  0
 17 18  1  0  0  0  0
 18 23  2  0  0  0  0
 18 19  1  0  0  0  0
 19 20  2  0  0  0  0
 20 21  1  0  0  0  0
 20 26  1  0  0  0  0
 22 25  1  0  0  0  0
 22 21  2  0  0  0  0
 23 22  1  0  0  0  0
 24 19  1  0  0  0  0
 26 29  1  0  0  0  0
 27 26  1  0  0  0  0
 27 31  1  0  0  0  0
 28 32  1  0  0  0  0
 28 27  1  0  0  0  0
 28 26  1  0  0  0  0
 30 27  1  0  0  0  0
 33 28  1  0  0  0  0
 34  6  1  0  0  0  0
 35 34  1  0  0  0  0
 36 35  2  0  0  0  0
 37 39  1  0  0  0  0
 37 35  1  0  0  0  0
 38 39  2  0  0  0  0
 39 40  1  0  0  0  0
 40 41  1  0  0  0  0
 42 39  1  0  0  0  0
 43 42  1  0  0  0  0
M  END
>  <minimizedAffinity>
-5.69873381

$$$$

 OpenBabel03242523563D

 43 45  0  0  1  0  0  0  0  0999 V2000
   37.5770   31.7720   40.0520 C   0  0  1  0  0  0  0  0  0  0  0  0
   37.9090   31.7250   38.5680 C   0  0  1  0  0  0  0  0  0  0  0  0
   39.1870   32.2910   38.3820 O   0  0  0  0  0  0  0  0  0  0  0  0
   39.4310   33.3610   39.2450 C   0  0  0  0  0  0  0  0  0  0  0  0
   39.5660   32.9170   40.6830 C   0  0  2  0  0  0  0  0  0  0  0  0
   38.8540   31.5200   40.7830 C   0  0  1  0  0  0  0  0  0  0  0  0
   36.7900   31.0090   40.2970 H   0  0  0  0  0  0  0  0  0  0  0  0
   37.1580   32.2140   37.9420 H   0  0  0  0  0  0  0  0  0  0  0  0
   38.6920   34.1750   39.1180 H   0  0  0  0  0  0  0  0  0  0  0  0
   40.4140   33.7570   38.9360 H   0  0  0  0  0  0  0  0  0  0  0  0
   40.6130   32.7840   41.0170 H   0  0  0  0  0  0  0  0  0  0  0  0
   39.6040   30.9820   40.1180 H   0  0  0  0  0  0  0  0  0  0  0  0
   37.0510   33.0230   40.4020 O   0  0  0  0  0  0  0  0  0  0  0  0
   36.6100   32.9440   41.2670 H   0  0  0  0  0  0  0  0  0  0  0  0
   38.8390   33.7560   41.5100 O   0  0  0  0  0  0  0  0  0  0  0  0
   39.3240   33.8980   42.3750 H   0  0  0  0  0  0  0  0  0  0  0  0
   38.1080   30.3670   38.2760 O   0  0  0  0  0  0  0  0  0  0  0  0
   37.3410   29.6370   37.4600 C   0  0  0  0  0  0  0  0  0  0  0  0
   36.9680   30.1060   36.2030 C   0  0  0  0  0  0  0  0  0  0  0  0
   36.1750   29.3250   35.3870 C   0  0  0  0  0  0  0  0  0  0  0  0
   35.7690   28.0880   35.8410 N   0  0  0  0  0  0  0  0  0  0  0  0
   36.1460   27.6520   37.0720 C   0  0  0  0  0  0  0  0  0  0  0  0
   36.9270   28.4250   37.8720 N   0  0  0  0  0  0  0  0  0  0  0  0
   37.2780   31.0700   35.8370 H   0  0  0  0  0  0  0  0  0  0  0  0
   35.8220   26.6730   37.4270 H   0  0  0  0  0  0  0  0  0  0  0  0
   35.7290   29.7880   34.0330 C   0  0  0  0  0  0  0  0  0  0  0  0
   36.2470   31.1480   33.5730 C   0  0  0  0  0  0  0  0  0  0  0  0
   36.6420   29.8000   32.9310 C   0  0  0  0  0  0  0  0  0  0  0  0
   34.6140   29.7440   33.9130 H   0  0  0  0  0  0  0  0  0  0  0  0
   37.0200   31.6190   34.2270 H   0  0  0  0  0  0  0  0  0  0  0  0
   35.6400   31.7860   32.9300 H   0  0  0  0  0  0  0  0  0  0  0  0
   36.3180   29.6290   31.8950 H   0  0  0  0  0  0  0  0  0  0  0  0
   37.6840   29.4540   33.1130 H   0  0  0  0  0  0  0  0  0  0  0  0
   38.7710   31.1990   42.0840 O   0  0  0  0  0  0  0  0  0  0  0  0
   38.9260   29.9880   42.6710 C   0  0  0  0  0  0  0  0  0  0  0  0
   40.0940   29.4000   42.7150 O   0  0  0  0  0  0  0  0  0  0  0  0
   38.2840   28.9480   43.3490 O   0  0  0  0  0  0  0  0  0  0  0  0
   36.4200   28.8630   41.5160 O   0  0  0  0  0  0  0  0  0  0  0  0
   37.0620   28.0070   42.6030 P   0  0  0  0  0  0  0  0  0  0  0  0
   35.9580   27.3750   43.6790 O   0  0  0  0  0  0  0  0  0  0  0  0
   35.0260   27.3380   43.3110 H   0  0  0  0  0  0  0  0  0  0  0  0
   37.8130   26.7250   41.7500 O   0  0  0  0  0  0  0  0  0  0  0  0
   38.3620   27.0750   41.0050 H   0  0  0  0  0  0  0  0  0  0  0  0
  1  7  1  1  0  0  0
  1 13  1  0  0  0  0
  1  6  1  0  0  0  0
  2  8  1  6  0  0  0
  2  1  1  0  0  0  0
  3  2  1  0  0  0  0
  3  4  1  0  0  0  0
  4  5  1  0  0  0  0
  5  6  1  0  0  0  0
  5 11  1  1  0  0  0
  5 15  1  0  0  0  0
  6 12  1  6  0  0  0
  6 34  1  0  0  0  0
  9  4  1  0  0  0  0
 10  4  1  0  0  0  0
 13 14  1  0  0  0  0
 15 16  1  0  0  0  0
 17  2  1  0  0  0  0
 18 23  1  0  0  0  0
 18 17  1  0  0  0  0
 19 18  2  0  0  0  0
 20 21  2  0  0  0  0
 20 19  1  0  0  0  0
 21 22  1  0  0  0  0
 22 25  1  0  0  0  0
 22 23  2  0  0  0  0
 24 19  1  0  0  0  0
 26 20  1  0  0  0  0
 27 26  1  0  0  0  0
 27 30  1  0  0  0  0
 28 33  1  0  0  0  0
 28 27  1  0  0  0  0
 28 26  1  0  0  0  0
 29 26  1  0  0  0  0
 31 27  1  0  0  0  0
 32 28  1  0  0  0  0
 34 35  1  0  0  0  0
 35 36  2  0  0  0  0
 35 37  1  0  0  0  0
 38 39  2  0  0  0  0
 39 37  1  0  0  0  0
 39 40  1  0  0  0  0
 41 40  1  0  0  0  0
 42 39  1  0  0  0  0
 43 42  1  0  0  0  0
M  END
>  <minimizedAffinity>
-5.55082941

$$$$

 OpenBabel03242523563D

 43 45  0  0  1  0  0  0  0  0999 V2000
   40.1390   30.1650   38.4560 C   0  0  1  0  0  0  0  0  0  0  0  0
   41.3920   29.3160   38.3010 C   0  0  1  0  0  0  0  0  0  0  0  0
   42.4120   30.1280   37.7660 O   0  0  0  0  0  0  0  0  0  0  0  0
   41.9310   31.0570   36.8420 C   0  0  0  0  0  0  0  0  0  0  0  0
   41.0840   32.1270   37.4940 C   0  0  2  0  0  0  0  0  0  0  0  0
   40.5940   31.5280   38.8620 C   0  0  1  0  0  0  0  0  0  0  0  0
   39.4500   29.7050   39.2160 H   0  0  0  0  0  0  0  0  0  0  0  0
   41.2330   28.4190   37.6990 H   0  0  0  0  0  0  0  0  0  0  0  0
   41.4200   30.5700   35.9900 H   0  0  0  0  0  0  0  0  0  0  0  0
   42.8310   31.5570   36.4450 H   0  0  0  0  0  0  0  0  0  0  0  0
   41.6330   33.0620   37.7160 H   0  0  0  0  0  0  0  0  0  0  0  0
   41.6310   31.4890   39.3270 H   0  0  0  0  0  0  0  0  0  0  0  0
   39.4290   30.2250   37.2500 O   0  0  0  0  0  0  0  0  0  0  0  0
   38.5250   30.5370   37.4360 H   0  0  0  0  0  0  0  0  0  0  0  0
   39.9330   32.3370   36.7550 O   0  0  0  0  0  0  0  0  0  0  0  0
   39.6910   33.3100   36.7590 H   0  0  0  0  0  0  0  0  0  0  0  0
   41.8300   29.0620   39.6100 O   0  0  0  0  0  0  0  0  0  0  0  0
   41.0750   28.5530   40.5870 C   0  0  0  0  0  0  0  0  0  0  0  0
   40.2870   27.4230   40.3800 C   0  0  0  0  0  0  0  0  0  0  0  0
   39.5180   26.9240   41.4130 C   0  0  0  0  0  0  0  0  0  0  0  0
   39.5510   27.5620   42.6340 N   0  0  0  0  0  0  0  0  0  0  0  0
   40.3280   28.6640   42.8110 C   0  0  0  0  0  0  0  0  0  0  0  0
   41.0820   29.1520   41.7920 N   0  0  0  0  0  0  0  0  0  0  0  0
   40.2530   26.9160   39.4320 H   0  0  0  0  0  0  0  0  0  0  0  0
   40.3500   29.1660   43.7800 H   0  0  0  0  0  0  0  0  0  0  0  0
   38.6390   25.7230   41.2400 C   0  0  0  0  0  0  0  0  0  0  0  0
   37.2480   25.8010   41.8640 C   0  0  0  0  0  0  0  0  0  0  0  0
   37.5230   25.7610   40.3440 C   0  0  0  0  0  0  0  0  0  0  0  0
   39.1470   24.7730   41.5560 H   0  0  0  0  0  0  0  0  0  0  0  0
   36.9580   26.7950   42.2780 H   0  0  0  0  0  0  0  0  0  0  0  0
   36.7620   24.9050   42.2510 H   0  0  0  0  0  0  0  0  0  0  0  0
   37.1740   24.8740   39.7990 H   0  0  0  0  0  0  0  0  0  0  0  0
   37.3360   26.7050   39.7850 H   0  0  0  0  0  0  0  0  0  0  0  0
   39.6730   32.3660   39.3630 O   0  0  0  0  0  0  0  0  0  0  0  0
   38.7360   32.1270   40.3140 C   0  0  0  0  0  0  0  0  0  0  0  0
   37.6280   32.8190   40.3640 O   0  0  0  0  0  0  0  0  0  0  0  0
   38.3950   31.3450   41.4210 O   0  0  0  0  0  0  0  0  0  0  0  0
   37.2470   29.2760   40.3070 O   0  0  0  0  0  0  0  0  0  0  0  0
   37.0300   30.3100   41.4060 P   0  0  0  0  0  0  0  0  0  0  0  0
   35.5810   31.1220   41.2680 O   0  0  0  0  0  0  0  0  0  0  0  0
   34.9020   30.6250   40.7210 H   0  0  0  0  0  0  0  0  0  0  0  0
   37.0270   29.3990   42.8570 O   0  0  0  0  0  0  0  0  0  0  0  0
   37.8110   28.7950   42.8910 H   0  0  0  0  0  0  0  0  0  0  0  0
  1  6  1  0  0  0  0
  1  7  1  1  0  0  0
  2  8  1  6  0  0  0
  2  1  1  0  0  0  0
  2 17  1  0  0  0  0
  3  2  1  0  0  0  0
  4  5  1  0  0  0  0
  4  3  1  0  0  0  0
  5 11  1  1  0  0  0
  5  6  1  0  0  0  0
  6 12  1  1  0  0  0
  6 34  1  0  0  0  0
  9  4  1  0  0  0  0
 10  4  1  0  0  0  0
 13 14  1  0  0  0  0
 13  1  1  0  0  0  0
 15 16  1  0  0  0  0
 15  5  1  0  0  0  0
 17 18  1  0  0  0  0
 18 23  1  0  0  0  0
 19 18  2  0  0  0  0
 19 20  1  0  0  0  0
 20 21  2  0  0  0  0
 21 22  1  0  0  0  0
 22 25  1  0  0  0  0
 23 22  2  0  0  0  0
 24 19  1  0  0  0  0
 26 20  1  0  0  0  0
 26 29  1  0  0  0  0
 26 27  1  0  0  0  0
 27 31  1  0  0  0  0
 27 30  1  0  0  0  0
 28 26  1  0  0  0  0
 28 27  1  0  0  0  0
 32 28  1  0  0  0  0
 33 28  1  0  0  0  0
 34 35  1  0  0  0  0
 35 36  2  0  0  0  0
 35 37  1  0  0  0  0
 38 39  2  0  0  0  0
 39 37  1  0  0  0  0
 39 42  1  0  0  0  0
 40 39  1  0  0  0  0
 41 40  1  0  0  0  0
 42 43  1  0  0  0  0
M  END
>  <minimizedAffinity>
-5.52296734

$$$$
