
 OpenBabel03252508003D

 27 28  0  0  1  0  0  0  0  0999 V2000
   45.8000   34.6230   43.3770 C   0  0  0  0  0  0  0  0  0  0  0  0
   44.9930   35.6440   43.9180 C   0  0  0  0  0  0  0  0  0  0  0  0
   44.6200   35.5310   45.2610 C   0  0  0  0  0  0  0  0  0  0  0  0
   45.0600   34.4460   45.9490 N   0  0  0  0  0  0  0  0  0  0  0  0
   45.8400   33.4900   45.3610 C   0  0  0  0  0  0  0  0  0  0  0  0
   46.2220   33.5490   44.0930 N   0  0  0  0  0  0  0  0  0  0  0  0
   44.6760   36.4790   43.3290 H   0  0  0  0  0  0  0  0  0  0  0  0
   44.0090   36.2910   45.7040 H   0  0  0  0  0  0  0  0  0  0  0  0
   46.2990   32.3320   46.1940 C   0  0  1  0  0  0  0  0  0  0  0  0
   47.0450   32.6000   47.4790 C   0  0  0  0  0  0  0  0  0  0  0  0
   45.5960   32.1920   47.4860 C   0  0  1  0  0  0  0  0  0  0  0  0
   46.6320   31.4330   45.6660 H   0  0  0  0  0  0  0  0  0  0  0  0
   47.7820   31.8400   47.8000 H   0  0  0  0  0  0  0  0  0  0  0  0
   47.3470   33.6460   47.6710 H   0  0  0  0  0  0  0  0  0  0  0  0
   45.3760   31.2420   47.9670 H   0  0  0  0  0  0  0  0  0  0  0  0
   44.7380   33.2880   47.9600 N   0  0  0  0  0  0  0  0  0  0  0  0
   44.9870   33.4550   48.9680 H   0  0  0  0  0  0  0  0  0  0  0  0
   43.7300   32.9910   47.9560 H   0  0  0  0  0  0  0  0  0  0  0  0
   46.1610   34.8040   41.9920 C   0  0  0  0  0  0  0  0  0  0  0  0
   47.3480   35.0790   41.5950 O   0  0  0  0  0  0  0  0  0  0  0  0
   45.1730   34.6780   40.9970 O   0  0  0  0  0  0  0  0  0  0  0  0
   43.2170   33.3590   39.7320 O   0  0  0  0  0  0  0  0  0  0  0  0
   44.2110   33.2570   40.8510 P   0  0  0  0  0  0  0  0  0  0  0  0
   45.2990   31.9730   40.5850 O   0  0  0  0  0  0  0  0  0  0  0  0
   46.1200   32.1150   41.1190 H   0  0  0  0  0  0  0  0  0  0  0  0
   43.4360   32.9190   42.3240 O   0  0  0  0  0  0  0  0  0  0  0  0
   44.1180   32.5230   42.9350 H   0  0  0  0  0  0  0  0  0  0  0  0
  1  2  2  0  0  0  0
  1  6  1  0  0  0  0
  2  3  1  0  0  0  0
  3  8  1  0  0  0  0
  3  4  2  0  0  0  0
  5  4  1  0  0  0  0
  5  9  1  0  0  0  0
  6  5  2  0  0  0  0
  7  2  1  0  0  0  0
  9 12  1  6  0  0  0
  9 10  1  0  0  0  0
  9 11  1  0  0  0  0
 10 11  1  0  0  0  0
 10 14  1  0  0  0  0
 10 13  1  0  0  0  0
 11 16  1  0  0  0  0
 11 15  1  1  0  0  0
 16 17  1  0  0  0  0
 18 16  1  0  0  0  0
 19  1  1  0  0  0  0
 20 19  2  0  0  0  0
 21 19  1  0  0  0  0
 22 23  2  0  0  0  0
 23 21  1  0  0  0  0
 23 26  1  0  0  0  0
 24 23  1  0  0  0  0
 24 25  1  0  0  0  0
 26 27  1  0  0  0  0
M  END
>  <minimizedAffinity>
-4.99003077

>  <minimizedRMSD>
1.08053207

$$$$
