
 OpenBabel03242522513D

 24 24  0  0  0  0  0  0  0  0999 V2000
   45.5520   30.6810   47.6550 O   0  0  0  0  0  0  0  0  0  0  0  0
   45.8730   32.0030   48.3810 P   0  0  2  0  0  0  0  0  0  0  0  0
   45.2270   31.8490   49.9300 O   0  0  0  0  0  0  0  0  0  0  0  0
   45.7660   32.3540   50.5890 H   0  0  0  0  0  0  0  0  0  0  0  0
   45.0900   33.2570   47.5560 O   0  0  0  0  0  0  0  0  0  0  0  0
   46.9610   33.2540   44.4400 C   0  0  0  0  0  0  0  0  0  0  0  0
   46.5140   32.9160   45.7300 C   0  0  0  0  0  0  0  0  0  0  0  0
   45.4840   33.6330   46.2890 C   0  0  0  0  0  0  0  0  0  0  0  0
   44.9360   34.6440   45.5690 N   0  0  0  0  0  0  0  0  0  0  0  0
   45.3640   34.9630   44.3400 C   0  0  0  0  0  0  0  0  0  0  0  0
   46.3730   34.2770   43.7680 N   0  0  0  0  0  0  0  0  0  0  0  0
   47.7610   32.7520   43.9210 H   0  0  0  0  0  0  0  0  0  0  0  0
   47.0740   32.0910   46.1240 H   0  0  0  0  0  0  0  0  0  0  0  0
   44.8160   35.7970   43.9040 H   0  0  0  0  0  0  0  0  0  0  0  0
   47.5030   32.2710   48.4210 O   0  0  0  0  0  0  0  0  0  0  0  0
   48.5380   31.4190   48.6240 C   0  0  0  0  0  0  0  0  0  0  0  0
   49.4160   31.8520   49.4480 O   0  0  0  0  0  0  0  0  0  0  0  0
   49.2590   30.2510   48.4410 O   0  0  0  0  0  0  0  0  0  0  0  0
   48.0270   28.0570   47.6710 O   0  0  0  0  0  0  0  0  0  0  0  0
   48.9840   29.1340   47.2090 P   0  0  0  0  0  0  0  0  0  0  0  0
   48.4430   29.8880   45.8150 O   0  0  0  0  0  0  0  0  0  0  0  0
   47.8240   30.6360   45.9990 H   0  0  0  0  0  0  0  0  0  0  0  0
   50.4940   28.3770   46.9160 O   0  0  0  0  0  0  0  0  0  0  0  0
   50.5320   27.5350   47.3990 H   0  0  0  0  0  0  0  0  0  0  0  0
  2  1  2  6  0  0  0
  2 15  1  0  0  0  0
  2  3  1  0  0  0  0
  3  4  1  0  0  0  0
  5  2  1  0  0  0  0
  6  7  1  0  0  0  0
  7 13  1  0  0  0  0
  7  8  2  0  0  0  0
  8  5  1  0  0  0  0
  9  8  1  0  0  0  0
 10  9  2  0  0  0  0
 11 10  1  0  0  0  0
 11  6  2  0  0  0  0
 12  6  1  0  0  0  0
 14 10  1  0  0  0  0
 15 16  1  0  0  0  0
 16 17  2  0  0  0  0
 18 16  1  0  0  0  0
 20 19  2  0  0  0  0
 20 18  1  0  0  0  0
 21 22  1  0  0  0  0
 21 20  1  0  0  0  0
 23 20  1  0  0  0  0
 23 24  1  0  0  0  0
M  END
>  <minimizedAffinity>
-4.23995972

>  <minimizedRMSD>
1.25032258

$$$$
