
 OpenBabel03252501113D

 18 18  0  0  0  0  0  0  0  0999 V2000
   46.1180   34.6980   43.3630 C   0  0  0  0  0  0  0  0  0  0  0  0
   46.5960   33.7130   44.2290 C   0  0  0  0  0  0  0  0  0  0  0  0
   46.0370   33.6420   45.5110 C   0  0  0  0  0  0  0  0  0  0  0  0
   45.0650   34.5290   45.8410 N   0  0  0  0  0  0  0  0  0  0  0  0
   44.6270   35.4680   44.9760 C   0  0  0  0  0  0  0  0  0  0  0  0
   45.1590   35.5470   43.7360 N   0  0  0  0  0  0  0  0  0  0  0  0
   46.5600   34.7440   42.3670 H   0  0  0  0  0  0  0  0  0  0  0  0
   47.3840   33.0130   43.9250 H   0  0  0  0  0  0  0  0  0  0  0  0
   43.8490   36.1240   45.3420 H   0  0  0  0  0  0  0  0  0  0  0  0
   46.5690   32.6020   46.3700 C   0  0  0  0  0  0  0  0  0  0  0  0
   47.2090   31.6110   45.9600 O   0  0  0  0  0  0  0  0  0  0  0  0
   46.4000   32.6350   47.7520 O   0  0  0  0  0  0  0  0  0  0  0  0
   44.8200   30.5890   47.9110 O   0  0  0  0  0  0  0  0  0  0  0  0
   45.9430   31.2870   48.6740 P   0  0  0  0  0  0  0  0  0  0  0  0
   47.2010   30.2370   49.0280 O   0  0  0  0  0  0  0  0  0  0  0  0
   48.0390   30.5970   48.6180 H   0  0  0  0  0  0  0  0  0  0  0  0
   45.2440   31.8370   50.1240 O   0  0  0  0  0  0  0  0  0  0  0  0
   44.5210   32.4800   49.8330 H   0  0  0  0  0  0  0  0  0  0  0  0
  1  6  2  0  0  0  0
  1  2  1  0  0  0  0
  2  3  2  0  0  0  0
  3  4  1  0  0  0  0
  3 10  1  0  0  0  0
  5  9  1  0  0  0  0
  5  4  2  0  0  0  0
  6  5  1  0  0  0  0
  7  1  1  0  0  0  0
  8  2  1  0  0  0  0
 10 12  1  0  0  0  0
 11 10  2  0  0  0  0
 12 14  1  0  0  0  0
 13 14  2  0  0  0  0
 14 15  1  0  0  0  0
 14 17  1  0  0  0  0
 16 15  1  0  0  0  0
 18 17  1  0  0  0  0
M  END
>  <minimizedAffinity>
-4.5280652

>  <minimizedRMSD>
6.83513355

$$$$
