
 OpenBabel03242523553D

 43 45  0  0  1  0  0  0  0  0999 V2000
   42.8790   34.1250   39.2080 C   0  0  1  0  0  0  0  0  0  0  0  0
   43.1640   35.1120   40.3310 C   0  0  1  0  0  0  0  0  0  0  0  0
   41.9460   35.7150   40.7080 O   0  0  0  0  0  0  0  0  0  0  0  0
   41.0940   35.9290   39.6230 C   0  0  0  0  0  0  0  0  0  0  0  0
   40.5590   34.6360   39.0520 C   0  0  2  0  0  0  0  0  0  0  0  0
   41.5540   33.5070   39.5080 C   0  0  1  0  0  0  0  0  0  0  0  0
   43.6990   33.3590   39.1480 H   0  0  0  0  0  0  0  0  0  0  0  0
   43.9190   35.8570   40.0700 H   0  0  0  0  0  0  0  0  0  0  0  0
   41.5550   36.5760   38.8530 H   0  0  0  0  0  0  0  0  0  0  0  0
   40.2330   36.4770   40.0410 H   0  0  0  0  0  0  0  0  0  0  0  0
   39.5520   34.3630   39.4200 H   0  0  0  0  0  0  0  0  0  0  0  0
   41.3020   33.5990   40.6140 H   0  0  0  0  0  0  0  0  0  0  0  0
   42.8460   34.7800   37.9700 O   0  0  0  0  0  0  0  0  0  0  0  0
   42.9280   34.1150   37.2640 H   0  0  0  0  0  0  0  0  0  0  0  0
   40.6420   34.6560   37.6700 O   0  0  0  0  0  0  0  0  0  0  0  0
   39.8470   34.1990   37.2680 H   0  0  0  0  0  0  0  0  0  0  0  0
   43.4940   34.3220   41.4430 O   0  0  0  0  0  0  0  0  0  0  0  0
   44.6690   34.3440   42.0790 C   0  0  0  0  0  0  0  0  0  0  0  0
   45.8640   34.5240   41.3860 C   0  0  0  0  0  0  0  0  0  0  0  0
   47.0600   34.5420   42.0750 C   0  0  0  0  0  0  0  0  0  0  0  0
   47.0410   34.3800   43.4440 N   0  0  0  0  0  0  0  0  0  0  0  0
   45.8610   34.2060   44.0970 C   0  0  0  0  0  0  0  0  0  0  0  0
   44.6870   34.1880   43.4150 N   0  0  0  0  0  0  0  0  0  0  0  0
   45.8920   34.6510   40.3180 H   0  0  0  0  0  0  0  0  0  0  0  0
   45.8510   34.0780   45.1810 H   0  0  0  0  0  0  0  0  0  0  0  0
   48.3760   34.7130   41.3780 C   0  0  0  0  0  0  0  0  0  0  0  0
   49.0750   36.0570   41.5630 C   0  0  0  0  0  0  0  0  0  0  0  0
   49.5980   34.7160   42.1220 C   0  0  0  0  0  0  0  0  0  0  0  0
   48.3160   34.4610   40.2860 H   0  0  0  0  0  0  0  0  0  0  0  0
   48.6120   36.7460   42.3080 H   0  0  0  0  0  0  0  0  0  0  0  0
   49.6910   36.4770   40.7670 H   0  0  0  0  0  0  0  0  0  0  0  0
   50.5420   34.3380   41.7070 H   0  0  0  0  0  0  0  0  0  0  0  0
   49.5370   34.5850   43.2260 H   0  0  0  0  0  0  0  0  0  0  0  0
   41.2270   32.3870   38.8450 O   0  0  0  0  0  0  0  0  0  0  0  0
   40.2570   31.4840   39.1300 C   0  0  0  0  0  0  0  0  0  0  0  0
   39.1670   31.4100   38.4120 O   0  0  0  0  0  0  0  0  0  0  0  0
   39.8660   30.4470   39.9820 O   0  0  0  0  0  0  0  0  0  0  0  0
   38.5650   29.8490   42.1700 O   0  0  0  0  0  0  0  0  0  0  0  0
   38.3570   30.4730   40.7940 P   0  0  0  0  0  0  0  0  0  0  0  0
   37.1240   29.7630   39.9290 O   0  0  0  0  0  0  0  0  0  0  0  0
   36.4660   29.2750   40.5100 H   0  0  0  0  0  0  0  0  0  0  0  0
   37.9490   32.1050   41.1210 O   0  0  0  0  0  0  0  0  0  0  0  0
   38.5930   32.5050   41.7580 H   0  0  0  0  0  0  0  0  0  0  0  0
  1  7  1  6  0  0  0
  1  6  1  0  0  0  0
  1  2  1  0  0  0  0
  2  8  1  6  0  0  0
  2  3  1  0  0  0  0
  2 17  1  0  0  0  0
  4 10  1  0  0  0  0
  4  3  1  0  0  0  0
  5 11  1  1  0  0  0
  5  6  1  0  0  0  0
  5  4  1  0  0  0  0
  6 12  1  1  0  0  0
  9  4  1  0  0  0  0
 13  1  1  0  0  0  0
 14 13  1  0  0  0  0
 15  5  1  0  0  0  0
 16 15  1  0  0  0  0
 17 18  1  0  0  0  0
 18 23  1  0  0  0  0
 19 20  1  0  0  0  0
 19 18  2  0  0  0  0
 20 21  2  0  0  0  0
 21 22  1  0  0  0  0
 22 25  1  0  0  0  0
 23 22  2  0  0  0  0
 24 19  1  0  0  0  0
 26 27  1  0  0  0  0
 26 20  1  0  0  0  0
 26 28  1  0  0  0  0
 27 28  1  0  0  0  0
 27 30  1  0  0  0  0
 28 33  1  0  0  0  0
 29 26  1  0  0  0  0
 31 27  1  0  0  0  0
 32 28  1  0  0  0  0
 34 35  1  0  0  0  0
 34  6  1  0  0  0  0
 35 37  1  0  0  0  0
 36 35  2  0  0  0  0
 37 39  1  0  0  0  0
 39 42  1  0  0  0  0
 39 38  2  0  0  0  0
 40 41  1  0  0  0  0
 40 39  1  0  0  0  0
 42 43  1  0  0  0  0
M  END
>  <minimizedAffinity>
-6.01415443

>  <minimizedRMSD>
1.79036808

$$$$
