
 OpenBabel03242522513D

 24 24  0  0  0  0  0  0  0  0999 V2000
   45.5380   30.6640   47.6460 O   0  0  0  0  0  0  0  0  0  0  0  0
   45.8920   31.9750   48.3740 P   0  0  2  0  0  0  0  0  0  0  0  0
   45.2680   31.8240   49.9320 O   0  0  0  0  0  0  0  0  0  0  0  0
   45.8260   32.3170   50.5850 H   0  0  0  0  0  0  0  0  0  0  0  0
   45.1180   33.2470   47.5680 O   0  0  0  0  0  0  0  0  0  0  0  0
   46.9640   33.2530   44.4370 C   0  0  0  0  0  0  0  0  0  0  0  0
   46.5290   32.9130   45.7310 C   0  0  0  0  0  0  0  0  0  0  0  0
   45.5000   33.6250   46.2980 C   0  0  0  0  0  0  0  0  0  0  0  0
   44.9420   34.6330   45.5820 N   0  0  0  0  0  0  0  0  0  0  0  0
   45.3580   34.9540   44.3500 C   0  0  0  0  0  0  0  0  0  0  0  0
   46.3660   34.2730   43.7700 N   0  0  0  0  0  0  0  0  0  0  0  0
   47.7620   32.7540   43.9110 H   0  0  0  0  0  0  0  0  0  0  0  0
   47.0960   32.0900   46.1200 H   0  0  0  0  0  0  0  0  0  0  0  0
   44.8030   35.7860   43.9180 H   0  0  0  0  0  0  0  0  0  0  0  0
   47.5270   32.2150   48.3890 O   0  0  0  0  0  0  0  0  0  0  0  0
   48.5500   31.3500   48.5990 C   0  0  0  0  0  0  0  0  0  0  0  0
   49.0140   31.3710   49.7910 O   0  0  0  0  0  0  0  0  0  0  0  0
   49.4620   30.3730   48.2400 O   0  0  0  0  0  0  0  0  0  0  0  0
   49.7610   27.9210   49.1500 O   0  0  0  0  0  0  0  0  0  0  0  0
   49.1000   28.7370   48.0590 P   0  0  0  0  0  0  0  0  0  0  0  0
   47.4450   28.4840   48.0150 O   0  0  0  0  0  0  0  0  0  0  0  0
   46.9500   29.0700   48.6360 H   0  0  0  0  0  0  0  0  0  0  0  0
   49.8060   28.2590   46.5720 O   0  0  0  0  0  0  0  0  0  0  0  0
   50.6660   27.8450   46.7420 H   0  0  0  0  0  0  0  0  0  0  0  0
  2  1  2  6  0  0  0
  2 15  1  0  0  0  0
  2  3  1  0  0  0  0
  3  4  1  0  0  0  0
  5  2  1  0  0  0  0
  6  7  1  0  0  0  0
  7 13  1  0  0  0  0
  7  8  2  0  0  0  0
  8  5  1  0  0  0  0
  9  8  1  0  0  0  0
 10  9  2  0  0  0  0
 11 10  1  0  0  0  0
 11  6  2  0  0  0  0
 12  6  1  0  0  0  0
 14 10  1  0  0  0  0
 15 16  1  0  0  0  0
 16 17  2  0  0  0  0
 18 16  1  0  0  0  0
 20 18  1  0  0  0  0
 20 19  2  0  0  0  0
 21 20  1  0  0  0  0
 21 22  1  0  0  0  0
 23 24  1  0  0  0  0
 23 20  1  0  0  0  0
M  END
>  <minimizedAffinity>
-4.34114933

>  <minimizedRMSD>
1.24057078

$$$$
