
 OpenBabel03242512053D

 18 18  0  0  0  0  0  0  0  0999 V2000
   45.8500   35.3990   42.9230 C   0  0  0  0  0  0  0  0  0  0  0  0
   46.2710   34.2210   43.5360 C   0  0  0  0  0  0  0  0  0  0  0  0
   45.7640   33.9360   44.8150 C   0  0  0  0  0  0  0  0  0  0  0  0
   44.8970   34.8100   45.3910 N   0  0  0  0  0  0  0  0  0  0  0  0
   44.5190   35.9470   44.7470 C   0  0  0  0  0  0  0  0  0  0  0  0
   44.9860   36.2390   43.5330 N   0  0  0  0  0  0  0  0  0  0  0  0
   46.1960   35.6880   41.9380 H   0  0  0  0  0  0  0  0  0  0  0  0
   46.0640   33.0250   45.3360 H   0  0  0  0  0  0  0  0  0  0  0  0
   43.8190   36.5350   45.3490 H   0  0  0  0  0  0  0  0  0  0  0  0
   47.1810   33.3330   42.8950 C   0  0  0  0  0  0  0  0  0  0  0  0
   46.7300   32.6230   41.9470 O   0  0  0  0  0  0  0  0  0  0  0  0
   48.5140   33.2480   43.2950 O   0  0  0  0  0  0  0  0  0  0  0  0
   50.9740   32.9920   42.2660 O   0  0  0  0  0  0  0  0  0  0  0  0
   49.8020   33.9190   42.3510 P   0  0  0  0  0  0  0  0  0  0  0  0
   50.2590   35.3500   43.1600 O   0  0  0  0  0  0  0  0  0  0  0  0
   49.4860   35.9760   43.1600 H   0  0  0  0  0  0  0  0  0  0  0  0
   49.2190   34.3980   40.8420 O   0  0  0  0  0  0  0  0  0  0  0  0
   48.6450   35.1960   40.9780 H   0  0  0  0  0  0  0  0  0  0  0  0
  1  6  2  0  0  0  0
  1  2  1  0  0  0  0
  2  3  2  0  0  0  0
  3  8  1  0  0  0  0
  3  4  1  0  0  0  0
  5  9  1  0  0  0  0
  5  4  2  0  0  0  0
  6  5  1  0  0  0  0
  7  1  1  0  0  0  0
 10 12  1  0  0  0  0
 10  2  1  0  0  0  0
 11 10  2  0  0  0  0
 13 14  2  0  0  0  0
 14 15  1  0  0  0  0
 14 12  1  0  0  0  0
 15 16  1  0  0  0  0
 17 18  1  0  0  0  0
 17 14  1  0  0  0  0
M  END
>  <minimizedAffinity>
-4.66388273

>  <minimizedRMSD>
3.38323975

$$$$
