
 OpenBabel03242522523D

 24 24  0  0  0  0  0  0  0  0999 V2000
   38.2650   30.1390   42.4610 O   0  0  0  0  0  0  0  0  0  0  0  0
   37.1370   29.4310   41.6860 P   0  0  2  0  0  0  0  0  0  0  0  0
   35.8340   30.5010   41.6820 O   0  0  0  0  0  0  0  0  0  0  0  0
   35.2960   30.3980   40.8580 H   0  0  0  0  0  0  0  0  0  0  0  0
   36.7210   28.0250   42.5340 O   0  0  0  0  0  0  0  0  0  0  0  0
   38.2140   24.7370   42.1160 C   0  0  0  0  0  0  0  0  0  0  0  0
   37.3340   25.8300   42.0020 C   0  0  0  0  0  0  0  0  0  0  0  0
   37.6190   26.9890   42.6830 C   0  0  0  0  0  0  0  0  0  0  0  0
   38.7440   27.0330   43.4400 N   0  0  0  0  0  0  0  0  0  0  0  0
   39.5790   25.9920   43.5450 C   0  0  0  0  0  0  0  0  0  0  0  0
   39.3240   24.8420   42.8900 N   0  0  0  0  0  0  0  0  0  0  0  0
   38.0750   23.7890   41.6220 H   0  0  0  0  0  0  0  0  0  0  0  0
   36.5110   25.5920   41.3570 H   0  0  0  0  0  0  0  0  0  0  0  0
   40.4310   26.1950   44.1910 H   0  0  0  0  0  0  0  0  0  0  0  0
   37.6240   29.0540   40.1530 O   0  0  0  0  0  0  0  0  0  0  0  0
   37.8460   29.8420   39.0730 C   0  0  0  0  0  0  0  0  0  0  0  0
   36.8370   30.5480   38.7250 O   0  0  0  0  0  0  0  0  0  0  0  0
   38.5980   30.3730   38.0370 O   0  0  0  0  0  0  0  0  0  0  0  0
   40.6610   31.6680   39.0330 O   0  0  0  0  0  0  0  0  0  0  0  0
   39.4640   31.8170   38.1200 P   0  0  0  0  0  0  0  0  0  0  0  0
   39.9100   32.3440   36.5940 O   0  0  0  0  0  0  0  0  0  0  0  0
   40.1700   31.6050   35.9930 H   0  0  0  0  0  0  0  0  0  0  0  0
   38.4100   32.9560   38.8480 O   0  0  0  0  0  0  0  0  0  0  0  0
   38.6070   33.0160   39.7970 H   0  0  0  0  0  0  0  0  0  0  0  0
  2  1  2  1  0  0  0
  2  5  1  0  0  0  0
  3  2  1  0  0  0  0
  4  3  1  0  0  0  0
  5  8  1  0  0  0  0
  6 11  1  0  0  0  0
  7  6  2  0  0  0  0
  7  8  1  0  0  0  0
  8  9  2  0  0  0  0
  9 10  1  0  0  0  0
 10 14  1  0  0  0  0
 11 10  2  0  0  0  0
 12  6  1  0  0  0  0
 13  7  1  0  0  0  0
 15  2  1  0  0  0  0
 16 15  1  0  0  0  0
 17 16  2  0  0  0  0
 18 20  1  0  0  0  0
 18 16  1  0  0  0  0
 20 23  1  0  0  0  0
 20 19  2  0  0  0  0
 21 20  1  0  0  0  0
 22 21  1  0  0  0  0
 23 24  1  0  0  0  0
M  END
>  <minimizedAffinity>
-4.78939056

$$$$

 OpenBabel03242522523D

 24 24  0  0  0  0  0  0  0  0999 V2000
   37.6880   27.0780   43.5800 O   0  0  0  0  0  0  0  0  0  0  0  0
   37.6660   27.9910   42.3380 P   0  0  2  0  0  0  0  0  0  0  0  0
   36.0500   28.4020   42.0930 O   0  0  0  0  0  0  0  0  0  0  0  0
   35.9730   29.3060   41.6960 H   0  0  0  0  0  0  0  0  0  0  0  0
   38.2360   27.0940   41.0190 O   0  0  0  0  0  0  0  0  0  0  0  0
   36.4790   23.9960   40.2910 C   0  0  0  0  0  0  0  0  0  0  0  0
   36.7780   25.3650   40.4140 C   0  0  0  0  0  0  0  0  0  0  0  0
   37.9990   25.7390   40.9220 C   0  0  0  0  0  0  0  0  0  0  0  0
   38.8710   24.7660   41.2860 N   0  0  0  0  0  0  0  0  0  0  0  0
   38.5840   23.4640   41.1670 C   0  0  0  0  0  0  0  0  0  0  0  0
   37.3940   23.0680   40.6740 N   0  0  0  0  0  0  0  0  0  0  0  0
   35.5510   23.6070   39.9060 H   0  0  0  0  0  0  0  0  0  0  0  0
   35.9600   25.9670   40.0690 H   0  0  0  0  0  0  0  0  0  0  0  0
   39.3930   22.8180   41.5050 H   0  0  0  0  0  0  0  0  0  0  0  0
   38.6100   29.3260   42.5740 O   0  0  0  0  0  0  0  0  0  0  0  0
   38.7900   30.4330   41.8110 C   0  0  0  0  0  0  0  0  0  0  0  0
   39.7370   31.1940   42.2130 O   0  0  0  0  0  0  0  0  0  0  0  0
   38.5210   31.2900   40.7580 O   0  0  0  0  0  0  0  0  0  0  0  0
   36.7480   31.1840   38.8160 O   0  0  0  0  0  0  0  0  0  0  0  0
   36.9760   31.6990   40.2210 P   0  0  0  0  0  0  0  0  0  0  0  0
   35.8020   31.1490   41.2800 O   0  0  0  0  0  0  0  0  0  0  0  0
   36.0120   30.2630   41.6610 H   0  0  0  0  0  0  0  0  0  0  0  0
   36.9420   33.4110   40.1440 O   0  0  0  0  0  0  0  0  0  0  0  0
   37.1180   33.6960   39.2330 H   0  0  0  0  0  0  0  0  0  0  0  0
  2 15  1  0  0  0  0
  2  1  2  1  0  0  0
  3  2  1  0  0  0  0
  4  3  1  0  0  0  0
  5  2  1  0  0  0  0
  6  7  2  0  0  0  0
  6 11  1  0  0  0  0
  7  8  1  0  0  0  0
  8  5  1  0  0  0  0
  8  9  2  0  0  0  0
 10  9  1  0  0  0  0
 10 14  1  0  0  0  0
 11 10  2  0  0  0  0
 12  6  1  0  0  0  0
 13  7  1  0  0  0  0
 16 17  2  0  0  0  0
 16 15  1  0  0  0  0
 18 16  1  0  0  0  0
 19 20  2  0  0  0  0
 20 18  1  0  0  0  0
 20 21  1  0  0  0  0
 21 22  1  0  0  0  0
 23 20  1  0  0  0  0
 24 23  1  0  0  0  0
M  END
>  <minimizedAffinity>
-4.73511362

$$$$

 OpenBabel03242522523D

 24 24  0  0  0  0  0  0  0  0999 V2000
   37.3380   32.7560   40.6170 O   0  0  0  0  0  0  0  0  0  0  0  0
   37.0870   31.2360   40.5830 P   0  0  2  0  0  0  0  0  0  0  0  0
   35.5920   30.9950   41.3230 O   0  0  0  0  0  0  0  0  0  0  0  0
   35.1270   30.2130   40.9330 H   0  0  0  0  0  0  0  0  0  0  0  0
   38.3040   30.4840   41.4910 O   0  0  0  0  0  0  0  0  0  0  0  0
   38.9890   27.4650   43.3950 C   0  0  0  0  0  0  0  0  0  0  0  0
   39.1020   28.7610   42.8590 C   0  0  0  0  0  0  0  0  0  0  0  0
   38.1400   29.2070   41.9840 C   0  0  0  0  0  0  0  0  0  0  0  0
   37.1150   28.3750   41.6740 N   0  0  0  0  0  0  0  0  0  0  0  0
   37.0100   27.1430   42.1870 C   0  0  0  0  0  0  0  0  0  0  0  0
   37.9390   26.6780   43.0450 N   0  0  0  0  0  0  0  0  0  0  0  0
   39.6910   27.0280   44.0860 H   0  0  0  0  0  0  0  0  0  0  0  0
   39.9780   29.2540   43.2320 H   0  0  0  0  0  0  0  0  0  0  0  0
   36.1290   26.6100   41.8330 H   0  0  0  0  0  0  0  0  0  0  0  0
   37.0990   30.6730   39.0290 O   0  0  0  0  0  0  0  0  0  0  0  0
   37.8350   31.0500   37.9540 C   0  0  0  0  0  0  0  0  0  0  0  0
   37.3300   30.7050   36.8300 O   0  0  0  0  0  0  0  0  0  0  0  0
   38.9090   31.6420   37.3120 O   0  0  0  0  0  0  0  0  0  0  0  0
   40.9070   31.4290   39.0120 O   0  0  0  0  0  0  0  0  0  0  0  0
   40.1980   32.4000   38.0920 P   0  0  0  0  0  0  0  0  0  0  0  0
   41.2510   33.0910   36.9900 O   0  0  0  0  0  0  0  0  0  0  0  0
   41.3730   32.5430   36.1780 H   0  0  0  0  0  0  0  0  0  0  0  0
   39.5010   33.6150   39.0790 O   0  0  0  0  0  0  0  0  0  0  0  0
   39.4080   33.2810   39.9860 H   0  0  0  0  0  0  0  0  0  0  0  0
  2  1  2  6  0  0  0
  2  3  1  0  0  0  0
  2  5  1  0  0  0  0
  4  3  1  0  0  0  0
  5  8  1  0  0  0  0
  6 12  1  0  0  0  0
  7 13  1  0  0  0  0
  7  6  2  0  0  0  0
  8  7  1  0  0  0  0
  9  8  2  0  0  0  0
  9 10  1  0  0  0  0
 10 11  2  0  0  0  0
 11  6  1  0  0  0  0
 14 10  1  0  0  0  0
 15  2  1  0  0  0  0
 16 15  1  0  0  0  0
 17 16  2  0  0  0  0
 18 16  1  0  0  0  0
 18 20  1  0  0  0  0
 20 19  2  0  0  0  0
 20 23  1  0  0  0  0
 21 20  1  0  0  0  0
 22 21  1  0  0  0  0
 23 24  1  0  0  0  0
M  END
>  <minimizedAffinity>
-4.67407084

$$$$

 OpenBabel03242522523D

 24 24  0  0  0  0  0  0  0  0999 V2000
   40.9650   30.9050   38.2530 O   0  0  0  0  0  0  0  0  0  0  0  0
   40.0970   32.1770   38.1780 P   0  0  2  0  0  0  0  0  0  0  0  0
   39.6120   32.3120   36.5690 O   0  0  0  0  0  0  0  0  0  0  0  0
   38.7200   32.7360   36.5040 H   0  0  0  0  0  0  0  0  0  0  0  0
   41.0680   33.4990   38.5960 O   0  0  0  0  0  0  0  0  0  0  0  0
   44.3190   33.6920   40.2110 C   0  0  0  0  0  0  0  0  0  0  0  0
   43.3010   33.7740   39.2430 C   0  0  0  0  0  0  0  0  0  0  0  0
   42.0240   33.3980   39.5850 C   0  0  0  0  0  0  0  0  0  0  0  0
   41.7960   32.9620   40.8490 N   0  0  0  0  0  0  0  0  0  0  0  0
   42.7680   32.8860   41.7680 C   0  0  0  0  0  0  0  0  0  0  0  0
   44.0290   33.2470   41.4600 N   0  0  0  0  0  0  0  0  0  0  0  0
   45.3470   33.9630   40.0370 H   0  0  0  0  0  0  0  0  0  0  0  0
   43.6860   34.1450   38.3140 H   0  0  0  0  0  0  0  0  0  0  0  0
   42.4150   32.5160   42.7290 H   0  0  0  0  0  0  0  0  0  0  0  0
   38.8040   32.0670   39.2000 O   0  0  0  0  0  0  0  0  0  0  0  0
   38.4590   31.1090   40.0960 C   0  0  0  0  0  0  0  0  0  0  0  0
   38.6590   31.4380   41.3160 O   0  0  0  0  0  0  0  0  0  0  0  0
   37.9720   29.8740   40.4890 O   0  0  0  0  0  0  0  0  0  0  0  0
   35.8080   28.4700   41.0140 O   0  0  0  0  0  0  0  0  0  0  0  0
   36.6380   29.6410   41.4940 P   0  0  0  0  0  0  0  0  0  0  0  0
   37.1070   29.4550   43.0900 O   0  0  0  0  0  0  0  0  0  0  0  0
   37.9400   28.9340   43.1880 H   0  0  0  0  0  0  0  0  0  0  0  0
   35.6720   31.0470   41.3270 O   0  0  0  0  0  0  0  0  0  0  0  0
   34.9660   30.8790   40.6820 H   0  0  0  0  0  0  0  0  0  0  0  0
  2  1  2  1  0  0  0
  2  5  1  0  0  0  0
  2 15  1  0  0  0  0
  3  2  1  0  0  0  0
  4  3  1  0  0  0  0
  5  8  1  0  0  0  0
  6 11  1  0  0  0  0
  7  8  1  0  0  0  0
  7  6  2  0  0  0  0
  8  9  2  0  0  0  0
  9 10  1  0  0  0  0
 10 14  1  0  0  0  0
 11 10  2  0  0  0  0
 12  6  1  0  0  0  0
 13  7  1  0  0  0  0
 15 16  1  0  0  0  0
 16 18  1  0  0  0  0
 16 17  2  0  0  0  0
 18 20  1  0  0  0  0
 19 20  2  0  0  0  0
 20 21  1  0  0  0  0
 21 22  1  0  0  0  0
 23 20  1  0  0  0  0
 24 23  1  0  0  0  0
M  END
>  <minimizedAffinity>
-4.58011866

$$$$

 OpenBabel03242522523D

 24 24  0  0  0  0  0  0  0  0999 V2000
   34.9010   29.0210   40.6650 O   0  0  0  0  0  0  0  0  0  0  0  0
   36.3480   29.5210   40.8380 P   0  0  2  0  0  0  0  0  0  0  0  0
   37.2520   28.7470   39.6450 O   0  0  0  0  0  0  0  0  0  0  0  0
   38.0020   29.3180   39.3430 H   0  0  0  0  0  0  0  0  0  0  0  0
   36.8890   29.0400   42.3690 O   0  0  0  0  0  0  0  0  0  0  0  0
   39.5110   26.8260   43.5670 C   0  0  0  0  0  0  0  0  0  0  0  0
   38.7220   27.9720   43.3590 C   0  0  0  0  0  0  0  0  0  0  0  0
   37.6240   27.8860   42.5370 C   0  0  0  0  0  0  0  0  0  0  0  0
   37.3440   26.6910   41.9570 N   0  0  0  0  0  0  0  0  0  0  0  0
   38.0970   25.6030   42.1580 C   0  0  0  0  0  0  0  0  0  0  0  0
   39.1800   25.6580   42.9580 N   0  0  0  0  0  0  0  0  0  0  0  0
   40.3890   26.7960   44.1920 H   0  0  0  0  0  0  0  0  0  0  0  0
   39.1090   28.8080   43.9070 H   0  0  0  0  0  0  0  0  0  0  0  0
   37.7340   24.7300   41.6190 H   0  0  0  0  0  0  0  0  0  0  0  0
   36.4230   31.1650   40.6930 O   0  0  0  0  0  0  0  0  0  0  0  0
   37.1370   31.9510   39.8490 C   0  0  0  0  0  0  0  0  0  0  0  0
   37.7620   32.9060   40.4270 O   0  0  0  0  0  0  0  0  0  0  0  0
   37.6230   32.3540   38.6160 O   0  0  0  0  0  0  0  0  0  0  0  0
   39.3040   30.3490   38.3270 O   0  0  0  0  0  0  0  0  0  0  0  0
   38.4950   31.3710   37.5580 P   0  0  0  0  0  0  0  0  0  0  0  0
   37.4860   30.6460   36.4360 O   0  0  0  0  0  0  0  0  0  0  0  0
   36.6190   30.3720   36.8190 H   0  0  0  0  0  0  0  0  0  0  0  0
   39.6070   32.4060   36.7650 O   0  0  0  0  0  0  0  0  0  0  0  0
   40.4700   32.3530   37.2090 H   0  0  0  0  0  0  0  0  0  0  0  0
  2  1  2  6  0  0  0
  2  5  1  0  0  0  0
  3  2  1  0  0  0  0
  4  3  1  0  0  0  0
  5  8  1  0  0  0  0
  6 12  1  0  0  0  0
  7  6  1  0  0  0  0
  7 13  1  0  0  0  0
  8  7  2  0  0  0  0
  9 10  2  0  0  0  0
  9  8  1  0  0  0  0
 10 11  1  0  0  0  0
 11  6  2  0  0  0  0
 14 10  1  0  0  0  0
 15  2  1  0  0  0  0
 16 17  2  0  0  0  0
 16 15  1  0  0  0  0
 18 16  1  0  0  0  0
 20 19  2  0  0  0  0
 20 18  1  0  0  0  0
 21 22  1  0  0  0  0
 21 20  1  0  0  0  0
 23 24  1  0  0  0  0
 23 20  1  0  0  0  0
M  END
>  <minimizedAffinity>
-4.57211637

$$$$

 OpenBabel03242522523D

 24 24  0  0  0  0  0  0  0  0999 V2000
   38.8000   29.4000   41.5030 O   0  0  0  0  0  0  0  0  0  0  0  0
   37.2750   29.6070   41.5920 P   0  0  2  0  0  0  0  0  0  0  0  0
   36.8650   29.3460   43.2060 O   0  0  0  0  0  0  0  0  0  0  0  0
   36.0920   29.9050   43.4690 H   0  0  0  0  0  0  0  0  0  0  0  0
   36.5300   28.4420   40.6160 O   0  0  0  0  0  0  0  0  0  0  0  0
   36.8030   24.8880   39.9020 C   0  0  0  0  0  0  0  0  0  0  0  0
   36.6140   26.2730   39.7400 C   0  0  0  0  0  0  0  0  0  0  0  0
   36.7270   27.0950   40.8360 C   0  0  0  0  0  0  0  0  0  0  0  0
   37.0190   26.5340   42.0360 N   0  0  0  0  0  0  0  0  0  0  0  0
   37.2000   25.2160   42.1860 C   0  0  0  0  0  0  0  0  0  0  0  0
   37.0940   24.3860   41.1300 N   0  0  0  0  0  0  0  0  0  0  0  0
   36.7340   24.1660   39.1050 H   0  0  0  0  0  0  0  0  0  0  0  0
   36.3950   26.5110   38.7180 H   0  0  0  0  0  0  0  0  0  0  0  0
   37.4270   24.9330   43.2130 H   0  0  0  0  0  0  0  0  0  0  0  0
   36.8590   31.1260   41.0930 O   0  0  0  0  0  0  0  0  0  0  0  0
   37.1970   31.8180   39.9770 C   0  0  0  0  0  0  0  0  0  0  0  0
   37.5490   33.0280   40.2000 O   0  0  0  0  0  0  0  0  0  0  0  0
   37.4010   31.9890   38.6180 O   0  0  0  0  0  0  0  0  0  0  0  0
   39.7250   30.7560   38.6270 O   0  0  0  0  0  0  0  0  0  0  0  0
   38.6060   31.2240   37.7210 P   0  0  0  0  0  0  0  0  0  0  0  0
   37.9790   29.9670   36.8110 O   0  0  0  0  0  0  0  0  0  0  0  0
   37.2730   29.4650   37.2840 H   0  0  0  0  0  0  0  0  0  0  0  0
   39.2590   32.4260   36.6890 O   0  0  0  0  0  0  0  0  0  0  0  0
   40.0660   32.7910   37.0890 H   0  0  0  0  0  0  0  0  0  0  0  0
  2  1  2  6  0  0  0
  2  3  1  0  0  0  0
  3  4  1  0  0  0  0
  5  8  1  0  0  0  0
  5  2  1  0  0  0  0
  6 11  1  0  0  0  0
  7  6  2  0  0  0  0
  7  8  1  0  0  0  0
  8  9  2  0  0  0  0
  9 10  1  0  0  0  0
 10 14  1  0  0  0  0
 11 10  2  0  0  0  0
 12  6  1  0  0  0  0
 13  7  1  0  0  0  0
 15  2  1  0  0  0  0
 16 17  2  0  0  0  0
 16 15  1  0  0  0  0
 18 16  1  0  0  0  0
 20 18  1  0  0  0  0
 20 19  2  0  0  0  0
 21 22  1  0  0  0  0
 21 20  1  0  0  0  0
 23 24  1  0  0  0  0
 23 20  1  0  0  0  0
M  END
>  <minimizedAffinity>
-4.56468344

$$$$

 OpenBabel03242522523D

 24 24  0  0  0  0  0  0  0  0999 V2000
   39.2460   30.4860   42.9770 O   0  0  0  0  0  0  0  0  0  0  0  0
   38.3850   29.2800   42.5530 P   0  0  2  0  0  0  0  0  0  0  0  0
   37.1010   29.2210   43.6430 O   0  0  0  0  0  0  0  0  0  0  0  0
   36.2870   28.8600   43.2100 H   0  0  0  0  0  0  0  0  0  0  0  0
   39.3300   27.8830   42.7040 O   0  0  0  0  0  0  0  0  0  0  0  0
   39.1840   24.2830   42.2250 C   0  0  0  0  0  0  0  0  0  0  0  0
   39.6770   25.5850   42.4280 C   0  0  0  0  0  0  0  0  0  0  0  0
   38.7890   26.6300   42.5050 C   0  0  0  0  0  0  0  0  0  0  0  0
   37.4650   26.3620   42.3830 N   0  0  0  0  0  0  0  0  0  0  0  0
   36.9990   25.1210   42.1900 C   0  0  0  0  0  0  0  0  0  0  0  0
   37.8470   24.0770   42.1090 N   0  0  0  0  0  0  0  0  0  0  0  0
   39.8010   23.4020   42.1500 H   0  0  0  0  0  0  0  0  0  0  0  0
   40.7470   25.5810   42.5010 H   0  0  0  0  0  0  0  0  0  0  0  0
   35.9130   25.0830   42.1130 H   0  0  0  0  0  0  0  0  0  0  0  0
   37.8590   29.4520   40.9960 O   0  0  0  0  0  0  0  0  0  0  0  0
   38.3070   30.2420   39.9890 C   0  0  0  0  0  0  0  0  0  0  0  0
   37.9970   29.8240   38.8200 O   0  0  0  0  0  0  0  0  0  0  0  0
   38.9640   31.3340   39.4460 O   0  0  0  0  0  0  0  0  0  0  0  0
   37.4280   33.4350   39.8340 O   0  0  0  0  0  0  0  0  0  0  0  0
   38.8370   32.9150   40.0180 P   0  0  0  0  0  0  0  0  0  0  0  0
   39.3340   33.0240   41.6130 O   0  0  0  0  0  0  0  0  0  0  0  0
   39.0660   32.2420   42.1530 H   0  0  0  0  0  0  0  0  0  0  0  0
   39.8600   33.8590   39.0190 O   0  0  0  0  0  0  0  0  0  0  0  0
   39.3310   34.2810   38.3220 H   0  0  0  0  0  0  0  0  0  0  0  0
  2  5  1  0  0  0  0
  2  1  2  1  0  0  0
  2  3  1  0  0  0  0
  4  3  1  0  0  0  0
  6  7  1  0  0  0  0
  7 13  1  0  0  0  0
  7  8  2  0  0  0  0
  8  5  1  0  0  0  0
  9  8  1  0  0  0  0
 10  9  2  0  0  0  0
 11 10  1  0  0  0  0
 11  6  2  0  0  0  0
 12  6  1  0  0  0  0
 14 10  1  0  0  0  0
 15  2  1  0  0  0  0
 16 15  1  0  0  0  0
 17 16  2  0  0  0  0
 18 16  1  0  0  0  0
 18 20  1  0  0  0  0
 19 20  2  0  0  0  0
 20 21  1  0  0  0  0
 21 22  1  0  0  0  0
 23 20  1  0  0  0  0
 24 23  1  0  0  0  0
M  END
>  <minimizedAffinity>
-4.45646954

$$$$

 OpenBabel03242522523D

 24 24  0  0  0  0  0  0  0  0999 V2000
   39.1190   28.0830   43.3310 O   0  0  0  0  0  0  0  0  0  0  0  0
   37.7010   28.1360   42.7300 P   0  0  2  0  0  0  0  0  0  0  0  0
   36.8340   29.2250   43.6800 O   0  0  0  0  0  0  0  0  0  0  0  0
   36.1500   29.6960   43.1410 H   0  0  0  0  0  0  0  0  0  0  0  0
   37.0180   26.5910   42.8610 O   0  0  0  0  0  0  0  0  0  0  0  0
   37.1550   23.6640   40.7110 C   0  0  0  0  0  0  0  0  0  0  0  0
   36.6720   24.7740   41.4270 C   0  0  0  0  0  0  0  0  0  0  0  0
   37.5490   25.5160   42.1810 C   0  0  0  0  0  0  0  0  0  0  0  0
   38.8540   25.1460   42.2020 N   0  0  0  0  0  0  0  0  0  0  0  0
   39.3110   24.0890   41.5190 C   0  0  0  0  0  0  0  0  0  0  0  0
   38.4730   23.3420   40.7730 N   0  0  0  0  0  0  0  0  0  0  0  0
   36.5450   23.0230   40.0960 H   0  0  0  0  0  0  0  0  0  0  0  0
   35.6170   24.8970   41.2750 H   0  0  0  0  0  0  0  0  0  0  0  0
   40.3810   23.9320   41.6450 H   0  0  0  0  0  0  0  0  0  0  0  0
   37.7510   28.6080   41.1470 O   0  0  0  0  0  0  0  0  0  0  0  0
   37.5580   29.8230   40.5760 C   0  0  0  0  0  0  0  0  0  0  0  0
   36.7980   30.6010   41.2500 O   0  0  0  0  0  0  0  0  0  0  0  0
   37.7220   30.7940   39.6020 O   0  0  0  0  0  0  0  0  0  0  0  0
   39.1980   32.8420   38.8600 O   0  0  0  0  0  0  0  0  0  0  0  0
   38.1980   32.3840   39.8990 P   0  0  0  0  0  0  0  0  0  0  0  0
   36.8760   33.4070   39.9800 O   0  0  0  0  0  0  0  0  0  0  0  0
   36.1720   33.1790   39.3260 H   0  0  0  0  0  0  0  0  0  0  0  0
   39.0120   32.3570   41.4070 O   0  0  0  0  0  0  0  0  0  0  0  0
   39.9700   32.3080   41.2560 H   0  0  0  0  0  0  0  0  0  0  0  0
  2  5  1  0  0  0  0
  2  1  2  1  0  0  0
  2  3  1  0  0  0  0
  4  3  1  0  0  0  0
  6 11  2  0  0  0  0
  6  7  1  0  0  0  0
  7  8  2  0  0  0  0
  8  9  1  0  0  0  0
  8  5  1  0  0  0  0
 10 14  1  0  0  0  0
 10  9  2  0  0  0  0
 11 10  1  0  0  0  0
 12  6  1  0  0  0  0
 13  7  1  0  0  0  0
 15  2  1  0  0  0  0
 16 15  1  0  0  0  0
 16 17  2  0  0  0  0
 18 20  1  0  0  0  0
 18 16  1  0  0  0  0
 19 20  2  0  0  0  0
 20 21  1  0  0  0  0
 20 23  1  0  0  0  0
 22 21  1  0  0  0  0
 24 23  1  0  0  0  0
M  END
>  <minimizedAffinity>
-4.45369053

$$$$

 OpenBabel03242522523D

 24 24  0  0  0  0  0  0  0  0999 V2000
   35.8940   28.6090   40.2580 O   0  0  0  0  0  0  0  0  0  0  0  0
   36.6420   29.5690   41.2040 P   0  0  2  0  0  0  0  0  0  0  0  0
   35.5820   30.8450   41.5030 O   0  0  0  0  0  0  0  0  0  0  0  0
   35.7230   31.2160   42.4100 H   0  0  0  0  0  0  0  0  0  0  0  0
   38.0130   30.1420   40.3910 O   0  0  0  0  0  0  0  0  0  0  0  0
   39.8440   33.2770   40.5590 C   0  0  0  0  0  0  0  0  0  0  0  0
   39.5260   31.9090   40.6460 C   0  0  0  0  0  0  0  0  0  0  0  0
   38.2670   31.4920   40.2840 C   0  0  0  0  0  0  0  0  0  0  0  0
   37.3780   32.4230   39.8550 N   0  0  0  0  0  0  0  0  0  0  0  0
   37.6850   33.7240   39.7730 C   0  0  0  0  0  0  0  0  0  0  0  0
   38.9110   34.1610   40.1220 N   0  0  0  0  0  0  0  0  0  0  0  0
   40.8010   33.6970   40.8200 H   0  0  0  0  0  0  0  0  0  0  0  0
   40.3640   31.3440   41.0030 H   0  0  0  0  0  0  0  0  0  0  0  0
   36.8580   34.3330   39.4110 H   0  0  0  0  0  0  0  0  0  0  0  0
   37.0810   28.7980   42.5970 O   0  0  0  0  0  0  0  0  0  0  0  0
   38.0130   27.8410   42.8270 C   0  0  0  0  0  0  0  0  0  0  0  0
   39.1870   28.2990   43.0510 O   0  0  0  0  0  0  0  0  0  0  0  0
   38.4720   26.5420   42.9720 O   0  0  0  0  0  0  0  0  0  0  0  0
   39.6540   25.2140   41.0320 O   0  0  0  0  0  0  0  0  0  0  0  0
   38.3530   25.3420   41.7930 P   0  0  0  0  0  0  0  0  0  0  0  0
   37.8790   23.8820   42.4610 O   0  0  0  0  0  0  0  0  0  0  0  0
   38.2830   23.7150   43.3460 H   0  0  0  0  0  0  0  0  0  0  0  0
   37.1680   25.8910   40.6830 O   0  0  0  0  0  0  0  0  0  0  0  0
   37.6070   26.3120   39.9260 H   0  0  0  0  0  0  0  0  0  0  0  0
  2  1  2  6  0  0  0
  2  3  1  0  0  0  0
  2 15  1  0  0  0  0
  3  4  1  0  0  0  0
  5  2  1  0  0  0  0
  6  7  1  0  0  0  0
  6 12  1  0  0  0  0
  7 13  1  0  0  0  0
  8  5  1  0  0  0  0
  8  7  2  0  0  0  0
  9  8  1  0  0  0  0
 10  9  2  0  0  0  0
 10 11  1  0  0  0  0
 11  6  2  0  0  0  0
 14 10  1  0  0  0  0
 15 16  1  0  0  0  0
 16 18  1  0  0  0  0
 16 17  2  0  0  0  0
 19 20  2  0  0  0  0
 20 21  1  0  0  0  0
 20 18  1  0  0  0  0
 21 22  1  0  0  0  0
 23 20  1  0  0  0  0
 24 23  1  0  0  0  0
M  END
>  <minimizedAffinity>
-4.43322802

$$$$
