
 OpenBabel03242512273D

 20 20  0  0  0  0  0  0  0  0999 V2000
   44.9590   34.9850   44.5500 C   0  0  0  0  0  0  0  0  0  0  0  0
   45.8940   34.8370   43.5230 C   0  0  0  0  0  0  0  0  0  0  0  0
   46.9560   33.9290   43.6440 C   0  0  0  0  0  0  0  0  0  0  0  0
   47.0080   33.2250   44.7920 N   0  0  0  0  0  0  0  0  0  0  0  0
   46.1050   33.3720   45.7740 C   0  0  0  0  0  0  0  0  0  0  0  0
   45.0910   34.2480   45.6450 N   0  0  0  0  0  0  0  0  0  0  0  0
   43.9070   35.9120   44.3820 N   0  0  0  0  0  0  0  0  0  0  0  0
   45.8690   35.3920   42.5950 H   0  0  0  0  0  0  0  0  0  0  0  0
   47.6980   33.7900   42.8680 H   0  0  0  0  0  0  0  0  0  0  0  0
   44.2290   36.8740   44.2120 H   0  0  0  0  0  0  0  0  0  0  0  0
   42.8960   35.6610   44.4250 H   0  0  0  0  0  0  0  0  0  0  0  0
   46.1680   32.6040   47.0180 C   0  0  0  0  0  0  0  0  0  0  0  0
   45.3780   32.7890   47.9690 O   0  0  0  0  0  0  0  0  0  0  0  0
   47.1590   31.6330   47.1200 O   0  0  0  0  0  0  0  0  0  0  0  0
   48.8110   31.6460   49.2350 O   0  0  0  0  0  0  0  0  0  0  0  0
   47.6230   30.9720   48.6360 P   0  0  0  0  0  0  0  0  0  0  0  0
   48.0510   29.3520   48.3130 O   0  0  0  0  0  0  0  0  0  0  0  0
   47.5570   29.0120   47.5210 H   0  0  0  0  0  0  0  0  0  0  0  0
   46.3320   30.9280   49.7200 O   0  0  0  0  0  0  0  0  0  0  0  0
   46.6000   31.2690   50.6080 H   0  0  0  0  0  0  0  0  0  0  0  0
  1  6  1  0  0  0  0
  2  3  1  0  0  0  0
  2  1  2  0  0  0  0
  3  4  2  0  0  0  0
  4  5  1  0  0  0  0
  5 12  1  0  0  0  0
  6  5  2  0  0  0  0
  7 11  1  0  0  0  0
  7  1  1  0  0  0  0
  8  2  1  0  0  0  0
  9  3  1  0  0  0  0
 10  7  1  0  0  0  0
 12 14  1  0  0  0  0
 12 13  2  0  0  0  0
 14 16  1  0  0  0  0
 16 15  2  0  0  0  0
 16 19  1  0  0  0  0
 17 16  1  0  0  0  0
 18 17  1  0  0  0  0
 19 20  1  0  0  0  0
M  END
>  <minimizedAffinity>
-4.97893906

>  <minimizedRMSD>
1.44896221

$$$$
