
 OpenBabel03252502283D

 33 34  0  0  0  0  0  0  0  0999 V2000
   45.2280   34.2810   40.8910 C   0  0  0  0  0  0  0  0  0  0  0  0
   45.6420   34.7760   42.1290 C   0  0  0  0  0  0  0  0  0  0  0  0
   47.0050   34.9950   42.3300 C   0  0  0  0  0  0  0  0  0  0  0  0
   47.8930   34.7240   41.3320 C   0  0  0  0  0  0  0  0  0  0  0  0
   47.5050   34.2350   40.1020 C   0  0  0  0  0  0  0  0  0  0  0  0
   46.1370   34.0220   39.9180 C   0  0  0  0  0  0  0  0  0  0  0  0
   44.9300   34.9880   42.9170 H   0  0  0  0  0  0  0  0  0  0  0  0
   47.3390   35.3750   43.2770 H   0  0  0  0  0  0  0  0  0  0  0  0
   48.9440   34.9070   41.5260 H   0  0  0  0  0  0  0  0  0  0  0  0
   48.1870   34.0170   39.3070 H   0  0  0  0  0  0  0  0  0  0  0  0
   41.5220   34.7460   40.3520 C   0  0  0  0  0  0  0  0  0  0  0  0
   42.8870   35.0710   40.4760 C   0  0  0  0  0  0  0  0  0  0  0  0
   43.8000   34.0790   40.7430 C   0  0  0  0  0  0  0  0  0  0  0  0
   43.3110   32.8200   40.8740 N   0  0  0  0  0  0  0  0  0  0  0  0
   42.0020   32.5140   40.7560 C   0  0  0  0  0  0  0  0  0  0  0  0
   41.1010   33.4840   40.4920 N   0  0  0  0  0  0  0  0  0  0  0  0
   43.2520   36.0860   40.3660 H   0  0  0  0  0  0  0  0  0  0  0  0
   41.7170   31.4710   40.8800 H   0  0  0  0  0  0  0  0  0  0  0  0
   40.5370   35.8090   40.0650 C   0  0  0  0  0  0  0  0  0  0  0  0
   39.2960   35.1840   39.8600 F   0  0  0  0  0  0  0  0  0  0  0  0
   40.8700   36.3320   38.8070 F   0  0  0  0  0  0  0  0  0  0  0  0
   40.4450   36.7600   41.0330 F   0  0  0  0  0  0  0  0  0  0  0  0
   45.9560   32.5270   37.7870 C   0  0  0  0  0  0  0  0  0  0  0  0
   46.9350   31.7950   37.8680 O   0  0  0  0  0  0  0  0  0  0  0  0
   45.6000   33.5350   38.7070 N   0  0  0  0  0  0  0  0  0  0  0  0
   44.7280   34.1220   38.5260 H   0  0  0  0  0  0  0  0  0  0  0  0
   45.1100   32.3490   36.6750 O   0  0  0  0  0  0  0  0  0  0  0  0
   45.8710   30.6390   34.7730 O   0  0  0  0  0  0  0  0  0  0  0  0
   45.8810   32.0980   35.1660 P   0  0  0  0  0  0  0  0  0  0  0  0
   44.9280   32.9270   34.0130 O   0  0  0  0  0  0  0  0  0  0  0  0
   44.5580   33.7420   34.4510 H   0  0  0  0  0  0  0  0  0  0  0  0
   47.4270   32.7260   35.0960 O   0  0  0  0  0  0  0  0  0  0  0  0
   48.0990   32.0750   35.4550 H   0  0  0  0  0  0  0  0  0  0  0  0
  1  2  1  0  0  0  0
  2  3  2  0  0  0  0
  2  7  1  0  0  0  0
  3  8  1  0  0  0  0
  4  9  1  0  0  0  0
  4  3  1  0  0  0  0
  5  4  2  0  0  0  0
  6  5  1  0  0  0  0
  6  1  2  0  0  0  0
 10  5  1  0  0  0  0
 11 12  2  0  0  0  0
 11 16  1  0  0  0  0
 12 13  1  0  0  0  0
 13 14  2  0  0  0  0
 13  1  1  0  0  0  0
 15 14  1  0  0  0  0
 15 18  1  0  0  0  0
 16 15  2  0  0  0  0
 17 12  1  0  0  0  0
 19 11  1  0  0  0  0
 19 22  1  0  0  0  0
 20 19  1  0  0  0  0
 21 19  1  0  0  0  0
 23 24  2  0  0  0  0
 23 25  1  0  0  0  0
 25  6  1  0  0  0  0
 26 25  1  0  0  0  0
 27 23  1  0  0  0  0
 28 29  2  0  0  0  0
 29 27  1  0  0  0  0
 30 31  1  0  0  0  0
 30 29  1  0  0  0  0
 32 29  1  0  0  0  0
 32 33  1  0  0  0  0
M  END
>  <minimizedAffinity>
-6.70277834

>  <minimizedRMSD>
1.43739641

$$$$
