
 OpenBabel03252508003D

 27 28  0  0  1  0  0  0  0  0999 V2000
   45.7980   34.6190   43.3870 C   0  0  0  0  0  0  0  0  0  0  0  0
   44.9820   35.6320   43.9300 C   0  0  0  0  0  0  0  0  0  0  0  0
   44.6130   35.5140   45.2740 C   0  0  0  0  0  0  0  0  0  0  0  0
   45.0650   34.4330   45.9600 N   0  0  0  0  0  0  0  0  0  0  0  0
   45.8530   33.4850   45.3700 C   0  0  0  0  0  0  0  0  0  0  0  0
   46.2330   33.5490   44.1010 N   0  0  0  0  0  0  0  0  0  0  0  0
   44.6550   36.4630   43.3420 H   0  0  0  0  0  0  0  0  0  0  0  0
   43.9940   36.2670   45.7170 H   0  0  0  0  0  0  0  0  0  0  0  0
   46.3250   32.3320   46.2010 C   0  0  1  0  0  0  0  0  0  0  0  0
   47.0620   32.6070   47.4900 C   0  0  0  0  0  0  0  0  0  0  0  0
   45.6190   32.1780   47.4900 C   0  0  1  0  0  0  0  0  0  0  0  0
   46.6740   31.4400   45.6720 H   0  0  0  0  0  0  0  0  0  0  0  0
   47.8090   31.8560   47.8120 H   0  0  0  0  0  0  0  0  0  0  0  0
   47.3490   33.6560   47.6870 H   0  0  0  0  0  0  0  0  0  0  0  0
   45.4110   31.2230   47.9670 H   0  0  0  0  0  0  0  0  0  0  0  0
   44.7440   33.2590   47.9640 N   0  0  0  0  0  0  0  0  0  0  0  0
   44.9860   33.4270   48.9730 H   0  0  0  0  0  0  0  0  0  0  0  0
   43.7400   32.9480   47.9550 H   0  0  0  0  0  0  0  0  0  0  0  0
   46.1550   34.8050   42.0010 C   0  0  0  0  0  0  0  0  0  0  0  0
   47.3450   35.0610   41.6000 O   0  0  0  0  0  0  0  0  0  0  0  0
   45.1590   34.7050   41.0110 O   0  0  0  0  0  0  0  0  0  0  0  0
   43.6380   33.0860   39.5170 O   0  0  0  0  0  0  0  0  0  0  0  0
   44.1060   33.3440   40.9190 P   0  0  0  0  0  0  0  0  0  0  0  0
   44.9930   32.0190   41.5190 O   0  0  0  0  0  0  0  0  0  0  0  0
   45.5630   32.3130   42.2730 H   0  0  0  0  0  0  0  0  0  0  0  0
   42.7910   33.5480   41.9730 O   0  0  0  0  0  0  0  0  0  0  0  0
   43.1190   33.3660   42.8970 H   0  0  0  0  0  0  0  0  0  0  0  0
  1  2  2  0  0  0  0
  1  6  1  0  0  0  0
  2  3  1  0  0  0  0
  3  8  1  0  0  0  0
  3  4  2  0  0  0  0
  5  4  1  0  0  0  0
  5  9  1  0  0  0  0
  6  5  2  0  0  0  0
  7  2  1  0  0  0  0
  9 12  1  6  0  0  0
  9 11  1  0  0  0  0
  9 10  1  0  0  0  0
 10 14  1  0  0  0  0
 10 13  1  0  0  0  0
 11 10  1  0  0  0  0
 11 16  1  0  0  0  0
 11 15  1  1  0  0  0
 16 17  1  0  0  0  0
 18 16  1  0  0  0  0
 19  1  1  0  0  0  0
 20 19  2  0  0  0  0
 21 19  1  0  0  0  0
 22 23  2  0  0  0  0
 23 21  1  0  0  0  0
 23 24  1  0  0  0  0
 23 26  1  0  0  0  0
 24 25  1  0  0  0  0
 26 27  1  0  0  0  0
M  END
>  <minimizedAffinity>
-4.98187971

>  <minimizedRMSD>
0.866000891

$$$$
