
 OpenBabel03242518383D

 37 39  0  0  1  0  0  0  0  0999 V2000
   47.4890   33.6050   39.8660 C   0  0  0  0  0  0  0  0  0  0  0  0
   48.4010   34.3610   39.1150 C   0  0  0  0  0  0  0  0  0  0  0  0
   48.0480   34.2840   37.7820 C   0  0  0  0  0  0  0  0  0  0  0  0
   46.9460   33.4910   37.7820 C   0  0  0  0  0  0  0  0  0  0  0  0
   46.6270   33.0990   39.0050 O   0  0  0  0  0  0  0  0  0  0  0  0
   49.2160   34.8830   39.5980 H   0  0  0  0  0  0  0  0  0  0  0  0
   48.5770   34.7710   36.9810 H   0  0  0  0  0  0  0  0  0  0  0  0
   46.1950   33.1160   36.5630 C   0  0  2  0  0  0  0  0  0  0  0  0
   45.7400   31.7430   36.3620 C   0  0  0  0  0  0  0  0  0  0  0  0
   46.9760   32.1400   35.6390 C   0  0  1  0  0  0  0  0  0  0  0  0
   45.6770   33.9430   36.0530 H   0  0  0  0  0  0  0  0  0  0  0  0
   44.8150   31.5090   35.7810 H   0  0  0  0  0  0  0  0  0  0  0  0
   45.8820   31.0260   37.2180 H   0  0  0  0  0  0  0  0  0  0  0  0
   47.9750   31.8540   35.9640 H   0  0  0  0  0  0  0  0  0  0  0  0
   47.9500   32.5270   33.3830 C   0  0  0  0  0  0  0  0  0  0  0  0
   49.1310   32.3660   33.8040 O   0  0  0  0  0  0  0  0  0  0  0  0
   46.8080   32.4550   34.2220 N   0  0  0  0  0  0  0  0  0  0  0  0
   47.9060   32.7270   32.3130 H   0  0  0  0  0  0  0  0  0  0  0  0
   45.8620   32.6250   33.8250 H   0  0  0  0  0  0  0  0  0  0  0  0
   47.3950   33.3540   41.2600 O   0  0  0  0  0  0  0  0  0  0  0  0
   47.3920   34.4500   42.1470 C   0  0  0  0  0  0  0  0  0  0  0  0
   47.9700   35.4990   41.7320 O   0  0  0  0  0  0  0  0  0  0  0  0
   46.7510   34.2670   43.3970 C   0  0  0  0  0  0  0  0  0  0  0  0
   45.5980   34.9530   43.5940 C   0  0  0  0  0  0  0  0  0  0  0  0
   44.9240   34.8130   44.8030 C   0  0  0  0  0  0  0  0  0  0  0  0
   45.4510   33.9950   45.7290 N   0  0  0  0  0  0  0  0  0  0  0  0
   46.5870   33.3280   45.5180 C   0  0  0  0  0  0  0  0  0  0  0  0
   47.2060   33.4860   44.3490 N   0  0  0  0  0  0  0  0  0  0  0  0
   45.1670   35.6130   42.8550 H   0  0  0  0  0  0  0  0  0  0  0  0
   43.9890   35.3660   44.9680 H   0  0  0  0  0  0  0  0  0  0  0  0
   46.9910   32.5360   46.5660 O   0  0  0  0  0  0  0  0  0  0  0  0
   45.0790   30.9750   47.3990 O   0  0  0  0  0  0  0  0  0  0  0  0
   45.8890   32.1900   47.8130 P   0  0  0  0  0  0  0  0  0  0  0  0
   46.7170   31.7650   49.2280 O   0  0  0  0  0  0  0  0  0  0  0  0
   47.4720   32.3870   49.3600 H   0  0  0  0  0  0  0  0  0  0  0  0
   44.8030   33.4370   48.1120 O   0  0  0  0  0  0  0  0  0  0  0  0
   45.2900   34.2900   48.0700 H   0  0  0  0  0  0  0  0  0  0  0  0
  1 20  1  0  0  0  0
  2  6  1  0  0  0  0
  2  1  2  0  0  0  0
  3  2  1  0  0  0  0
  4  3  2  0  0  0  0
  4  5  1  0  0  0  0
  5  1  1  0  0  0  0
  7  3  1  0  0  0  0
  8 11  1  6  0  0  0
  8  4  1  0  0  0  0
  9  8  1  0  0  0  0
  9 13  1  0  0  0  0
 10 14  1  1  0  0  0
 10  9  1  0  0  0  0
 10  8  1  0  0  0  0
 12  9  1  0  0  0  0
 15 16  2  0  0  0  0
 15 17  1  0  0  0  0
 17 10  1  0  0  0  0
 18 15  1  0  0  0  0
 19 17  1  0  0  0  0
 20 21  1  0  0  0  0
 21 23  1  0  0  0  0
 22 21  2  0  0  0  0
 23 24  2  0  0  0  0
 23 28  1  0  0  0  0
 24 25  1  0  0  0  0
 25 30  1  0  0  0  0
 25 26  2  0  0  0  0
 27 26  1  0  0  0  0
 27 31  1  0  0  0  0
 28 27  2  0  0  0  0
 29 24  1  0  0  0  0
 31 33  1  0  0  0  0
 32 33  2  0  0  0  0
 33 36  1  0  0  0  0
 33 34  1  0  0  0  0
 34 35  1  0  0  0  0
 37 36  1  0  0  0  0
M  END
>  <minimizedAffinity>
-5.78421545

>  <minimizedRMSD>
1.14237571

$$$$
