
 OpenBabel03242522513D

 24 24  0  0  0  0  0  0  0  0999 V2000
   45.3910   30.6780   47.6160 O   0  0  0  0  0  0  0  0  0  0  0  0
   45.8250   31.9560   48.3610 P   0  0  2  0  0  0  0  0  0  0  0  0
   45.2020   31.8160   49.9220 O   0  0  0  0  0  0  0  0  0  0  0  0
   45.7920   32.2650   50.5780 H   0  0  0  0  0  0  0  0  0  0  0  0
   45.1210   33.2830   47.5800 O   0  0  0  0  0  0  0  0  0  0  0  0
   46.9660   33.2530   44.4490 C   0  0  0  0  0  0  0  0  0  0  0  0
   46.5340   32.9290   45.7480 C   0  0  0  0  0  0  0  0  0  0  0  0
   45.5010   33.6450   46.3050 C   0  0  0  0  0  0  0  0  0  0  0  0
   44.9370   34.6390   45.5750 N   0  0  0  0  0  0  0  0  0  0  0  0
   45.3510   34.9440   44.3380 C   0  0  0  0  0  0  0  0  0  0  0  0
   46.3620   34.2610   43.7680 N   0  0  0  0  0  0  0  0  0  0  0  0
   47.7670   32.7520   43.9310 H   0  0  0  0  0  0  0  0  0  0  0  0
   47.1050   32.1150   46.1490 H   0  0  0  0  0  0  0  0  0  0  0  0
   44.7920   35.7670   43.8950 H   0  0  0  0  0  0  0  0  0  0  0  0
   47.4710   32.1010   48.3690 O   0  0  0  0  0  0  0  0  0  0  0  0
   48.4220   31.3920   49.0270 C   0  0  0  0  0  0  0  0  0  0  0  0
   49.4760   32.0630   49.3010 O   0  0  0  0  0  0  0  0  0  0  0  0
   48.9600   30.2650   49.6260 O   0  0  0  0  0  0  0  0  0  0  0  0
   49.9160   29.3510   47.3510 O   0  0  0  0  0  0  0  0  0  0  0  0
   49.9550   29.1460   48.8500 P   0  0  0  0  0  0  0  0  0  0  0  0
   51.5190   29.2120   49.4430 O   0  0  0  0  0  0  0  0  0  0  0  0
   51.8150   30.1310   49.6470 H   0  0  0  0  0  0  0  0  0  0  0  0
   49.2690   27.6080   49.1690 O   0  0  0  0  0  0  0  0  0  0  0  0
   48.7180   27.3390   48.4170 H   0  0  0  0  0  0  0  0  0  0  0  0
  2  1  2  6  0  0  0
  2 15  1  0  0  0  0
  2  3  1  0  0  0  0
  3  4  1  0  0  0  0
  5  2  1  0  0  0  0
  6  7  1  0  0  0  0
  7 13  1  0  0  0  0
  7  8  2  0  0  0  0
  8  5  1  0  0  0  0
  9  8  1  0  0  0  0
 10  9  2  0  0  0  0
 11 10  1  0  0  0  0
 11  6  2  0  0  0  0
 12  6  1  0  0  0  0
 14 10  1  0  0  0  0
 15 16  1  0  0  0  0
 16 17  2  0  0  0  0
 16 18  1  0  0  0  0
 19 20  2  0  0  0  0
 20 23  1  0  0  0  0
 20 21  1  0  0  0  0
 20 18  1  0  0  0  0
 21 22  1  0  0  0  0
 24 23  1  0  0  0  0
M  END
>  <minimizedAffinity>
-4.58352518

>  <minimizedRMSD>
0.990736842

$$$$
