
 OpenBabel03242523553D

 43 45  0  0  1  0  0  0  0  0999 V2000
   42.8790   34.1240   39.2080 C   0  0  1  0  0  0  0  0  0  0  0  0
   43.1640   35.1110   40.3300 C   0  0  1  0  0  0  0  0  0  0  0  0
   41.9470   35.7150   40.7080 O   0  0  0  0  0  0  0  0  0  0  0  0
   41.0950   35.9290   39.6230 C   0  0  0  0  0  0  0  0  0  0  0  0
   40.5600   34.6360   39.0520 C   0  0  2  0  0  0  0  0  0  0  0  0
   41.5540   33.5070   39.5080 C   0  0  1  0  0  0  0  0  0  0  0  0
   43.6990   33.3580   39.1470 H   0  0  0  0  0  0  0  0  0  0  0  0
   43.9200   35.8560   40.0690 H   0  0  0  0  0  0  0  0  0  0  0  0
   41.5560   36.5760   38.8530 H   0  0  0  0  0  0  0  0  0  0  0  0
   40.2340   36.4770   40.0420 H   0  0  0  0  0  0  0  0  0  0  0  0
   39.5520   34.3640   39.4210 H   0  0  0  0  0  0  0  0  0  0  0  0
   41.3030   33.5990   40.6140 H   0  0  0  0  0  0  0  0  0  0  0  0
   42.8460   34.7800   37.9700 O   0  0  0  0  0  0  0  0  0  0  0  0
   42.9280   34.1140   37.2630 H   0  0  0  0  0  0  0  0  0  0  0  0
   40.6420   34.6570   37.6700 O   0  0  0  0  0  0  0  0  0  0  0  0
   39.8460   34.1990   37.2690 H   0  0  0  0  0  0  0  0  0  0  0  0
   43.4940   34.3210   41.4420 O   0  0  0  0  0  0  0  0  0  0  0  0
   44.6700   34.3440   42.0780 C   0  0  0  0  0  0  0  0  0  0  0  0
   45.8640   34.5230   41.3860 C   0  0  0  0  0  0  0  0  0  0  0  0
   47.0610   34.5420   42.0750 C   0  0  0  0  0  0  0  0  0  0  0  0
   47.0410   34.3800   43.4440 N   0  0  0  0  0  0  0  0  0  0  0  0
   45.8620   34.2060   44.0970 C   0  0  0  0  0  0  0  0  0  0  0  0
   44.6870   34.1880   43.4140 N   0  0  0  0  0  0  0  0  0  0  0  0
   45.8930   34.6500   40.3180 H   0  0  0  0  0  0  0  0  0  0  0  0
   45.8510   34.0780   45.1810 H   0  0  0  0  0  0  0  0  0  0  0  0
   48.3770   34.7130   41.3790 C   0  0  0  0  0  0  0  0  0  0  0  0
   49.0760   36.0570   41.5630 C   0  0  0  0  0  0  0  0  0  0  0  0
   49.5990   34.7160   42.1230 C   0  0  0  0  0  0  0  0  0  0  0  0
   48.3170   34.4600   40.2870 H   0  0  0  0  0  0  0  0  0  0  0  0
   48.6120   36.7460   42.3080 H   0  0  0  0  0  0  0  0  0  0  0  0
   49.6910   36.4770   40.7670 H   0  0  0  0  0  0  0  0  0  0  0  0
   50.5430   34.3380   41.7080 H   0  0  0  0  0  0  0  0  0  0  0  0
   49.5380   34.5860   43.2270 H   0  0  0  0  0  0  0  0  0  0  0  0
   41.2270   32.3870   38.8450 O   0  0  0  0  0  0  0  0  0  0  0  0
   40.2570   31.4850   39.1300 C   0  0  0  0  0  0  0  0  0  0  0  0
   39.1660   31.4110   38.4130 O   0  0  0  0  0  0  0  0  0  0  0  0
   39.8660   30.4480   39.9820 O   0  0  0  0  0  0  0  0  0  0  0  0
   38.5640   29.8480   42.1700 O   0  0  0  0  0  0  0  0  0  0  0  0
   38.3560   30.4730   40.7940 P   0  0  0  0  0  0  0  0  0  0  0  0
   37.1230   29.7630   39.9300 O   0  0  0  0  0  0  0  0  0  0  0  0
   36.4650   29.2740   40.5090 H   0  0  0  0  0  0  0  0  0  0  0  0
   37.9480   32.1040   41.1220 O   0  0  0  0  0  0  0  0  0  0  0  0
   38.5920   32.5050   41.7580 H   0  0  0  0  0  0  0  0  0  0  0  0
  1  7  1  6  0  0  0
  1  6  1  0  0  0  0
  1  2  1  0  0  0  0
  2  8  1  6  0  0  0
  2  3  1  0  0  0  0
  2 17  1  0  0  0  0
  4 10  1  0  0  0  0
  4  3  1  0  0  0  0
  5 11  1  1  0  0  0
  5  6  1  0  0  0  0
  5  4  1  0  0  0  0
  6 12  1  1  0  0  0
  9  4  1  0  0  0  0
 13  1  1  0  0  0  0
 14 13  1  0  0  0  0
 15  5  1  0  0  0  0
 16 15  1  0  0  0  0
 17 18  1  0  0  0  0
 18 23  1  0  0  0  0
 19 20  1  0  0  0  0
 19 18  2  0  0  0  0
 20 21  2  0  0  0  0
 21 22  1  0  0  0  0
 22 25  1  0  0  0  0
 23 22  2  0  0  0  0
 24 19  1  0  0  0  0
 26 27  1  0  0  0  0
 26 20  1  0  0  0  0
 26 28  1  0  0  0  0
 27 28  1  0  0  0  0
 27 30  1  0  0  0  0
 28 33  1  0  0  0  0
 29 26  1  0  0  0  0
 31 27  1  0  0  0  0
 32 28  1  0  0  0  0
 34 35  1  0  0  0  0
 34  6  1  0  0  0  0
 35 37  1  0  0  0  0
 36 35  2  0  0  0  0
 37 39  1  0  0  0  0
 39 42  1  0  0  0  0
 39 38  2  0  0  0  0
 40 41  1  0  0  0  0
 40 39  1  0  0  0  0
 42 43  1  0  0  0  0
M  END
>  <minimizedAffinity>
-6.01397085

>  <minimizedRMSD>
1.30553663

$$$$
