
 OpenBabel03252508013D

 27 28  0  0  1  0  0  0  0  0999 V2000
   46.4800   34.7830   43.1140 C   0  0  0  0  0  0  0  0  0  0  0  0
   45.4910   35.7670   43.3090 C   0  0  0  0  0  0  0  0  0  0  0  0
   44.6850   35.6590   44.4470 C   0  0  0  0  0  0  0  0  0  0  0  0
   44.9110   34.6120   45.2830 N   0  0  0  0  0  0  0  0  0  0  0  0
   45.8890   33.6910   45.0320 C   0  0  0  0  0  0  0  0  0  0  0  0
   46.6800   33.7470   43.9700 N   0  0  0  0  0  0  0  0  0  0  0  0
   45.3570   36.5710   42.6170 H   0  0  0  0  0  0  0  0  0  0  0  0
   43.9250   36.3910   44.6260 H   0  0  0  0  0  0  0  0  0  0  0  0
   46.0870   32.5760   46.0140 C   0  0  1  0  0  0  0  0  0  0  0  0
   46.8210   32.8540   47.3040 C   0  0  0  0  0  0  0  0  0  0  0  0
   45.3210   32.7240   47.2680 C   0  0  1  0  0  0  0  0  0  0  0  0
   46.2630   31.5750   45.6090 H   0  0  0  0  0  0  0  0  0  0  0  0
   47.3870   32.0140   47.7500 H   0  0  0  0  0  0  0  0  0  0  0  0
   47.3090   33.8410   47.3980 H   0  0  0  0  0  0  0  0  0  0  0  0
   44.9060   31.8950   47.8370 H   0  0  0  0  0  0  0  0  0  0  0  0
   44.6700   34.0070   47.5670 N   0  0  0  0  0  0  0  0  0  0  0  0
   44.9080   34.2450   48.5630 H   0  0  0  0  0  0  0  0  0  0  0  0
   43.6250   33.9030   47.5360 H   0  0  0  0  0  0  0  0  0  0  0  0
   47.2860   34.9570   41.9300 C   0  0  0  0  0  0  0  0  0  0  0  0
   48.3060   35.7310   41.8700 O   0  0  0  0  0  0  0  0  0  0  0  0
   46.9550   34.2500   40.7580 O   0  0  0  0  0  0  0  0  0  0  0  0
   46.8440   31.9190   39.4480 O   0  0  0  0  0  0  0  0  0  0  0  0
   47.6940   32.7430   40.3700 P   0  0  0  0  0  0  0  0  0  0  0  0
   49.1890   33.1200   39.6460 O   0  0  0  0  0  0  0  0  0  0  0  0
   49.5860   33.9110   40.0920 H   0  0  0  0  0  0  0  0  0  0  0  0
   48.0600   31.8870   41.7900 O   0  0  0  0  0  0  0  0  0  0  0  0
   48.8740   32.3050   42.1880 H   0  0  0  0  0  0  0  0  0  0  0  0
  1  2  2  0  0  0  0
  1  6  1  0  0  0  0
  2  3  1  0  0  0  0
  3  8  1  0  0  0  0
  3  4  2  0  0  0  0
  5  4  1  0  0  0  0
  5  9  1  0  0  0  0
  6  5  2  0  0  0  0
  7  2  1  0  0  0  0
  9 12  1  6  0  0  0
  9 11  1  0  0  0  0
  9 10  1  0  0  0  0
 10 14  1  0  0  0  0
 10 13  1  0  0  0  0
 11 10  1  0  0  0  0
 11 16  1  0  0  0  0
 11 15  1  1  0  0  0
 16 17  1  0  0  0  0
 18 16  1  0  0  0  0
 19  1  1  0  0  0  0
 20 19  2  0  0  0  0
 21 19  1  0  0  0  0
 22 23  2  0  0  0  0
 23 21  1  0  0  0  0
 23 26  1  0  0  0  0
 24 25  1  0  0  0  0
 24 23  1  0  0  0  0
 26 27  1  0  0  0  0
M  END
>  <minimizedAffinity>
-4.99979305

>  <minimizedRMSD>
0.968857348

$$$$
