
 OpenBabel03242518373D

 37 39  0  0  1  0  0  0  0  0999 V2000
   47.2980   33.6890   39.8430 C   0  0  0  0  0  0  0  0  0  0  0  0
   48.2860   34.3470   39.0940 C   0  0  0  0  0  0  0  0  0  0  0  0
   47.9960   34.1990   37.7520 C   0  0  0  0  0  0  0  0  0  0  0  0
   46.8550   33.4620   37.7440 C   0  0  0  0  0  0  0  0  0  0  0  0
   46.4540   33.1700   38.9710 O   0  0  0  0  0  0  0  0  0  0  0  0
   49.1020   34.8590   39.5860 H   0  0  0  0  0  0  0  0  0  0  0  0
   48.5890   34.6030   36.9500 H   0  0  0  0  0  0  0  0  0  0  0  0
   46.1470   33.0440   36.5130 C   0  0  2  0  0  0  0  0  0  0  0  0
   45.7850   31.6450   36.3020 C   0  0  0  0  0  0  0  0  0  0  0  0
   47.0020   32.1240   35.5990 C   0  0  1  0  0  0  0  0  0  0  0  0
   45.5840   33.8380   35.9980 H   0  0  0  0  0  0  0  0  0  0  0  0
   44.8850   31.3550   35.7080 H   0  0  0  0  0  0  0  0  0  0  0  0
   45.9600   30.9360   37.1590 H   0  0  0  0  0  0  0  0  0  0  0  0
   48.0130   31.9020   35.9370 H   0  0  0  0  0  0  0  0  0  0  0  0
   47.9810   32.6380   33.3700 C   0  0  0  0  0  0  0  0  0  0  0  0
   49.1630   32.6040   33.8190 O   0  0  0  0  0  0  0  0  0  0  0  0
   46.8340   32.4320   34.1800 N   0  0  0  0  0  0  0  0  0  0  0  0
   47.9410   32.8420   32.3010 H   0  0  0  0  0  0  0  0  0  0  0  0
   45.8850   32.5010   33.7610 H   0  0  0  0  0  0  0  0  0  0  0  0
   47.1220   33.5360   41.2430 O   0  0  0  0  0  0  0  0  0  0  0  0
   47.2700   34.6680   42.0720 C   0  0  0  0  0  0  0  0  0  0  0  0
   48.1600   35.4980   41.7200 O   0  0  0  0  0  0  0  0  0  0  0  0
   46.4170   34.7580   43.1990 C   0  0  0  0  0  0  0  0  0  0  0  0
   45.4480   35.7060   43.1520 C   0  0  0  0  0  0  0  0  0  0  0  0
   44.5810   35.8410   44.2320 C   0  0  0  0  0  0  0  0  0  0  0  0
   44.7430   35.0180   45.2810 N   0  0  0  0  0  0  0  0  0  0  0  0
   45.7030   34.0930   45.3090 C   0  0  0  0  0  0  0  0  0  0  0  0
   46.5160   33.9910   44.2590 N   0  0  0  0  0  0  0  0  0  0  0  0
   45.3090   36.3730   42.3130 H   0  0  0  0  0  0  0  0  0  0  0  0
   43.7920   36.6070   44.2000 H   0  0  0  0  0  0  0  0  0  0  0  0
   45.7350   33.3340   46.4550 O   0  0  0  0  0  0  0  0  0  0  0  0
   47.2740   31.2380   46.6070 O   0  0  0  0  0  0  0  0  0  0  0  0
   45.8380   31.6420   46.3240 P   0  0  0  0  0  0  0  0  0  0  0  0
   44.8810   30.9020   47.5090 O   0  0  0  0  0  0  0  0  0  0  0  0
   44.0110   31.3660   47.5590 H   0  0  0  0  0  0  0  0  0  0  0  0
   45.4470   31.0630   44.7970 O   0  0  0  0  0  0  0  0  0  0  0  0
   44.6670   31.5650   44.4640 H   0  0  0  0  0  0  0  0  0  0  0  0
  1 20  1  0  0  0  0
  2  6  1  0  0  0  0
  2  1  2  0  0  0  0
  3  2  1  0  0  0  0
  4  3  2  0  0  0  0
  4  5  1  0  0  0  0
  5  1  1  0  0  0  0
  7  3  1  0  0  0  0
  8 11  1  6  0  0  0
  8  4  1  0  0  0  0
  9  8  1  0  0  0  0
  9 13  1  0  0  0  0
 10 14  1  1  0  0  0
 10  9  1  0  0  0  0
 10  8  1  0  0  0  0
 12  9  1  0  0  0  0
 15 16  2  0  0  0  0
 15 17  1  0  0  0  0
 17 10  1  0  0  0  0
 18 15  1  0  0  0  0
 19 17  1  0  0  0  0
 20 21  1  0  0  0  0
 21 23  1  0  0  0  0
 22 21  2  0  0  0  0
 23 28  1  0  0  0  0
 24 23  2  0  0  0  0
 24 25  1  0  0  0  0
 25 26  2  0  0  0  0
 26 27  1  0  0  0  0
 27 31  1  0  0  0  0
 28 27  2  0  0  0  0
 29 24  1  0  0  0  0
 30 25  1  0  0  0  0
 33 31  1  0  0  0  0
 33 32  2  0  0  0  0
 33 34  1  0  0  0  0
 34 35  1  0  0  0  0
 36 33  1  0  0  0  0
 37 36  1  0  0  0  0
M  END
>  <minimizedAffinity>
-5.57691431

>  <minimizedRMSD>
0.289390773

$$$$
