
 OpenBabel03242523553D

 43 45  0  0  1  0  0  0  0  0999 V2000
   42.7900   34.4700   38.8270 C   0  0  1  0  0  0  0  0  0  0  0  0
   42.9380   35.2160   40.1450 C   0  0  1  0  0  0  0  0  0  0  0  0
   41.6480   35.5060   40.6360 O   0  0  0  0  0  0  0  0  0  0  0  0
   40.7410   35.8080   39.6180 C   0  0  0  0  0  0  0  0  0  0  0  0
   40.4140   34.6030   38.7670 C   0  0  2  0  0  0  0  0  0  0  0  0
   41.5950   33.5860   38.9680 C   0  0  1  0  0  0  0  0  0  0  0  0
   43.7240   33.8870   38.6050 H   0  0  0  0  0  0  0  0  0  0  0  0
   43.5500   36.1170   40.0640 H   0  0  0  0  0  0  0  0  0  0  0  0
   41.0660   36.6790   39.0180 H   0  0  0  0  0  0  0  0  0  0  0  0
   39.8130   36.0950   40.1410 H   0  0  0  0  0  0  0  0  0  0  0  0
   39.4770   34.0890   39.0560 H   0  0  0  0  0  0  0  0  0  0  0  0
   41.3640   33.3860   40.0650 H   0  0  0  0  0  0  0  0  0  0  0  0
   42.6120   35.3690   37.7670 O   0  0  0  0  0  0  0  0  0  0  0  0
   42.7830   34.9010   36.9300 H   0  0  0  0  0  0  0  0  0  0  0  0
   40.4520   34.9440   37.4260 O   0  0  0  0  0  0  0  0  0  0  0  0
   39.7330   34.4600   36.9240 H   0  0  0  0  0  0  0  0  0  0  0  0
   43.4270   34.2660   41.0550 O   0  0  0  0  0  0  0  0  0  0  0  0
   44.5500   34.3930   41.7680 C   0  0  0  0  0  0  0  0  0  0  0  0
   45.7940   34.4820   41.1490 C   0  0  0  0  0  0  0  0  0  0  0  0
   46.9340   34.6130   41.9170 C   0  0  0  0  0  0  0  0  0  0  0  0
   46.8100   34.6530   43.2900 N   0  0  0  0  0  0  0  0  0  0  0  0
   45.5840   34.5640   43.8700 C   0  0  0  0  0  0  0  0  0  0  0  0
   44.4650   34.4350   43.1100 N   0  0  0  0  0  0  0  0  0  0  0  0
   45.9050   34.4510   40.0790 H   0  0  0  0  0  0  0  0  0  0  0  0
   45.4900   34.5960   44.9570 H   0  0  0  0  0  0  0  0  0  0  0  0
   48.3000   34.6930   41.3050 C   0  0  0  0  0  0  0  0  0  0  0  0
   49.0570   36.0050   41.4960 C   0  0  0  0  0  0  0  0  0  0  0  0
   49.4700   34.6570   42.1280 C   0  0  0  0  0  0  0  0  0  0  0  0
   48.2980   34.4090   40.2190 H   0  0  0  0  0  0  0  0  0  0  0  0
   48.5830   36.7410   42.1890 H   0  0  0  0  0  0  0  0  0  0  0  0
   49.7440   36.3660   40.7310 H   0  0  0  0  0  0  0  0  0  0  0  0
   50.4170   34.2190   41.7880 H   0  0  0  0  0  0  0  0  0  0  0  0
   49.3300   34.5670   43.2290 H   0  0  0  0  0  0  0  0  0  0  0  0
   41.4410   32.6030   38.0680 O   0  0  0  0  0  0  0  0  0  0  0  0
   40.6700   31.4910   38.1490 C   0  0  0  0  0  0  0  0  0  0  0  0
   39.5650   31.3790   37.4600 O   0  0  0  0  0  0  0  0  0  0  0  0
   40.5300   30.2300   38.7350 O   0  0  0  0  0  0  0  0  0  0  0  0
   41.5790   28.4870   40.3790 O   0  0  0  0  0  0  0  0  0  0  0  0
   41.0540   29.9180   40.3370 P   0  0  0  0  0  0  0  0  0  0  0  0
   39.8910   30.2260   41.4890 O   0  0  0  0  0  0  0  0  0  0  0  0
   39.9210   29.5850   42.2600 H   0  0  0  0  0  0  0  0  0  0  0  0
   42.4290   30.8890   40.6520 O   0  0  0  0  0  0  0  0  0  0  0  0
   43.1870   30.6200   40.0740 H   0  0  0  0  0  0  0  0  0  0  0  0
  1  7  1  6  0  0  0
  1  6  1  0  0  0  0
  1  2  1  0  0  0  0
  2  8  1  6  0  0  0
  2  3  1  0  0  0  0
  2 17  1  0  0  0  0
  4 10  1  0  0  0  0
  4  3  1  0  0  0  0
  5  6  1  0  0  0  0
  5 11  1  1  0  0  0
  5  4  1  0  0  0  0
  6 12  1  1  0  0  0
  9  4  1  0  0  0  0
 13  1  1  0  0  0  0
 14 13  1  0  0  0  0
 15  5  1  0  0  0  0
 16 15  1  0  0  0  0
 17 18  1  0  0  0  0
 18 23  1  0  0  0  0
 19 18  2  0  0  0  0
 19 20  1  0  0  0  0
 20 21  2  0  0  0  0
 21 22  1  0  0  0  0
 22 25  1  0  0  0  0
 23 22  2  0  0  0  0
 24 19  1  0  0  0  0
 26 27  1  0  0  0  0
 26 20  1  0  0  0  0
 26 28  1  0  0  0  0
 27 28  1  0  0  0  0
 27 30  1  0  0  0  0
 28 33  1  0  0  0  0
 29 26  1  0  0  0  0
 31 27  1  0  0  0  0
 32 28  1  0  0  0  0
 34 35  1  0  0  0  0
 34  6  1  0  0  0  0
 35 37  1  0  0  0  0
 36 35  2  0  0  0  0
 37 39  1  0  0  0  0
 39 38  2  0  0  0  0
 39 42  1  0  0  0  0
 39 40  1  0  0  0  0
 40 41  1  0  0  0  0
 43 42  1  0  0  0  0
M  END
>  <minimizedAffinity>
-5.53951979

>  <minimizedRMSD>
0.383858085

$$$$
