
 OpenBabel03252504013D

 32 34  0  0  0  0  0  0  0  0999 V2000
   39.7770   33.1470   40.4060 C   0  0  0  0  0  0  0  0  0  0  0  0
   38.5390   33.5530   39.8940 C   0  0  0  0  0  0  0  0  0  0  0  0
   37.4520   32.7070   40.1130 C   0  0  0  0  0  0  0  0  0  0  0  0
   37.6520   31.5590   40.7990 N   0  0  0  0  0  0  0  0  0  0  0  0
   38.8720   31.1990   41.2820 C   0  0  0  0  0  0  0  0  0  0  0  0
   39.9280   32.0010   41.0790 N   0  0  0  0  0  0  0  0  0  0  0  0
   38.3960   34.4700   39.3510 H   0  0  0  0  0  0  0  0  0  0  0  0
   36.4750   32.9760   39.7380 H   0  0  0  0  0  0  0  0  0  0  0  0
   37.9810   29.3700   42.6230 C   0  0  0  0  0  0  0  0  0  0  0  0
   39.0730   29.9550   42.0220 C   0  0  0  0  0  0  0  0  0  0  0  0
   40.3230   29.3630   42.1270 C   0  0  0  0  0  0  0  0  0  0  0  0
   40.4400   28.1830   42.8430 C   0  0  0  0  0  0  0  0  0  0  0  0
   41.4770   27.3840   43.1240 N   0  0  0  0  0  0  0  0  0  0  0  0
   41.1030   26.3360   43.8620 C   0  0  0  0  0  0  0  0  0  0  0  0
   39.7460   26.4370   44.0880 C   0  0  0  0  0  0  0  0  0  0  0  0
   39.3400   27.5910   43.4490 C   0  0  0  0  0  0  0  0  0  0  0  0
   38.1020   28.2000   43.3310 C   0  0  0  0  0  0  0  0  0  0  0  0
   36.9980   29.8450   42.5340 H   0  0  0  0  0  0  0  0  0  0  0  0
   41.1750   29.8360   41.6470 H   0  0  0  0  0  0  0  0  0  0  0  0
   42.4380   27.5990   42.7830 H   0  0  0  0  0  0  0  0  0  0  0  0
   41.8100   25.5790   44.1870 H   0  0  0  0  0  0  0  0  0  0  0  0
   39.1520   25.7270   44.6620 H   0  0  0  0  0  0  0  0  0  0  0  0
   37.2660   27.7040   43.8220 H   0  0  0  0  0  0  0  0  0  0  0  0
   40.8500   34.0700   40.1400 C   0  0  0  0  0  0  0  0  0  0  0  0
   41.6190   34.5930   41.0110 O   0  0  0  0  0  0  0  0  0  0  0  0
   41.1640   34.4950   38.8420 O   0  0  0  0  0  0  0  0  0  0  0  0
   42.6300   32.3490   38.3430 O   0  0  0  0  0  0  0  0  0  0  0  0
   41.8260   33.4390   37.6570 P   0  0  0  0  0  0  0  0  0  0  0  0
   42.7480   34.3280   36.5740 O   0  0  0  0  0  0  0  0  0  0  0  0
   43.3690   33.6870   36.1030 H   0  0  0  0  0  0  0  0  0  0  0  0
   40.5790   32.6210   36.8230 O   0  0  0  0  0  0  0  0  0  0  0  0
   39.9900   32.2630   37.5430 H   0  0  0  0  0  0  0  0  0  0  0  0
  1  6  1  0  0  0  0
  2  3  1  0  0  0  0
  2  1  2  0  0  0  0
  3  4  2  0  0  0  0
  4  5  1  0  0  0  0
  5 10  1  0  0  0  0
  6  5  2  0  0  0  0
  7  2  1  0  0  0  0
  8  3  1  0  0  0  0
  9 17  1  0  0  0  0
 10 11  1  0  0  0  0
 10  9  2  0  0  0  0
 11 12  2  0  0  0  0
 12 13  1  0  0  0  0
 12 16  1  0  0  0  0
 13 14  1  0  0  0  0
 14 15  2  0  0  0  0
 14 21  1  0  0  0  0
 15 22  1  0  0  0  0
 16 15  1  0  0  0  0
 17 16  2  0  0  0  0
 17 23  1  0  0  0  0
 18  9  1  0  0  0  0
 19 11  1  0  0  0  0
 20 13  1  0  0  0  0
 24  1  1  0  0  0  0
 24 25  2  0  0  0  0
 26 24  1  0  0  0  0
 28 27  2  0  0  0  0
 28 26  1  0  0  0  0
 29 28  1  0  0  0  0
 30 29  1  0  0  0  0
 31 32  1  0  0  0  0
 31 28  1  0  0  0  0
M  END
>  <minimizedAffinity>
-6.5619607

$$$$

 OpenBabel03252504013D

 32 34  0  0  0  0  0  0  0  0999 V2000
   40.7320   33.4200   40.2520 C   0  0  0  0  0  0  0  0  0  0  0  0
   39.7520   34.3450   39.8740 C   0  0  0  0  0  0  0  0  0  0  0  0
   38.4240   34.0030   40.1270 C   0  0  0  0  0  0  0  0  0  0  0  0
   38.1600   32.8150   40.7140 N   0  0  0  0  0  0  0  0  0  0  0  0
   39.1420   31.9400   41.0680 C   0  0  0  0  0  0  0  0  0  0  0  0
   40.4240   32.2530   40.8320 N   0  0  0  0  0  0  0  0  0  0  0  0
   39.9780   35.2870   39.4080 H   0  0  0  0  0  0  0  0  0  0  0  0
   37.6300   34.6840   39.8540 H   0  0  0  0  0  0  0  0  0  0  0  0
   39.8780   29.9550   42.2740 C   0  0  0  0  0  0  0  0  0  0  0  0
   38.8410   30.6590   41.7020 C   0  0  0  0  0  0  0  0  0  0  0  0
   37.5520   30.1480   41.7380 C   0  0  0  0  0  0  0  0  0  0  0  0
   37.3400   28.9270   42.3570 C   0  0  0  0  0  0  0  0  0  0  0  0
   36.2450   28.1810   42.5550 N   0  0  0  0  0  0  0  0  0  0  0  0
   36.5310   27.0560   43.2160 C   0  0  0  0  0  0  0  0  0  0  0  0
   37.8860   27.0460   43.4730 C   0  0  0  0  0  0  0  0  0  0  0  0
   38.3840   28.2160   42.9350 C   0  0  0  0  0  0  0  0  0  0  0  0
   39.6620   28.7460   42.8870 C   0  0  0  0  0  0  0  0  0  0  0  0
   40.8920   30.3670   42.2400 H   0  0  0  0  0  0  0  0  0  0  0  0
   36.7450   30.7150   41.2830 H   0  0  0  0  0  0  0  0  0  0  0  0
   35.3090   28.4880   42.2170 H   0  0  0  0  0  0  0  0  0  0  0  0
   35.7680   26.3260   43.4680 H   0  0  0  0  0  0  0  0  0  0  0  0
   38.4190   26.2540   43.9980 H   0  0  0  0  0  0  0  0  0  0  0  0
   40.4520   28.1560   43.3510 H   0  0  0  0  0  0  0  0  0  0  0  0
   42.0780   33.8400   39.9600 C   0  0  0  0  0  0  0  0  0  0  0  0
   42.6330   34.9110   40.3710 O   0  0  0  0  0  0  0  0  0  0  0  0
   42.9410   33.0770   39.1630 O   0  0  0  0  0  0  0  0  0  0  0  0
   44.5350   32.6380   37.0960 O   0  0  0  0  0  0  0  0  0  0  0  0
   43.8230   33.7480   37.8480 P   0  0  0  0  0  0  0  0  0  0  0  0
   44.8840   34.9110   38.4260 O   0  0  0  0  0  0  0  0  0  0  0  0
   45.5940   35.0540   37.7230 H   0  0  0  0  0  0  0  0  0  0  0  0
   42.7570   34.4500   36.7100 O   0  0  0  0  0  0  0  0  0  0  0  0
   42.0680   33.7480   36.5480 H   0  0  0  0  0  0  0  0  0  0  0  0
  1  6  1  0  0  0  0
  2  3  1  0  0  0  0
  2  1  2  0  0  0  0
  3  4  2  0  0  0  0
  4  5  1  0  0  0  0
  5 10  1  0  0  0  0
  6  5  2  0  0  0  0
  7  2  1  0  0  0  0
  8  3  1  0  0  0  0
  9 17  1  0  0  0  0
 10 11  1  0  0  0  0
 10  9  2  0  0  0  0
 11 12  2  0  0  0  0
 12 13  1  0  0  0  0
 12 16  1  0  0  0  0
 13 14  1  0  0  0  0
 14 21  1  0  0  0  0
 14 15  2  0  0  0  0
 15 22  1  0  0  0  0
 16 15  1  0  0  0  0
 17 16  2  0  0  0  0
 17 23  1  0  0  0  0
 18  9  1  0  0  0  0
 19 11  1  0  0  0  0
 20 13  1  0  0  0  0
 24  1  1  0  0  0  0
 24 25  2  0  0  0  0
 26 24  1  0  0  0  0
 27 28  2  0  0  0  0
 28 29  1  0  0  0  0
 28 26  1  0  0  0  0
 30 29  1  0  0  0  0
 31 28  1  0  0  0  0
 32 31  1  0  0  0  0
M  END
>  <minimizedAffinity>
-6.53774977

$$$$

 OpenBabel03252504013D

 32 34  0  0  0  0  0  0  0  0999 V2000
   39.4550   32.1520   40.3020 C   0  0  0  0  0  0  0  0  0  0  0  0
   38.4520   33.0550   39.9290 C   0  0  0  0  0  0  0  0  0  0  0  0
   37.1340   32.6040   39.9950 C   0  0  0  0  0  0  0  0  0  0  0  0
   36.9010   31.3390   40.4100 N   0  0  0  0  0  0  0  0  0  0  0  0
   37.9040   30.4900   40.7660 C   0  0  0  0  0  0  0  0  0  0  0  0
   39.1770   30.9080   40.7070 N   0  0  0  0  0  0  0  0  0  0  0  0
   38.6530   34.0590   39.6010 H   0  0  0  0  0  0  0  0  0  0  0  0
   36.3240   33.2630   39.7170 H   0  0  0  0  0  0  0  0  0  0  0  0
   37.4590   28.9020   42.5600 C   0  0  0  0  0  0  0  0  0  0  0  0
   37.6370   29.1250   41.2130 C   0  0  0  0  0  0  0  0  0  0  0  0
   37.5600   28.0670   40.3180 C   0  0  0  0  0  0  0  0  0  0  0  0
   37.3030   26.7990   40.8120 C   0  0  0  0  0  0  0  0  0  0  0  0
   37.1710   25.6010   40.2280 N   0  0  0  0  0  0  0  0  0  0  0  0
   36.9220   24.6430   41.1260 C   0  0  0  0  0  0  0  0  0  0  0  0
   36.8850   25.2280   42.3740 C   0  0  0  0  0  0  0  0  0  0  0  0
   37.1240   26.5720   42.1700 C   0  0  0  0  0  0  0  0  0  0  0  0
   37.2050   27.6430   43.0440 C   0  0  0  0  0  0  0  0  0  0  0  0
   37.5220   29.7450   43.2580 H   0  0  0  0  0  0  0  0  0  0  0  0
   37.7020   28.2580   39.2590 H   0  0  0  0  0  0  0  0  0  0  0  0
   37.2600   25.4850   39.1980 H   0  0  0  0  0  0  0  0  0  0  0  0
   36.7840   23.6060   40.8370 H   0  0  0  0  0  0  0  0  0  0  0  0
   36.7020   24.7000   43.3090 H   0  0  0  0  0  0  0  0  0  0  0  0
   37.0580   27.4230   44.1010 H   0  0  0  0  0  0  0  0  0  0  0  0
   40.7880   32.6870   40.2080 C   0  0  0  0  0  0  0  0  0  0  0  0
   41.7360   32.4840   41.0350 O   0  0  0  0  0  0  0  0  0  0  0  0
   41.1860   33.5170   39.1510 O   0  0  0  0  0  0  0  0  0  0  0  0
   42.3630   31.6260   37.7220 O   0  0  0  0  0  0  0  0  0  0  0  0
   41.5610   32.9070   37.5870 P   0  0  0  0  0  0  0  0  0  0  0  0
   42.3760   34.0830   36.7120 O   0  0  0  0  0  0  0  0  0  0  0  0
   42.8570   33.6220   35.9550 H   0  0  0  0  0  0  0  0  0  0  0  0
   40.1310   32.4580   36.7630 O   0  0  0  0  0  0  0  0  0  0  0  0
   39.6330   31.8940   37.4170 H   0  0  0  0  0  0  0  0  0  0  0  0
  1  6  1  0  0  0  0
  2  3  1  0  0  0  0
  2  1  2  0  0  0  0
  3  4  2  0  0  0  0
  4  5  1  0  0  0  0
  5 10  1  0  0  0  0
  6  5  2  0  0  0  0
  7  2  1  0  0  0  0
  8  3  1  0  0  0  0
  9 17  1  0  0  0  0
  9 18  1  0  0  0  0
 10  9  2  0  0  0  0
 11 12  2  0  0  0  0
 11 10  1  0  0  0  0
 12 16  1  0  0  0  0
 13 12  1  0  0  0  0
 13 14  1  0  0  0  0
 14 15  2  0  0  0  0
 15 22  1  0  0  0  0
 16 15  1  0  0  0  0
 16 17  2  0  0  0  0
 17 23  1  0  0  0  0
 19 11  1  0  0  0  0
 20 13  1  0  0  0  0
 21 14  1  0  0  0  0
 24  1  1  0  0  0  0
 24 25  2  0  0  0  0
 26 24  1  0  0  0  0
 28 27  2  0  0  0  0
 28 26  1  0  0  0  0
 29 28  1  0  0  0  0
 30 29  1  0  0  0  0
 31 32  1  0  0  0  0
 31 28  1  0  0  0  0
M  END
>  <minimizedAffinity>
-6.3421793

$$$$

 OpenBabel03252504013D

 32 34  0  0  0  0  0  0  0  0999 V2000
   38.4400   28.9050   41.8520 C   0  0  0  0  0  0  0  0  0  0  0  0
   38.0310   29.0940   43.1770 C   0  0  0  0  0  0  0  0  0  0  0  0
   37.3910   28.0250   43.8030 C   0  0  0  0  0  0  0  0  0  0  0  0
   37.2050   26.8810   43.1050 N   0  0  0  0  0  0  0  0  0  0  0  0
   37.6180   26.7360   41.8160 C   0  0  0  0  0  0  0  0  0  0  0  0
   38.2350   27.7550   41.1990 N   0  0  0  0  0  0  0  0  0  0  0  0
   38.1860   30.0090   43.7190 H   0  0  0  0  0  0  0  0  0  0  0  0
   37.0560   28.1200   44.8260 H   0  0  0  0  0  0  0  0  0  0  0  0
   36.5840   25.5230   39.9730 C   0  0  0  0  0  0  0  0  0  0  0  0
   37.4100   25.4950   41.0750 C   0  0  0  0  0  0  0  0  0  0  0  0
   38.0190   24.3080   41.4540 C   0  0  0  0  0  0  0  0  0  0  0  0
   37.7780   23.1690   40.7040 C   0  0  0  0  0  0  0  0  0  0  0  0
   38.2020   21.9020   40.8050 N   0  0  0  0  0  0  0  0  0  0  0  0
   37.6940   21.1360   39.8350 C   0  0  0  0  0  0  0  0  0  0  0  0
   36.8880   21.9300   39.0450 C   0  0  0  0  0  0  0  0  0  0  0  0
   36.9450   23.1950   39.5930 C   0  0  0  0  0  0  0  0  0  0  0  0
   36.3480   24.3910   39.2330 C   0  0  0  0  0  0  0  0  0  0  0  0
   36.1070   26.4650   39.6820 H   0  0  0  0  0  0  0  0  0  0  0  0
   38.6690   24.3010   42.3250 H   0  0  0  0  0  0  0  0  0  0  0  0
   38.8490   21.6030   41.5640 H   0  0  0  0  0  0  0  0  0  0  0  0
   37.9260   20.0800   39.7540 H   0  0  0  0  0  0  0  0  0  0  0  0
   36.3340   21.5870   38.1720 H   0  0  0  0  0  0  0  0  0  0  0  0
   35.7020   24.3690   38.3560 H   0  0  0  0  0  0  0  0  0  0  0  0
   39.0920   30.0510   41.2720 C   0  0  0  0  0  0  0  0  0  0  0  0
   40.2570   30.0670   40.7560 O   0  0  0  0  0  0  0  0  0  0  0  0
   38.4790   31.3100   41.2180 O   0  0  0  0  0  0  0  0  0  0  0  0
   36.9570   30.7510   39.1270 O   0  0  0  0  0  0  0  0  0  0  0  0
   36.9920   31.5810   40.3980 P   0  0  0  0  0  0  0  0  0  0  0  0
   36.8150   33.2210   40.0950 O   0  0  0  0  0  0  0  0  0  0  0  0
   36.1330   33.3240   39.3590 H   0  0  0  0  0  0  0  0  0  0  0  0
   35.6800   31.0190   41.3380 O   0  0  0  0  0  0  0  0  0  0  0  0
   35.9440   30.0970   41.6100 H   0  0  0  0  0  0  0  0  0  0  0  0
  1  2  1  0  0  0  0
  2  7  1  0  0  0  0
  2  3  2  0  0  0  0
  3  8  1  0  0  0  0
  4  3  1  0  0  0  0
  5  4  2  0  0  0  0
  6  5  1  0  0  0  0
  6  1  2  0  0  0  0
  9 10  1  0  0  0  0
 10 11  2  0  0  0  0
 10  5  1  0  0  0  0
 11 19  1  0  0  0  0
 12 13  1  0  0  0  0
 12 11  1  0  0  0  0
 13 20  1  0  0  0  0
 14 13  1  0  0  0  0
 15 16  1  0  0  0  0
 15 14  2  0  0  0  0
 16 12  2  0  0  0  0
 17 16  1  0  0  0  0
 17  9  2  0  0  0  0
 18  9  1  0  0  0  0
 21 14  1  0  0  0  0
 22 15  1  0  0  0  0
 23 17  1  0  0  0  0
 24  1  1  0  0  0  0
 25 24  2  0  0  0  0
 26 24  1  0  0  0  0
 27 28  2  0  0  0  0
 28 26  1  0  0  0  0
 28 31  1  0  0  0  0
 29 28  1  0  0  0  0
 30 29  1  0  0  0  0
 31 32  1  0  0  0  0
M  END
>  <minimizedAffinity>
-6.26612425

$$$$

 OpenBabel03252504013D

 32 34  0  0  0  0  0  0  0  0999 V2000
   40.3770   33.5400   39.9600 C   0  0  0  0  0  0  0  0  0  0  0  0
   39.7750   34.7070   40.4460 C   0  0  0  0  0  0  0  0  0  0  0  0
   38.3940   34.8220   40.2900 C   0  0  0  0  0  0  0  0  0  0  0  0
   37.7230   33.8140   39.6880 N   0  0  0  0  0  0  0  0  0  0  0  0
   38.3440   32.6940   39.2280 C   0  0  0  0  0  0  0  0  0  0  0  0
   39.6720   32.5670   39.3700 N   0  0  0  0  0  0  0  0  0  0  0  0
   40.3230   35.4990   40.9230 H   0  0  0  0  0  0  0  0  0  0  0  0
   37.8820   35.7030   40.6490 H   0  0  0  0  0  0  0  0  0  0  0  0
   36.7060   30.8930   39.3330 C   0  0  0  0  0  0  0  0  0  0  0  0
   37.6060   31.6130   38.5790 C   0  0  0  0  0  0  0  0  0  0  0  0
   37.7920   31.3050   37.2400 C   0  0  0  0  0  0  0  0  0  0  0  0
   37.0570   30.2680   36.6900 C   0  0  0  0  0  0  0  0  0  0  0  0
   37.0060   29.7360   35.4610 N   0  0  0  0  0  0  0  0  0  0  0  0
   36.1300   28.7280   35.3990 C   0  0  0  0  0  0  0  0  0  0  0  0
   35.5660   28.5780   36.6490 C   0  0  0  0  0  0  0  0  0  0  0  0
   36.1490   29.5410   37.4480 C   0  0  0  0  0  0  0  0  0  0  0  0
   35.9800   29.8660   38.7830 C   0  0  0  0  0  0  0  0  0  0  0  0
   36.5660   31.1440   40.3910 H   0  0  0  0  0  0  0  0  0  0  0  0
   38.5050   31.8820   36.6580 H   0  0  0  0  0  0  0  0  0  0  0  0
   37.5970   30.1000   34.6850 H   0  0  0  0  0  0  0  0  0  0  0  0
   35.9530   28.1760   34.4830 H   0  0  0  0  0  0  0  0  0  0  0  0
   34.8140   27.8340   36.9120 H   0  0  0  0  0  0  0  0  0  0  0  0
   35.2580   29.2720   39.3420 H   0  0  0  0  0  0  0  0  0  0  0  0
   41.8030   33.4920   40.1550 C   0  0  0  0  0  0  0  0  0  0  0  0
   42.4310   32.6570   40.8850 O   0  0  0  0  0  0  0  0  0  0  0  0
   42.6720   34.3990   39.5330 O   0  0  0  0  0  0  0  0  0  0  0  0
   43.6350   32.5060   37.9540 O   0  0  0  0  0  0  0  0  0  0  0  0
   43.5380   34.0150   38.0980 P   0  0  0  0  0  0  0  0  0  0  0  0
   45.0450   34.7500   38.1440 O   0  0  0  0  0  0  0  0  0  0  0  0
   45.6390   34.2710   37.4840 H   0  0  0  0  0  0  0  0  0  0  0  0
   42.6760   34.5440   36.7200 O   0  0  0  0  0  0  0  0  0  0  0  0
   41.7500   34.1990   36.8570 H   0  0  0  0  0  0  0  0  0  0  0  0
  1 24  1  0  0  0  0
  1  2  1  0  0  0  0
  2  7  1  0  0  0  0
  3  2  2  0  0  0  0
  3  8  1  0  0  0  0
  4  3  1  0  0  0  0
  5  6  1  0  0  0  0
  5  4  2  0  0  0  0
  6  1  2  0  0  0  0
  9 18  1  0  0  0  0
 10  5  1  0  0  0  0
 10  9  2  0  0  0  0
 11 10  1  0  0  0  0
 12 11  2  0  0  0  0
 12 16  1  0  0  0  0
 13 12  1  0  0  0  0
 14 13  1  0  0  0  0
 14 15  2  0  0  0  0
 15 22  1  0  0  0  0
 15 16  1  0  0  0  0
 16 17  2  0  0  0  0
 17  9  1  0  0  0  0
 17 23  1  0  0  0  0
 19 11  1  0  0  0  0
 20 13  1  0  0  0  0
 21 14  1  0  0  0  0
 24 25  2  0  0  0  0
 26 24  1  0  0  0  0
 27 28  2  0  0  0  0
 28 29  1  0  0  0  0
 28 26  1  0  0  0  0
 30 29  1  0  0  0  0
 31 32  1  0  0  0  0
 31 28  1  0  0  0  0
M  END
>  <minimizedAffinity>
-6.21332884

$$$$

 OpenBabel03252504013D

 32 34  0  0  0  0  0  0  0  0999 V2000
   39.6550   32.5210   39.9470 C   0  0  0  0  0  0  0  0  0  0  0  0
   39.7160   32.0660   41.2700 C   0  0  0  0  0  0  0  0  0  0  0  0
   38.9020   30.9850   41.6080 C   0  0  0  0  0  0  0  0  0  0  0  0
   38.1120   30.4440   40.6550 N   0  0  0  0  0  0  0  0  0  0  0  0
   38.0800   30.9150   39.3780 C   0  0  0  0  0  0  0  0  0  0  0  0
   38.8560   31.9540   39.0350 N   0  0  0  0  0  0  0  0  0  0  0  0
   40.3510   32.5060   42.0170 H   0  0  0  0  0  0  0  0  0  0  0  0
   38.9130   30.5970   42.6160 H   0  0  0  0  0  0  0  0  0  0  0  0
   36.0040   29.8050   38.7480 C   0  0  0  0  0  0  0  0  0  0  0  0
   37.2200   30.3210   38.3570 C   0  0  0  0  0  0  0  0  0  0  0  0
   37.6000   30.2680   37.0240 C   0  0  0  0  0  0  0  0  0  0  0  0
   36.7340   29.6900   36.1100 C   0  0  0  0  0  0  0  0  0  0  0  0
   36.8030   29.4890   34.7880 N   0  0  0  0  0  0  0  0  0  0  0  0
   35.7070   28.8800   34.3260 C   0  0  0  0  0  0  0  0  0  0  0  0
   34.8610   28.6620   35.3930 C   0  0  0  0  0  0  0  0  0  0  0  0
   35.5080   29.1690   36.5020 C   0  0  0  0  0  0  0  0  0  0  0  0
   35.1500   29.2330   37.8380 C   0  0  0  0  0  0  0  0  0  0  0  0
   35.7140   29.8510   39.8030 H   0  0  0  0  0  0  0  0  0  0  0  0
   38.5610   30.6790   36.7310 H   0  0  0  0  0  0  0  0  0  0  0  0
   37.6310   29.7900   34.2340 H   0  0  0  0  0  0  0  0  0  0  0  0
   35.5830   28.6360   33.2760 H   0  0  0  0  0  0  0  0  0  0  0  0
   33.8850   28.1810   35.3310 H   0  0  0  0  0  0  0  0  0  0  0  0
   34.1800   28.8130   38.1030 H   0  0  0  0  0  0  0  0  0  0  0  0
   40.5210   33.6380   39.6720 C   0  0  0  0  0  0  0  0  0  0  0  0
   40.2510   34.8650   39.8870 O   0  0  0  0  0  0  0  0  0  0  0  0
   41.7980   33.4730   39.1200 O   0  0  0  0  0  0  0  0  0  0  0  0
   43.0050   31.9610   37.3140 O   0  0  0  0  0  0  0  0  0  0  0  0
   42.0490   33.1320   37.4530 P   0  0  0  0  0  0  0  0  0  0  0  0
   42.6120   34.5110   36.6820 O   0  0  0  0  0  0  0  0  0  0  0  0
   43.0480   34.2230   35.8190 H   0  0  0  0  0  0  0  0  0  0  0  0
   40.5920   32.6130   36.7240 O   0  0  0  0  0  0  0  0  0  0  0  0
   40.2450   31.9060   37.3350 H   0  0  0  0  0  0  0  0  0  0  0  0
  1  2  1  0  0  0  0
  2  3  2  0  0  0  0
  2  7  1  0  0  0  0
  3  8  1  0  0  0  0
  4  3  1  0  0  0  0
  5  4  2  0  0  0  0
  6  5  1  0  0  0  0
  6  1  2  0  0  0  0
  9 18  1  0  0  0  0
 10  9  1  0  0  0  0
 10  5  1  0  0  0  0
 11 10  2  0  0  0  0
 12 16  2  0  0  0  0
 12 11  1  0  0  0  0
 13 12  1  0  0  0  0
 14 13  1  0  0  0  0
 14 15  2  0  0  0  0
 15 16  1  0  0  0  0
 16 17  1  0  0  0  0
 17 23  1  0  0  0  0
 17  9  2  0  0  0  0
 19 11  1  0  0  0  0
 20 13  1  0  0  0  0
 21 14  1  0  0  0  0
 22 15  1  0  0  0  0
 24 25  2  0  0  0  0
 24  1  1  0  0  0  0
 26 24  1  0  0  0  0
 27 28  2  0  0  0  0
 28 26  1  0  0  0  0
 29 28  1  0  0  0  0
 30 29  1  0  0  0  0
 31 32  1  0  0  0  0
 31 28  1  0  0  0  0
M  END
>  <minimizedAffinity>
-5.95672941

$$$$

 OpenBabel03252504013D

 32 34  0  0  0  0  0  0  0  0999 V2000
   41.8340   32.8970   40.9730 C   0  0  0  0  0  0  0  0  0  0  0  0
   42.9980   33.1830   41.6970 C   0  0  0  0  0  0  0  0  0  0  0  0
   43.2930   32.3540   42.7790 C   0  0  0  0  0  0  0  0  0  0  0  0
   42.4510   31.3360   43.0650 N   0  0  0  0  0  0  0  0  0  0  0  0
   41.3280   31.0890   42.3370 C   0  0  0  0  0  0  0  0  0  0  0  0
   41.0290   31.8770   41.2930 N   0  0  0  0  0  0  0  0  0  0  0  0
   43.6580   33.9960   41.4570 H   0  0  0  0  0  0  0  0  0  0  0  0
   44.1800   32.5330   43.3690 H   0  0  0  0  0  0  0  0  0  0  0  0
   40.9600   28.7200   42.7720 C   0  0  0  0  0  0  0  0  0  0  0  0
   40.4270   29.9850   42.6580 C   0  0  0  0  0  0  0  0  0  0  0  0
   39.0670   30.1840   42.8460 C   0  0  0  0  0  0  0  0  0  0  0  0
   38.2720   29.0910   43.1490 C   0  0  0  0  0  0  0  0  0  0  0  0
   36.9610   28.9520   43.3830 N   0  0  0  0  0  0  0  0  0  0  0  0
   36.6400   27.6810   43.6370 C   0  0  0  0  0  0  0  0  0  0  0  0
   37.7940   26.9290   43.5700 C   0  0  0  0  0  0  0  0  0  0  0  0
   38.8080   27.8150   43.2650 C   0  0  0  0  0  0  0  0  0  0  0  0
   40.1670   27.6400   43.0720 C   0  0  0  0  0  0  0  0  0  0  0  0
   42.0350   28.5730   42.6210 H   0  0  0  0  0  0  0  0  0  0  0  0
   38.6610   31.1880   42.7540 H   0  0  0  0  0  0  0  0  0  0  0  0
   36.3140   29.7680   43.3590 H   0  0  0  0  0  0  0  0  0  0  0  0
   35.6210   27.3760   43.8520 H   0  0  0  0  0  0  0  0  0  0  0  0
   37.8520   25.8530   43.7310 H   0  0  0  0  0  0  0  0  0  0  0  0
   40.5470   26.6240   43.1720 H   0  0  0  0  0  0  0  0  0  0  0  0
   41.5950   33.7930   39.8720 C   0  0  0  0  0  0  0  0  0  0  0  0
   42.1850   34.9040   39.6700 O   0  0  0  0  0  0  0  0  0  0  0  0
   40.6500   33.5150   38.8750 O   0  0  0  0  0  0  0  0  0  0  0  0
   42.2520   32.6150   36.9710 O   0  0  0  0  0  0  0  0  0  0  0  0
   40.9190   32.3430   37.6460 P   0  0  0  0  0  0  0  0  0  0  0  0
   39.6380   32.3660   36.5650 O   0  0  0  0  0  0  0  0  0  0  0  0
   39.9500   31.9300   35.7110 H   0  0  0  0  0  0  0  0  0  0  0  0
   41.0730   30.7840   38.3310 O   0  0  0  0  0  0  0  0  0  0  0  0
   41.7320   30.8990   39.0700 H   0  0  0  0  0  0  0  0  0  0  0  0
  1  6  2  0  0  0  0
  1  2  1  0  0  0  0
  2  3  2  0  0  0  0
  3  4  1  0  0  0  0
  3  8  1  0  0  0  0
  5 10  1  0  0  0  0
  5  4  2  0  0  0  0
  6  5  1  0  0  0  0
  7  2  1  0  0  0  0
  9 17  1  0  0  0  0
 10  9  2  0  0  0  0
 10 11  1  0  0  0  0
 11 12  2  0  0  0  0
 12 16  1  0  0  0  0
 12 13  1  0  0  0  0
 13 14  1  0  0  0  0
 14 21  1  0  0  0  0
 15 14  2  0  0  0  0
 15 22  1  0  0  0  0
 16 15  1  0  0  0  0
 17 23  1  0  0  0  0
 17 16  2  0  0  0  0
 18  9  1  0  0  0  0
 19 11  1  0  0  0  0
 20 13  1  0  0  0  0
 24  1  1  0  0  0  0
 25 24  2  0  0  0  0
 26 24  1  0  0  0  0
 27 28  2  0  0  0  0
 28 31  1  0  0  0  0
 28 26  1  0  0  0  0
 29 28  1  0  0  0  0
 30 29  1  0  0  0  0
 31 32  1  0  0  0  0
M  END
>  <minimizedAffinity>
-5.94584894

$$$$

 OpenBabel03252504013D

 32 34  0  0  0  0  0  0  0  0999 V2000
   38.3010   26.5910   41.7160 C   0  0  0  0  0  0  0  0  0  0  0  0
   37.2520   26.2690   42.5840 C   0  0  0  0  0  0  0  0  0  0  0  0
   36.4910   27.3270   43.0810 C   0  0  0  0  0  0  0  0  0  0  0  0
   36.8040   28.5860   42.7010 N   0  0  0  0  0  0  0  0  0  0  0  0
   37.8330   28.8590   41.8530 C   0  0  0  0  0  0  0  0  0  0  0  0
   38.5750   27.8530   41.3660 N   0  0  0  0  0  0  0  0  0  0  0  0
   37.0140   25.2620   42.8770 H   0  0  0  0  0  0  0  0  0  0  0  0
   35.6690   27.1310   43.7550 H   0  0  0  0  0  0  0  0  0  0  0  0
   39.4300   30.6940   41.7060 C   0  0  0  0  0  0  0  0  0  0  0  0
   38.1600   30.2250   41.4520 C   0  0  0  0  0  0  0  0  0  0  0  0
   37.2300   31.0440   40.8280 C   0  0  0  0  0  0  0  0  0  0  0  0
   37.6090   32.3280   40.4740 C   0  0  0  0  0  0  0  0  0  0  0  0
   36.9640   33.3390   39.8760 N   0  0  0  0  0  0  0  0  0  0  0  0
   37.7510   34.4100   39.7400 C   0  0  0  0  0  0  0  0  0  0  0  0
   38.9840   34.1020   40.2740 C   0  0  0  0  0  0  0  0  0  0  0  0
   38.8880   32.8030   40.7300 C   0  0  0  0  0  0  0  0  0  0  0  0
   39.8000   31.9680   41.3530 C   0  0  0  0  0  0  0  0  0  0  0  0
   40.1570   30.0400   42.2000 H   0  0  0  0  0  0  0  0  0  0  0  0
   36.2330   30.6600   40.6330 H   0  0  0  0  0  0  0  0  0  0  0  0
   35.9720   33.2480   39.5730 H   0  0  0  0  0  0  0  0  0  0  0  0
   37.4000   35.3260   39.2760 H   0  0  0  0  0  0  0  0  0  0  0  0
   39.8380   34.7790   40.3110 H   0  0  0  0  0  0  0  0  0  0  0  0
   40.7920   32.3790   41.5350 H   0  0  0  0  0  0  0  0  0  0  0  0
   39.0410   25.4490   41.2440 C   0  0  0  0  0  0  0  0  0  0  0  0
   38.5580   24.4510   40.6160 O   0  0  0  0  0  0  0  0  0  0  0  0
   40.4230   25.3240   41.4390 O   0  0  0  0  0  0  0  0  0  0  0  0
   41.4920   27.1460   43.0330 O   0  0  0  0  0  0  0  0  0  0  0  0
   41.1800   25.6630   42.9460 P   0  0  0  0  0  0  0  0  0  0  0  0
   42.5510   24.7100   43.1060 O   0  0  0  0  0  0  0  0  0  0  0  0
   43.1380   25.1350   43.8080 H   0  0  0  0  0  0  0  0  0  0  0  0
   40.1030   25.3520   44.2370 O   0  0  0  0  0  0  0  0  0  0  0  0
   39.2620   25.8210   43.9800 H   0  0  0  0  0  0  0  0  0  0  0  0
  1  2  1  0  0  0  0
  2  7  1  0  0  0  0
  2  3  2  0  0  0  0
  3  8  1  0  0  0  0
  4  3  1  0  0  0  0
  5  4  2  0  0  0  0
  6  1  2  0  0  0  0
  6  5  1  0  0  0  0
  9 18  1  0  0  0  0
 10  9  1  0  0  0  0
 10  5  1  0  0  0  0
 11 10  2  0  0  0  0
 12 16  2  0  0  0  0
 12 11  1  0  0  0  0
 13 12  1  0  0  0  0
 14 13  1  0  0  0  0
 14 15  2  0  0  0  0
 15 22  1  0  0  0  0
 15 16  1  0  0  0  0
 16 17  1  0  0  0  0
 17 23  1  0  0  0  0
 17  9  2  0  0  0  0
 19 11  1  0  0  0  0
 20 13  1  0  0  0  0
 21 14  1  0  0  0  0
 24 26  1  0  0  0  0
 24  1  1  0  0  0  0
 25 24  2  0  0  0  0
 26 28  1  0  0  0  0
 28 27  2  0  0  0  0
 28 29  1  0  0  0  0
 28 31  1  0  0  0  0
 29 30  1  0  0  0  0
 32 31  1  0  0  0  0
M  END
>  <minimizedAffinity>
-5.7807436

$$$$

 OpenBabel03252504013D

 32 34  0  0  0  0  0  0  0  0999 V2000
   37.1640   27.1950   41.4130 C   0  0  0  0  0  0  0  0  0  0  0  0
   37.0600   26.9000   42.7770 C   0  0  0  0  0  0  0  0  0  0  0  0
   37.2690   27.9490   43.6720 C   0  0  0  0  0  0  0  0  0  0  0  0
   37.5560   29.1750   43.1790 N   0  0  0  0  0  0  0  0  0  0  0  0
   37.6490   29.4220   41.8440 C   0  0  0  0  0  0  0  0  0  0  0  0
   37.4510   28.4250   40.9690 N   0  0  0  0  0  0  0  0  0  0  0  0
   36.8300   25.9200   43.1540 H   0  0  0  0  0  0  0  0  0  0  0  0
   37.2000   27.7730   44.7350 H   0  0  0  0  0  0  0  0  0  0  0  0
   36.9940   31.4130   40.6000 C   0  0  0  0  0  0  0  0  0  0  0  0
   37.9610   30.7520   41.3250 C   0  0  0  0  0  0  0  0  0  0  0  0
   39.1920   31.3510   41.5480 C   0  0  0  0  0  0  0  0  0  0  0  0
   39.4180   32.6150   41.0270 C   0  0  0  0  0  0  0  0  0  0  0  0
   40.4710   33.4420   41.0640 N   0  0  0  0  0  0  0  0  0  0  0  0
   40.2240   34.5790   40.4070 C   0  0  0  0  0  0  0  0  0  0  0  0
   38.9410   34.5100   39.9050 C   0  0  0  0  0  0  0  0  0  0  0  0
   38.4450   33.2830   40.2960 C   0  0  0  0  0  0  0  0  0  0  0  0
   37.2240   32.6660   40.0870 C   0  0  0  0  0  0  0  0  0  0  0  0
   36.0250   30.9310   40.4300 H   0  0  0  0  0  0  0  0  0  0  0  0
   39.9440   30.8180   42.1220 H   0  0  0  0  0  0  0  0  0  0  0  0
   41.3500   33.1840   41.5570 H   0  0  0  0  0  0  0  0  0  0  0  0
   40.9610   35.3720   40.3300 H   0  0  0  0  0  0  0  0  0  0  0  0
   38.4530   35.2910   39.3210 H   0  0  0  0  0  0  0  0  0  0  0  0
   36.4880   33.2230   39.5080 H   0  0  0  0  0  0  0  0  0  0  0  0
   36.9360   26.0640   40.5510 C   0  0  0  0  0  0  0  0  0  0  0  0
   36.6530   26.1150   39.3090 O   0  0  0  0  0  0  0  0  0  0  0  0
   37.0080   24.7440   41.0170 O   0  0  0  0  0  0  0  0  0  0  0  0
   39.3110   24.0170   42.0990 O   0  0  0  0  0  0  0  0  0  0  0  0
   38.4330   23.7910   40.8810 P   0  0  0  0  0  0  0  0  0  0  0  0
   39.2190   24.1670   39.4480 O   0  0  0  0  0  0  0  0  0  0  0  0
   40.1750   23.8580   39.5330 H   0  0  0  0  0  0  0  0  0  0  0  0
   38.0430   22.1270   40.9100 O   0  0  0  0  0  0  0  0  0  0  0  0
   37.4420   22.0250   41.6990 H   0  0  0  0  0  0  0  0  0  0  0  0
  1  2  1  0  0  0  0
  2  7  1  0  0  0  0
  2  3  2  0  0  0  0
  3  8  1  0  0  0  0
  4  3  1  0  0  0  0
  5  4  2  0  0  0  0
  6  1  2  0  0  0  0
  6  5  1  0  0  0  0
  9 10  1  0  0  0  0
 10 11  2  0  0  0  0
 10  5  1  0  0  0  0
 11 19  1  0  0  0  0
 12 13  1  0  0  0  0
 12 11  1  0  0  0  0
 13 20  1  0  0  0  0
 14 13  1  0  0  0  0
 15 16  1  0  0  0  0
 15 14  2  0  0  0  0
 16 12  2  0  0  0  0
 17 16  1  0  0  0  0
 17  9  2  0  0  0  0
 18  9  1  0  0  0  0
 21 14  1  0  0  0  0
 22 15  1  0  0  0  0
 23 17  1  0  0  0  0
 24 26  1  0  0  0  0
 24  1  1  0  0  0  0
 25 24  2  0  0  0  0
 28 31  1  0  0  0  0
 28 26  1  0  0  0  0
 28 27  2  0  0  0  0
 29 30  1  0  0  0  0
 29 28  1  0  0  0  0
 31 32  1  0  0  0  0
M  END
>  <minimizedAffinity>
-5.77816916

$$$$
