
 OpenBabel03242521443D

 36 37  0  0  1  0  0  0  0  0999 V2000
   45.3570   36.0140   43.6660 C   0  0  0  0  0  0  0  0  0  0  0  0
   46.3440   35.1280   43.1990 C   0  0  0  0  0  0  0  0  0  0  0  0
   46.6530   33.9890   43.9500 C   0  0  0  0  0  0  0  0  0  0  0  0
   45.9800   33.8070   45.0850 N   0  0  0  0  0  0  0  0  0  0  0  0
   45.0330   34.6680   45.5210 C   0  0  0  0  0  0  0  0  0  0  0  0
   44.7160   35.7770   44.8140 N   0  0  0  0  0  0  0  0  0  0  0  0
   46.8200   35.3850   42.2620 H   0  0  0  0  0  0  0  0  0  0  0  0
   44.5260   34.4560   46.4540 H   0  0  0  0  0  0  0  0  0  0  0  0
   48.7630   33.7960   42.6510 C   0  0  2  0  0  0  0  0  0  0  0  0
   47.6780   33.1180   43.4110 C   0  0  2  0  0  0  0  0  0  0  0  0
   47.2080   32.1870   42.4370 O   0  0  0  0  0  0  0  0  0  0  0  0
   48.3730   31.5870   42.0060 C   0  0  0  0  0  0  0  0  0  0  0  0
   49.5200   32.5400   42.1740 C   0  0  1  0  0  0  0  0  0  0  0  0
   48.3870   34.2440   41.6870 H   0  0  0  0  0  0  0  0  0  0  0  0
   48.1460   32.5340   44.2510 H   0  0  0  0  0  0  0  0  0  0  0  0
   48.5670   30.6630   42.5860 H   0  0  0  0  0  0  0  0  0  0  0  0
   48.2920   31.3260   40.9390 H   0  0  0  0  0  0  0  0  0  0  0  0
   50.2160   32.2590   42.9730 H   0  0  0  0  0  0  0  0  0  0  0  0
   49.5260   34.6580   43.3770 O   0  0  0  0  0  0  0  0  0  0  0  0
   49.5670   35.5700   42.9930 H   0  0  0  0  0  0  0  0  0  0  0  0
   50.1730   32.8430   40.9810 O   0  0  0  0  0  0  0  0  0  0  0  0
   50.7640   33.6120   41.1770 H   0  0  0  0  0  0  0  0  0  0  0  0
   45.0540   37.2380   42.8430 C   0  0  0  0  0  0  0  0  0  0  0  0
   44.1190   37.0460   42.2980 H   0  0  0  0  0  0  0  0  0  0  0  0
   45.8950   37.4510   42.1790 H   0  0  0  0  0  0  0  0  0  0  0  0
   45.1500   39.6870   43.6140 C   0  0  0  0  0  0  0  0  0  0  0  0
   45.6780   40.0000   42.5100 O   0  0  0  0  0  0  0  0  0  0  0  0
   44.8240   38.3150   43.7960 N   0  0  0  0  0  0  0  0  0  0  0  0
   44.3680   38.0570   44.7200 H   0  0  0  0  0  0  0  0  0  0  0  0
   44.8910   40.6160   44.6140 O   0  0  0  0  0  0  0  0  0  0  0  0
   44.5550   38.8240   46.5620 O   0  0  0  0  0  0  0  0  0  0  0  0
   45.2020   40.1780   46.2620 P   0  0  0  0  0  0  0  0  0  0  0  0
   44.6400   41.3720   47.2950 O   0  0  0  0  0  0  0  0  0  0  0  0
   44.1150   40.9040   48.0110 H   0  0  0  0  0  0  0  0  0  0  0  0
   46.8620   39.9390   46.4040 O   0  0  0  0  0  0  0  0  0  0  0  0
   47.1210   38.9730   46.2800 H   0  0  0  0  0  0  0  0  0  0  0  0
  1  6  1  0  0  0  0
  2  1  2  0  0  0  0
  2  3  1  0  0  0  0
  3  4  2  0  0  0  0
  4  5  1  0  0  0  0
  5  8  1  0  0  0  0
  6  5  2  0  0  0  0
  7  2  1  0  0  0  0
  9 14  1  6  0  0  0
  9 19  1  0  0  0  0
  9 10  1  0  0  0  0
 10  3  1  0  0  0  0
 10 15  1  1  0  0  0
 11 10  1  0  0  0  0
 12 13  1  0  0  0  0
 12 11  1  0  0  0  0
 12 16  1  0  0  0  0
 13  9  1  0  0  0  0
 13 18  1  1  0  0  0
 17 12  1  0  0  0  0
 20 19  1  0  0  0  0
 21 22  1  0  0  0  0
 21 13  1  0  0  0  0
 23  1  1  0  0  0  0
 23 28  1  0  0  0  0
 24 23  1  0  0  0  0
 25 23  1  0  0  0  0
 26 28  1  0  0  0  0
 26 30  1  0  0  0  0
 27 26  2  0  0  0  0
 28 29  1  0  0  0  0
 30 32  1  0  0  0  0
 32 35  1  0  0  0  0
 32 31  2  0  0  0  0
 32 33  1  0  0  0  0
 33 34  1  0  0  0  0
 36 35  1  0  0  0  0
M  END
>  <minimizedAffinity>
-2.33566093

>  <minimizedRMSD>
0.858788013

$$$$
