
 OpenBabel03252507493D

 41 42  0  0  0  0  0  0  0  0999 V2000
   37.6320   25.8950   41.8770 C   0  0  0  0  0  0  0  0  0  0  0  0
   37.6620   25.8560   40.4950 C   0  0  0  0  0  0  0  0  0  0  0  0
   38.4690   24.9650   39.8160 C   0  0  0  0  0  0  0  0  0  0  0  0
   39.2400   24.1240   40.5770 N   0  0  0  0  0  0  0  0  0  0  0  0
   39.1820   24.1920   41.9480 C   0  0  0  0  0  0  0  0  0  0  0  0
   38.3910   25.0640   42.5490 N   0  0  0  0  0  0  0  0  0  0  0  0
   38.4640   24.9670   38.7460 H   0  0  0  0  0  0  0  0  0  0  0  0
   39.8230   23.4920   42.4560 H   0  0  0  0  0  0  0  0  0  0  0  0
   36.7320   26.8860   42.4880 C   0  0  0  0  0  0  0  0  0  0  0  0
   35.8750   26.4210   43.0070 H   0  0  0  0  0  0  0  0  0  0  0  0
   36.2830   27.5370   41.7100 H   0  0  0  0  0  0  0  0  0  0  0  0
   37.4100   27.7730   43.4850 C   0  0  0  0  0  0  0  0  0  0  0  0
   37.9190   27.1140   44.2380 H   0  0  0  0  0  0  0  0  0  0  0  0
   36.7010   28.3900   44.0770 H   0  0  0  0  0  0  0  0  0  0  0  0
   38.3860   28.7240   42.8740 C   0  0  0  0  0  0  0  0  0  0  0  0
   39.7850   28.5340   43.0630 C   0  0  0  0  0  0  0  0  0  0  0  0
   40.5250   29.9290   42.1380 S   0  0  0  0  0  0  0  0  0  0  0  0
   38.8030   30.5540   41.6380 C   0  0  0  0  0  0  0  0  0  0  0  0
   38.1320   29.7810   42.1390 N   0  0  0  0  0  0  0  0  0  0  0  0
   40.2550   27.7420   43.6250 H   0  0  0  0  0  0  0  0  0  0  0  0
   38.6030   31.6890   40.8520 O   0  0  0  0  0  0  0  0  0  0  0  0
   37.0480   31.1010   38.7780 O   0  0  0  0  0  0  0  0  0  0  0  0
   37.0930   31.8550   40.0930 P   0  0  0  0  0  0  0  0  0  0  0  0
   35.9100   31.2080   41.1280 O   0  0  0  0  0  0  0  0  0  0  0  0
   35.5440   31.8990   41.7340 H   0  0  0  0  0  0  0  0  0  0  0  0
   36.7300   33.5010   39.8630 O   0  0  0  0  0  0  0  0  0  0  0  0
   36.7630   33.9670   40.7200 H   0  0  0  0  0  0  0  0  0  0  0  0
   36.6270   26.9860   39.5360 S   0  0  0  0  0  0  0  0  0  0  0  0
   35.7360   26.0670   38.2560 C   0  0  0  0  0  0  0  0  0  0  0  0
   36.2630   25.1100   38.0270 H   0  0  0  0  0  0  0  0  0  0  0  0
   34.7350   25.8250   38.6470 H   0  0  0  0  0  0  0  0  0  0  0  0
   35.6240   26.9260   37.0390 C   0  0  0  0  0  0  0  0  0  0  0  0
   34.5650   27.2210   36.8630 H   0  0  0  0  0  0  0  0  0  0  0  0
   36.0410   26.3570   36.1780 H   0  0  0  0  0  0  0  0  0  0  0  0
   36.3030   28.1220   37.2800 O   0  0  0  0  0  0  0  0  0  0  0  0
   38.6550   27.9520   36.1760 O   0  0  0  0  0  0  0  0  0  0  0  0
   37.2820   28.5350   35.9450 P   0  0  0  0  0  0  0  0  0  0  0  0
   37.3440   30.2220   35.8820 O   0  0  0  0  0  0  0  0  0  0  0  0
   36.9090   30.5060   35.0540 H   0  0  0  0  0  0  0  0  0  0  0  0
   36.5770   27.9120   34.5170 O   0  0  0  0  0  0  0  0  0  0  0  0
   35.8700   27.2440   34.7160 H   0  0  0  0  0  0  0  0  0  0  0  0
  1  9  1  0  0  0  0
  1  6  1  0  0  0  0
  2  1  2  0  0  0  0
  3  2  1  0  0  0  0
  3  4  2  0  0  0  0
  4  5  1  0  0  0  0
  5  8  1  0  0  0  0
  5  6  2  0  0  0  0
  7  3  1  0  0  0  0
  9 10  1  0  0  0  0
  9 12  1  0  0  0  0
 11  9  1  0  0  0  0
 12 14  1  0  0  0  0
 12 13  1  0  0  0  0
 15 16  2  0  0  0  0
 15 12  1  0  0  0  0
 16 20  1  0  0  0  0
 17 16  1  0  0  0  0
 18 17  1  0  0  0  0
 18 19  2  0  0  0  0
 19 15  1  0  0  0  0
 21 18  1  0  0  0  0
 22 23  2  0  0  0  0
 23 21  1  0  0  0  0
 23 24  1  0  0  0  0
 24 25  1  0  0  0  0
 26 23  1  0  0  0  0
 26 27  1  0  0  0  0
 28  2  1  0  0  0  0
 29 31  1  0  0  0  0
 29 28  1  0  0  0  0
 30 29  1  0  0  0  0
 32 35  1  0  0  0  0
 32 29  1  0  0  0  0
 33 32  1  0  0  0  0
 34 32  1  0  0  0  0
 37 36  2  0  0  0  0
 37 35  1  0  0  0  0
 38 37  1  0  0  0  0
 39 38  1  0  0  0  0
 40 41  1  0  0  0  0
 40 37  1  0  0  0  0
M  END
>  <minimizedAffinity>
-5.09412241

$$$$

 OpenBabel03252507493D

 41 42  0  0  0  0  0  0  0  0999 V2000
   37.0750   29.3980   41.7830 C   0  0  0  0  0  0  0  0  0  0  0  0
   37.6780   30.2640   40.8900 C   0  0  0  0  0  0  0  0  0  0  0  0
   37.1620   30.4700   39.6260 C   0  0  0  0  0  0  0  0  0  0  0  0
   36.0260   29.7730   39.3000 N   0  0  0  0  0  0  0  0  0  0  0  0
   35.4560   28.9220   40.2150 C   0  0  0  0  0  0  0  0  0  0  0  0
   35.9910   28.7610   41.4130 N   0  0  0  0  0  0  0  0  0  0  0  0
   37.6570   31.1480   38.9640 H   0  0  0  0  0  0  0  0  0  0  0  0
   34.5690   28.4220   39.8660 H   0  0  0  0  0  0  0  0  0  0  0  0
   37.7150   29.2610   43.1020 C   0  0  0  0  0  0  0  0  0  0  0  0
   37.2990   29.9560   43.8520 H   0  0  0  0  0  0  0  0  0  0  0  0
   38.7950   29.5120   43.0380 H   0  0  0  0  0  0  0  0  0  0  0  0
   37.6040   27.8850   43.6800 C   0  0  0  0  0  0  0  0  0  0  0  0
   36.5550   27.5260   43.5070 H   0  0  0  0  0  0  0  0  0  0  0  0
   37.7380   27.8600   44.7810 H   0  0  0  0  0  0  0  0  0  0  0  0
   38.5900   26.9160   43.1130 C   0  0  0  0  0  0  0  0  0  0  0  0
   39.8930   26.8070   43.6800 C   0  0  0  0  0  0  0  0  0  0  0  0
   40.6890   25.5190   42.6530 S   0  0  0  0  0  0  0  0  0  0  0  0
   39.1140   25.3310   41.6090 C   0  0  0  0  0  0  0  0  0  0  0  0
   38.4270   26.0940   42.1030 N   0  0  0  0  0  0  0  0  0  0  0  0
   40.2780   27.3700   44.5160 H   0  0  0  0  0  0  0  0  0  0  0  0
   39.0070   24.4350   40.5450 O   0  0  0  0  0  0  0  0  0  0  0  0
   37.7740   23.9180   38.2480 O   0  0  0  0  0  0  0  0  0  0  0  0
   37.5640   24.4570   39.6500 P   0  0  0  0  0  0  0  0  0  0  0  0
   36.4360   23.4660   40.4470 O   0  0  0  0  0  0  0  0  0  0  0  0
   35.8970   23.9830   41.0960 H   0  0  0  0  0  0  0  0  0  0  0  0
   36.9250   26.0330   39.6080 O   0  0  0  0  0  0  0  0  0  0  0  0
   36.7970   26.3590   40.5180 H   0  0  0  0  0  0  0  0  0  0  0  0
   39.1730   31.1600   41.3670 S   0  0  0  0  0  0  0  0  0  0  0  0
   39.1510   32.8210   40.6470 C   0  0  0  0  0  0  0  0  0  0  0  0
   38.2190   32.9730   40.0520 H   0  0  0  0  0  0  0  0  0  0  0  0
   39.1560   33.5490   41.4740 H   0  0  0  0  0  0  0  0  0  0  0  0
   40.3680   32.9920   39.7980 C   0  0  0  0  0  0  0  0  0  0  0  0
   41.2780   33.0890   40.4320 H   0  0  0  0  0  0  0  0  0  0  0  0
   40.2160   33.8890   39.1570 H   0  0  0  0  0  0  0  0  0  0  0  0
   40.5580   31.8220   39.0600 O   0  0  0  0  0  0  0  0  0  0  0  0
   41.7650   31.1470   36.8530 O   0  0  0  0  0  0  0  0  0  0  0  0
   40.8280   32.1880   37.4150 P   0  0  0  0  0  0  0  0  0  0  0  0
   41.5280   33.7250   37.3600 O   0  0  0  0  0  0  0  0  0  0  0  0
   40.9020   34.3220   36.9070 H   0  0  0  0  0  0  0  0  0  0  0  0
   39.3310   32.1860   36.5870 O   0  0  0  0  0  0  0  0  0  0  0  0
   38.6130   31.7630   37.1260 H   0  0  0  0  0  0  0  0  0  0  0  0
  1  9  1  0  0  0  0
  2 28  1  0  0  0  0
  2  1  2  0  0  0  0
  3  2  1  0  0  0  0
  4  3  2  0  0  0  0
  4  5  1  0  0  0  0
  5  6  2  0  0  0  0
  6  1  1  0  0  0  0
  7  3  1  0  0  0  0
  8  5  1  0  0  0  0
  9 12  1  0  0  0  0
  9 10  1  0  0  0  0
 11  9  1  0  0  0  0
 12 14  1  0  0  0  0
 13 12  1  0  0  0  0
 15 16  2  0  0  0  0
 15 12  1  0  0  0  0
 16 20  1  0  0  0  0
 17 16  1  0  0  0  0
 18 19  2  0  0  0  0
 18 17  1  0  0  0  0
 19 15  1  0  0  0  0
 21 18  1  0  0  0  0
 22 23  2  0  0  0  0
 23 24  1  0  0  0  0
 23 21  1  0  0  0  0
 24 25  1  0  0  0  0
 26 23  1  0  0  0  0
 26 27  1  0  0  0  0
 29 28  1  0  0  0  0
 29 31  1  0  0  0  0
 30 29  1  0  0  0  0
 32 33  1  0  0  0  0
 32 29  1  0  0  0  0
 34 32  1  0  0  0  0
 35 32  1  0  0  0  0
 36 37  2  0  0  0  0
 37 35  1  0  0  0  0
 38 37  1  0  0  0  0
 39 38  1  0  0  0  0
 40 41  1  0  0  0  0
 40 37  1  0  0  0  0
M  END
>  <minimizedAffinity>
-4.93565035

$$$$

 OpenBabel03252507493D

 41 42  0  0  0  0  0  0  0  0999 V2000
   37.0490   26.5070   39.2710 C   0  0  0  0  0  0  0  0  0  0  0  0
   37.2630   26.5050   40.6370 C   0  0  0  0  0  0  0  0  0  0  0  0
   37.6000   25.3490   41.3120 C   0  0  0  0  0  0  0  0  0  0  0  0
   37.7090   24.2040   40.5640 N   0  0  0  0  0  0  0  0  0  0  0  0
   37.4900   24.2470   39.2080 C   0  0  0  0  0  0  0  0  0  0  0  0
   37.1700   25.3820   38.6100 N   0  0  0  0  0  0  0  0  0  0  0  0
   37.7560   25.3880   42.3690 H   0  0  0  0  0  0  0  0  0  0  0  0
   37.6000   23.2990   38.7090 H   0  0  0  0  0  0  0  0  0  0  0  0
   36.6960   27.8000   38.6620 C   0  0  0  0  0  0  0  0  0  0  0  0
   37.0280   28.6610   39.2680 H   0  0  0  0  0  0  0  0  0  0  0  0
   35.5940   27.9050   38.5830 H   0  0  0  0  0  0  0  0  0  0  0  0
   37.2680   27.9900   37.2920 C   0  0  0  0  0  0  0  0  0  0  0  0
   36.6640   28.7830   36.7770 H   0  0  0  0  0  0  0  0  0  0  0  0
   37.1700   27.0910   36.6480 H   0  0  0  0  0  0  0  0  0  0  0  0
   38.7170   28.3510   37.2930 C   0  0  0  0  0  0  0  0  0  0  0  0
   39.6690   27.4970   36.6630 C   0  0  0  0  0  0  0  0  0  0  0  0
   41.2560   28.3660   36.9370 S   0  0  0  0  0  0  0  0  0  0  0  0
   40.3690   29.7610   37.8720 C   0  0  0  0  0  0  0  0  0  0  0  0
   39.2860   29.4080   37.8230 N   0  0  0  0  0  0  0  0  0  0  0  0
   39.4590   26.5690   36.1550 H   0  0  0  0  0  0  0  0  0  0  0  0
   41.0360   30.8600   38.4140 O   0  0  0  0  0  0  0  0  0  0  0  0
   41.8320   33.0140   37.0760 O   0  0  0  0  0  0  0  0  0  0  0  0
   40.6490   32.3910   37.7900 P   0  0  0  0  0  0  0  0  0  0  0  0
   39.3830   32.1990   36.6730 O   0  0  0  0  0  0  0  0  0  0  0  0
   38.4990   32.2890   37.1100 H   0  0  0  0  0  0  0  0  0  0  0  0
   40.0860   33.4050   39.0350 O   0  0  0  0  0  0  0  0  0  0  0  0
   39.3260   32.9870   39.4810 H   0  0  0  0  0  0  0  0  0  0  0  0
   37.1050   28.0390   41.5800 S   0  0  0  0  0  0  0  0  0  0  0  0
   38.6540   28.9720   41.4980 C   0  0  0  0  0  0  0  0  0  0  0  0
   39.3950   28.5580   42.2220 H   0  0  0  0  0  0  0  0  0  0  0  0
   39.0650   28.8590   40.4810 H   0  0  0  0  0  0  0  0  0  0  0  0
   38.3640   30.4090   41.7830 C   0  0  0  0  0  0  0  0  0  0  0  0
   39.0940   30.8200   42.5160 H   0  0  0  0  0  0  0  0  0  0  0  0
   37.3190   30.4800   42.1610 H   0  0  0  0  0  0  0  0  0  0  0  0
   38.5680   31.1420   40.6120 O   0  0  0  0  0  0  0  0  0  0  0  0
   36.9230   31.5450   38.6350 O   0  0  0  0  0  0  0  0  0  0  0  0
   37.1120   31.8680   40.0970 P   0  0  0  0  0  0  0  0  0  0  0  0
   37.2820   33.5320   40.3310 O   0  0  0  0  0  0  0  0  0  0  0  0
   36.6320   33.8050   41.0080 H   0  0  0  0  0  0  0  0  0  0  0  0
   35.8190   31.2620   41.0390 O   0  0  0  0  0  0  0  0  0  0  0  0
   36.0830   30.4530   41.5490 H   0  0  0  0  0  0  0  0  0  0  0  0
  1  2  1  0  0  0  0
  2  3  2  0  0  0  0
  2 28  1  0  0  0  0
  3  7  1  0  0  0  0
  4  3  1  0  0  0  0
  5  4  2  0  0  0  0
  6  5  1  0  0  0  0
  6  1  2  0  0  0  0
  8  5  1  0  0  0  0
  9 10  1  0  0  0  0
  9  1  1  0  0  0  0
 11  9  1  0  0  0  0
 12 15  1  0  0  0  0
 12  9  1  0  0  0  0
 13 12  1  0  0  0  0
 14 12  1  0  0  0  0
 15 19  1  0  0  0  0
 16 17  1  0  0  0  0
 16 15  2  0  0  0  0
 17 18  1  0  0  0  0
 18 21  1  0  0  0  0
 19 18  2  0  0  0  0
 20 16  1  0  0  0  0
 22 23  2  0  0  0  0
 23 21  1  0  0  0  0
 23 26  1  0  0  0  0
 24 25  1  0  0  0  0
 24 23  1  0  0  0  0
 26 27  1  0  0  0  0
 29 28  1  0  0  0  0
 29 32  1  0  0  0  0
 29 30  1  0  0  0  0
 31 29  1  0  0  0  0
 32 34  1  0  0  0  0
 32 33  1  0  0  0  0
 35 32  1  0  0  0  0
 36 37  2  0  0  0  0
 37 38  1  0  0  0  0
 37 35  1  0  0  0  0
 37 40  1  0  0  0  0
 38 39  1  0  0  0  0
 40 41  1  0  0  0  0
M  END
>  <minimizedAffinity>
-4.85111952

$$$$

 OpenBabel03252507493D

 41 42  0  0  0  0  0  0  0  0999 V2000
   36.2320   30.2680   40.1990 C   0  0  0  0  0  0  0  0  0  0  0  0
   37.1150   29.8740   41.1880 C   0  0  0  0  0  0  0  0  0  0  0  0
   38.2510   30.6060   41.4730 C   0  0  0  0  0  0  0  0  0  0  0  0
   38.4610   31.7380   40.7290 N   0  0  0  0  0  0  0  0  0  0  0  0
   37.5600   32.0980   39.7560 C   0  0  0  0  0  0  0  0  0  0  0  0
   36.4870   31.3620   39.5230 N   0  0  0  0  0  0  0  0  0  0  0  0
   38.9100   30.2670   42.2450 H   0  0  0  0  0  0  0  0  0  0  0  0
   37.8120   33.0020   39.2280 H   0  0  0  0  0  0  0  0  0  0  0  0
   35.0560   29.4090   39.9860 C   0  0  0  0  0  0  0  0  0  0  0  0
   34.1290   29.9870   39.8260 H   0  0  0  0  0  0  0  0  0  0  0  0
   34.8610   28.7870   40.8840 H   0  0  0  0  0  0  0  0  0  0  0  0
   35.1960   28.4850   38.8170 C   0  0  0  0  0  0  0  0  0  0  0  0
   35.0190   27.4400   39.1840 H   0  0  0  0  0  0  0  0  0  0  0  0
   36.2210   28.4700   38.3900 H   0  0  0  0  0  0  0  0  0  0  0  0
   34.2750   28.8070   37.6860 C   0  0  0  0  0  0  0  0  0  0  0  0
   34.7830   28.9320   36.3610 C   0  0  0  0  0  0  0  0  0  0  0  0
   33.2920   29.3220   35.3750 S   0  0  0  0  0  0  0  0  0  0  0  0
   32.2050   29.2540   36.9310 C   0  0  0  0  0  0  0  0  0  0  0  0
   32.9780   29.0060   37.7320 N   0  0  0  0  0  0  0  0  0  0  0  0
   35.8110   28.8150   36.0550 H   0  0  0  0  0  0  0  0  0  0  0  0
   30.8280   29.4770   36.9100 O   0  0  0  0  0  0  0  0  0  0  0  0
   28.7320   29.6460   38.5340 O   0  0  0  0  0  0  0  0  0  0  0  0
   30.1300   30.1770   38.2910 P   0  0  0  0  0  0  0  0  0  0  0  0
   31.1000   29.7800   39.6280 O   0  0  0  0  0  0  0  0  0  0  0  0
   31.7990   30.4640   39.7840 H   0  0  0  0  0  0  0  0  0  0  0  0
   30.1220   31.8720   38.1470 O   0  0  0  0  0  0  0  0  0  0  0  0
   31.0300   32.1930   37.9920 H   0  0  0  0  0  0  0  0  0  0  0  0
   36.7950   28.3720   42.1410 S   0  0  0  0  0  0  0  0  0  0  0  0
   38.3460   27.4830   42.4260 C   0  0  0  0  0  0  0  0  0  0  0  0
   39.2170   28.1640   42.2730 H   0  0  0  0  0  0  0  0  0  0  0  0
   38.3530   27.1410   43.4740 H   0  0  0  0  0  0  0  0  0  0  0  0
   38.4050   26.3130   41.4990 C   0  0  0  0  0  0  0  0  0  0  0  0
   39.1050   25.5390   41.8870 H   0  0  0  0  0  0  0  0  0  0  0  0
   38.7180   26.6840   40.4970 H   0  0  0  0  0  0  0  0  0  0  0  0
   37.1510   25.6990   41.4830 O   0  0  0  0  0  0  0  0  0  0  0  0
   35.8180   23.6980   40.4840 O   0  0  0  0  0  0  0  0  0  0  0  0
   37.2290   24.1960   40.6790 P   0  0  0  0  0  0  0  0  0  0  0  0
   38.1080   23.1500   41.6730 O   0  0  0  0  0  0  0  0  0  0  0  0
   38.9320   22.9150   41.2040 H   0  0  0  0  0  0  0  0  0  0  0  0
   38.0260   24.4030   39.1800 O   0  0  0  0  0  0  0  0  0  0  0  0
   38.1020   25.3600   38.9320 H   0  0  0  0  0  0  0  0  0  0  0  0
  1  2  1  0  0  0  0
  2  3  2  0  0  0  0
  2 28  1  0  0  0  0
  3  7  1  0  0  0  0
  4  3  1  0  0  0  0
  5  4  2  0  0  0  0
  6  5  1  0  0  0  0
  6  1  2  0  0  0  0
  8  5  1  0  0  0  0
  9  1  1  0  0  0  0
  9 11  1  0  0  0  0
 10  9  1  0  0  0  0
 12 13  1  0  0  0  0
 12  9  1  0  0  0  0
 14 12  1  0  0  0  0
 15 19  1  0  0  0  0
 15 12  1  0  0  0  0
 16 15  2  0  0  0  0
 17 16  1  0  0  0  0
 17 18  1  0  0  0  0
 18 19  2  0  0  0  0
 20 16  1  0  0  0  0
 21 18  1  0  0  0  0
 21 23  1  0  0  0  0
 23 22  2  0  0  0  0
 23 24  1  0  0  0  0
 24 25  1  0  0  0  0
 26 23  1  0  0  0  0
 27 26  1  0  0  0  0
 28 29  1  0  0  0  0
 29 31  1  0  0  0  0
 30 29  1  0  0  0  0
 32 33  1  0  0  0  0
 32 29  1  0  0  0  0
 34 32  1  0  0  0  0
 35 32  1  0  0  0  0
 36 37  2  0  0  0  0
 37 35  1  0  0  0  0
 37 38  1  0  0  0  0
 39 38  1  0  0  0  0
 40 37  1  0  0  0  0
 41 40  1  0  0  0  0
M  END
>  <minimizedAffinity>
-4.83757544

$$$$

 OpenBabel03252507493D

 41 42  0  0  0  0  0  0  0  0999 V2000
   39.2370   27.5520   42.6490 C   0  0  0  0  0  0  0  0  0  0  0  0
   38.0640   26.9570   42.2240 C   0  0  0  0  0  0  0  0  0  0  0  0
   37.9510   25.5860   42.1120 C   0  0  0  0  0  0  0  0  0  0  0  0
   39.0570   24.8440   42.4400 N   0  0  0  0  0  0  0  0  0  0  0  0
   40.2050   25.4720   42.8590 C   0  0  0  0  0  0  0  0  0  0  0  0
   40.2600   26.7900   42.9500 N   0  0  0  0  0  0  0  0  0  0  0  0
   37.0270   25.1630   41.7780 H   0  0  0  0  0  0  0  0  0  0  0  0
   41.0170   24.8060   43.0940 H   0  0  0  0  0  0  0  0  0  0  0  0
   39.2380   29.0220   42.7300 C   0  0  0  0  0  0  0  0  0  0  0  0
   39.2120   29.3920   43.7710 H   0  0  0  0  0  0  0  0  0  0  0  0
   38.3280   29.4390   42.2500 H   0  0  0  0  0  0  0  0  0  0  0  0
   40.4260   29.6550   42.0770 C   0  0  0  0  0  0  0  0  0  0  0  0
   40.8870   28.8930   41.3950 H   0  0  0  0  0  0  0  0  0  0  0  0
   41.2300   29.9230   42.7940 H   0  0  0  0  0  0  0  0  0  0  0  0
   40.1010   30.9040   41.3250 C   0  0  0  0  0  0  0  0  0  0  0  0
   38.7900   31.4600   41.3910 C   0  0  0  0  0  0  0  0  0  0  0  0
   38.9100   32.9420   40.3250 S   0  0  0  0  0  0  0  0  0  0  0  0
   40.7350   32.5690   39.9540 C   0  0  0  0  0  0  0  0  0  0  0  0
   40.8940   31.6160   40.5590 N   0  0  0  0  0  0  0  0  0  0  0  0
   37.9550   31.0680   41.9500 H   0  0  0  0  0  0  0  0  0  0  0  0
   41.5240   33.3690   39.1280 O   0  0  0  0  0  0  0  0  0  0  0  0
   42.5780   31.5950   37.4530 O   0  0  0  0  0  0  0  0  0  0  0  0
   41.7410   32.8580   37.5230 P   0  0  0  0  0  0  0  0  0  0  0  0
   40.2100   32.5290   36.8650 O   0  0  0  0  0  0  0  0  0  0  0  0
   39.8250   33.3300   36.4280 H   0  0  0  0  0  0  0  0  0  0  0  0
   42.4410   34.1040   36.6010 O   0  0  0  0  0  0  0  0  0  0  0  0
   41.8880   34.9060   36.6590 H   0  0  0  0  0  0  0  0  0  0  0  0
   36.6330   27.9770   41.8020 S   0  0  0  0  0  0  0  0  0  0  0  0
   36.8020   28.6040   40.1110 C   0  0  0  0  0  0  0  0  0  0  0  0
   35.8130   28.5920   39.5930 H   0  0  0  0  0  0  0  0  0  0  0  0
   37.1490   29.6480   40.1700 H   0  0  0  0  0  0  0  0  0  0  0  0
   37.8030   27.7640   39.3870 C   0  0  0  0  0  0  0  0  0  0  0  0
   37.4170   27.4710   38.3840 H   0  0  0  0  0  0  0  0  0  0  0  0
   38.0250   26.8750   40.0170 H   0  0  0  0  0  0  0  0  0  0  0  0
   38.9310   28.5460   39.1310 O   0  0  0  0  0  0  0  0  0  0  0  0
   38.1330   28.2300   36.6730 O   0  0  0  0  0  0  0  0  0  0  0  0
   38.8560   29.2120   37.5620 P   0  0  0  0  0  0  0  0  0  0  0  0
   40.4480   29.4370   37.0450 O   0  0  0  0  0  0  0  0  0  0  0  0
   40.5950   30.3970   36.9380 H   0  0  0  0  0  0  0  0  0  0  0  0
   38.0340   30.7110   37.6270 O   0  0  0  0  0  0  0  0  0  0  0  0
   37.5540   30.8310   38.4870 H   0  0  0  0  0  0  0  0  0  0  0  0
  1  9  1  0  0  0  0
  1  6  1  0  0  0  0
  2  1  2  0  0  0  0
  3  2  1  0  0  0  0
  3  4  2  0  0  0  0
  4  5  1  0  0  0  0
  5  6  2  0  0  0  0
  5  8  1  0  0  0  0
  7  3  1  0  0  0  0
  9 10  1  0  0  0  0
 11  9  1  0  0  0  0
 12  9  1  0  0  0  0
 12 14  1  0  0  0  0
 13 12  1  0  0  0  0
 15 16  2  0  0  0  0
 15 12  1  0  0  0  0
 16 20  1  0  0  0  0
 17 16  1  0  0  0  0
 18 17  1  0  0  0  0
 18 19  2  0  0  0  0
 19 15  1  0  0  0  0
 21 18  1  0  0  0  0
 22 23  2  0  0  0  0
 23 21  1  0  0  0  0
 24 23  1  0  0  0  0
 25 24  1  0  0  0  0
 26 27  1  0  0  0  0
 26 23  1  0  0  0  0
 28  2  1  0  0  0  0
 29 31  1  0  0  0  0
 29 28  1  0  0  0  0
 30 29  1  0  0  0  0
 32 34  1  0  0  0  0
 32 29  1  0  0  0  0
 33 32  1  0  0  0  0
 35 32  1  0  0  0  0
 36 37  2  0  0  0  0
 37 40  1  0  0  0  0
 37 35  1  0  0  0  0
 38 37  1  0  0  0  0
 39 38  1  0  0  0  0
 40 41  1  0  0  0  0
M  END
>  <minimizedAffinity>
-4.82641745

$$$$

 OpenBabel03252507493D

 41 42  0  0  0  0  0  0  0  0999 V2000
   38.7810   25.8310   40.7170 C   0  0  0  0  0  0  0  0  0  0  0  0
   37.8870   25.6280   39.6820 C   0  0  0  0  0  0  0  0  0  0  0  0
   36.7510   24.8620   39.8520 C   0  0  0  0  0  0  0  0  0  0  0  0
   36.5540   24.3120   41.0930 N   0  0  0  0  0  0  0  0  0  0  0  0
   37.4650   24.5380   42.0960 C   0  0  0  0  0  0  0  0  0  0  0  0
   38.5380   25.2800   41.8810 N   0  0  0  0  0  0  0  0  0  0  0  0
   36.0830   24.7280   39.0270 H   0  0  0  0  0  0  0  0  0  0  0  0
   37.2230   24.0650   43.0330 H   0  0  0  0  0  0  0  0  0  0  0  0
   39.9560   26.6660   40.4170 C   0  0  0  0  0  0  0  0  0  0  0  0
   39.7000   27.5700   39.8360 H   0  0  0  0  0  0  0  0  0  0  0  0
   40.6790   26.1090   39.7860 H   0  0  0  0  0  0  0  0  0  0  0  0
   40.6850   27.1310   41.6390 C   0  0  0  0  0  0  0  0  0  0  0  0
   41.7610   26.8330   41.5280 H   0  0  0  0  0  0  0  0  0  0  0  0
   40.3430   26.6330   42.5700 H   0  0  0  0  0  0  0  0  0  0  0  0
   40.5700   28.6000   41.8820 C   0  0  0  0  0  0  0  0  0  0  0  0
   41.6920   29.3370   42.3620 C   0  0  0  0  0  0  0  0  0  0  0  0
   41.0470   31.0440   42.4900 S   0  0  0  0  0  0  0  0  0  0  0  0
   39.3430   30.4830   41.8670 C   0  0  0  0  0  0  0  0  0  0  0  0
   39.5200   29.3690   41.7090 N   0  0  0  0  0  0  0  0  0  0  0  0
   42.6710   28.9420   42.5840 H   0  0  0  0  0  0  0  0  0  0  0  0
   38.2650   31.3540   41.7060 O   0  0  0  0  0  0  0  0  0  0  0  0
   39.3310   32.2550   39.4440 O   0  0  0  0  0  0  0  0  0  0  0  0
   38.4630   32.6480   40.6230 P   0  0  0  0  0  0  0  0  0  0  0  0
   36.9280   33.0870   40.0430 O   0  0  0  0  0  0  0  0  0  0  0  0
   36.5140   33.7850   40.6100 H   0  0  0  0  0  0  0  0  0  0  0  0
   39.1110   33.9960   41.4340 O   0  0  0  0  0  0  0  0  0  0  0  0
   38.5380   34.2320   42.1880 H   0  0  0  0  0  0  0  0  0  0  0  0
   38.1900   26.3730   38.0640 S   0  0  0  0  0  0  0  0  0  0  0  0
   37.1510   27.8420   37.8600 C   0  0  0  0  0  0  0  0  0  0  0  0
   37.3320   28.3080   36.8620 H   0  0  0  0  0  0  0  0  0  0  0  0
   36.0980   27.5210   37.9050 H   0  0  0  0  0  0  0  0  0  0  0  0
   37.4510   28.7990   38.9670 C   0  0  0  0  0  0  0  0  0  0  0  0
   38.3690   29.3860   38.7400 H   0  0  0  0  0  0  0  0  0  0  0  0
   37.5600   28.2130   39.9070 H   0  0  0  0  0  0  0  0  0  0  0  0
   36.4200   29.7390   39.0280 O   0  0  0  0  0  0  0  0  0  0  0  0
   36.0250   28.3040   41.1650 O   0  0  0  0  0  0  0  0  0  0  0  0
   35.4730   29.5000   40.4270 P   0  0  0  0  0  0  0  0  0  0  0  0
   33.8910   29.2130   39.9090 O   0  0  0  0  0  0  0  0  0  0  0  0
   33.3350   29.9500   40.2270 H   0  0  0  0  0  0  0  0  0  0  0  0
   35.5370   30.9090   41.3950 O   0  0  0  0  0  0  0  0  0  0  0  0
   36.2660   31.5180   41.1110 H   0  0  0  0  0  0  0  0  0  0  0  0
  1  6  1  0  0  0  0
  2  3  1  0  0  0  0
  2  1  2  0  0  0  0
  3  4  2  0  0  0  0
  4  5  1  0  0  0  0
  5  8  1  0  0  0  0
  6  5  2  0  0  0  0
  7  3  1  0  0  0  0
  9  1  1  0  0  0  0
  9 12  1  0  0  0  0
 10  9  1  0  0  0  0
 11  9  1  0  0  0  0
 12 15  1  0  0  0  0
 12 14  1  0  0  0  0
 13 12  1  0  0  0  0
 15 16  2  0  0  0  0
 16 17  1  0  0  0  0
 16 20  1  0  0  0  0
 18 17  1  0  0  0  0
 19 18  2  0  0  0  0
 19 15  1  0  0  0  0
 21 18  1  0  0  0  0
 22 23  2  0  0  0  0
 23 26  1  0  0  0  0
 23 21  1  0  0  0  0
 24 25  1  0  0  0  0
 24 23  1  0  0  0  0
 26 27  1  0  0  0  0
 28  2  1  0  0  0  0
 29 31  1  0  0  0  0
 29 28  1  0  0  0  0
 29 32  1  0  0  0  0
 30 29  1  0  0  0  0
 32 35  1  0  0  0  0
 32 34  1  0  0  0  0
 33 32  1  0  0  0  0
 35 37  1  0  0  0  0
 37 36  2  0  0  0  0
 37 40  1  0  0  0  0
 38 39  1  0  0  0  0
 38 37  1  0  0  0  0
 41 40  1  0  0  0  0
M  END
>  <minimizedAffinity>
-4.82617426

$$$$

 OpenBabel03252507493D

 41 42  0  0  0  0  0  0  0  0999 V2000
   37.3680   27.6400   41.8650 C   0  0  0  0  0  0  0  0  0  0  0  0
   36.6180   27.5620   40.7060 C   0  0  0  0  0  0  0  0  0  0  0  0
   36.6550   26.4450   39.8970 C   0  0  0  0  0  0  0  0  0  0  0  0
   37.4720   25.4180   40.2960 N   0  0  0  0  0  0  0  0  0  0  0  0
   38.2010   25.5310   41.4540 C   0  0  0  0  0  0  0  0  0  0  0  0
   38.1290   26.6240   42.1940 N   0  0  0  0  0  0  0  0  0  0  0  0
   36.0600   26.4240   39.0080 H   0  0  0  0  0  0  0  0  0  0  0  0
   38.8110   24.6740   41.6820 H   0  0  0  0  0  0  0  0  0  0  0  0
   37.2460   28.8800   42.6470 C   0  0  0  0  0  0  0  0  0  0  0  0
   36.5840   28.7680   43.5240 H   0  0  0  0  0  0  0  0  0  0  0  0
   36.7850   29.6830   42.0340 H   0  0  0  0  0  0  0  0  0  0  0  0
   38.5550   29.3950   43.1580 C   0  0  0  0  0  0  0  0  0  0  0  0
   39.2210   28.5110   43.3440 H   0  0  0  0  0  0  0  0  0  0  0  0
   38.4730   29.9050   44.1410 H   0  0  0  0  0  0  0  0  0  0  0  0
   39.2170   30.3660   42.2360 C   0  0  0  0  0  0  0  0  0  0  0  0
   40.5490   30.8050   42.4930 C   0  0  0  0  0  0  0  0  0  0  0  0
   40.8850   31.9540   41.1100 S   0  0  0  0  0  0  0  0  0  0  0  0
   39.1510   31.6550   40.3960 C   0  0  0  0  0  0  0  0  0  0  0  0
   38.7250   30.9140   41.1500 N   0  0  0  0  0  0  0  0  0  0  0  0
   41.1740   30.5040   43.3190 H   0  0  0  0  0  0  0  0  0  0  0  0
   38.6880   32.2720   39.2340 O   0  0  0  0  0  0  0  0  0  0  0  0
   39.9480   30.3950   37.8360 O   0  0  0  0  0  0  0  0  0  0  0  0
   39.4050   31.8090   37.7660 P   0  0  0  0  0  0  0  0  0  0  0  0
   38.2140   31.8720   36.5560 O   0  0  0  0  0  0  0  0  0  0  0  0
   38.1870   32.7610   36.1210 H   0  0  0  0  0  0  0  0  0  0  0  0
   40.6300   32.9100   37.3390 O   0  0  0  0  0  0  0  0  0  0  0  0
   40.2600   33.8130   37.2980 H   0  0  0  0  0  0  0  0  0  0  0  0
   35.5560   28.9430   40.2220 S   0  0  0  0  0  0  0  0  0  0  0  0
   36.2080   29.7230   38.7240 C   0  0  0  0  0  0  0  0  0  0  0  0
   36.2480   30.8320   38.8510 H   0  0  0  0  0  0  0  0  0  0  0  0
   37.2350   29.3560   38.5700 H   0  0  0  0  0  0  0  0  0  0  0  0
   35.3410   29.3410   37.5690 C   0  0  0  0  0  0  0  0  0  0  0  0
   35.3440   30.1410   36.7950 H   0  0  0  0  0  0  0  0  0  0  0  0
   34.3160   29.1490   37.9580 H   0  0  0  0  0  0  0  0  0  0  0  0
   35.9040   28.2260   36.9460 O   0  0  0  0  0  0  0  0  0  0  0  0
   36.2800   30.0540   35.1300 O   0  0  0  0  0  0  0  0  0  0  0  0
   36.7740   28.6920   35.5530 P   0  0  0  0  0  0  0  0  0  0  0  0
   36.4550   27.5360   34.3630 O   0  0  0  0  0  0  0  0  0  0  0  0
   37.2940   27.0770   34.1610 H   0  0  0  0  0  0  0  0  0  0  0  0
   38.4440   28.7250   35.9200 O   0  0  0  0  0  0  0  0  0  0  0  0
   38.6070   28.6950   36.8980 H   0  0  0  0  0  0  0  0  0  0  0  0
  1  6  1  0  0  0  0
  1  9  1  0  0  0  0
  2  1  2  0  0  0  0
  3  4  2  0  0  0  0
  3  2  1  0  0  0  0
  4  5  1  0  0  0  0
  5  8  1  0  0  0  0
  5  6  2  0  0  0  0
  7  3  1  0  0  0  0
  9 12  1  0  0  0  0
  9 10  1  0  0  0  0
 11  9  1  0  0  0  0
 12 13  1  0  0  0  0
 12 14  1  0  0  0  0
 15 16  2  0  0  0  0
 15 12  1  0  0  0  0
 16 20  1  0  0  0  0
 17 16  1  0  0  0  0
 18 17  1  0  0  0  0
 18 19  2  0  0  0  0
 19 15  1  0  0  0  0
 21 18  1  0  0  0  0
 23 22  2  0  0  0  0
 23 21  1  0  0  0  0
 24 23  1  0  0  0  0
 25 24  1  0  0  0  0
 26 23  1  0  0  0  0
 27 26  1  0  0  0  0
 28  2  1  0  0  0  0
 29 30  1  0  0  0  0
 29 28  1  0  0  0  0
 31 29  1  0  0  0  0
 32 34  1  0  0  0  0
 32 29  1  0  0  0  0
 33 32  1  0  0  0  0
 35 32  1  0  0  0  0
 36 37  2  0  0  0  0
 37 40  1  0  0  0  0
 37 35  1  0  0  0  0
 38 37  1  0  0  0  0
 39 38  1  0  0  0  0
 40 41  1  0  0  0  0
M  END
>  <minimizedAffinity>
-4.81201077

$$$$

 OpenBabel03252507493D

 41 42  0  0  0  0  0  0  0  0999 V2000
   37.9820   30.0840   41.6880 C   0  0  0  0  0  0  0  0  0  0  0  0
   38.5770   30.8340   40.6910 C   0  0  0  0  0  0  0  0  0  0  0  0
   37.8520   31.3140   39.6190 C   0  0  0  0  0  0  0  0  0  0  0  0
   36.5150   31.0080   39.5900 N   0  0  0  0  0  0  0  0  0  0  0  0
   35.9590   30.2610   40.6000 C   0  0  0  0  0  0  0  0  0  0  0  0
   36.6990   29.8260   41.6050 N   0  0  0  0  0  0  0  0  0  0  0  0
   38.3490   31.8900   38.8680 H   0  0  0  0  0  0  0  0  0  0  0  0
   34.9050   30.0750   40.4880 H   0  0  0  0  0  0  0  0  0  0  0  0
   38.8560   29.6290   42.7810 C   0  0  0  0  0  0  0  0  0  0  0  0
   38.9170   30.3560   43.6100 H   0  0  0  0  0  0  0  0  0  0  0  0
   39.8990   29.5100   42.4210 H   0  0  0  0  0  0  0  0  0  0  0  0
   38.4330   28.3250   43.3810 C   0  0  0  0  0  0  0  0  0  0  0  0
   37.3120   28.3210   43.4350 H   0  0  0  0  0  0  0  0  0  0  0  0
   38.7710   28.1940   44.4300 H   0  0  0  0  0  0  0  0  0  0  0  0
   38.9260   27.1320   42.6290 C   0  0  0  0  0  0  0  0  0  0  0  0
   38.0180   26.1030   42.2440 C   0  0  0  0  0  0  0  0  0  0  0  0
   39.0920   24.9030   41.3740 S   0  0  0  0  0  0  0  0  0  0  0  0
   40.6150   25.9970   41.6750 C   0  0  0  0  0  0  0  0  0  0  0  0
   40.1530   26.8690   42.2440 N   0  0  0  0  0  0  0  0  0  0  0  0
   36.9570   26.0780   42.4380 H   0  0  0  0  0  0  0  0  0  0  0  0
   41.8950   25.6580   41.2380 O   0  0  0  0  0  0  0  0  0  0  0  0
   44.5140   25.9120   41.6090 O   0  0  0  0  0  0  0  0  0  0  0  0
   43.1780   25.8930   42.3250 P   0  0  0  0  0  0  0  0  0  0  0  0
   42.9520   27.3950   43.0880 O   0  0  0  0  0  0  0  0  0  0  0  0
   42.4250   27.3010   43.9210 H   0  0  0  0  0  0  0  0  0  0  0  0
   43.1510   24.6940   43.5320 O   0  0  0  0  0  0  0  0  0  0  0  0
   42.2840   24.7000   43.9800 H   0  0  0  0  0  0  0  0  0  0  0  0
   40.3430   31.2100   40.7740 S   0  0  0  0  0  0  0  0  0  0  0  0
   41.2460   30.1820   39.5880 C   0  0  0  0  0  0  0  0  0  0  0  0
   42.3120   30.0730   39.9020 H   0  0  0  0  0  0  0  0  0  0  0  0
   40.7830   29.1820   39.5830 H   0  0  0  0  0  0  0  0  0  0  0  0
   41.1430   30.8080   38.2350 C   0  0  0  0  0  0  0  0  0  0  0  0
   40.1170   30.6840   37.8230 H   0  0  0  0  0  0  0  0  0  0  0  0
   41.9090   30.3370   37.5800 H   0  0  0  0  0  0  0  0  0  0  0  0
   41.3200   32.1870   38.3730 O   0  0  0  0  0  0  0  0  0  0  0  0
   43.1080   31.6080   36.5710 O   0  0  0  0  0  0  0  0  0  0  0  0
   42.7170   32.6980   37.5380 P   0  0  0  0  0  0  0  0  0  0  0  0
   43.9230   32.9390   38.6960 O   0  0  0  0  0  0  0  0  0  0  0  0
   44.1470   33.8910   38.7010 H   0  0  0  0  0  0  0  0  0  0  0  0
   42.3780   34.1610   36.7190 O   0  0  0  0  0  0  0  0  0  0  0  0
   41.4030   34.3410   36.6760 H   0  0  0  0  0  0  0  0  0  0  0  0
  1  9  1  0  0  0  0
  2 28  1  0  0  0  0
  2  1  2  0  0  0  0
  3  2  1  0  0  0  0
  4  3  2  0  0  0  0
  4  5  1  0  0  0  0
  5  6  2  0  0  0  0
  6  1  1  0  0  0  0
  7  3  1  0  0  0  0
  8  5  1  0  0  0  0
  9 12  1  0  0  0  0
  9 10  1  0  0  0  0
 11  9  1  0  0  0  0
 12 13  1  0  0  0  0
 12 14  1  0  0  0  0
 15 12  1  0  0  0  0
 16 20  1  0  0  0  0
 16 15  2  0  0  0  0
 17 18  1  0  0  0  0
 17 16  1  0  0  0  0
 18 19  2  0  0  0  0
 19 15  1  0  0  0  0
 21 18  1  0  0  0  0
 21 23  1  0  0  0  0
 22 23  2  0  0  0  0
 23 24  1  0  0  0  0
 23 26  1  0  0  0  0
 24 25  1  0  0  0  0
 26 27  1  0  0  0  0
 29 30  1  0  0  0  0
 29 28  1  0  0  0  0
 31 29  1  0  0  0  0
 32 35  1  0  0  0  0
 32 29  1  0  0  0  0
 33 32  1  0  0  0  0
 34 32  1  0  0  0  0
 36 37  2  0  0  0  0
 37 35  1  0  0  0  0
 37 38  1  0  0  0  0
 38 39  1  0  0  0  0
 40 37  1  0  0  0  0
 41 40  1  0  0  0  0
M  END
>  <minimizedAffinity>
-4.7500329

$$$$

 OpenBabel03252507493D

 41 42  0  0  0  0  0  0  0  0999 V2000
   38.2020   26.2890   42.9140 C   0  0  0  0  0  0  0  0  0  0  0  0
   39.4470   25.7760   42.6010 C   0  0  0  0  0  0  0  0  0  0  0  0
   39.5840   24.6030   41.8850 C   0  0  0  0  0  0  0  0  0  0  0  0
   38.4280   23.9730   41.5020 N   0  0  0  0  0  0  0  0  0  0  0  0
   37.2090   24.5140   41.8310 C   0  0  0  0  0  0  0  0  0  0  0  0
   37.1340   25.6420   42.5180 N   0  0  0  0  0  0  0  0  0  0  0  0
   40.5650   24.2380   41.6640 H   0  0  0  0  0  0  0  0  0  0  0  0
   36.3620   23.9470   41.4860 H   0  0  0  0  0  0  0  0  0  0  0  0
   38.1820   27.5460   43.6790 C   0  0  0  0  0  0  0  0  0  0  0  0
   39.0730   28.1730   43.4950 H   0  0  0  0  0  0  0  0  0  0  0  0
   38.1920   27.3380   44.7690 H   0  0  0  0  0  0  0  0  0  0  0  0
   36.9870   28.4000   43.3920 C   0  0  0  0  0  0  0  0  0  0  0  0
   36.9700   29.2290   44.1480 H   0  0  0  0  0  0  0  0  0  0  0  0
   36.0230   27.8670   43.5300 H   0  0  0  0  0  0  0  0  0  0  0  0
   36.9660   28.9550   42.0050 C   0  0  0  0  0  0  0  0  0  0  0  0
   35.9060   28.6170   41.1140 C   0  0  0  0  0  0  0  0  0  0  0  0
   36.3380   29.5280   39.5870 S   0  0  0  0  0  0  0  0  0  0  0  0
   37.9010   30.2290   40.4070 C   0  0  0  0  0  0  0  0  0  0  0  0
   37.8360   29.7620   41.4440 N   0  0  0  0  0  0  0  0  0  0  0  0
   35.0680   27.9730   41.3310 H   0  0  0  0  0  0  0  0  0  0  0  0
   38.7870   31.0840   39.7520 O   0  0  0  0  0  0  0  0  0  0  0  0
   39.4120   33.6650   39.6510 O   0  0  0  0  0  0  0  0  0  0  0  0
   38.2730   32.6790   39.4780 P   0  0  0  0  0  0  0  0  0  0  0  0
   37.7070   32.7810   37.8790 O   0  0  0  0  0  0  0  0  0  0  0  0
   36.7370   32.5900   37.8260 H   0  0  0  0  0  0  0  0  0  0  0  0
   36.9750   33.0610   40.5080 O   0  0  0  0  0  0  0  0  0  0  0  0
   36.2540   32.4150   40.3810 H   0  0  0  0  0  0  0  0  0  0  0  0
   40.9420   26.6430   43.1280 S   0  0  0  0  0  0  0  0  0  0  0  0
   41.3090   27.9920   41.9770 C   0  0  0  0  0  0  0  0  0  0  0  0
   42.1810   27.7270   41.3340 H   0  0  0  0  0  0  0  0  0  0  0  0
   40.4300   28.1320   41.3270 H   0  0  0  0  0  0  0  0  0  0  0  0
   41.5750   29.2340   42.7640 C   0  0  0  0  0  0  0  0  0  0  0  0
   42.0650   28.9880   43.7320 H   0  0  0  0  0  0  0  0  0  0  0  0
   40.6040   29.7580   42.9160 H   0  0  0  0  0  0  0  0  0  0  0  0
   42.5060   30.0070   42.0660 O   0  0  0  0  0  0  0  0  0  0  0  0
   42.7990   32.5830   42.3020 O   0  0  0  0  0  0  0  0  0  0  0  0
   41.8650   31.5500   41.7200 P   0  0  0  0  0  0  0  0  0  0  0  0
   40.3450   31.6290   42.4520 O   0  0  0  0  0  0  0  0  0  0  0  0
   39.6770   31.7080   41.7430 H   0  0  0  0  0  0  0  0  0  0  0  0
   41.7200   31.7300   40.0250 O   0  0  0  0  0  0  0  0  0  0  0  0
   42.2260   31.0310   39.5360 H   0  0  0  0  0  0  0  0  0  0  0  0
  1  9  1  0  0  0  0
  2  1  1  0  0  0  0
  2 28  1  0  0  0  0
  3  2  2  0  0  0  0
  4  5  2  0  0  0  0
  4  3  1  0  0  0  0
  5  6  1  0  0  0  0
  6  1  2  0  0  0  0
  7  3  1  0  0  0  0
  8  5  1  0  0  0  0
  9 11  1  0  0  0  0
 10  9  1  0  0  0  0
 12 14  1  0  0  0  0
 12  9  1  0  0  0  0
 12 13  1  0  0  0  0
 15 12  1  0  0  0  0
 16 20  1  0  0  0  0
 16 15  2  0  0  0  0
 17 18  1  0  0  0  0
 17 16  1  0  0  0  0
 18 19  2  0  0  0  0
 19 15  1  0  0  0  0
 21 18  1  0  0  0  0
 23 22  2  0  0  0  0
 23 21  1  0  0  0  0
 23 26  1  0  0  0  0
 24 23  1  0  0  0  0
 25 24  1  0  0  0  0
 27 26  1  0  0  0  0
 29 32  1  0  0  0  0
 29 28  1  0  0  0  0
 30 29  1  0  0  0  0
 31 29  1  0  0  0  0
 32 34  1  0  0  0  0
 32 33  1  0  0  0  0
 35 32  1  0  0  0  0
 37 35  1  0  0  0  0
 37 36  2  0  0  0  0
 37 38  1  0  0  0  0
 39 38  1  0  0  0  0
 40 37  1  0  0  0  0
 41 40  1  0  0  0  0
M  END
>  <minimizedAffinity>
-4.71155071

$$$$
