
 OpenBabel03252508203D

 32 33  0  0  0  0  0  0  0  0999 V2000
   45.7560   34.0720   41.4990 C   0  0  0  0  0  0  0  0  0  0  0  0
   46.5560   34.1030   40.3880 C   0  0  0  0  0  0  0  0  0  0  0  0
   47.8590   34.5770   40.3100 C   0  0  0  0  0  0  0  0  0  0  0  0
   48.3510   35.0660   41.5400 C   0  0  0  0  0  0  0  0  0  0  0  0
   47.5900   35.0590   42.6870 C   0  0  0  0  0  0  0  0  0  0  0  0
   46.3140   34.5700   42.6700 C   0  0  0  0  0  0  0  0  0  0  0  0
   46.1440   33.7180   39.4540 H   0  0  0  0  0  0  0  0  0  0  0  0
   48.4140   34.5640   39.3970 H   0  0  0  0  0  0  0  0  0  0  0  0
   49.3800   35.4430   41.4850 H   0  0  0  0  0  0  0  0  0  0  0  0
   48.0580   35.4560   43.5800 H   0  0  0  0  0  0  0  0  0  0  0  0
   44.3890   33.5600   41.5240 C   0  0  0  0  0  0  0  0  0  0  0  0
   44.2950   32.5720   42.0160 H   0  0  0  0  0  0  0  0  0  0  0  0
   43.7800   34.2630   42.1540 H   0  0  0  0  0  0  0  0  0  0  0  0
   43.7560   33.5770   40.1510 C   0  0  0  0  0  0  0  0  0  0  0  0
   44.4190   34.1270   39.4700 H   0  0  0  0  0  0  0  0  0  0  0  0
   43.5240   32.5500   39.7830 H   0  0  0  0  0  0  0  0  0  0  0  0
   40.7750   35.7490   39.3330 C   0  0  0  0  0  0  0  0  0  0  0  0
   42.0280   35.0890   39.1840 C   0  0  0  0  0  0  0  0  0  0  0  0
   42.4600   34.2860   40.2520 C   0  0  0  0  0  0  0  0  0  0  0  0
   41.6440   34.1920   41.3660 N   0  0  0  0  0  0  0  0  0  0  0  0
   40.4860   34.8350   41.4380 C   0  0  0  0  0  0  0  0  0  0  0  0
   40.0350   35.6160   40.4340 N   0  0  0  0  0  0  0  0  0  0  0  0
   40.5490   36.3300   38.4590 H   0  0  0  0  0  0  0  0  0  0  0  0
   42.6500   35.1680   38.3220 H   0  0  0  0  0  0  0  0  0  0  0  0
   39.8440   34.7630   42.3120 H   0  0  0  0  0  0  0  0  0  0  0  0
   45.5410   34.5600   43.8230 O   0  0  0  0  0  0  0  0  0  0  0  0
   45.2100   37.1300   44.0530 O   0  0  0  0  0  0  0  0  0  0  0  0
   44.5430   35.8100   44.3630 P   0  0  0  0  0  0  0  0  0  0  0  0
   42.9870   35.7780   43.7550 O   0  0  0  0  0  0  0  0  0  0  0  0
   42.7140   34.9300   43.3650 H   0  0  0  0  0  0  0  0  0  0  0  0
   44.4860   35.6970   46.0700 O   0  0  0  0  0  0  0  0  0  0  0  0
   44.5430   34.7350   46.3080 H   0  0  0  0  0  0  0  0  0  0  0  0
  1 11  1  0  0  0  0
  1  6  1  0  0  0  0
  2  1  2  0  0  0  0
  3  2  1  0  0  0  0
  3  4  2  0  0  0  0
  4  5  1  0  0  0  0
  5 10  1  0  0  0  0
  6  5  2  0  0  0  0
  6 26  1  0  0  0  0
  7  2  1  0  0  0  0
  8  3  1  0  0  0  0
  9  4  1  0  0  0  0
 11 12  1  0  0  0  0
 11 13  1  0  0  0  0
 14 19  1  0  0  0  0
 14 11  1  0  0  0  0
 15 14  1  0  0  0  0
 16 14  1  0  0  0  0
 17 22  1  0  0  0  0
 18 17  2  0  0  0  0
 18 19  1  0  0  0  0
 19 20  2  0  0  0  0
 20 21  1  0  0  0  0
 21 25  1  0  0  0  0
 22 21  2  0  0  0  0
 23 17  1  0  0  0  0
 24 18  1  0  0  0  0
 26 28  1  0  0  0  0
 27 28  2  0  0  0  0
 28 31  1  0  0  0  0
 29 28  1  0  0  0  0
 30 29  1  0  0  0  0
 31 32  1  0  0  0  0
M  END
>  <minimizedAffinity>
-5.77288485

>  <minimizedRMSD>
1.36736822

$$$$
