
 OpenBabel03252501563D

 19 19  0  0  0  0  0  0  0  0999 V2000
   39.7280   27.8150   43.3010 C   0  0  0  0  0  0  0  0  0  0  0  0
   39.6270   29.0180   42.5930 C   0  0  0  0  0  0  0  0  0  0  0  0
   38.3470   29.4340   42.2030 C   0  0  0  0  0  0  0  0  0  0  0  0
   37.2930   28.6620   42.5280 N   0  0  0  0  0  0  0  0  0  0  0  0
   37.4280   27.5110   43.2100 C   0  0  0  0  0  0  0  0  0  0  0  0
   38.6430   27.0650   43.6080 N   0  0  0  0  0  0  0  0  0  0  0  0
   40.6720   27.4070   43.6460 H   0  0  0  0  0  0  0  0  0  0  0  0
   36.4620   27.0370   43.3730 H   0  0  0  0  0  0  0  0  0  0  0  0
   40.9000   29.7360   42.3240 C   0  0  0  0  0  0  0  0  0  0  0  0
   40.7530   30.8150   42.1110 H   0  0  0  0  0  0  0  0  0  0  0  0
   41.4070   29.2200   41.4660 H   0  0  0  0  0  0  0  0  0  0  0  0
   41.5910   29.5660   43.1840 H   0  0  0  0  0  0  0  0  0  0  0  0
   38.3470   30.6200   41.5160 O   0  0  0  0  0  0  0  0  0  0  0  0
   36.9750   30.6070   39.2760 O   0  0  0  0  0  0  0  0  0  0  0  0
   37.0020   31.2190   40.6490 P   0  0  0  0  0  0  0  0  0  0  0  0
   37.1600   32.9070   40.5400 O   0  0  0  0  0  0  0  0  0  0  0  0
   37.7200   33.1390   39.7590 H   0  0  0  0  0  0  0  0  0  0  0  0
   35.5330   30.9090   41.3990 O   0  0  0  0  0  0  0  0  0  0  0  0
   35.2750   29.9470   41.4130 H   0  0  0  0  0  0  0  0  0  0  0  0
  1  6  1  0  0  0  0
  1  7  1  0  0  0  0
  2  1  2  0  0  0  0
  3  4  2  0  0  0  0
  3  2  1  0  0  0  0
  4  5  1  0  0  0  0
  5  8  1  0  0  0  0
  5  6  2  0  0  0  0
  9  2  1  0  0  0  0
  9 12  1  0  0  0  0
 10  9  1  0  0  0  0
 11  9  1  0  0  0  0
 13  3  1  0  0  0  0
 14 15  2  0  0  0  0
 15 18  1  0  0  0  0
 15 13  1  0  0  0  0
 16 15  1  0  0  0  0
 17 16  1  0  0  0  0
 18 19  1  0  0  0  0
M  END
>  <minimizedAffinity>
-4.44188404

$$$$

 OpenBabel03252501563D

 19 19  0  0  0  0  0  0  0  0999 V2000
   36.3580   28.2100   41.6550 C   0  0  0  0  0  0  0  0  0  0  0  0
   36.0610   29.3490   40.8970 C   0  0  0  0  0  0  0  0  0  0  0  0
   36.9060   30.4570   41.0370 C   0  0  0  0  0  0  0  0  0  0  0  0
   37.9480   30.3690   41.8860 N   0  0  0  0  0  0  0  0  0  0  0  0
   38.2020   29.2560   42.5990 C   0  0  0  0  0  0  0  0  0  0  0  0
   37.4150   28.1600   42.4990 N   0  0  0  0  0  0  0  0  0  0  0  0
   35.7650   27.3020   41.6180 H   0  0  0  0  0  0  0  0  0  0  0  0
   39.0840   29.3850   43.2220 H   0  0  0  0  0  0  0  0  0  0  0  0
   34.8690   29.2630   40.0130 C   0  0  0  0  0  0  0  0  0  0  0  0
   34.8880   30.0040   39.1870 H   0  0  0  0  0  0  0  0  0  0  0  0
   33.9600   29.3980   40.6560 H   0  0  0  0  0  0  0  0  0  0  0  0
   34.7800   28.2150   39.6400 H   0  0  0  0  0  0  0  0  0  0  0  0
   36.5390   31.5230   40.2590 O   0  0  0  0  0  0  0  0  0  0  0  0
   38.5500   32.2370   38.7260 O   0  0  0  0  0  0  0  0  0  0  0  0
   37.6090   32.7630   39.7740 P   0  0  0  0  0  0  0  0  0  0  0  0
   38.4760   33.2710   41.1440 O   0  0  0  0  0  0  0  0  0  0  0  0
   39.2660   32.6900   41.2720 H   0  0  0  0  0  0  0  0  0  0  0  0
   36.8280   34.1150   39.1560 O   0  0  0  0  0  0  0  0  0  0  0  0
   36.3800   33.9650   38.2800 H   0  0  0  0  0  0  0  0  0  0  0  0
  1  6  1  0  0  0  0
  2  3  1  0  0  0  0
  2  1  2  0  0  0  0
  3  4  2  0  0  0  0
  4  5  1  0  0  0  0
  5  8  1  0  0  0  0
  6  5  2  0  0  0  0
  7  1  1  0  0  0  0
  9 11  1  0  0  0  0
  9  2  1  0  0  0  0
 10  9  1  0  0  0  0
 12  9  1  0  0  0  0
 13  3  1  0  0  0  0
 14 15  2  0  0  0  0
 15 13  1  0  0  0  0
 15 16  1  0  0  0  0
 16 17  1  0  0  0  0
 18 15  1  0  0  0  0
 19 18  1  0  0  0  0
M  END
>  <minimizedAffinity>
-4.15433359

$$$$

 OpenBabel03252501563D

 19 19  0  0  0  0  0  0  0  0999 V2000
   36.8620   24.9700   40.1180 C   0  0  0  0  0  0  0  0  0  0  0  0
   36.5870   26.3130   39.8330 C   0  0  0  0  0  0  0  0  0  0  0  0
   36.8560   27.2540   40.8360 C   0  0  0  0  0  0  0  0  0  0  0  0
   37.3590   26.8210   42.0080 N   0  0  0  0  0  0  0  0  0  0  0  0
   37.6110   25.5210   42.2450 C   0  0  0  0  0  0  0  0  0  0  0  0
   37.3680   24.5730   41.3090 N   0  0  0  0  0  0  0  0  0  0  0  0
   36.6890   24.1660   39.4100 H   0  0  0  0  0  0  0  0  0  0  0  0
   38.0140   25.3780   43.2450 H   0  0  0  0  0  0  0  0  0  0  0  0
   36.0330   26.6040   38.4860 C   0  0  0  0  0  0  0  0  0  0  0  0
   36.1810   27.6590   38.1740 H   0  0  0  0  0  0  0  0  0  0  0  0
   34.9440   26.3360   38.5010 H   0  0  0  0  0  0  0  0  0  0  0  0
   36.4760   25.8820   37.7580 H   0  0  0  0  0  0  0  0  0  0  0  0
   36.5550   28.5390   40.4690 O   0  0  0  0  0  0  0  0  0  0  0  0
   38.1560   30.5430   41.0430 O   0  0  0  0  0  0  0  0  0  0  0  0
   36.8560   29.9060   41.4490 P   0  0  0  0  0  0  0  0  0  0  0  0
   36.9340   29.3840   43.0640 O   0  0  0  0  0  0  0  0  0  0  0  0
   37.8520   29.0790   43.2720 H   0  0  0  0  0  0  0  0  0  0  0  0
   35.6470   31.0670   41.3650 O   0  0  0  0  0  0  0  0  0  0  0  0
   35.5860   31.5330   40.4880 H   0  0  0  0  0  0  0  0  0  0  0  0
  1  6  1  0  0  0  0
  2  1  2  0  0  0  0
  2  3  1  0  0  0  0
  3  4  2  0  0  0  0
  4  5  1  0  0  0  0
  5  8  1  0  0  0  0
  6  5  2  0  0  0  0
  7  1  1  0  0  0  0
  9 11  1  0  0  0  0
  9  2  1  0  0  0  0
 10  9  1  0  0  0  0
 12  9  1  0  0  0  0
 13  3  1  0  0  0  0
 13 15  1  0  0  0  0
 14 15  2  0  0  0  0
 15 16  1  0  0  0  0
 16 17  1  0  0  0  0
 18 15  1  0  0  0  0
 19 18  1  0  0  0  0
M  END
>  <minimizedAffinity>
-4.08831024

$$$$

 OpenBabel03252501563D

 19 19  0  0  0  0  0  0  0  0999 V2000
   38.7710   24.2100   42.4940 C   0  0  0  0  0  0  0  0  0  0  0  0
   37.7740   25.0300   41.9510 C   0  0  0  0  0  0  0  0  0  0  0  0
   37.8230   26.3960   42.2570 C   0  0  0  0  0  0  0  0  0  0  0  0
   38.8170   26.8440   43.0480 N   0  0  0  0  0  0  0  0  0  0  0  0
   39.7590   26.0250   43.5510 C   0  0  0  0  0  0  0  0  0  0  0  0
   39.7540   24.6980   43.2860 N   0  0  0  0  0  0  0  0  0  0  0  0
   38.8200   23.1410   42.3180 H   0  0  0  0  0  0  0  0  0  0  0  0
   40.4690   26.5770   44.1620 H   0  0  0  0  0  0  0  0  0  0  0  0
   36.7570   24.3590   41.1000 C   0  0  0  0  0  0  0  0  0  0  0  0
   36.2360   25.0590   40.4130 H   0  0  0  0  0  0  0  0  0  0  0  0
   36.0290   23.8460   41.7820 H   0  0  0  0  0  0  0  0  0  0  0  0
   37.2500   23.5200   40.5550 H   0  0  0  0  0  0  0  0  0  0  0  0
   36.8090   27.1180   41.6840 O   0  0  0  0  0  0  0  0  0  0  0  0
   37.8370   29.3100   40.6640 O   0  0  0  0  0  0  0  0  0  0  0  0
   36.7760   28.8250   41.6120 P   0  0  0  0  0  0  0  0  0  0  0  0
   37.0660   29.4200   43.1770 O   0  0  0  0  0  0  0  0  0  0  0  0
   38.0410   29.4820   43.3340 H   0  0  0  0  0  0  0  0  0  0  0  0
   35.2970   29.4430   41.1170 O   0  0  0  0  0  0  0  0  0  0  0  0
   35.0730   29.2580   40.1650 H   0  0  0  0  0  0  0  0  0  0  0  0
  1  6  1  0  0  0  0
  2  3  1  0  0  0  0
  2  1  2  0  0  0  0
  3  4  2  0  0  0  0
  4  5  1  0  0  0  0
  5  8  1  0  0  0  0
  6  5  2  0  0  0  0
  7  1  1  0  0  0  0
  9 11  1  0  0  0  0
  9  2  1  0  0  0  0
 10  9  1  0  0  0  0
 12  9  1  0  0  0  0
 13  3  1  0  0  0  0
 14 15  2  0  0  0  0
 15 13  1  0  0  0  0
 15 16  1  0  0  0  0
 16 17  1  0  0  0  0
 18 15  1  0  0  0  0
 19 18  1  0  0  0  0
M  END
>  <minimizedAffinity>
-4.06578112

$$$$

 OpenBabel03252501563D

 19 19  0  0  0  0  0  0  0  0999 V2000
   36.1610   28.5150   41.1350 C   0  0  0  0  0  0  0  0  0  0  0  0
   37.0710   29.5200   41.4850 C   0  0  0  0  0  0  0  0  0  0  0  0
   37.1910   30.6140   40.6170 C   0  0  0  0  0  0  0  0  0  0  0  0
   36.4320   30.6390   39.5050 N   0  0  0  0  0  0  0  0  0  0  0  0
   35.5670   29.6540   39.2020 C   0  0  0  0  0  0  0  0  0  0  0  0
   35.4150   28.5760   40.0070 N   0  0  0  0  0  0  0  0  0  0  0  0
   35.9950   27.6290   41.7380 H   0  0  0  0  0  0  0  0  0  0  0  0
   35.0520   29.8620   38.2660 H   0  0  0  0  0  0  0  0  0  0  0  0
   37.8220   29.3200   42.7510 C   0  0  0  0  0  0  0  0  0  0  0  0
   38.2280   30.2650   43.1680 H   0  0  0  0  0  0  0  0  0  0  0  0
   38.6440   28.5840   42.5450 H   0  0  0  0  0  0  0  0  0  0  0  0
   37.1600   28.7880   43.4750 H   0  0  0  0  0  0  0  0  0  0  0  0
   38.1030   31.5440   41.0400 O   0  0  0  0  0  0  0  0  0  0  0  0
   39.3000   33.0160   39.2220 O   0  0  0  0  0  0  0  0  0  0  0  0
   38.2880   33.0880   40.3310 P   0  0  0  0  0  0  0  0  0  0  0  0
   38.8120   34.1600   41.5400 O   0  0  0  0  0  0  0  0  0  0  0  0
   39.7970   34.1180   41.6180 H   0  0  0  0  0  0  0  0  0  0  0  0
   36.8590   33.7110   39.7070 O   0  0  0  0  0  0  0  0  0  0  0  0
   36.5160   33.2290   38.9070 H   0  0  0  0  0  0  0  0  0  0  0  0
  1  2  1  0  0  0  0
  1  7  1  0  0  0  0
  2  9  1  0  0  0  0
  3 13  1  0  0  0  0
  3  2  2  0  0  0  0
  4  3  1  0  0  0  0
  5  4  2  0  0  0  0
  5  6  1  0  0  0  0
  6  1  2  0  0  0  0
  8  5  1  0  0  0  0
  9 10  1  0  0  0  0
  9 12  1  0  0  0  0
 11  9  1  0  0  0  0
 14 15  2  0  0  0  0
 15 13  1  0  0  0  0
 15 16  1  0  0  0  0
 16 17  1  0  0  0  0
 18 15  1  0  0  0  0
 19 18  1  0  0  0  0
M  END
>  <minimizedAffinity>
-4.01431084

$$$$

 OpenBabel03252501563D

 19 19  0  0  0  0  0  0  0  0999 V2000
   38.2610   25.7700   42.4520 C   0  0  0  0  0  0  0  0  0  0  0  0
   37.3490   26.1620   41.4650 C   0  0  0  0  0  0  0  0  0  0  0  0
   37.0420   27.5260   41.3740 C   0  0  0  0  0  0  0  0  0  0  0  0
   37.6340   28.3780   42.2330 N   0  0  0  0  0  0  0  0  0  0  0  0
   38.5060   27.9640   43.1690 C   0  0  0  0  0  0  0  0  0  0  0  0
   38.8350   26.6570   43.2980 N   0  0  0  0  0  0  0  0  0  0  0  0
   38.5640   24.7390   42.6040 H   0  0  0  0  0  0  0  0  0  0  0  0
   38.8700   28.8020   43.7600 H   0  0  0  0  0  0  0  0  0  0  0  0
   36.7970   25.0820   40.6070 C   0  0  0  0  0  0  0  0  0  0  0  0
   36.3970   25.4550   39.6420 H   0  0  0  0  0  0  0  0  0  0  0  0
   36.0020   24.5540   41.1970 H   0  0  0  0  0  0  0  0  0  0  0  0
   37.5860   24.3040   40.4660 H   0  0  0  0  0  0  0  0  0  0  0  0
   36.1430   27.8150   40.3810 O   0  0  0  0  0  0  0  0  0  0  0  0
   36.0520   30.0040   38.9300 O   0  0  0  0  0  0  0  0  0  0  0  0
   35.4470   29.3580   40.1450 P   0  0  0  0  0  0  0  0  0  0  0  0
   35.7610   30.2910   41.5290 O   0  0  0  0  0  0  0  0  0  0  0  0
   36.6490   30.7200   41.4470 H   0  0  0  0  0  0  0  0  0  0  0  0
   33.7800   29.3140   39.9490 O   0  0  0  0  0  0  0  0  0  0  0  0
   33.4780   28.8920   39.1000 H   0  0  0  0  0  0  0  0  0  0  0  0
  1  7  1  0  0  0  0
  1  6  1  0  0  0  0
  2  1  2  0  0  0  0
  3  2  1  0  0  0  0
  3  4  2  0  0  0  0
  4  5  1  0  0  0  0
  5  6  2  0  0  0  0
  5  8  1  0  0  0  0
  9 11  1  0  0  0  0
  9  2  1  0  0  0  0
 10  9  1  0  0  0  0
 12  9  1  0  0  0  0
 13  3  1  0  0  0  0
 14 15  2  0  0  0  0
 15 13  1  0  0  0  0
 15 16  1  0  0  0  0
 17 16  1  0  0  0  0
 18 15  1  0  0  0  0
 19 18  1  0  0  0  0
M  END
>  <minimizedAffinity>
-3.94971514

$$$$

 OpenBabel03252501563D

 19 19  0  0  0  0  0  0  0  0999 V2000
   37.3850   26.4460   41.4210 C   0  0  0  0  0  0  0  0  0  0  0  0
   37.7770   27.6520   40.8260 C   0  0  0  0  0  0  0  0  0  0  0  0
   37.6830   28.8150   41.6020 C   0  0  0  0  0  0  0  0  0  0  0  0
   37.2270   28.7110   42.8650 N   0  0  0  0  0  0  0  0  0  0  0  0
   36.8600   27.5340   43.4030 C   0  0  0  0  0  0  0  0  0  0  0  0
   36.9310   26.3830   42.6940 N   0  0  0  0  0  0  0  0  0  0  0  0
   37.4190   25.4920   40.9050 H   0  0  0  0  0  0  0  0  0  0  0  0
   36.5220   27.6620   44.4290 H   0  0  0  0  0  0  0  0  0  0  0  0
   38.2540   27.5730   39.4220 C   0  0  0  0  0  0  0  0  0  0  0  0
   38.8830   28.4390   39.1280 H   0  0  0  0  0  0  0  0  0  0  0  0
   37.3510   27.4860   38.7610 H   0  0  0  0  0  0  0  0  0  0  0  0
   38.7820   26.6000   39.2820 H   0  0  0  0  0  0  0  0  0  0  0  0
   38.0860   29.9440   40.9390 O   0  0  0  0  0  0  0  0  0  0  0  0
   37.6760   32.5210   40.6350 O   0  0  0  0  0  0  0  0  0  0  0  0
   37.0230   31.1830   40.4330 P   0  0  0  0  0  0  0  0  0  0  0  0
   35.6070   31.0690   41.3640 O   0  0  0  0  0  0  0  0  0  0  0  0
   35.7240   31.5670   42.2100 H   0  0  0  0  0  0  0  0  0  0  0  0
   36.5660   31.0510   38.8230 O   0  0  0  0  0  0  0  0  0  0  0  0
   37.3000   31.2220   38.1730 H   0  0  0  0  0  0  0  0  0  0  0  0
  1  6  1  0  0  0  0
  2  1  2  0  0  0  0
  2  3  1  0  0  0  0
  3  4  2  0  0  0  0
  4  5  1  0  0  0  0
  5  8  1  0  0  0  0
  6  5  2  0  0  0  0
  7  1  1  0  0  0  0
  9  2  1  0  0  0  0
 10  9  1  0  0  0  0
 11  9  1  0  0  0  0
 12  9  1  0  0  0  0
 13  3  1  0  0  0  0
 15 14  2  0  0  0  0
 15 13  1  0  0  0  0
 15 16  1  0  0  0  0
 16 17  1  0  0  0  0
 18 15  1  0  0  0  0
 19 18  1  0  0  0  0
M  END
>  <minimizedAffinity>
-3.89835382

$$$$

 OpenBabel03252501563D

 19 19  0  0  0  0  0  0  0  0999 V2000
   37.3030   32.5460   38.7620 C   0  0  0  0  0  0  0  0  0  0  0  0
   37.2590   31.1820   39.0730 C   0  0  0  0  0  0  0  0  0  0  0  0
   37.8740   30.7700   40.2640 C   0  0  0  0  0  0  0  0  0  0  0  0
   38.4660   31.7000   41.0370 N   0  0  0  0  0  0  0  0  0  0  0  0
   38.4880   33.0040   40.7050 C   0  0  0  0  0  0  0  0  0  0  0  0
   37.9100   33.4510   39.5650 N   0  0  0  0  0  0  0  0  0  0  0  0
   36.8580   32.9640   37.8650 H   0  0  0  0  0  0  0  0  0  0  0  0
   39.0130   33.5890   41.4570 H   0  0  0  0  0  0  0  0  0  0  0  0
   36.5610   30.3030   38.1000 C   0  0  0  0  0  0  0  0  0  0  0  0
   36.2290   29.3410   38.5440 H   0  0  0  0  0  0  0  0  0  0  0  0
   37.2570   30.1310   37.2370 H   0  0  0  0  0  0  0  0  0  0  0  0
   35.7140   30.8750   37.6510 H   0  0  0  0  0  0  0  0  0  0  0  0
   37.7810   29.4210   40.4850 O   0  0  0  0  0  0  0  0  0  0  0  0
   36.8760   27.2170   41.5910 O   0  0  0  0  0  0  0  0  0  0  0  0
   36.7020   28.7100   41.6030 P   0  0  0  0  0  0  0  0  0  0  0  0
   35.1210   29.1240   41.1400 O   0  0  0  0  0  0  0  0  0  0  0  0
   34.7910   28.4790   40.4670 H   0  0  0  0  0  0  0  0  0  0  0  0
   36.9140   29.2580   43.1750 O   0  0  0  0  0  0  0  0  0  0  0  0
   37.7670   28.9690   43.5990 H   0  0  0  0  0  0  0  0  0  0  0  0
  1  2  2  0  0  0  0
  1  6  1  0  0  0  0
  2  3  1  0  0  0  0
  3 13  1  0  0  0  0
  3  4  2  0  0  0  0
  5  4  1  0  0  0  0
  5  8  1  0  0  0  0
  6  5  2  0  0  0  0
  7  1  1  0  0  0  0
  9 10  1  0  0  0  0
  9  2  1  0  0  0  0
 11  9  1  0  0  0  0
 12  9  1  0  0  0  0
 13 15  1  0  0  0  0
 14 15  2  0  0  0  0
 15 18  1  0  0  0  0
 16 15  1  0  0  0  0
 17 16  1  0  0  0  0
 18 19  1  0  0  0  0
M  END
>  <minimizedAffinity>
-3.84754038

$$$$

 OpenBabel03252501563D

 19 19  0  0  0  0  0  0  0  0999 V2000
   36.8860   28.7960   41.5790 C   0  0  0  0  0  0  0  0  0  0  0  0
   37.2480   27.6340   42.2720 C   0  0  0  0  0  0  0  0  0  0  0  0
   37.1470   26.4150   41.5880 C   0  0  0  0  0  0  0  0  0  0  0  0
   36.7120   26.4270   40.3130 N   0  0  0  0  0  0  0  0  0  0  0  0
   36.3730   27.5640   39.6800 C   0  0  0  0  0  0  0  0  0  0  0  0
   36.4530   28.7660   40.2970 N   0  0  0  0  0  0  0  0  0  0  0  0
   36.9280   29.7860   42.0200 H   0  0  0  0  0  0  0  0  0  0  0  0
   36.0490   27.3610   38.6610 H   0  0  0  0  0  0  0  0  0  0  0  0
   37.7050   27.8160   43.6740 C   0  0  0  0  0  0  0  0  0  0  0  0
   38.3150   26.9660   44.0450 H   0  0  0  0  0  0  0  0  0  0  0  0
   36.7940   27.9680   44.3110 H   0  0  0  0  0  0  0  0  0  0  0  0
   38.2470   28.7880   43.7470 H   0  0  0  0  0  0  0  0  0  0  0  0
   37.5200   25.3360   42.3440 O   0  0  0  0  0  0  0  0  0  0  0  0
   39.7830   25.0330   41.0440 O   0  0  0  0  0  0  0  0  0  0  0  0
   38.8350   24.3130   41.9620 P   0  0  0  0  0  0  0  0  0  0  0  0
   38.2150   22.9260   41.2010 O   0  0  0  0  0  0  0  0  0  0  0  0
   38.1120   23.0960   40.2320 H   0  0  0  0  0  0  0  0  0  0  0  0
   39.6900   23.7940   43.3100 O   0  0  0  0  0  0  0  0  0  0  0  0
   40.2010   24.5130   43.7730 H   0  0  0  0  0  0  0  0  0  0  0  0
  1  7  1  0  0  0  0
  1  2  1  0  0  0  0
  2  9  1  0  0  0  0
  3  2  2  0  0  0  0
  3 13  1  0  0  0  0
  4  3  1  0  0  0  0
  5  6  1  0  0  0  0
  5  4  2  0  0  0  0
  6  1  2  0  0  0  0
  8  5  1  0  0  0  0
  9 12  1  0  0  0  0
  9 10  1  0  0  0  0
  9 11  1  0  0  0  0
 14 15  2  0  0  0  0
 15 13  1  0  0  0  0
 15 18  1  0  0  0  0
 16 15  1  0  0  0  0
 17 16  1  0  0  0  0
 18 19  1  0  0  0  0
M  END
>  <minimizedAffinity>
-3.72296762

$$$$
