
 OpenBabel03252505423D

 40 42  0  0  1  0  0  0  0  0999 V2000
   42.5530   34.5630   40.2730 C   0  0  0  0  0  0  0  0  0  0  0  0
   42.3450   34.9220   38.9660 C   0  0  0  0  0  0  0  0  0  0  0  0
   41.1300   34.7390   38.3320 C   0  0  0  0  0  0  0  0  0  0  0  0
   40.1270   34.1850   39.0420 N   0  0  0  0  0  0  0  0  0  0  0  0
   40.3280   33.8260   40.3360 C   0  0  0  0  0  0  0  0  0  0  0  0
   41.5120   34.0040   40.9600 N   0  0  0  0  0  0  0  0  0  0  0  0
   43.1690   35.3640   38.4230 H   0  0  0  0  0  0  0  0  0  0  0  0
   40.9440   35.0150   37.3020 H   0  0  0  0  0  0  0  0  0  0  0  0
   43.9090   34.5470   42.3460 C   0  0  1  0  0  0  0  0  0  0  0  0
   44.0860   36.0000   41.7780 C   0  0  0  0  0  0  0  0  0  0  0  0
   43.9030   34.7500   40.9270 C   0  0  2  0  0  0  0  0  0  0  0  0
   42.9370   34.4330   42.9100 H   0  0  0  0  0  0  0  0  0  0  0  0
   43.1980   36.6480   41.8160 H   0  0  0  0  0  0  0  0  0  0  0  0
   45.0840   36.4410   41.8640 H   0  0  0  0  0  0  0  0  0  0  0  0
   44.7170   34.6190   40.2130 H   0  0  0  0  0  0  0  0  0  0  0  0
   45.0730   34.0670   43.1180 C   0  0  0  0  0  0  0  0  0  0  0  0
   46.3210   34.0610   42.4720 C   0  0  0  0  0  0  0  0  0  0  0  0
   47.4350   33.6150   43.1840 C   0  0  0  0  0  0  0  0  0  0  0  0
   47.2530   33.2110   44.4650 N   0  0  0  0  0  0  0  0  0  0  0  0
   46.0520   33.2320   45.0470 C   0  0  0  0  0  0  0  0  0  0  0  0
   45.0000   33.6620   44.3470 N   0  0  0  0  0  0  0  0  0  0  0  0
   46.4210   34.3900   41.4520 H   0  0  0  0  0  0  0  0  0  0  0  0
   48.3980   33.6050   42.6950 H   0  0  0  0  0  0  0  0  0  0  0  0
   46.0530   32.7500   46.4700 C   0  0  0  0  0  0  0  0  0  0  0  0
   45.0900   33.3980   47.2270 F   0  0  0  0  0  0  0  0  0  0  0  0
   47.2960   33.0890   47.0570 F   0  0  0  0  0  0  0  0  0  0  0  0
   45.9670   31.3860   46.5020 F   0  0  0  0  0  0  0  0  0  0  0  0
   39.2600   33.1970   41.1750 C   0  0  0  0  0  0  0  0  0  0  0  0
   38.5260   33.9780   41.3580 H   0  0  0  0  0  0  0  0  0  0  0  0
   39.6970   32.8470   42.1350 H   0  0  0  0  0  0  0  0  0  0  0  0
   38.6980   31.9880   40.4750 C   0  0  0  0  0  0  0  0  0  0  0  0
   38.1100   32.3810   39.6030 H   0  0  0  0  0  0  0  0  0  0  0  0
   39.4840   31.3460   40.0530 H   0  0  0  0  0  0  0  0  0  0  0  0
   37.8200   31.2450   41.2230 O   0  0  0  0  0  0  0  0  0  0  0  0
   39.6430   29.8450   42.5350 O   0  0  0  0  0  0  0  0  0  0  0  0
   38.4110   29.7350   41.6850 P   0  0  0  0  0  0  0  0  0  0  0  0
   38.7520   28.7440   40.3760 O   0  0  0  0  0  0  0  0  0  0  0  0
   38.2230   27.9130   40.3760 H   0  0  0  0  0  0  0  0  0  0  0  0
   37.2010   28.9980   42.6080 O   0  0  0  0  0  0  0  0  0  0  0  0
   37.6020   28.5050   43.3490 H   0  0  0  0  0  0  0  0  0  0  0  0
  1 11  1  0  0  0  0
  1  6  1  0  0  0  0
  2  1  2  0  0  0  0
  3  2  1  0  0  0  0
  3  4  2  0  0  0  0
  4  5  1  0  0  0  0
  5  6  2  0  0  0  0
  5 28  1  0  0  0  0
  7  2  1  0  0  0  0
  8  3  1  0  0  0  0
  9 12  1  1  0  0  0
  9 16  1  0  0  0  0
 10 13  1  0  0  0  0
 10 14  1  0  0  0  0
 10  9  1  0  0  0  0
 11 15  1  6  0  0  0
 11 10  1  0  0  0  0
 11  9  1  0  0  0  0
 16 21  1  0  0  0  0
 17 16  2  0  0  0  0
 17 18  1  0  0  0  0
 18 19  2  0  0  0  0
 19 20  1  0  0  0  0
 20 24  1  0  0  0  0
 21 20  2  0  0  0  0
 22 17  1  0  0  0  0
 23 18  1  0  0  0  0
 24 27  1  0  0  0  0
 24 26  1  0  0  0  0
 24 25  1  0  0  0  0
 28 29  1  0  0  0  0
 28 30  1  0  0  0  0
 31 28  1  0  0  0  0
 31 34  1  0  0  0  0
 32 31  1  0  0  0  0
 33 31  1  0  0  0  0
 34 36  1  0  0  0  0
 36 35  2  0  0  0  0
 36 39  1  0  0  0  0
 37 38  1  0  0  0  0
 37 36  1  0  0  0  0
 39 40  1  0  0  0  0
M  END
>  <minimizedAffinity>
-5.6753087

>  <minimizedRMSD>
1.09477496

$$$$
