
 OpenBabel03252509353D

 42 43  0  0  1  0  0  0  0  0999 V2000
   44.5670   35.5020   44.6850 O   0  0  0  0  0  0  0  0  0  0  0  0
   45.4800   34.3290   44.3790 P   0  0  1  0  0  0  0  0  0  0  0  0
   44.6220   33.0740   43.6360 O   0  0  0  0  0  0  0  0  0  0  0  0
   43.9390   33.4350   43.0010 H   0  0  0  0  0  0  0  0  0  0  0  0
   46.6890   34.8720   43.3630 O   0  0  0  0  0  0  0  0  0  0  0  0
   46.9790   33.8900   42.4080 C   0  0  1  0  0  0  0  0  0  0  0  0
   46.6380   34.4080   41.0090 C   0  0  0  0  0  0  0  0  0  0  0  0
   47.2990   33.3510   40.1570 C   0  0  0  0  0  0  0  0  0  0  0  0
   48.4580   32.8090   40.9790 C   0  0  0  0  0  0  0  0  0  0  0  0
   48.4450   33.6330   42.2500 C   0  0  1  0  0  0  0  0  0  0  0  0
   46.4240   32.9650   42.5410 H   0  0  0  0  0  0  0  0  0  0  0  0
   45.5360   34.3220   40.8790 H   0  0  0  0  0  0  0  0  0  0  0  0
   46.9640   35.4270   40.8230 H   0  0  0  0  0  0  0  0  0  0  0  0
   46.5500   32.5390   39.9220 H   0  0  0  0  0  0  0  0  0  0  0  0
   47.6990   33.8070   39.2260 H   0  0  0  0  0  0  0  0  0  0  0  0
   49.4140   32.8770   40.4390 H   0  0  0  0  0  0  0  0  0  0  0  0
   48.1870   31.7780   41.2830 H   0  0  0  0  0  0  0  0  0  0  0  0
   48.7990   33.0480   43.1170 H   0  0  0  0  0  0  0  0  0  0  0  0
   49.2560   34.8930   42.1150 C   0  0  0  0  0  0  0  0  0  0  0  0
   48.6440   35.8050   41.9130 H   0  0  0  0  0  0  0  0  0  0  0  0
   49.9910   34.8070   41.2660 H   0  0  0  0  0  0  0  0  0  0  0  0
   49.9720   35.1730   43.2560 O   0  0  0  0  0  0  0  0  0  0  0  0
   50.0340   34.3590   43.8120 H   0  0  0  0  0  0  0  0  0  0  0  0
   46.1210   33.6980   45.7840 O   0  0  0  0  0  0  0  0  0  0  0  0
   46.1670   32.3450   45.6850 C   0  0  0  0  0  0  0  0  0  0  0  0
   47.2370   32.0580   45.4810 H   0  0  0  0  0  0  0  0  0  0  0  0
   45.5830   31.8620   44.9060 H   0  0  0  0  0  0  0  0  0  0  0  0
   45.4650   31.7720   49.2950 C   0  0  0  0  0  0  0  0  0  0  0  0
   45.7950   32.4450   48.1170 C   0  0  0  0  0  0  0  0  0  0  0  0
   45.8210   31.6680   46.9510 C   0  0  0  0  0  0  0  0  0  0  0  0
   45.5290   30.3340   47.0210 N   0  0  0  0  0  0  0  0  0  0  0  0
   45.2150   29.7230   48.1810 C   0  0  0  0  0  0  0  0  0  0  0  0
   45.1850   30.4470   49.3090 N   0  0  0  0  0  0  0  0  0  0  0  0
   45.4300   32.3240   50.2320 H   0  0  0  0  0  0  0  0  0  0  0  0
   46.0130   33.5010   48.1380 H   0  0  0  0  0  0  0  0  0  0  0  0
   44.9490   28.3650   48.0660 O   0  0  0  0  0  0  0  0  0  0  0  0
   43.3870   27.9300   46.0300 O   0  0  0  0  0  0  0  0  0  0  0  0
   44.7440   27.5590   46.5960 P   0  0  0  0  0  0  0  0  0  0  0  0
   44.7610   25.8720   46.7830 O   0  0  0  0  0  0  0  0  0  0  0  0
   43.8940   25.6260   47.1920 H   0  0  0  0  0  0  0  0  0  0  0  0
   45.9050   28.0000   45.4500 O   0  0  0  0  0  0  0  0  0  0  0  0
   46.0930   27.2120   44.8990 H   0  0  0  0  0  0  0  0  0  0  0  0
  2  1  2  1  0  0  0
  2 24  1  0  0  0  0
  3  2  1  0  0  0  0
  4  3  1  0  0  0  0
  5  2  1  0  0  0  0
  6 11  1  1  0  0  0
  6  5  1  0  0  0  0
  7  6  1  0  0  0  0
  8  9  1  0  0  0  0
  8  7  1  0  0  0  0
  9 17  1  0  0  0  0
  9 10  1  0  0  0  0
 10  6  1  0  0  0  0
 10 18  1  1  0  0  0
 12  7  1  0  0  0  0
 13  7  1  0  0  0  0
 14  8  1  0  0  0  0
 15  8  1  0  0  0  0
 16  9  1  0  0  0  0
 19 10  1  0  0  0  0
 19 22  1  0  0  0  0
 20 19  1  0  0  0  0
 21 19  1  0  0  0  0
 22 23  1  0  0  0  0
 25 24  1  0  0  0  0
 25 30  1  0  0  0  0
 26 25  1  0  0  0  0
 27 25  1  0  0  0  0
 28 33  1  0  0  0  0
 28 34  1  0  0  0  0
 29 35  1  0  0  0  0
 29 28  2  0  0  0  0
 30 31  2  0  0  0  0
 30 29  1  0  0  0  0
 31 32  1  0  0  0  0
 32 33  2  0  0  0  0
 36 32  1  0  0  0  0
 37 38  2  0  0  0  0
 38 39  1  0  0  0  0
 38 36  1  0  0  0  0
 39 40  1  0  0  0  0
 41 38  1  0  0  0  0
 42 41  1  0  0  0  0
M  END
>  <minimizedAffinity>
-5.38630629

>  <minimizedRMSD>
0.792679071

$$$$
