
 OpenBabel03252509283D

 19 19  0  0  0  0  0  0  0  0999 V2000
   47.3170   33.9820   42.5020 C   0  0  0  0  0  0  0  0  0  0  0  0
   47.1220   32.8850   42.3200 H   0  0  0  0  0  0  0  0  0  0  0  0
   48.3540   34.0240   42.9120 H   0  0  0  0  0  0  0  0  0  0  0  0
   44.6880   36.0340   44.1780 C   0  0  0  0  0  0  0  0  0  0  0  0
   45.6010   35.5900   43.2060 C   0  0  0  0  0  0  0  0  0  0  0  0
   46.3590   34.4660   43.4930 C   0  0  0  0  0  0  0  0  0  0  0  0
   46.1830   33.8400   44.7060 N   0  0  0  0  0  0  0  0  0  0  0  0
   45.2900   34.3010   45.6170 C   0  0  0  0  0  0  0  0  0  0  0  0
   44.5560   35.3840   45.3500 N   0  0  0  0  0  0  0  0  0  0  0  0
   44.1370   36.9220   43.8680 H   0  0  0  0  0  0  0  0  0  0  0  0
   45.7350   36.0930   42.2440 H   0  0  0  0  0  0  0  0  0  0  0  0
   45.1680   33.7940   46.5650 H   0  0  0  0  0  0  0  0  0  0  0  0
   47.2220   34.7020   41.3110 O   0  0  0  0  0  0  0  0  0  0  0  0
   48.2110   34.6250   38.8940 O   0  0  0  0  0  0  0  0  0  0  0  0
   48.0120   33.7870   40.1240 P   0  0  0  0  0  0  0  0  0  0  0  0
   47.0750   32.4110   39.8440 O   0  0  0  0  0  0  0  0  0  0  0  0
   46.1160   32.6220   39.7990 H   0  0  0  0  0  0  0  0  0  0  0  0
   49.5330   33.3600   40.7210 O   0  0  0  0  0  0  0  0  0  0  0  0
   50.0270   34.2130   40.8770 H   0  0  0  0  0  0  0  0  0  0  0  0
  1  3  1  0  0  0  0
  1  6  1  0  0  0  0
  2  1  1  0  0  0  0
  4  9  1  0  0  0  0
  5  6  1  0  0  0  0
  5  4  2  0  0  0  0
  6  7  2  0  0  0  0
  7  8  1  0  0  0  0
  8 12  1  0  0  0  0
  9  8  2  0  0  0  0
 10  4  1  0  0  0  0
 11  5  1  0  0  0  0
 13  1  1  0  0  0  0
 14 15  2  0  0  0  0
 15 18  1  0  0  0  0
 15 13  1  0  0  0  0
 16 15  1  0  0  0  0
 17 16  1  0  0  0  0
 18 19  1  0  0  0  0
M  END
>  <minimizedAffinity>
-3.69521427

>  <minimizedRMSD>
1.71997786

$$$$
