
 OpenBabel03252509283D

 19 19  0  0  0  0  0  0  0  0999 V2000
   46.3760   33.1220   46.2670 C   0  0  0  0  0  0  0  0  0  0  0  0
   46.7600   32.6250   45.3300 H   0  0  0  0  0  0  0  0  0  0  0  0
   47.2610   33.6520   46.6920 H   0  0  0  0  0  0  0  0  0  0  0  0
   45.3120   31.3790   49.3920 C   0  0  0  0  0  0  0  0  0  0  0  0
   45.7580   32.3960   48.5290 C   0  0  0  0  0  0  0  0  0  0  0  0
   45.9130   32.0850   47.1870 C   0  0  0  0  0  0  0  0  0  0  0  0
   45.6260   30.8080   46.7640 N   0  0  0  0  0  0  0  0  0  0  0  0
   45.1980   29.8550   47.6300 C   0  0  0  0  0  0  0  0  0  0  0  0
   45.0460   30.1440   48.9250 N   0  0  0  0  0  0  0  0  0  0  0  0
   45.2190   31.7110   50.4260 H   0  0  0  0  0  0  0  0  0  0  0  0
   45.9840   33.4080   48.8720 H   0  0  0  0  0  0  0  0  0  0  0  0
   44.9780   28.8560   47.2760 H   0  0  0  0  0  0  0  0  0  0  0  0
   45.3550   34.0220   45.9630 O   0  0  0  0  0  0  0  0  0  0  0  0
   44.9700   35.6760   43.9770 O   0  0  0  0  0  0  0  0  0  0  0  0
   45.4110   34.2750   44.2890 P   0  0  0  0  0  0  0  0  0  0  0  0
   44.4370   33.1000   43.5690 O   0  0  0  0  0  0  0  0  0  0  0  0
   43.5930   32.9710   44.0580 H   0  0  0  0  0  0  0  0  0  0  0  0
   47.0150   34.1060   43.7900 O   0  0  0  0  0  0  0  0  0  0  0  0
   47.5350   34.8170   44.2580 H   0  0  0  0  0  0  0  0  0  0  0  0
  1  3  1  0  0  0  0
  1  6  1  0  0  0  0
  2  1  1  0  0  0  0
  4 10  1  0  0  0  0
  5 11  1  0  0  0  0
  5  4  2  0  0  0  0
  6  5  1  0  0  0  0
  7  6  2  0  0  0  0
  7  8  1  0  0  0  0
  8  9  2  0  0  0  0
  9  4  1  0  0  0  0
 12  8  1  0  0  0  0
 13  1  1  0  0  0  0
 14 15  2  0  0  0  0
 15 13  1  0  0  0  0
 16 17  1  0  0  0  0
 16 15  1  0  0  0  0
 18 19  1  0  0  0  0
 18 15  1  0  0  0  0
M  END
>  <minimizedAffinity>
-4.02419949

>  <minimizedRMSD>
5.09213924

$$$$
