
 OpenBabel03252504503D

 22 22  0  0  0  0  0  0  0  0999 V2000
   39.8660   27.8710   41.7810 C   0  0  0  0  0  0  0  0  0  0  0  0
   39.1760   27.5780   42.9550 C   0  0  0  0  0  0  0  0  0  0  0  0
   38.2110   28.4930   43.3750 C   0  0  0  0  0  0  0  0  0  0  0  0
   37.9950   29.6070   42.6280 N   0  0  0  0  0  0  0  0  0  0  0  0
   38.6880   29.8580   41.4910 C   0  0  0  0  0  0  0  0  0  0  0  0
   39.6190   28.9920   41.0710 N   0  0  0  0  0  0  0  0  0  0  0  0
   40.6200   27.1690   41.4440 H   0  0  0  0  0  0  0  0  0  0  0  0
   37.6450   28.3200   44.2730 H   0  0  0  0  0  0  0  0  0  0  0  0
   39.4760   26.3650   43.6770 C   0  0  0  0  0  0  0  0  0  0  0  0
   39.4000   26.6120   44.7780 H   0  0  0  0  0  0  0  0  0  0  0  0
   38.7980   25.5530   43.3970 H   0  0  0  0  0  0  0  0  0  0  0  0
   40.9350   26.0050   43.4700 C   0  0  0  0  0  0  0  0  0  0  0  0
   41.4210   25.6110   44.3850 H   0  0  0  0  0  0  0  0  0  0  0  0
   41.4940   26.8220   43.0010 H   0  0  0  0  0  0  0  0  0  0  0  0
   40.9600   25.1600   42.7360 H   0  0  0  0  0  0  0  0  0  0  0  0
   38.4560   30.9940   40.7450 O   0  0  0  0  0  0  0  0  0  0  0  0
   36.5800   30.8810   38.9480 O   0  0  0  0  0  0  0  0  0  0  0  0
   36.8990   31.5140   40.2810 P   0  0  0  0  0  0  0  0  0  0  0  0
   35.7050   31.0000   41.3910 O   0  0  0  0  0  0  0  0  0  0  0  0
   35.0850   31.7740   41.5400 H   0  0  0  0  0  0  0  0  0  0  0  0
   36.9150   33.1850   40.2010 O   0  0  0  0  0  0  0  0  0  0  0  0
   36.0560   33.6000   40.0050 H   0  0  0  0  0  0  0  0  0  0  0  0
  1  2  1  0  0  0  0
  2  3  2  0  0  0  0
  2  9  1  0  0  0  0
  3  8  1  0  0  0  0
  4  3  1  0  0  0  0
  5  4  2  0  0  0  0
  6  5  1  0  0  0  0
  6  1  2  0  0  0  0
  7  1  1  0  0  0  0
  9 10  1  0  0  0  0
 11  9  1  0  0  0  0
 12  9  1  0  0  0  0
 12 13  1  0  0  0  0
 14 12  1  0  0  0  0
 15 12  1  0  0  0  0
 16  5  1  0  0  0  0
 17 18  2  0  0  0  0
 18 16  1  0  0  0  0
 18 19  1  0  0  0  0
 19 20  1  0  0  0  0
 21 18  1  0  0  0  0
 22 21  1  0  0  0  0
M  END
>  <minimizedAffinity>
-4.51418161

$$$$

 OpenBabel03252504503D

 22 22  0  0  0  0  0  0  0  0999 V2000
   38.1710   26.5330   40.8920 C   0  0  0  0  0  0  0  0  0  0  0  0
   37.3370   26.2000   41.9560 C   0  0  0  0  0  0  0  0  0  0  0  0
   36.7790   27.2510   42.6850 C   0  0  0  0  0  0  0  0  0  0  0  0
   37.0730   28.5270   42.3240 N   0  0  0  0  0  0  0  0  0  0  0  0
   37.8910   28.8110   41.2810 C   0  0  0  0  0  0  0  0  0  0  0  0
   38.4370   27.8160   40.5690 N   0  0  0  0  0  0  0  0  0  0  0  0
   38.6120   25.7260   40.3180 H   0  0  0  0  0  0  0  0  0  0  0  0
   36.1270   27.0560   43.5170 H   0  0  0  0  0  0  0  0  0  0  0  0
   37.0830   24.8120   42.2600 C   0  0  0  0  0  0  0  0  0  0  0  0
   38.0880   24.3290   42.4440 H   0  0  0  0  0  0  0  0  0  0  0  0
   36.4180   24.7050   43.1230 H   0  0  0  0  0  0  0  0  0  0  0  0
   36.5500   24.1160   41.0220 C   0  0  0  0  0  0  0  0  0  0  0  0
   36.9480   23.0910   40.8940 H   0  0  0  0  0  0  0  0  0  0  0  0
   36.6590   24.7370   40.1270 H   0  0  0  0  0  0  0  0  0  0  0  0
   35.4480   23.9890   41.1710 H   0  0  0  0  0  0  0  0  0  0  0  0
   38.1790   30.1120   40.9290 O   0  0  0  0  0  0  0  0  0  0  0  0
   36.6390   31.0040   39.0320 O   0  0  0  0  0  0  0  0  0  0  0  0
   36.9910   31.2510   40.4800 P   0  0  0  0  0  0  0  0  0  0  0  0
   35.5590   31.0630   41.3940 O   0  0  0  0  0  0  0  0  0  0  0  0
   35.2480   31.9810   41.6520 H   0  0  0  0  0  0  0  0  0  0  0  0
   37.6220   32.7800   40.7250 O   0  0  0  0  0  0  0  0  0  0  0  0
   37.0040   33.5160   40.5620 H   0  0  0  0  0  0  0  0  0  0  0  0
  1  2  1  0  0  0  0
  2  9  1  0  0  0  0
  2  3  2  0  0  0  0
  3  8  1  0  0  0  0
  4  3  1  0  0  0  0
  5  4  2  0  0  0  0
  6  1  2  0  0  0  0
  6  5  1  0  0  0  0
  7  1  1  0  0  0  0
  9 10  1  0  0  0  0
  9 11  1  0  0  0  0
 12 15  1  0  0  0  0
 12  9  1  0  0  0  0
 13 12  1  0  0  0  0
 14 12  1  0  0  0  0
 16  5  1  0  0  0  0
 17 18  2  0  0  0  0
 18 21  1  0  0  0  0
 18 16  1  0  0  0  0
 18 19  1  0  0  0  0
 19 20  1  0  0  0  0
 22 21  1  0  0  0  0
M  END
>  <minimizedAffinity>
-4.50914478

$$$$

 OpenBabel03252504503D

 22 22  0  0  0  0  0  0  0  0999 V2000
   37.9760   26.4960   40.8300 C   0  0  0  0  0  0  0  0  0  0  0  0
   37.2300   26.1570   41.9560 C   0  0  0  0  0  0  0  0  0  0  0  0
   36.7870   27.2010   42.7680 C   0  0  0  0  0  0  0  0  0  0  0  0
   37.1000   28.4770   42.4230 N   0  0  0  0  0  0  0  0  0  0  0  0
   37.8290   28.7670   41.3180 C   0  0  0  0  0  0  0  0  0  0  0  0
   38.2640   27.7790   40.5250 N   0  0  0  0  0  0  0  0  0  0  0  0
   38.3270   25.6940   40.1900 H   0  0  0  0  0  0  0  0  0  0  0  0
   36.2070   27.0010   43.6510 H   0  0  0  0  0  0  0  0  0  0  0  0
   36.9470   24.7700   42.2360 C   0  0  0  0  0  0  0  0  0  0  0  0
   37.1130   24.6190   43.3440 H   0  0  0  0  0  0  0  0  0  0  0  0
   35.9280   24.5000   41.9390 H   0  0  0  0  0  0  0  0  0  0  0  0
   37.9980   23.8990   41.5740 C   0  0  0  0  0  0  0  0  0  0  0  0
   38.3050   23.0370   42.1980 H   0  0  0  0  0  0  0  0  0  0  0  0
   38.8430   24.4900   41.2060 H   0  0  0  0  0  0  0  0  0  0  0  0
   37.5220   23.4510   40.6650 H   0  0  0  0  0  0  0  0  0  0  0  0
   38.1380   30.0680   40.9830 O   0  0  0  0  0  0  0  0  0  0  0  0
   37.5910   32.5760   40.5680 O   0  0  0  0  0  0  0  0  0  0  0  0
   36.9830   31.2010   40.4410 P   0  0  0  0  0  0  0  0  0  0  0  0
   36.5920   30.9640   38.7940 O   0  0  0  0  0  0  0  0  0  0  0  0
   35.5970   31.0550   38.7080 H   0  0  0  0  0  0  0  0  0  0  0  0
   35.6090   31.0270   41.3790 O   0  0  0  0  0  0  0  0  0  0  0  0
   34.8530   31.5830   41.1160 H   0  0  0  0  0  0  0  0  0  0  0  0
  1  2  1  0  0  0  0
  2  9  1  0  0  0  0
  2  3  2  0  0  0  0
  3  8  1  0  0  0  0
  4  3  1  0  0  0  0
  5  4  2  0  0  0  0
  6  1  2  0  0  0  0
  6  5  1  0  0  0  0
  7  1  1  0  0  0  0
  9 10  1  0  0  0  0
 11  9  1  0  0  0  0
 12 13  1  0  0  0  0
 12  9  1  0  0  0  0
 14 12  1  0  0  0  0
 15 12  1  0  0  0  0
 16  5  1  0  0  0  0
 18 17  2  0  0  0  0
 18 16  1  0  0  0  0
 18 21  1  0  0  0  0
 19 18  1  0  0  0  0
 20 19  1  0  0  0  0
 22 21  1  0  0  0  0
M  END
>  <minimizedAffinity>
-4.35375786

$$$$

 OpenBabel03252504503D

 22 22  0  0  0  0  0  0  0  0999 V2000
   36.7920   29.1970   41.6100 C   0  0  0  0  0  0  0  0  0  0  0  0
   37.3090   28.4510   42.6660 C   0  0  0  0  0  0  0  0  0  0  0  0
   38.4930   28.9010   43.2480 C   0  0  0  0  0  0  0  0  0  0  0  0
   39.0740   30.0290   42.7640 N   0  0  0  0  0  0  0  0  0  0  0  0
   38.5410   30.7290   41.7330 C   0  0  0  0  0  0  0  0  0  0  0  0
   37.4040   30.3130   41.1600 N   0  0  0  0  0  0  0  0  0  0  0  0
   35.8730   28.8590   41.1470 H   0  0  0  0  0  0  0  0  0  0  0  0
   38.9400   28.3660   44.0680 H   0  0  0  0  0  0  0  0  0  0  0  0
   36.6160   27.2660   43.1110 C   0  0  0  0  0  0  0  0  0  0  0  0
   36.9130   27.0970   44.1880 H   0  0  0  0  0  0  0  0  0  0  0  0
   35.5310   27.3710   43.0020 H   0  0  0  0  0  0  0  0  0  0  0  0
   37.1620   26.0570   42.3740 C   0  0  0  0  0  0  0  0  0  0  0  0
   37.2550   25.1610   43.0170 H   0  0  0  0  0  0  0  0  0  0  0  0
   38.0800   26.2950   41.8270 H   0  0  0  0  0  0  0  0  0  0  0  0
   36.4060   25.7840   41.5940 H   0  0  0  0  0  0  0  0  0  0  0  0
   39.1440   31.8720   41.2540 O   0  0  0  0  0  0  0  0  0  0  0  0
   39.5020   33.9090   39.6780 O   0  0  0  0  0  0  0  0  0  0  0  0
   38.5530   32.7610   39.9220 P   0  0  0  0  0  0  0  0  0  0  0  0
   38.5160   31.8150   38.5000 O   0  0  0  0  0  0  0  0  0  0  0  0
   37.6460   32.0070   38.0370 H   0  0  0  0  0  0  0  0  0  0  0  0
   37.0090   33.2840   40.2950 O   0  0  0  0  0  0  0  0  0  0  0  0
   36.5440   33.7510   39.5770 H   0  0  0  0  0  0  0  0  0  0  0  0
  1  2  1  0  0  0  0
  2  9  1  0  0  0  0
  2  3  2  0  0  0  0
  3  8  1  0  0  0  0
  4  3  1  0  0  0  0
  5  4  2  0  0  0  0
  6  1  2  0  0  0  0
  6  5  1  0  0  0  0
  7  1  1  0  0  0  0
  9 10  1  0  0  0  0
 11  9  1  0  0  0  0
 12 13  1  0  0  0  0
 12  9  1  0  0  0  0
 14 12  1  0  0  0  0
 15 12  1  0  0  0  0
 16  5  1  0  0  0  0
 17 18  2  0  0  0  0
 18 21  1  0  0  0  0
 18 16  1  0  0  0  0
 19 18  1  0  0  0  0
 20 19  1  0  0  0  0
 22 21  1  0  0  0  0
M  END
>  <minimizedAffinity>
-4.20115423

$$$$

 OpenBabel03252504503D

 22 22  0  0  0  0  0  0  0  0999 V2000
   36.1180   29.9490   38.0950 C   0  0  0  0  0  0  0  0  0  0  0  0
   35.1700   29.1650   38.7470 C   0  0  0  0  0  0  0  0  0  0  0  0
   35.1170   29.2500   40.1380 C   0  0  0  0  0  0  0  0  0  0  0  0
   35.9790   30.0820   40.7770 N   0  0  0  0  0  0  0  0  0  0  0  0
   36.8900   30.8300   40.1070 C   0  0  0  0  0  0  0  0  0  0  0  0
   36.9560   30.7620   38.7710 N   0  0  0  0  0  0  0  0  0  0  0  0
   36.1710   29.8920   37.0140 H   0  0  0  0  0  0  0  0  0  0  0  0
   34.4060   28.6680   40.6970 H   0  0  0  0  0  0  0  0  0  0  0  0
   34.2950   28.3120   37.9780 C   0  0  0  0  0  0  0  0  0  0  0  0
   34.8870   27.9570   37.0830 H   0  0  0  0  0  0  0  0  0  0  0  0
   33.9240   27.4740   38.5770 H   0  0  0  0  0  0  0  0  0  0  0  0
   33.1750   29.1460   37.3850 C   0  0  0  0  0  0  0  0  0  0  0  0
   32.9080   28.8440   36.3530 H   0  0  0  0  0  0  0  0  0  0  0  0
   33.3690   30.2190   37.4850 H   0  0  0  0  0  0  0  0  0  0  0  0
   32.2600   28.9430   37.9980 H   0  0  0  0  0  0  0  0  0  0  0  0
   37.7580   31.6690   40.7710 O   0  0  0  0  0  0  0  0  0  0  0  0
   39.4320   32.9510   39.2490 O   0  0  0  0  0  0  0  0  0  0  0  0
   38.2530   33.1850   40.1620 P   0  0  0  0  0  0  0  0  0  0  0  0
   37.0230   33.9230   39.2330 O   0  0  0  0  0  0  0  0  0  0  0  0
   36.9980   34.8930   39.4900 H   0  0  0  0  0  0  0  0  0  0  0  0
   38.6430   34.1610   41.4630 O   0  0  0  0  0  0  0  0  0  0  0  0
   38.8800   35.0790   41.2370 H   0  0  0  0  0  0  0  0  0  0  0  0
  1  2  2  0  0  0  0
  1  6  1  0  0  0  0
  2  3  1  0  0  0  0
  3  8  1  0  0  0  0
  3  4  2  0  0  0  0
  5 16  1  0  0  0  0
  5  4  1  0  0  0  0
  6  5  2  0  0  0  0
  7  1  1  0  0  0  0
  9 11  1  0  0  0  0
  9  2  1  0  0  0  0
 10  9  1  0  0  0  0
 12 14  1  0  0  0  0
 12  9  1  0  0  0  0
 12 15  1  0  0  0  0
 13 12  1  0  0  0  0
 17 18  2  0  0  0  0
 18 16  1  0  0  0  0
 18 21  1  0  0  0  0
 19 20  1  0  0  0  0
 19 18  1  0  0  0  0
 22 21  1  0  0  0  0
M  END
>  <minimizedAffinity>
-4.19180202

$$$$

 OpenBabel03252504503D

 22 22  0  0  0  0  0  0  0  0999 V2000
   39.5000   29.3820   42.3250 C   0  0  0  0  0  0  0  0  0  0  0  0
   38.1320   29.2740   42.5680 C   0  0  0  0  0  0  0  0  0  0  0  0
   37.2740   29.9510   41.7020 C   0  0  0  0  0  0  0  0  0  0  0  0
   37.8070   30.6710   40.6810 N   0  0  0  0  0  0  0  0  0  0  0  0
   39.1440   30.7520   40.4770 C   0  0  0  0  0  0  0  0  0  0  0  0
   39.9860   30.1090   41.2970 N   0  0  0  0  0  0  0  0  0  0  0  0
   40.1790   28.8620   42.9910 H   0  0  0  0  0  0  0  0  0  0  0  0
   36.2080   29.9050   41.8390 H   0  0  0  0  0  0  0  0  0  0  0  0
   37.6640   28.4830   43.6790 C   0  0  0  0  0  0  0  0  0  0  0  0
   38.5390   27.8590   44.0300 H   0  0  0  0  0  0  0  0  0  0  0  0
   37.2680   29.1130   44.4830 H   0  0  0  0  0  0  0  0  0  0  0  0
   36.6510   27.4680   43.1830 C   0  0  0  0  0  0  0  0  0  0  0  0
   36.7470   26.4800   43.6750 H   0  0  0  0  0  0  0  0  0  0  0  0
   36.6390   27.4070   42.0900 H   0  0  0  0  0  0  0  0  0  0  0  0
   35.6400   27.8470   43.4780 H   0  0  0  0  0  0  0  0  0  0  0  0
   39.6680   31.4870   39.4350 O   0  0  0  0  0  0  0  0  0  0  0  0
   38.5970   30.2060   37.4410 O   0  0  0  0  0  0  0  0  0  0  0  0
   38.9300   31.6050   37.9010 P   0  0  0  0  0  0  0  0  0  0  0  0
   37.4660   32.4840   37.9730 O   0  0  0  0  0  0  0  0  0  0  0  0
   37.4490   33.0990   37.1800 H   0  0  0  0  0  0  0  0  0  0  0  0
   40.0000   32.3730   36.8710 O   0  0  0  0  0  0  0  0  0  0  0  0
   39.6590   32.5540   35.9760 H   0  0  0  0  0  0  0  0  0  0  0  0
  1  2  1  0  0  0  0
  1  7  1  0  0  0  0
  2  9  1  0  0  0  0
  3  8  1  0  0  0  0
  3  2  2  0  0  0  0
  4  3  1  0  0  0  0
  5  4  2  0  0  0  0
  5  6  1  0  0  0  0
  6  1  2  0  0  0  0
  9 10  1  0  0  0  0
  9 11  1  0  0  0  0
 12 15  1  0  0  0  0
 12 13  1  0  0  0  0
 12  9  1  0  0  0  0
 14 12  1  0  0  0  0
 16  5  1  0  0  0  0
 17 18  2  0  0  0  0
 18 19  1  0  0  0  0
 18 16  1  0  0  0  0
 20 19  1  0  0  0  0
 21 18  1  0  0  0  0
 22 21  1  0  0  0  0
M  END
>  <minimizedAffinity>
-4.12328625

$$$$

 OpenBabel03252504503D

 22 22  0  0  0  0  0  0  0  0999 V2000
   39.9110   28.9140   42.6260 C   0  0  0  0  0  0  0  0  0  0  0  0
   38.5350   28.7990   42.8070 C   0  0  0  0  0  0  0  0  0  0  0  0
   37.7260   29.7460   42.1780 C   0  0  0  0  0  0  0  0  0  0  0  0
   38.3120   30.7160   41.4310 N   0  0  0  0  0  0  0  0  0  0  0  0
   39.6560   30.7960   41.2790 C   0  0  0  0  0  0  0  0  0  0  0  0
   40.4510   29.8970   41.8740 N   0  0  0  0  0  0  0  0  0  0  0  0
   40.5520   28.1860   43.1100 H   0  0  0  0  0  0  0  0  0  0  0  0
   36.6560   29.7080   42.2810 H   0  0  0  0  0  0  0  0  0  0  0  0
   38.0070   27.7290   43.6180 C   0  0  0  0  0  0  0  0  0  0  0  0
   38.5540   26.7880   43.3160 H   0  0  0  0  0  0  0  0  0  0  0  0
   38.1240   27.9410   44.6860 H   0  0  0  0  0  0  0  0  0  0  0  0
   36.5630   27.4690   43.2310 C   0  0  0  0  0  0  0  0  0  0  0  0
   36.3020   26.3930   43.2230 H   0  0  0  0  0  0  0  0  0  0  0  0
   36.2910   27.9870   42.3050 H   0  0  0  0  0  0  0  0  0  0  0  0
   35.9250   27.9230   44.0310 H   0  0  0  0  0  0  0  0  0  0  0  0
   40.2350   31.7880   40.5170 O   0  0  0  0  0  0  0  0  0  0  0  0
   40.4360   34.1310   39.4060 O   0  0  0  0  0  0  0  0  0  0  0  0
   39.4260   33.2210   40.0640 P   0  0  0  0  0  0  0  0  0  0  0  0
   38.1920   32.9140   38.9230 O   0  0  0  0  0  0  0  0  0  0  0  0
   37.3930   33.4560   39.1950 H   0  0  0  0  0  0  0  0  0  0  0  0
   38.7660   33.8990   41.4430 O   0  0  0  0  0  0  0  0  0  0  0  0
   38.2220   34.6940   41.2950 H   0  0  0  0  0  0  0  0  0  0  0  0
  1  2  1  0  0  0  0
  1  7  1  0  0  0  0
  2  9  1  0  0  0  0
  3  8  1  0  0  0  0
  3  2  2  0  0  0  0
  4  3  1  0  0  0  0
  5  4  2  0  0  0  0
  5  6  1  0  0  0  0
  6  1  2  0  0  0  0
  9 11  1  0  0  0  0
 10  9  1  0  0  0  0
 12  9  1  0  0  0  0
 12 15  1  0  0  0  0
 13 12  1  0  0  0  0
 14 12  1  0  0  0  0
 16  5  1  0  0  0  0
 17 18  2  0  0  0  0
 18 16  1  0  0  0  0
 18 21  1  0  0  0  0
 19 20  1  0  0  0  0
 19 18  1  0  0  0  0
 22 21  1  0  0  0  0
M  END
>  <minimizedAffinity>
-4.04703808

$$$$

 OpenBabel03252504503D

 22 22  0  0  0  0  0  0  0  0999 V2000
   38.2610   28.5650   41.2060 C   0  0  0  0  0  0  0  0  0  0  0  0
   38.4140   28.9510   42.5360 C   0  0  0  0  0  0  0  0  0  0  0  0
   39.1200   30.1280   42.7820 C   0  0  0  0  0  0  0  0  0  0  0  0
   39.6140   30.8290   41.7290 N   0  0  0  0  0  0  0  0  0  0  0  0
   39.4450   30.4200   40.4480 C   0  0  0  0  0  0  0  0  0  0  0  0
   38.7700   29.2920   40.1900 N   0  0  0  0  0  0  0  0  0  0  0  0
   37.7160   27.6510   41.0000 H   0  0  0  0  0  0  0  0  0  0  0  0
   39.2700   30.4770   43.7880 H   0  0  0  0  0  0  0  0  0  0  0  0
   37.8490   28.1390   43.5860 C   0  0  0  0  0  0  0  0  0  0  0  0
   38.7060   27.5800   44.0650 H   0  0  0  0  0  0  0  0  0  0  0  0
   37.3040   28.7480   44.3150 H   0  0  0  0  0  0  0  0  0  0  0  0
   36.9850   27.0530   42.9720 C   0  0  0  0  0  0  0  0  0  0  0  0
   37.0780   26.0780   43.4910 H   0  0  0  0  0  0  0  0  0  0  0  0
   37.1290   26.9820   41.8890 H   0  0  0  0  0  0  0  0  0  0  0  0
   35.9200   27.3640   43.1180 H   0  0  0  0  0  0  0  0  0  0  0  0
   39.9540   31.1440   39.3910 O   0  0  0  0  0  0  0  0  0  0  0  0
   37.7890   31.9740   38.2120 O   0  0  0  0  0  0  0  0  0  0  0  0
   39.1310   31.3520   37.9100 P   0  0  0  0  0  0  0  0  0  0  0  0
   39.9680   32.4180   36.8690 O   0  0  0  0  0  0  0  0  0  0  0  0
   39.9410   32.0180   35.9490 H   0  0  0  0  0  0  0  0  0  0  0  0
   38.9840   29.8520   37.1850 O   0  0  0  0  0  0  0  0  0  0  0  0
   38.5840   29.8570   36.2970 H   0  0  0  0  0  0  0  0  0  0  0  0
  1  2  1  0  0  0  0
  2  3  2  0  0  0  0
  2  9  1  0  0  0  0
  3  8  1  0  0  0  0
  4  3  1  0  0  0  0
  5  4  2  0  0  0  0
  6  5  1  0  0  0  0
  6  1  2  0  0  0  0
  7  1  1  0  0  0  0
  9 10  1  0  0  0  0
  9 11  1  0  0  0  0
 12 15  1  0  0  0  0
 12 13  1  0  0  0  0
 12  9  1  0  0  0  0
 14 12  1  0  0  0  0
 16  5  1  0  0  0  0
 18 17  2  0  0  0  0
 18 16  1  0  0  0  0
 19 18  1  0  0  0  0
 20 19  1  0  0  0  0
 21 18  1  0  0  0  0
 22 21  1  0  0  0  0
M  END
>  <minimizedAffinity>
-3.92197704

$$$$

 OpenBabel03252504503D

 22 22  0  0  0  0  0  0  0  0999 V2000
   38.9820   29.8040   41.8180 C   0  0  0  0  0  0  0  0  0  0  0  0
   37.6900   29.5350   42.2620 C   0  0  0  0  0  0  0  0  0  0  0  0
   36.6380   30.1350   41.5700 C   0  0  0  0  0  0  0  0  0  0  0  0
   36.9240   30.9390   40.5130 N   0  0  0  0  0  0  0  0  0  0  0  0
   38.1960   31.1760   40.1110 C   0  0  0  0  0  0  0  0  0  0  0  0
   39.2200   30.6100   40.7620 N   0  0  0  0  0  0  0  0  0  0  0  0
   39.8090   29.3450   42.3480 H   0  0  0  0  0  0  0  0  0  0  0  0
   35.6180   29.9650   41.8660 H   0  0  0  0  0  0  0  0  0  0  0  0
   37.4890   28.6650   43.3950 C   0  0  0  0  0  0  0  0  0  0  0  0
   38.5000   28.2370   43.6630 H   0  0  0  0  0  0  0  0  0  0  0  0
   37.0400   29.2000   44.2380 H   0  0  0  0  0  0  0  0  0  0  0  0
   36.6700   27.4610   42.9660 C   0  0  0  0  0  0  0  0  0  0  0  0
   37.0090   26.5160   43.4330 H   0  0  0  0  0  0  0  0  0  0  0  0
   36.5800   27.3980   41.8770 H   0  0  0  0  0  0  0  0  0  0  0  0
   35.6310   27.6230   43.3490 H   0  0  0  0  0  0  0  0  0  0  0  0
   38.4680   31.9950   39.0350 O   0  0  0  0  0  0  0  0  0  0  0  0
   40.9380   32.7640   38.7650 O   0  0  0  0  0  0  0  0  0  0  0  0
   39.8970   31.8890   38.1090 P   0  0  0  0  0  0  0  0  0  0  0  0
   40.5130   30.2950   38.0800 O   0  0  0  0  0  0  0  0  0  0  0  0
   40.7970   30.1030   37.1380 H   0  0  0  0  0  0  0  0  0  0  0  0
   39.5420   32.3860   36.5520 O   0  0  0  0  0  0  0  0  0  0  0  0
   40.2730   32.3070   35.9140 H   0  0  0  0  0  0  0  0  0  0  0  0
  1  2  1  0  0  0  0
  1  7  1  0  0  0  0
  2  9  1  0  0  0  0
  3  8  1  0  0  0  0
  3  2  2  0  0  0  0
  4  3  1  0  0  0  0
  5  4  2  0  0  0  0
  5  6  1  0  0  0  0
  6  1  2  0  0  0  0
  9 10  1  0  0  0  0
  9 11  1  0  0  0  0
 12 15  1  0  0  0  0
 12  9  1  0  0  0  0
 12 13  1  0  0  0  0
 14 12  1  0  0  0  0
 16  5  1  0  0  0  0
 18 17  2  0  0  0  0
 18 16  1  0  0  0  0
 19 18  1  0  0  0  0
 20 19  1  0  0  0  0
 21 18  1  0  0  0  0
 22 21  1  0  0  0  0
M  END
>  <minimizedAffinity>
-3.89781284

$$$$
