
 OpenBabel03242511513D

 25 26  0  0  1  0  0  0  0  0999 V2000
   35.5550   29.0440   40.8650 C   0  0  1  0  0  0  0  0  0  0  0  0
   35.8310   30.2590   40.0610 C   0  0  2  0  0  0  0  0  0  0  0  0
   35.3780   29.0300   39.3840 C   0  0  0  0  0  0  0  0  0  0  0  0
   34.6760   29.1190   41.5330 H   0  0  0  0  0  0  0  0  0  0  0  0
   35.0450   31.0630   40.1760 H   0  0  0  0  0  0  0  0  0  0  0  0
   36.1190   28.4240   38.8000 H   0  0  0  0  0  0  0  0  0  0  0  0
   34.3680   28.9510   38.9360 H   0  0  0  0  0  0  0  0  0  0  0  0
   37.2060   28.6990   42.6840 C   0  0  0  0  0  0  0  0  0  0  0  0
   36.6700   28.2580   41.4740 C   0  0  0  0  0  0  0  0  0  0  0  0
   37.1950   27.0970   40.8810 C   0  0  0  0  0  0  0  0  0  0  0  0
   38.2200   26.4500   41.5340 N   0  0  0  0  0  0  0  0  0  0  0  0
   38.7010   26.9210   42.7030 C   0  0  0  0  0  0  0  0  0  0  0  0
   38.2070   28.0460   43.2960 N   0  0  0  0  0  0  0  0  0  0  0  0
   36.8730   29.5740   43.2160 H   0  0  0  0  0  0  0  0  0  0  0  0
   36.7790   26.7530   39.9450 H   0  0  0  0  0  0  0  0  0  0  0  0
   39.5150   26.2770   43.0740 H   0  0  0  0  0  0  0  0  0  0  0  0
   37.2310   30.6690   39.8940 C   0  0  0  0  0  0  0  0  0  0  0  0
   37.8720   30.1380   39.0440 O   0  0  0  0  0  0  0  0  0  0  0  0
   37.7050   31.6570   40.7510 O   0  0  0  0  0  0  0  0  0  0  0  0
   39.4380   33.0360   39.2340 O   0  0  0  0  0  0  0  0  0  0  0  0
   38.2280   33.1870   40.1280 P   0  0  0  0  0  0  0  0  0  0  0  0
   36.9670   33.9340   39.2850 O   0  0  0  0  0  0  0  0  0  0  0  0
   37.2970   34.4810   38.5320 H   0  0  0  0  0  0  0  0  0  0  0  0
   38.6810   34.1610   41.4500 O   0  0  0  0  0  0  0  0  0  0  0  0
   39.5620   33.8760   41.8010 H   0  0  0  0  0  0  0  0  0  0  0  0
  1  9  1  0  0  0  0
  1  4  1  1  0  0  0
  2  5  1  1  0  0  0
  2  1  1  0  0  0  0
  3  2  1  0  0  0  0
  3  1  1  0  0  0  0
  6  3  1  0  0  0  0
  7  3  1  0  0  0  0
  8 14  1  0  0  0  0
  8 13  1  0  0  0  0
  9  8  2  0  0  0  0
 10  9  1  0  0  0  0
 10 11  2  0  0  0  0
 11 12  1  0  0  0  0
 12 16  1  0  0  0  0
 12 13  2  0  0  0  0
 15 10  1  0  0  0  0
 17  2  1  0  0  0  0
 17 19  1  0  0  0  0
 18 17  2  0  0  0  0
 20 21  2  0  0  0  0
 21 19  1  0  0  0  0
 21 24  1  0  0  0  0
 22 21  1  0  0  0  0
 23 22  1  0  0  0  0
 24 25  1  0  0  0  0
M  END
>  <minimizedAffinity>
-4.75591564

$$$$

 OpenBabel03242511513D

 25 26  0  0  1  0  0  0  0  0999 V2000
   38.0020   27.2700   43.6800 C   0  0  1  0  0  0  0  0  0  0  0  0
   37.3880   28.5870   43.3830 C   0  0  2  0  0  0  0  0  0  0  0  0
   36.5690   27.3650   43.2790 C   0  0  0  0  0  0  0  0  0  0  0  0
   38.2770   27.1140   44.7400 H   0  0  0  0  0  0  0  0  0  0  0  0
   37.2020   29.2140   44.3040 H   0  0  0  0  0  0  0  0  0  0  0  0
   36.3090   26.9680   42.2630 H   0  0  0  0  0  0  0  0  0  0  0  0
   35.7620   27.1420   44.0040 H   0  0  0  0  0  0  0  0  0  0  0  0
   40.3330   26.9720   42.8840 C   0  0  0  0  0  0  0  0  0  0  0  0
   38.9830   26.6520   42.7370 C   0  0  0  0  0  0  0  0  0  0  0  0
   38.6030   25.7620   41.7180 C   0  0  0  0  0  0  0  0  0  0  0  0
   39.5940   25.2500   40.9110 N   0  0  0  0  0  0  0  0  0  0  0  0
   40.8850   25.5940   41.0970 C   0  0  0  0  0  0  0  0  0  0  0  0
   41.2760   26.4560   42.0800 N   0  0  0  0  0  0  0  0  0  0  0  0
   40.7240   27.6410   43.6320 H   0  0  0  0  0  0  0  0  0  0  0  0
   37.5580   25.5110   41.6050 H   0  0  0  0  0  0  0  0  0  0  0  0
   41.5310   25.0900   40.3610 H   0  0  0  0  0  0  0  0  0  0  0  0
   37.7850   29.2660   42.1430 C   0  0  0  0  0  0  0  0  0  0  0  0
   38.6590   30.0700   42.2010 O   0  0  0  0  0  0  0  0  0  0  0  0
   37.1000   28.9120   40.9840 O   0  0  0  0  0  0  0  0  0  0  0  0
   36.2750   30.4640   38.9550 O   0  0  0  0  0  0  0  0  0  0  0  0
   35.8860   29.9570   40.3250 P   0  0  0  0  0  0  0  0  0  0  0  0
   34.4020   29.1500   40.2500 O   0  0  0  0  0  0  0  0  0  0  0  0
   33.8560   29.4460   39.4820 H   0  0  0  0  0  0  0  0  0  0  0  0
   35.7440   31.3070   41.3550 O   0  0  0  0  0  0  0  0  0  0  0  0
   36.5070   31.9230   41.2200 H   0  0  0  0  0  0  0  0  0  0  0  0
  1  4  1  1  0  0  0
  2  1  1  0  0  0  0
  2  5  1  1  0  0  0
  3  2  1  0  0  0  0
  3  1  1  0  0  0  0
  3  7  1  0  0  0  0
  6  3  1  0  0  0  0
  8 14  1  0  0  0  0
  9  8  1  0  0  0  0
  9  1  1  0  0  0  0
 10  9  2  0  0  0  0
 11 12  2  0  0  0  0
 11 10  1  0  0  0  0
 12 13  1  0  0  0  0
 13  8  2  0  0  0  0
 15 10  1  0  0  0  0
 16 12  1  0  0  0  0
 17 18  2  0  0  0  0
 17  2  1  0  0  0  0
 19 17  1  0  0  0  0
 20 21  2  0  0  0  0
 21 19  1  0  0  0  0
 21 24  1  0  0  0  0
 22 21  1  0  0  0  0
 23 22  1  0  0  0  0
 25 24  1  0  0  0  0
M  END
>  <minimizedAffinity>
-4.67882681

$$$$

 OpenBabel03242511513D

 25 26  0  0  1  0  0  0  0  0999 V2000
   35.9440   28.0990   40.2330 C   0  0  1  0  0  0  0  0  0  0  0  0
   35.6460   29.4730   39.7590 C   0  0  2  0  0  0  0  0  0  0  0  0
   36.3440   28.5320   38.8620 C   0  0  0  0  0  0  0  0  0  0  0  0
   35.0550   27.4550   40.3780 H   0  0  0  0  0  0  0  0  0  0  0  0
   34.5540   29.6400   39.5240 H   0  0  0  0  0  0  0  0  0  0  0  0
   37.4430   28.6640   38.6840 H   0  0  0  0  0  0  0  0  0  0  0  0
   35.8500   28.1070   37.9670 H   0  0  0  0  0  0  0  0  0  0  0  0
   36.6240   27.8110   42.6010 C   0  0  0  0  0  0  0  0  0  0  0  0
   37.0020   27.8540   41.2580 C   0  0  0  0  0  0  0  0  0  0  0  0
   38.3540   27.6630   40.9260 C   0  0  0  0  0  0  0  0  0  0  0  0
   39.2420   27.4400   41.9550 N   0  0  0  0  0  0  0  0  0  0  0  0
   38.8220   27.4090   43.2370 C   0  0  0  0  0  0  0  0  0  0  0  0
   37.5140   27.5920   43.5810 N   0  0  0  0  0  0  0  0  0  0  0  0
   35.6160   27.9450   42.9550 H   0  0  0  0  0  0  0  0  0  0  0  0
   38.6470   27.6940   39.8870 H   0  0  0  0  0  0  0  0  0  0  0  0
   39.6680   27.2210   43.9170 H   0  0  0  0  0  0  0  0  0  0  0  0
   36.4150   30.5800   40.3390 C   0  0  0  0  0  0  0  0  0  0  0  0
   35.9980   31.0930   41.3280 O   0  0  0  0  0  0  0  0  0  0  0  0
   37.5840   30.9490   39.6810 O   0  0  0  0  0  0  0  0  0  0  0  0
   39.0280   32.6330   41.1930 O   0  0  0  0  0  0  0  0  0  0  0  0
   38.2560   32.5310   39.8980 P   0  0  0  0  0  0  0  0  0  0  0  0
   39.2540   32.9240   38.5900 O   0  0  0  0  0  0  0  0  0  0  0  0
   40.0090   33.5020   38.8600 H   0  0  0  0  0  0  0  0  0  0  0  0
   36.9640   33.6390   39.9770 O   0  0  0  0  0  0  0  0  0  0  0  0
   36.5190   33.5850   40.8600 H   0  0  0  0  0  0  0  0  0  0  0  0
  1  4  1  1  0  0  0
  1  9  1  0  0  0  0
  2  5  1  6  0  0  0
  2  1  1  0  0  0  0
  2 17  1  0  0  0  0
  3  2  1  0  0  0  0
  3  1  1  0  0  0  0
  6  3  1  0  0  0  0
  7  3  1  0  0  0  0
  8 14  1  0  0  0  0
  8 13  1  0  0  0  0
  9  8  2  0  0  0  0
 10  9  1  0  0  0  0
 10 11  2  0  0  0  0
 11 12  1  0  0  0  0
 12 13  2  0  0  0  0
 12 16  1  0  0  0  0
 15 10  1  0  0  0  0
 17 18  2  0  0  0  0
 19 21  1  0  0  0  0
 19 17  1  0  0  0  0
 21 24  1  0  0  0  0
 21 20  2  0  0  0  0
 22 23  1  0  0  0  0
 22 21  1  0  0  0  0
 24 25  1  0  0  0  0
M  END
>  <minimizedAffinity>
-4.53283167

$$$$

 OpenBabel03242511513D

 25 26  0  0  1  0  0  0  0  0999 V2000
   37.2460   28.4730   39.7820 C   0  0  1  0  0  0  0  0  0  0  0  0
   36.8670   29.8730   39.4710 C   0  0  2  0  0  0  0  0  0  0  0  0
   38.1230   29.3240   38.9270 C   0  0  0  0  0  0  0  0  0  0  0  0
   36.5950   27.7040   39.3240 H   0  0  0  0  0  0  0  0  0  0  0  0
   36.0170   29.9560   38.7320 H   0  0  0  0  0  0  0  0  0  0  0  0
   39.0990   29.6440   39.3780 H   0  0  0  0  0  0  0  0  0  0  0  0
   38.2430   29.1080   37.8470 H   0  0  0  0  0  0  0  0  0  0  0  0
   36.7510   27.7380   42.0990 C   0  0  0  0  0  0  0  0  0  0  0  0
   37.7110   28.0900   41.1490 C   0  0  0  0  0  0  0  0  0  0  0  0
   39.0680   28.0660   41.5130 C   0  0  0  0  0  0  0  0  0  0  0  0
   39.3810   27.6920   42.8010 N   0  0  0  0  0  0  0  0  0  0  0  0
   38.4110   27.3620   43.6800 C   0  0  0  0  0  0  0  0  0  0  0  0
   37.0880   27.3790   43.3480 N   0  0  0  0  0  0  0  0  0  0  0  0
   35.6900   27.7250   41.9180 H   0  0  0  0  0  0  0  0  0  0  0  0
   39.8110   28.3360   40.7770 H   0  0  0  0  0  0  0  0  0  0  0  0
   38.8490   27.0930   44.6550 H   0  0  0  0  0  0  0  0  0  0  0  0
   36.9530   30.8630   40.5520 C   0  0  0  0  0  0  0  0  0  0  0  0
   35.9820   31.0560   41.2120 O   0  0  0  0  0  0  0  0  0  0  0  0
   38.1750   31.5060   40.7230 O   0  0  0  0  0  0  0  0  0  0  0  0
   39.4250   33.3200   39.1880 O   0  0  0  0  0  0  0  0  0  0  0  0
   38.3700   33.1640   40.2590 P   0  0  0  0  0  0  0  0  0  0  0  0
   36.8960   33.7970   39.7250 O   0  0  0  0  0  0  0  0  0  0  0  0
   37.0170   34.4770   39.0190 H   0  0  0  0  0  0  0  0  0  0  0  0
   38.8940   34.0310   41.6300 O   0  0  0  0  0  0  0  0  0  0  0  0
   39.8520   33.8500   41.8050 H   0  0  0  0  0  0  0  0  0  0  0  0
  1  4  1  6  0  0  0
  1  9  1  0  0  0  0
  2  5  1  6  0  0  0
  2  1  1  0  0  0  0
  2 17  1  0  0  0  0
  3  6  1  0  0  0  0
  3  2  1  0  0  0  0
  3  1  1  0  0  0  0
  7  3  1  0  0  0  0
  8 13  1  0  0  0  0
  9 10  1  0  0  0  0
  9  8  2  0  0  0  0
 10 11  2  0  0  0  0
 11 12  1  0  0  0  0
 12 16  1  0  0  0  0
 13 12  2  0  0  0  0
 14  8  1  0  0  0  0
 15 10  1  0  0  0  0
 17 19  1  0  0  0  0
 17 18  2  0  0  0  0
 20 21  2  0  0  0  0
 21 19  1  0  0  0  0
 21 24  1  0  0  0  0
 22 21  1  0  0  0  0
 23 22  1  0  0  0  0
 24 25  1  0  0  0  0
M  END
>  <minimizedAffinity>
-4.51681995

$$$$

 OpenBabel03242511513D

 25 26  0  0  1  0  0  0  0  0999 V2000
   38.6970   27.9420   42.9200 C   0  0  1  0  0  0  0  0  0  0  0  0
   38.3630   29.3860   42.9860 C   0  0  2  0  0  0  0  0  0  0  0  0
   37.5010   28.4110   43.6790 C   0  0  0  0  0  0  0  0  0  0  0  0
   39.6220   27.6550   43.4560 H   0  0  0  0  0  0  0  0  0  0  0  0
   39.0550   29.9780   43.6540 H   0  0  0  0  0  0  0  0  0  0  0  0
   36.5020   28.1570   43.2390 H   0  0  0  0  0  0  0  0  0  0  0  0
   37.4710   28.3450   44.7840 H   0  0  0  0  0  0  0  0  0  0  0  0
   37.3900   26.3280   41.5630 C   0  0  0  0  0  0  0  0  0  0  0  0
   38.5020   27.1670   41.6580 C   0  0  0  0  0  0  0  0  0  0  0  0
   39.3850   27.2510   40.5680 C   0  0  0  0  0  0  0  0  0  0  0  0
   39.1020   26.4940   39.4540 N   0  0  0  0  0  0  0  0  0  0  0  0
   38.0130   25.6990   39.4160 C   0  0  0  0  0  0  0  0  0  0  0  0
   37.1430   25.6020   40.4620 N   0  0  0  0  0  0  0  0  0  0  0  0
   36.6580   26.1960   42.3410 H   0  0  0  0  0  0  0  0  0  0  0  0
   40.2440   27.9020   40.6400 H   0  0  0  0  0  0  0  0  0  0  0  0
   37.9510   25.1720   38.4500 H   0  0  0  0  0  0  0  0  0  0  0  0
   37.8480   30.0270   41.7690 C   0  0  0  0  0  0  0  0  0  0  0  0
   36.6980   29.8780   41.5020 O   0  0  0  0  0  0  0  0  0  0  0  0
   38.7530   30.7680   41.0160 O   0  0  0  0  0  0  0  0  0  0  0  0
   38.7670   32.5110   38.9740 O   0  0  0  0  0  0  0  0  0  0  0  0
   38.3200   32.3310   40.4060 P   0  0  0  0  0  0  0  0  0  0  0  0
   36.6500   32.5620   40.5310 O   0  0  0  0  0  0  0  0  0  0  0  0
   36.2970   33.1260   39.8000 H   0  0  0  0  0  0  0  0  0  0  0  0
   39.1250   33.5000   41.3490 O   0  0  0  0  0  0  0  0  0  0  0  0
   40.0820   33.5430   41.0990 H   0  0  0  0  0  0  0  0  0  0  0  0
  1  2  1  0  0  0  0
  1  4  1  1  0  0  0
  1  3  1  0  0  0  0
  2  5  1  1  0  0  0
  2  3  1  0  0  0  0
  3  7  1  0  0  0  0
  6  3  1  0  0  0  0
  8  9  1  0  0  0  0
  8 14  1  0  0  0  0
  9  1  1  0  0  0  0
 10 15  1  0  0  0  0
 10  9  2  0  0  0  0
 11 10  1  0  0  0  0
 12 11  2  0  0  0  0
 12 13  1  0  0  0  0
 13  8  2  0  0  0  0
 16 12  1  0  0  0  0
 17  2  1  0  0  0  0
 18 17  2  0  0  0  0
 19 17  1  0  0  0  0
 20 21  2  0  0  0  0
 21 22  1  0  0  0  0
 21 19  1  0  0  0  0
 21 24  1  0  0  0  0
 23 22  1  0  0  0  0
 25 24  1  0  0  0  0
M  END
>  <minimizedAffinity>
-4.42347479

$$$$

 OpenBabel03242511513D

 25 26  0  0  1  0  0  0  0  0999 V2000
   38.2380   30.6450   37.3540 C   0  0  1  0  0  0  0  0  0  0  0  0
   38.0210   29.2230   37.7140 C   0  0  2  0  0  0  0  0  0  0  0  0
   36.9050   30.0070   37.1510 C   0  0  0  0  0  0  0  0  0  0  0  0
   38.9170   30.8090   36.4960 H   0  0  0  0  0  0  0  0  0  0  0  0
   38.5090   28.4980   36.9980 H   0  0  0  0  0  0  0  0  0  0  0  0
   36.0810   30.3470   37.8310 H   0  0  0  0  0  0  0  0  0  0  0  0
   36.5180   29.8170   36.1310 H   0  0  0  0  0  0  0  0  0  0  0  0
   37.2670   32.4230   38.7860 C   0  0  0  0  0  0  0  0  0  0  0  0
   38.3930   31.6880   38.4130 C   0  0  0  0  0  0  0  0  0  0  0  0
   39.6190   31.9540   39.0470 C   0  0  0  0  0  0  0  0  0  0  0  0
   39.6420   32.9350   40.0120 N   0  0  0  0  0  0  0  0  0  0  0  0
   38.5220   33.6160   40.3340 C   0  0  0  0  0  0  0  0  0  0  0  0
   37.3230   33.3750   39.7310 N   0  0  0  0  0  0  0  0  0  0  0  0
   36.2860   32.2950   38.3610 H   0  0  0  0  0  0  0  0  0  0  0  0
   40.4900   31.3830   38.7610 H   0  0  0  0  0  0  0  0  0  0  0  0
   38.7330   34.3580   41.1210 H   0  0  0  0  0  0  0  0  0  0  0  0
   37.9750   28.8740   39.1390 C   0  0  0  0  0  0  0  0  0  0  0  0
   38.9600   28.4310   39.6390 O   0  0  0  0  0  0  0  0  0  0  0  0
   36.7720   29.0910   39.8030 O   0  0  0  0  0  0  0  0  0  0  0  0
   38.1140   30.3370   41.7660 O   0  0  0  0  0  0  0  0  0  0  0  0
   36.7530   29.8050   41.3820 P   0  0  0  0  0  0  0  0  0  0  0  0
   35.6020   31.0420   41.4470 O   0  0  0  0  0  0  0  0  0  0  0  0
   35.8730   31.7690   42.0580 H   0  0  0  0  0  0  0  0  0  0  0  0
   36.3390   28.5880   42.5000 O   0  0  0  0  0  0  0  0  0  0  0  0
   37.1120   27.9890   42.6570 H   0  0  0  0  0  0  0  0  0  0  0  0
  1  4  1  6  0  0  0
  1  2  1  0  0  0  0
  1  9  1  0  0  0  0
  2  5  1  6  0  0  0
  2 17  1  0  0  0  0
  3  1  1  0  0  0  0
  3  2  1  0  0  0  0
  3  6  1  0  0  0  0
  7  3  1  0  0  0  0
  8 13  1  0  0  0  0
  9  8  2  0  0  0  0
  9 10  1  0  0  0  0
 10 11  2  0  0  0  0
 11 12  1  0  0  0  0
 12 16  1  0  0  0  0
 13 12  2  0  0  0  0
 14  8  1  0  0  0  0
 15 10  1  0  0  0  0
 17 18  2  0  0  0  0
 17 19  1  0  0  0  0
 19 21  1  0  0  0  0
 21 22  1  0  0  0  0
 21 20  2  0  0  0  0
 21 24  1  0  0  0  0
 22 23  1  0  0  0  0
 24 25  1  0  0  0  0
M  END
>  <minimizedAffinity>
-4.35691309

$$$$

 OpenBabel03242511513D

 25 26  0  0  1  0  0  0  0  0999 V2000
   36.3100   30.4350   40.1370 C   0  0  1  0  0  0  0  0  0  0  0  0
   36.9930   31.6480   39.6230 C   0  0  2  0  0  0  0  0  0  0  0  0
   36.5640   30.6020   38.6760 C   0  0  0  0  0  0  0  0  0  0  0  0
   35.2990   30.6120   40.5520 H   0  0  0  0  0  0  0  0  0  0  0  0
   36.3440   32.5730   39.6460 H   0  0  0  0  0  0  0  0  0  0  0  0
   37.3360   29.9260   38.2250 H   0  0  0  0  0  0  0  0  0  0  0  0
   35.7260   30.7650   37.9710 H   0  0  0  0  0  0  0  0  0  0  0  0
   37.2650   29.5830   42.2620 C   0  0  0  0  0  0  0  0  0  0  0  0
   37.0650   29.3930   40.8940 C   0  0  0  0  0  0  0  0  0  0  0  0
   37.5760   28.2320   40.2880 C   0  0  0  0  0  0  0  0  0  0  0  0
   38.2530   27.3360   41.0850 N   0  0  0  0  0  0  0  0  0  0  0  0
   38.4170   27.5710   42.4040 C   0  0  0  0  0  0  0  0  0  0  0  0
   37.9300   28.6910   43.0120 N   0  0  0  0  0  0  0  0  0  0  0  0
   36.9130   30.4370   42.8160 H   0  0  0  0  0  0  0  0  0  0  0  0
   37.4200   28.0820   39.2290 H   0  0  0  0  0  0  0  0  0  0  0  0
   38.9810   26.7500   42.8750 H   0  0  0  0  0  0  0  0  0  0  0  0
   38.4280   31.7940   39.8950 C   0  0  0  0  0  0  0  0  0  0  0  0
   38.7570   32.4440   40.8350 O   0  0  0  0  0  0  0  0  0  0  0  0
   39.3030   31.1540   39.0220 O   0  0  0  0  0  0  0  0  0  0  0  0
   41.5000   31.3810   37.4960 O   0  0  0  0  0  0  0  0  0  0  0  0
   40.1970   32.0620   37.8480 P   0  0  0  0  0  0  0  0  0  0  0  0
   39.2640   32.2920   36.4570 O   0  0  0  0  0  0  0  0  0  0  0  0
   39.8170   32.3180   35.6390 H   0  0  0  0  0  0  0  0  0  0  0  0
   40.5730   33.5750   38.5340 O   0  0  0  0  0  0  0  0  0  0  0  0
   41.3100   33.4820   39.1890 H   0  0  0  0  0  0  0  0  0  0  0  0
  1  4  1  1  0  0  0
  1  9  1  0  0  0  0
  2  5  1  1  0  0  0
  2 17  1  0  0  0  0
  2  1  1  0  0  0  0
  3  2  1  0  0  0  0
  3  1  1  0  0  0  0
  6  3  1  0  0  0  0
  7  3  1  0  0  0  0
  8 14  1  0  0  0  0
  8 13  1  0  0  0  0
  9  8  2  0  0  0  0
 10  9  1  0  0  0  0
 10 11  2  0  0  0  0
 11 12  1  0  0  0  0
 12 16  1  0  0  0  0
 12 13  2  0  0  0  0
 15 10  1  0  0  0  0
 17 18  2  0  0  0  0
 19 17  1  0  0  0  0
 20 21  2  0  0  0  0
 21 24  1  0  0  0  0
 21 19  1  0  0  0  0
 22 21  1  0  0  0  0
 23 22  1  0  0  0  0
 24 25  1  0  0  0  0
M  END
>  <minimizedAffinity>
-4.35259628

$$$$

 OpenBabel03242511513D

 25 26  0  0  1  0  0  0  0  0999 V2000
   37.0390   29.4500   38.2070 C   0  0  1  0  0  0  0  0  0  0  0  0
   36.1190   28.4040   38.7160 C   0  0  2  0  0  0  0  0  0  0  0  0
   35.5830   29.5000   37.8870 C   0  0  0  0  0  0  0  0  0  0  0  0
   37.7660   29.1010   37.4490 H   0  0  0  0  0  0  0  0  0  0  0  0
   36.2310   27.4110   38.1870 H   0  0  0  0  0  0  0  0  0  0  0  0
   34.9930   30.3160   38.3800 H   0  0  0  0  0  0  0  0  0  0  0  0
   35.2240   29.3250   36.8540 H   0  0  0  0  0  0  0  0  0  0  0  0
   36.9440   31.6860   39.2760 C   0  0  0  0  0  0  0  0  0  0  0  0
   37.6190   30.4740   39.1260 C   0  0  0  0  0  0  0  0  0  0  0  0
   38.8080   30.2650   39.8460 C   0  0  0  0  0  0  0  0  0  0  0  0
   39.2460   31.2790   40.6690 N   0  0  0  0  0  0  0  0  0  0  0  0
   38.5540   32.4320   40.7760 C   0  0  0  0  0  0  0  0  0  0  0  0
   37.3980   32.6560   40.0860 N   0  0  0  0  0  0  0  0  0  0  0  0
   36.0280   31.9410   38.7700 H   0  0  0  0  0  0  0  0  0  0  0  0
   39.3300   29.3270   39.7330 H   0  0  0  0  0  0  0  0  0  0  0  0
   39.0540   33.1210   41.4740 H   0  0  0  0  0  0  0  0  0  0  0  0
   35.8090   28.4010   40.1510 C   0  0  0  0  0  0  0  0  0  0  0  0
   34.8830   29.0480   40.5240 O   0  0  0  0  0  0  0  0  0  0  0  0
   36.6310   27.6350   40.9720 O   0  0  0  0  0  0  0  0  0  0  0  0
   38.4910   27.7880   42.9020 O   0  0  0  0  0  0  0  0  0  0  0  0
   37.0820   28.2050   42.5440 P   0  0  0  0  0  0  0  0  0  0  0  0
   36.9350   29.8880   42.6180 O   0  0  0  0  0  0  0  0  0  0  0  0
   37.6060   30.2940   43.2190 H   0  0  0  0  0  0  0  0  0  0  0  0
   36.0290   27.4950   43.6790 O   0  0  0  0  0  0  0  0  0  0  0  0
   36.2740   26.5470   43.8290 H   0  0  0  0  0  0  0  0  0  0  0  0
  1  4  1  6  0  0  0
  1  2  1  0  0  0  0
  1  9  1  0  0  0  0
  2  5  1  6  0  0  0
  2 17  1  0  0  0  0
  3  1  1  0  0  0  0
  3  6  1  0  0  0  0
  3  2  1  0  0  0  0
  7  3  1  0  0  0  0
  8 13  1  0  0  0  0
  9  8  2  0  0  0  0
  9 10  1  0  0  0  0
 10 11  2  0  0  0  0
 11 12  1  0  0  0  0
 12 16  1  0  0  0  0
 13 12  2  0  0  0  0
 14  8  1  0  0  0  0
 15 10  1  0  0  0  0
 17 18  2  0  0  0  0
 17 19  1  0  0  0  0
 19 21  1  0  0  0  0
 21 22  1  0  0  0  0
 21 20  2  0  0  0  0
 21 24  1  0  0  0  0
 22 23  1  0  0  0  0
 24 25  1  0  0  0  0
M  END
>  <minimizedAffinity>
-4.30528545

$$$$

 OpenBabel03242511513D

 25 26  0  0  1  0  0  0  0  0999 V2000
   36.7090   26.7220   39.8970 C   0  0  1  0  0  0  0  0  0  0  0  0
   35.8120   27.4980   39.0050 C   0  0  2  0  0  0  0  0  0  0  0  0
   37.1500   27.1030   38.5240 C   0  0  0  0  0  0  0  0  0  0  0  0
   36.3720   25.6900   40.1100 H   0  0  0  0  0  0  0  0  0  0  0  0
   34.9540   26.8900   38.5920 H   0  0  0  0  0  0  0  0  0  0  0  0
   37.9560   27.8800   38.4570 H   0  0  0  0  0  0  0  0  0  0  0  0
   37.2810   26.3340   37.7380 H   0  0  0  0  0  0  0  0  0  0  0  0
   36.5690   27.6720   42.1850 C   0  0  0  0  0  0  0  0  0  0  0  0
   37.3600   27.3670   41.0770 C   0  0  0  0  0  0  0  0  0  0  0  0
   38.7320   27.6730   41.1160 C   0  0  0  0  0  0  0  0  0  0  0  0
   39.2250   28.2620   42.2590 N   0  0  0  0  0  0  0  0  0  0  0  0
   38.4130   28.5360   43.3020 C   0  0  0  0  0  0  0  0  0  0  0  0
   37.0800   28.2480   43.2840 N   0  0  0  0  0  0  0  0  0  0  0  0
   35.5120   27.4770   42.2520 H   0  0  0  0  0  0  0  0  0  0  0  0
   39.3460   27.4350   40.2600 H   0  0  0  0  0  0  0  0  0  0  0  0
   38.9810   29.0050   44.1210 H   0  0  0  0  0  0  0  0  0  0  0  0
   35.5780   28.9110   39.3270 C   0  0  0  0  0  0  0  0  0  0  0  0
   34.5070   29.2200   39.7410 O   0  0  0  0  0  0  0  0  0  0  0  0
   36.6390   29.7880   39.1200 O   0  0  0  0  0  0  0  0  0  0  0  0
   36.8350   32.4500   39.4070 O   0  0  0  0  0  0  0  0  0  0  0  0
   36.8750   31.1460   40.1700 P   0  0  0  0  0  0  0  0  0  0  0  0
   35.7070   31.1480   41.3920 O   0  0  0  0  0  0  0  0  0  0  0  0
   35.4620   32.0630   41.6720 H   0  0  0  0  0  0  0  0  0  0  0  0
   38.4230   31.0030   40.8670 O   0  0  0  0  0  0  0  0  0  0  0  0
   39.1200   31.2480   40.2080 H   0  0  0  0  0  0  0  0  0  0  0  0
  1  4  1  1  0  0  0
  1  9  1  0  0  0  0
  2  5  1  6  0  0  0
  2 17  1  0  0  0  0
  2  1  1  0  0  0  0
  3  2  1  0  0  0  0
  3  1  1  0  0  0  0
  6  3  1  0  0  0  0
  7  3  1  0  0  0  0
  8 14  1  0  0  0  0
  8 13  1  0  0  0  0
  9 10  1  0  0  0  0
  9  8  2  0  0  0  0
 10 11  2  0  0  0  0
 11 12  1  0  0  0  0
 12 16  1  0  0  0  0
 13 12  2  0  0  0  0
 15 10  1  0  0  0  0
 17 18  2  0  0  0  0
 19 17  1  0  0  0  0
 19 21  1  0  0  0  0
 20 21  2  0  0  0  0
 21 24  1  0  0  0  0
 21 22  1  0  0  0  0
 22 23  1  0  0  0  0
 25 24  1  0  0  0  0
M  END
>  <minimizedAffinity>
-4.25323105

$$$$
