
 OpenBabel03242521443D

 36 37  0  0  1  0  0  0  0  0999 V2000
   45.1940   34.3820   45.0640 C   0  0  0  0  0  0  0  0  0  0  0  0
   46.1060   33.9230   44.0970 C   0  0  0  0  0  0  0  0  0  0  0  0
   47.0990   33.0110   44.4690 C   0  0  0  0  0  0  0  0  0  0  0  0
   47.1220   32.6220   45.7430 N   0  0  0  0  0  0  0  0  0  0  0  0
   46.2380   33.0710   46.6610 C   0  0  0  0  0  0  0  0  0  0  0  0
   45.2690   33.9540   46.3280 N   0  0  0  0  0  0  0  0  0  0  0  0
   45.9840   34.3130   43.0950 H   0  0  0  0  0  0  0  0  0  0  0  0
   46.3170   32.7110   47.6800 H   0  0  0  0  0  0  0  0  0  0  0  0
   48.6380   33.6670   42.6310 C   0  0  2  0  0  0  0  0  0  0  0  0
   48.0040   32.5780   43.4230 C   0  0  2  0  0  0  0  0  0  0  0  0
   47.3870   31.8150   42.3870 O   0  0  0  0  0  0  0  0  0  0  0  0
   48.4150   31.6470   41.4820 C   0  0  0  0  0  0  0  0  0  0  0  0
   49.3790   32.7910   41.6010 C   0  0  1  0  0  0  0  0  0  0  0  0
   47.8870   34.2200   41.9970 H   0  0  0  0  0  0  0  0  0  0  0  0
   48.8210   31.9500   43.8770 H   0  0  0  0  0  0  0  0  0  0  0  0
   48.9430   30.6920   41.6750 H   0  0  0  0  0  0  0  0  0  0  0  0
   48.0170   31.6330   40.4560 H   0  0  0  0  0  0  0  0  0  0  0  0
   50.3420   32.5150   42.0450 H   0  0  0  0  0  0  0  0  0  0  0  0
   49.4530   34.4980   43.3360 O   0  0  0  0  0  0  0  0  0  0  0  0
   49.2100   35.4550   43.2530 H   0  0  0  0  0  0  0  0  0  0  0  0
   49.5250   33.5210   40.4230 O   0  0  0  0  0  0  0  0  0  0  0  0
   50.0150   34.3460   40.6660 H   0  0  0  0  0  0  0  0  0  0  0  0
   44.1430   35.3720   44.6370 C   0  0  0  0  0  0  0  0  0  0  0  0
   43.3930   35.4210   45.4370 H   0  0  0  0  0  0  0  0  0  0  0  0
   43.7200   35.0660   43.6770 H   0  0  0  0  0  0  0  0  0  0  0  0
   44.9570   37.4640   43.3870 C   0  0  0  0  0  0  0  0  0  0  0  0
   44.4310   37.0200   42.3280 O   0  0  0  0  0  0  0  0  0  0  0  0
   44.8190   36.6600   44.5520 N   0  0  0  0  0  0  0  0  0  0  0  0
   45.2510   37.0420   45.4430 H   0  0  0  0  0  0  0  0  0  0  0  0
   45.6420   38.6720   43.4370 O   0  0  0  0  0  0  0  0  0  0  0  0
   44.8460   38.8470   45.9760 O   0  0  0  0  0  0  0  0  0  0  0  0
   45.4900   39.6610   44.8510 P   0  0  0  0  0  0  0  0  0  0  0  0
   44.6030   41.0390   44.5030 O   0  0  0  0  0  0  0  0  0  0  0  0
   43.9180   41.1290   45.2310 H   0  0  0  0  0  0  0  0  0  0  0  0
   47.0500   40.0190   45.3740 O   0  0  0  0  0  0  0  0  0  0  0  0
   47.3760   39.3700   46.0730 H   0  0  0  0  0  0  0  0  0  0  0  0
  1  6  1  0  0  0  0
  2  3  1  0  0  0  0
  2  1  2  0  0  0  0
  3  4  2  0  0  0  0
  4  5  1  0  0  0  0
  5  8  1  0  0  0  0
  6  5  2  0  0  0  0
  7  2  1  0  0  0  0
  9 14  1  6  0  0  0
  9 19  1  0  0  0  0
  9 10  1  0  0  0  0
 10 15  1  1  0  0  0
 10  3  1  0  0  0  0
 11 10  1  0  0  0  0
 12 13  1  0  0  0  0
 12 16  1  0  0  0  0
 12 11  1  0  0  0  0
 13 18  1  1  0  0  0
 13  9  1  0  0  0  0
 17 12  1  0  0  0  0
 20 19  1  0  0  0  0
 21 22  1  0  0  0  0
 21 13  1  0  0  0  0
 23  1  1  0  0  0  0
 23 24  1  0  0  0  0
 25 23  1  0  0  0  0
 26 30  1  0  0  0  0
 26 28  1  0  0  0  0
 27 26  2  0  0  0  0
 28 23  1  0  0  0  0
 28 29  1  0  0  0  0
 30 32  1  0  0  0  0
 32 35  1  0  0  0  0
 32 31  2  0  0  0  0
 33 32  1  0  0  0  0
 33 34  1  0  0  0  0
 35 36  1  0  0  0  0
M  END
>  <minimizedAffinity>
-3.48604751

>  <minimizedRMSD>
1.75363672

$$$$
