
 OpenBabel03252508483D

 43 44  0  0  0  0  0  0  0  0999 V2000
   38.3270   29.8000   39.6150 C   0  0  0  0  0  0  0  0  0  0  0  0
   37.4180   29.7020   39.0160 H   0  0  0  0  0  0  0  0  0  0  0  0
   39.1040   29.1310   39.1560 H   0  0  0  0  0  0  0  0  0  0  0  0
   36.8800   28.4310   41.1350 C   0  0  0  0  0  0  0  0  0  0  0  0
   38.0090   29.2220   40.9580 C   0  0  0  0  0  0  0  0  0  0  0  0
   38.8150   29.4530   42.0450 C   0  0  0  0  0  0  0  0  0  0  0  0
   38.5090   28.9180   43.2620 C   0  0  0  0  0  0  0  0  0  0  0  0
   37.4030   28.1360   43.4590 C   0  0  0  0  0  0  0  0  0  0  0  0
   36.6150   27.9230   42.3440 C   0  0  0  0  0  0  0  0  0  0  0  0
   39.6950   30.0810   41.8660 H   0  0  0  0  0  0  0  0  0  0  0  0
   39.2170   29.1670   44.0450 H   0  0  0  0  0  0  0  0  0  0  0  0
   37.1900   27.7260   44.4380 H   0  0  0  0  0  0  0  0  0  0  0  0
   35.7260   27.3110   42.4430 H   0  0  0  0  0  0  0  0  0  0  0  0
   35.3550   27.0320   37.9580 C   0  0  0  0  0  0  0  0  0  0  0  0
   36.2070   27.1440   39.0720 C   0  0  0  0  0  0  0  0  0  0  0  0
   36.0560   28.2140   39.9510 C   0  0  0  0  0  0  0  0  0  0  0  0
   35.0690   29.1120   39.6740 N   0  0  0  0  0  0  0  0  0  0  0  0
   34.2490   28.9920   38.5900 C   0  0  0  0  0  0  0  0  0  0  0  0
   34.4140   27.9460   37.7510 N   0  0  0  0  0  0  0  0  0  0  0  0
   35.5380   26.1790   37.3310 H   0  0  0  0  0  0  0  0  0  0  0  0
   36.9840   26.4330   39.2840 H   0  0  0  0  0  0  0  0  0  0  0  0
   33.4850   29.7330   38.4230 H   0  0  0  0  0  0  0  0  0  0  0  0
   38.8810   31.1290   39.6630 N   0  0  0  0  0  0  0  0  0  0  0  0
   39.5220   31.2090   38.8430 H   0  0  0  0  0  0  0  0  0  0  0  0
   37.6950   32.3380   39.3990 S   0  0  0  0  0  0  0  0  0  0  0  0
   36.4490   32.0430   40.1880 O   0  0  0  0  0  0  0  0  0  0  0  0
   36.2100   32.5790   41.0020 H   0  0  0  0  0  0  0  0  0  0  0  0
   37.3810   32.4450   37.9460 O   0  0  0  0  0  0  0  0  0  0  0  0
   38.0990   32.5590   37.2710 H   0  0  0  0  0  0  0  0  0  0  0  0
   38.3390   33.7910   39.9160 O   0  0  0  0  0  0  0  0  0  0  0  0
   39.5770   33.5570   40.4600 C   0  0  0  0  0  0  0  0  0  0  0  0
   39.7610   32.4450   40.4980 H   0  0  0  0  0  0  0  0  0  0  0  0
   39.7640   33.9650   41.4520 H   0  0  0  0  0  0  0  0  0  0  0  0
   40.6590   34.0480   39.4710 C   0  0  0  0  0  0  0  0  0  0  0  0
   41.3200   34.7740   39.9670 H   0  0  0  0  0  0  0  0  0  0  0  0
   40.1720   34.4660   38.5660 H   0  0  0  0  0  0  0  0  0  0  0  0
   41.4240   32.9250   39.1650 O   0  0  0  0  0  0  0  0  0  0  0  0
   42.4110   31.4990   37.2150 O   0  0  0  0  0  0  0  0  0  0  0  0
   41.5840   32.7230   37.4910 P   0  0  0  0  0  0  0  0  0  0  0  0
   40.0470   32.4720   36.7870 O   0  0  0  0  0  0  0  0  0  0  0  0
   40.2130   32.2510   35.8350 H   0  0  0  0  0  0  0  0  0  0  0  0
   42.2550   34.0870   36.7520 O   0  0  0  0  0  0  0  0  0  0  0  0
   41.5310   34.6760   36.3960 H   0  0  0  0  0  0  0  0  0  0  0  0
  1 23  1  0  0  0  0
  1  5  1  0  0  0  0
  2  1  1  0  0  0  0
  3  1  1  0  0  0  0
  4  9  1  0  0  0  0
  5  4  2  0  0  0  0
  5  6  1  0  0  0  0
  6  7  2  0  0  0  0
  7  8  1  0  0  0  0
  7 11  1  0  0  0  0
  8 12  1  0  0  0  0
  9 13  1  0  0  0  0
  9  8  2  0  0  0  0
 10  6  1  0  0  0  0
 14 15  1  0  0  0  0
 15 21  1  0  0  0  0
 15 16  2  0  0  0  0
 16  4  1  0  0  0  0
 17 16  1  0  0  0  0
 18 17  2  0  0  0  0
 19 14  2  0  0  0  0
 19 18  1  0  0  0  0
 20 14  1  0  0  0  0
 22 18  1  0  0  0  0
 24 23  1  0  0  0  0
 25 23  1  0  0  0  0
 25 30  1  0  0  0  0
 25 26  1  0  0  0  0
 26 27  1  0  0  0  0
 28 25  1  0  0  0  0
 29 28  1  0  0  0  0
 30 31  1  0  0  0  0
 31 32  1  0  0  0  0
 31 33  1  0  0  0  0
 34 35  1  0  0  0  0
 34 31  1  0  0  0  0
 36 34  1  0  0  0  0
 37 34  1  0  0  0  0
 38 39  2  0  0  0  0
 39 37  1  0  0  0  0
 40 39  1  0  0  0  0
 41 40  1  0  0  0  0
 42 39  1  0  0  0  0
 43 42  1  0  0  0  0
M  END
>  <minimizedAffinity>
-5.97064161

$$$$

 OpenBabel03252508483D

 43 44  0  0  0  0  0  0  0  0999 V2000
   37.2270   30.3250   40.4090 C   0  0  0  0  0  0  0  0  0  0  0  0
   38.2920   30.3570   40.1670 H   0  0  0  0  0  0  0  0  0  0  0  0
   37.1370   30.0190   41.4870 H   0  0  0  0  0  0  0  0  0  0  0  0
   36.7770   27.8910   40.0220 C   0  0  0  0  0  0  0  0  0  0  0  0
   36.6460   29.2090   39.6010 C   0  0  0  0  0  0  0  0  0  0  0  0
   35.9710   29.4490   38.4300 C   0  0  0  0  0  0  0  0  0  0  0  0
   35.4470   28.4190   37.7060 C   0  0  0  0  0  0  0  0  0  0  0  0
   35.5650   27.1130   38.1030 C   0  0  0  0  0  0  0  0  0  0  0  0
   36.2480   26.9070   39.2850 C   0  0  0  0  0  0  0  0  0  0  0  0
   35.8880   30.5000   38.1300 H   0  0  0  0  0  0  0  0  0  0  0  0
   34.9370   28.7290   36.8010 H   0  0  0  0  0  0  0  0  0  0  0  0
   35.1370   26.3190   37.5050 H   0  0  0  0  0  0  0  0  0  0  0  0
   36.3720   25.8930   39.6470 H   0  0  0  0  0  0  0  0  0  0  0  0
   37.7060   27.4840   43.6760 C   0  0  0  0  0  0  0  0  0  0  0  0
   36.9110   27.6920   42.5350 C   0  0  0  0  0  0  0  0  0  0  0  0
   37.5010   27.6870   41.2730 C   0  0  0  0  0  0  0  0  0  0  0  0
   38.8460   27.4750   41.2160 N   0  0  0  0  0  0  0  0  0  0  0  0
   39.6070   27.2750   42.3320 C   0  0  0  0  0  0  0  0  0  0  0  0
   39.0130   27.2840   43.5450 N   0  0  0  0  0  0  0  0  0  0  0  0
   37.1740   27.5030   44.6100 H   0  0  0  0  0  0  0  0  0  0  0  0
   35.8500   27.8590   42.5860 H   0  0  0  0  0  0  0  0  0  0  0  0
   40.6660   27.1120   42.2240 H   0  0  0  0  0  0  0  0  0  0  0  0
   36.5340   31.5790   40.2620 N   0  0  0  0  0  0  0  0  0  0  0  0
   36.3500   31.9290   41.2300 H   0  0  0  0  0  0  0  0  0  0  0  0
   37.5210   32.7880   39.5520 S   0  0  0  0  0  0  0  0  0  0  0  0
   37.0040   34.1610   39.8850 O   0  0  0  0  0  0  0  0  0  0  0  0
   37.4820   34.7500   40.5430 H   0  0  0  0  0  0  0  0  0  0  0  0
   37.5870   32.5990   38.0740 O   0  0  0  0  0  0  0  0  0  0  0  0
   37.8320   31.7240   37.6780 H   0  0  0  0  0  0  0  0  0  0  0  0
   39.0590   32.6130   40.1830 O   0  0  0  0  0  0  0  0  0  0  0  0
   39.7940   33.7290   39.8710 C   0  0  0  0  0  0  0  0  0  0  0  0
   39.8730   34.3870   40.7840 H   0  0  0  0  0  0  0  0  0  0  0  0
   39.4360   34.3390   39.0440 H   0  0  0  0  0  0  0  0  0  0  0  0
   41.2610   33.3080   39.6260 C   0  0  0  0  0  0  0  0  0  0  0  0
   41.7600   33.1090   40.5860 H   0  0  0  0  0  0  0  0  0  0  0  0
   41.7770   34.0920   39.0340 H   0  0  0  0  0  0  0  0  0  0  0  0
   41.1950   32.1050   38.9280 O   0  0  0  0  0  0  0  0  0  0  0  0
   42.1350   31.2120   36.6640 O   0  0  0  0  0  0  0  0  0  0  0  0
   41.3520   32.3470   37.2590 P   0  0  0  0  0  0  0  0  0  0  0  0
   39.8080   32.3440   36.5260 O   0  0  0  0  0  0  0  0  0  0  0  0
   39.9680   32.3780   35.5480 H   0  0  0  0  0  0  0  0  0  0  0  0
   42.0720   33.8330   36.9030 O   0  0  0  0  0  0  0  0  0  0  0  0
   41.3700   34.5200   36.7200 H   0  0  0  0  0  0  0  0  0  0  0  0
  1  3  1  0  0  0  0
  2  1  1  0  0  0  0
  4 16  1  0  0  0  0
  5  4  1  0  0  0  0
  5  1  1  0  0  0  0
  6  5  2  0  0  0  0
  7  8  2  0  0  0  0
  7  6  1  0  0  0  0
  8  9  1  0  0  0  0
  9 13  1  0  0  0  0
  9  4  2  0  0  0  0
 10  6  1  0  0  0  0
 11  7  1  0  0  0  0
 12  8  1  0  0  0  0
 14 20  1  0  0  0  0
 15 21  1  0  0  0  0
 15 14  2  0  0  0  0
 16 15  1  0  0  0  0
 17 16  2  0  0  0  0
 17 18  1  0  0  0  0
 18 19  2  0  0  0  0
 19 14  1  0  0  0  0
 22 18  1  0  0  0  0
 23  1  1  0  0  0  0
 23 24  1  0  0  0  0
 25 26  1  0  0  0  0
 25 30  1  0  0  0  0
 25 23  1  0  0  0  0
 26 27  1  0  0  0  0
 28 25  1  0  0  0  0
 29 28  1  0  0  0  0
 31 30  1  0  0  0  0
 31 32  1  0  0  0  0
 33 31  1  0  0  0  0
 34 31  1  0  0  0  0
 34 35  1  0  0  0  0
 36 34  1  0  0  0  0
 37 34  1  0  0  0  0
 38 39  2  0  0  0  0
 39 37  1  0  0  0  0
 40 39  1  0  0  0  0
 41 40  1  0  0  0  0
 42 39  1  0  0  0  0
 43 42  1  0  0  0  0
M  END
>  <minimizedAffinity>
-5.86469793

$$$$

 OpenBabel03252508483D

 43 44  0  0  0  0  0  0  0  0999 V2000
   37.7360   30.2190   38.6820 C   0  0  0  0  0  0  0  0  0  0  0  0
   38.6430   29.7170   38.3360 H   0  0  0  0  0  0  0  0  0  0  0  0
   37.7110   30.1320   39.8020 H   0  0  0  0  0  0  0  0  0  0  0  0
   36.0840   28.3500   38.9080 C   0  0  0  0  0  0  0  0  0  0  0  0
   36.5870   29.4120   38.1670 C   0  0  0  0  0  0  0  0  0  0  0  0
   36.0000   29.6940   36.9590 C   0  0  0  0  0  0  0  0  0  0  0  0
   34.9520   28.9470   36.5050 C   0  0  0  0  0  0  0  0  0  0  0  0
   34.4410   27.8960   37.2180 C   0  0  0  0  0  0  0  0  0  0  0  0
   35.0540   27.6410   38.4300 C   0  0  0  0  0  0  0  0  0  0  0  0
   36.4240   30.5380   36.4030 H   0  0  0  0  0  0  0  0  0  0  0  0
   34.5700   29.2610   35.5400 H   0  0  0  0  0  0  0  0  0  0  0  0
   33.6080   27.3240   36.8300 H   0  0  0  0  0  0  0  0  0  0  0  0
   34.6900   26.8200   39.0370 H   0  0  0  0  0  0  0  0  0  0  0  0
   38.2470   26.9210   41.6750 C   0  0  0  0  0  0  0  0  0  0  0  0
   37.6760   27.0810   40.4000 C   0  0  0  0  0  0  0  0  0  0  0  0
   36.7400   28.0910   40.1850 C   0  0  0  0  0  0  0  0  0  0  0  0
   36.4270   28.8840   41.2480 N   0  0  0  0  0  0  0  0  0  0  0  0
   36.9880   28.7180   42.4810 C   0  0  0  0  0  0  0  0  0  0  0  0
   37.8930   27.7310   42.6660 N   0  0  0  0  0  0  0  0  0  0  0  0
   38.9590   26.1190   41.7560 H   0  0  0  0  0  0  0  0  0  0  0  0
   37.9270   26.4520   39.5650 H   0  0  0  0  0  0  0  0  0  0  0  0
   36.7010   29.3760   43.2840 H   0  0  0  0  0  0  0  0  0  0  0  0
   37.6600   31.6210   38.3610 N   0  0  0  0  0  0  0  0  0  0  0  0
   36.7620   31.7560   37.8450 H   0  0  0  0  0  0  0  0  0  0  0  0
   37.5010   32.6010   39.7590 S   0  0  0  0  0  0  0  0  0  0  0  0
   36.5530   31.9740   40.7440 O   0  0  0  0  0  0  0  0  0  0  0  0
   36.8880   31.5520   41.5900 H   0  0  0  0  0  0  0  0  0  0  0  0
   37.0360   33.9670   39.3820 O   0  0  0  0  0  0  0  0  0  0  0  0
   37.5000   34.4940   38.6820 H   0  0  0  0  0  0  0  0  0  0  0  0
   39.0150   32.7260   40.4570 O   0  0  0  0  0  0  0  0  0  0  0  0
   39.4220   34.0350   40.3990 C   0  0  0  0  0  0  0  0  0  0  0  0
   39.9410   34.3040   41.3640 H   0  0  0  0  0  0  0  0  0  0  0  0
   38.6520   34.7810   40.2100 H   0  0  0  0  0  0  0  0  0  0  0  0
   40.5550   34.1610   39.3560 C   0  0  0  0  0  0  0  0  0  0  0  0
   41.3960   34.7290   39.7810 H   0  0  0  0  0  0  0  0  0  0  0  0
   40.1550   34.6230   38.4300 H   0  0  0  0  0  0  0  0  0  0  0  0
   40.9990   32.8620   39.1260 O   0  0  0  0  0  0  0  0  0  0  0  0
   42.1060   31.3220   37.3330 O   0  0  0  0  0  0  0  0  0  0  0  0
   41.3370   32.6040   37.4860 P   0  0  0  0  0  0  0  0  0  0  0  0
   39.8780   32.4330   36.6130 O   0  0  0  0  0  0  0  0  0  0  0  0
   40.1370   32.1770   35.6910 H   0  0  0  0  0  0  0  0  0  0  0  0
   42.1790   33.9010   36.8050 O   0  0  0  0  0  0  0  0  0  0  0  0
   41.5420   34.5250   36.3550 H   0  0  0  0  0  0  0  0  0  0  0  0
  1  3  1  0  0  0  0
  2  1  1  0  0  0  0
  4 16  1  0  0  0  0
  5  1  1  0  0  0  0
  5  4  2  0  0  0  0
  6  5  1  0  0  0  0
  7  6  2  0  0  0  0
  7  8  1  0  0  0  0
  8  9  2  0  0  0  0
  9  4  1  0  0  0  0
  9 13  1  0  0  0  0
 10  6  1  0  0  0  0
 11  7  1  0  0  0  0
 12  8  1  0  0  0  0
 14 20  1  0  0  0  0
 14 19  1  0  0  0  0
 15 14  2  0  0  0  0
 16 15  1  0  0  0  0
 16 17  2  0  0  0  0
 17 18  1  0  0  0  0
 18 19  2  0  0  0  0
 18 22  1  0  0  0  0
 21 15  1  0  0  0  0
 23  1  1  0  0  0  0
 23 25  1  0  0  0  0
 24 23  1  0  0  0  0
 25 30  1  0  0  0  0
 25 26  1  0  0  0  0
 26 27  1  0  0  0  0
 28 25  1  0  0  0  0
 29 28  1  0  0  0  0
 31 30  1  0  0  0  0
 31 32  1  0  0  0  0
 33 31  1  0  0  0  0
 34 35  1  0  0  0  0
 34 31  1  0  0  0  0
 36 34  1  0  0  0  0
 37 34  1  0  0  0  0
 38 39  2  0  0  0  0
 39 37  1  0  0  0  0
 40 39  1  0  0  0  0
 41 40  1  0  0  0  0
 42 39  1  0  0  0  0
 43 42  1  0  0  0  0
M  END
>  <minimizedAffinity>
-5.74852657

$$$$

 OpenBabel03252508483D

 43 44  0  0  0  0  0  0  0  0999 V2000
   35.3250   29.5730   40.4930 C   0  0  0  0  0  0  0  0  0  0  0  0
   34.2650   29.3400   40.6250 H   0  0  0  0  0  0  0  0  0  0  0  0
   35.5110   29.6680   39.3880 H   0  0  0  0  0  0  0  0  0  0  0  0
   36.5590   27.4440   40.0250 C   0  0  0  0  0  0  0  0  0  0  0  0
   36.0800   28.3650   40.9480 C   0  0  0  0  0  0  0  0  0  0  0  0
   36.3200   28.1320   42.2790 C   0  0  0  0  0  0  0  0  0  0  0  0
   37.0100   27.0240   42.6770 C   0  0  0  0  0  0  0  0  0  0  0  0
   37.4920   26.1040   41.7850 C   0  0  0  0  0  0  0  0  0  0  0  0
   37.2340   26.3700   40.4540 C   0  0  0  0  0  0  0  0  0  0  0  0
   35.9260   28.8800   42.9770 H   0  0  0  0  0  0  0  0  0  0  0  0
   37.1390   26.9460   43.7510 H   0  0  0  0  0  0  0  0  0  0  0  0
   38.0370   25.2360   42.1340 H   0  0  0  0  0  0  0  0  0  0  0  0
   37.5920   25.6750   39.7040 H   0  0  0  0  0  0  0  0  0  0  0  0
   34.9350   27.7280   36.6100 C   0  0  0  0  0  0  0  0  0  0  0  0
   35.0980   27.3970   37.9680 C   0  0  0  0  0  0  0  0  0  0  0  0
   36.2800   27.7360   38.6230 C   0  0  0  0  0  0  0  0  0  0  0  0
   37.2310   28.3850   37.8940 N   0  0  0  0  0  0  0  0  0  0  0  0
   37.0600   28.7000   36.5770 C   0  0  0  0  0  0  0  0  0  0  0  0
   35.9050   28.3610   35.9620 N   0  0  0  0  0  0  0  0  0  0  0  0
   33.9950   27.4310   36.1810 H   0  0  0  0  0  0  0  0  0  0  0  0
   34.3440   26.8850   38.5380 H   0  0  0  0  0  0  0  0  0  0  0  0
   37.8480   29.2140   36.0520 H   0  0  0  0  0  0  0  0  0  0  0  0
   35.7570   30.8020   41.1060 N   0  0  0  0  0  0  0  0  0  0  0  0
   36.2170   30.5360   42.0060 H   0  0  0  0  0  0  0  0  0  0  0  0
   36.9940   31.5790   40.2070 S   0  0  0  0  0  0  0  0  0  0  0  0
   36.9350   33.0690   40.4000 O   0  0  0  0  0  0  0  0  0  0  0  0
   37.6190   33.5480   40.9570 H   0  0  0  0  0  0  0  0  0  0  0  0
   36.8760   31.2330   38.7620 O   0  0  0  0  0  0  0  0  0  0  0  0
   36.8170   30.2890   38.4610 H   0  0  0  0  0  0  0  0  0  0  0  0
   38.4580   31.0090   40.7760 O   0  0  0  0  0  0  0  0  0  0  0  0
   39.2240   32.0760   41.1730 C   0  0  0  0  0  0  0  0  0  0  0  0
   39.6980   31.8420   42.1700 H   0  0  0  0  0  0  0  0  0  0  0  0
   38.7210   33.0380   41.2560 H   0  0  0  0  0  0  0  0  0  0  0  0
   40.4450   32.1930   40.2340 C   0  0  0  0  0  0  0  0  0  0  0  0
   40.7710   31.1920   39.9150 H   0  0  0  0  0  0  0  0  0  0  0  0
   41.2510   32.7600   40.7430 H   0  0  0  0  0  0  0  0  0  0  0  0
   39.9860   32.8650   39.1040 O   0  0  0  0  0  0  0  0  0  0  0  0
   41.4860   31.9600   37.1700 O   0  0  0  0  0  0  0  0  0  0  0  0
   40.0900   31.8930   37.7210 P   0  0  0  0  0  0  0  0  0  0  0  0
   39.7800   30.2630   38.1330 O   0  0  0  0  0  0  0  0  0  0  0  0
   39.9630   29.7320   37.3150 H   0  0  0  0  0  0  0  0  0  0  0  0
   38.9550   32.3370   36.5510 O   0  0  0  0  0  0  0  0  0  0  0  0
   38.1390   31.7660   36.6300 H   0  0  0  0  0  0  0  0  0  0  0  0
  1  2  1  0  0  0  0
  1  5  1  0  0  0  0
  1 23  1  0  0  0  0
  3  1  1  0  0  0  0
  4  9  2  0  0  0  0
  4  5  1  0  0  0  0
  5  6  2  0  0  0  0
  6  7  1  0  0  0  0
  6 10  1  0  0  0  0
  7 11  1  0  0  0  0
  8 12  1  0  0  0  0
  8  7  2  0  0  0  0
  9  8  1  0  0  0  0
 13  9  1  0  0  0  0
 14 15  1  0  0  0  0
 15 21  1  0  0  0  0
 15 16  2  0  0  0  0
 16  4  1  0  0  0  0
 17 16  1  0  0  0  0
 18 17  2  0  0  0  0
 19 18  1  0  0  0  0
 19 14  2  0  0  0  0
 20 14  1  0  0  0  0
 22 18  1  0  0  0  0
 23 24  1  0  0  0  0
 25 26  1  0  0  0  0
 25 30  1  0  0  0  0
 25 23  1  0  0  0  0
 26 27  1  0  0  0  0
 28 25  1  0  0  0  0
 29 28  1  0  0  0  0
 30 31  1  0  0  0  0
 31 33  1  0  0  0  0
 31 32  1  0  0  0  0
 34 36  1  0  0  0  0
 34 31  1  0  0  0  0
 35 34  1  0  0  0  0
 37 34  1  0  0  0  0
 38 39  2  0  0  0  0
 39 40  1  0  0  0  0
 39 37  1  0  0  0  0
 41 40  1  0  0  0  0
 42 43  1  0  0  0  0
 42 39  1  0  0  0  0
M  END
>  <minimizedAffinity>
-5.73253965

$$$$

 OpenBabel03252508483D

 43 44  0  0  0  0  0  0  0  0999 V2000
   37.4470   29.2570   37.4880 C   0  0  0  0  0  0  0  0  0  0  0  0
   37.8680   28.2540   37.3790 H   0  0  0  0  0  0  0  0  0  0  0  0
   37.6280   29.5820   38.5490 H   0  0  0  0  0  0  0  0  0  0  0  0
   35.1390   29.1130   38.4510 C   0  0  0  0  0  0  0  0  0  0  0  0
   35.9670   29.1110   37.3350 C   0  0  0  0  0  0  0  0  0  0  0  0
   35.3860   28.9710   36.0990 C   0  0  0  0  0  0  0  0  0  0  0  0
   34.0340   28.8390   35.9780 C   0  0  0  0  0  0  0  0  0  0  0  0
   33.1990   28.8390   37.0640 C   0  0  0  0  0  0  0  0  0  0  0  0
   33.8170   28.9820   38.2910 C   0  0  0  0  0  0  0  0  0  0  0  0
   36.0710   28.9740   35.2430 H   0  0  0  0  0  0  0  0  0  0  0  0
   33.6890   28.7360   34.9550 H   0  0  0  0  0  0  0  0  0  0  0  0
   32.1300   28.7320   36.9330 H   0  0  0  0  0  0  0  0  0  0  0  0
   33.2040   28.9890   39.1860 H   0  0  0  0  0  0  0  0  0  0  0  0
   36.7690   28.4710   41.8140 C   0  0  0  0  0  0  0  0  0  0  0  0
   36.1280   28.2090   40.5900 C   0  0  0  0  0  0  0  0  0  0  0  0
   35.8030   29.2650   39.7410 C   0  0  0  0  0  0  0  0  0  0  0  0
   36.1330   30.5200   40.1570 N   0  0  0  0  0  0  0  0  0  0  0  0
   36.7550   30.7620   41.3470 C   0  0  0  0  0  0  0  0  0  0  0  0
   37.0600   29.7210   42.1540 N   0  0  0  0  0  0  0  0  0  0  0  0
   36.9840   27.6020   42.4090 H   0  0  0  0  0  0  0  0  0  0  0  0
   35.8700   27.2170   40.2670 H   0  0  0  0  0  0  0  0  0  0  0  0
   36.9920   31.7760   41.6220 H   0  0  0  0  0  0  0  0  0  0  0  0
   38.0310   30.2560   36.6300 N   0  0  0  0  0  0  0  0  0  0  0  0
   37.2560   30.6150   36.0280 H   0  0  0  0  0  0  0  0  0  0  0  0
   38.5660   31.6320   37.5030 S   0  0  0  0  0  0  0  0  0  0  0  0
   37.3980   32.4740   37.9380 O   0  0  0  0  0  0  0  0  0  0  0  0
   37.1050   32.5000   38.8970 H   0  0  0  0  0  0  0  0  0  0  0  0
   39.5100   32.4350   36.6740 O   0  0  0  0  0  0  0  0  0  0  0  0
   40.2960   32.0160   36.2380 H   0  0  0  0  0  0  0  0  0  0  0  0
   39.3780   31.0800   38.8560 O   0  0  0  0  0  0  0  0  0  0  0  0
   40.2730   32.0410   39.2570 C   0  0  0  0  0  0  0  0  0  0  0  0
   40.0640   32.3150   40.3310 H   0  0  0  0  0  0  0  0  0  0  0  0
   40.3030   32.9590   38.6730 H   0  0  0  0  0  0  0  0  0  0  0  0
   41.6820   31.4110   39.3320 C   0  0  0  0  0  0  0  0  0  0  0  0
   41.8090   30.6740   38.5250 H   0  0  0  0  0  0  0  0  0  0  0  0
   41.8370   30.9710   40.3380 H   0  0  0  0  0  0  0  0  0  0  0  0
   42.5720   32.4550   39.0910 O   0  0  0  0  0  0  0  0  0  0  0  0
   44.4230   32.5970   37.2570 O   0  0  0  0  0  0  0  0  0  0  0  0
   42.9320   32.5920   37.4410 P   0  0  0  0  0  0  0  0  0  0  0  0
   42.3170   31.2380   36.5990 O   0  0  0  0  0  0  0  0  0  0  0  0
   42.6500   31.3180   35.6690 H   0  0  0  0  0  0  0  0  0  0  0  0
   42.2320   33.9680   36.7550 O   0  0  0  0  0  0  0  0  0  0  0  0
   41.3610   33.7330   36.3270 H   0  0  0  0  0  0  0  0  0  0  0  0
  1  3  1  0  0  0  0
  2  1  1  0  0  0  0
  4 16  1  0  0  0  0
  5  1  1  0  0  0  0
  5  4  2  0  0  0  0
  6  5  1  0  0  0  0
  7  6  2  0  0  0  0
  7  8  1  0  0  0  0
  8  9  2  0  0  0  0
  9  4  1  0  0  0  0
  9 13  1  0  0  0  0
 10  6  1  0  0  0  0
 11  7  1  0  0  0  0
 12  8  1  0  0  0  0
 14 19  1  0  0  0  0
 14 20  1  0  0  0  0
 15 14  2  0  0  0  0
 16 17  2  0  0  0  0
 16 15  1  0  0  0  0
 17 18  1  0  0  0  0
 18 22  1  0  0  0  0
 18 19  2  0  0  0  0
 21 15  1  0  0  0  0
 23  1  1  0  0  0  0
 23 25  1  0  0  0  0
 24 23  1  0  0  0  0
 25 26  1  0  0  0  0
 25 30  1  0  0  0  0
 26 27  1  0  0  0  0
 28 25  1  0  0  0  0
 29 28  1  0  0  0  0
 30 31  1  0  0  0  0
 31 34  1  0  0  0  0
 31 32  1  0  0  0  0
 33 31  1  0  0  0  0
 34 36  1  0  0  0  0
 35 34  1  0  0  0  0
 37 34  1  0  0  0  0
 38 39  2  0  0  0  0
 39 37  1  0  0  0  0
 40 39  1  0  0  0  0
 41 40  1  0  0  0  0
 42 39  1  0  0  0  0
 43 42  1  0  0  0  0
M  END
>  <minimizedAffinity>
-5.4748354

$$$$

 OpenBabel03252508483D

 43 44  0  0  0  0  0  0  0  0999 V2000
   37.8220   28.3840   43.1470 C   0  0  0  0  0  0  0  0  0  0  0  0
   38.7160   28.9470   42.8650 H   0  0  0  0  0  0  0  0  0  0  0  0
   37.8060   28.3230   44.2700 H   0  0  0  0  0  0  0  0  0  0  0  0
   39.2910   26.5610   42.2560 C   0  0  0  0  0  0  0  0  0  0  0  0
   38.0290   26.9890   42.6480 C   0  0  0  0  0  0  0  0  0  0  0  0
   36.9880   26.0990   42.5650 C   0  0  0  0  0  0  0  0  0  0  0  0
   37.1950   24.8300   42.1070 C   0  0  0  0  0  0  0  0  0  0  0  0
   38.4300   24.3870   41.7160 C   0  0  0  0  0  0  0  0  0  0  0  0
   39.4550   25.3090   41.8140 C   0  0  0  0  0  0  0  0  0  0  0  0
   36.0080   26.4720   42.8830 H   0  0  0  0  0  0  0  0  0  0  0  0
   36.3010   24.2170   42.0850 H   0  0  0  0  0  0  0  0  0  0  0  0
   38.5600   23.3740   41.3580 H   0  0  0  0  0  0  0  0  0  0  0  0
   40.4540   25.0120   41.5170 H   0  0  0  0  0  0  0  0  0  0  0  0
   42.2900   28.5770   43.4060 C   0  0  0  0  0  0  0  0  0  0  0  0
   41.2940   27.5830   43.4010 C   0  0  0  0  0  0  0  0  0  0  0  0
   40.3650   27.5440   42.3650 C   0  0  0  0  0  0  0  0  0  0  0  0
   40.4760   28.4930   41.3930 N   0  0  0  0  0  0  0  0  0  0  0  0
   41.4470   29.4520   41.4100 C   0  0  0  0  0  0  0  0  0  0  0  0
   42.3380   29.4710   42.4250 N   0  0  0  0  0  0  0  0  0  0  0  0
   42.9670   28.5370   44.2410 H   0  0  0  0  0  0  0  0  0  0  0  0
   41.2120   26.8380   44.1710 H   0  0  0  0  0  0  0  0  0  0  0  0
   41.4850   30.1760   40.6130 H   0  0  0  0  0  0  0  0  0  0  0  0
   36.5770   28.9780   42.7340 N   0  0  0  0  0  0  0  0  0  0  0  0
   36.2930   29.6300   43.5000 H   0  0  0  0  0  0  0  0  0  0  0  0
   36.7620   29.9870   41.3600 S   0  0  0  0  0  0  0  0  0  0  0  0
   38.1360   30.5980   41.3290 O   0  0  0  0  0  0  0  0  0  0  0  0
   38.8270   30.2860   40.6720 H   0  0  0  0  0  0  0  0  0  0  0  0
   35.7170   31.0510   41.3570 O   0  0  0  0  0  0  0  0  0  0  0  0
   34.7550   30.8290   41.4540 H   0  0  0  0  0  0  0  0  0  0  0  0
   36.5550   29.0310   40.0050 O   0  0  0  0  0  0  0  0  0  0  0  0
   36.0990   29.8150   38.9760 C   0  0  0  0  0  0  0  0  0  0  0  0
   36.2730   30.9000   39.2320 H   0  0  0  0  0  0  0  0  0  0  0  0
   35.0540   29.6980   38.6940 H   0  0  0  0  0  0  0  0  0  0  0  0
   37.0100   29.6050   37.7450 C   0  0  0  0  0  0  0  0  0  0  0  0
   36.4680   29.0440   36.9680 H   0  0  0  0  0  0  0  0  0  0  0  0
   37.9460   29.0990   38.0590 H   0  0  0  0  0  0  0  0  0  0  0  0
   37.2630   30.8790   37.2440 O   0  0  0  0  0  0  0  0  0  0  0  0
   38.2770   32.5280   38.9940 O   0  0  0  0  0  0  0  0  0  0  0  0
   38.6630   31.5450   37.9250 P   0  0  0  0  0  0  0  0  0  0  0  0
   39.5870   30.3150   38.6700 O   0  0  0  0  0  0  0  0  0  0  0  0
   40.3280   30.7750   39.1420 H   0  0  0  0  0  0  0  0  0  0  0  0
   39.6460   32.2730   36.7600 O   0  0  0  0  0  0  0  0  0  0  0  0
   40.3540   31.6350   36.4600 H   0  0  0  0  0  0  0  0  0  0  0  0
  1  3  1  0  0  0  0
  2  1  1  0  0  0  0
  4 16  1  0  0  0  0
  4  5  1  0  0  0  0
  5  1  1  0  0  0  0
  6  5  2  0  0  0  0
  6 10  1  0  0  0  0
  7  6  1  0  0  0  0
  8  9  1  0  0  0  0
  8  7  2  0  0  0  0
  9  4  2  0  0  0  0
 11  7  1  0  0  0  0
 12  8  1  0  0  0  0
 13  9  1  0  0  0  0
 14 20  1  0  0  0  0
 15 14  1  0  0  0  0
 15 21  1  0  0  0  0
 16 15  2  0  0  0  0
 17 18  2  0  0  0  0
 17 16  1  0  0  0  0
 18 19  1  0  0  0  0
 19 14  2  0  0  0  0
 22 18  1  0  0  0  0
 23  1  1  0  0  0  0
 23 24  1  0  0  0  0
 25 23  1  0  0  0  0
 26 25  1  0  0  0  0
 27 26  1  0  0  0  0
 28 25  1  0  0  0  0
 28 29  1  0  0  0  0
 30 25  1  0  0  0  0
 31 32  1  0  0  0  0
 31 30  1  0  0  0  0
 33 31  1  0  0  0  0
 34 36  1  0  0  0  0
 34 31  1  0  0  0  0
 35 34  1  0  0  0  0
 37 34  1  0  0  0  0
 37 39  1  0  0  0  0
 39 40  1  0  0  0  0
 39 38  2  0  0  0  0
 40 41  1  0  0  0  0
 42 39  1  0  0  0  0
 43 42  1  0  0  0  0
M  END
>  <minimizedAffinity>
-5.46397495

$$$$

 OpenBabel03252508483D

 43 44  0  0  0  0  0  0  0  0999 V2000
   37.0620   27.7220   42.2810 C   0  0  0  0  0  0  0  0  0  0  0  0
   36.3940   27.4670   43.1080 H   0  0  0  0  0  0  0  0  0  0  0  0
   36.6100   27.3000   41.3430 H   0  0  0  0  0  0  0  0  0  0  0  0
   38.6290   25.8360   41.7680 C   0  0  0  0  0  0  0  0  0  0  0  0
   38.3310   26.9660   42.5190 C   0  0  0  0  0  0  0  0  0  0  0  0
   39.2310   27.3620   43.4760 C   0  0  0  0  0  0  0  0  0  0  0  0
   40.3830   26.6600   43.6790 C   0  0  0  0  0  0  0  0  0  0  0  0
   40.6970   25.5440   42.9500 C   0  0  0  0  0  0  0  0  0  0  0  0
   39.7700   25.1740   41.9950 C   0  0  0  0  0  0  0  0  0  0  0  0
   38.9620   28.2570   44.0480 H   0  0  0  0  0  0  0  0  0  0  0  0
   41.0160   27.0670   44.4600 H   0  0  0  0  0  0  0  0  0  0  0  0
   41.6200   25.0110   43.1360 H   0  0  0  0  0  0  0  0  0  0  0  0
   39.9670   24.2980   41.3890 H   0  0  0  0  0  0  0  0  0  0  0  0
   35.8710   24.0870   39.8400 C   0  0  0  0  0  0  0  0  0  0  0  0
   36.7860   24.3610   40.8720 C   0  0  0  0  0  0  0  0  0  0  0  0
   37.6420   25.4550   40.7620 C   0  0  0  0  0  0  0  0  0  0  0  0
   37.5400   26.2130   39.6340 N   0  0  0  0  0  0  0  0  0  0  0  0
   36.6480   25.9360   38.6390 C   0  0  0  0  0  0  0  0  0  0  0  0
   35.8280   24.8690   38.7680 N   0  0  0  0  0  0  0  0  0  0  0  0
   35.2490   23.2260   40.0030 H   0  0  0  0  0  0  0  0  0  0  0  0
   36.8620   23.7590   41.7590 H   0  0  0  0  0  0  0  0  0  0  0  0
   36.6130   26.5720   37.7710 H   0  0  0  0  0  0  0  0  0  0  0  0
   37.2510   29.1340   42.0680 N   0  0  0  0  0  0  0  0  0  0  0  0
   38.1790   29.2390   41.6000 H   0  0  0  0  0  0  0  0  0  0  0  0
   36.1290   29.7770   40.9420 S   0  0  0  0  0  0  0  0  0  0  0  0
   35.7830   31.1990   41.2880 O   0  0  0  0  0  0  0  0  0  0  0  0
   36.1310   31.9660   40.7430 H   0  0  0  0  0  0  0  0  0  0  0  0
   34.8990   28.9350   40.9000 O   0  0  0  0  0  0  0  0  0  0  0  0
   34.9510   27.9540   40.7630 H   0  0  0  0  0  0  0  0  0  0  0  0
   36.8540   29.7400   39.4370 O   0  0  0  0  0  0  0  0  0  0  0  0
   36.4770   30.8580   38.7370 C   0  0  0  0  0  0  0  0  0  0  0  0
   35.8290   31.5060   39.3950 H   0  0  0  0  0  0  0  0  0  0  0  0
   35.9510   30.6960   37.7970 H   0  0  0  0  0  0  0  0  0  0  0  0
   37.7210   31.7450   38.5040 C   0  0  0  0  0  0  0  0  0  0  0  0
   37.7000   32.1620   37.4860 H   0  0  0  0  0  0  0  0  0  0  0  0
   38.6390   31.1550   38.7020 H   0  0  0  0  0  0  0  0  0  0  0  0
   37.5960   32.8070   39.3950 O   0  0  0  0  0  0  0  0  0  0  0  0
   39.1920   31.6050   41.0740 O   0  0  0  0  0  0  0  0  0  0  0  0
   38.9490   32.9290   40.4070 P   0  0  0  0  0  0  0  0  0  0  0  0
   40.3360   33.2950   39.4770 O   0  0  0  0  0  0  0  0  0  0  0  0
   41.1060   33.2450   40.1000 H   0  0  0  0  0  0  0  0  0  0  0  0
   38.7740   34.1610   41.5490 O   0  0  0  0  0  0  0  0  0  0  0  0
   39.2090   34.9980   41.2220 H   0  0  0  0  0  0  0  0  0  0  0  0
  1  5  1  0  0  0  0
  1  2  1  0  0  0  0
  3  1  1  0  0  0  0
  4  9  2  0  0  0  0
  4  5  1  0  0  0  0
  5  6  2  0  0  0  0
  6  7  1  0  0  0  0
  6 10  1  0  0  0  0
  7 11  1  0  0  0  0
  8 12  1  0  0  0  0
  8  7  2  0  0  0  0
  9  8  1  0  0  0  0
 13  9  1  0  0  0  0
 14 20  1  0  0  0  0
 14 15  1  0  0  0  0
 15 21  1  0  0  0  0
 16 15  2  0  0  0  0
 16  4  1  0  0  0  0
 17 16  1  0  0  0  0
 18 19  1  0  0  0  0
 18 17  2  0  0  0  0
 19 14  2  0  0  0  0
 22 18  1  0  0  0  0
 23  1  1  0  0  0  0
 24 23  1  0  0  0  0
 25 26  1  0  0  0  0
 25 23  1  0  0  0  0
 27 26  1  0  0  0  0
 28 25  1  0  0  0  0
 29 28  1  0  0  0  0
 30 25  1  0  0  0  0
 31 32  1  0  0  0  0
 31 30  1  0  0  0  0
 33 31  1  0  0  0  0
 34 36  1  0  0  0  0
 34 31  1  0  0  0  0
 34 37  1  0  0  0  0
 35 34  1  0  0  0  0
 37 39  1  0  0  0  0
 39 38  2  0  0  0  0
 39 42  1  0  0  0  0
 40 41  1  0  0  0  0
 40 39  1  0  0  0  0
 43 42  1  0  0  0  0
M  END
>  <minimizedAffinity>
-5.46123314

$$$$

 OpenBabel03252508483D

 43 44  0  0  0  0  0  0  0  0999 V2000
   37.9180   28.0730   40.3880 C   0  0  0  0  0  0  0  0  0  0  0  0
   38.6230   28.0190   39.5540 H   0  0  0  0  0  0  0  0  0  0  0  0
   38.5010   28.3770   41.3000 H   0  0  0  0  0  0  0  0  0  0  0  0
   37.0990   25.8530   39.5660 C   0  0  0  0  0  0  0  0  0  0  0  0
   37.4480   26.6750   40.6310 C   0  0  0  0  0  0  0  0  0  0  0  0
   37.3480   26.1640   41.9010 C   0  0  0  0  0  0  0  0  0  0  0  0
   36.9170   24.8860   42.1040 C   0  0  0  0  0  0  0  0  0  0  0  0
   36.5680   24.0590   41.0700 C   0  0  0  0  0  0  0  0  0  0  0  0
   36.6810   24.6040   39.8050 C   0  0  0  0  0  0  0  0  0  0  0  0
   37.6320   26.8410   42.7150 H   0  0  0  0  0  0  0  0  0  0  0  0
   36.8790   24.5930   43.1470 H   0  0  0  0  0  0  0  0  0  0  0  0
   36.2300   23.0500   41.2650 H   0  0  0  0  0  0  0  0  0  0  0  0
   36.4180   23.9940   38.9490 H   0  0  0  0  0  0  0  0  0  0  0  0
   38.3970   27.0250   36.2010 C   0  0  0  0  0  0  0  0  0  0  0  0
   38.3900   26.4280   37.4750 C   0  0  0  0  0  0  0  0  0  0  0  0
   37.2230   26.4400   38.2360 C   0  0  0  0  0  0  0  0  0  0  0  0
   36.1310   27.0450   37.6890 N   0  0  0  0  0  0  0  0  0  0  0  0
   36.1510   27.6220   36.4520 C   0  0  0  0  0  0  0  0  0  0  0  0
   37.2940   27.5970   35.7320 N   0  0  0  0  0  0  0  0  0  0  0  0
   39.3360   26.9720   35.6800 H   0  0  0  0  0  0  0  0  0  0  0  0
   39.2550   25.9520   37.9000 H   0  0  0  0  0  0  0  0  0  0  0  0
   35.2560   28.0850   36.0720 H   0  0  0  0  0  0  0  0  0  0  0  0
   36.8550   29.0300   40.2210 N   0  0  0  0  0  0  0  0  0  0  0  0
   35.9620   28.5020   40.3430 H   0  0  0  0  0  0  0  0  0  0  0  0
   36.8320   30.2020   41.4730 S   0  0  0  0  0  0  0  0  0  0  0  0
   36.8750   29.5390   42.8230 O   0  0  0  0  0  0  0  0  0  0  0  0
   37.7040   29.5640   43.3870 H   0  0  0  0  0  0  0  0  0  0  0  0
   35.6220   31.0640   41.3520 O   0  0  0  0  0  0  0  0  0  0  0  0
   35.3940   31.5150   40.4980 H   0  0  0  0  0  0  0  0  0  0  0  0
   38.1900   31.1580   41.2880 O   0  0  0  0  0  0  0  0  0  0  0  0
   37.8450   32.2850   40.5840 C   0  0  0  0  0  0  0  0  0  0  0  0
   37.8310   33.1690   41.2850 H   0  0  0  0  0  0  0  0  0  0  0  0
   36.8960   32.2600   40.0520 H   0  0  0  0  0  0  0  0  0  0  0  0
   38.9930   32.6380   39.6110 C   0  0  0  0  0  0  0  0  0  0  0  0
   39.7370   33.2670   40.1210 H   0  0  0  0  0  0  0  0  0  0  0  0
   38.5740   33.1230   38.7060 H   0  0  0  0  0  0  0  0  0  0  0  0
   39.6070   31.4270   39.3020 O   0  0  0  0  0  0  0  0  0  0  0  0
   37.8610   30.4010   37.6550 O   0  0  0  0  0  0  0  0  0  0  0  0
   39.2610   30.9450   37.7150 P   0  0  0  0  0  0  0  0  0  0  0  0
   39.3300   32.2960   36.6710 O   0  0  0  0  0  0  0  0  0  0  0  0
   39.0140   31.9770   35.7870 H   0  0  0  0  0  0  0  0  0  0  0  0
   40.3760   29.8120   37.1430 O   0  0  0  0  0  0  0  0  0  0  0  0
   41.0930   30.2700   36.6200 H   0  0  0  0  0  0  0  0  0  0  0  0
  1  5  1  0  0  0  0
  1  3  1  0  0  0  0
  2  1  1  0  0  0  0
  4  9  2  0  0  0  0
  4  5  1  0  0  0  0
  5  6  2  0  0  0  0
  6  7  1  0  0  0  0
  6 10  1  0  0  0  0
  7 11  1  0  0  0  0
  8 12  1  0  0  0  0
  8  7  2  0  0  0  0
  9  8  1  0  0  0  0
 13  9  1  0  0  0  0
 14 15  1  0  0  0  0
 15 21  1  0  0  0  0
 15 16  2  0  0  0  0
 16  4  1  0  0  0  0
 17 16  1  0  0  0  0
 18 17  2  0  0  0  0
 19 14  2  0  0  0  0
 19 18  1  0  0  0  0
 20 14  1  0  0  0  0
 22 18  1  0  0  0  0
 23 24  1  0  0  0  0
 23  1  1  0  0  0  0
 23 25  1  0  0  0  0
 25 26  1  0  0  0  0
 26 27  1  0  0  0  0
 28 25  1  0  0  0  0
 29 28  1  0  0  0  0
 30 25  1  0  0  0  0
 31 32  1  0  0  0  0
 31 30  1  0  0  0  0
 33 31  1  0  0  0  0
 34 35  1  0  0  0  0
 34 31  1  0  0  0  0
 36 34  1  0  0  0  0
 37 34  1  0  0  0  0
 38 39  2  0  0  0  0
 39 37  1  0  0  0  0
 40 39  1  0  0  0  0
 41 40  1  0  0  0  0
 42 39  1  0  0  0  0
 43 42  1  0  0  0  0
M  END
>  <minimizedAffinity>
-5.44308138

$$$$

 OpenBabel03252508483D

 43 44  0  0  0  0  0  0  0  0999 V2000
   37.6800   27.6200   40.2310 C   0  0  0  0  0  0  0  0  0  0  0  0
   37.9500   26.9000   39.4540 H   0  0  0  0  0  0  0  0  0  0  0  0
   38.0310   28.6310   39.8860 H   0  0  0  0  0  0  0  0  0  0  0  0
   38.7160   25.9420   41.7740 C   0  0  0  0  0  0  0  0  0  0  0  0
   38.5010   27.2710   41.4310 C   0  0  0  0  0  0  0  0  0  0  0  0
   39.0620   28.2420   42.2210 C   0  0  0  0  0  0  0  0  0  0  0  0
   39.8080   27.9050   43.3120 C   0  0  0  0  0  0  0  0  0  0  0  0
   40.0330   26.6020   43.6690 C   0  0  0  0  0  0  0  0  0  0  0  0
   39.4550   25.6500   42.8520 C   0  0  0  0  0  0  0  0  0  0  0  0
   38.8710   29.2780   41.9180 H   0  0  0  0  0  0  0  0  0  0  0  0
   40.2010   28.7550   43.8590 H   0  0  0  0  0  0  0  0  0  0  0  0
   40.6300   26.3690   44.5410 H   0  0  0  0  0  0  0  0  0  0  0  0
   39.6000   24.6020   43.0880 H   0  0  0  0  0  0  0  0  0  0  0  0
   38.0730   23.3270   39.1040 C   0  0  0  0  0  0  0  0  0  0  0  0
   38.7670   24.2700   39.8850 C   0  0  0  0  0  0  0  0  0  0  0  0
   38.1000   24.9460   40.9040 C   0  0  0  0  0  0  0  0  0  0  0  0
   36.7830   24.6480   41.0890 N   0  0  0  0  0  0  0  0  0  0  0  0
   36.1210   23.7310   40.3240 C   0  0  0  0  0  0  0  0  0  0  0  0
   36.7890   23.0880   39.3410 N   0  0  0  0  0  0  0  0  0  0  0  0
   38.6610   22.8510   38.3400 H   0  0  0  0  0  0  0  0  0  0  0  0
   39.8060   24.5000   39.7340 H   0  0  0  0  0  0  0  0  0  0  0  0
   35.0790   23.5380   40.5180 H   0  0  0  0  0  0  0  0  0  0  0  0
   36.2680   27.7260   40.4950 N   0  0  0  0  0  0  0  0  0  0  0  0
   36.1350   27.4540   41.4950 H   0  0  0  0  0  0  0  0  0  0  0  0
   35.7100   29.3460   40.4140 S   0  0  0  0  0  0  0  0  0  0  0  0
   35.8870   30.0360   41.7380 O   0  0  0  0  0  0  0  0  0  0  0  0
   36.6000   30.7300   41.8700 H   0  0  0  0  0  0  0  0  0  0  0  0
   34.2800   29.3790   39.9940 O   0  0  0  0  0  0  0  0  0  0  0  0
   33.9710   28.9020   39.1820 H   0  0  0  0  0  0  0  0  0  0  0  0
   36.6260   30.1320   39.2580 O   0  0  0  0  0  0  0  0  0  0  0  0
   36.1750   29.7680   38.0140 C   0  0  0  0  0  0  0  0  0  0  0  0
   35.2300   30.3390   37.7810 H   0  0  0  0  0  0  0  0  0  0  0  0
   35.9790   28.7100   37.8520 H   0  0  0  0  0  0  0  0  0  0  0  0
   37.1630   30.2960   36.9500 C   0  0  0  0  0  0  0  0  0  0  0  0
   36.6140   30.6090   36.0490 H   0  0  0  0  0  0  0  0  0  0  0  0
   37.9250   29.5190   36.7340 H   0  0  0  0  0  0  0  0  0  0  0  0
   37.7400   31.4350   37.5060 O   0  0  0  0  0  0  0  0  0  0  0  0
   39.7820   31.2430   39.1200 O   0  0  0  0  0  0  0  0  0  0  0  0
   39.4180   31.2650   37.6620 P   0  0  0  0  0  0  0  0  0  0  0  0
   39.9150   29.7740   36.9890 O   0  0  0  0  0  0  0  0  0  0  0  0
   40.8780   29.6810   37.2060 H   0  0  0  0  0  0  0  0  0  0  0  0
   40.2540   32.4850   36.8470 O   0  0  0  0  0  0  0  0  0  0  0  0
   40.5220   32.1700   35.9380 H   0  0  0  0  0  0  0  0  0  0  0  0
  1 23  1  0  0  0  0
  1  5  1  0  0  0  0
  2  1  1  0  0  0  0
  3  1  1  0  0  0  0
  4  9  1  0  0  0  0
  5  4  2  0  0  0  0
  5  6  1  0  0  0  0
  6  7  2  0  0  0  0
  7  8  1  0  0  0  0
  7 11  1  0  0  0  0
  8 12  1  0  0  0  0
  9 13  1  0  0  0  0
  9  8  2  0  0  0  0
 10  6  1  0  0  0  0
 14 19  2  0  0  0  0
 14 15  1  0  0  0  0
 15 16  2  0  0  0  0
 16 17  1  0  0  0  0
 16  4  1  0  0  0  0
 18 22  1  0  0  0  0
 18 17  2  0  0  0  0
 19 18  1  0  0  0  0
 20 14  1  0  0  0  0
 21 15  1  0  0  0  0
 23 24  1  0  0  0  0
 25 23  1  0  0  0  0
 25 26  1  0  0  0  0
 26 27  1  0  0  0  0
 28 25  1  0  0  0  0
 29 28  1  0  0  0  0
 30 25  1  0  0  0  0
 31 30  1  0  0  0  0
 32 31  1  0  0  0  0
 33 31  1  0  0  0  0
 34 37  1  0  0  0  0
 34 31  1  0  0  0  0
 35 34  1  0  0  0  0
 36 34  1  0  0  0  0
 37 39  1  0  0  0  0
 39 38  2  0  0  0  0
 40 41  1  0  0  0  0
 40 39  1  0  0  0  0
 42 39  1  0  0  0  0
 43 42  1  0  0  0  0
M  END
>  <minimizedAffinity>
-5.09193134

$$$$
