
 OpenBabel03252509353D

 42 43  0  0  1  0  0  0  0  0999 V2000
   44.8770   34.9070   45.4270 O   0  0  0  0  0  0  0  0  0  0  0  0
   45.7240   33.8670   44.7180 P   0  0  1  0  0  0  0  0  0  0  0  0
   44.7500   32.7670   43.8780 O   0  0  0  0  0  0  0  0  0  0  0  0
   43.9650   33.2270   43.4660 H   0  0  0  0  0  0  0  0  0  0  0  0
   46.7310   34.6640   43.6520 O   0  0  0  0  0  0  0  0  0  0  0  0
   46.9140   33.8860   42.5030 C   0  0  1  0  0  0  0  0  0  0  0  0
   46.3870   34.6360   41.2770 C   0  0  0  0  0  0  0  0  0  0  0  0
   46.9510   33.7800   40.1680 C   0  0  0  0  0  0  0  0  0  0  0  0
   48.2160   33.1450   40.7260 C   0  0  0  0  0  0  0  0  0  0  0  0
   48.3510   33.7220   42.1200 C   0  0  1  0  0  0  0  0  0  0  0  0
   46.3970   32.9300   42.5280 H   0  0  0  0  0  0  0  0  0  0  0  0
   45.2790   34.5300   41.2700 H   0  0  0  0  0  0  0  0  0  0  0  0
   46.6690   35.6840   41.2450 H   0  0  0  0  0  0  0  0  0  0  0  0
   46.1930   32.9950   39.8800 H   0  0  0  0  0  0  0  0  0  0  0  0
   47.2210   34.4140   39.2960 H   0  0  0  0  0  0  0  0  0  0  0  0
   49.0930   33.3490   40.0950 H   0  0  0  0  0  0  0  0  0  0  0  0
   48.0040   32.0650   40.8640 H   0  0  0  0  0  0  0  0  0  0  0  0
   48.8240   33.0040   42.8130 H   0  0  0  0  0  0  0  0  0  0  0  0
   49.1160   35.0170   42.1240 C   0  0  0  0  0  0  0  0  0  0  0  0
   48.4670   35.9250   42.1450 H   0  0  0  0  0  0  0  0  0  0  0  0
   49.7590   35.1060   41.2020 H   0  0  0  0  0  0  0  0  0  0  0  0
   49.9440   35.1280   43.2170 O   0  0  0  0  0  0  0  0  0  0  0  0
   50.0820   34.2340   43.6150 H   0  0  0  0  0  0  0  0  0  0  0  0
   46.6060   32.9750   45.8180 O   0  0  0  0  0  0  0  0  0  0  0  0
   46.4190   31.6520   45.5730 C   0  0  0  0  0  0  0  0  0  0  0  0
   47.4290   31.2030   45.3580 H   0  0  0  0  0  0  0  0  0  0  0  0
   45.7880   31.3650   44.7360 H   0  0  0  0  0  0  0  0  0  0  0  0
   45.4560   30.8580   49.0800 C   0  0  0  0  0  0  0  0  0  0  0  0
   45.9400   31.5810   47.9870 C   0  0  0  0  0  0  0  0  0  0  0  0
   45.9130   30.9210   46.7510 C   0  0  0  0  0  0  0  0  0  0  0  0
   45.4280   29.6440   46.6770 N   0  0  0  0  0  0  0  0  0  0  0  0
   44.9690   28.9810   47.7580 C   0  0  0  0  0  0  0  0  0  0  0  0
   44.9870   29.5930   48.9510 N   0  0  0  0  0  0  0  0  0  0  0  0
   45.4530   31.3190   50.0650 H   0  0  0  0  0  0  0  0  0  0  0  0
   46.3080   32.5850   48.1210 H   0  0  0  0  0  0  0  0  0  0  0  0
   44.5150   27.6950   47.4990 O   0  0  0  0  0  0  0  0  0  0  0  0
   44.0210   26.7010   49.8540 O   0  0  0  0  0  0  0  0  0  0  0  0
   44.7240   26.3870   48.5470 P   0  0  0  0  0  0  0  0  0  0  0  0
   46.3590   26.1150   48.9140 O   0  0  0  0  0  0  0  0  0  0  0  0
   46.6290   26.8320   49.5390 H   0  0  0  0  0  0  0  0  0  0  0  0
   44.0480   24.9590   47.9440 O   0  0  0  0  0  0  0  0  0  0  0  0
   44.6090   24.2140   48.2450 H   0  0  0  0  0  0  0  0  0  0  0  0
  2  1  2  1  0  0  0
  2 24  1  0  0  0  0
  3  2  1  0  0  0  0
  4  3  1  0  0  0  0
  5  2  1  0  0  0  0
  6 11  1  1  0  0  0
  6  5  1  0  0  0  0
  7  6  1  0  0  0  0
  8  9  1  0  0  0  0
  8  7  1  0  0  0  0
  9 17  1  0  0  0  0
  9 10  1  0  0  0  0
 10 19  1  0  0  0  0
 10  6  1  0  0  0  0
 10 18  1  1  0  0  0
 12  7  1  0  0  0  0
 13  7  1  0  0  0  0
 14  8  1  0  0  0  0
 15  8  1  0  0  0  0
 16  9  1  0  0  0  0
 19 20  1  0  0  0  0
 19 22  1  0  0  0  0
 21 19  1  0  0  0  0
 22 23  1  0  0  0  0
 25 24  1  0  0  0  0
 25 30  1  0  0  0  0
 26 25  1  0  0  0  0
 27 25  1  0  0  0  0
 28 34  1  0  0  0  0
 29 35  1  0  0  0  0
 29 28  2  0  0  0  0
 30 29  1  0  0  0  0
 31 30  2  0  0  0  0
 31 32  1  0  0  0  0
 32 33  2  0  0  0  0
 33 28  1  0  0  0  0
 36 32  1  0  0  0  0
 36 38  1  0  0  0  0
 38 39  1  0  0  0  0
 38 37  2  0  0  0  0
 39 40  1  0  0  0  0
 41 42  1  0  0  0  0
 41 38  1  0  0  0  0
M  END
>  <minimizedAffinity>
-5.55790567

>  <minimizedRMSD>
1.12709272

$$$$
