
 OpenBabel03252509153D

 43 46  0  0  1  0  0  0  0  0999 V2000
   37.3300   29.1780   42.7010 C   0  0  0  0  0  0  0  0  0  0  0  0
   37.8750   29.4450   41.4430 C   0  0  0  0  0  0  0  0  0  0  0  0
   38.3260   28.4490   40.5910 C   0  0  0  0  0  0  0  0  0  0  0  0
   38.2390   27.1050   40.9980 C   0  0  0  0  0  0  0  0  0  0  0  0
   38.5640   25.9210   40.4610 N   0  0  0  0  0  0  0  0  0  0  0  0
   38.2490   24.9320   41.3170 C   0  0  0  0  0  0  0  0  0  0  0  0
   37.7220   25.5360   42.3990 N   0  0  0  0  0  0  0  0  0  0  0  0
   37.7040   26.8670   42.2300 C   0  0  0  0  0  0  0  0  0  0  0  0
   37.2390   27.8440   43.1130 C   0  0  0  0  0  0  0  0  0  0  0  0
   36.9910   29.9940   43.3270 H   0  0  0  0  0  0  0  0  0  0  0  0
   38.9970   25.8920   39.5000 H   0  0  0  0  0  0  0  0  0  0  0  0
   38.4610   23.9170   41.0060 H   0  0  0  0  0  0  0  0  0  0  0  0
   36.8260   27.6130   44.0720 H   0  0  0  0  0  0  0  0  0  0  0  0
   39.1200   32.8560   40.9900 C   0  0  0  0  0  0  0  0  0  0  0  0
   38.1630   33.4360   40.1660 C   0  0  0  0  0  0  0  0  0  0  0  0
   37.0880   32.6440   39.7670 C   0  0  0  0  0  0  0  0  0  0  0  0
   37.0140   31.3420   40.1970 N   0  0  0  0  0  0  0  0  0  0  0  0
   37.9750   30.8250   41.0020 C   0  0  0  0  0  0  0  0  0  0  0  0
   39.0410   31.5580   41.4160 N   0  0  0  0  0  0  0  0  0  0  0  0
   39.9560   33.4800   41.2970 H   0  0  0  0  0  0  0  0  0  0  0  0
   38.2520   34.4640   39.8460 H   0  0  0  0  0  0  0  0  0  0  0  0
   36.3090   33.0310   39.1260 H   0  0  0  0  0  0  0  0  0  0  0  0
   39.0150   28.8110   39.0000 S   0  0  0  0  0  0  0  0  0  0  0  0
   40.8890   30.6340   38.7760 N   0  0  0  0  0  0  0  0  0  0  0  0
   40.7750   29.2040   39.0440 C   0  0  1  0  0  0  0  0  0  0  0  0
   41.2510   28.8780   40.4550 C   0  0  0  0  0  0  0  0  0  0  0  0
   42.4240   29.5200   40.8040 O   0  0  0  0  0  0  0  0  0  0  0  0
   43.0740   30.1630   39.7900 C   0  0  0  0  0  0  0  0  0  0  0  0
   42.1490   31.1910   39.1840 C   0  0  1  0  0  0  0  0  0  0  0  0
   40.7480   30.7180   37.7440 H   0  0  0  0  0  0  0  0  0  0  0  0
   41.3720   28.6770   38.2930 H   0  0  0  0  0  0  0  0  0  0  0  0
   40.4520   29.1090   41.1920 H   0  0  0  0  0  0  0  0  0  0  0  0
   41.5030   27.8200   40.5010 H   0  0  0  0  0  0  0  0  0  0  0  0
   43.3070   29.4280   38.9910 H   0  0  0  0  0  0  0  0  0  0  0  0
   43.9530   30.6600   40.1980 H   0  0  0  0  0  0  0  0  0  0  0  0
   42.0350   31.9900   39.9460 H   0  0  0  0  0  0  0  0  0  0  0  0
   42.7320   31.8130   38.0680 O   0  0  0  0  0  0  0  0  0  0  0  0
   41.3240   33.8810   38.8270 O   0  0  0  0  0  0  0  0  0  0  0  0
   41.7400   33.0800   37.6110 P   0  0  0  0  0  0  0  0  0  0  0  0
   40.3530   32.5840   36.7950 O   0  0  0  0  0  0  0  0  0  0  0  0
   39.5160   32.7210   37.2860 H   0  0  0  0  0  0  0  0  0  0  0  0
   42.5400   34.1610   36.5650 O   0  0  0  0  0  0  0  0  0  0  0  0
   43.0780   33.6210   35.9390 H   0  0  0  0  0  0  0  0  0  0  0  0
  1  9  1  0  0  0  0
  1 10  1  0  0  0  0
  2  1  2  0  0  0  0
  3  4  2  0  0  0  0
  3  2  1  0  0  0  0
  4  8  1  0  0  0  0
  5  4  1  0  0  0  0
  5  6  1  0  0  0  0
  6  7  2  0  0  0  0
  8  7  1  0  0  0  0
  8  9  2  0  0  0  0
  9 13  1  0  0  0  0
 11  5  1  0  0  0  0
 12  6  1  0  0  0  0
 14 20  1  0  0  0  0
 14 19  1  0  0  0  0
 15 14  2  0  0  0  0
 16 15  1  0  0  0  0
 16 17  2  0  0  0  0
 17 18  1  0  0  0  0
 18 19  2  0  0  0  0
 18  2  1  0  0  0  0
 21 15  1  0  0  0  0
 22 16  1  0  0  0  0
 23 25  1  0  0  0  0
 23  3  1  0  0  0  0
 24 25  1  0  0  0  0
 24 29  1  0  0  0  0
 25 31  1  6  0  0  0
 25 26  1  0  0  0  0
 26 33  1  0  0  0  0
 26 27  1  0  0  0  0
 26 32  1  0  0  0  0
 28 35  1  0  0  0  0
 28 27  1  0  0  0  0
 29 28  1  0  0  0  0
 29 36  1  1  0  0  0
 30 24  1  0  0  0  0
 34 28  1  0  0  0  0
 37 29  1  0  0  0  0
 39 37  1  0  0  0  0
 39 38  2  0  0  0  0
 40 41  1  0  0  0  0
 40 39  1  0  0  0  0
 42 39  1  0  0  0  0
 43 42  1  0  0  0  0
M  END
>  <minimizedAffinity>
-6.10651255

$$$$

 OpenBabel03252509153D

 43 46  0  0  1  0  0  0  0  0999 V2000
   38.6130   30.6170   37.6910 C   0  0  0  0  0  0  0  0  0  0  0  0
   37.7720   30.1330   38.6950 C   0  0  0  0  0  0  0  0  0  0  0  0
   37.5570   30.8070   39.8870 C   0  0  0  0  0  0  0  0  0  0  0  0
   38.2100   32.0340   40.1110 C   0  0  0  0  0  0  0  0  0  0  0  0
   38.2430   32.9320   41.1050 N   0  0  0  0  0  0  0  0  0  0  0  0
   39.0600   33.9480   40.7720 C   0  0  0  0  0  0  0  0  0  0  0  0
   39.5310   33.6550   39.5450 N   0  0  0  0  0  0  0  0  0  0  0  0
   39.0270   32.4870   39.1160 C   0  0  0  0  0  0  0  0  0  0  0  0
   39.2660   31.8360   37.9040 C   0  0  0  0  0  0  0  0  0  0  0  0
   38.7450   30.0500   36.7770 H   0  0  0  0  0  0  0  0  0  0  0  0
   37.6710   32.7600   41.9730 H   0  0  0  0  0  0  0  0  0  0  0  0
   39.1790   34.7480   41.4910 H   0  0  0  0  0  0  0  0  0  0  0  0
   39.9150   32.2280   37.1510 H   0  0  0  0  0  0  0  0  0  0  0  0
   37.1300   26.5380   38.4660 C   0  0  0  0  0  0  0  0  0  0  0  0
   35.7920   26.4780   38.0950 C   0  0  0  0  0  0  0  0  0  0  0  0
   35.1140   27.6840   37.9240 C   0  0  0  0  0  0  0  0  0  0  0  0
   35.7810   28.8660   38.1260 N   0  0  0  0  0  0  0  0  0  0  0  0
   37.0880   28.8690   38.4880 C   0  0  0  0  0  0  0  0  0  0  0  0
   37.7900   27.7200   38.6660 N   0  0  0  0  0  0  0  0  0  0  0  0
   37.6520   25.5930   38.5980 H   0  0  0  0  0  0  0  0  0  0  0  0
   35.2970   25.5300   37.9440 H   0  0  0  0  0  0  0  0  0  0  0  0
   34.0720   27.7100   37.6360 H   0  0  0  0  0  0  0  0  0  0  0  0
   36.4870   30.1750   41.1480 S   0  0  0  0  0  0  0  0  0  0  0  0
   37.4140   27.7700   41.6410 N   0  0  0  0  0  0  0  0  0  0  0  0
   37.3080   29.0640   42.3080 C   0  0  1  0  0  0  0  0  0  0  0  0
   38.6900   29.6550   42.5610 C   0  0  0  0  0  0  0  0  0  0  0  0
   39.6030   28.7380   43.0470 O   0  0  0  0  0  0  0  0  0  0  0  0
   39.0910   27.5290   43.4170 C   0  0  0  0  0  0  0  0  0  0  0  0
   38.3960   26.9030   42.2310 C   0  0  1  0  0  0  0  0  0  0  0  0
   36.4540   27.3630   41.7080 H   0  0  0  0  0  0  0  0  0  0  0  0
   36.7650   28.9110   43.2450 H   0  0  0  0  0  0  0  0  0  0  0  0
   39.0790   30.1320   41.6360 H   0  0  0  0  0  0  0  0  0  0  0  0
   38.6100   30.3970   43.3530 H   0  0  0  0  0  0  0  0  0  0  0  0
   38.3150   27.6910   44.1960 H   0  0  0  0  0  0  0  0  0  0  0  0
   39.9080   26.8870   43.7400 H   0  0  0  0  0  0  0  0  0  0  0  0
   39.1980   26.6200   41.5180 H   0  0  0  0  0  0  0  0  0  0  0  0
   37.7610   25.7010   42.5830 O   0  0  0  0  0  0  0  0  0  0  0  0
   39.6190   24.9240   40.9140 O   0  0  0  0  0  0  0  0  0  0  0  0
   38.7050   24.4390   42.0210 P   0  0  0  0  0  0  0  0  0  0  0  0
   37.8080   23.1370   41.4430 O   0  0  0  0  0  0  0  0  0  0  0  0
   37.8670   22.9940   40.4760 H   0  0  0  0  0  0  0  0  0  0  0  0
   39.7120   23.8110   43.2440 O   0  0  0  0  0  0  0  0  0  0  0  0
   39.1820   23.7830   44.0750 H   0  0  0  0  0  0  0  0  0  0  0  0
  1  9  2  0  0  0  0
  1  2  1  0  0  0  0
  2  3  2  0  0  0  0
  3  4  1  0  0  0  0
  3 23  1  0  0  0  0
  4  5  1  0  0  0  0
  5 11  1  0  0  0  0
  6  5  1  0  0  0  0
  6 12  1  0  0  0  0
  7  6  2  0  0  0  0
  8  7  1  0  0  0  0
  8  4  2  0  0  0  0
  9  8  1  0  0  0  0
 10  1  1  0  0  0  0
 13  9  1  0  0  0  0
 14 20  1  0  0  0  0
 14 19  1  0  0  0  0
 15 14  2  0  0  0  0
 16 15  1  0  0  0  0
 16 17  2  0  0  0  0
 17 18  1  0  0  0  0
 18 19  2  0  0  0  0
 18  2  1  0  0  0  0
 21 15  1  0  0  0  0
 22 16  1  0  0  0  0
 23 25  1  0  0  0  0
 24 30  1  0  0  0  0
 24 29  1  0  0  0  0
 24 25  1  0  0  0  0
 25 26  1  0  0  0  0
 25 31  1  1  0  0  0
 26 27  1  0  0  0  0
 26 33  1  0  0  0  0
 27 28  1  0  0  0  0
 28 35  1  0  0  0  0
 28 34  1  0  0  0  0
 29 36  1  6  0  0  0
 29 37  1  0  0  0  0
 29 28  1  0  0  0  0
 32 26  1  0  0  0  0
 38 39  2  0  0  0  0
 39 37  1  0  0  0  0
 39 42  1  0  0  0  0
 40 39  1  0  0  0  0
 41 40  1  0  0  0  0
 42 43  1  0  0  0  0
M  END
>  <minimizedAffinity>
-5.89795446

$$$$

 OpenBabel03252509153D

 43 46  0  0  1  0  0  0  0  0999 V2000
   37.1210   30.0680   36.9430 C   0  0  0  0  0  0  0  0  0  0  0  0
   36.4010   29.4510   37.9680 C   0  0  0  0  0  0  0  0  0  0  0  0
   36.2370   30.0190   39.2210 C   0  0  0  0  0  0  0  0  0  0  0  0
   36.8180   31.2740   39.4880 C   0  0  0  0  0  0  0  0  0  0  0  0
   36.8680   32.0980   40.5440 N   0  0  0  0  0  0  0  0  0  0  0  0
   37.5810   33.1950   40.2290 C   0  0  0  0  0  0  0  0  0  0  0  0
   37.9700   33.0270   38.9510 N   0  0  0  0  0  0  0  0  0  0  0  0
   37.5170   31.8580   38.4720 C   0  0  0  0  0  0  0  0  0  0  0  0
   37.7010   31.3150   37.1990 C   0  0  0  0  0  0  0  0  0  0  0  0
   37.2180   29.5800   35.9810 H   0  0  0  0  0  0  0  0  0  0  0  0
   36.3830   31.8210   41.4370 H   0  0  0  0  0  0  0  0  0  0  0  0
   37.7020   33.9480   40.9970 H   0  0  0  0  0  0  0  0  0  0  0  0
   38.2570   31.8090   36.4310 H   0  0  0  0  0  0  0  0  0  0  0  0
   33.9520   26.8930   37.0440 C   0  0  0  0  0  0  0  0  0  0  0  0
   34.6460   25.7050   37.2390 C   0  0  0  0  0  0  0  0  0  0  0  0
   35.9620   25.7920   37.6900 C   0  0  0  0  0  0  0  0  0  0  0  0
   36.5150   27.0260   37.9220 N   0  0  0  0  0  0  0  0  0  0  0  0
   35.7940   28.1560   37.7160 C   0  0  0  0  0  0  0  0  0  0  0  0
   34.5090   28.1220   37.2770 N   0  0  0  0  0  0  0  0  0  0  0  0
   32.9260   26.8170   36.6920 H   0  0  0  0  0  0  0  0  0  0  0  0
   34.1800   24.7500   37.0470 H   0  0  0  0  0  0  0  0  0  0  0  0
   36.5590   24.9070   37.8620 H   0  0  0  0  0  0  0  0  0  0  0  0
   35.3210   29.2180   40.5070 S   0  0  0  0  0  0  0  0  0  0  0  0
   36.6930   27.0810   41.1660 N   0  0  0  0  0  0  0  0  0  0  0  0
   36.3570   28.3860   41.7260 C   0  0  1  0  0  0  0  0  0  0  0  0
   37.6070   29.2450   41.8840 C   0  0  0  0  0  0  0  0  0  0  0  0
   38.6850   28.5600   42.4120 O   0  0  0  0  0  0  0  0  0  0  0  0
   38.4160   27.3130   42.8990 C   0  0  0  0  0  0  0  0  0  0  0  0
   37.8310   26.4670   41.7920 C   0  0  1  0  0  0  0  0  0  0  0  0
   35.8280   26.5100   41.2990 H   0  0  0  0  0  0  0  0  0  0  0  0
   35.8690   28.2170   42.6910 H   0  0  0  0  0  0  0  0  0  0  0  0
   37.8830   29.7020   40.9090 H   0  0  0  0  0  0  0  0  0  0  0  0
   37.4030   30.0250   42.6140 H   0  0  0  0  0  0  0  0  0  0  0  0
   37.6380   27.3960   43.6870 H   0  0  0  0  0  0  0  0  0  0  0  0
   39.3460   26.8650   43.2460 H   0  0  0  0  0  0  0  0  0  0  0  0
   38.6600   26.2770   41.0790 H   0  0  0  0  0  0  0  0  0  0  0  0
   37.4410   25.2030   42.2640 O   0  0  0  0  0  0  0  0  0  0  0  0
   36.0230   23.9070   40.4890 O   0  0  0  0  0  0  0  0  0  0  0  0
   37.4410   24.1500   40.9640 P   0  0  0  0  0  0  0  0  0  0  0  0
   38.1530   22.6630   41.3080 O   0  0  0  0  0  0  0  0  0  0  0  0
   37.5330   21.9040   41.3230 H   0  0  0  0  0  0  0  0  0  0  0  0
   38.2980   24.7860   39.6360 O   0  0  0  0  0  0  0  0  0  0  0  0
   39.1030   25.2320   39.9920 H   0  0  0  0  0  0  0  0  0  0  0  0
  1  9  2  0  0  0  0
  1  2  1  0  0  0  0
  2  3  2  0  0  0  0
  3  4  1  0  0  0  0
  3 23  1  0  0  0  0
  4  5  1  0  0  0  0
  5 11  1  0  0  0  0
  6  5  1  0  0  0  0
  6 12  1  0  0  0  0
  7  6  2  0  0  0  0
  8  7  1  0  0  0  0
  8  4  2  0  0  0  0
  9  8  1  0  0  0  0
 10  1  1  0  0  0  0
 13  9  1  0  0  0  0
 14 15  2  0  0  0  0
 14 19  1  0  0  0  0
 15 16  1  0  0  0  0
 16 22  1  0  0  0  0
 16 17  2  0  0  0  0
 18 17  1  0  0  0  0
 18  2  1  0  0  0  0
 19 18  2  0  0  0  0
 20 14  1  0  0  0  0
 21 15  1  0  0  0  0
 23 25  1  0  0  0  0
 24 30  1  0  0  0  0
 24 25  1  0  0  0  0
 24 29  1  0  0  0  0
 25 26  1  0  0  0  0
 25 31  1  1  0  0  0
 26 27  1  0  0  0  0
 26 33  1  0  0  0  0
 27 28  1  0  0  0  0
 28 35  1  0  0  0  0
 28 34  1  0  0  0  0
 29 36  1  6  0  0  0
 29 37  1  0  0  0  0
 29 28  1  0  0  0  0
 32 26  1  0  0  0  0
 38 39  2  0  0  0  0
 39 40  1  0  0  0  0
 39 37  1  0  0  0  0
 40 41  1  0  0  0  0
 42 43  1  0  0  0  0
 42 39  1  0  0  0  0
M  END
>  <minimizedAffinity>
-5.84072208

$$$$

 OpenBabel03252509153D

 43 46  0  0  1  0  0  0  0  0999 V2000
   36.8610   26.7790   40.6620 C   0  0  0  0  0  0  0  0  0  0  0  0
   37.7320   27.8200   40.9880 C   0  0  0  0  0  0  0  0  0  0  0  0
   38.8740   27.6370   41.7520 C   0  0  0  0  0  0  0  0  0  0  0  0
   39.1820   26.3490   42.2290 C   0  0  0  0  0  0  0  0  0  0  0  0
   40.1620   25.8130   42.9690 N   0  0  0  0  0  0  0  0  0  0  0  0
   39.9470   24.4940   43.1200 C   0  0  0  0  0  0  0  0  0  0  0  0
   38.8080   24.2280   42.4560 N   0  0  0  0  0  0  0  0  0  0  0  0
   38.3170   25.3460   41.9000 C   0  0  0  0  0  0  0  0  0  0  0  0
   37.1590   25.4950   41.1320 C   0  0  0  0  0  0  0  0  0  0  0  0
   35.9820   26.9770   40.0610 H   0  0  0  0  0  0  0  0  0  0  0  0
   40.9370   26.4340   43.3250 H   0  0  0  0  0  0  0  0  0  0  0  0
   40.6690   23.9350   43.7020 H   0  0  0  0  0  0  0  0  0  0  0  0
   36.5080   24.6800   40.8980 H   0  0  0  0  0  0  0  0  0  0  0  0
   36.4550   31.2460   40.8430 C   0  0  0  0  0  0  0  0  0  0  0  0
   36.8730   31.6890   39.5940 C   0  0  0  0  0  0  0  0  0  0  0  0
   37.5980   30.7990   38.8030 C   0  0  0  0  0  0  0  0  0  0  0  0
   37.8670   29.5400   39.2790 N   0  0  0  0  0  0  0  0  0  0  0  0
   37.4350   29.1580   40.5060 C   0  0  0  0  0  0  0  0  0  0  0  0
   36.7250   29.9900   41.3120 N   0  0  0  0  0  0  0  0  0  0  0  0
   35.8900   31.9460   41.4540 H   0  0  0  0  0  0  0  0  0  0  0  0
   36.6440   32.6870   39.2500 H   0  0  0  0  0  0  0  0  0  0  0  0
   37.9550   31.0780   37.8220 H   0  0  0  0  0  0  0  0  0  0  0  0
   39.9640   28.9730   42.1530 S   0  0  0  0  0  0  0  0  0  0  0  0
   40.8760   30.3430   40.1090 N   0  0  0  0  0  0  0  0  0  0  0  0
   41.2830   29.2200   40.9470 C   0  0  1  0  0  0  0  0  0  0  0  0
   42.5340   29.5660   41.7460 C   0  0  0  0  0  0  0  0  0  0  0  0
   43.5020   30.2160   41.0030 O   0  0  0  0  0  0  0  0  0  0  0  0
   43.2880   30.2590   39.6560 C   0  0  0  0  0  0  0  0  0  0  0  0
   41.9670   30.9400   39.3880 C   0  0  1  0  0  0  0  0  0  0  0  0
   40.1630   29.9400   39.4610 H   0  0  0  0  0  0  0  0  0  0  0  0
   41.4580   28.3620   40.2900 H   0  0  0  0  0  0  0  0  0  0  0  0
   42.2640   30.1710   42.6390 H   0  0  0  0  0  0  0  0  0  0  0  0
   43.0150   28.6410   42.0580 H   0  0  0  0  0  0  0  0  0  0  0  0
   43.1980   29.2200   39.2750 H   0  0  0  0  0  0  0  0  0  0  0  0
   44.0910   30.8290   39.1920 H   0  0  0  0  0  0  0  0  0  0  0  0
   42.1130   32.0100   39.6450 H   0  0  0  0  0  0  0  0  0  0  0  0
   41.6470   30.9210   38.0210 O   0  0  0  0  0  0  0  0  0  0  0  0
   40.6290   33.1760   38.8660 O   0  0  0  0  0  0  0  0  0  0  0  0
   41.0380   32.4250   37.6150 P   0  0  0  0  0  0  0  0  0  0  0  0
   39.7150   32.3540   36.5760 O   0  0  0  0  0  0  0  0  0  0  0  0
   38.8640   32.6350   36.9740 H   0  0  0  0  0  0  0  0  0  0  0  0
   42.2030   33.3870   36.8280 O   0  0  0  0  0  0  0  0  0  0  0  0
   42.6980   32.8000   36.2080 H   0  0  0  0  0  0  0  0  0  0  0  0
  1  2  2  0  0  0  0
  1  9  1  0  0  0  0
  2  3  1  0  0  0  0
  3 23  1  0  0  0  0
  3  4  2  0  0  0  0
  4  5  1  0  0  0  0
  5  6  1  0  0  0  0
  5 11  1  0  0  0  0
  6 12  1  0  0  0  0
  7  6  2  0  0  0  0
  8  4  1  0  0  0  0
  8  7  1  0  0  0  0
  9  8  2  0  0  0  0
 10  1  1  0  0  0  0
 13  9  1  0  0  0  0
 14 19  1  0  0  0  0
 14 20  1  0  0  0  0
 15 14  2  0  0  0  0
 16 17  2  0  0  0  0
 16 15  1  0  0  0  0
 17 18  1  0  0  0  0
 18  2  1  0  0  0  0
 18 19  2  0  0  0  0
 21 15  1  0  0  0  0
 22 16  1  0  0  0  0
 24 25  1  0  0  0  0
 25 31  1  6  0  0  0
 25 26  1  0  0  0  0
 25 23  1  0  0  0  0
 26 33  1  0  0  0  0
 26 32  1  0  0  0  0
 27 26  1  0  0  0  0
 28 27  1  0  0  0  0
 29 36  1  1  0  0  0
 29 28  1  0  0  0  0
 29 24  1  0  0  0  0
 30 24  1  0  0  0  0
 34 28  1  0  0  0  0
 35 28  1  0  0  0  0
 37 29  1  0  0  0  0
 39 37  1  0  0  0  0
 39 38  2  0  0  0  0
 40 41  1  0  0  0  0
 40 39  1  0  0  0  0
 42 39  1  0  0  0  0
 43 42  1  0  0  0  0
M  END
>  <minimizedAffinity>
-5.82624483

$$$$

 OpenBabel03252509153D

 43 46  0  0  1  0  0  0  0  0999 V2000
   36.6100   29.9050   40.4210 C   0  0  0  0  0  0  0  0  0  0  0  0
   37.8120   29.7430   41.1120 C   0  0  0  0  0  0  0  0  0  0  0  0
   38.7300   30.7690   41.2770 C   0  0  0  0  0  0  0  0  0  0  0  0
   38.4530   32.0350   40.7280 C   0  0  0  0  0  0  0  0  0  0  0  0
   39.0810   33.2180   40.6890 N   0  0  0  0  0  0  0  0  0  0  0  0
   38.3330   34.1060   40.0100 C   0  0  0  0  0  0  0  0  0  0  0  0
   37.2260   33.4420   39.6300 N   0  0  0  0  0  0  0  0  0  0  0  0
   37.2730   32.1700   40.0570 C   0  0  0  0  0  0  0  0  0  0  0  0
   36.3250   31.1600   39.8720 C   0  0  0  0  0  0  0  0  0  0  0  0
   35.9270   29.0710   40.3210 H   0  0  0  0  0  0  0  0  0  0  0  0
   40.0200   33.3180   41.1570 H   0  0  0  0  0  0  0  0  0  0  0  0
   38.7270   35.1090   39.9020 H   0  0  0  0  0  0  0  0  0  0  0  0
   35.4120   31.3110   39.3380 H   0  0  0  0  0  0  0  0  0  0  0  0
   38.0390   26.9740   43.4930 C   0  0  0  0  0  0  0  0  0  0  0  0
   38.7050   25.9900   42.7720 C   0  0  0  0  0  0  0  0  0  0  0  0
   39.0740   26.2870   41.4610 C   0  0  0  0  0  0  0  0  0  0  0  0
   38.7720   27.5200   40.9390 N   0  0  0  0  0  0  0  0  0  0  0  0
   38.1210   28.4460   41.6860 C   0  0  0  0  0  0  0  0  0  0  0  0
   37.7400   28.2020   42.9670 N   0  0  0  0  0  0  0  0  0  0  0  0
   37.7530   26.7340   44.5140 H   0  0  0  0  0  0  0  0  0  0  0  0
   38.9270   25.0290   43.2130 H   0  0  0  0  0  0  0  0  0  0  0  0
   39.5940   25.5680   40.8440 H   0  0  0  0  0  0  0  0  0  0  0  0
   40.2500   30.5410   42.1580 S   0  0  0  0  0  0  0  0  0  0  0  0
   41.6960   31.5890   40.2360 N   0  0  0  0  0  0  0  0  0  0  0  0
   41.6950   30.4040   41.0870 C   0  0  1  0  0  0  0  0  0  0  0  0
   42.9100   30.3980   42.0070 C   0  0  0  0  0  0  0  0  0  0  0  0
   44.0860   30.7490   41.3720 O   0  0  0  0  0  0  0  0  0  0  0  0
   44.0230   30.8380   40.0110 C   0  0  0  0  0  0  0  0  0  0  0  0
   42.9730   31.8560   39.6320 C   0  0  1  0  0  0  0  0  0  0  0  0
   40.9650   31.3940   39.5150 H   0  0  0  0  0  0  0  0  0  0  0  0
   41.6890   29.5260   40.4330 H   0  0  0  0  0  0  0  0  0  0  0  0
   42.7330   31.0610   42.8820 H   0  0  0  0  0  0  0  0  0  0  0  0
   43.0840   29.3780   42.3460 H   0  0  0  0  0  0  0  0  0  0  0  0
   43.6870   29.8620   39.6030 H   0  0  0  0  0  0  0  0  0  0  0  0
   44.9930   31.1600   39.6360 H   0  0  0  0  0  0  0  0  0  0  0  0
   43.3830   32.8450   39.9220 H   0  0  0  0  0  0  0  0  0  0  0  0
   42.7930   31.9150   38.2410 O   0  0  0  0  0  0  0  0  0  0  0  0
   41.7580   34.1550   39.1060 O   0  0  0  0  0  0  0  0  0  0  0  0
   41.8210   33.2340   37.9050 P   0  0  0  0  0  0  0  0  0  0  0  0
   40.2500   32.8150   37.4670 O   0  0  0  0  0  0  0  0  0  0  0  0
   39.5620   33.0650   38.1190 H   0  0  0  0  0  0  0  0  0  0  0  0
   42.4380   34.1590   36.6140 O   0  0  0  0  0  0  0  0  0  0  0  0
   42.7750   33.5280   35.9350 H   0  0  0  0  0  0  0  0  0  0  0  0
  1  2  1  0  0  0  0
  2  3  2  0  0  0  0
  2 18  1  0  0  0  0
  3 23  1  0  0  0  0
  4  3  1  0  0  0  0
  5  4  1  0  0  0  0
  5 11  1  0  0  0  0
  6  5  1  0  0  0  0
  7  6  2  0  0  0  0
  7  8  1  0  0  0  0
  8  4  2  0  0  0  0
  9  8  1  0  0  0  0
  9  1  2  0  0  0  0
 10  1  1  0  0  0  0
 12  6  1  0  0  0  0
 13  9  1  0  0  0  0
 14 20  1  0  0  0  0
 15 21  1  0  0  0  0
 15 14  2  0  0  0  0
 16 15  1  0  0  0  0
 17 16  2  0  0  0  0
 17 18  1  0  0  0  0
 18 19  2  0  0  0  0
 19 14  1  0  0  0  0
 22 16  1  0  0  0  0
 24 25  1  0  0  0  0
 25 31  1  6  0  0  0
 25 26  1  0  0  0  0
 25 23  1  0  0  0  0
 26 33  1  0  0  0  0
 26 32  1  0  0  0  0
 27 26  1  0  0  0  0
 28 27  1  0  0  0  0
 29 36  1  1  0  0  0
 29 28  1  0  0  0  0
 29 24  1  0  0  0  0
 30 24  1  0  0  0  0
 34 28  1  0  0  0  0
 35 28  1  0  0  0  0
 37 29  1  0  0  0  0
 39 37  1  0  0  0  0
 39 38  2  0  0  0  0
 40 39  1  0  0  0  0
 40 41  1  0  0  0  0
 42 39  1  0  0  0  0
 43 42  1  0  0  0  0
M  END
>  <minimizedAffinity>
-5.77329636

$$$$

 OpenBabel03252509153D

 43 46  0  0  1  0  0  0  0  0999 V2000
   36.1970   26.7470   39.0060 C   0  0  0  0  0  0  0  0  0  0  0  0
   36.9260   27.7450   39.6550 C   0  0  0  0  0  0  0  0  0  0  0  0
   37.2970   28.9290   39.0380 C   0  0  0  0  0  0  0  0  0  0  0  0
   36.9320   29.1490   37.6960 C   0  0  0  0  0  0  0  0  0  0  0  0
   37.1090   30.1350   36.8070 N   0  0  0  0  0  0  0  0  0  0  0  0
   36.5290   29.8030   35.6390 C   0  0  0  0  0  0  0  0  0  0  0  0
   35.9890   28.5850   35.8300 N   0  0  0  0  0  0  0  0  0  0  0  0
   36.2200   28.1600   37.0810 C   0  0  0  0  0  0  0  0  0  0  0  0
   35.8290   26.9560   37.6720 C   0  0  0  0  0  0  0  0  0  0  0  0
   35.9320   25.8400   39.5350 H   0  0  0  0  0  0  0  0  0  0  0  0
   37.6420   30.9980   37.0940 H   0  0  0  0  0  0  0  0  0  0  0  0
   36.5980   30.5160   34.8280 H   0  0  0  0  0  0  0  0  0  0  0  0
   35.2710   26.2080   37.1530 H   0  0  0  0  0  0  0  0  0  0  0  0
   36.9010   27.8530   43.3130 C   0  0  0  0  0  0  0  0  0  0  0  0
   38.0510   27.1530   43.6580 C   0  0  0  0  0  0  0  0  0  0  0  0
   38.8330   26.6430   42.6230 C   0  0  0  0  0  0  0  0  0  0  0  0
   38.4460   26.8490   41.3220 N   0  0  0  0  0  0  0  0  0  0  0  0
   37.3140   27.5410   41.0390 C   0  0  0  0  0  0  0  0  0  0  0  0
   36.5210   28.0560   42.0140 N   0  0  0  0  0  0  0  0  0  0  0  0
   36.2970   28.2480   44.1260 H   0  0  0  0  0  0  0  0  0  0  0  0
   38.3270   27.0090   44.6930 H   0  0  0  0  0  0  0  0  0  0  0  0
   39.7390   26.0880   42.8210 H   0  0  0  0  0  0  0  0  0  0  0  0
   38.2220   30.1820   39.8800 S   0  0  0  0  0  0  0  0  0  0  0  0
   40.5100   31.3300   39.3050 N   0  0  0  0  0  0  0  0  0  0  0  0
   40.0080   30.0150   39.6920 C   0  0  1  0  0  0  0  0  0  0  0  0
   40.5470   29.6120   41.0600 C   0  0  0  0  0  0  0  0  0  0  0  0
   41.8940   29.8750   41.2220 O   0  0  0  0  0  0  0  0  0  0  0  0
   42.5670   30.2470   40.0950 C   0  0  0  0  0  0  0  0  0  0  0  0
   41.9230   31.4870   39.5220 C   0  0  1  0  0  0  0  0  0  0  0  0
   40.2670   31.4130   38.2920 H   0  0  0  0  0  0  0  0  0  0  0  0
   40.3140   29.3020   38.9210 H   0  0  0  0  0  0  0  0  0  0  0  0
   39.9590   30.1060   41.8640 H   0  0  0  0  0  0  0  0  0  0  0  0
   40.4720   28.5310   41.1580 H   0  0  0  0  0  0  0  0  0  0  0  0
   42.4600   29.4460   39.3330 H   0  0  0  0  0  0  0  0  0  0  0  0
   43.6000   30.4640   40.3600 H   0  0  0  0  0  0  0  0  0  0  0  0
   42.1560   32.3100   40.2280 H   0  0  0  0  0  0  0  0  0  0  0  0
   42.5120   31.8550   38.3020 O   0  0  0  0  0  0  0  0  0  0  0  0
   41.1010   34.0120   38.7470 O   0  0  0  0  0  0  0  0  0  0  0  0
   41.6030   33.0980   37.6480 P   0  0  0  0  0  0  0  0  0  0  0  0
   40.2810   32.5600   36.7530 O   0  0  0  0  0  0  0  0  0  0  0  0
   39.4080   32.7580   37.1510 H   0  0  0  0  0  0  0  0  0  0  0  0
   42.5240   34.0660   36.5910 O   0  0  0  0  0  0  0  0  0  0  0  0
   43.1010   33.4610   36.0670 H   0  0  0  0  0  0  0  0  0  0  0  0
  1 10  1  0  0  0  0
  1  2  1  0  0  0  0
  2 18  1  0  0  0  0
  3  2  2  0  0  0  0
  3 23  1  0  0  0  0
  4  3  1  0  0  0  0
  5 11  1  0  0  0  0
  5  4  1  0  0  0  0
  6  7  2  0  0  0  0
  6  5  1  0  0  0  0
  7  8  1  0  0  0  0
  8  9  1  0  0  0  0
  8  4  2  0  0  0  0
  9  1  2  0  0  0  0
 12  6  1  0  0  0  0
 13  9  1  0  0  0  0
 14 15  1  0  0  0  0
 14 20  1  0  0  0  0
 15 21  1  0  0  0  0
 16 22  1  0  0  0  0
 16 15  2  0  0  0  0
 17 16  1  0  0  0  0
 18 17  2  0  0  0  0
 18 19  1  0  0  0  0
 19 14  2  0  0  0  0
 24 29  1  0  0  0  0
 24 25  1  0  0  0  0
 25 31  1  6  0  0  0
 25 23  1  0  0  0  0
 25 26  1  0  0  0  0
 26 33  1  0  0  0  0
 26 27  1  0  0  0  0
 26 32  1  0  0  0  0
 28 35  1  0  0  0  0
 28 27  1  0  0  0  0
 29 28  1  0  0  0  0
 29 36  1  1  0  0  0
 30 24  1  0  0  0  0
 34 28  1  0  0  0  0
 37 29  1  0  0  0  0
 39 37  1  0  0  0  0
 39 38  2  0  0  0  0
 40 41  1  0  0  0  0
 40 39  1  0  0  0  0
 42 39  1  0  0  0  0
 43 42  1  0  0  0  0
M  END
>  <minimizedAffinity>
-5.75189257

$$$$

 OpenBabel03252509153D

 43 46  0  0  1  0  0  0  0  0999 V2000
   39.4980   30.4010   42.1040 C   0  0  0  0  0  0  0  0  0  0  0  0
   38.2620   29.9430   41.6450 C   0  0  0  0  0  0  0  0  0  0  0  0
   37.3850   30.7370   40.9240 C   0  0  0  0  0  0  0  0  0  0  0  0
   37.7410   32.0680   40.6340 C   0  0  0  0  0  0  0  0  0  0  0  0
   37.1680   33.0910   39.9860 N   0  0  0  0  0  0  0  0  0  0  0  0
   37.9820   34.1610   40.0170 C   0  0  0  0  0  0  0  0  0  0  0  0
   39.0740   33.7730   40.7020 N   0  0  0  0  0  0  0  0  0  0  0  0
   38.9530   32.4950   41.0920 C   0  0  0  0  0  0  0  0  0  0  0  0
   39.8610   31.7230   41.8200 C   0  0  0  0  0  0  0  0  0  0  0  0
   40.1470   29.7390   42.6630 H   0  0  0  0  0  0  0  0  0  0  0  0
   36.2150   32.9590   39.5550 H   0  0  0  0  0  0  0  0  0  0  0  0
   37.6390   35.0640   39.5280 H   0  0  0  0  0  0  0  0  0  0  0  0
   40.8020   32.0980   42.1610 H   0  0  0  0  0  0  0  0  0  0  0  0
   36.7370   27.0440   43.2760 C   0  0  0  0  0  0  0  0  0  0  0  0
   37.1360   25.9820   42.4730 C   0  0  0  0  0  0  0  0  0  0  0  0
   37.9330   26.2720   41.3670 C   0  0  0  0  0  0  0  0  0  0  0  0
   38.2890   27.5740   41.1160 N   0  0  0  0  0  0  0  0  0  0  0  0
   37.8730   28.5740   41.9320 C   0  0  0  0  0  0  0  0  0  0  0  0
   37.0960   28.3400   43.0210 N   0  0  0  0  0  0  0  0  0  0  0  0
   36.1160   26.8090   44.1370 H   0  0  0  0  0  0  0  0  0  0  0  0
   36.8380   24.9690   42.7000 H   0  0  0  0  0  0  0  0  0  0  0  0
   38.2780   25.4940   40.7000 H   0  0  0  0  0  0  0  0  0  0  0  0
   35.8210   30.1350   40.3520 S   0  0  0  0  0  0  0  0  0  0  0  0
   34.5630   29.2000   38.2470 N   0  0  0  0  0  0  0  0  0  0  0  0
   35.9160   29.2350   38.7910 C   0  0  1  0  0  0  0  0  0  0  0  0
   36.8420   30.0420   37.8880 C   0  0  0  0  0  0  0  0  0  0  0  0
   36.6810   29.7650   36.5440 O   0  0  0  0  0  0  0  0  0  0  0  0
   35.8930   28.6900   36.2480 C   0  0  0  0  0  0  0  0  0  0  0  0
   34.5210   28.9060   36.8410 C   0  0  1  0  0  0  0  0  0  0  0  0
   34.0760   28.4650   38.8070 H   0  0  0  0  0  0  0  0  0  0  0  0
   36.2610   28.2010   38.8890 H   0  0  0  0  0  0  0  0  0  0  0  0
   36.7080   31.1300   38.0750 H   0  0  0  0  0  0  0  0  0  0  0  0
   37.8700   29.7550   38.0980 H   0  0  0  0  0  0  0  0  0  0  0  0
   36.3180   27.7890   36.7390 H   0  0  0  0  0  0  0  0  0  0  0  0
   35.8120   28.6030   35.1660 H   0  0  0  0  0  0  0  0  0  0  0  0
   34.0540   29.7200   36.2500 H   0  0  0  0  0  0  0  0  0  0  0  0
   33.6980   27.7830   36.6550 O   0  0  0  0  0  0  0  0  0  0  0  0
   31.7470   29.4880   37.0090 O   0  0  0  0  0  0  0  0  0  0  0  0
   32.1990   28.3250   36.1490 P   0  0  0  0  0  0  0  0  0  0  0  0
   31.0080   27.1350   36.1890 O   0  0  0  0  0  0  0  0  0  0  0  0
   30.3110   27.2730   36.8630 H   0  0  0  0  0  0  0  0  0  0  0  0
   32.2420   28.8930   34.5440 O   0  0  0  0  0  0  0  0  0  0  0  0
   32.8150   28.2770   34.0290 H   0  0  0  0  0  0  0  0  0  0  0  0
  1 10  1  0  0  0  0
  2 18  1  0  0  0  0
  2  1  2  0  0  0  0
  3  2  1  0  0  0  0
  4  3  2  0  0  0  0
  4  8  1  0  0  0  0
  5  6  1  0  0  0  0
  5  4  1  0  0  0  0
  6  7  2  0  0  0  0
  7  8  1  0  0  0  0
  8  9  2  0  0  0  0
  9  1  1  0  0  0  0
  9 13  1  0  0  0  0
 11  5  1  0  0  0  0
 12  6  1  0  0  0  0
 14 20  1  0  0  0  0
 15 21  1  0  0  0  0
 15 14  2  0  0  0  0
 16 15  1  0  0  0  0
 17 16  2  0  0  0  0
 17 18  1  0  0  0  0
 18 19  2  0  0  0  0
 19 14  1  0  0  0  0
 22 16  1  0  0  0  0
 23  3  1  0  0  0  0
 24 25  1  0  0  0  0
 24 30  1  0  0  0  0
 25 31  1  1  0  0  0
 25 23  1  0  0  0  0
 26 32  1  0  0  0  0
 26 33  1  0  0  0  0
 26 25  1  0  0  0  0
 27 26  1  0  0  0  0
 28 27  1  0  0  0  0
 28 34  1  0  0  0  0
 28 29  1  0  0  0  0
 29 36  1  6  0  0  0
 29 24  1  0  0  0  0
 35 28  1  0  0  0  0
 37 29  1  0  0  0  0
 39 40  1  0  0  0  0
 39 37  1  0  0  0  0
 39 38  2  0  0  0  0
 40 41  1  0  0  0  0
 42 39  1  0  0  0  0
 43 42  1  0  0  0  0
M  END
>  <minimizedAffinity>
-5.71759319

$$$$

 OpenBabel03252509153D

 43 46  0  0  1  0  0  0  0  0999 V2000
   35.0780   28.5430   39.1480 C   0  0  0  0  0  0  0  0  0  0  0  0
   36.4210   28.3250   39.4590 C   0  0  0  0  0  0  0  0  0  0  0  0
   37.4280   28.3490   38.5070 C   0  0  0  0  0  0  0  0  0  0  0  0
   37.0970   28.6010   37.1620 C   0  0  0  0  0  0  0  0  0  0  0  0
   37.7780   28.6950   36.0120 N   0  0  0  0  0  0  0  0  0  0  0  0
   36.9300   28.9610   35.0030 C   0  0  0  0  0  0  0  0  0  0  0  0
   35.7050   29.0280   35.5590 N   0  0  0  0  0  0  0  0  0  0  0  0
   35.7790   28.8110   36.8810 C   0  0  0  0  0  0  0  0  0  0  0  0
   34.7390   28.7950   37.8140 C   0  0  0  0  0  0  0  0  0  0  0  0
   34.3300   28.5150   39.9310 H   0  0  0  0  0  0  0  0  0  0  0  0
   38.8240   28.5620   36.0200 H   0  0  0  0  0  0  0  0  0  0  0  0
   37.3510   29.0630   34.0110 H   0  0  0  0  0  0  0  0  0  0  0  0
   33.7180   28.9650   37.5500 H   0  0  0  0  0  0  0  0  0  0  0  0
   37.3590   28.8570   42.9560 C   0  0  0  0  0  0  0  0  0  0  0  0
   37.4780   27.5640   43.4520 C   0  0  0  0  0  0  0  0  0  0  0  0
   37.2330   26.5100   42.5740 C   0  0  0  0  0  0  0  0  0  0  0  0
   36.8890   26.7820   41.2740 N   0  0  0  0  0  0  0  0  0  0  0  0
   36.7870   28.0630   40.8400 C   0  0  0  0  0  0  0  0  0  0  0  0
   37.0160   29.1220   41.6580 N   0  0  0  0  0  0  0  0  0  0  0  0
   37.5510   29.6740   43.6470 H   0  0  0  0  0  0  0  0  0  0  0  0
   37.7510   27.3850   44.4820 H   0  0  0  0  0  0  0  0  0  0  0  0
   37.3080   25.4800   42.8940 H   0  0  0  0  0  0  0  0  0  0  0  0
   39.1260   28.0690   38.9240 S   0  0  0  0  0  0  0  0  0  0  0  0
   38.9970   30.5330   39.8170 N   0  0  0  0  0  0  0  0  0  0  0  0
   40.0100   29.5640   39.4100 C   0  0  1  0  0  0  0  0  0  0  0  0
   40.8920   29.1750   40.5910 C   0  0  0  0  0  0  0  0  0  0  0  0
   41.2850   30.2510   41.3650 O   0  0  0  0  0  0  0  0  0  0  0  0
   41.0110   31.4850   40.8500 C   0  0  0  0  0  0  0  0  0  0  0  0
   39.5220   31.6040   40.6190 C   0  0  1  0  0  0  0  0  0  0  0  0
   38.6000   30.8870   38.9180 H   0  0  0  0  0  0  0  0  0  0  0  0
   40.6010   30.0180   38.6080 H   0  0  0  0  0  0  0  0  0  0  0  0
   40.3780   28.4170   41.2200 H   0  0  0  0  0  0  0  0  0  0  0  0
   41.8250   28.7670   40.2090 H   0  0  0  0  0  0  0  0  0  0  0  0
   41.4990   31.5760   39.8570 H   0  0  0  0  0  0  0  0  0  0  0  0
   41.3280   32.2410   41.5660 H   0  0  0  0  0  0  0  0  0  0  0  0
   39.0560   31.6500   41.6250 H   0  0  0  0  0  0  0  0  0  0  0  0
   39.1950   32.8170   39.9940 O   0  0  0  0  0  0  0  0  0  0  0  0
   37.0290   34.1580   39.4020 O   0  0  0  0  0  0  0  0  0  0  0  0
   37.5770   32.7560   39.5710 P   0  0  0  0  0  0  0  0  0  0  0  0
   36.6230   31.9380   40.6920 O   0  0  0  0  0  0  0  0  0  0  0  0
   35.9910   32.5040   41.1830 H   0  0  0  0  0  0  0  0  0  0  0  0
   37.3440   31.9580   38.0840 O   0  0  0  0  0  0  0  0  0  0  0  0
   37.9540   31.1830   38.0670 H   0  0  0  0  0  0  0  0  0  0  0  0
  1  2  1  0  0  0  0
  1 10  1  0  0  0  0
  2 18  1  0  0  0  0
  3 23  1  0  0  0  0
  3  2  2  0  0  0  0
  4  3  1  0  0  0  0
  5 11  1  0  0  0  0
  5  4  1  0  0  0  0
  6  7  2  0  0  0  0
  6  5  1  0  0  0  0
  7  8  1  0  0  0  0
  8  4  2  0  0  0  0
  8  9  1  0  0  0  0
  9  1  2  0  0  0  0
 12  6  1  0  0  0  0
 13  9  1  0  0  0  0
 14 15  1  0  0  0  0
 14 20  1  0  0  0  0
 15 21  1  0  0  0  0
 16 22  1  0  0  0  0
 16 15  2  0  0  0  0
 17 16  1  0  0  0  0
 18 17  2  0  0  0  0
 18 19  1  0  0  0  0
 19 14  2  0  0  0  0
 23 25  1  0  0  0  0
 24 29  1  0  0  0  0
 25 31  1  6  0  0  0
 25 24  1  0  0  0  0
 25 26  1  0  0  0  0
 26 32  1  0  0  0  0
 26 27  1  0  0  0  0
 28 27  1  0  0  0  0
 28 35  1  0  0  0  0
 29 28  1  0  0  0  0
 29 36  1  1  0  0  0
 30 24  1  0  0  0  0
 33 26  1  0  0  0  0
 34 28  1  0  0  0  0
 37 29  1  0  0  0  0
 38 39  2  0  0  0  0
 39 37  1  0  0  0  0
 39 40  1  0  0  0  0
 40 41  1  0  0  0  0
 42 39  1  0  0  0  0
 43 42  1  0  0  0  0
M  END
>  <minimizedAffinity>
-5.6392622

$$$$

 OpenBabel03252509153D

 43 46  0  0  1  0  0  0  0  0999 V2000
   40.4470   31.0870   41.6400 C   0  0  0  0  0  0  0  0  0  0  0  0
   39.2830   30.3210   41.5600 C   0  0  0  0  0  0  0  0  0  0  0  0
   38.0910   30.8120   41.0500 C   0  0  0  0  0  0  0  0  0  0  0  0
   38.0360   32.1410   40.5900 C   0  0  0  0  0  0  0  0  0  0  0  0
   37.0940   32.9290   40.0540 N   0  0  0  0  0  0  0  0  0  0  0  0
   37.6110   34.1440   39.7970 C   0  0  0  0  0  0  0  0  0  0  0  0
   38.8980   34.0880   40.1880 N   0  0  0  0  0  0  0  0  0  0  0  0
   39.1860   32.8720   40.6780 C   0  0  0  0  0  0  0  0  0  0  0  0
   40.4020   32.4090   41.1850 C   0  0  0  0  0  0  0  0  0  0  0  0
   41.3520   30.6530   42.0470 H   0  0  0  0  0  0  0  0  0  0  0  0
   36.1250   32.5430   39.9030 H   0  0  0  0  0  0  0  0  0  0  0  0
   36.9520   34.8840   39.3600 H   0  0  0  0  0  0  0  0  0  0  0  0
   41.2800   33.0170   41.2360 H   0  0  0  0  0  0  0  0  0  0  0  0
   40.0600   26.7520   41.7780 C   0  0  0  0  0  0  0  0  0  0  0  0
   39.3750   26.3470   42.9170 C   0  0  0  0  0  0  0  0  0  0  0  0
   38.6440   27.3120   43.6080 C   0  0  0  0  0  0  0  0  0  0  0  0
   38.6280   28.6040   43.1470 N   0  0  0  0  0  0  0  0  0  0  0  0
   39.3150   28.9470   42.0280 C   0  0  0  0  0  0  0  0  0  0  0  0
   40.0410   28.0420   41.3220 N   0  0  0  0  0  0  0  0  0  0  0  0
   40.6280   25.9930   41.2440 H   0  0  0  0  0  0  0  0  0  0  0  0
   39.4080   25.3210   43.2530 H   0  0  0  0  0  0  0  0  0  0  0  0
   38.0880   27.0650   44.5020 H   0  0  0  0  0  0  0  0  0  0  0  0
   36.6260   29.8220   40.9580 S   0  0  0  0  0  0  0  0  0  0  0  0
   36.8600   27.2570   40.4600 N   0  0  0  0  0  0  0  0  0  0  0  0
   36.7140   28.5080   39.7250 C   0  0  1  0  0  0  0  0  0  0  0  0
   35.3900   28.5410   38.9700 C   0  0  0  0  0  0  0  0  0  0  0  0
   35.0970   27.3580   38.3180 O   0  0  0  0  0  0  0  0  0  0  0  0
   36.1050   26.4390   38.2720 C   0  0  0  0  0  0  0  0  0  0  0  0
   36.5250   26.0960   39.6820 C   0  0  1  0  0  0  0  0  0  0  0  0
   37.8620   27.2430   40.7560 H   0  0  0  0  0  0  0  0  0  0  0  0
   37.5630   28.5920   39.0390 H   0  0  0  0  0  0  0  0  0  0  0  0
   34.5620   28.8160   39.6590 H   0  0  0  0  0  0  0  0  0  0  0  0
   35.4640   29.2750   38.1700 H   0  0  0  0  0  0  0  0  0  0  0  0
   36.9860   26.8990   37.7760 H   0  0  0  0  0  0  0  0  0  0  0  0
   35.7390   25.5430   37.7740 H   0  0  0  0  0  0  0  0  0  0  0  0
   35.6870   25.5160   40.1210 H   0  0  0  0  0  0  0  0  0  0  0  0
   37.6300   25.2300   39.6920 O   0  0  0  0  0  0  0  0  0  0  0  0
   36.5040   24.4130   41.9060 O   0  0  0  0  0  0  0  0  0  0  0  0
   37.2560   23.9340   40.6820 P   0  0  0  0  0  0  0  0  0  0  0  0
   38.6070   23.0660   41.1880 O   0  0  0  0  0  0  0  0  0  0  0  0
   38.8070   23.1370   42.1440 H   0  0  0  0  0  0  0  0  0  0  0  0
   36.2440   22.8120   39.8950 O   0  0  0  0  0  0  0  0  0  0  0  0
   36.5620   22.7290   38.9650 H   0  0  0  0  0  0  0  0  0  0  0  0
  1 10  1  0  0  0  0
  2  1  1  0  0  0  0
  2 18  1  0  0  0  0
  3  2  2  0  0  0  0
  4  8  2  0  0  0  0
  4  3  1  0  0  0  0
  5  4  1  0  0  0  0
  6  5  1  0  0  0  0
  6  7  2  0  0  0  0
  7  8  1  0  0  0  0
  8  9  1  0  0  0  0
  9 13  1  0  0  0  0
  9  1  2  0  0  0  0
 11  5  1  0  0  0  0
 12  6  1  0  0  0  0
 14 15  1  0  0  0  0
 15 21  1  0  0  0  0
 15 16  2  0  0  0  0
 16 22  1  0  0  0  0
 17 16  1  0  0  0  0
 18 17  2  0  0  0  0
 19 14  2  0  0  0  0
 19 18  1  0  0  0  0
 20 14  1  0  0  0  0
 23  3  1  0  0  0  0
 24 30  1  0  0  0  0
 25 31  1  6  0  0  0
 25 24  1  0  0  0  0
 25 23  1  0  0  0  0
 26 32  1  0  0  0  0
 26 25  1  0  0  0  0
 27 26  1  0  0  0  0
 28 27  1  0  0  0  0
 28 29  1  0  0  0  0
 29 37  1  0  0  0  0
 29 36  1  1  0  0  0
 29 24  1  0  0  0  0
 33 26  1  0  0  0  0
 34 28  1  0  0  0  0
 35 28  1  0  0  0  0
 37 39  1  0  0  0  0
 39 40  1  0  0  0  0
 39 38  2  0  0  0  0
 40 41  1  0  0  0  0
 42 39  1  0  0  0  0
 43 42  1  0  0  0  0
M  END
>  <minimizedAffinity>
-5.60524368

$$$$
