
 OpenBabel03252504163D

 33 34  0  0  0  0  0  0  0  0999 V2000
   40.0030   31.5350   39.6910 F   0  0  0  0  0  0  0  0  0  0  0  0
   40.9590   31.8110   40.6460 C   0  0  0  0  0  0  0  0  0  0  0  0
   41.0220   31.0420   41.7820 C   0  0  0  0  0  0  0  0  0  0  0  0
   42.0150   31.3810   42.7070 C   0  0  0  0  0  0  0  0  0  0  0  0
   42.8630   32.4350   42.4570 C   0  0  0  0  0  0  0  0  0  0  0  0
   42.7410   33.1800   41.2730 C   0  0  0  0  0  0  0  0  0  0  0  0
   41.7700   32.8700   40.3400 C   0  0  0  0  0  0  0  0  0  0  0  0
   42.1250   30.8180   43.6240 H   0  0  0  0  0  0  0  0  0  0  0  0
   43.6140   32.6550   43.2060 H   0  0  0  0  0  0  0  0  0  0  0  0
   43.4280   34.0010   41.1150 H   0  0  0  0  0  0  0  0  0  0  0  0
   37.9220   29.1400   41.9910 C   0  0  0  0  0  0  0  0  0  0  0  0
   38.3240   27.8790   42.4330 C   0  0  0  0  0  0  0  0  0  0  0  0
   39.7080   27.6880   42.6640 C   0  0  0  0  0  0  0  0  0  0  0  0
   40.5580   28.7190   42.4490 N   0  0  0  0  0  0  0  0  0  0  0  0
   40.1100   29.9290   42.0160 C   0  0  0  0  0  0  0  0  0  0  0  0
   38.8020   30.1310   41.7910 N   0  0  0  0  0  0  0  0  0  0  0  0
   40.0560   26.7240   43.0080 H   0  0  0  0  0  0  0  0  0  0  0  0
   37.3360   26.8070   42.6450 C   0  0  0  0  0  0  0  0  0  0  0  0
   36.4160   27.2130   43.6050 F   0  0  0  0  0  0  0  0  0  0  0  0
   36.6280   26.6560   41.4650 F   0  0  0  0  0  0  0  0  0  0  0  0
   37.8410   25.6110   43.0200 F   0  0  0  0  0  0  0  0  0  0  0  0
   36.5970   29.3160   41.7710 O   0  0  0  0  0  0  0  0  0  0  0  0
   35.9920   29.6800   40.5420 C   0  0  0  0  0  0  0  0  0  0  0  0
   35.8800   31.0750   40.5530 F   0  0  0  0  0  0  0  0  0  0  0  0
   36.7220   29.2040   39.4910 F   0  0  0  0  0  0  0  0  0  0  0  0
   34.6860   29.2320   40.5340 F   0  0  0  0  0  0  0  0  0  0  0  0
   41.6940   33.6250   39.2030 O   0  0  0  0  0  0  0  0  0  0  0  0
   42.7580   31.8270   37.6600 O   0  0  0  0  0  0  0  0  0  0  0  0
   41.8460   33.0570   37.6230 P   0  0  0  0  0  0  0  0  0  0  0  0
   42.6260   34.1610   36.5930 O   0  0  0  0  0  0  0  0  0  0  0  0
   43.3260   34.6670   37.0830 H   0  0  0  0  0  0  0  0  0  0  0  0
   40.4090   32.5390   36.9240 O   0  0  0  0  0  0  0  0  0  0  0  0
   40.0130   31.8070   37.4250 H   0  0  0  0  0  0  0  0  0  0  0  0
  1  2  1  0  0  0  0
  2  3  1  0  0  0  0
  3 15  1  0  0  0  0
  3  4  2  0  0  0  0
  4  8  1  0  0  0  0
  5  4  1  0  0  0  0
  5  9  1  0  0  0  0
  6  5  2  0  0  0  0
  7  2  2  0  0  0  0
  7  6  1  0  0  0  0
 10  6  1  0  0  0  0
 11 12  1  0  0  0  0
 12 18  1  0  0  0  0
 12 13  2  0  0  0  0
 13 17  1  0  0  0  0
 14 13  1  0  0  0  0
 15 14  2  0  0  0  0
 16 11  2  0  0  0  0
 16 15  1  0  0  0  0
 18 21  1  0  0  0  0
 18 19  1  0  0  0  0
 20 18  1  0  0  0  0
 22 11  1  0  0  0  0
 23 24  1  0  0  0  0
 23 22  1  0  0  0  0
 25 23  1  0  0  0  0
 26 23  1  0  0  0  0
 27  7  1  0  0  0  0
 29 28  2  0  0  0  0
 29 27  1  0  0  0  0
 30 31  1  0  0  0  0
 30 29  1  0  0  0  0
 32 33  1  0  0  0  0
 32 29  1  0  0  0  0
M  END
>  <minimizedAffinity>
-6.49675512

$$$$

 OpenBabel03252504163D

 33 34  0  0  0  0  0  0  0  0999 V2000
   40.1430   29.6310   39.6600 F   0  0  0  0  0  0  0  0  0  0  0  0
   39.1390   30.5450   39.9010 C   0  0  0  0  0  0  0  0  0  0  0  0
   37.9130   30.1040   40.3340 C   0  0  0  0  0  0  0  0  0  0  0  0
   36.9420   31.0880   40.5550 C   0  0  0  0  0  0  0  0  0  0  0  0
   37.2380   32.4130   40.3390 C   0  0  0  0  0  0  0  0  0  0  0  0
   38.5150   32.7930   39.8950 C   0  0  0  0  0  0  0  0  0  0  0  0
   39.4950   31.8460   39.6670 C   0  0  0  0  0  0  0  0  0  0  0  0
   35.9530   30.8140   40.8980 H   0  0  0  0  0  0  0  0  0  0  0  0
   36.4500   33.1330   40.5260 H   0  0  0  0  0  0  0  0  0  0  0  0
   38.7060   33.8470   39.7370 H   0  0  0  0  0  0  0  0  0  0  0  0
   37.9860   26.7970   41.8580 C   0  0  0  0  0  0  0  0  0  0  0  0
   37.1490   26.0270   41.0470 C   0  0  0  0  0  0  0  0  0  0  0  0
   36.5480   26.6790   39.9430 C   0  0  0  0  0  0  0  0  0  0  0  0
   36.8070   27.9910   39.7320 N   0  0  0  0  0  0  0  0  0  0  0  0
   37.6310   28.6910   40.5570 C   0  0  0  0  0  0  0  0  0  0  0  0
   38.2130   28.0930   41.6090 N   0  0  0  0  0  0  0  0  0  0  0  0
   35.8940   26.1140   39.2920 H   0  0  0  0  0  0  0  0  0  0  0  0
   36.9180   24.6040   41.3420 C   0  0  0  0  0  0  0  0  0  0  0  0
   35.8590   24.1400   40.5710 F   0  0  0  0  0  0  0  0  0  0  0  0
   38.0390   23.9060   40.9270 F   0  0  0  0  0  0  0  0  0  0  0  0
   36.6630   24.3090   42.6360 F   0  0  0  0  0  0  0  0  0  0  0  0
   38.5580   26.1680   42.9120 O   0  0  0  0  0  0  0  0  0  0  0  0
   39.9010   25.7200   42.9930 C   0  0  0  0  0  0  0  0  0  0  0  0
   40.3310   25.5160   41.6770 F   0  0  0  0  0  0  0  0  0  0  0  0
   40.6650   26.6210   43.6780 F   0  0  0  0  0  0  0  0  0  0  0  0
   39.9210   24.4600   43.5590 F   0  0  0  0  0  0  0  0  0  0  0  0
   40.7210   32.2680   39.2360 O   0  0  0  0  0  0  0  0  0  0  0  0
   42.2230   31.3980   37.3040 O   0  0  0  0  0  0  0  0  0  0  0  0
   41.1900   32.4800   37.6300 P   0  0  0  0  0  0  0  0  0  0  0  0
   41.9860   33.9560   37.3600 O   0  0  0  0  0  0  0  0  0  0  0  0
   42.5350   34.2110   38.1480 H   0  0  0  0  0  0  0  0  0  0  0  0
   39.9530   32.2830   36.5100 O   0  0  0  0  0  0  0  0  0  0  0  0
   39.5730   31.3910   36.5520 H   0  0  0  0  0  0  0  0  0  0  0  0
  1  2  1  0  0  0  0
  2  3  1  0  0  0  0
  3  4  2  0  0  0  0
  3 15  1  0  0  0  0
  4  8  1  0  0  0  0
  5  9  1  0  0  0  0
  5  4  1  0  0  0  0
  6  5  2  0  0  0  0
  7  6  1  0  0  0  0
  7  2  2  0  0  0  0
 10  6  1  0  0  0  0
 11 22  1  0  0  0  0
 12 18  1  0  0  0  0
 12 11  2  0  0  0  0
 13 12  1  0  0  0  0
 14 13  2  0  0  0  0
 14 15  1  0  0  0  0
 15 16  2  0  0  0  0
 16 11  1  0  0  0  0
 17 13  1  0  0  0  0
 18 21  1  0  0  0  0
 19 18  1  0  0  0  0
 20 18  1  0  0  0  0
 22 23  1  0  0  0  0
 23 26  1  0  0  0  0
 23 25  1  0  0  0  0
 24 23  1  0  0  0  0
 27  7  1  0  0  0  0
 28 29  2  0  0  0  0
 29 27  1  0  0  0  0
 30 29  1  0  0  0  0
 30 31  1  0  0  0  0
 32 33  1  0  0  0  0
 32 29  1  0  0  0  0
M  END
>  <minimizedAffinity>
-6.04546595

$$$$

 OpenBabel03252504163D

 33 34  0  0  0  0  0  0  0  0999 V2000
   39.5240   31.1910   39.6680 F   0  0  0  0  0  0  0  0  0  0  0  0
   40.5310   31.4290   40.5800 C   0  0  0  0  0  0  0  0  0  0  0  0
   40.6700   30.6010   41.6660 C   0  0  0  0  0  0  0  0  0  0  0  0
   41.7110   30.9060   42.5500 C   0  0  0  0  0  0  0  0  0  0  0  0
   42.5300   31.9840   42.3090 C   0  0  0  0  0  0  0  0  0  0  0  0
   42.3300   32.7900   41.1760 C   0  0  0  0  0  0  0  0  0  0  0  0
   41.3100   32.5150   40.2850 C   0  0  0  0  0  0  0  0  0  0  0  0
   41.8810   30.2970   43.4270 H   0  0  0  0  0  0  0  0  0  0  0  0
   43.3210   32.1750   43.0240 H   0  0  0  0  0  0  0  0  0  0  0  0
   42.9970   33.6280   41.0240 H   0  0  0  0  0  0  0  0  0  0  0  0
   39.1250   27.3290   41.2480 C   0  0  0  0  0  0  0  0  0  0  0  0
   38.1580   27.2760   42.2530 C   0  0  0  0  0  0  0  0  0  0  0  0
   38.0420   28.4090   43.0950 C   0  0  0  0  0  0  0  0  0  0  0  0
   38.8600   29.4680   42.8880 N   0  0  0  0  0  0  0  0  0  0  0  0
   39.7860   29.4640   41.8920 C   0  0  0  0  0  0  0  0  0  0  0  0
   39.9120   28.4000   41.0820 N   0  0  0  0  0  0  0  0  0  0  0  0
   37.3040   28.4040   43.8850 H   0  0  0  0  0  0  0  0  0  0  0  0
   37.3050   26.0870   42.4130 C   0  0  0  0  0  0  0  0  0  0  0  0
   36.3150   26.3530   43.3520 F   0  0  0  0  0  0  0  0  0  0  0  0
   36.6550   25.8770   41.2100 F   0  0  0  0  0  0  0  0  0  0  0  0
   37.9430   24.9540   42.7790 F   0  0  0  0  0  0  0  0  0  0  0  0
   39.2310   26.2430   40.4470 O   0  0  0  0  0  0  0  0  0  0  0  0
   40.2490   25.2580   40.4990 C   0  0  0  0  0  0  0  0  0  0  0  0
   39.6010   24.0180   40.5180 F   0  0  0  0  0  0  0  0  0  0  0  0
   41.1080   25.4040   39.4460 F   0  0  0  0  0  0  0  0  0  0  0  0
   40.8840   25.3320   41.7220 F   0  0  0  0  0  0  0  0  0  0  0  0
   41.1580   33.3290   39.1970 O   0  0  0  0  0  0  0  0  0  0  0  0
   42.4100   31.6930   37.6150 O   0  0  0  0  0  0  0  0  0  0  0  0
   41.4880   32.9160   37.5960 P   0  0  0  0  0  0  0  0  0  0  0  0
   42.3560   34.1180   36.7650 O   0  0  0  0  0  0  0  0  0  0  0  0
   42.9910   34.5790   37.3740 H   0  0  0  0  0  0  0  0  0  0  0  0
   40.1430   32.4590   36.7000 O   0  0  0  0  0  0  0  0  0  0  0  0
   39.7070   31.6800   37.0840 H   0  0  0  0  0  0  0  0  0  0  0  0
  1  2  1  0  0  0  0
  2  3  1  0  0  0  0
  3 15  1  0  0  0  0
  3  4  2  0  0  0  0
  4  8  1  0  0  0  0
  5  4  1  0  0  0  0
  5  9  1  0  0  0  0
  6  5  2  0  0  0  0
  7  2  2  0  0  0  0
  7  6  1  0  0  0  0
 10  6  1  0  0  0  0
 11 12  1  0  0  0  0
 12 18  1  0  0  0  0
 12 13  2  0  0  0  0
 13 17  1  0  0  0  0
 14 13  1  0  0  0  0
 15 14  2  0  0  0  0
 16 11  2  0  0  0  0
 16 15  1  0  0  0  0
 18 21  1  0  0  0  0
 18 19  1  0  0  0  0
 20 18  1  0  0  0  0
 22 23  1  0  0  0  0
 22 11  1  0  0  0  0
 23 24  1  0  0  0  0
 23 26  1  0  0  0  0
 25 23  1  0  0  0  0
 27  7  1  0  0  0  0
 29 28  2  0  0  0  0
 29 27  1  0  0  0  0
 30 31  1  0  0  0  0
 30 29  1  0  0  0  0
 32 33  1  0  0  0  0
 32 29  1  0  0  0  0
M  END
>  <minimizedAffinity>
-5.89526129

$$$$

 OpenBabel03252504163D

 33 34  0  0  0  0  0  0  0  0999 V2000
   37.3770   29.5240   36.5650 F   0  0  0  0  0  0  0  0  0  0  0  0
   36.0200   29.2770   36.5940 C   0  0  0  0  0  0  0  0  0  0  0  0
   35.4040   29.0310   37.7960 C   0  0  0  0  0  0  0  0  0  0  0  0
   34.0270   28.7860   37.7490 C   0  0  0  0  0  0  0  0  0  0  0  0
   33.3630   28.8010   36.5450 C   0  0  0  0  0  0  0  0  0  0  0  0
   34.0580   29.0600   35.3520 C   0  0  0  0  0  0  0  0  0  0  0  0
   35.4170   29.3040   35.3660 C   0  0  0  0  0  0  0  0  0  0  0  0
   33.4740   28.5860   38.6570 H   0  0  0  0  0  0  0  0  0  0  0  0
   32.2970   28.6050   36.5650 H   0  0  0  0  0  0  0  0  0  0  0  0
   33.4970   29.0610   34.4270 H   0  0  0  0  0  0  0  0  0  0  0  0
   36.7810   27.8430   40.9520 C   0  0  0  0  0  0  0  0  0  0  0  0
   37.4950   28.9360   41.4470 C   0  0  0  0  0  0  0  0  0  0  0  0
   37.4950   30.1130   40.6610 C   0  0  0  0  0  0  0  0  0  0  0  0
   36.8150   30.1230   39.4900 N   0  0  0  0  0  0  0  0  0  0  0  0
   36.1360   29.0260   39.0570 C   0  0  0  0  0  0  0  0  0  0  0  0
   36.1230   27.8990   39.7860 N   0  0  0  0  0  0  0  0  0  0  0  0
   38.0380   30.9800   41.0130 H   0  0  0  0  0  0  0  0  0  0  0  0
   38.2090   28.8470   42.7310 C   0  0  0  0  0  0  0  0  0  0  0  0
   38.5970   30.1200   43.1310 F   0  0  0  0  0  0  0  0  0  0  0  0
   37.3050   28.3990   43.6790 F   0  0  0  0  0  0  0  0  0  0  0  0
   39.2990   28.0480   42.7420 F   0  0  0  0  0  0  0  0  0  0  0  0
   36.7850   26.7190   41.7080 O   0  0  0  0  0  0  0  0  0  0  0  0
   37.4360   25.5000   41.3940 C   0  0  0  0  0  0  0  0  0  0  0  0
   37.8500   24.9470   42.6120 F   0  0  0  0  0  0  0  0  0  0  0  0
   36.6030   24.6820   40.6850 F   0  0  0  0  0  0  0  0  0  0  0  0
   38.6120   25.7770   40.7260 F   0  0  0  0  0  0  0  0  0  0  0  0
   36.0470   29.5520   34.1780 O   0  0  0  0  0  0  0  0  0  0  0  0
   35.0660   31.8260   33.3940 O   0  0  0  0  0  0  0  0  0  0  0  0
   36.3920   31.0730   33.5370 P   0  0  0  0  0  0  0  0  0  0  0  0
   37.0380   31.0010   31.9670 O   0  0  0  0  0  0  0  0  0  0  0  0
   36.6400   30.2480   31.4560 H   0  0  0  0  0  0  0  0  0  0  0  0
   37.3620   32.0390   34.5110 O   0  0  0  0  0  0  0  0  0  0  0  0
   36.9450   32.2090   35.3720 H   0  0  0  0  0  0  0  0  0  0  0  0
  1  2  1  0  0  0  0
  2  3  1  0  0  0  0
  3 15  1  0  0  0  0
  4  3  2  0  0  0  0
  4  8  1  0  0  0  0
  5  9  1  0  0  0  0
  5  4  1  0  0  0  0
  6  7  1  0  0  0  0
  6  5  2  0  0  0  0
  7  2  2  0  0  0  0
 10  6  1  0  0  0  0
 11 12  1  0  0  0  0
 11 22  1  0  0  0  0
 12 18  1  0  0  0  0
 13 17  1  0  0  0  0
 13 12  2  0  0  0  0
 14 13  1  0  0  0  0
 15 14  2  0  0  0  0
 15 16  1  0  0  0  0
 16 11  2  0  0  0  0
 18 21  1  0  0  0  0
 18 19  1  0  0  0  0
 18 20  1  0  0  0  0
 23 22  1  0  0  0  0
 23 24  1  0  0  0  0
 25 23  1  0  0  0  0
 26 23  1  0  0  0  0
 27  7  1  0  0  0  0
 28 29  2  0  0  0  0
 29 27  1  0  0  0  0
 29 32  1  0  0  0  0
 30 29  1  0  0  0  0
 31 30  1  0  0  0  0
 32 33  1  0  0  0  0
M  END
>  <minimizedAffinity>
-5.74288511

$$$$

 OpenBabel03252504163D

 33 34  0  0  0  0  0  0  0  0999 V2000
   41.1380   30.6660   39.9210 F   0  0  0  0  0  0  0  0  0  0  0  0
   40.1090   31.5740   40.0610 C   0  0  0  0  0  0  0  0  0  0  0  0
   38.9280   31.1750   40.6370 C   0  0  0  0  0  0  0  0  0  0  0  0
   37.9290   32.1480   40.7440 C   0  0  0  0  0  0  0  0  0  0  0  0
   38.1550   33.4240   40.2840 C   0  0  0  0  0  0  0  0  0  0  0  0
   39.3880   33.7630   39.7040 C   0  0  0  0  0  0  0  0  0  0  0  0
   40.3940   32.8250   39.5840 C   0  0  0  0  0  0  0  0  0  0  0  0
   36.9730   31.9060   41.1880 H   0  0  0  0  0  0  0  0  0  0  0  0
   37.3470   34.1390   40.3910 H   0  0  0  0  0  0  0  0  0  0  0  0
   39.5230   34.7790   39.3550 H   0  0  0  0  0  0  0  0  0  0  0  0
   37.5080   27.8360   40.9610 C   0  0  0  0  0  0  0  0  0  0  0  0
   38.2680   27.2370   41.9680 C   0  0  0  0  0  0  0  0  0  0  0  0
   39.2980   28.0170   42.5460 C   0  0  0  0  0  0  0  0  0  0  0  0
   39.4930   29.2820   42.1040 N   0  0  0  0  0  0  0  0  0  0  0  0
   38.7210   29.8140   41.1180 C   0  0  0  0  0  0  0  0  0  0  0  0
   37.7390   29.0920   40.5560 N   0  0  0  0  0  0  0  0  0  0  0  0
   39.9070   27.5860   43.3290 H   0  0  0  0  0  0  0  0  0  0  0  0
   37.9930   25.8550   42.3950 C   0  0  0  0  0  0  0  0  0  0  0  0
   38.3770   24.9770   41.3890 F   0  0  0  0  0  0  0  0  0  0  0  0
   38.8090   25.5860   43.4800 F   0  0  0  0  0  0  0  0  0  0  0  0
   36.7100   25.5880   42.7240 F   0  0  0  0  0  0  0  0  0  0  0  0
   36.5250   27.0850   40.4110 O   0  0  0  0  0  0  0  0  0  0  0  0
   36.5280   26.5200   39.1110 C   0  0  0  0  0  0  0  0  0  0  0  0
   37.8700   26.4150   38.7280 F   0  0  0  0  0  0  0  0  0  0  0  0
   35.8690   25.3230   39.1090 F   0  0  0  0  0  0  0  0  0  0  0  0
   35.9890   27.4300   38.2240 F   0  0  0  0  0  0  0  0  0  0  0  0
   41.5760   33.2060   39.0130 O   0  0  0  0  0  0  0  0  0  0  0  0
   43.3570   31.9370   37.6110 O   0  0  0  0  0  0  0  0  0  0  0  0
   42.1030   32.8040   37.4620 P   0  0  0  0  0  0  0  0  0  0  0  0
   42.5980   34.1550   36.5580 O   0  0  0  0  0  0  0  0  0  0  0  0
   43.0260   34.8340   37.1440 H   0  0  0  0  0  0  0  0  0  0  0  0
   41.0160   31.8850   36.5700 O   0  0  0  0  0  0  0  0  0  0  0  0
   40.8240   31.0390   37.0050 H   0  0  0  0  0  0  0  0  0  0  0  0
  1  2  1  0  0  0  0
  2  3  1  0  0  0  0
  3  4  2  0  0  0  0
  3 15  1  0  0  0  0
  4  8  1  0  0  0  0
  5  9  1  0  0  0  0
  5  4  1  0  0  0  0
  6  5  2  0  0  0  0
  7  6  1  0  0  0  0
  7  2  2  0  0  0  0
 10  6  1  0  0  0  0
 11 12  1  0  0  0  0
 12 18  1  0  0  0  0
 12 13  2  0  0  0  0
 13 17  1  0  0  0  0
 14 13  1  0  0  0  0
 15 14  2  0  0  0  0
 16 11  2  0  0  0  0
 16 15  1  0  0  0  0
 18 21  1  0  0  0  0
 18 20  1  0  0  0  0
 19 18  1  0  0  0  0
 22 11  1  0  0  0  0
 23 22  1  0  0  0  0
 24 23  1  0  0  0  0
 25 23  1  0  0  0  0
 26 23  1  0  0  0  0
 27  7  1  0  0  0  0
 29 28  2  0  0  0  0
 29 27  1  0  0  0  0
 30 31  1  0  0  0  0
 30 29  1  0  0  0  0
 32 33  1  0  0  0  0
 32 29  1  0  0  0  0
M  END
>  <minimizedAffinity>
-5.69196129

$$$$

 OpenBabel03252504163D

 33 34  0  0  0  0  0  0  0  0999 V2000
   40.0490   29.8590   39.8450 F   0  0  0  0  0  0  0  0  0  0  0  0
   38.9850   30.7320   39.9370 C   0  0  0  0  0  0  0  0  0  0  0  0
   37.7570   30.2630   40.3320 C   0  0  0  0  0  0  0  0  0  0  0  0
   36.7250   31.2060   40.3990 C   0  0  0  0  0  0  0  0  0  0  0  0
   36.9670   32.5210   40.0790 C   0  0  0  0  0  0  0  0  0  0  0  0
   38.2500   32.9310   39.6820 C   0  0  0  0  0  0  0  0  0  0  0  0
   39.2900   32.0250   39.6050 C   0  0  0  0  0  0  0  0  0  0  0  0
   35.7300   30.9090   40.7040 H   0  0  0  0  0  0  0  0  0  0  0  0
   36.1330   33.2090   40.1490 H   0  0  0  0  0  0  0  0  0  0  0  0
   38.3980   33.9760   39.4390 H   0  0  0  0  0  0  0  0  0  0  0  0
   37.3820   26.6630   39.9280 C   0  0  0  0  0  0  0  0  0  0  0  0
   37.1230   26.1990   41.2190 C   0  0  0  0  0  0  0  0  0  0  0  0
   37.0770   27.1650   42.2530 C   0  0  0  0  0  0  0  0  0  0  0  0
   37.2830   28.4670   41.9460 N   0  0  0  0  0  0  0  0  0  0  0  0
   37.5330   28.8620   40.6680 C   0  0  0  0  0  0  0  0  0  0  0  0
   37.5800   27.9630   39.6720 N   0  0  0  0  0  0  0  0  0  0  0  0
   36.8780   26.8420   43.2660 H   0  0  0  0  0  0  0  0  0  0  0  0
   36.9080   24.7640   41.4730 C   0  0  0  0  0  0  0  0  0  0  0  0
   38.1210   24.0930   41.3760 F   0  0  0  0  0  0  0  0  0  0  0  0
   36.4920   24.6330   42.7860 F   0  0  0  0  0  0  0  0  0  0  0  0
   36.0180   24.1530   40.6600 F   0  0  0  0  0  0  0  0  0  0  0  0
   37.4250   25.7340   38.9440 O   0  0  0  0  0  0  0  0  0  0  0  0
   36.5330   25.6320   37.8470 C   0  0  0  0  0  0  0  0  0  0  0  0
   35.3140   26.1690   38.2760 F   0  0  0  0  0  0  0  0  0  0  0  0
   37.0480   26.2680   36.7520 F   0  0  0  0  0  0  0  0  0  0  0  0
   36.2570   24.3000   37.6120 F   0  0  0  0  0  0  0  0  0  0  0  0
   40.5200   32.4750   39.2130 O   0  0  0  0  0  0  0  0  0  0  0  0
   42.0810   31.4120   37.4300 O   0  0  0  0  0  0  0  0  0  0  0  0
   41.0860   32.5600   37.6280 P   0  0  0  0  0  0  0  0  0  0  0  0
   41.9690   33.9770   37.3130 O   0  0  0  0  0  0  0  0  0  0  0  0
   42.4850   34.2560   38.1140 H   0  0  0  0  0  0  0  0  0  0  0  0
   39.9060   32.3480   36.4510 O   0  0  0  0  0  0  0  0  0  0  0  0
   39.4790   31.4790   36.5270 H   0  0  0  0  0  0  0  0  0  0  0  0
  1  2  1  0  0  0  0
  2  3  1  0  0  0  0
  3  4  2  0  0  0  0
  3 15  1  0  0  0  0
  4  8  1  0  0  0  0
  5  9  1  0  0  0  0
  5  4  1  0  0  0  0
  6  5  2  0  0  0  0
  7  6  1  0  0  0  0
  7  2  2  0  0  0  0
 10  6  1  0  0  0  0
 11 12  1  0  0  0  0
 12 18  1  0  0  0  0
 12 13  2  0  0  0  0
 13 17  1  0  0  0  0
 14 13  1  0  0  0  0
 15 14  2  0  0  0  0
 16 11  2  0  0  0  0
 16 15  1  0  0  0  0
 18 20  1  0  0  0  0
 19 18  1  0  0  0  0
 21 18  1  0  0  0  0
 22 11  1  0  0  0  0
 23 24  1  0  0  0  0
 23 22  1  0  0  0  0
 25 23  1  0  0  0  0
 26 23  1  0  0  0  0
 27  7  1  0  0  0  0
 28 29  2  0  0  0  0
 29 27  1  0  0  0  0
 30 29  1  0  0  0  0
 30 31  1  0  0  0  0
 32 33  1  0  0  0  0
 32 29  1  0  0  0  0
M  END
>  <minimizedAffinity>
-5.67730618

$$$$

 OpenBabel03252504163D

 33 34  0  0  0  0  0  0  0  0999 V2000
   37.2420   29.0350   36.6370 F   0  0  0  0  0  0  0  0  0  0  0  0
   35.8640   28.9990   36.6820 C   0  0  0  0  0  0  0  0  0  0  0  0
   35.2320   28.7760   37.8800 C   0  0  0  0  0  0  0  0  0  0  0  0
   33.8340   28.7500   37.8490 C   0  0  0  0  0  0  0  0  0  0  0  0
   33.1650   28.9420   36.6630 C   0  0  0  0  0  0  0  0  0  0  0  0
   33.8760   29.1650   35.4730 C   0  0  0  0  0  0  0  0  0  0  0  0
   35.2570   29.1960   35.4710 C   0  0  0  0  0  0  0  0  0  0  0  0
   33.2690   28.5800   38.7560 H   0  0  0  0  0  0  0  0  0  0  0  0
   32.0820   28.9120   36.6950 H   0  0  0  0  0  0  0  0  0  0  0  0
   33.3110   29.3110   34.5620 H   0  0  0  0  0  0  0  0  0  0  0  0
   37.1080   29.5420   40.9070 C   0  0  0  0  0  0  0  0  0  0  0  0
   37.3730   28.2920   41.4710 C   0  0  0  0  0  0  0  0  0  0  0  0
   36.8860   27.1580   40.7790 C   0  0  0  0  0  0  0  0  0  0  0  0
   36.2000   27.3360   39.6250 N   0  0  0  0  0  0  0  0  0  0  0  0
   35.9710   28.5790   39.1220 C   0  0  0  0  0  0  0  0  0  0  0  0
   36.4240   29.6690   39.7620 N   0  0  0  0  0  0  0  0  0  0  0  0
   37.0720   26.1740   41.1860 H   0  0  0  0  0  0  0  0  0  0  0  0
   38.1280   28.1820   42.7310 C   0  0  0  0  0  0  0  0  0  0  0  0
   39.4480   28.5530   42.5100 F   0  0  0  0  0  0  0  0  0  0  0  0
   37.6030   29.1100   43.6120 F   0  0  0  0  0  0  0  0  0  0  0  0
   38.1210   26.9620   43.3110 F   0  0  0  0  0  0  0  0  0  0  0  0
   37.5760   30.6230   41.5750 O   0  0  0  0  0  0  0  0  0  0  0  0
   38.6930   31.4160   41.2090 C   0  0  0  0  0  0  0  0  0  0  0  0
   38.1800   32.6250   40.7250 F   0  0  0  0  0  0  0  0  0  0  0  0
   39.5360   31.5730   42.2720 F   0  0  0  0  0  0  0  0  0  0  0  0
   39.3120   30.8440   40.1150 F   0  0  0  0  0  0  0  0  0  0  0  0
   35.9030   29.4170   34.2870 O   0  0  0  0  0  0  0  0  0  0  0  0
   35.0120   31.7100   33.4530 O   0  0  0  0  0  0  0  0  0  0  0  0
   36.3110   30.9230   33.6460 P   0  0  0  0  0  0  0  0  0  0  0  0
   37.0070   30.8200   32.1000 O   0  0  0  0  0  0  0  0  0  0  0  0
   36.6050   30.0740   31.5810 H   0  0  0  0  0  0  0  0  0  0  0  0
   37.2740   31.8700   34.6450 O   0  0  0  0  0  0  0  0  0  0  0  0
   36.8330   32.0590   35.4900 H   0  0  0  0  0  0  0  0  0  0  0  0
  1  2  1  0  0  0  0
  2  3  1  0  0  0  0
  3 15  1  0  0  0  0
  4  3  2  0  0  0  0
  4  8  1  0  0  0  0
  5  9  1  0  0  0  0
  5  4  1  0  0  0  0
  6  5  2  0  0  0  0
  7  6  1  0  0  0  0
  7  2  2  0  0  0  0
 10  6  1  0  0  0  0
 11 12  1  0  0  0  0
 11 22  1  0  0  0  0
 12 18  1  0  0  0  0
 13 17  1  0  0  0  0
 13 12  2  0  0  0  0
 14 13  1  0  0  0  0
 15 14  2  0  0  0  0
 15 16  1  0  0  0  0
 16 11  2  0  0  0  0
 18 21  1  0  0  0  0
 18 20  1  0  0  0  0
 19 18  1  0  0  0  0
 23 22  1  0  0  0  0
 23 25  1  0  0  0  0
 24 23  1  0  0  0  0
 26 23  1  0  0  0  0
 27  7  1  0  0  0  0
 28 29  2  0  0  0  0
 29 27  1  0  0  0  0
 29 32  1  0  0  0  0
 30 29  1  0  0  0  0
 31 30  1  0  0  0  0
 32 33  1  0  0  0  0
M  END
>  <minimizedAffinity>
-5.62475157

$$$$

 OpenBabel03252504163D

 33 34  0  0  0  0  0  0  0  0999 V2000
   39.6510   27.0440   40.9240 F   0  0  0  0  0  0  0  0  0  0  0  0
   38.5710   27.1940   41.7690 C   0  0  0  0  0  0  0  0  0  0  0  0
   38.1260   28.4550   42.0800 C   0  0  0  0  0  0  0  0  0  0  0  0
   37.0290   28.5310   42.9450 C   0  0  0  0  0  0  0  0  0  0  0  0
   36.4550   27.3810   43.4360 C   0  0  0  0  0  0  0  0  0  0  0  0
   36.9630   26.1230   43.0760 C   0  0  0  0  0  0  0  0  0  0  0  0
   38.0450   26.0150   42.2240 C   0  0  0  0  0  0  0  0  0  0  0  0
   36.6230   29.4910   43.2330 H   0  0  0  0  0  0  0  0  0  0  0  0
   35.6080   27.4960   44.1020 H   0  0  0  0  0  0  0  0  0  0  0  0
   36.4820   25.2440   43.4850 H   0  0  0  0  0  0  0  0  0  0  0  0
   39.0230   31.0890   39.7290 C   0  0  0  0  0  0  0  0  0  0  0  0
   39.8990   31.9050   40.4470 C   0  0  0  0  0  0  0  0  0  0  0  0
   40.1830   31.5260   41.7810 C   0  0  0  0  0  0  0  0  0  0  0  0
   39.6020   30.4130   42.2870 N   0  0  0  0  0  0  0  0  0  0  0  0
   38.7550   29.6550   41.5400 C   0  0  0  0  0  0  0  0  0  0  0  0
   38.4720   29.9950   40.2720 N   0  0  0  0  0  0  0  0  0  0  0  0
   40.8580   32.1340   42.3680 H   0  0  0  0  0  0  0  0  0  0  0  0
   40.4920   33.1010   39.8250 C   0  0  0  0  0  0  0  0  0  0  0  0
   41.4080   33.6690   40.7020 F   0  0  0  0  0  0  0  0  0  0  0  0
   41.2160   32.6800   38.7230 F   0  0  0  0  0  0  0  0  0  0  0  0
   39.6170   34.0570   39.4460 F   0  0  0  0  0  0  0  0  0  0  0  0
   38.7560   31.4560   38.4530 O   0  0  0  0  0  0  0  0  0  0  0  0
   37.4950   31.8560   37.9420 C   0  0  0  0  0  0  0  0  0  0  0  0
   37.0310   32.8730   38.7850 F   0  0  0  0  0  0  0  0  0  0  0  0
   37.6100   32.2450   36.6380 F   0  0  0  0  0  0  0  0  0  0  0  0
   36.5920   30.8270   38.1170 F   0  0  0  0  0  0  0  0  0  0  0  0
   38.5010   24.7670   41.9040 O   0  0  0  0  0  0  0  0  0  0  0  0
   38.5300   24.1350   39.3850 O   0  0  0  0  0  0  0  0  0  0  0  0
   37.8680   23.7550   40.7130 P   0  0  0  0  0  0  0  0  0  0  0  0
   36.2030   23.9830   40.4640 O   0  0  0  0  0  0  0  0  0  0  0  0
   35.9550   24.9370   40.5870 H   0  0  0  0  0  0  0  0  0  0  0  0
   38.1960   22.1230   40.9350 O   0  0  0  0  0  0  0  0  0  0  0  0
   39.1510   21.9480   40.9420 H   0  0  0  0  0  0  0  0  0  0  0  0
  1  2  1  0  0  0  0
  2  3  2  0  0  0  0
  2  7  1  0  0  0  0
  3  4  1  0  0  0  0
  4  8  1  0  0  0  0
  4  5  2  0  0  0  0
  5  9  1  0  0  0  0
  6  5  1  0  0  0  0
  6 10  1  0  0  0  0
  7  6  2  0  0  0  0
 11 16  2  0  0  0  0
 11 12  1  0  0  0  0
 12 13  2  0  0  0  0
 13 14  1  0  0  0  0
 13 17  1  0  0  0  0
 15  3  1  0  0  0  0
 15 14  2  0  0  0  0
 16 15  1  0  0  0  0
 18 12  1  0  0  0  0
 18 19  1  0  0  0  0
 20 18  1  0  0  0  0
 21 18  1  0  0  0  0
 22 11  1  0  0  0  0
 23 26  1  0  0  0  0
 23 22  1  0  0  0  0
 23 24  1  0  0  0  0
 25 23  1  0  0  0  0
 27  7  1  0  0  0  0
 28 29  2  0  0  0  0
 29 32  1  0  0  0  0
 29 27  1  0  0  0  0
 30 31  1  0  0  0  0
 30 29  1  0  0  0  0
 32 33  1  0  0  0  0
M  END
>  <minimizedAffinity>
-5.56398487

$$$$

 OpenBabel03252504163D

 33 34  0  0  0  0  0  0  0  0999 V2000
   33.2050   29.0460   38.9020 F   0  0  0  0  0  0  0  0  0  0  0  0
   33.7340   29.1000   37.6290 C   0  0  0  0  0  0  0  0  0  0  0  0
   35.0950   29.1670   37.4640 C   0  0  0  0  0  0  0  0  0  0  0  0
   35.5590   29.2210   36.1450 C   0  0  0  0  0  0  0  0  0  0  0  0
   34.6690   29.2060   35.0980 C   0  0  0  0  0  0  0  0  0  0  0  0
   33.2870   29.1370   35.3400 C   0  0  0  0  0  0  0  0  0  0  0  0
   32.7980   29.0830   36.6300 C   0  0  0  0  0  0  0  0  0  0  0  0
   36.6200   29.2740   35.9390 H   0  0  0  0  0  0  0  0  0  0  0  0
   35.0810   29.2500   34.0970 H   0  0  0  0  0  0  0  0  0  0  0  0
   32.6210   29.1280   34.4870 H   0  0  0  0  0  0  0  0  0  0  0  0
   37.1170   30.4220   40.2220 C   0  0  0  0  0  0  0  0  0  0  0  0
   37.7350   29.2820   40.7400 C   0  0  0  0  0  0  0  0  0  0  0  0
   37.4400   28.0490   40.1110 C   0  0  0  0  0  0  0  0  0  0  0  0
   36.5880   28.0340   39.0590 N   0  0  0  0  0  0  0  0  0  0  0  0
   36.0140   29.1780   38.5970 C   0  0  0  0  0  0  0  0  0  0  0  0
   36.2800   30.3580   39.1770 N   0  0  0  0  0  0  0  0  0  0  0  0
   37.9000   27.1450   40.4850 H   0  0  0  0  0  0  0  0  0  0  0  0
   38.6520   29.3810   41.8880 C   0  0  0  0  0  0  0  0  0  0  0  0
   39.1660   28.1230   42.1760 F   0  0  0  0  0  0  0  0  0  0  0  0
   39.7250   30.1620   41.4960 F   0  0  0  0  0  0  0  0  0  0  0  0
   38.1180   29.8910   43.0200 F   0  0  0  0  0  0  0  0  0  0  0  0
   37.4040   31.5990   40.8270 O   0  0  0  0  0  0  0  0  0  0  0  0
   37.9960   32.7340   40.2180 C   0  0  0  0  0  0  0  0  0  0  0  0
   38.5990   33.4660   41.2470 F   0  0  0  0  0  0  0  0  0  0  0  0
   38.8720   32.3490   39.2420 F   0  0  0  0  0  0  0  0  0  0  0  0
   36.9990   33.5630   39.7460 F   0  0  0  0  0  0  0  0  0  0  0  0
   31.4450   29.0150   36.8120 O   0  0  0  0  0  0  0  0  0  0  0  0
   29.0270   29.9570   36.6940 O   0  0  0  0  0  0  0  0  0  0  0  0
   30.4300   30.3050   37.1990 P   0  0  0  0  0  0  0  0  0  0  0  0
   30.8510   31.7440   36.3990 O   0  0  0  0  0  0  0  0  0  0  0  0
   31.2010   31.5520   35.4900 H   0  0  0  0  0  0  0  0  0  0  0  0
   30.2630   30.5940   38.8460 O   0  0  0  0  0  0  0  0  0  0  0  0
   29.8900   29.8250   39.3070 H   0  0  0  0  0  0  0  0  0  0  0  0
  2  1  1  0  0  0  0
  3  2  1  0  0  0  0
  3 15  1  0  0  0  0
  4  3  2  0  0  0  0
  5  6  2  0  0  0  0
  5  4  1  0  0  0  0
  6  7  1  0  0  0  0
  7 27  1  0  0  0  0
  7  2  2  0  0  0  0
  8  4  1  0  0  0  0
  9  5  1  0  0  0  0
 10  6  1  0  0  0  0
 11 12  1  0  0  0  0
 11 22  1  0  0  0  0
 12 18  1  0  0  0  0
 13 17  1  0  0  0  0
 13 12  2  0  0  0  0
 14 13  1  0  0  0  0
 15 14  2  0  0  0  0
 15 16  1  0  0  0  0
 16 11  2  0  0  0  0
 18 19  1  0  0  0  0
 18 21  1  0  0  0  0
 20 18  1  0  0  0  0
 23 22  1  0  0  0  0
 23 24  1  0  0  0  0
 25 23  1  0  0  0  0
 26 23  1  0  0  0  0
 27 29  1  0  0  0  0
 28 29  2  0  0  0  0
 29 32  1  0  0  0  0
 30 29  1  0  0  0  0
 31 30  1  0  0  0  0
 32 33  1  0  0  0  0
M  END
>  <minimizedAffinity>
-5.43998003

$$$$
