
 OpenBabel03242521443D

 36 37  0  0  1  0  0  0  0  0999 V2000
   45.0860   35.8000   44.2780 C   0  0  0  0  0  0  0  0  0  0  0  0
   45.9520   35.0380   43.4740 C   0  0  0  0  0  0  0  0  0  0  0  0
   46.4040   33.7980   43.9370 C   0  0  0  0  0  0  0  0  0  0  0  0
   45.9770   33.4030   45.1350 N   0  0  0  0  0  0  0  0  0  0  0  0
   45.1430   34.1460   45.8970 C   0  0  0  0  0  0  0  0  0  0  0  0
   44.6930   35.3490   45.4730 N   0  0  0  0  0  0  0  0  0  0  0  0
   46.2270   35.4670   42.5200 H   0  0  0  0  0  0  0  0  0  0  0  0
   44.8370   33.7610   46.8620 H   0  0  0  0  0  0  0  0  0  0  0  0
   48.3640   33.8700   42.4100 C   0  0  2  0  0  0  0  0  0  0  0  0
   47.2930   33.0650   43.0580 C   0  0  2  0  0  0  0  0  0  0  0  0
   46.6560   32.4960   41.9160 O   0  0  0  0  0  0  0  0  0  0  0  0
   47.7190   31.9810   41.2020 C   0  0  0  0  0  0  0  0  0  0  0  0
   48.9580   32.7690   41.5100 C   0  0  1  0  0  0  0  0  0  0  0  0
   47.9460   34.6070   41.6650 H   0  0  0  0  0  0  0  0  0  0  0  0
   47.7790   32.2310   43.6360 H   0  0  0  0  0  0  0  0  0  0  0  0
   47.8780   30.9160   41.4650 H   0  0  0  0  0  0  0  0  0  0  0  0
   47.5190   32.0540   40.1210 H   0  0  0  0  0  0  0  0  0  0  0  0
   49.6930   32.2210   42.1100 H   0  0  0  0  0  0  0  0  0  0  0  0
   49.2640   34.4300   43.2640 O   0  0  0  0  0  0  0  0  0  0  0  0
   49.3540   35.4110   43.1580 H   0  0  0  0  0  0  0  0  0  0  0  0
   49.5270   33.3710   40.3900 O   0  0  0  0  0  0  0  0  0  0  0  0
   50.2020   34.0100   40.7320 H   0  0  0  0  0  0  0  0  0  0  0  0
   44.6250   37.1360   43.7590 C   0  0  0  0  0  0  0  0  0  0  0  0
   43.5280   37.1120   43.7140 H   0  0  0  0  0  0  0  0  0  0  0  0
   45.0850   37.3300   42.7870 H   0  0  0  0  0  0  0  0  0  0  0  0
   45.4770   39.4410   44.5100 C   0  0  0  0  0  0  0  0  0  0  0  0
   45.5140   39.8070   43.3020 O   0  0  0  0  0  0  0  0  0  0  0  0
   45.0290   38.1150   44.7600 N   0  0  0  0  0  0  0  0  0  0  0  0
   44.9860   37.8150   45.7780 H   0  0  0  0  0  0  0  0  0  0  0  0
   45.8490   40.2730   45.5600 O   0  0  0  0  0  0  0  0  0  0  0  0
   43.5250   41.5670   45.7540 O   0  0  0  0  0  0  0  0  0  0  0  0
   44.6170   40.9080   46.6000 P   0  0  0  0  0  0  0  0  0  0  0  0
   45.2820   41.9870   47.6940 O   0  0  0  0  0  0  0  0  0  0  0  0
   44.7000   42.8040   47.6810 H   0  0  0  0  0  0  0  0  0  0  0  0
   43.8870   39.5950   47.3590 O   0  0  0  0  0  0  0  0  0  0  0  0
   43.0650   39.2790   46.8670 H   0  0  0  0  0  0  0  0  0  0  0  0
  1  6  1  0  0  0  0
  2  3  1  0  0  0  0
  2  1  2  0  0  0  0
  3  4  2  0  0  0  0
  4  5  1  0  0  0  0
  5  8  1  0  0  0  0
  6  5  2  0  0  0  0
  7  2  1  0  0  0  0
  9 14  1  6  0  0  0
  9 10  1  0  0  0  0
  9 19  1  0  0  0  0
 10 15  1  1  0  0  0
 10  3  1  0  0  0  0
 11 10  1  0  0  0  0
 12 16  1  0  0  0  0
 12 13  1  0  0  0  0
 12 11  1  0  0  0  0
 13 18  1  1  0  0  0
 13  9  1  0  0  0  0
 17 12  1  0  0  0  0
 20 19  1  0  0  0  0
 21 22  1  0  0  0  0
 21 13  1  0  0  0  0
 23  1  1  0  0  0  0
 23 28  1  0  0  0  0
 24 23  1  0  0  0  0
 25 23  1  0  0  0  0
 26 28  1  0  0  0  0
 26 30  1  0  0  0  0
 27 26  2  0  0  0  0
 28 29  1  0  0  0  0
 30 32  1  0  0  0  0
 31 32  2  0  0  0  0
 32 35  1  0  0  0  0
 32 33  1  0  0  0  0
 34 33  1  0  0  0  0
 36 35  1  0  0  0  0
M  END
>  <minimizedAffinity>
-3.80865884

>  <minimizedRMSD>
0.619570255

$$$$
