
 OpenBabel03252505323D

 28 29  0  0  0  0  0  0  0  0999 V2000
   46.6190   34.7690   42.1120 C   0  0  0  0  0  0  0  0  0  0  0  0
   47.8990   35.2920   42.0060 C   0  0  0  0  0  0  0  0  0  0  0  0
   48.6730   35.1350   40.8540 C   0  0  0  0  0  0  0  0  0  0  0  0
   48.1570   34.4390   39.7830 C   0  0  0  0  0  0  0  0  0  0  0  0
   46.8950   33.9310   39.9040 C   0  0  0  0  0  0  0  0  0  0  0  0
   46.1190   34.0730   41.0260 C   0  0  0  0  0  0  0  0  0  0  0  0
   48.3460   35.8480   42.8230 H   0  0  0  0  0  0  0  0  0  0  0  0
   49.6770   35.5630   40.8120 H   0  0  0  0  0  0  0  0  0  0  0  0
   48.7310   34.2990   38.8750 H   0  0  0  0  0  0  0  0  0  0  0  0
   46.4550   33.3780   39.0850 H   0  0  0  0  0  0  0  0  0  0  0  0
   44.4170   36.1940   44.8060 C   0  0  0  0  0  0  0  0  0  0  0  0
   45.0720   36.0870   43.5620 C   0  0  0  0  0  0  0  0  0  0  0  0
   45.8990   34.9840   43.3430 C   0  0  0  0  0  0  0  0  0  0  0  0
   46.0380   34.0700   44.3230 N   0  0  0  0  0  0  0  0  0  0  0  0
   45.3890   34.2080   45.5080 C   0  0  0  0  0  0  0  0  0  0  0  0
   44.5810   35.2740   45.7410 N   0  0  0  0  0  0  0  0  0  0  0  0
   45.5410   33.2370   46.5410 N   0  0  0  0  0  0  0  0  0  0  0  0
   43.7980   37.0780   44.8880 H   0  0  0  0  0  0  0  0  0  0  0  0
   45.0260   36.7620   42.7200 H   0  0  0  0  0  0  0  0  0  0  0  0
   44.8120   32.5660   46.2160 H   0  0  0  0  0  0  0  0  0  0  0  0
   46.3010   33.6310   47.1480 H   0  0  0  0  0  0  0  0  0  0  0  0
   44.8350   33.5860   41.2200 O   0  0  0  0  0  0  0  0  0  0  0  0
   43.2840   35.6190   40.7360 O   0  0  0  0  0  0  0  0  0  0  0  0
   43.4800   34.1770   40.3630 P   0  0  0  0  0  0  0  0  0  0  0  0
   42.0840   33.3070   40.7480 O   0  0  0  0  0  0  0  0  0  0  0  0
   42.1920   32.3440   40.5930 H   0  0  0  0  0  0  0  0  0  0  0  0
   43.6850   34.0840   38.6890 O   0  0  0  0  0  0  0  0  0  0  0  0
   42.7820   34.0990   38.2680 H   0  0  0  0  0  0  0  0  0  0  0  0
  1 13  1  0  0  0  0
  2  1  1  0  0  0  0
  2  7  1  0  0  0  0
  3  2  2  0  0  0  0
  4  5  2  0  0  0  0
  4  3  1  0  0  0  0
  5  6  1  0  0  0  0
  6 22  1  0  0  0  0
  6  1  2  0  0  0  0
  8  3  1  0  0  0  0
  9  4  1  0  0  0  0
 10  5  1  0  0  0  0
 11 18  1  0  0  0  0
 11 16  1  0  0  0  0
 12 11  2  0  0  0  0
 13 12  1  0  0  0  0
 13 14  2  0  0  0  0
 14 15  1  0  0  0  0
 15 16  2  0  0  0  0
 15 17  1  0  0  0  0
 17 21  1  0  0  0  0
 19 12  1  0  0  0  0
 20 17  1  0  0  0  0
 24 23  2  0  0  0  0
 24 25  1  0  0  0  0
 24 22  1  0  0  0  0
 26 25  1  0  0  0  0
 27 24  1  0  0  0  0
 28 27  1  0  0  0  0
M  END
>  <minimizedAffinity>
-5.98609447

>  <minimizedRMSD>
0.275920242

$$$$
