
 OpenBabel03252508583D

 37 38  0  0  1  0  0  0  0  0999 V2000
   37.7210   26.9500   42.6620 N   0  0  0  0  0  0  0  0  0  0  0  0
   38.9740   26.6840   43.2830 C   0  0  0  0  0  0  0  0  0  0  0  0
   40.0850   27.6520   42.9780 C   0  0  0  0  0  0  0  0  0  0  0  0
   39.6390   29.0600   42.7100 C   0  0  0  0  0  0  0  0  0  0  0  0
   38.1610   29.2300   42.9010 C   0  0  0  0  0  0  0  0  0  0  0  0
   37.5340   28.1480   41.9660 C   0  0  2  0  0  0  0  0  0  0  0  0
   38.8100   26.6900   44.3800 H   0  0  0  0  0  0  0  0  0  0  0  0
   39.3040   25.6550   43.0250 H   0  0  0  0  0  0  0  0  0  0  0  0
   40.7020   27.2210   42.1590 H   0  0  0  0  0  0  0  0  0  0  0  0
   40.7640   27.7010   43.8710 H   0  0  0  0  0  0  0  0  0  0  0  0
   39.8940   29.3220   41.6650 H   0  0  0  0  0  0  0  0  0  0  0  0
   40.1430   29.8130   43.3780 H   0  0  0  0  0  0  0  0  0  0  0  0
   37.8100   28.9900   43.9020 H   0  0  0  0  0  0  0  0  0  0  0  0
   37.8960   30.2300   42.5390 H   0  0  0  0  0  0  0  0  0  0  0  0
   38.0650   28.3240   41.0280 H   0  0  0  0  0  0  0  0  0  0  0  0
   37.0440   25.7750   42.1960 C   0  0  0  0  0  0  0  0  0  0  0  0
   36.6180   25.9490   41.1860 H   0  0  0  0  0  0  0  0  0  0  0  0
   36.2000   25.5210   42.8670 H   0  0  0  0  0  0  0  0  0  0  0  0
   38.0030   24.6330   42.1100 C   0  0  0  0  0  0  0  0  0  0  0  0
   39.0070   25.0120   41.8070 H   0  0  0  0  0  0  0  0  0  0  0  0
   38.0950   24.0250   43.0340 H   0  0  0  0  0  0  0  0  0  0  0  0
   35.8770   23.0070   39.4700 C   0  0  0  0  0  0  0  0  0  0  0  0
   36.3160   23.8950   40.4690 C   0  0  0  0  0  0  0  0  0  0  0  0
   37.5420   23.6860   41.0580 C   0  0  0  0  0  0  0  0  0  0  0  0
   38.2680   22.6340   40.6470 N   0  0  0  0  0  0  0  0  0  0  0  0
   37.8320   21.7910   39.6880 C   0  0  0  0  0  0  0  0  0  0  0  0
   36.6410   21.9680   39.0940 N   0  0  0  0  0  0  0  0  0  0  0  0
   34.9170   23.1680   39.0070 H   0  0  0  0  0  0  0  0  0  0  0  0
   35.6430   24.7120   40.7200 H   0  0  0  0  0  0  0  0  0  0  0  0
   38.5220   20.9780   39.4500 H   0  0  0  0  0  0  0  0  0  0  0  0
   36.1860   28.4930   41.9600 O   0  0  0  0  0  0  0  0  0  0  0  0
   36.8840   29.5530   39.6300 O   0  0  0  0  0  0  0  0  0  0  0  0
   35.7910   29.5370   40.6950 P   0  0  0  0  0  0  0  0  0  0  0  0
   35.7450   31.1090   41.3460 O   0  0  0  0  0  0  0  0  0  0  0  0
   36.5430   31.6450   41.1120 H   0  0  0  0  0  0  0  0  0  0  0  0
   34.2890   29.1980   40.0440 O   0  0  0  0  0  0  0  0  0  0  0  0
   34.2780   28.4450   39.4140 H   0  0  0  0  0  0  0  0  0  0  0  0
  1  2  1  0  0  0  0
  2  7  1  0  0  0  0
  3  2  1  0  0  0  0
  3 10  1  0  0  0  0
  4  5  1  0  0  0  0
  4  3  1  0  0  0  0
  4 12  1  0  0  0  0
  5 13  1  0  0  0  0
  6 15  1  6  0  0  0
  6  1  1  0  0  0  0
  6  5  1  0  0  0  0
  8  2  1  0  0  0  0
  9  3  1  0  0  0  0
 11  4  1  0  0  0  0
 14  5  1  0  0  0  0
 16  1  1  0  0  0  0
 16 18  1  0  0  0  0
 17 16  1  0  0  0  0
 19 16  1  0  0  0  0
 19 21  1  0  0  0  0
 20 19  1  0  0  0  0
 22 23  1  0  0  0  0
 23 29  1  0  0  0  0
 23 24  2  0  0  0  0
 24 19  1  0  0  0  0
 25 24  1  0  0  0  0
 26 25  2  0  0  0  0
 27 22  2  0  0  0  0
 27 26  1  0  0  0  0
 28 22  1  0  0  0  0
 30 26  1  0  0  0  0
 31  6  1  0  0  0  0
 32 33  2  0  0  0  0
 33 34  1  0  0  0  0
 33 31  1  0  0  0  0
 35 34  1  0  0  0  0
 36 33  1  0  0  0  0
 37 36  1  0  0  0  0
M  END
>  <minimizedAffinity>
-5.14903736

$$$$

 OpenBabel03252508583D

 37 38  0  0  1  0  0  0  0  0999 V2000
   36.8860   29.0590   40.3370 N   0  0  0  0  0  0  0  0  0  0  0  0
   35.9050   28.1260   39.8950 C   0  0  0  0  0  0  0  0  0  0  0  0
   34.9900   28.5950   38.7970 C   0  0  0  0  0  0  0  0  0  0  0  0
   35.6010   29.5830   37.8460 C   0  0  0  0  0  0  0  0  0  0  0  0
   37.0510   29.8260   38.1380 C   0  0  0  0  0  0  0  0  0  0  0  0
   37.0650   30.2560   39.6390 C   0  0  2  0  0  0  0  0  0  0  0  0
   36.4420   27.2270   39.5280 H   0  0  0  0  0  0  0  0  0  0  0  0
   35.2960   27.7910   40.7610 H   0  0  0  0  0  0  0  0  0  0  0  0
   34.0480   28.9570   39.2650 H   0  0  0  0  0  0  0  0  0  0  0  0
   34.6950   27.7050   38.1800 H   0  0  0  0  0  0  0  0  0  0  0  0
   35.0560   30.5440   37.9310 H   0  0  0  0  0  0  0  0  0  0  0  0
   35.5350   29.2540   36.7710 H   0  0  0  0  0  0  0  0  0  0  0  0
   37.6720   28.9350   38.0840 H   0  0  0  0  0  0  0  0  0  0  0  0
   37.3780   30.6630   37.5100 H   0  0  0  0  0  0  0  0  0  0  0  0
   36.2900   31.0240   39.6620 H   0  0  0  0  0  0  0  0  0  0  0  0
   37.0910   29.0550   41.7560 C   0  0  0  0  0  0  0  0  0  0  0  0
   36.5390   29.8950   42.2290 H   0  0  0  0  0  0  0  0  0  0  0  0
   38.1630   29.1940   41.9940 H   0  0  0  0  0  0  0  0  0  0  0  0
   36.5880   27.7760   42.3410 C   0  0  0  0  0  0  0  0  0  0  0  0
   36.0540   27.9880   43.2960 H   0  0  0  0  0  0  0  0  0  0  0  0
   35.9380   27.1760   41.6720 H   0  0  0  0  0  0  0  0  0  0  0  0
   39.8970   26.5920   43.6790 C   0  0  0  0  0  0  0  0  0  0  0  0
   38.8010   27.4190   43.3710 C   0  0  0  0  0  0  0  0  0  0  0  0
   37.7460   26.8960   42.6590 C   0  0  0  0  0  0  0  0  0  0  0  0
   37.8130   25.6070   42.2890 N   0  0  0  0  0  0  0  0  0  0  0  0
   38.8710   24.8270   42.5920 C   0  0  0  0  0  0  0  0  0  0  0  0
   39.9160   25.3070   43.2860 N   0  0  0  0  0  0  0  0  0  0  0  0
   40.7250   26.9990   44.2360 H   0  0  0  0  0  0  0  0  0  0  0  0
   38.8580   28.4470   43.7230 H   0  0  0  0  0  0  0  0  0  0  0  0
   38.7960   23.7990   42.2300 H   0  0  0  0  0  0  0  0  0  0  0  0
   38.3650   30.7210   39.8120 O   0  0  0  0  0  0  0  0  0  0  0  0
   39.1860   32.6890   41.3900 O   0  0  0  0  0  0  0  0  0  0  0  0
   38.4260   32.3820   40.1030 P   0  0  0  0  0  0  0  0  0  0  0  0
   36.8250   32.8970   40.3670 O   0  0  0  0  0  0  0  0  0  0  0  0
   36.6270   33.0620   41.3210 H   0  0  0  0  0  0  0  0  0  0  0  0
   39.0390   33.2280   38.7980 O   0  0  0  0  0  0  0  0  0  0  0  0
   40.0180   33.2140   38.7260 H   0  0  0  0  0  0  0  0  0  0  0  0
  1 16  1  0  0  0  0
  2  1  1  0  0  0  0
  2  8  1  0  0  0  0
  3  9  1  0  0  0  0
  3  2  1  0  0  0  0
  4 11  1  0  0  0  0
  4  5  1  0  0  0  0
  4  3  1  0  0  0  0
  5  6  1  0  0  0  0
  6 15  1  1  0  0  0
  6 31  1  0  0  0  0
  6  1  1  0  0  0  0
  7  2  1  0  0  0  0
 10  3  1  0  0  0  0
 12  4  1  0  0  0  0
 13  5  1  0  0  0  0
 14  5  1  0  0  0  0
 16 18  1  0  0  0  0
 16 17  1  0  0  0  0
 16 19  1  0  0  0  0
 19 24  1  0  0  0  0
 19 20  1  0  0  0  0
 21 19  1  0  0  0  0
 22 28  1  0  0  0  0
 23 22  1  0  0  0  0
 23 29  1  0  0  0  0
 24 23  2  0  0  0  0
 25 26  2  0  0  0  0
 25 24  1  0  0  0  0
 26 27  1  0  0  0  0
 27 22  2  0  0  0  0
 30 26  1  0  0  0  0
 31 33  1  0  0  0  0
 33 34  1  0  0  0  0
 33 32  2  0  0  0  0
 34 35  1  0  0  0  0
 36 33  1  0  0  0  0
 37 36  1  0  0  0  0
M  END
>  <minimizedAffinity>
-5.0725975

$$$$

 OpenBabel03252508583D

 37 38  0  0  1  0  0  0  0  0999 V2000
   36.6010   30.1090   39.3350 N   0  0  0  0  0  0  0  0  0  0  0  0
   36.0740   29.2330   38.3440 C   0  0  0  0  0  0  0  0  0  0  0  0
   36.1630   29.7110   36.9200 C   0  0  0  0  0  0  0  0  0  0  0  0
   37.3400   30.5940   36.6230 C   0  0  0  0  0  0  0  0  0  0  0  0
   38.2500   30.7380   37.8070 C   0  0  0  0  0  0  0  0  0  0  0  0
   37.3100   31.2490   38.9440 C   0  0  2  0  0  0  0  0  0  0  0  0
   36.6300   28.2760   38.4160 H   0  0  0  0  0  0  0  0  0  0  0  0
   35.0160   28.9950   38.5850 H   0  0  0  0  0  0  0  0  0  0  0  0
   35.1870   30.1720   36.6500 H   0  0  0  0  0  0  0  0  0  0  0  0
   36.2660   28.8140   36.2530 H   0  0  0  0  0  0  0  0  0  0  0  0
   36.9700   31.5970   36.3360 H   0  0  0  0  0  0  0  0  0  0  0  0
   37.9700   30.2110   35.7720 H   0  0  0  0  0  0  0  0  0  0  0  0
   38.6630   29.7990   38.1680 H   0  0  0  0  0  0  0  0  0  0  0  0
   38.9880   31.5110   37.5620 H   0  0  0  0  0  0  0  0  0  0  0  0
   36.7910   32.0750   38.4550 H   0  0  0  0  0  0  0  0  0  0  0  0
   35.8160   30.1690   40.5330 C   0  0  0  0  0  0  0  0  0  0  0  0
   34.8460   30.6730   40.3360 H   0  0  0  0  0  0  0  0  0  0  0  0
   36.3380   30.7580   41.3110 H   0  0  0  0  0  0  0  0  0  0  0  0
   35.5330   28.7870   41.0270 C   0  0  0  0  0  0  0  0  0  0  0  0
   34.6310   28.8030   41.6820 H   0  0  0  0  0  0  0  0  0  0  0  0
   35.4080   28.0200   40.2340 H   0  0  0  0  0  0  0  0  0  0  0  0
   38.0570   26.5250   42.6550 C   0  0  0  0  0  0  0  0  0  0  0  0
   36.9700   26.9740   41.8830 C   0  0  0  0  0  0  0  0  0  0  0  0
   36.6810   28.3190   41.8510 C   0  0  0  0  0  0  0  0  0  0  0  0
   37.4590   29.1480   42.5660 N   0  0  0  0  0  0  0  0  0  0  0  0
   38.4980   28.7010   43.3020 C   0  0  0  0  0  0  0  0  0  0  0  0
   38.8060   27.3950   43.3530 N   0  0  0  0  0  0  0  0  0  0  0  0
   38.2840   25.4720   42.6830 H   0  0  0  0  0  0  0  0  0  0  0  0
   36.4100   26.2100   41.3460 H   0  0  0  0  0  0  0  0  0  0  0  0
   39.0470   29.4830   43.8330 H   0  0  0  0  0  0  0  0  0  0  0  0
   38.2080   31.6190   39.9400 O   0  0  0  0  0  0  0  0  0  0  0  0
   39.8760   33.5660   39.2590 O   0  0  0  0  0  0  0  0  0  0  0  0
   38.5390   33.2740   39.9320 P   0  0  0  0  0  0  0  0  0  0  0  0
   38.7130   33.7520   41.5560 O   0  0  0  0  0  0  0  0  0  0  0  0
   39.6570   33.8910   41.8160 H   0  0  0  0  0  0  0  0  0  0  0  0
   37.2920   34.1610   39.2580 O   0  0  0  0  0  0  0  0  0  0  0  0
   37.2810   34.1680   38.2760 H   0  0  0  0  0  0  0  0  0  0  0  0
  1 16  1  0  0  0  0
  2  7  1  0  0  0  0
  2  8  1  0  0  0  0
  2  1  1  0  0  0  0
  3  2  1  0  0  0  0
  4  3  1  0  0  0  0
  4  5  1  0  0  0  0
  5 13  1  0  0  0  0
  5  6  1  0  0  0  0
  6 15  1  6  0  0  0
  6  1  1  0  0  0  0
  6 31  1  0  0  0  0
  9  3  1  0  0  0  0
 10  3  1  0  0  0  0
 11  4  1  0  0  0  0
 12  4  1  0  0  0  0
 14  5  1  0  0  0  0
 16 19  1  0  0  0  0
 16 18  1  0  0  0  0
 17 16  1  0  0  0  0
 19 20  1  0  0  0  0
 19 24  1  0  0  0  0
 21 19  1  0  0  0  0
 22 28  1  0  0  0  0
 22 27  1  0  0  0  0
 23 22  2  0  0  0  0
 24 23  1  0  0  0  0
 24 25  2  0  0  0  0
 25 26  1  0  0  0  0
 26 27  2  0  0  0  0
 26 30  1  0  0  0  0
 29 23  1  0  0  0  0
 32 33  2  0  0  0  0
 33 31  1  0  0  0  0
 33 34  1  0  0  0  0
 34 35  1  0  0  0  0
 36 33  1  0  0  0  0
 37 36  1  0  0  0  0
M  END
>  <minimizedAffinity>
-4.94458437

$$$$

 OpenBabel03252508583D

 37 38  0  0  1  0  0  0  0  0999 V2000
   38.0580   28.0490   42.9910 N   0  0  0  0  0  0  0  0  0  0  0  0
   39.1980   27.3790   43.5180 C   0  0  0  0  0  0  0  0  0  0  0  0
   40.5300   27.7920   42.9560 C   0  0  0  0  0  0  0  0  0  0  0  0
   40.6120   29.2240   42.5150 C   0  0  0  0  0  0  0  0  0  0  0  0
   39.3560   29.9820   42.8230 C   0  0  0  0  0  0  0  0  0  0  0  0
   38.2320   29.1430   42.1370 C   0  0  2  0  0  0  0  0  0  0  0  0
   39.2180   27.5660   44.6120 H   0  0  0  0  0  0  0  0  0  0  0  0
   39.0720   26.2820   43.3950 H   0  0  0  0  0  0  0  0  0  0  0  0
   40.8060   27.0680   42.1580 H   0  0  0  0  0  0  0  0  0  0  0  0
   41.3060   27.6640   43.7580 H   0  0  0  0  0  0  0  0  0  0  0  0
   40.7840   29.2510   41.4210 H   0  0  0  0  0  0  0  0  0  0  0  0
   41.4590   29.7840   43.0020 H   0  0  0  0  0  0  0  0  0  0  0  0
   39.0980   30.0080   43.8780 H   0  0  0  0  0  0  0  0  0  0  0  0
   39.4350   30.9620   42.3350 H   0  0  0  0  0  0  0  0  0  0  0  0
   38.6400   28.9940   41.1350 H   0  0  0  0  0  0  0  0  0  0  0  0
   36.9250   27.1940   42.7860 C   0  0  0  0  0  0  0  0  0  0  0  0
   36.2100   27.6620   42.0770 H   0  0  0  0  0  0  0  0  0  0  0  0
   36.3830   27.0320   43.7370 H   0  0  0  0  0  0  0  0  0  0  0  0
   37.3690   25.8890   42.2100 C   0  0  0  0  0  0  0  0  0  0  0  0
   38.4810   25.8680   42.1490 H   0  0  0  0  0  0  0  0  0  0  0  0
   37.0050   24.9890   42.7500 H   0  0  0  0  0  0  0  0  0  0  0  0
   36.1100   24.3710   39.0090 C   0  0  0  0  0  0  0  0  0  0  0  0
   36.6180   24.5010   40.3150 C   0  0  0  0  0  0  0  0  0  0  0  0
   36.8380   25.7590   40.8260 C   0  0  0  0  0  0  0  0  0  0  0  0
   36.5540   26.8150   40.0460 N   0  0  0  0  0  0  0  0  0  0  0  0
   36.0680   26.6740   38.7950 C   0  0  0  0  0  0  0  0  0  0  0  0
   35.8420   25.4600   38.2680 N   0  0  0  0  0  0  0  0  0  0  0  0
   35.9380   23.3860   38.6060 H   0  0  0  0  0  0  0  0  0  0  0  0
   36.8100   23.5740   40.8520 H   0  0  0  0  0  0  0  0  0  0  0  0
   35.8810   27.6140   38.2720 H   0  0  0  0  0  0  0  0  0  0  0  0
   37.1300   29.9880   42.2110 O   0  0  0  0  0  0  0  0  0  0  0  0
   37.5560   30.0890   39.5940 O   0  0  0  0  0  0  0  0  0  0  0  0
   36.5480   30.4280   40.6890 P   0  0  0  0  0  0  0  0  0  0  0  0
   36.4010   32.1230   40.6860 O   0  0  0  0  0  0  0  0  0  0  0  0
   37.1250   32.5700   40.1830 H   0  0  0  0  0  0  0  0  0  0  0  0
   35.0420   29.7720   40.3770 O   0  0  0  0  0  0  0  0  0  0  0  0
   35.0570   28.8330   40.0900 H   0  0  0  0  0  0  0  0  0  0  0  0
  1  2  1  0  0  0  0
  2  7  1  0  0  0  0
  3  2  1  0  0  0  0
  3 10  1  0  0  0  0
  4  5  1  0  0  0  0
  4  3  1  0  0  0  0
  4 12  1  0  0  0  0
  5 13  1  0  0  0  0
  6 15  1  6  0  0  0
  6 31  1  0  0  0  0
  6  5  1  0  0  0  0
  6  1  1  0  0  0  0
  8  2  1  0  0  0  0
  9  3  1  0  0  0  0
 11  4  1  0  0  0  0
 14  5  1  0  0  0  0
 16  1  1  0  0  0  0
 16 18  1  0  0  0  0
 17 16  1  0  0  0  0
 19 21  1  0  0  0  0
 19 16  1  0  0  0  0
 20 19  1  0  0  0  0
 22 23  1  0  0  0  0
 23 24  2  0  0  0  0
 23 29  1  0  0  0  0
 24 19  1  0  0  0  0
 25 24  1  0  0  0  0
 26 25  2  0  0  0  0
 27 26  1  0  0  0  0
 27 22  2  0  0  0  0
 28 22  1  0  0  0  0
 30 26  1  0  0  0  0
 32 33  2  0  0  0  0
 33 31  1  0  0  0  0
 34 33  1  0  0  0  0
 35 34  1  0  0  0  0
 36 33  1  0  0  0  0
 37 36  1  0  0  0  0
M  END
>  <minimizedAffinity>
-4.87678719

$$$$

 OpenBabel03252508583D

 37 38  0  0  1  0  0  0  0  0999 V2000
   37.0520   26.8480   41.5800 N   0  0  0  0  0  0  0  0  0  0  0  0
   37.1510   25.4280   41.6220 C   0  0  0  0  0  0  0  0  0  0  0  0
   36.5180   24.6840   40.4790 C   0  0  0  0  0  0  0  0  0  0  0  0
   36.5180   25.4200   39.1700 C   0  0  0  0  0  0  0  0  0  0  0  0
   37.2500   26.7260   39.2570 C   0  0  0  0  0  0  0  0  0  0  0  0
   36.5480   27.4720   40.4350 C   0  0  2  0  0  0  0  0  0  0  0  0
   38.2300   25.1700   41.6400 H   0  0  0  0  0  0  0  0  0  0  0  0
   36.7290   25.0570   42.5810 H   0  0  0  0  0  0  0  0  0  0  0  0
   35.5050   24.3560   40.8010 H   0  0  0  0  0  0  0  0  0  0  0  0
   37.0990   23.7390   40.3090 H   0  0  0  0  0  0  0  0  0  0  0  0
   35.4700   25.6190   38.8730 H   0  0  0  0  0  0  0  0  0  0  0  0
   36.9980   24.8320   38.3380 H   0  0  0  0  0  0  0  0  0  0  0  0
   38.2930   26.6340   39.5500 H   0  0  0  0  0  0  0  0  0  0  0  0
   37.0720   27.2660   38.3190 H   0  0  0  0  0  0  0  0  0  0  0  0
   35.4930   27.3660   40.1740 H   0  0  0  0  0  0  0  0  0  0  0  0
   36.7990   27.4500   42.8560 C   0  0  0  0  0  0  0  0  0  0  0  0
   36.0180   26.8820   43.4040 H   0  0  0  0  0  0  0  0  0  0  0  0
   36.4220   28.4840   42.7310 H   0  0  0  0  0  0  0  0  0  0  0  0
   38.0450   27.4450   43.6800 C   0  0  0  0  0  0  0  0  0  0  0  0
   37.7960   27.7060   44.7340 H   0  0  0  0  0  0  0  0  0  0  0  0
   38.6230   26.4980   43.6530 H   0  0  0  0  0  0  0  0  0  0  0  0
   41.1500   29.1120   42.3680 C   0  0  0  0  0  0  0  0  0  0  0  0
   40.2680   28.1320   42.8600 C   0  0  0  0  0  0  0  0  0  0  0  0
   38.9740   28.4880   43.1650 C   0  0  0  0  0  0  0  0  0  0  0  0
   38.6110   29.7670   42.9750 N   0  0  0  0  0  0  0  0  0  0  0  0
   39.4690   30.6950   42.5020 C   0  0  0  0  0  0  0  0  0  0  0  0
   40.7380   30.3790   42.1950 N   0  0  0  0  0  0  0  0  0  0  0  0
   42.1640   28.8350   42.1290 H   0  0  0  0  0  0  0  0  0  0  0  0
   40.6750   27.1290   42.9730 H   0  0  0  0  0  0  0  0  0  0  0  0
   39.0430   31.6950   42.3960 H   0  0  0  0  0  0  0  0  0  0  0  0
   37.0590   28.7620   40.3290 O   0  0  0  0  0  0  0  0  0  0  0  0
   36.1530   30.8140   38.9130 O   0  0  0  0  0  0  0  0  0  0  0  0
   35.8520   29.9210   40.1130 P   0  0  0  0  0  0  0  0  0  0  0  0
   35.8910   30.9360   41.4780 O   0  0  0  0  0  0  0  0  0  0  0  0
   36.3150   31.8100   41.2950 H   0  0  0  0  0  0  0  0  0  0  0  0
   34.3300   29.2350   40.0160 O   0  0  0  0  0  0  0  0  0  0  0  0
   34.1100   28.8550   39.1380 H   0  0  0  0  0  0  0  0  0  0  0  0
  1  2  1  0  0  0  0
  1 16  1  0  0  0  0
  2  7  1  0  0  0  0
  2  8  1  0  0  0  0
  3  9  1  0  0  0  0
  3  2  1  0  0  0  0
  4  5  1  0  0  0  0
  4  3  1  0  0  0  0
  5 13  1  0  0  0  0
  5  6  1  0  0  0  0
  6 15  1  6  0  0  0
  6  1  1  0  0  0  0
 10  3  1  0  0  0  0
 11  4  1  0  0  0  0
 12  4  1  0  0  0  0
 14  5  1  0  0  0  0
 16 17  1  0  0  0  0
 16 19  1  0  0  0  0
 18 16  1  0  0  0  0
 19 20  1  0  0  0  0
 21 19  1  0  0  0  0
 22 23  1  0  0  0  0
 23 29  1  0  0  0  0
 23 24  2  0  0  0  0
 24 19  1  0  0  0  0
 25 24  1  0  0  0  0
 26 25  2  0  0  0  0
 27 22  2  0  0  0  0
 27 26  1  0  0  0  0
 28 22  1  0  0  0  0
 30 26  1  0  0  0  0
 31  6  1  0  0  0  0
 32 33  2  0  0  0  0
 33 31  1  0  0  0  0
 33 34  1  0  0  0  0
 35 34  1  0  0  0  0
 36 33  1  0  0  0  0
 37 36  1  0  0  0  0
M  END
>  <minimizedAffinity>
-4.87343216

$$$$

 OpenBabel03252508583D

 37 38  0  0  1  0  0  0  0  0999 V2000
   36.0590   29.4880   38.5490 N   0  0  0  0  0  0  0  0  0  0  0  0
   34.9320   28.7830   38.0400 C   0  0  0  0  0  0  0  0  0  0  0  0
   34.5990   29.0180   36.5920 C   0  0  0  0  0  0  0  0  0  0  0  0
   35.7790   29.3240   35.7160 C   0  0  0  0  0  0  0  0  0  0  0  0
   37.0760   29.2330   36.4630 C   0  0  0  0  0  0  0  0  0  0  0  0
   36.8810   30.2020   37.6720 C   0  0  2  0  0  0  0  0  0  0  0  0
   35.1300   27.6990   38.1710 H   0  0  0  0  0  0  0  0  0  0  0  0
   34.0410   29.0110   38.6630 H   0  0  0  0  0  0  0  0  0  0  0  0
   33.8010   29.7910   36.5440 H   0  0  0  0  0  0  0  0  0  0  0  0
   34.1350   28.0820   36.1810 H   0  0  0  0  0  0  0  0  0  0  0  0
   35.6700   30.3510   35.3160 H   0  0  0  0  0  0  0  0  0  0  0  0
   35.8610   28.6280   34.8340 H   0  0  0  0  0  0  0  0  0  0  0  0
   37.2720   28.2570   36.8990 H   0  0  0  0  0  0  0  0  0  0  0  0
   37.8630   29.6190   35.8030 H   0  0  0  0  0  0  0  0  0  0  0  0
   36.5070   31.1030   37.1830 H   0  0  0  0  0  0  0  0  0  0  0  0
   35.8770   29.9910   39.8790 C   0  0  0  0  0  0  0  0  0  0  0  0
   35.0830   30.7680   39.8940 H   0  0  0  0  0  0  0  0  0  0  0  0
   36.8060   30.4670   40.2460 H   0  0  0  0  0  0  0  0  0  0  0  0
   35.4640   28.8830   40.7920 C   0  0  0  0  0  0  0  0  0  0  0  0
   34.6160   29.2230   41.4300 H   0  0  0  0  0  0  0  0  0  0  0  0
   35.1950   27.9320   40.2850 H   0  0  0  0  0  0  0  0  0  0  0  0
   38.4660   29.2460   43.0250 C   0  0  0  0  0  0  0  0  0  0  0  0
   37.3940   29.5590   42.1690 C   0  0  0  0  0  0  0  0  0  0  0  0
   36.5990   28.5430   41.6920 C   0  0  0  0  0  0  0  0  0  0  0  0
   36.8860   27.2870   42.0710 N   0  0  0  0  0  0  0  0  0  0  0  0
   37.9180   27.0030   42.8920 C   0  0  0  0  0  0  0  0  0  0  0  0
   38.7120   27.9730   43.3750 N   0  0  0  0  0  0  0  0  0  0  0  0
   39.0910   30.0410   43.4000 H   0  0  0  0  0  0  0  0  0  0  0  0
   37.2580   30.6130   41.9310 H   0  0  0  0  0  0  0  0  0  0  0  0
   38.0390   25.9410   43.1190 H   0  0  0  0  0  0  0  0  0  0  0  0
   38.1670   30.3010   38.1950 O   0  0  0  0  0  0  0  0  0  0  0  0
   39.7470   32.1340   39.2810 O   0  0  0  0  0  0  0  0  0  0  0  0
   38.7690   31.8760   38.1390 P   0  0  0  0  0  0  0  0  0  0  0  0
   37.4510   32.9200   38.4030 O   0  0  0  0  0  0  0  0  0  0  0  0
   37.4390   33.2990   39.3160 H   0  0  0  0  0  0  0  0  0  0  0  0
   39.4350   32.2430   36.6500 O   0  0  0  0  0  0  0  0  0  0  0  0
   40.3450   31.9000   36.5150 H   0  0  0  0  0  0  0  0  0  0  0  0
  1 16  1  0  0  0  0
  2  7  1  0  0  0  0
  2  1  1  0  0  0  0
  2  8  1  0  0  0  0
  3  2  1  0  0  0  0
  4  5  1  0  0  0  0
  4  3  1  0  0  0  0
  5 13  1  0  0  0  0
  5  6  1  0  0  0  0
  6 15  1  6  0  0  0
  6 31  1  0  0  0  0
  6  1  1  0  0  0  0
  9  3  1  0  0  0  0
 10  3  1  0  0  0  0
 11  4  1  0  0  0  0
 12  4  1  0  0  0  0
 14  5  1  0  0  0  0
 16 17  1  0  0  0  0
 16 18  1  0  0  0  0
 16 19  1  0  0  0  0
 19 20  1  0  0  0  0
 19 24  1  0  0  0  0
 21 19  1  0  0  0  0
 22 27  1  0  0  0  0
 22 28  1  0  0  0  0
 23 22  2  0  0  0  0
 24 25  2  0  0  0  0
 24 23  1  0  0  0  0
 25 26  1  0  0  0  0
 26 30  1  0  0  0  0
 26 27  2  0  0  0  0
 29 23  1  0  0  0  0
 33 31  1  0  0  0  0
 33 34  1  0  0  0  0
 33 32  2  0  0  0  0
 34 35  1  0  0  0  0
 36 33  1  0  0  0  0
 37 36  1  0  0  0  0
M  END
>  <minimizedAffinity>
-4.85138178

$$$$

 OpenBabel03252508583D

 37 38  0  0  1  0  0  0  0  0999 V2000
   38.9570   28.3710   41.6450 N   0  0  0  0  0  0  0  0  0  0  0  0
   39.3930   27.5220   42.7010 C   0  0  0  0  0  0  0  0  0  0  0  0
   38.3380   27.0840   43.6790 C   0  0  0  0  0  0  0  0  0  0  0  0
   36.9580   26.9520   43.1020 C   0  0  0  0  0  0  0  0  0  0  0  0
   36.9400   27.1960   41.6230 C   0  0  0  0  0  0  0  0  0  0  0  0
   37.5900   28.6070   41.4660 C   0  0  2  0  0  0  0  0  0  0  0  0
   39.8270   26.6110   42.2390 H   0  0  0  0  0  0  0  0  0  0  0  0
   40.2230   28.0140   43.2530 H   0  0  0  0  0  0  0  0  0  0  0  0
   38.3850   27.7590   44.5620 H   0  0  0  0  0  0  0  0  0  0  0  0
   38.6160   26.0670   44.0650 H   0  0  0  0  0  0  0  0  0  0  0  0
   36.2950   27.6910   43.5930 H   0  0  0  0  0  0  0  0  0  0  0  0
   36.5090   25.9330   43.2710 H   0  0  0  0  0  0  0  0  0  0  0  0
   37.5690   26.5190   41.0510 H   0  0  0  0  0  0  0  0  0  0  0  0
   35.8900   27.2370   41.3100 H   0  0  0  0  0  0  0  0  0  0  0  0
   37.0370   29.1950   42.2010 H   0  0  0  0  0  0  0  0  0  0  0  0
   39.8800   29.4200   41.3250 C   0  0  0  0  0  0  0  0  0  0  0  0
   39.7570   29.7350   40.2680 H   0  0  0  0  0  0  0  0  0  0  0  0
   40.9240   29.0690   41.4410 H   0  0  0  0  0  0  0  0  0  0  0  0
   39.6290   30.6060   42.1990 C   0  0  0  0  0  0  0  0  0  0  0  0
   38.6150   30.5240   42.6540 H   0  0  0  0  0  0  0  0  0  0  0  0
   40.3850   30.7730   42.9940 H   0  0  0  0  0  0  0  0  0  0  0  0
   40.8940   33.4860   40.1400 C   0  0  0  0  0  0  0  0  0  0  0  0
   40.8650   32.3230   40.9310 C   0  0  0  0  0  0  0  0  0  0  0  0
   39.6520   31.8390   41.3670 C   0  0  0  0  0  0  0  0  0  0  0  0
   38.5430   32.5070   41.0110 N   0  0  0  0  0  0  0  0  0  0  0  0
   38.5880   33.6220   40.2520 C   0  0  0  0  0  0  0  0  0  0  0  0
   39.7550   34.1180   39.8110 N   0  0  0  0  0  0  0  0  0  0  0  0
   41.8420   33.8670   39.7980 H   0  0  0  0  0  0  0  0  0  0  0  0
   41.8270   31.8670   41.1560 H   0  0  0  0  0  0  0  0  0  0  0  0
   37.6120   34.0640   40.0370 H   0  0  0  0  0  0  0  0  0  0  0  0
   37.3280   28.9190   40.1360 O   0  0  0  0  0  0  0  0  0  0  0  0
   34.8130   29.3990   39.4440 O   0  0  0  0  0  0  0  0  0  0  0  0
   36.0880   30.0510   39.9690 P   0  0  0  0  0  0  0  0  0  0  0  0
   36.5820   31.1540   38.7700 O   0  0  0  0  0  0  0  0  0  0  0  0
   36.1290   31.0070   37.9040 H   0  0  0  0  0  0  0  0  0  0  0  0
   35.8190   30.9030   41.3820 O   0  0  0  0  0  0  0  0  0  0  0  0
   35.2800   30.4250   42.0500 H   0  0  0  0  0  0  0  0  0  0  0  0
  1  2  1  0  0  0  0
  2  8  1  0  0  0  0
  2  3  1  0  0  0  0
  3 10  1  0  0  0  0
  3  9  1  0  0  0  0
  4 12  1  0  0  0  0
  4 11  1  0  0  0  0
  4  3  1  0  0  0  0
  5  4  1  0  0  0  0
  6  5  1  0  0  0  0
  6  1  1  0  0  0  0
  6 15  1  1  0  0  0
  7  2  1  0  0  0  0
 13  5  1  0  0  0  0
 14  5  1  0  0  0  0
 16 18  1  0  0  0  0
 16  1  1  0  0  0  0
 16 19  1  0  0  0  0
 17 16  1  0  0  0  0
 19 20  1  0  0  0  0
 19 21  1  0  0  0  0
 22 23  1  0  0  0  0
 23 29  1  0  0  0  0
 23 24  2  0  0  0  0
 24 19  1  0  0  0  0
 25 24  1  0  0  0  0
 26 25  2  0  0  0  0
 27 22  2  0  0  0  0
 27 26  1  0  0  0  0
 28 22  1  0  0  0  0
 30 26  1  0  0  0  0
 31  6  1  0  0  0  0
 32 33  2  0  0  0  0
 33 31  1  0  0  0  0
 33 36  1  0  0  0  0
 34 33  1  0  0  0  0
 35 34  1  0  0  0  0
 36 37  1  0  0  0  0
M  END
>  <minimizedAffinity>
-4.84188271

$$$$

 OpenBabel03252508583D

 37 38  0  0  1  0  0  0  0  0999 V2000
   38.0940   29.7260   41.7820 N   0  0  0  0  0  0  0  0  0  0  0  0
   36.7180   29.6450   41.4250 C   0  0  0  0  0  0  0  0  0  0  0  0
   36.1540   30.8240   40.6800 C   0  0  0  0  0  0  0  0  0  0  0  0
   37.1370   31.5460   39.8050 C   0  0  0  0  0  0  0  0  0  0  0  0
   38.4750   30.8700   39.7830 C   0  0  0  0  0  0  0  0  0  0  0  0
   38.8750   30.7760   41.2890 C   0  0  2  0  0  0  0  0  0  0  0  0
   36.5920   28.7470   40.7850 H   0  0  0  0  0  0  0  0  0  0  0  0
   36.1090   29.4620   42.3370 H   0  0  0  0  0  0  0  0  0  0  0  0
   35.6490   31.4870   41.4170 H   0  0  0  0  0  0  0  0  0  0  0  0
   35.3400   30.4540   40.0010 H   0  0  0  0  0  0  0  0  0  0  0  0
   37.2670   32.5770   40.1900 H   0  0  0  0  0  0  0  0  0  0  0  0
   36.7940   31.6270   38.7360 H   0  0  0  0  0  0  0  0  0  0  0  0
   38.4510   29.8440   39.4230 H   0  0  0  0  0  0  0  0  0  0  0  0
   39.1710   31.5350   39.2570 H   0  0  0  0  0  0  0  0  0  0  0  0
   38.7000   31.7970   41.6340 H   0  0  0  0  0  0  0  0  0  0  0  0
   38.3860   29.2090   43.0870 C   0  0  0  0  0  0  0  0  0  0  0  0
   38.1540   29.9660   43.8640 H   0  0  0  0  0  0  0  0  0  0  0  0
   39.4630   28.9680   43.1770 H   0  0  0  0  0  0  0  0  0  0  0  0
   37.5570   27.9950   43.3520 C   0  0  0  0  0  0  0  0  0  0  0  0
   37.2130   28.0030   44.4120 H   0  0  0  0  0  0  0  0  0  0  0  0
   36.6870   27.8630   42.6760 H   0  0  0  0  0  0  0  0  0  0  0  0
   40.4640   25.6150   43.5050 C   0  0  0  0  0  0  0  0  0  0  0  0
   39.6690   26.7630   43.6780 C   0  0  0  0  0  0  0  0  0  0  0  0
   38.3940   26.7800   43.1590 C   0  0  0  0  0  0  0  0  0  0  0  0
   37.9660   25.6880   42.5050 N   0  0  0  0  0  0  0  0  0  0  0  0
   38.7410   24.5950   42.3470 C   0  0  0  0  0  0  0  0  0  0  0  0
   39.9880   24.5480   42.8420 N   0  0  0  0  0  0  0  0  0  0  0  0
   41.4630   25.6000   43.9100 H   0  0  0  0  0  0  0  0  0  0  0  0
   40.1230   27.5870   44.2250 H   0  0  0  0  0  0  0  0  0  0  0  0
   38.2680   23.7790   41.7950 H   0  0  0  0  0  0  0  0  0  0  0  0
   40.2100   30.3910   41.2280 O   0  0  0  0  0  0  0  0  0  0  0  0
   42.6160   31.4530   40.8790 O   0  0  0  0  0  0  0  0  0  0  0  0
   41.2670   31.6640   41.5600 P   0  0  0  0  0  0  0  0  0  0  0  0
   41.5730   31.6310   43.2340 O   0  0  0  0  0  0  0  0  0  0  0  0
   42.4630   31.2590   43.4540 H   0  0  0  0  0  0  0  0  0  0  0  0
   40.6010   33.1500   41.1810 O   0  0  0  0  0  0  0  0  0  0  0  0
   40.6360   33.3810   40.2270 H   0  0  0  0  0  0  0  0  0  0  0  0
  1 16  1  0  0  0  0
  2  1  1  0  0  0  0
  2  8  1  0  0  0  0
  3  9  1  0  0  0  0
  3  2  1  0  0  0  0
  4 11  1  0  0  0  0
  4  3  1  0  0  0  0
  5  4  1  0  0  0  0
  5  6  1  0  0  0  0
  6 15  1  1  0  0  0
  6  1  1  0  0  0  0
  7  2  1  0  0  0  0
 10  3  1  0  0  0  0
 12  4  1  0  0  0  0
 13  5  1  0  0  0  0
 14  5  1  0  0  0  0
 16 18  1  0  0  0  0
 16 19  1  0  0  0  0
 16 17  1  0  0  0  0
 19 20  1  0  0  0  0
 21 19  1  0  0  0  0
 22 23  1  0  0  0  0
 22 28  1  0  0  0  0
 23 29  1  0  0  0  0
 24 19  1  0  0  0  0
 24 23  2  0  0  0  0
 25 24  1  0  0  0  0
 26 25  2  0  0  0  0
 26 27  1  0  0  0  0
 27 22  2  0  0  0  0
 30 26  1  0  0  0  0
 31  6  1  0  0  0  0
 31 33  1  0  0  0  0
 32 33  2  0  0  0  0
 33 34  1  0  0  0  0
 34 35  1  0  0  0  0
 36 33  1  0  0  0  0
 37 36  1  0  0  0  0
M  END
>  <minimizedAffinity>
-4.79830217

$$$$

 OpenBabel03252508583D

 37 38  0  0  1  0  0  0  0  0999 V2000
   36.8280   27.3760   38.7070 N   0  0  0  0  0  0  0  0  0  0  0  0
   36.0720   26.7400   37.6820 C   0  0  0  0  0  0  0  0  0  0  0  0
   34.6160   27.1100   37.6040 C   0  0  0  0  0  0  0  0  0  0  0  0
   34.2960   28.5080   38.0450 C   0  0  0  0  0  0  0  0  0  0  0  0
   35.5300   29.2900   38.3840 C   0  0  0  0  0  0  0  0  0  0  0  0
   36.2510   28.4080   39.4520 C   0  0  2  0  0  0  0  0  0  0  0  0
   36.5410   27.0010   36.7110 H   0  0  0  0  0  0  0  0  0  0  0  0
   36.1660   25.6370   37.7830 H   0  0  0  0  0  0  0  0  0  0  0  0
   34.0340   26.3320   38.1460 H   0  0  0  0  0  0  0  0  0  0  0  0
   34.2910   27.0340   36.5320 H   0  0  0  0  0  0  0  0  0  0  0  0
   33.6480   28.4600   38.9420 H   0  0  0  0  0  0  0  0  0  0  0  0
   33.7420   29.0980   37.2610 H   0  0  0  0  0  0  0  0  0  0  0  0
   36.2350   29.3880   37.5630 H   0  0  0  0  0  0  0  0  0  0  0  0
   35.2070   30.2330   38.8400 H   0  0  0  0  0  0  0  0  0  0  0  0
   35.4410   28.1910   40.1510 H   0  0  0  0  0  0  0  0  0  0  0  0
   37.7750   26.5130   39.3500 C   0  0  0  0  0  0  0  0  0  0  0  0
   38.6280   27.1010   39.7460 H   0  0  0  0  0  0  0  0  0  0  0  0
   38.1890   25.7820   38.6280 H   0  0  0  0  0  0  0  0  0  0  0  0
   37.1240   25.8040   40.4930 C   0  0  0  0  0  0  0  0  0  0  0  0
   36.2550   26.4010   40.8560 H   0  0  0  0  0  0  0  0  0  0  0  0
   36.8010   24.7630   40.2790 H   0  0  0  0  0  0  0  0  0  0  0  0
   39.6290   24.3700   42.9030 C   0  0  0  0  0  0  0  0  0  0  0  0
   38.7060   24.4810   41.8470 C   0  0  0  0  0  0  0  0  0  0  0  0
   38.0950   25.6930   41.6160 C   0  0  0  0  0  0  0  0  0  0  0  0
   38.4130   26.7220   42.4170 N   0  0  0  0  0  0  0  0  0  0  0  0
   39.3010   26.5990   43.4260 C   0  0  0  0  0  0  0  0  0  0  0  0
   39.9140   25.4310   43.6760 N   0  0  0  0  0  0  0  0  0  0  0  0
   40.1080   23.4220   43.0860 H   0  0  0  0  0  0  0  0  0  0  0  0
   38.5270   23.5790   41.2640 H   0  0  0  0  0  0  0  0  0  0  0  0
   39.4660   27.5140   43.9990 H   0  0  0  0  0  0  0  0  0  0  0  0
   37.2390   29.2600   39.9360 O   0  0  0  0  0  0  0  0  0  0  0  0
   38.1190   30.3480   42.1900 O   0  0  0  0  0  0  0  0  0  0  0  0
   36.8620   29.8930   41.4540 P   0  0  0  0  0  0  0  0  0  0  0  0
   36.2120   28.6180   42.3750 O   0  0  0  0  0  0  0  0  0  0  0  0
   36.8500   28.2590   43.0390 H   0  0  0  0  0  0  0  0  0  0  0  0
   35.7170   31.1080   41.3630 O   0  0  0  0  0  0  0  0  0  0  0  0
   36.0720   31.9840   41.0960 H   0  0  0  0  0  0  0  0  0  0  0  0
  1 16  1  0  0  0  0
  1  6  1  0  0  0  0
  2  8  1  0  0  0  0
  2  1  1  0  0  0  0
  3  2  1  0  0  0  0
  3  4  1  0  0  0  0
  3  9  1  0  0  0  0
  4  5  1  0  0  0  0
  4 11  1  0  0  0  0
  5 14  1  0  0  0  0
  5  6  1  0  0  0  0
  6 31  1  0  0  0  0
  6 15  1  1  0  0  0
  7  2  1  0  0  0  0
 10  3  1  0  0  0  0
 12  4  1  0  0  0  0
 13  5  1  0  0  0  0
 16 17  1  0  0  0  0
 16 19  1  0  0  0  0
 18 16  1  0  0  0  0
 19 20  1  0  0  0  0
 19 24  1  0  0  0  0
 21 19  1  0  0  0  0
 22 28  1  0  0  0  0
 22 27  1  0  0  0  0
 23 22  2  0  0  0  0
 24 23  1  0  0  0  0
 24 25  2  0  0  0  0
 25 26  1  0  0  0  0
 26 27  2  0  0  0  0
 26 30  1  0  0  0  0
 29 23  1  0  0  0  0
 31 33  1  0  0  0  0
 33 32  2  0  0  0  0
 33 34  1  0  0  0  0
 34 35  1  0  0  0  0
 36 33  1  0  0  0  0
 37 36  1  0  0  0  0
M  END
>  <minimizedAffinity>
-4.79141998

$$$$
