
 OpenBabel03252508513D

 26 27  0  0  0  0  0  0  0  0999 V2000
   45.9910   34.1310   41.1330 C   0  0  0  0  0  0  0  0  0  0  0  0
   46.5490   34.8260   42.2010 C   0  0  0  0  0  0  0  0  0  0  0  0
   47.8680   35.2730   42.0560 C   0  0  0  0  0  0  0  0  0  0  0  0
   48.5110   35.0020   40.8920 N   0  0  0  0  0  0  0  0  0  0  0  0
   47.9400   34.3310   39.8850 C   0  0  0  0  0  0  0  0  0  0  0  0
   46.6680   33.8930   40.0100 N   0  0  0  0  0  0  0  0  0  0  0  0
   48.3300   35.8190   42.8760 H   0  0  0  0  0  0  0  0  0  0  0  0
   48.5580   34.1840   39.0220 H   0  0  0  0  0  0  0  0  0  0  0  0
   45.7630   35.0630   43.4110 C   0  0  0  0  0  0  0  0  0  0  0  0
   45.0450   36.2150   43.6350 C   0  0  0  0  0  0  0  0  0  0  0  0
   44.4750   36.0060   44.8720 C   0  0  0  0  0  0  0  0  0  0  0  0
   44.8260   34.7970   45.3750 N   0  0  0  0  0  0  0  0  0  0  0  0
   45.6030   34.2510   44.4710 N   0  0  0  0  0  0  0  0  0  0  0  0
   44.9070   37.1010   43.0520 H   0  0  0  0  0  0  0  0  0  0  0  0
   43.8160   36.6320   45.4860 H   0  0  0  0  0  0  0  0  0  0  0  0
   44.6170   34.2800   46.2420 H   0  0  0  0  0  0  0  0  0  0  0  0
   44.6880   33.6840   41.2620 O   0  0  0  0  0  0  0  0  0  0  0  0
   43.5780   34.2740   40.7200 C   0  0  0  0  0  0  0  0  0  0  0  0
   43.2720   35.5100   40.6940 O   0  0  0  0  0  0  0  0  0  0  0  0
   42.4510   33.7480   40.0430 O   0  0  0  0  0  0  0  0  0  0  0  0
   43.0970   32.4100   37.8960 O   0  0  0  0  0  0  0  0  0  0  0  0
   42.4190   33.6930   38.3310 P   0  0  0  0  0  0  0  0  0  0  0  0
   40.8130   33.6270   37.8240 O   0  0  0  0  0  0  0  0  0  0  0  0
   40.4860   32.6770   37.9040 H   0  0  0  0  0  0  0  0  0  0  0  0
   43.2460   34.9820   37.6220 O   0  0  0  0  0  0  0  0  0  0  0  0
   42.7080   35.4940   36.9690 H   0  0  0  0  0  0  0  0  0  0  0  0
  1 17  1  0  0  0  0
  1  2  1  0  0  0  0
  2  9  1  0  0  0  0
  3  2  2  0  0  0  0
  3  7  1  0  0  0  0
  4  3  1  0  0  0  0
  5  6  1  0  0  0  0
  5  4  2  0  0  0  0
  6  1  2  0  0  0  0
  8  5  1  0  0  0  0
  9 10  1  0  0  0  0
  9 13  2  0  0  0  0
 10 11  2  0  0  0  0
 11 12  1  0  0  0  0
 11 15  1  0  0  0  0
 12 16  1  0  0  0  0
 13 12  1  0  0  0  0
 14 10  1  0  0  0  0
 18 17  1  0  0  0  0
 19 18  2  0  0  0  0
 20 18  1  0  0  0  0
 21 22  2  0  0  0  0
 22 20  1  0  0  0  0
 23 24  1  0  0  0  0
 23 22  1  0  0  0  0
 25 22  1  0  0  0  0
 26 25  1  0  0  0  0
M  END
>  <minimizedAffinity>
-5.03939962

>  <minimizedRMSD>
0.428506166

$$$$
