
 OpenBabel03252504123D

 33 34  0  0  0  0  0  0  0  0999 V2000
   47.7670   30.0110   44.7440 F   0  0  0  0  0  0  0  0  0  0  0  0
   47.6620   30.6900   45.9400 C   0  0  0  0  0  0  0  0  0  0  0  0
   47.0640   31.9250   45.9650 C   0  0  0  0  0  0  0  0  0  0  0  0
   46.9940   32.5560   47.2120 C   0  0  0  0  0  0  0  0  0  0  0  0
   47.5080   31.9400   48.3290 C   0  0  0  0  0  0  0  0  0  0  0  0
   48.1070   30.6730   48.2290 C   0  0  0  0  0  0  0  0  0  0  0  0
   48.1920   30.0250   47.0120 C   0  0  0  0  0  0  0  0  0  0  0  0
   46.5350   33.5310   47.3080 H   0  0  0  0  0  0  0  0  0  0  0  0
   47.4280   32.4720   49.2690 H   0  0  0  0  0  0  0  0  0  0  0  0
   48.4990   30.2240   49.1330 H   0  0  0  0  0  0  0  0  0  0  0  0
   46.7840   34.1490   43.0930 C   0  0  0  0  0  0  0  0  0  0  0  0
   45.5780   33.7820   42.4920 C   0  0  0  0  0  0  0  0  0  0  0  0
   44.8470   32.7360   43.1040 C   0  0  0  0  0  0  0  0  0  0  0  0
   45.3430   32.1520   44.2210 N   0  0  0  0  0  0  0  0  0  0  0  0
   46.5250   32.5510   44.7630 C   0  0  0  0  0  0  0  0  0  0  0  0
   47.2350   33.5420   44.1990 N   0  0  0  0  0  0  0  0  0  0  0  0
   43.9080   32.4250   42.6670 H   0  0  0  0  0  0  0  0  0  0  0  0
   45.1060   34.4660   41.2770 C   0  0  0  0  0  0  0  0  0  0  0  0
   44.8550   35.8020   41.5690 F   0  0  0  0  0  0  0  0  0  0  0  0
   46.1450   34.4550   40.3640 F   0  0  0  0  0  0  0  0  0  0  0  0
   44.0010   33.9430   40.7030 F   0  0  0  0  0  0  0  0  0  0  0  0
   47.4790   35.1500   42.5030 O   0  0  0  0  0  0  0  0  0  0  0  0
   48.7750   35.0510   41.9360 C   0  0  0  0  0  0  0  0  0  0  0  0
   49.6820   35.2800   42.9760 F   0  0  0  0  0  0  0  0  0  0  0  0
   48.9400   33.8360   41.3320 F   0  0  0  0  0  0  0  0  0  0  0  0
   48.9700   36.1100   41.0710 F   0  0  0  0  0  0  0  0  0  0  0  0
   48.7840   28.7940   46.9690 O   0  0  0  0  0  0  0  0  0  0  0  0
   48.3760   26.2490   46.6420 O   0  0  0  0  0  0  0  0  0  0  0  0
   48.1800   27.3780   47.6580 P   0  0  0  0  0  0  0  0  0  0  0  0
   46.5050   27.4390   47.9420 O   0  0  0  0  0  0  0  0  0  0  0  0
   46.0470   27.9650   47.2350 H   0  0  0  0  0  0  0  0  0  0  0  0
   48.9780   26.8820   49.0510 O   0  0  0  0  0  0  0  0  0  0  0  0
   49.9180   26.7060   48.8790 H   0  0  0  0  0  0  0  0  0  0  0  0
  1  2  1  0  0  0  0
  2  3  2  0  0  0  0
  2  7  1  0  0  0  0
  3  4  1  0  0  0  0
  4  8  1  0  0  0  0
  4  5  2  0  0  0  0
  5  9  1  0  0  0  0
  6  5  1  0  0  0  0
  6 10  1  0  0  0  0
  7  6  2  0  0  0  0
 11 16  1  0  0  0  0
 12 11  2  0  0  0  0
 12 13  1  0  0  0  0
 13 14  2  0  0  0  0
 14 15  1  0  0  0  0
 15  3  1  0  0  0  0
 16 15  2  0  0  0  0
 17 13  1  0  0  0  0
 18 19  1  0  0  0  0
 18 12  1  0  0  0  0
 20 18  1  0  0  0  0
 21 18  1  0  0  0  0
 22 11  1  0  0  0  0
 23 22  1  0  0  0  0
 23 24  1  0  0  0  0
 25 23  1  0  0  0  0
 26 23  1  0  0  0  0
 27  7  1  0  0  0  0
 27 29  1  0  0  0  0
 28 29  2  0  0  0  0
 29 30  1  0  0  0  0
 29 32  1  0  0  0  0
 31 30  1  0  0  0  0
 33 32  1  0  0  0  0
M  END
>  <minimizedAffinity>
-5.64058018

>  <minimizedRMSD>
0.516464233

$$$$
