
 OpenBabel03252508303D

 37 39  0  0  1  0  0  0  0  0999 V2000
   37.0140   29.4350   42.6030 N   0  0  0  0  0  0  0  0  0  0  0  0
   36.7420   28.0120   42.3770 C   0  0  2  0  0  0  0  0  0  0  0  0
   37.8950   27.1440   42.7090 C   0  0  0  0  0  0  0  0  0  0  0  0
   38.9470   27.8600   43.4110 N   0  0  0  0  0  0  0  0  0  0  0  0
   39.3440   29.0890   42.8260 C   0  0  0  0  0  0  0  0  0  0  0  0
   38.2990   29.6740   41.9050 C   0  0  2  0  0  0  0  0  0  0  0  0
   37.1830   29.5980   43.6120 H   0  0  0  0  0  0  0  0  0  0  0  0
   35.8060   27.7650   42.9450 H   0  0  0  0  0  0  0  0  0  0  0  0
   38.4640   26.7050   41.8750 H   0  0  0  0  0  0  0  0  0  0  0  0
   37.5400   26.3730   43.4340 H   0  0  0  0  0  0  0  0  0  0  0  0
   39.6960   27.1940   43.6400 H   0  0  0  0  0  0  0  0  0  0  0  0
   40.3230   28.9480   42.3110 H   0  0  0  0  0  0  0  0  0  0  0  0
   39.4690   29.8240   43.6480 H   0  0  0  0  0  0  0  0  0  0  0  0
   38.3430   29.1560   40.9390 H   0  0  0  0  0  0  0  0  0  0  0  0
   35.5230   28.0800   38.9800 C   0  0  0  0  0  0  0  0  0  0  0  0
   36.4560   27.0420   38.9860 C   0  0  0  0  0  0  0  0  0  0  0  0
   37.0030   26.8960   40.2450 C   0  0  0  0  0  0  0  0  0  0  0  0
   36.4030   27.8370   40.9710 N   0  0  0  0  0  0  0  0  0  0  0  0
   35.5400   28.5260   40.2360 N   0  0  0  0  0  0  0  0  0  0  0  0
   36.6360   26.4940   38.0410 H   0  0  0  0  0  0  0  0  0  0  0  0
   37.7240   26.0870   40.2570 H   0  0  0  0  0  0  0  0  0  0  0  0
   32.7920   29.2200   36.6650 C   0  0  0  0  0  0  0  0  0  0  0  0
   33.4100   28.8270   37.8950 C   0  0  0  0  0  0  0  0  0  0  0  0
   34.7390   28.4960   37.8200 C   0  0  0  0  0  0  0  0  0  0  0  0
   35.3970   28.5530   36.6180 N   0  0  0  0  0  0  0  0  0  0  0  0
   34.7670   28.9320   35.4810 C   0  0  0  0  0  0  0  0  0  0  0  0
   33.4790   29.2570   35.5330 N   0  0  0  0  0  0  0  0  0  0  0  0
   31.7420   29.4660   36.8040 H   0  0  0  0  0  0  0  0  0  0  0  0
   32.9370   28.7690   38.8500 H   0  0  0  0  0  0  0  0  0  0  0  0
   35.3160   28.9660   34.5510 H   0  0  0  0  0  0  0  0  0  0  0  0
   38.4460   31.0530   41.7840 O   0  0  0  0  0  0  0  0  0  0  0  0
   37.7290   31.0300   39.2300 O   0  0  0  0  0  0  0  0  0  0  0  0
   37.4700   31.6890   40.5590 P   0  0  0  0  0  0  0  0  0  0  0  0
   37.6680   33.3830   40.4590 O   0  0  0  0  0  0  0  0  0  0  0  0
   38.1160   33.6590   41.2980 H   0  0  0  0  0  0  0  0  0  0  0  0
   35.8530   31.3980   40.9800 O   0  0  0  0  0  0  0  0  0  0  0  0
   35.4700   32.1100   41.5620 H   0  0  0  0  0  0  0  0  0  0  0  0
  1  7  1  0  0  0  0
  2  1  1  0  0  0  0
  2  3  1  0  0  0  0
  2  8  1  1  0  0  0
  3  4  1  0  0  0  0
  3 10  1  0  0  0  0
  4 11  1  0  0  0  0
  5  4  1  0  0  0  0
  5 13  1  0  0  0  0
  6 14  1  6  0  0  0
  6  1  1  0  0  0  0
  6  5  1  0  0  0  0
  9  3  1  0  0  0  0
 12  5  1  0  0  0  0
 15 16  1  0  0  0  0
 15 19  2  0  0  0  0
 16 17  2  0  0  0  0
 17 21  1  0  0  0  0
 17 18  1  0  0  0  0
 18  2  1  0  0  0  0
 19 18  1  0  0  0  0
 20 16  1  0  0  0  0
 22 28  1  0  0  0  0
 22 23  1  0  0  0  0
 23 29  1  0  0  0  0
 24 23  2  0  0  0  0
 24 15  1  0  0  0  0
 25 24  1  0  0  0  0
 26 27  1  0  0  0  0
 26 25  2  0  0  0  0
 27 22  2  0  0  0  0
 30 26  1  0  0  0  0
 31  6  1  0  0  0  0
 32 33  2  0  0  0  0
 33 36  1  0  0  0  0
 33 31  1  0  0  0  0
 34 33  1  0  0  0  0
 34 35  1  0  0  0  0
 36 37  1  0  0  0  0
M  END
>  <minimizedAffinity>
-5.61029768

$$$$

 OpenBabel03252508303D

 37 39  0  0  1  0  0  0  0  0999 V2000
   38.8050   30.9310   38.6580 N   0  0  0  0  0  0  0  0  0  0  0  0
   37.5100   30.8630   39.3420 C   0  0  2  0  0  0  0  0  0  0  0  0
   37.0600   32.1750   39.8610 C   0  0  0  0  0  0  0  0  0  0  0  0
   37.8730   33.2760   39.3700 N   0  0  0  0  0  0  0  0  0  0  0  0
   39.2750   33.0980   39.4860 C   0  0  0  0  0  0  0  0  0  0  0  0
   39.6820   31.6480   39.6140 C   0  0  2  0  0  0  0  0  0  0  0  0
   38.7200   31.5310   37.8180 H   0  0  0  0  0  0  0  0  0  0  0  0
   36.7890   30.3830   38.6270 H   0  0  0  0  0  0  0  0  0  0  0  0
   37.1160   32.3440   40.9470 H   0  0  0  0  0  0  0  0  0  0  0  0
   36.0400   32.3680   39.4520 H   0  0  0  0  0  0  0  0  0  0  0  0
   37.4870   34.1530   39.7390 H   0  0  0  0  0  0  0  0  0  0  0  0
   39.6520   33.7130   40.3360 H   0  0  0  0  0  0  0  0  0  0  0  0
   39.7360   33.4600   38.5430 H   0  0  0  0  0  0  0  0  0  0  0  0
   39.5170   31.3200   40.6470 H   0  0  0  0  0  0  0  0  0  0  0  0
   38.1990   28.2200   41.7020 C   0  0  0  0  0  0  0  0  0  0  0  0
   37.4070   29.1170   42.4180 C   0  0  0  0  0  0  0  0  0  0  0  0
   37.0560   30.1890   41.6220 C   0  0  0  0  0  0  0  0  0  0  0  0
   37.6370   29.9290   40.4520 N   0  0  0  0  0  0  0  0  0  0  0  0
   38.3020   28.7820   40.4980 N   0  0  0  0  0  0  0  0  0  0  0  0
   37.1680   28.8790   43.4740 H   0  0  0  0  0  0  0  0  0  0  0  0
   36.4350   30.8860   42.1720 H   0  0  0  0  0  0  0  0  0  0  0  0
   40.0320   25.6010   43.6760 C   0  0  0  0  0  0  0  0  0  0  0  0
   39.6130   26.9100   43.2790 C   0  0  0  0  0  0  0  0  0  0  0  0
   38.7320   26.9660   42.2290 C   0  0  0  0  0  0  0  0  0  0  0  0
   38.3060   25.8110   41.6250 N   0  0  0  0  0  0  0  0  0  0  0  0
   38.7320   24.5940   42.0370 C   0  0  0  0  0  0  0  0  0  0  0  0
   39.5860   24.5190   43.0540 N   0  0  0  0  0  0  0  0  0  0  0  0
   40.7270   25.6370   44.5110 H   0  0  0  0  0  0  0  0  0  0  0  0
   39.9180   27.8320   43.7200 H   0  0  0  0  0  0  0  0  0  0  0  0
   38.3760   23.7050   41.5390 H   0  0  0  0  0  0  0  0  0  0  0  0
   40.9930   31.4520   39.1890 O   0  0  0  0  0  0  0  0  0  0  0  0
   42.5120   31.8280   37.0470 O   0  0  0  0  0  0  0  0  0  0  0  0
   41.1220   31.4700   37.5030 P   0  0  0  0  0  0  0  0  0  0  0  0
   39.9580   32.5220   36.8290 O   0  0  0  0  0  0  0  0  0  0  0  0
   39.2980   32.6990   37.5460 H   0  0  0  0  0  0  0  0  0  0  0  0
   40.7740   29.9080   36.9390 O   0  0  0  0  0  0  0  0  0  0  0  0
   39.7990   29.7580   36.7960 H   0  0  0  0  0  0  0  0  0  0  0  0
  1  2  1  0  0  0  0
  1  6  1  0  0  0  0
  2  8  1  6  0  0  0
  2  3  1  0  0  0  0
  2 18  1  0  0  0  0
  3  9  1  0  0  0  0
  4  5  1  0  0  0  0
  4 11  1  0  0  0  0
  4  3  1  0  0  0  0
  5  6  1  0  0  0  0
  5 12  1  0  0  0  0
  6 14  1  1  0  0  0
  7  1  1  0  0  0  0
 10  3  1  0  0  0  0
 13  5  1  0  0  0  0
 15 24  1  0  0  0  0
 15 16  1  0  0  0  0
 16 20  1  0  0  0  0
 17 21  1  0  0  0  0
 17 16  2  0  0  0  0
 18 19  1  0  0  0  0
 18 17  1  0  0  0  0
 19 15  2  0  0  0  0
 22 28  1  0  0  0  0
 23 22  1  0  0  0  0
 23 29  1  0  0  0  0
 24 23  2  0  0  0  0
 25 26  2  0  0  0  0
 25 24  1  0  0  0  0
 26 27  1  0  0  0  0
 27 22  2  0  0  0  0
 30 26  1  0  0  0  0
 31  6  1  0  0  0  0
 32 33  2  0  0  0  0
 33 31  1  0  0  0  0
 34 33  1  0  0  0  0
 34 35  1  0  0  0  0
 36 33  1  0  0  0  0
 37 36  1  0  0  0  0
M  END
>  <minimizedAffinity>
-5.59581852

$$$$

 OpenBabel03252508303D

 37 39  0  0  1  0  0  0  0  0999 V2000
   37.1040   29.6770   42.7980 N   0  0  0  0  0  0  0  0  0  0  0  0
   38.1810   28.7790   43.2250 C   0  0  2  0  0  0  0  0  0  0  0  0
   39.5170   29.2130   42.7540 C   0  0  0  0  0  0  0  0  0  0  0  0
   39.4990   30.5500   42.1860 N   0  0  0  0  0  0  0  0  0  0  0  0
   38.4800   30.7940   41.2300 C   0  0  0  0  0  0  0  0  0  0  0  0
   37.3190   29.8330   41.3400 C   0  0  2  0  0  0  0  0  0  0  0  0
   37.2430   30.6100   43.2250 H   0  0  0  0  0  0  0  0  0  0  0  0
   38.1000   28.6810   44.3410 H   0  0  0  0  0  0  0  0  0  0  0  0
   39.9800   28.6450   41.9330 H   0  0  0  0  0  0  0  0  0  0  0  0
   40.1810   29.2890   43.6470 H   0  0  0  0  0  0  0  0  0  0  0  0
   40.4570   30.8000   41.9130 H   0  0  0  0  0  0  0  0  0  0  0  0
   38.9290   30.7910   40.2090 H   0  0  0  0  0  0  0  0  0  0  0  0
   38.0610   31.8010   41.4390 H   0  0  0  0  0  0  0  0  0  0  0  0
   37.5930   28.8850   40.8620 H   0  0  0  0  0  0  0  0  0  0  0  0
   38.0210   25.5620   41.5960 C   0  0  0  0  0  0  0  0  0  0  0  0
   36.8960   25.5810   42.4220 C   0  0  0  0  0  0  0  0  0  0  0  0
   36.8260   26.7770   43.1080 C   0  0  0  0  0  0  0  0  0  0  0  0
   37.8960   27.4520   42.6960 N   0  0  0  0  0  0  0  0  0  0  0  0
   38.5920   26.7460   41.8150 N   0  0  0  0  0  0  0  0  0  0  0  0
   36.2350   24.6920   42.4290 H   0  0  0  0  0  0  0  0  0  0  0  0
   35.9500   26.8000   43.7470 H   0  0  0  0  0  0  0  0  0  0  0  0
   39.5600   23.4110   38.9270 C   0  0  0  0  0  0  0  0  0  0  0  0
   39.3020   24.5920   39.6940 C   0  0  0  0  0  0  0  0  0  0  0  0
   38.3940   24.4590   40.7140 C   0  0  0  0  0  0  0  0  0  0  0  0
   37.7940   23.2490   40.9490 N   0  0  0  0  0  0  0  0  0  0  0  0
   38.0720   22.1600   40.1950 C   0  0  0  0  0  0  0  0  0  0  0  0
   38.9490   22.2670   39.2020 N   0  0  0  0  0  0  0  0  0  0  0  0
   40.2870   23.5940   38.1390 H   0  0  0  0  0  0  0  0  0  0  0  0
   39.7450   25.5510   39.5460 H   0  0  0  0  0  0  0  0  0  0  0  0
   37.5810   21.2210   40.4080 H   0  0  0  0  0  0  0  0  0  0  0  0
   36.1540   30.3850   40.8130 O   0  0  0  0  0  0  0  0  0  0  0  0
   35.7300   29.8530   38.2490 O   0  0  0  0  0  0  0  0  0  0  0  0
   35.4480   29.3810   39.6510 P   0  0  0  0  0  0  0  0  0  0  0  0
   33.7690   29.2370   39.9290 O   0  0  0  0  0  0  0  0  0  0  0  0
   33.6130   29.5650   40.8510 H   0  0  0  0  0  0  0  0  0  0  0  0
   36.1190   27.8330   39.8250 O   0  0  0  0  0  0  0  0  0  0  0  0
   35.6400   27.2770   40.4990 H   0  0  0  0  0  0  0  0  0  0  0  0
  1  7  1  0  0  0  0
  1  2  1  0  0  0  0
  2  8  1  1  0  0  0
  3  2  1  0  0  0  0
  3 10  1  0  0  0  0
  4  3  1  0  0  0  0
  5  6  1  0  0  0  0
  5 13  1  0  0  0  0
  5  4  1  0  0  0  0
  6 14  1  6  0  0  0
  6  1  1  0  0  0  0
  9  3  1  0  0  0  0
 11  4  1  0  0  0  0
 12  5  1  0  0  0  0
 15 19  2  0  0  0  0
 15 16  1  0  0  0  0
 16 20  1  0  0  0  0
 16 17  2  0  0  0  0
 17 21  1  0  0  0  0
 18 17  1  0  0  0  0
 18  2  1  0  0  0  0
 19 18  1  0  0  0  0
 22 27  2  0  0  0  0
 22 23  1  0  0  0  0
 23 24  2  0  0  0  0
 24 25  1  0  0  0  0
 24 15  1  0  0  0  0
 26 30  1  0  0  0  0
 26 25  2  0  0  0  0
 27 26  1  0  0  0  0
 28 22  1  0  0  0  0
 29 23  1  0  0  0  0
 31  6  1  0  0  0  0
 32 33  2  0  0  0  0
 33 36  1  0  0  0  0
 33 34  1  0  0  0  0
 33 31  1  0  0  0  0
 34 35  1  0  0  0  0
 36 37  1  0  0  0  0
M  END
>  <minimizedAffinity>
-5.20737457

$$$$

 OpenBabel03252508303D

 37 39  0  0  1  0  0  0  0  0999 V2000
   35.6900   28.4980   40.8660 N   0  0  0  0  0  0  0  0  0  0  0  0
   35.4840   29.4070   39.7350 C   0  0  2  0  0  0  0  0  0  0  0  0
   35.5850   28.7280   38.4220 C   0  0  0  0  0  0  0  0  0  0  0  0
   35.6210   27.2810   38.5450 N   0  0  0  0  0  0  0  0  0  0  0  0
   36.5460   26.7710   39.4930 C   0  0  0  0  0  0  0  0  0  0  0  0
   36.9480   27.7870   40.5370 C   0  0  2  0  0  0  0  0  0  0  0  0
   34.9360   27.7870   40.8790 H   0  0  0  0  0  0  0  0  0  0  0  0
   34.5020   29.9250   39.9070 H   0  0  0  0  0  0  0  0  0  0  0  0
   36.4890   28.9080   37.8200 H   0  0  0  0  0  0  0  0  0  0  0  0
   34.6480   28.9450   37.8570 H   0  0  0  0  0  0  0  0  0  0  0  0
   35.6570   26.8760   37.6020 H   0  0  0  0  0  0  0  0  0  0  0  0
   37.4290   26.3560   38.9530 H   0  0  0  0  0  0  0  0  0  0  0  0
   36.0400   25.9530   40.0450 H   0  0  0  0  0  0  0  0  0  0  0  0
   37.6990   28.4620   40.1090 H   0  0  0  0  0  0  0  0  0  0  0  0
   38.2320   31.7250   39.4040 C   0  0  0  0  0  0  0  0  0  0  0  0
   37.5080   32.2090   40.4940 C   0  0  0  0  0  0  0  0  0  0  0  0
   36.4180   31.3990   40.7430 C   0  0  0  0  0  0  0  0  0  0  0  0
   36.4950   30.4530   39.8100 N   0  0  0  0  0  0  0  0  0  0  0  0
   37.5510   30.6410   39.0300 N   0  0  0  0  0  0  0  0  0  0  0  0
   37.8710   33.1250   40.9990 H   0  0  0  0  0  0  0  0  0  0  0  0
   35.8560   31.7670   41.5940 H   0  0  0  0  0  0  0  0  0  0  0  0
   41.2640   33.8650   38.8160 C   0  0  0  0  0  0  0  0  0  0  0  0
   40.0690   33.4050   39.4560 C   0  0  0  0  0  0  0  0  0  0  0  0
   39.4550   32.3240   38.8760 C   0  0  0  0  0  0  0  0  0  0  0  0
   39.9890   31.7500   37.7510 N   0  0  0  0  0  0  0  0  0  0  0  0
   41.1230   32.2220   37.1830 C   0  0  0  0  0  0  0  0  0  0  0  0
   41.7340   33.2690   37.7300 N   0  0  0  0  0  0  0  0  0  0  0  0
   41.6910   34.7210   39.3320 H   0  0  0  0  0  0  0  0  0  0  0  0
   39.6200   33.8200   40.3300 H   0  0  0  0  0  0  0  0  0  0  0  0
   41.5160   31.7460   36.2960 H   0  0  0  0  0  0  0  0  0  0  0  0
   37.3830   27.1660   41.7050 O   0  0  0  0  0  0  0  0  0  0  0  0
   39.1300   27.5320   43.6670 O   0  0  0  0  0  0  0  0  0  0  0  0
   38.1900   28.2420   42.7300 P   0  0  0  0  0  0  0  0  0  0  0  0
   37.0670   29.2010   43.5890 O   0  0  0  0  0  0  0  0  0  0  0  0
   36.2000   29.0980   43.1200 H   0  0  0  0  0  0  0  0  0  0  0  0
   39.1090   29.2910   41.7640 O   0  0  0  0  0  0  0  0  0  0  0  0
   38.5900   30.0820   41.4520 H   0  0  0  0  0  0  0  0  0  0  0  0
  1  7  1  0  0  0  0
  2 18  1  0  0  0  0
  2  8  1  1  0  0  0
  2  1  1  0  0  0  0
  3  4  1  0  0  0  0
  3  2  1  0  0  0  0
  4  5  1  0  0  0  0
  5 13  1  0  0  0  0
  5  6  1  0  0  0  0
  6 14  1  6  0  0  0
  6  1  1  0  0  0  0
  6 31  1  0  0  0  0
  9  3  1  0  0  0  0
 10  3  1  0  0  0  0
 11  4  1  0  0  0  0
 12  5  1  0  0  0  0
 15 16  1  0  0  0  0
 16 17  2  0  0  0  0
 16 20  1  0  0  0  0
 17 21  1  0  0  0  0
 18 17  1  0  0  0  0
 19 15  2  0  0  0  0
 19 18  1  0  0  0  0
 22 28  1  0  0  0  0
 22 23  1  0  0  0  0
 23 29  1  0  0  0  0
 24 15  1  0  0  0  0
 24 23  2  0  0  0  0
 25 24  1  0  0  0  0
 26 27  1  0  0  0  0
 26 25  2  0  0  0  0
 27 22  2  0  0  0  0
 30 26  1  0  0  0  0
 31 33  1  0  0  0  0
 33 34  1  0  0  0  0
 33 32  2  0  0  0  0
 35 34  1  0  0  0  0
 36 33  1  0  0  0  0
 37 36  1  0  0  0  0
M  END
>  <minimizedAffinity>
-5.15229988

$$$$

 OpenBabel03252508303D

 37 39  0  0  1  0  0  0  0  0999 V2000
   37.7200   32.2730   39.2490 N   0  0  0  0  0  0  0  0  0  0  0  0
   39.1670   32.3880   39.4540 C   0  0  2  0  0  0  0  0  0  0  0  0
   39.9500   32.0830   38.2340 C   0  0  0  0  0  0  0  0  0  0  0  0
   39.1150   31.9770   37.0490 N   0  0  0  0  0  0  0  0  0  0  0  0
   37.9710   31.1510   37.1800 C   0  0  0  0  0  0  0  0  0  0  0  0
   37.5480   30.9440   38.6170 C   0  0  2  0  0  0  0  0  0  0  0  0
   37.4130   32.9790   38.5560 H   0  0  0  0  0  0  0  0  0  0  0  0
   39.3560   33.4130   39.8740 H   0  0  0  0  0  0  0  0  0  0  0  0
   40.4870   31.1230   38.1960 H   0  0  0  0  0  0  0  0  0  0  0  0
   40.6200   32.9530   38.0370 H   0  0  0  0  0  0  0  0  0  0  0  0
   39.7230   31.8000   36.2400 H   0  0  0  0  0  0  0  0  0  0  0  0
   38.1570   30.1840   36.6570 H   0  0  0  0  0  0  0  0  0  0  0  0
   37.1240   31.6730   36.6880 H   0  0  0  0  0  0  0  0  0  0  0  0
   38.1950   30.1850   39.0740 H   0  0  0  0  0  0  0  0  0  0  0  0
   40.1870   29.6680   41.5960 C   0  0  0  0  0  0  0  0  0  0  0  0
   40.0150   30.7420   42.4700 C   0  0  0  0  0  0  0  0  0  0  0  0
   39.6090   31.8650   41.7750 C   0  0  0  0  0  0  0  0  0  0  0  0
   39.5460   31.4580   40.5090 N   0  0  0  0  0  0  0  0  0  0  0  0
   39.8820   30.1790   40.4040 N   0  0  0  0  0  0  0  0  0  0  0  0
   40.2110   30.5790   43.5480 H   0  0  0  0  0  0  0  0  0  0  0  0
   39.4680   32.7010   42.4500 H   0  0  0  0  0  0  0  0  0  0  0  0
   41.9410   26.6950   43.0820 C   0  0  0  0  0  0  0  0  0  0  0  0
   41.6870   28.0720   42.7810 C   0  0  0  0  0  0  0  0  0  0  0  0
   40.5920   28.3220   41.9930 C   0  0  0  0  0  0  0  0  0  0  0  0
   39.8160   27.2850   41.5420 N   0  0  0  0  0  0  0  0  0  0  0  0
   40.0980   25.9980   41.8550 C   0  0  0  0  0  0  0  0  0  0  0  0
   41.1540   25.7350   42.6180 N   0  0  0  0  0  0  0  0  0  0  0  0
   42.8210   26.5770   43.7090 H   0  0  0  0  0  0  0  0  0  0  0  0
   42.2630   28.9070   43.1100 H   0  0  0  0  0  0  0  0  0  0  0  0
   39.4650   25.2060   41.4830 H   0  0  0  0  0  0  0  0  0  0  0  0
   36.1960   30.6220   38.7040 O   0  0  0  0  0  0  0  0  0  0  0  0
   34.5730   29.0400   40.0820 O   0  0  0  0  0  0  0  0  0  0  0  0
   35.8150   29.8840   40.1770 P   0  0  0  0  0  0  0  0  0  0  0  0
   35.6750   31.0570   41.4110 O   0  0  0  0  0  0  0  0  0  0  0  0
   36.0920   31.8830   41.0570 H   0  0  0  0  0  0  0  0  0  0  0  0
   37.1070   28.8670   40.5970 O   0  0  0  0  0  0  0  0  0  0  0  0
   37.8260   29.3420   41.0980 H   0  0  0  0  0  0  0  0  0  0  0  0
  1  2  1  0  0  0  0
  2  8  1  1  0  0  0
  2 18  1  0  0  0  0
  3  2  1  0  0  0  0
  4  5  1  0  0  0  0
  4  3  1  0  0  0  0
  5  6  1  0  0  0  0
  6 31  1  0  0  0  0
  6 14  1  1  0  0  0
  6  1  1  0  0  0  0
  7  1  1  0  0  0  0
  9  3  1  0  0  0  0
 10  3  1  0  0  0  0
 11  4  1  0  0  0  0
 12  5  1  0  0  0  0
 13  5  1  0  0  0  0
 15 24  1  0  0  0  0
 15 16  1  0  0  0  0
 16 20  1  0  0  0  0
 17 21  1  0  0  0  0
 17 16  2  0  0  0  0
 18 17  1  0  0  0  0
 19 18  1  0  0  0  0
 19 15  2  0  0  0  0
 22 28  1  0  0  0  0
 23 22  1  0  0  0  0
 23 29  1  0  0  0  0
 24 23  2  0  0  0  0
 25 26  2  0  0  0  0
 25 24  1  0  0  0  0
 26 27  1  0  0  0  0
 27 22  2  0  0  0  0
 30 26  1  0  0  0  0
 31 33  1  0  0  0  0
 32 33  2  0  0  0  0
 33 36  1  0  0  0  0
 33 34  1  0  0  0  0
 35 34  1  0  0  0  0
 36 37  1  0  0  0  0
M  END
>  <minimizedAffinity>
-5.01062107

$$$$

 OpenBabel03252508303D

 37 39  0  0  1  0  0  0  0  0999 V2000
   38.7510   31.0070   41.5540 N   0  0  0  0  0  0  0  0  0  0  0  0
   39.1280   29.8920   42.4280 C   0  0  2  0  0  0  0  0  0  0  0  0
   40.5680   29.5520   42.3420 C   0  0  0  0  0  0  0  0  0  0  0  0
   41.3310   30.5450   41.6040 N   0  0  0  0  0  0  0  0  0  0  0  0
   40.7870   30.9250   40.3510 C   0  0  0  0  0  0  0  0  0  0  0  0
   39.3080   30.6370   40.2320 C   0  0  2  0  0  0  0  0  0  0  0  0
   39.2430   31.8660   41.8590 H   0  0  0  0  0  0  0  0  0  0  0  0
   38.7830   30.1580   43.4630 H   0  0  0  0  0  0  0  0  0  0  0  0
   40.8460   28.6340   41.8030 H   0  0  0  0  0  0  0  0  0  0  0  0
   40.9840   29.5820   43.3770 H   0  0  0  0  0  0  0  0  0  0  0  0
   42.3190   30.2660   41.6130 H   0  0  0  0  0  0  0  0  0  0  0  0
   41.3740   30.4400   39.5360 H   0  0  0  0  0  0  0  0  0  0  0  0
   40.8880   32.0270   40.2640 H   0  0  0  0  0  0  0  0  0  0  0  0
   39.1680   29.5710   40.0120 H   0  0  0  0  0  0  0  0  0  0  0  0
   37.7350   26.7500   41.3260 C   0  0  0  0  0  0  0  0  0  0  0  0
   36.6260   27.4820   41.7550 C   0  0  0  0  0  0  0  0  0  0  0  0
   37.0190   28.7290   42.2010 C   0  0  0  0  0  0  0  0  0  0  0  0
   38.3400   28.7310   42.0400 N   0  0  0  0  0  0  0  0  0  0  0  0
   38.7580   27.5790   41.5300 N   0  0  0  0  0  0  0  0  0  0  0  0
   35.6280   27.0070   41.6910 H   0  0  0  0  0  0  0  0  0  0  0  0
   36.1610   29.3040   42.5290 H   0  0  0  0  0  0  0  0  0  0  0  0
   37.7470   23.0240   40.8460 C   0  0  0  0  0  0  0  0  0  0  0  0
   37.8290   24.2710   41.5430 C   0  0  0  0  0  0  0  0  0  0  0  0
   37.6840   25.3990   40.7740 C   0  0  0  0  0  0  0  0  0  0  0  0
   37.4760   25.2900   39.4230 N   0  0  0  0  0  0  0  0  0  0  0  0
   37.4070   24.0850   38.8100 C   0  0  0  0  0  0  0  0  0  0  0  0
   37.5440   22.9800   39.5370 N   0  0  0  0  0  0  0  0  0  0  0  0
   37.8700   22.1790   41.5190 H   0  0  0  0  0  0  0  0  0  0  0  0
   37.9880   24.4020   42.5900 H   0  0  0  0  0  0  0  0  0  0  0  0
   37.2420   24.0360   37.7440 H   0  0  0  0  0  0  0  0  0  0  0  0
   38.7060   31.4650   39.2890 O   0  0  0  0  0  0  0  0  0  0  0  0
   38.6250   33.5080   40.9790 O   0  0  0  0  0  0  0  0  0  0  0  0
   37.8020   32.6970   40.0140 P   0  0  0  0  0  0  0  0  0  0  0  0
   36.4160   32.0500   40.7730 O   0  0  0  0  0  0  0  0  0  0  0  0
   36.3050   31.1330   40.4120 H   0  0  0  0  0  0  0  0  0  0  0  0
   37.2630   33.7360   38.7860 O   0  0  0  0  0  0  0  0  0  0  0  0
   36.4040   33.4390   38.3780 H   0  0  0  0  0  0  0  0  0  0  0  0
  1  7  1  0  0  0  0
  1  2  1  0  0  0  0
  2  8  1  1  0  0  0
  3  2  1  0  0  0  0
  3 10  1  0  0  0  0
  4 11  1  0  0  0  0
  4  3  1  0  0  0  0
  5  4  1  0  0  0  0
  6 14  1  6  0  0  0
  6  5  1  0  0  0  0
  6  1  1  0  0  0  0
  9  3  1  0  0  0  0
 12  5  1  0  0  0  0
 13  5  1  0  0  0  0
 15 19  2  0  0  0  0
 15 16  1  0  0  0  0
 16 17  2  0  0  0  0
 17 21  1  0  0  0  0
 18 17  1  0  0  0  0
 18  2  1  0  0  0  0
 19 18  1  0  0  0  0
 20 16  1  0  0  0  0
 22 28  1  0  0  0  0
 22 23  1  0  0  0  0
 23 29  1  0  0  0  0
 24 15  1  0  0  0  0
 24 23  2  0  0  0  0
 25 24  1  0  0  0  0
 26 25  2  0  0  0  0
 26 27  1  0  0  0  0
 27 22  2  0  0  0  0
 30 26  1  0  0  0  0
 31 33  1  0  0  0  0
 31  6  1  0  0  0  0
 33 34  1  0  0  0  0
 33 32  2  0  0  0  0
 35 34  1  0  0  0  0
 36 33  1  0  0  0  0
 37 36  1  0  0  0  0
M  END
>  <minimizedAffinity>
-4.99943209

$$$$

 OpenBabel03252508303D

 37 39  0  0  1  0  0  0  0  0999 V2000
   36.9780   31.6720   39.0580 N   0  0  0  0  0  0  0  0  0  0  0  0
   37.1240   31.6140   40.5160 C   0  0  2  0  0  0  0  0  0  0  0  0
   38.3880   32.2210   40.9940 C   0  0  0  0  0  0  0  0  0  0  0  0
   39.0850   32.9530   39.9500 N   0  0  0  0  0  0  0  0  0  0  0  0
   39.2460   32.2610   38.7230 C   0  0  0  0  0  0  0  0  0  0  0  0
   38.2580   31.1310   38.5430 C   0  0  2  0  0  0  0  0  0  0  0  0
   36.9260   32.6620   38.7560 H   0  0  0  0  0  0  0  0  0  0  0  0
   36.2000   32.0780   40.9550 H   0  0  0  0  0  0  0  0  0  0  0  0
   39.1840   31.5440   41.3390 H   0  0  0  0  0  0  0  0  0  0  0  0
   38.1240   32.9910   41.7570 H   0  0  0  0  0  0  0  0  0  0  0  0
   39.9290   33.3740   40.3570 H   0  0  0  0  0  0  0  0  0  0  0  0
   40.3010   31.9100   38.6380 H   0  0  0  0  0  0  0  0  0  0  0  0
   39.0360   32.9800   37.9040 H   0  0  0  0  0  0  0  0  0  0  0  0
   38.5980   30.2630   39.1210 H   0  0  0  0  0  0  0  0  0  0  0  0
   37.6310   28.2380   41.6860 C   0  0  0  0  0  0  0  0  0  0  0  0
   36.2940   28.2620   41.2880 C   0  0  0  0  0  0  0  0  0  0  0  0
   35.9620   29.5110   40.8020 C   0  0  0  0  0  0  0  0  0  0  0  0
   37.0860   30.2140   40.9150 N   0  0  0  0  0  0  0  0  0  0  0  0
   38.0590   29.4730   41.4290 N   0  0  0  0  0  0  0  0  0  0  0  0
   35.6960   27.3370   41.4010 H   0  0  0  0  0  0  0  0  0  0  0  0
   34.9260   29.5340   40.4850 H   0  0  0  0  0  0  0  0  0  0  0  0
   38.7820   24.7560   42.5050 C   0  0  0  0  0  0  0  0  0  0  0  0
   38.0020   25.7830   41.8850 C   0  0  0  0  0  0  0  0  0  0  0  0
   38.3230   27.0710   42.2300 C   0  0  0  0  0  0  0  0  0  0  0  0
   39.3380   27.3140   43.1200 N   0  0  0  0  0  0  0  0  0  0  0  0
   40.0480   26.3070   43.6800 C   0  0  0  0  0  0  0  0  0  0  0  0
   39.7530   25.0510   43.3580 N   0  0  0  0  0  0  0  0  0  0  0  0
   38.4700   23.7650   42.1840 H   0  0  0  0  0  0  0  0  0  0  0  0
   37.2060   25.6390   41.1900 H   0  0  0  0  0  0  0  0  0  0  0  0
   40.8410   26.5340   44.3770 H   0  0  0  0  0  0  0  0  0  0  0  0
   38.0640   30.8380   37.1960 O   0  0  0  0  0  0  0  0  0  0  0  0
   35.7640   29.5190   37.1210 O   0  0  0  0  0  0  0  0  0  0  0  0
   37.2550   29.3700   36.9770 P   0  0  0  0  0  0  0  0  0  0  0  0
   37.8660   28.1890   38.0500 O   0  0  0  0  0  0  0  0  0  0  0  0
   38.7270   28.5430   38.3900 H   0  0  0  0  0  0  0  0  0  0  0  0
   37.5770   28.8300   35.4010 O   0  0  0  0  0  0  0  0  0  0  0  0
   38.4180   28.2990   35.3380 H   0  0  0  0  0  0  0  0  0  0  0  0
  1  2  1  0  0  0  0
  2 18  1  0  0  0  0
  2  8  1  1  0  0  0
  2  3  1  0  0  0  0
  3  9  1  0  0  0  0
  3 10  1  0  0  0  0
  4 11  1  0  0  0  0
  4  3  1  0  0  0  0
  5  4  1  0  0  0  0
  6  5  1  0  0  0  0
  6  1  1  0  0  0  0
  6 14  1  1  0  0  0
  7  1  1  0  0  0  0
 12  5  1  0  0  0  0
 13  5  1  0  0  0  0
 15 24  1  0  0  0  0
 16 20  1  0  0  0  0
 16 15  1  0  0  0  0
 17 18  1  0  0  0  0
 17 16  2  0  0  0  0
 18 19  1  0  0  0  0
 19 15  2  0  0  0  0
 21 17  1  0  0  0  0
 22 27  1  0  0  0  0
 23 24  1  0  0  0  0
 23 22  2  0  0  0  0
 24 25  2  0  0  0  0
 25 26  1  0  0  0  0
 26 30  1  0  0  0  0
 27 26  2  0  0  0  0
 28 22  1  0  0  0  0
 29 23  1  0  0  0  0
 31  6  1  0  0  0  0
 33 32  2  0  0  0  0
 33 31  1  0  0  0  0
 33 34  1  0  0  0  0
 34 35  1  0  0  0  0
 36 33  1  0  0  0  0
 37 36  1  0  0  0  0
M  END
>  <minimizedAffinity>
-4.98836946

$$$$

 OpenBabel03252508303D

 37 39  0  0  1  0  0  0  0  0999 V2000
   39.3890   32.1260   39.3210 N   0  0  0  0  0  0  0  0  0  0  0  0
   38.0520   31.5250   39.3260 C   0  0  2  0  0  0  0  0  0  0  0  0
   36.9750   32.5120   39.5750 C   0  0  0  0  0  0  0  0  0  0  0  0
   37.4530   33.8830   39.5160 N   0  0  0  0  0  0  0  0  0  0  0  0
   38.6240   34.1550   40.2690 C   0  0  0  0  0  0  0  0  0  0  0  0
   39.4360   32.9170   40.5730 C   0  0  2  0  0  0  0  0  0  0  0  0
   39.4620   32.7980   38.5360 H   0  0  0  0  0  0  0  0  0  0  0  0
   37.9420   30.9650   38.3590 H   0  0  0  0  0  0  0  0  0  0  0  0
   36.4900   32.5030   40.5630 H   0  0  0  0  0  0  0  0  0  0  0  0
   36.2410   32.4280   38.7400 H   0  0  0  0  0  0  0  0  0  0  0  0
   36.6540   34.5110   39.6630 H   0  0  0  0  0  0  0  0  0  0  0  0
   38.3410   34.7060   41.1960 H   0  0  0  0  0  0  0  0  0  0  0  0
   39.2780   34.8010   39.6470 H   0  0  0  0  0  0  0  0  0  0  0  0
   38.9740   32.3830   41.4130 H   0  0  0  0  0  0  0  0  0  0  0  0
   38.5570   28.8690   41.7170 C   0  0  0  0  0  0  0  0  0  0  0  0
   37.2960   29.3750   42.0340 C   0  0  0  0  0  0  0  0  0  0  0  0
   36.9660   30.4070   41.1780 C   0  0  0  0  0  0  0  0  0  0  0  0
   38.0190   30.5100   40.3700 N   0  0  0  0  0  0  0  0  0  0  0  0
   38.9460   29.6140   40.6830 N   0  0  0  0  0  0  0  0  0  0  0  0
   36.7450   28.9190   42.8790 H   0  0  0  0  0  0  0  0  0  0  0  0
   35.9840   30.8000   41.4150 H   0  0  0  0  0  0  0  0  0  0  0  0
   40.9180   26.7020   43.6800 C   0  0  0  0  0  0  0  0  0  0  0  0
   40.4180   27.8850   43.0490 C   0  0  0  0  0  0  0  0  0  0  0  0
   39.2120   27.7600   42.4060 C   0  0  0  0  0  0  0  0  0  0  0  0
   38.5600   26.5530   42.3940 N   0  0  0  0  0  0  0  0  0  0  0  0
   39.0750   25.4610   43.0070 C   0  0  0  0  0  0  0  0  0  0  0  0
   40.2420   25.5620   43.6350 N   0  0  0  0  0  0  0  0  0  0  0  0
   41.8740   26.8790   44.1660 H   0  0  0  0  0  0  0  0  0  0  0  0
   40.8910   28.8410   43.0340 H   0  0  0  0  0  0  0  0  0  0  0  0
   38.5340   24.5260   42.9780 H   0  0  0  0  0  0  0  0  0  0  0  0
   40.7720   33.2330   40.8060 O   0  0  0  0  0  0  0  0  0  0  0  0
   42.9170   32.4210   42.1380 O   0  0  0  0  0  0  0  0  0  0  0  0
   41.5960   31.9720   41.5730 P   0  0  0  0  0  0  0  0  0  0  0  0
   41.7960   30.6540   40.5040 O   0  0  0  0  0  0  0  0  0  0  0  0
   41.1690   30.8110   39.7520 H   0  0  0  0  0  0  0  0  0  0  0  0
   40.6350   31.4310   42.8620 O   0  0  0  0  0  0  0  0  0  0  0  0
   39.9720   30.7400   42.5860 H   0  0  0  0  0  0  0  0  0  0  0  0
  1  2  1  0  0  0  0
  1  6  1  0  0  0  0
  2  8  1  6  0  0  0
  2  3  1  0  0  0  0
  2 18  1  0  0  0  0
  3  9  1  0  0  0  0
  4  3  1  0  0  0  0
  4 11  1  0  0  0  0
  4  5  1  0  0  0  0
  5  6  1  0  0  0  0
  5 12  1  0  0  0  0
  6 31  1  0  0  0  0
  6 14  1  1  0  0  0
  7  1  1  0  0  0  0
 10  3  1  0  0  0  0
 13  5  1  0  0  0  0
 15 16  1  0  0  0  0
 15 24  1  0  0  0  0
 16 20  1  0  0  0  0
 17 21  1  0  0  0  0
 17 16  2  0  0  0  0
 18 19  1  0  0  0  0
 18 17  1  0  0  0  0
 19 15  2  0  0  0  0
 22 28  1  0  0  0  0
 23 22  2  0  0  0  0
 24 23  1  0  0  0  0
 25 24  2  0  0  0  0
 25 26  1  0  0  0  0
 26 27  2  0  0  0  0
 27 22  1  0  0  0  0
 29 23  1  0  0  0  0
 30 26  1  0  0  0  0
 31 33  1  0  0  0  0
 33 32  2  0  0  0  0
 33 36  1  0  0  0  0
 34 33  1  0  0  0  0
 35 34  1  0  0  0  0
 37 36  1  0  0  0  0
M  END
>  <minimizedAffinity>
-4.97048378

$$$$

 OpenBabel03252508303D

 37 39  0  0  1  0  0  0  0  0999 V2000
   39.3410   31.7910   39.4700 N   0  0  0  0  0  0  0  0  0  0  0  0
   37.9630   31.7120   38.9750 C   0  0  2  0  0  0  0  0  0  0  0  0
   37.1840   32.9440   39.2360 C   0  0  0  0  0  0  0  0  0  0  0  0
   38.0160   34.0410   39.7010 N   0  0  0  0  0  0  0  0  0  0  0  0
   38.9060   33.7270   40.7590 C   0  0  0  0  0  0  0  0  0  0  0  0
   39.1970   32.2480   40.8720 C   0  0  2  0  0  0  0  0  0  0  0  0
   39.8480   32.5360   38.9600 H   0  0  0  0  0  0  0  0  0  0  0  0
   38.0220   31.4310   37.8890 H   0  0  0  0  0  0  0  0  0  0  0  0
   36.4220   32.9100   40.0310 H   0  0  0  0  0  0  0  0  0  0  0  0
   36.7670   33.2920   38.2620 H   0  0  0  0  0  0  0  0  0  0  0  0
   37.4200   34.8680   39.8280 H   0  0  0  0  0  0  0  0  0  0  0  0
   38.5020   34.1460   41.7110 H   0  0  0  0  0  0  0  0  0  0  0  0
   39.8780   34.2110   40.5320 H   0  0  0  0  0  0  0  0  0  0  0  0
   38.3590   31.7560   41.3790 H   0  0  0  0  0  0  0  0  0  0  0  0
   36.8700   28.5990   40.4390 C   0  0  0  0  0  0  0  0  0  0  0  0
   35.8580   29.5020   40.7660 C   0  0  0  0  0  0  0  0  0  0  0  0
   36.1460   30.7510   40.2520 C   0  0  0  0  0  0  0  0  0  0  0  0
   37.3130   30.5870   39.6340 N   0  0  0  0  0  0  0  0  0  0  0  0
   37.7350   29.3340   39.7410 N   0  0  0  0  0  0  0  0  0  0  0  0
   34.9990   29.1350   41.3610 H   0  0  0  0  0  0  0  0  0  0  0  0
   35.3600   31.4560   40.4980 H   0  0  0  0  0  0  0  0  0  0  0  0
   37.1170   25.3250   42.2660 C   0  0  0  0  0  0  0  0  0  0  0  0
   37.1530   26.7430   42.0750 C   0  0  0  0  0  0  0  0  0  0  0  0
   36.8820   27.1850   40.8050 C   0  0  0  0  0  0  0  0  0  0  0  0
   36.5980   26.2860   39.8080 N   0  0  0  0  0  0  0  0  0  0  0  0
   36.5760   24.9530   40.0390 C   0  0  0  0  0  0  0  0  0  0  0  0
   36.8360   24.5040   41.2630 N   0  0  0  0  0  0  0  0  0  0  0  0
   37.3420   25.0520   43.2940 H   0  0  0  0  0  0  0  0  0  0  0  0
   37.3680   27.4750   42.8200 H   0  0  0  0  0  0  0  0  0  0  0  0
   36.3490   24.2730   39.2310 H   0  0  0  0  0  0  0  0  0  0  0  0
   40.4180   32.0200   41.5020 O   0  0  0  0  0  0  0  0  0  0  0  0
   41.7150   30.2230   42.9590 O   0  0  0  0  0  0  0  0  0  0  0  0
   40.5980   30.4040   41.9660 P   0  0  0  0  0  0  0  0  0  0  0  0
   40.8210   29.4120   40.5940 O   0  0  0  0  0  0  0  0  0  0  0  0
   40.5460   29.9560   39.8120 H   0  0  0  0  0  0  0  0  0  0  0  0
   39.1540   29.9140   42.7100 O   0  0  0  0  0  0  0  0  0  0  0  0
   38.4780   29.5810   42.0590 H   0  0  0  0  0  0  0  0  0  0  0  0
  1  6  1  0  0  0  0
  2  8  1  6  0  0  0
  2  3  1  0  0  0  0
  2  1  1  0  0  0  0
  2 18  1  0  0  0  0
  3  4  1  0  0  0  0
  3  9  1  0  0  0  0
  4 11  1  0  0  0  0
  4  5  1  0  0  0  0
  5  6  1  0  0  0  0
  5 12  1  0  0  0  0
  6 14  1  1  0  0  0
  6 31  1  0  0  0  0
  7  1  1  0  0  0  0
 10  3  1  0  0  0  0
 13  5  1  0  0  0  0
 15 16  1  0  0  0  0
 15 24  1  0  0  0  0
 16 20  1  0  0  0  0
 17 21  1  0  0  0  0
 17 16  2  0  0  0  0
 18 19  1  0  0  0  0
 18 17  1  0  0  0  0
 19 15  2  0  0  0  0
 22 28  1  0  0  0  0
 23 22  1  0  0  0  0
 23 29  1  0  0  0  0
 24 23  2  0  0  0  0
 25 26  2  0  0  0  0
 25 24  1  0  0  0  0
 26 27  1  0  0  0  0
 27 22  2  0  0  0  0
 30 26  1  0  0  0  0
 31 33  1  0  0  0  0
 33 36  1  0  0  0  0
 33 32  2  0  0  0  0
 34 33  1  0  0  0  0
 35 34  1  0  0  0  0
 37 36  1  0  0  0  0
M  END
>  <minimizedAffinity>
-4.89487743

$$$$
