
 OpenBabel03252509283D

 19 19  0  0  0  0  0  0  0  0999 V2000
   47.2510   33.8470   42.9470 C   0  0  0  0  0  0  0  0  0  0  0  0
   46.8630   32.9180   42.4370 H   0  0  0  0  0  0  0  0  0  0  0  0
   48.2360   33.5460   43.3770 H   0  0  0  0  0  0  0  0  0  0  0  0
   44.5640   35.6020   44.8530 C   0  0  0  0  0  0  0  0  0  0  0  0
   45.4460   35.2690   43.8100 C   0  0  0  0  0  0  0  0  0  0  0  0
   46.3220   34.2150   44.0130 C   0  0  0  0  0  0  0  0  0  0  0  0
   46.2880   33.5460   45.2150 N   0  0  0  0  0  0  0  0  0  0  0  0
   45.4200   33.8990   46.1970 C   0  0  0  0  0  0  0  0  0  0  0  0
   44.5730   34.9140   46.0110 N   0  0  0  0  0  0  0  0  0  0  0  0
   43.9140   36.4410   44.6070 H   0  0  0  0  0  0  0  0  0  0  0  0
   45.4680   35.8050   42.8570 H   0  0  0  0  0  0  0  0  0  0  0  0
   45.4110   33.3600   47.1350 H   0  0  0  0  0  0  0  0  0  0  0  0
   47.4050   34.8840   42.0280 O   0  0  0  0  0  0  0  0  0  0  0  0
   49.3390   36.4000   41.1380 O   0  0  0  0  0  0  0  0  0  0  0  0
   49.0690   35.0660   41.7730 P   0  0  0  0  0  0  0  0  0  0  0  0
   49.5790   33.7670   40.8240 O   0  0  0  0  0  0  0  0  0  0  0  0
   48.9480   33.5760   40.0930 H   0  0  0  0  0  0  0  0  0  0  0  0
   49.8340   35.0390   43.2790 O   0  0  0  0  0  0  0  0  0  0  0  0
   49.4820   35.8200   43.7910 H   0  0  0  0  0  0  0  0  0  0  0  0
  1  3  1  0  0  0  0
  1  6  1  0  0  0  0
  2  1  1  0  0  0  0
  4  9  1  0  0  0  0
  5  6  1  0  0  0  0
  5  4  2  0  0  0  0
  6  7  2  0  0  0  0
  7  8  1  0  0  0  0
  8 12  1  0  0  0  0
  9  8  2  0  0  0  0
 10  4  1  0  0  0  0
 11  5  1  0  0  0  0
 13  1  1  0  0  0  0
 14 15  2  0  0  0  0
 15 13  1  0  0  0  0
 15 18  1  0  0  0  0
 16 15  1  0  0  0  0
 17 16  1  0  0  0  0
 18 19  1  0  0  0  0
M  END
>  <minimizedAffinity>
-4.2700243

>  <minimizedRMSD>
1.62987351

$$$$
