
 OpenBabel03252508513D

 26 27  0  0  0  0  0  0  0  0999 V2000
   45.9860   34.2060   41.0360 C   0  0  0  0  0  0  0  0  0  0  0  0
   46.5820   34.8290   42.1280 C   0  0  0  0  0  0  0  0  0  0  0  0
   47.9280   35.1930   42.0030 C   0  0  0  0  0  0  0  0  0  0  0  0
   48.5590   34.9170   40.8330 N   0  0  0  0  0  0  0  0  0  0  0  0
   47.9510   34.3180   39.8030 C   0  0  0  0  0  0  0  0  0  0  0  0
   46.6520   33.9600   39.9090 N   0  0  0  0  0  0  0  0  0  0  0  0
   48.4200   35.6810   42.8410 H   0  0  0  0  0  0  0  0  0  0  0  0
   48.5630   34.1580   38.9380 H   0  0  0  0  0  0  0  0  0  0  0  0
   45.8060   35.0780   43.3430 C   0  0  0  0  0  0  0  0  0  0  0  0
   45.1110   36.2430   43.5720 C   0  0  0  0  0  0  0  0  0  0  0  0
   44.5430   36.0410   44.8120 C   0  0  0  0  0  0  0  0  0  0  0  0
   44.8730   34.8250   45.3100 N   0  0  0  0  0  0  0  0  0  0  0  0
   45.6350   34.2670   44.4010 N   0  0  0  0  0  0  0  0  0  0  0  0
   44.9880   37.1320   42.9920 H   0  0  0  0  0  0  0  0  0  0  0  0
   43.8990   36.6780   45.4300 H   0  0  0  0  0  0  0  0  0  0  0  0
   44.6590   34.3100   46.1770 H   0  0  0  0  0  0  0  0  0  0  0  0
   44.6560   33.8420   41.1460 O   0  0  0  0  0  0  0  0  0  0  0  0
   43.6010   34.4470   40.5180 C   0  0  0  0  0  0  0  0  0  0  0  0
   43.0940   35.5910   40.7510 O   0  0  0  0  0  0  0  0  0  0  0  0
   42.7570   34.0370   39.4580 O   0  0  0  0  0  0  0  0  0  0  0  0
   41.7070   31.6560   39.6730 O   0  0  0  0  0  0  0  0  0  0  0  0
   42.7780   32.4120   38.9140 P   0  0  0  0  0  0  0  0  0  0  0  0
   42.3700   32.3860   37.2790 O   0  0  0  0  0  0  0  0  0  0  0  0
   41.3680   32.4470   37.1930 H   0  0  0  0  0  0  0  0  0  0  0  0
   44.2550   31.6470   39.2030 O   0  0  0  0  0  0  0  0  0  0  0  0
   44.6600   31.2410   38.3980 H   0  0  0  0  0  0  0  0  0  0  0  0
  1 17  1  0  0  0  0
  1  2  1  0  0  0  0
  2  9  1  0  0  0  0
  3  2  2  0  0  0  0
  3  7  1  0  0  0  0
  4  3  1  0  0  0  0
  5  6  1  0  0  0  0
  5  4  2  0  0  0  0
  6  1  2  0  0  0  0
  8  5  1  0  0  0  0
  9 10  1  0  0  0  0
  9 13  2  0  0  0  0
 10 11  2  0  0  0  0
 11 12  1  0  0  0  0
 11 15  1  0  0  0  0
 12 16  1  0  0  0  0
 13 12  1  0  0  0  0
 14 10  1  0  0  0  0
 18 19  2  0  0  0  0
 18 17  1  0  0  0  0
 20 18  1  0  0  0  0
 22 25  1  0  0  0  0
 22 20  1  0  0  0  0
 22 21  2  0  0  0  0
 23 22  1  0  0  0  0
 24 23  1  0  0  0  0
 26 25  1  0  0  0  0
M  END
>  <minimizedAffinity>
-4.66892767

>  <minimizedRMSD>
0.441526324

$$$$
