
 OpenBabel03252508513D

 26 27  0  0  0  0  0  0  0  0999 V2000
   46.0400   34.1810   41.0050 C   0  0  0  0  0  0  0  0  0  0  0  0
   46.5940   34.8290   42.1040 C   0  0  0  0  0  0  0  0  0  0  0  0
   47.9300   35.2360   42.0010 C   0  0  0  0  0  0  0  0  0  0  0  0
   48.5920   34.9750   40.8450 N   0  0  0  0  0  0  0  0  0  0  0  0
   48.0240   34.3490   39.8080 C   0  0  0  0  0  0  0  0  0  0  0  0
   46.7350   33.9500   39.8920 N   0  0  0  0  0  0  0  0  0  0  0  0
   48.3900   35.7460   42.8460 H   0  0  0  0  0  0  0  0  0  0  0  0
   48.6570   34.2050   38.9560 H   0  0  0  0  0  0  0  0  0  0  0  0
   45.7890   35.0600   43.3020 C   0  0  0  0  0  0  0  0  0  0  0  0
   45.0460   36.2000   43.5080 C   0  0  0  0  0  0  0  0  0  0  0  0
   44.4640   35.9890   44.7390 C   0  0  0  0  0  0  0  0  0  0  0  0
   44.8300   34.7900   45.2550 N   0  0  0  0  0  0  0  0  0  0  0  0
   45.6290   34.2530   44.3650 N   0  0  0  0  0  0  0  0  0  0  0  0
   44.9000   37.0790   42.9160 H   0  0  0  0  0  0  0  0  0  0  0  0
   43.7850   36.6070   45.3390 H   0  0  0  0  0  0  0  0  0  0  0  0
   44.6200   34.2760   46.1230 H   0  0  0  0  0  0  0  0  0  0  0  0
   44.7210   33.7740   41.0930 O   0  0  0  0  0  0  0  0  0  0  0  0
   43.6690   34.2980   40.3910 C   0  0  0  0  0  0  0  0  0  0  0  0
   43.1310   35.4450   40.5130 O   0  0  0  0  0  0  0  0  0  0  0  0
   42.8600   33.7790   39.3510 O   0  0  0  0  0  0  0  0  0  0  0  0
   42.5010   31.2050   39.6050 O   0  0  0  0  0  0  0  0  0  0  0  0
   43.1730   32.2230   38.7070 P   0  0  0  0  0  0  0  0  0  0  0  0
   42.4620   32.1180   37.1830 O   0  0  0  0  0  0  0  0  0  0  0  0
   41.4800   31.9200   37.2950 H   0  0  0  0  0  0  0  0  0  0  0  0
   44.8210   31.8580   38.6550 O   0  0  0  0  0  0  0  0  0  0  0  0
   45.1420   31.5820   37.7620 H   0  0  0  0  0  0  0  0  0  0  0  0
  1 17  1  0  0  0  0
  1  2  1  0  0  0  0
  2  9  1  0  0  0  0
  3  2  2  0  0  0  0
  3  7  1  0  0  0  0
  4  3  1  0  0  0  0
  5  6  1  0  0  0  0
  5  4  2  0  0  0  0
  6  1  2  0  0  0  0
  8  5  1  0  0  0  0
  9 10  1  0  0  0  0
  9 13  2  0  0  0  0
 10 11  2  0  0  0  0
 11 12  1  0  0  0  0
 11 15  1  0  0  0  0
 12 16  1  0  0  0  0
 13 12  1  0  0  0  0
 14 10  1  0  0  0  0
 18 19  2  0  0  0  0
 18 17  1  0  0  0  0
 20 18  1  0  0  0  0
 22 20  1  0  0  0  0
 22 21  2  0  0  0  0
 23 24  1  0  0  0  0
 23 22  1  0  0  0  0
 25 22  1  0  0  0  0
 26 25  1  0  0  0  0
M  END
>  <minimizedAffinity>
-4.64768457

>  <minimizedRMSD>
0.145863414

$$$$
