
 OpenBabel03252508513D

 26 27  0  0  0  0  0  0  0  0999 V2000
   45.9470   34.1280   41.0520 C   0  0  0  0  0  0  0  0  0  0  0  0
   46.5250   34.7970   42.1250 C   0  0  0  0  0  0  0  0  0  0  0  0
   47.8560   35.2080   41.9820 C   0  0  0  0  0  0  0  0  0  0  0  0
   48.4900   34.9290   40.8150 N   0  0  0  0  0  0  0  0  0  0  0  0
   47.9000   34.2830   39.8040 C   0  0  0  0  0  0  0  0  0  0  0  0
   46.6150   33.8800   39.9260 N   0  0  0  0  0  0  0  0  0  0  0  0
   48.3350   35.7340   42.8060 H   0  0  0  0  0  0  0  0  0  0  0  0
   48.5120   34.1260   38.9380 H   0  0  0  0  0  0  0  0  0  0  0  0
   45.7480   35.0460   43.3390 C   0  0  0  0  0  0  0  0  0  0  0  0
   45.0440   36.2070   43.5630 C   0  0  0  0  0  0  0  0  0  0  0  0
   44.4780   36.0070   44.8040 C   0  0  0  0  0  0  0  0  0  0  0  0
   44.8170   34.7950   45.3080 N   0  0  0  0  0  0  0  0  0  0  0  0
   45.5840   34.2390   44.4010 N   0  0  0  0  0  0  0  0  0  0  0  0
   44.9140   37.0920   42.9780 H   0  0  0  0  0  0  0  0  0  0  0  0
   43.8290   36.6410   45.4180 H   0  0  0  0  0  0  0  0  0  0  0  0
   44.6070   34.2830   46.1770 H   0  0  0  0  0  0  0  0  0  0  0  0
   44.6320   33.7170   41.1790 O   0  0  0  0  0  0  0  0  0  0  0  0
   43.5400   34.3310   40.6270 C   0  0  0  0  0  0  0  0  0  0  0  0
   43.2930   35.5770   40.5430 O   0  0  0  0  0  0  0  0  0  0  0  0
   42.3760   33.8270   39.9990 O   0  0  0  0  0  0  0  0  0  0  0  0
   40.3470   34.3960   41.5410 O   0  0  0  0  0  0  0  0  0  0  0  0
   41.0810   33.2150   40.9380 P   0  0  0  0  0  0  0  0  0  0  0  0
   40.0100   32.4070   39.9190 O   0  0  0  0  0  0  0  0  0  0  0  0
   39.4180   33.0850   39.4650 H   0  0  0  0  0  0  0  0  0  0  0  0
   41.6040   32.2290   42.2050 O   0  0  0  0  0  0  0  0  0  0  0  0
   41.1810   31.3350   42.2170 H   0  0  0  0  0  0  0  0  0  0  0  0
  1 17  1  0  0  0  0
  1  2  1  0  0  0  0
  2  9  1  0  0  0  0
  3  2  2  0  0  0  0
  3  7  1  0  0  0  0
  4  3  1  0  0  0  0
  5  6  1  0  0  0  0
  5  4  2  0  0  0  0
  6  1  2  0  0  0  0
  8  5  1  0  0  0  0
  9 10  1  0  0  0  0
  9 13  2  0  0  0  0
 10 11  2  0  0  0  0
 11 12  1  0  0  0  0
 11 15  1  0  0  0  0
 12 16  1  0  0  0  0
 13 12  1  0  0  0  0
 14 10  1  0  0  0  0
 18 17  1  0  0  0  0
 19 18  2  0  0  0  0
 20 18  1  0  0  0  0
 20 22  1  0  0  0  0
 22 21  2  0  0  0  0
 22 25  1  0  0  0  0
 23 22  1  0  0  0  0
 24 23  1  0  0  0  0
 25 26  1  0  0  0  0
M  END
>  <minimizedAffinity>
-5.07573938

>  <minimizedRMSD>
0.635990262

$$$$
