
 OpenBabel03252509223D

 25 26  0  0  1  0  0  0  0  0999 V2000
   46.3480   34.9760   42.0620 C   0  0  1  0  0  0  0  0  0  0  0  0
   47.8420   35.3020   41.8080 C   0  0  0  0  0  0  0  0  0  0  0  0
   47.0850   34.1220   41.2030 C   0  0  2  0  0  0  0  0  0  0  0  0
   45.6610   35.7700   41.7230 H   0  0  0  0  0  0  0  0  0  0  0  0
   47.9780   36.2150   41.2460 H   0  0  0  0  0  0  0  0  0  0  0  0
   48.5750   35.1310   42.5920 H   0  0  0  0  0  0  0  0  0  0  0  0
   47.4500   33.1500   41.5990 H   0  0  0  0  0  0  0  0  0  0  0  0
   44.9900   34.7010   45.5440 C   0  0  0  0  0  0  0  0  0  0  0  0
   45.1730   35.2190   44.2180 C   0  0  0  0  0  0  0  0  0  0  0  0
   46.1390   34.5590   43.5050 C   0  0  0  0  0  0  0  0  0  0  0  0
   46.8560   33.5020   44.0270 N   0  0  0  0  0  0  0  0  0  0  0  0
   46.6350   33.0670   45.2760 C   0  0  0  0  0  0  0  0  0  0  0  0
   45.6920   33.6730   46.0390 N   0  0  0  0  0  0  0  0  0  0  0  0
   44.2390   35.1830   46.1570 H   0  0  0  0  0  0  0  0  0  0  0  0
   47.2840   32.2390   45.5070 H   0  0  0  0  0  0  0  0  0  0  0  0
   44.4430   36.3190   43.7060 N   0  0  0  0  0  0  0  0  0  0  0  0
   44.9070   37.1570   44.1210 H   0  0  0  0  0  0  0  0  0  0  0  0
   43.6190   36.3510   43.0590 H   0  0  0  0  0  0  0  0  0  0  0  0
   46.7790   34.0660   39.8800 O   0  0  0  0  0  0  0  0  0  0  0  0
   48.5040   34.7030   37.9560 O   0  0  0  0  0  0  0  0  0  0  0  0
   47.9700   33.6320   38.8280 P   0  0  0  0  0  0  0  0  0  0  0  0
   49.2860   33.0100   39.7150 O   0  0  0  0  0  0  0  0  0  0  0  0
   50.0320   32.7540   39.1190 H   0  0  0  0  0  0  0  0  0  0  0  0
   47.4060   32.2860   37.9400 O   0  0  0  0  0  0  0  0  0  0  0  0
   46.7740   31.7520   38.4390 H   0  0  0  0  0  0  0  0  0  0  0  0
  1  4  1  6  0  0  0
  1 10  1  0  0  0  0
  2  1  1  0  0  0  0
  2  6  1  0  0  0  0
  3  7  1  1  0  0  0
  3  2  1  0  0  0  0
  3  1  1  0  0  0  0
  5  2  1  0  0  0  0
  8 13  1  0  0  0  0
  8 14  1  0  0  0  0
  9  8  2  0  0  0  0
 10 11  2  0  0  0  0
 10  9  1  0  0  0  0
 11 12  1  0  0  0  0
 12 15  1  0  0  0  0
 12 13  2  0  0  0  0
 16 17  1  0  0  0  0
 16  9  1  0  0  0  0
 18 16  1  0  0  0  0
 19  3  1  0  0  0  0
 20 21  2  0  0  0  0
 21 22  1  0  0  0  0
 21 19  1  0  0  0  0
 23 22  1  0  0  0  0
 24 25  1  0  0  0  0
 24 21  1  0  0  0  0
M  END
>  <minimizedAffinity>
-4.63405085

>  <minimizedRMSD>
1.3209033

$$$$
