
 OpenBabel03252509173D

 39 41  0  0  1  0  0  0  0  0999 V2000
   47.8110   30.1100   48.4610 C   0  0  1  0  0  0  0  0  0  0  0  0
   47.9000   28.9470   47.5370 C   0  0  0  0  0  0  0  0  0  0  0  0
   49.2420   28.2850   47.4760 C   0  0  0  0  0  0  0  0  0  0  0  0
   49.8850   28.1250   48.8320 C   0  0  0  0  0  0  0  0  0  0  0  0
   49.7670   29.3520   49.6880 C   0  0  0  0  0  0  0  0  0  0  0  0
   49.2550   30.5170   48.8400 C   0  0  2  0  0  0  0  0  0  0  0  0
   47.3250   29.7600   49.4120 H   0  0  0  0  0  0  0  0  0  0  0  0
   47.6310   29.3000   46.5180 H   0  0  0  0  0  0  0  0  0  0  0  0
   47.1520   28.1560   47.7750 H   0  0  0  0  0  0  0  0  0  0  0  0
   49.0910   27.2520   47.0610 H   0  0  0  0  0  0  0  0  0  0  0  0
   49.9150   28.8190   46.7610 H   0  0  0  0  0  0  0  0  0  0  0  0
   50.9620   27.8730   48.6470 H   0  0  0  0  0  0  0  0  0  0  0  0
   49.4340   27.2150   49.2940 H   0  0  0  0  0  0  0  0  0  0  0  0
   49.0410   29.1540   50.5290 H   0  0  0  0  0  0  0  0  0  0  0  0
   50.7540   29.5900   50.1270 H   0  0  0  0  0  0  0  0  0  0  0  0
   49.8550   30.5400   47.9190 H   0  0  0  0  0  0  0  0  0  0  0  0
   46.0470   33.1460   46.3510 C   0  0  0  0  0  0  0  0  0  0  0  0
   45.4540   32.9500   47.6050 C   0  0  0  0  0  0  0  0  0  0  0  0
   45.9510   31.9820   48.3970 C   0  0  0  0  0  0  0  0  0  0  0  0
   47.0360   31.2000   47.9570 C   0  0  0  0  0  0  0  0  0  0  0  0
   47.3770   31.8850   46.3080 S   0  0  0  0  0  0  0  0  0  0  0  0
   44.6230   33.5500   47.9400 H   0  0  0  0  0  0  0  0  0  0  0  0
   45.6370   31.6840   49.3760 H   0  0  0  0  0  0  0  0  0  0  0  0
   44.4260   35.9600   44.5370 C   0  0  0  0  0  0  0  0  0  0  0  0
   45.0850   35.8410   43.2830 C   0  0  0  0  0  0  0  0  0  0  0  0
   46.0330   34.8260   43.1230 C   0  0  0  0  0  0  0  0  0  0  0  0
   46.2800   33.9960   44.1820 N   0  0  0  0  0  0  0  0  0  0  0  0
   45.6220   34.1490   45.3700 C   0  0  0  0  0  0  0  0  0  0  0  0
   44.6970   35.1260   45.5540 N   0  0  0  0  0  0  0  0  0  0  0  0
   43.6830   36.7390   44.6940 H   0  0  0  0  0  0  0  0  0  0  0  0
   44.8480   36.5290   42.4750 H   0  0  0  0  0  0  0  0  0  0  0  0
   46.5530   34.7030   42.1910 H   0  0  0  0  0  0  0  0  0  0  0  0
   49.3110   31.7200   49.4900 O   0  0  0  0  0  0  0  0  0  0  0  0
   51.0740   31.8320   51.4070 O   0  0  0  0  0  0  0  0  0  0  0  0
   50.8460   32.1830   49.9520 P   0  0  0  0  0  0  0  0  0  0  0  0
   52.0200   31.4270   49.0070 O   0  0  0  0  0  0  0  0  0  0  0  0
   52.2690   30.5350   49.3520 H   0  0  0  0  0  0  0  0  0  0  0  0
   50.9890   33.8690   49.8540 O   0  0  0  0  0  0  0  0  0  0  0  0
   50.1490   34.2500   50.2130 H   0  0  0  0  0  0  0  0  0  0  0  0
  1  6  1  0  0  0  0
  1  7  1  1  0  0  0
  2  9  1  0  0  0  0
  2  1  1  0  0  0  0
  3  2  1  0  0  0  0
  3  4  1  0  0  0  0
  4 13  1  0  0  0  0
  4  5  1  0  0  0  0
  5 15  1  0  0  0  0
  5 14  1  0  0  0  0
  6 16  1  6  0  0  0
  6 33  1  0  0  0  0
  6  5  1  0  0  0  0
  8  2  1  0  0  0  0
 10  3  1  0  0  0  0
 11  3  1  0  0  0  0
 12  4  1  0  0  0  0
 17 18  2  0  0  0  0
 18 22  1  0  0  0  0
 18 19  1  0  0  0  0
 19 23  1  0  0  0  0
 20 19  2  0  0  0  0
 20  1  1  0  0  0  0
 21 17  1  0  0  0  0
 21 20  1  0  0  0  0
 24 30  1  0  0  0  0
 24 29  1  0  0  0  0
 25 24  2  0  0  0  0
 26 25  1  0  0  0  0
 26 27  2  0  0  0  0
 27 28  1  0  0  0  0
 28 29  2  0  0  0  0
 28 17  1  0  0  0  0
 31 25  1  0  0  0  0
 32 26  1  0  0  0  0
 33 35  1  0  0  0  0
 35 34  2  0  0  0  0
 36 37  1  0  0  0  0
 36 35  1  0  0  0  0
 38 35  1  0  0  0  0
 38 39  1  0  0  0  0
M  END
>  <minimizedAffinity>
-5.37026834

>  <minimizedRMSD>
1.03053236

$$$$
