
 OpenBabel03252509283D

 19 19  0  0  0  0  0  0  0  0999 V2000
   47.0010   33.5810   42.8400 C   0  0  0  0  0  0  0  0  0  0  0  0
   46.4230   33.5460   41.8720 H   0  0  0  0  0  0  0  0  0  0  0  0
   47.2280   32.5140   43.0750 H   0  0  0  0  0  0  0  0  0  0  0  0
   44.5950   35.8300   44.5970 C   0  0  0  0  0  0  0  0  0  0  0  0
   45.4110   35.2980   43.5830 C   0  0  0  0  0  0  0  0  0  0  0  0
   46.1430   34.1570   43.8740 C   0  0  0  0  0  0  0  0  0  0  0  0
   46.0380   33.6030   45.1280 N   0  0  0  0  0  0  0  0  0  0  0  0
   45.2380   34.1480   46.0790 C   0  0  0  0  0  0  0  0  0  0  0  0
   44.5290   35.2480   45.8090 N   0  0  0  0  0  0  0  0  0  0  0  0
   44.0580   36.7250   44.2810 H   0  0  0  0  0  0  0  0  0  0  0  0
   45.4900   35.7430   42.5890 H   0  0  0  0  0  0  0  0  0  0  0  0
   45.1710   33.6960   47.0590 H   0  0  0  0  0  0  0  0  0  0  0  0
   48.1750   34.3180   42.6860 O   0  0  0  0  0  0  0  0  0  0  0  0
   48.9870   35.9410   40.8070 O   0  0  0  0  0  0  0  0  0  0  0  0
   48.3620   34.5930   41.0260 P   0  0  0  0  0  0  0  0  0  0  0  0
   46.8380   34.4480   40.3150 O   0  0  0  0  0  0  0  0  0  0  0  0
   46.1390   34.8880   40.8500 H   0  0  0  0  0  0  0  0  0  0  0  0
   49.4160   33.4220   40.4170 O   0  0  0  0  0  0  0  0  0  0  0  0
   50.2880   33.5530   40.8840 H   0  0  0  0  0  0  0  0  0  0  0  0
  1  3  1  0  0  0  0
  1  6  1  0  0  0  0
  2  1  1  0  0  0  0
  4  9  1  0  0  0  0
  5  6  1  0  0  0  0
  5  4  2  0  0  0  0
  6  7  2  0  0  0  0
  7  8  1  0  0  0  0
  8 12  1  0  0  0  0
  9  8  2  0  0  0  0
 10  4  1  0  0  0  0
 11  5  1  0  0  0  0
 13  1  1  0  0  0  0
 14 15  2  0  0  0  0
 15 13  1  0  0  0  0
 16 17  1  0  0  0  0
 16 15  1  0  0  0  0
 18 19  1  0  0  0  0
 18 15  1  0  0  0  0
M  END
>  <minimizedAffinity>
-3.95908523

>  <minimizedRMSD>
1.92344141

$$$$
