
 OpenBabel03252509223D

 25 26  0  0  1  0  0  0  0  0999 V2000
   46.5140   35.0040   41.9470 C   0  0  1  0  0  0  0  0  0  0  0  0
   48.0350   35.3000   41.9190 C   0  0  0  0  0  0  0  0  0  0  0  0
   47.3770   34.0290   41.3870 C   0  0  2  0  0  0  0  0  0  0  0  0
   45.9150   35.7250   41.3650 H   0  0  0  0  0  0  0  0  0  0  0  0
   48.2880   36.1100   41.2510 H   0  0  0  0  0  0  0  0  0  0  0  0
   48.6100   35.2670   42.8410 H   0  0  0  0  0  0  0  0  0  0  0  0
   47.6460   33.1390   41.9950 H   0  0  0  0  0  0  0  0  0  0  0  0
   44.6610   35.4190   45.1790 C   0  0  0  0  0  0  0  0  0  0  0  0
   45.1120   35.7170   43.8480 C   0  0  0  0  0  0  0  0  0  0  0  0
   46.0390   34.8260   43.3760 C   0  0  0  0  0  0  0  0  0  0  0  0
   46.4840   33.7520   44.1210 N   0  0  0  0  0  0  0  0  0  0  0  0
   46.0220   33.5320   45.3600 C   0  0  0  0  0  0  0  0  0  0  0  0
   45.1010   34.3730   45.8910 N   0  0  0  0  0  0  0  0  0  0  0  0
   43.9270   36.0890   45.6060 H   0  0  0  0  0  0  0  0  0  0  0  0
   46.4810   32.6530   45.7830 H   0  0  0  0  0  0  0  0  0  0  0  0
   44.6590   36.8350   43.1070 N   0  0  0  0  0  0  0  0  0  0  0  0
   45.1990   37.6410   43.4930 H   0  0  0  0  0  0  0  0  0  0  0  0
   43.9500   36.9030   42.3380 H   0  0  0  0  0  0  0  0  0  0  0  0
   47.3140   33.7550   40.0560 O   0  0  0  0  0  0  0  0  0  0  0  0
   45.4270   31.9240   40.4630 O   0  0  0  0  0  0  0  0  0  0  0  0
   46.0300   32.8810   39.5080 P   0  0  0  0  0  0  0  0  0  0  0  0
   44.7950   33.9560   39.0320 O   0  0  0  0  0  0  0  0  0  0  0  0
   43.9970   33.4670   38.7140 H   0  0  0  0  0  0  0  0  0  0  0  0
   46.5040   32.1340   38.0460 O   0  0  0  0  0  0  0  0  0  0  0  0
   47.1740   32.6430   37.5720 H   0  0  0  0  0  0  0  0  0  0  0  0
  1  4  1  6  0  0  0
  1 10  1  0  0  0  0
  2  1  1  0  0  0  0
  2  6  1  0  0  0  0
  3  2  1  0  0  0  0
  3  1  1  0  0  0  0
  3  7  1  1  0  0  0
  5  2  1  0  0  0  0
  8 14  1  0  0  0  0
  8 13  1  0  0  0  0
  9  8  2  0  0  0  0
 10  9  1  0  0  0  0
 10 11  2  0  0  0  0
 11 12  1  0  0  0  0
 12 15  1  0  0  0  0
 12 13  2  0  0  0  0
 16 17  1  0  0  0  0
 16  9  1  0  0  0  0
 18 16  1  0  0  0  0
 19  3  1  0  0  0  0
 21 19  1  0  0  0  0
 21 20  2  0  0  0  0
 22 21  1  0  0  0  0
 23 22  1  0  0  0  0
 24 21  1  0  0  0  0
 25 24  1  0  0  0  0
M  END
>  <minimizedAffinity>
-4.37059975

>  <minimizedRMSD>
0.154864252

$$$$
