
 OpenBabel03252509343D

 41 42  0  0  1  0  0  0  0  0999 V2000
   37.4550   28.8130   41.8050 C   0  0  1  0  0  0  0  0  0  0  0  0
   36.9130   27.4720   41.3570 C   0  0  0  0  0  0  0  0  0  0  0  0
   36.5970   26.8340   42.7060 C   0  0  0  0  0  0  0  0  0  0  0  0
   37.5840   27.4300   43.6800 C   0  0  0  0  0  0  0  0  0  0  0  0
   38.4500   28.3590   42.8500 C   0  0  1  0  0  0  0  0  0  0  0  0
   36.6540   29.3530   42.2940 H   0  0  0  0  0  0  0  0  0  0  0  0
   37.6170   26.8820   40.7510 H   0  0  0  0  0  0  0  0  0  0  0  0
   35.9680   27.5270   40.8010 H   0  0  0  0  0  0  0  0  0  0  0  0
   35.5850   27.2190   43.0220 H   0  0  0  0  0  0  0  0  0  0  0  0
   36.6210   25.7390   42.6550 H   0  0  0  0  0  0  0  0  0  0  0  0
   38.2550   26.5790   44.0000 H   0  0  0  0  0  0  0  0  0  0  0  0
   37.1190   27.9350   44.5310 H   0  0  0  0  0  0  0  0  0  0  0  0
   38.8010   29.2260   43.4260 H   0  0  0  0  0  0  0  0  0  0  0  0
   39.6500   27.6630   42.2770 C   0  0  0  0  0  0  0  0  0  0  0  0
   39.4840   27.1370   41.3400 H   0  0  0  0  0  0  0  0  0  0  0  0
   40.4290   28.4220   42.1320 H   0  0  0  0  0  0  0  0  0  0  0  0
   40.0430   26.7010   43.2320 O   0  0  0  0  0  0  0  0  0  0  0  0
   40.2070   25.2360   41.0250 O   0  0  0  0  0  0  0  0  0  0  0  0
   40.4190   25.2330   42.5080 P   0  0  0  0  0  0  0  0  0  0  0  0
   42.0250   24.7590   42.7890 O   0  0  0  0  0  0  0  0  0  0  0  0
   42.4340   25.3020   43.4930 H   0  0  0  0  0  0  0  0  0  0  0  0
   39.4330   24.0400   43.1990 O   0  0  0  0  0  0  0  0  0  0  0  0
   39.5880   23.1580   42.7750 H   0  0  0  0  0  0  0  0  0  0  0  0
   38.0820   29.4940   40.7550 O   0  0  0  0  0  0  0  0  0  0  0  0
   36.3820   30.0330   38.8820 O   0  0  0  0  0  0  0  0  0  0  0  0
   37.0100   30.6200   40.1170 P   0  0  1  0  0  0  0  0  0  0  0  0
   35.8620   31.0690   41.2560 O   0  0  0  0  0  0  0  0  0  0  0  0
   36.0520   30.8470   42.1770 H   0  0  0  0  0  0  0  0  0  0  0  0
   37.8560   32.0170   39.7210 O   0  0  0  0  0  0  0  0  0  0  0  0
   38.8760   32.1840   40.6060 C   0  0  0  0  0  0  0  0  0  0  0  0
   38.6660   32.6790   41.5490 H   0  0  0  0  0  0  0  0  0  0  0  0
   39.2190   31.1430   40.8770 H   0  0  0  0  0  0  0  0  0  0  0  0
   41.3710   33.2890   38.0750 C   0  0  0  0  0  0  0  0  0  0  0  0
   40.2470   32.6690   38.6340 C   0  0  0  0  0  0  0  0  0  0  0  0
   40.0520   32.8290   39.9970 C   0  0  0  0  0  0  0  0  0  0  0  0
   40.9500   33.5710   40.7230 N   0  0  0  0  0  0  0  0  0  0  0  0
   42.0250   34.1570   40.1520 C   0  0  0  0  0  0  0  0  0  0  0  0
   42.2260   34.0120   38.8390 N   0  0  0  0  0  0  0  0  0  0  0  0
   41.6000   33.2170   37.0210 H   0  0  0  0  0  0  0  0  0  0  0  0
   39.6040   32.1070   37.9740 H   0  0  0  0  0  0  0  0  0  0  0  0
   42.6530   34.7130   40.8350 H   0  0  0  0  0  0  0  0  0  0  0  0
  1  6  1  1  0  0  0
  1  5  1  0  0  0  0
  2  1  1  0  0  0  0
  2  3  1  0  0  0  0
  3  9  1  0  0  0  0
  3  4  1  0  0  0  0
  4 11  1  0  0  0  0
  4 12  1  0  0  0  0
  5 13  1  1  0  0  0
  5  4  1  0  0  0  0
  7  2  1  0  0  0  0
  8  2  1  0  0  0  0
 10  3  1  0  0  0  0
 14  5  1  0  0  0  0
 14 17  1  0  0  0  0
 15 14  1  0  0  0  0
 16 14  1  0  0  0  0
 18 19  2  0  0  0  0
 19 20  1  0  0  0  0
 19 22  1  0  0  0  0
 19 17  1  0  0  0  0
 20 21  1  0  0  0  0
 23 22  1  0  0  0  0
 24  1  1  0  0  0  0
 26 25  2  6  0  0  0
 26 24  1  0  0  0  0
 26 27  1  0  0  0  0
 27 28  1  0  0  0  0
 29 26  1  0  0  0  0
 29 30  1  0  0  0  0
 30 32  1  0  0  0  0
 30 31  1  0  0  0  0
 33 34  2  0  0  0  0
 33 38  1  0  0  0  0
 34 35  1  0  0  0  0
 35 30  1  0  0  0  0
 35 36  2  0  0  0  0
 37 36  1  0  0  0  0
 37 41  1  0  0  0  0
 38 37  2  0  0  0  0
 39 33  1  0  0  0  0
 40 34  1  0  0  0  0
M  END
>  <minimizedAffinity>
-5.17689037

$$$$

 OpenBabel03252509343D

 41 42  0  0  1  0  0  0  0  0999 V2000
   36.7440   30.1970   38.3430 C   0  0  1  0  0  0  0  0  0  0  0  0
   37.2340   29.2260   37.2890 C   0  0  0  0  0  0  0  0  0  0  0  0
   35.9230   28.8900   36.5860 C   0  0  0  0  0  0  0  0  0  0  0  0
   34.8500   29.0300   37.6390 C   0  0  0  0  0  0  0  0  0  0  0  0
   35.5870   29.4060   38.9110 C   0  0  1  0  0  0  0  0  0  0  0  0
   36.3570   31.0730   37.8370 H   0  0  0  0  0  0  0  0  0  0  0  0
   37.7490   28.3420   37.6960 H   0  0  0  0  0  0  0  0  0  0  0  0
   37.8960   29.6710   36.5340 H   0  0  0  0  0  0  0  0  0  0  0  0
   35.7300   29.7140   35.8410 H   0  0  0  0  0  0  0  0  0  0  0  0
   35.9570   27.9050   36.1080 H   0  0  0  0  0  0  0  0  0  0  0  0
   34.4450   27.9890   37.8080 H   0  0  0  0  0  0  0  0  0  0  0  0
   34.0640   29.7450   37.3790 H   0  0  0  0  0  0  0  0  0  0  0  0
   34.9850   30.0520   39.5650 H   0  0  0  0  0  0  0  0  0  0  0  0
   36.0100   28.2040   39.7030 C   0  0  0  0  0  0  0  0  0  0  0  0
   35.5220   27.2700   39.4350 H   0  0  0  0  0  0  0  0  0  0  0  0
   37.0940   28.0950   39.5770 H   0  0  0  0  0  0  0  0  0  0  0  0
   35.6760   28.4780   41.0470 O   0  0  0  0  0  0  0  0  0  0  0  0
   36.9010   26.8010   42.6980 O   0  0  0  0  0  0  0  0  0  0  0  0
   36.9630   28.1630   42.0780 P   0  0  0  0  0  0  0  0  0  0  0  0
   38.4690   28.2990   41.3040 O   0  0  0  0  0  0  0  0  0  0  0  0
   38.3780   28.7350   40.4330 H   0  0  0  0  0  0  0  0  0  0  0  0
   36.9440   29.3260   43.3100 O   0  0  0  0  0  0  0  0  0  0  0  0
   37.6630   29.1590   43.9710 H   0  0  0  0  0  0  0  0  0  0  0  0
   37.7230   30.4480   39.3100 O   0  0  0  0  0  0  0  0  0  0  0  0
   36.9520   32.9110   39.1450 O   0  0  0  0  0  0  0  0  0  0  0  0
   37.3200   31.8480   40.1460 P   0  0  1  0  0  0  0  0  0  0  0  0
   36.0820   31.5590   41.2420 O   0  0  0  0  0  0  0  0  0  0  0  0
   35.8960   30.6350   41.4540 H   0  0  0  0  0  0  0  0  0  0  0  0
   38.6450   32.3480   41.0500 O   0  0  0  0  0  0  0  0  0  0  0  0
   39.0150   33.5920   40.6460 C   0  0  0  0  0  0  0  0  0  0  0  0
   38.3180   34.1700   40.0470 H   0  0  0  0  0  0  0  0  0  0  0  0
   39.1700   34.1880   41.5920 H   0  0  0  0  0  0  0  0  0  0  0  0
   42.6330   34.1610   39.9830 C   0  0  0  0  0  0  0  0  0  0  0  0
   41.3980   34.1610   40.6430 C   0  0  0  0  0  0  0  0  0  0  0  0
   40.3240   33.6020   39.9690 C   0  0  0  0  0  0  0  0  0  0  0  0
   40.5140   33.0840   38.7130 N   0  0  0  0  0  0  0  0  0  0  0  0
   41.7190   33.0990   38.1040 C   0  0  0  0  0  0  0  0  0  0  0  0
   42.7640   33.6350   38.7400 N   0  0  0  0  0  0  0  0  0  0  0  0
   43.5240   34.5760   40.4350 H   0  0  0  0  0  0  0  0  0  0  0  0
   41.3580   34.5950   41.6310 H   0  0  0  0  0  0  0  0  0  0  0  0
   41.7330   32.6590   37.1160 H   0  0  0  0  0  0  0  0  0  0  0  0
  1  6  1  6  0  0  0
  1  5  1  0  0  0  0
  1 24  1  0  0  0  0
  2  7  1  0  0  0  0
  2  1  1  0  0  0  0
  3  2  1  0  0  0  0
  3  4  1  0  0  0  0
  4 11  1  0  0  0  0
  4  5  1  0  0  0  0
  5 13  1  1  0  0  0
  5 14  1  0  0  0  0
  8  2  1  0  0  0  0
  9  3  1  0  0  0  0
 10  3  1  0  0  0  0
 12  4  1  0  0  0  0
 14 17  1  0  0  0  0
 15 14  1  0  0  0  0
 16 14  1  0  0  0  0
 17 19  1  0  0  0  0
 19 18  2  0  0  0  0
 19 22  1  0  0  0  0
 20 19  1  0  0  0  0
 21 20  1  0  0  0  0
 22 23  1  0  0  0  0
 24 26  1  0  0  0  0
 26 25  2  6  0  0  0
 26 29  1  0  0  0  0
 26 27  1  0  0  0  0
 27 28  1  0  0  0  0
 30 29  1  0  0  0  0
 30 32  1  0  0  0  0
 31 30  1  0  0  0  0
 33 39  1  0  0  0  0
 33 34  1  0  0  0  0
 34 40  1  0  0  0  0
 35 34  2  0  0  0  0
 35 30  1  0  0  0  0
 36 35  1  0  0  0  0
 37 36  2  0  0  0  0
 37 38  1  0  0  0  0
 38 33  2  0  0  0  0
 41 37  1  0  0  0  0
M  END
>  <minimizedAffinity>
-5.08502102

$$$$

 OpenBabel03252509343D

 41 42  0  0  1  0  0  0  0  0999 V2000
   37.0210   28.5820   41.4860 C   0  0  1  0  0  0  0  0  0  0  0  0
   37.4800   27.1420   41.4060 C   0  0  0  0  0  0  0  0  0  0  0  0
   36.9610   26.6070   42.7370 C   0  0  0  0  0  0  0  0  0  0  0  0
   36.9710   27.7870   43.6790 C   0  0  0  0  0  0  0  0  0  0  0  0
   37.5250   28.9420   42.8670 C   0  0  1  0  0  0  0  0  0  0  0  0
   35.9380   28.5890   41.4940 H   0  0  0  0  0  0  0  0  0  0  0  0
   38.5670   27.0210   41.2830 H   0  0  0  0  0  0  0  0  0  0  0  0
   36.9940   26.5540   40.6150 H   0  0  0  0  0  0  0  0  0  0  0  0
   35.8750   26.3450   42.5850 H   0  0  0  0  0  0  0  0  0  0  0  0
   37.5450   25.7480   43.0870 H   0  0  0  0  0  0  0  0  0  0  0  0
   37.7510   27.5520   44.4620 H   0  0  0  0  0  0  0  0  0  0  0  0
   35.9950   28.0100   44.1200 H   0  0  0  0  0  0  0  0  0  0  0  0
   37.1010   29.9080   43.1740 H   0  0  0  0  0  0  0  0  0  0  0  0
   39.0190   29.0390   42.9560 C   0  0  0  0  0  0  0  0  0  0  0  0
   39.4920   28.3610   43.6630 H   0  0  0  0  0  0  0  0  0  0  0  0
   39.4190   28.8490   41.9520 H   0  0  0  0  0  0  0  0  0  0  0  0
   39.3060   30.3530   43.3810 O   0  0  0  0  0  0  0  0  0  0  0  0
   40.8040   30.2550   41.1920 O   0  0  0  0  0  0  0  0  0  0  0  0
   40.3430   31.1330   42.3150 P   0  0  0  0  0  0  0  0  0  0  0  0
   39.6470   32.5190   41.6220 O   0  0  0  0  0  0  0  0  0  0  0  0
   38.8270   32.7730   42.0920 H   0  0  0  0  0  0  0  0  0  0  0  0
   41.6970   31.6570   43.1900 O   0  0  0  0  0  0  0  0  0  0  0  0
   42.3610   32.0890   42.5960 H   0  0  0  0  0  0  0  0  0  0  0  0
   37.6170   29.3710   40.4960 O   0  0  0  0  0  0  0  0  0  0  0  0
   35.7930   30.1670   38.8450 O   0  0  0  0  0  0  0  0  0  0  0  0
   36.5570   30.6010   40.0670 P   0  0  1  0  0  0  0  0  0  0  0  0
   35.5380   30.9900   41.3430 O   0  0  0  0  0  0  0  0  0  0  0  0
   35.7950   30.6710   42.2170 H   0  0  0  0  0  0  0  0  0  0  0  0
   37.4400   31.9900   39.7260 O   0  0  0  0  0  0  0  0  0  0  0  0
   37.8390   31.9550   38.4260 C   0  0  0  0  0  0  0  0  0  0  0  0
   37.3280   31.2790   37.7470 H   0  0  0  0  0  0  0  0  0  0  0  0
   37.6520   32.9920   38.0210 H   0  0  0  0  0  0  0  0  0  0  0  0
   41.1040   30.3510   37.6440 C   0  0  0  0  0  0  0  0  0  0  0  0
   39.7220   30.5320   37.7700 C   0  0  0  0  0  0  0  0  0  0  0  0
   39.2890   31.7440   38.2850 C   0  0  0  0  0  0  0  0  0  0  0  0
   40.2160   32.6930   38.6400 N   0  0  0  0  0  0  0  0  0  0  0  0
   41.5430   32.4860   38.5050 C   0  0  0  0  0  0  0  0  0  0  0  0
   41.9760   31.3230   38.0110 N   0  0  0  0  0  0  0  0  0  0  0  0
   41.5290   29.4370   37.2530 H   0  0  0  0  0  0  0  0  0  0  0  0
   39.0800   29.7210   37.4610 H   0  0  0  0  0  0  0  0  0  0  0  0
   42.1640   33.3130   38.8220 H   0  0  0  0  0  0  0  0  0  0  0  0
  1  6  1  6  0  0  0
  1  5  1  0  0  0  0
  2  1  1  0  0  0  0
  2  3  1  0  0  0  0
  3 10  1  0  0  0  0
  3  4  1  0  0  0  0
  4 12  1  0  0  0  0
  4 11  1  0  0  0  0
  5 14  1  0  0  0  0
  5 13  1  1  0  0  0
  5  4  1  0  0  0  0
  7  2  1  0  0  0  0
  8  2  1  0  0  0  0
  9  3  1  0  0  0  0
 14 17  1  0  0  0  0
 14 15  1  0  0  0  0
 16 14  1  0  0  0  0
 18 19  2  0  0  0  0
 19 22  1  0  0  0  0
 19 17  1  0  0  0  0
 20 21  1  0  0  0  0
 20 19  1  0  0  0  0
 23 22  1  0  0  0  0
 24  1  1  0  0  0  0
 26 25  2  6  0  0  0
 26 24  1  0  0  0  0
 26 27  1  0  0  0  0
 27 28  1  0  0  0  0
 29 26  1  0  0  0  0
 30 29  1  0  0  0  0
 31 30  1  0  0  0  0
 32 30  1  0  0  0  0
 33 34  2  0  0  0  0
 33 38  1  0  0  0  0
 34 35  1  0  0  0  0
 35 30  1  0  0  0  0
 35 36  2  0  0  0  0
 37 36  1  0  0  0  0
 37 41  1  0  0  0  0
 38 37  2  0  0  0  0
 39 33  1  0  0  0  0
 40 34  1  0  0  0  0
M  END
>  <minimizedAffinity>
-5.04593086

$$$$

 OpenBabel03252509343D

 41 42  0  0  1  0  0  0  0  0999 V2000
   37.9310   31.9000   40.6120 C   0  0  1  0  0  0  0  0  0  0  0  0
   39.1340   32.8100   40.4820 C   0  0  0  0  0  0  0  0  0  0  0  0
   38.4540   34.1250   40.1130 C   0  0  0  0  0  0  0  0  0  0  0  0
   37.1960   33.7370   39.3730 C   0  0  0  0  0  0  0  0  0  0  0  0
   37.2190   32.2210   39.3150 C   0  0  1  0  0  0  0  0  0  0  0  0
   37.3300   32.2550   41.4400 H   0  0  0  0  0  0  0  0  0  0  0  0
   39.8720   32.4780   39.7360 H   0  0  0  0  0  0  0  0  0  0  0  0
   39.6750   32.9840   41.4220 H   0  0  0  0  0  0  0  0  0  0  0  0
   38.1090   34.5980   41.0760 H   0  0  0  0  0  0  0  0  0  0  0  0
   39.1220   34.7850   39.5480 H   0  0  0  0  0  0  0  0  0  0  0  0
   37.3400   34.0930   38.3110 H   0  0  0  0  0  0  0  0  0  0  0  0
   36.2790   34.1290   39.8220 H   0  0  0  0  0  0  0  0  0  0  0  0
   36.2090   31.7890   39.3330 H   0  0  0  0  0  0  0  0  0  0  0  0
   37.9260   31.7050   38.0970 C   0  0  0  0  0  0  0  0  0  0  0  0
   38.0660   32.4270   37.2960 H   0  0  0  0  0  0  0  0  0  0  0  0
   38.9050   31.3310   38.4210 H   0  0  0  0  0  0  0  0  0  0  0  0
   37.1220   30.6640   37.5840 O   0  0  0  0  0  0  0  0  0  0  0  0
   39.4640   29.4200   37.6800 O   0  0  0  0  0  0  0  0  0  0  0  0
   38.0210   29.2710   37.3100 P   0  0  0  0  0  0  0  0  0  0  0  0
   37.4160   27.9270   38.1530 O   0  0  0  0  0  0  0  0  0  0  0  0
   36.5240   28.1100   38.5120 H   0  0  0  0  0  0  0  0  0  0  0  0
   37.9140   28.8970   35.6600 O   0  0  0  0  0  0  0  0  0  0  0  0
   38.4640   28.1030   35.4380 H   0  0  0  0  0  0  0  0  0  0  0  0
   38.3050   30.5540   40.6760 O   0  0  0  0  0  0  0  0  0  0  0  0
   37.7820   29.4780   42.9690 O   0  0  0  0  0  0  0  0  0  0  0  0
   37.1840   29.7200   41.6100 P   0  0  1  0  0  0  0  0  0  0  0  0
   35.7330   30.5590   41.6990 O   0  0  0  0  0  0  0  0  0  0  0  0
   35.6000   31.2670   41.0560 H   0  0  0  0  0  0  0  0  0  0  0  0
   36.8370   28.2530   40.8670 O   0  0  0  0  0  0  0  0  0  0  0  0
   36.9020   27.2600   41.7940 C   0  0  0  0  0  0  0  0  0  0  0  0
   37.3690   27.4750   42.7500 H   0  0  0  0  0  0  0  0  0  0  0  0
   35.8310   26.9930   42.0310 H   0  0  0  0  0  0  0  0  0  0  0  0
   37.6180   23.6500   41.2400 C   0  0  0  0  0  0  0  0  0  0  0  0
   37.0410   24.8140   41.7620 C   0  0  0  0  0  0  0  0  0  0  0  0
   37.4950   26.0230   41.2580 C   0  0  0  0  0  0  0  0  0  0  0  0
   38.4680   26.0250   40.2900 N   0  0  0  0  0  0  0  0  0  0  0  0
   39.0030   24.8830   39.8070 C   0  0  0  0  0  0  0  0  0  0  0  0
   38.5770   23.7100   40.2830 N   0  0  0  0  0  0  0  0  0  0  0  0
   37.3230   22.6650   41.5750 H   0  0  0  0  0  0  0  0  0  0  0  0
   36.2830   24.7000   42.5220 H   0  0  0  0  0  0  0  0  0  0  0  0
   39.7600   25.0240   39.0470 H   0  0  0  0  0  0  0  0  0  0  0  0
  1 24  1  0  0  0  0
  1  6  1  1  0  0  0
  2  1  1  0  0  0  0
  2  8  1  0  0  0  0
  3  2  1  0  0  0  0
  3  9  1  0  0  0  0
  4 12  1  0  0  0  0
  4  3  1  0  0  0  0
  5 13  1  1  0  0  0
  5  4  1  0  0  0  0
  5  1  1  0  0  0  0
  7  2  1  0  0  0  0
 10  3  1  0  0  0  0
 11  4  1  0  0  0  0
 14 16  1  0  0  0  0
 14  5  1  0  0  0  0
 15 14  1  0  0  0  0
 17 14  1  0  0  0  0
 19 17  1  0  0  0  0
 19 18  2  0  0  0  0
 19 20  1  0  0  0  0
 20 21  1  0  0  0  0
 22 19  1  0  0  0  0
 23 22  1  0  0  0  0
 24 26  1  0  0  0  0
 26 27  1  0  0  0  0
 26 25  2  1  0  0  0
 28 27  1  0  0  0  0
 29 26  1  0  0  0  0
 29 30  1  0  0  0  0
 30 32  1  0  0  0  0
 30 31  1  0  0  0  0
 33 39  1  0  0  0  0
 33 34  1  0  0  0  0
 34 40  1  0  0  0  0
 35 34  2  0  0  0  0
 35 30  1  0  0  0  0
 36 35  1  0  0  0  0
 37 38  1  0  0  0  0
 37 36  2  0  0  0  0
 38 33  2  0  0  0  0
 41 37  1  0  0  0  0
M  END
>  <minimizedAffinity>
-5.00875568

$$$$

 OpenBabel03252509343D

 41 42  0  0  1  0  0  0  0  0999 V2000
   36.6590   29.3980   38.9020 C   0  0  1  0  0  0  0  0  0  0  0  0
   35.2390   28.9970   38.5640 C   0  0  0  0  0  0  0  0  0  0  0  0
   35.4390   27.5260   38.2100 C   0  0  0  0  0  0  0  0  0  0  0  0
   36.8440   27.4280   37.6650 C   0  0  0  0  0  0  0  0  0  0  0  0
   37.3820   28.8460   37.6930 C   0  0  1  0  0  0  0  0  0  0  0  0
   36.9650   28.8420   39.7790 H   0  0  0  0  0  0  0  0  0  0  0  0
   34.7870   29.5820   37.7490 H   0  0  0  0  0  0  0  0  0  0  0  0
   34.5430   29.0280   39.4140 H   0  0  0  0  0  0  0  0  0  0  0  0
   35.4470   26.9530   39.1810 H   0  0  0  0  0  0  0  0  0  0  0  0
   34.6650   27.1620   37.5260 H   0  0  0  0  0  0  0  0  0  0  0  0
   36.7330   27.1570   36.5740 H   0  0  0  0  0  0  0  0  0  0  0  0
   37.4820   26.7230   38.2060 H   0  0  0  0  0  0  0  0  0  0  0  0
   38.4670   28.8760   37.8680 H   0  0  0  0  0  0  0  0  0  0  0  0
   37.0930   29.5930   36.4250 C   0  0  0  0  0  0  0  0  0  0  0  0
   36.1080   30.0510   36.3650 H   0  0  0  0  0  0  0  0  0  0  0  0
   37.8600   30.3720   36.3230 H   0  0  0  0  0  0  0  0  0  0  0  0
   37.1790   28.6490   35.3800 O   0  0  0  0  0  0  0  0  0  0  0  0
   34.8300   29.5520   34.5380 O   0  0  0  0  0  0  0  0  0  0  0  0
   36.1730   29.0550   34.0980 P   0  0  0  0  0  0  0  0  0  0  0  0
   36.8480   30.2430   33.0900 O   0  0  0  0  0  0  0  0  0  0  0  0
   37.7990   30.3710   33.2840 H   0  0  0  0  0  0  0  0  0  0  0  0
   35.9590   27.6720   33.1420 O   0  0  0  0  0  0  0  0  0  0  0  0
   35.3370   27.8500   32.3910 H   0  0  0  0  0  0  0  0  0  0  0  0
   36.7950   30.7870   38.9960 O   0  0  0  0  0  0  0  0  0  0  0  0
   37.5770   32.6030   40.6630 O   0  0  0  0  0  0  0  0  0  0  0  0
   37.0230   31.2050   40.6070 P   0  0  1  0  0  0  0  0  0  0  0  0
   35.5930   31.0590   41.4750 O   0  0  0  0  0  0  0  0  0  0  0  0
   34.8830   30.5510   41.0610 H   0  0  0  0  0  0  0  0  0  0  0  0
   38.1110   30.1300   41.3030 O   0  0  0  0  0  0  0  0  0  0  0  0
   37.5080   29.5040   42.3500 C   0  0  0  0  0  0  0  0  0  0  0  0
   37.6030   29.9430   43.3390 H   0  0  0  0  0  0  0  0  0  0  0  0
   36.4030   29.5140   42.1170 H   0  0  0  0  0  0  0  0  0  0  0  0
   37.4260   25.8140   41.8730 C   0  0  0  0  0  0  0  0  0  0  0  0
   37.0670   27.1640   41.7750 C   0  0  0  0  0  0  0  0  0  0  0  0
   37.8680   28.0790   42.4400 C   0  0  0  0  0  0  0  0  0  0  0  0
   38.9540   27.6310   43.1510 N   0  0  0  0  0  0  0  0  0  0  0  0
   39.2730   26.3210   43.2240 C   0  0  0  0  0  0  0  0  0  0  0  0
   38.5100   25.4270   42.5890 N   0  0  0  0  0  0  0  0  0  0  0  0
   36.8580   25.0330   41.3860 H   0  0  0  0  0  0  0  0  0  0  0  0
   36.1930   27.4090   41.1910 H   0  0  0  0  0  0  0  0  0  0  0  0
   40.1520   26.1020   43.8160 H   0  0  0  0  0  0  0  0  0  0  0  0
  1 24  1  0  0  0  0
  1  6  1  1  0  0  0
  2  1  1  0  0  0  0
  2  8  1  0  0  0  0
  3  2  1  0  0  0  0
  3  9  1  0  0  0  0
  4  5  1  0  0  0  0
  4 12  1  0  0  0  0
  4  3  1  0  0  0  0
  5 13  1  1  0  0  0
  5  1  1  0  0  0  0
  7  2  1  0  0  0  0
 10  3  1  0  0  0  0
 11  4  1  0  0  0  0
 14  5  1  0  0  0  0
 15 14  1  0  0  0  0
 16 14  1  0  0  0  0
 17 14  1  0  0  0  0
 19 18  2  0  0  0  0
 19 17  1  0  0  0  0
 20 21  1  0  0  0  0
 20 19  1  0  0  0  0
 22 19  1  0  0  0  0
 23 22  1  0  0  0  0
 24 26  1  0  0  0  0
 26 25  2  1  0  0  0
 26 29  1  0  0  0  0
 26 27  1  0  0  0  0
 28 27  1  0  0  0  0
 29 30  1  0  0  0  0
 30 35  1  0  0  0  0
 30 31  1  0  0  0  0
 32 30  1  0  0  0  0
 33 38  1  0  0  0  0
 34 33  2  0  0  0  0
 34 35  1  0  0  0  0
 35 36  2  0  0  0  0
 36 37  1  0  0  0  0
 37 41  1  0  0  0  0
 38 37  2  0  0  0  0
 39 33  1  0  0  0  0
 40 34  1  0  0  0  0
M  END
>  <minimizedAffinity>
-4.98603106

$$$$

 OpenBabel03252509343D

 41 42  0  0  1  0  0  0  0  0999 V2000
   37.0400   27.8330   39.7440 C   0  0  1  0  0  0  0  0  0  0  0  0
   36.0880   27.0650   38.8530 C   0  0  0  0  0  0  0  0  0  0  0  0
   36.9230   26.9520   37.5810 C   0  0  0  0  0  0  0  0  0  0  0  0
   37.8080   28.1750   37.5670 C   0  0  0  0  0  0  0  0  0  0  0  0
   37.4250   28.9590   38.8080 C   0  0  1  0  0  0  0  0  0  0  0  0
   37.9090   27.2120   39.9220 H   0  0  0  0  0  0  0  0  0  0  0  0
   35.1190   27.5620   38.6940 H   0  0  0  0  0  0  0  0  0  0  0  0
   35.8780   26.0400   39.1880 H   0  0  0  0  0  0  0  0  0  0  0  0
   37.6160   26.0740   37.7200 H   0  0  0  0  0  0  0  0  0  0  0  0
   36.2950   26.8420   36.6900 H   0  0  0  0  0  0  0  0  0  0  0  0
   37.4650   28.7960   36.6870 H   0  0  0  0  0  0  0  0  0  0  0  0
   38.8770   27.9490   37.5240 H   0  0  0  0  0  0  0  0  0  0  0  0
   38.2750   29.5130   39.2290 H   0  0  0  0  0  0  0  0  0  0  0  0
   36.3140   29.9330   38.5500 C   0  0  0  0  0  0  0  0  0  0  0  0
   35.7890   29.8070   37.6060 H   0  0  0  0  0  0  0  0  0  0  0  0
   35.5980   29.8390   39.3760 H   0  0  0  0  0  0  0  0  0  0  0  0
   36.9070   31.2140   38.5290 O   0  0  0  0  0  0  0  0  0  0  0  0
   38.4080   31.4800   40.7010 O   0  0  0  0  0  0  0  0  0  0  0  0
   37.0920   31.8330   40.0800 P   0  0  0  0  0  0  0  0  0  0  0  0
   36.9430   33.5230   40.1300 O   0  0  0  0  0  0  0  0  0  0  0  0
   36.5740   33.8690   39.2920 H   0  0  0  0  0  0  0  0  0  0  0  0
   35.8470   31.2070   41.0440 O   0  0  0  0  0  0  0  0  0  0  0  0
   35.9350   31.5110   41.9830 H   0  0  0  0  0  0  0  0  0  0  0  0
   36.4010   28.3120   40.8930 O   0  0  0  0  0  0  0  0  0  0  0  0
   38.8600   28.2730   41.6910 O   0  0  0  0  0  0  0  0  0  0  0  0
   37.4480   28.1700   42.1990 P   0  0  1  0  0  0  0  0  0  0  0  0
   37.1120   29.3280   43.3670 O   0  0  0  0  0  0  0  0  0  0  0  0
   36.2590   29.7770   43.3020 H   0  0  0  0  0  0  0  0  0  0  0  0
   37.2100   26.6760   42.9320 O   0  0  0  0  0  0  0  0  0  0  0  0
   38.2310   25.8460   42.5890 C   0  0  0  0  0  0  0  0  0  0  0  0
   39.2090   26.2800   42.4020 H   0  0  0  0  0  0  0  0  0  0  0  0
   38.3690   25.1530   43.4690 H   0  0  0  0  0  0  0  0  0  0  0  0
   38.5330   23.8680   39.4510 C   0  0  0  0  0  0  0  0  0  0  0  0
   38.8770   24.7060   40.5190 C   0  0  0  0  0  0  0  0  0  0  0  0
   37.8910   24.9670   41.4580 C   0  0  0  0  0  0  0  0  0  0  0  0
   36.6490   24.4040   41.3030 N   0  0  0  0  0  0  0  0  0  0  0  0
   36.3500   23.5990   40.2610 C   0  0  0  0  0  0  0  0  0  0  0  0
   37.2890   23.3390   39.3470 N   0  0  0  0  0  0  0  0  0  0  0  0
   39.2400   23.6120   38.6740 H   0  0  0  0  0  0  0  0  0  0  0  0
   39.8830   25.0970   40.5460 H   0  0  0  0  0  0  0  0  0  0  0  0
   35.3360   23.2210   40.2570 H   0  0  0  0  0  0  0  0  0  0  0  0
  1  6  1  1  0  0  0
  1 24  1  0  0  0  0
  2  8  1  0  0  0  0
  2  1  1  0  0  0  0
  3  9  1  0  0  0  0
  3  2  1  0  0  0  0
  4  3  1  0  0  0  0
  4  5  1  0  0  0  0
  5 13  1  1  0  0  0
  5  1  1  0  0  0  0
  7  2  1  0  0  0  0
 10  3  1  0  0  0  0
 11  4  1  0  0  0  0
 12  4  1  0  0  0  0
 14  5  1  0  0  0  0
 14 16  1  0  0  0  0
 15 14  1  0  0  0  0
 17 14  1  0  0  0  0
 17 19  1  0  0  0  0
 19 20  1  0  0  0  0
 19 18  2  0  0  0  0
 19 22  1  0  0  0  0
 21 20  1  0  0  0  0
 22 23  1  0  0  0  0
 24 26  1  0  0  0  0
 26 25  2  6  0  0  0
 26 29  1  0  0  0  0
 26 27  1  0  0  0  0
 28 27  1  0  0  0  0
 30 29  1  0  0  0  0
 30 32  1  0  0  0  0
 31 30  1  0  0  0  0
 33 34  1  0  0  0  0
 34 40  1  0  0  0  0
 34 35  2  0  0  0  0
 35 30  1  0  0  0  0
 36 35  1  0  0  0  0
 37 36  2  0  0  0  0
 38 33  2  0  0  0  0
 38 37  1  0  0  0  0
 39 33  1  0  0  0  0
 41 37  1  0  0  0  0
M  END
>  <minimizedAffinity>
-4.97388601

$$$$

 OpenBabel03252509343D

 41 42  0  0  1  0  0  0  0  0999 V2000
   36.4570   29.1990   40.3070 C   0  0  1  0  0  0  0  0  0  0  0  0
   34.9910   29.4370   40.0090 C   0  0  0  0  0  0  0  0  0  0  0  0
   34.8750   28.7830   38.6350 C   0  0  0  0  0  0  0  0  0  0  0  0
   36.2360   28.9280   37.9990 C   0  0  0  0  0  0  0  0  0  0  0  0
   37.0700   29.6890   39.0130 C   0  0  1  0  0  0  0  0  0  0  0  0
   36.6130   28.1310   40.3880 H   0  0  0  0  0  0  0  0  0  0  0  0
   34.6980   30.4980   40.0110 H   0  0  0  0  0  0  0  0  0  0  0  0
   34.3000   28.9050   40.6750 H   0  0  0  0  0  0  0  0  0  0  0  0
   34.7340   27.6780   38.8090 H   0  0  0  0  0  0  0  0  0  0  0  0
   34.0560   29.2130   38.0470 H   0  0  0  0  0  0  0  0  0  0  0  0
   36.0950   29.6270   37.1230 H   0  0  0  0  0  0  0  0  0  0  0  0
   36.6920   27.9790   37.7040 H   0  0  0  0  0  0  0  0  0  0  0  0
   38.1310   29.4020   38.9770 H   0  0  0  0  0  0  0  0  0  0  0  0
   36.9810   31.1750   38.8280 C   0  0  0  0  0  0  0  0  0  0  0  0
   36.4900   31.5050   37.9160 H   0  0  0  0  0  0  0  0  0  0  0  0
   36.4450   31.5800   39.6950 H   0  0  0  0  0  0  0  0  0  0  0  0
   38.3100   31.6480   38.7810 O   0  0  0  0  0  0  0  0  0  0  0  0
   39.6550   33.8090   39.5320 O   0  0  0  0  0  0  0  0  0  0  0  0
   38.5780   32.8460   39.9280 P   0  0  0  0  0  0  0  0  0  0  0  0
   37.1820   33.7540   40.2620 O   0  0  0  0  0  0  0  0  0  0  0  0
   36.3850   33.3220   39.8940 H   0  0  0  0  0  0  0  0  0  0  0  0
   39.0250   32.0920   41.3780 O   0  0  0  0  0  0  0  0  0  0  0  0
   39.2350   32.7600   42.0790 H   0  0  0  0  0  0  0  0  0  0  0  0
   36.8900   29.9530   41.4020 O   0  0  0  0  0  0  0  0  0  0  0  0
   38.8230   29.6640   43.0960 O   0  0  0  0  0  0  0  0  0  0  0  0
   37.6500   28.9330   42.5000 P   0  0  1  0  0  0  0  0  0  0  0  0
   36.5730   28.4050   43.6750 O   0  0  0  0  0  0  0  0  0  0  0  0
   35.6330   28.5250   43.4880 H   0  0  0  0  0  0  0  0  0  0  0  0
   38.1820   27.5580   41.6930 O   0  0  0  0  0  0  0  0  0  0  0  0
   37.7070   26.4560   42.3330 C   0  0  0  0  0  0  0  0  0  0  0  0
   38.2580   26.0770   43.1880 H   0  0  0  0  0  0  0  0  0  0  0  0
   36.6910   26.7480   42.7300 H   0  0  0  0  0  0  0  0  0  0  0  0
   36.5550   24.5280   39.3650 C   0  0  0  0  0  0  0  0  0  0  0  0
   36.7900   25.6080   40.2260 C   0  0  0  0  0  0  0  0  0  0  0  0
   37.4510   25.3350   41.4130 C   0  0  0  0  0  0  0  0  0  0  0  0
   37.8370   24.0470   41.6870 N   0  0  0  0  0  0  0  0  0  0  0  0
   37.5960   23.0280   40.8340 C   0  0  0  0  0  0  0  0  0  0  0  0
   36.9600   23.2740   39.6860 N   0  0  0  0  0  0  0  0  0  0  0  0
   36.0470   24.6500   38.4180 H   0  0  0  0  0  0  0  0  0  0  0  0
   36.4430   26.5810   39.9140 H   0  0  0  0  0  0  0  0  0  0  0  0
   37.9530   22.0630   41.1700 H   0  0  0  0  0  0  0  0  0  0  0  0
  1  6  1  1  0  0  0
  1 24  1  0  0  0  0
  2  7  1  0  0  0  0
  2  1  1  0  0  0  0
  2  8  1  0  0  0  0
  3  9  1  0  0  0  0
  3  2  1  0  0  0  0
  4  3  1  0  0  0  0
  4  5  1  0  0  0  0
  5 13  1  6  0  0  0
  5  1  1  0  0  0  0
 10  3  1  0  0  0  0
 11  4  1  0  0  0  0
 12  4  1  0  0  0  0
 14  5  1  0  0  0  0
 14 16  1  0  0  0  0
 15 14  1  0  0  0  0
 17 14  1  0  0  0  0
 17 19  1  0  0  0  0
 18 19  2  0  0  0  0
 19 20  1  0  0  0  0
 19 22  1  0  0  0  0
 21 20  1  0  0  0  0
 22 23  1  0  0  0  0
 24 26  1  0  0  0  0
 26 25  2  1  0  0  0
 26 27  1  0  0  0  0
 28 27  1  0  0  0  0
 29 30  1  0  0  0  0
 29 26  1  0  0  0  0
 30 32  1  0  0  0  0
 30 31  1  0  0  0  0
 33 38  2  0  0  0  0
 33 34  1  0  0  0  0
 34 35  2  0  0  0  0
 35 36  1  0  0  0  0
 35 30  1  0  0  0  0
 37 41  1  0  0  0  0
 37 36  2  0  0  0  0
 38 37  1  0  0  0  0
 39 33  1  0  0  0  0
 40 34  1  0  0  0  0
M  END
>  <minimizedAffinity>
-4.96416092

$$$$

 OpenBabel03252509343D

 41 42  0  0  1  0  0  0  0  0999 V2000
   38.5570   29.3120   41.4640 C   0  0  1  0  0  0  0  0  0  0  0  0
   38.8970   30.2930   42.5660 C   0  0  0  0  0  0  0  0  0  0  0  0
   40.4040   30.4310   42.3640 C   0  0  0  0  0  0  0  0  0  0  0  0
   40.8590   29.1090   41.7940 C   0  0  0  0  0  0  0  0  0  0  0  0
   39.6080   28.2540   41.7220 C   0  0  1  0  0  0  0  0  0  0  0  0
   38.7650   29.7890   40.5140 H   0  0  0  0  0  0  0  0  0  0  0  0
   38.6230   29.9510   43.5750 H   0  0  0  0  0  0  0  0  0  0  0  0
   38.4650   31.2940   42.4320 H   0  0  0  0  0  0  0  0  0  0  0  0
   40.5570   31.1880   41.5430 H   0  0  0  0  0  0  0  0  0  0  0  0
   40.9140   30.7200   43.2900 H   0  0  0  0  0  0  0  0  0  0  0  0
   41.5140   28.6390   42.5860 H   0  0  0  0  0  0  0  0  0  0  0  0
   41.3680   29.1940   40.8300 H   0  0  0  0  0  0  0  0  0  0  0  0
   39.6340   27.5480   40.8800 H   0  0  0  0  0  0  0  0  0  0  0  0
   39.3770   27.4700   42.9800 C   0  0  0  0  0  0  0  0  0  0  0  0
   39.9660   27.7800   43.8400 H   0  0  0  0  0  0  0  0  0  0  0  0
   38.3110   27.5520   43.2250 H   0  0  0  0  0  0  0  0  0  0  0  0
   39.7350   26.1370   42.6880 O   0  0  0  0  0  0  0  0  0  0  0  0
   38.4460   25.2340   40.5520 O   0  0  0  0  0  0  0  0  0  0  0  0
   38.4410   25.2780   42.0490 P   0  0  0  0  0  0  0  0  0  0  0  0
   38.3850   23.6730   42.6030 O   0  0  0  0  0  0  0  0  0  0  0  0
   38.9890   23.5420   43.3620 H   0  0  0  0  0  0  0  0  0  0  0  0
   37.0110   26.0210   42.5710 O   0  0  0  0  0  0  0  0  0  0  0  0
   36.2150   25.5740   42.1850 H   0  0  0  0  0  0  0  0  0  0  0  0
   37.2630   28.8020   41.6080 O   0  0  0  0  0  0  0  0  0  0  0  0
   35.0800   28.7810   40.2220 O   0  0  0  0  0  0  0  0  0  0  0  0
   36.2180   29.6780   40.6260 P   0  0  1  0  0  0  0  0  0  0  0  0
   35.6830   31.0650   41.4050 O   0  0  0  0  0  0  0  0  0  0  0  0
   36.1760   31.3420   42.1880 H   0  0  0  0  0  0  0  0  0  0  0  0
   37.0530   30.1940   39.2620 O   0  0  0  0  0  0  0  0  0  0  0  0
   36.8900   31.5370   39.1230 C   0  0  0  0  0  0  0  0  0  0  0  0
   36.4430   31.9120   38.2070 H   0  0  0  0  0  0  0  0  0  0  0  0
   36.1900   31.8470   39.9530 H   0  0  0  0  0  0  0  0  0  0  0  0
   39.2410   34.1610   40.3220 C   0  0  0  0  0  0  0  0  0  0  0  0
   38.0480   33.4630   40.0980 C   0  0  0  0  0  0  0  0  0  0  0  0
   38.1340   32.2870   39.3710 C   0  0  0  0  0  0  0  0  0  0  0  0
   39.3580   31.8670   38.9120 N   0  0  0  0  0  0  0  0  0  0  0  0
   40.4900   32.5630   39.1470 C   0  0  0  0  0  0  0  0  0  0  0  0
   40.4240   33.7000   39.8460 N   0  0  0  0  0  0  0  0  0  0  0  0
   39.2670   35.0880   40.8790 H   0  0  0  0  0  0  0  0  0  0  0  0
   37.1390   33.8820   40.5020 H   0  0  0  0  0  0  0  0  0  0  0  0
   41.3870   32.1230   38.7310 H   0  0  0  0  0  0  0  0  0  0  0  0
  1  6  1  6  0  0  0
  1 24  1  0  0  0  0
  1  5  1  0  0  0  0
  1  2  1  0  0  0  0
  2  7  1  0  0  0  0
  3  2  1  0  0  0  0
  3 10  1  0  0  0  0
  4  3  1  0  0  0  0
  4 11  1  0  0  0  0
  5 13  1  6  0  0  0
  5  4  1  0  0  0  0
  5 14  1  0  0  0  0
  8  2  1  0  0  0  0
  9  3  1  0  0  0  0
 12  4  1  0  0  0  0
 14 16  1  0  0  0  0
 14 15  1  0  0  0  0
 17 14  1  0  0  0  0
 18 19  2  0  0  0  0
 19 22  1  0  0  0  0
 19 20  1  0  0  0  0
 19 17  1  0  0  0  0
 20 21  1  0  0  0  0
 23 22  1  0  0  0  0
 26 25  2  6  0  0  0
 26 27  1  0  0  0  0
 26 24  1  0  0  0  0
 27 28  1  0  0  0  0
 29 26  1  0  0  0  0
 30 29  1  0  0  0  0
 30 35  1  0  0  0  0
 30 32  1  0  0  0  0
 31 30  1  0  0  0  0
 33 39  1  0  0  0  0
 34 33  1  0  0  0  0
 34 40  1  0  0  0  0
 35 34  2  0  0  0  0
 36 37  2  0  0  0  0
 36 35  1  0  0  0  0
 37 38  1  0  0  0  0
 38 33  2  0  0  0  0
 41 37  1  0  0  0  0
M  END
>  <minimizedAffinity>
-4.96050501

$$$$

 OpenBabel03252509343D

 41 42  0  0  1  0  0  0  0  0999 V2000
   37.2230   28.3750   39.9850 C   0  0  1  0  0  0  0  0  0  0  0  0
   38.2460   27.7650   39.0500 C   0  0  0  0  0  0  0  0  0  0  0  0
   37.4980   26.5170   38.5920 C   0  0  0  0  0  0  0  0  0  0  0  0
   36.5920   26.1420   39.7400 C   0  0  0  0  0  0  0  0  0  0  0  0
   36.8790   27.1640   40.8240 C   0  0  1  0  0  0  0  0  0  0  0  0
   36.3570   28.6540   39.3980 H   0  0  0  0  0  0  0  0  0  0  0  0
   39.2140   27.5420   39.5250 H   0  0  0  0  0  0  0  0  0  0  0  0
   38.4530   28.3610   38.1520 H   0  0  0  0  0  0  0  0  0  0  0  0
   36.8140   26.8340   37.7530 H   0  0  0  0  0  0  0  0  0  0  0  0
   38.1840   25.7210   38.2820 H   0  0  0  0  0  0  0  0  0  0  0  0
   36.9800   25.1550   40.1300 H   0  0  0  0  0  0  0  0  0  0  0  0
   35.5330   26.0960   39.4720 H   0  0  0  0  0  0  0  0  0  0  0  0
   35.9920   27.3800   41.4360 H   0  0  0  0  0  0  0  0  0  0  0  0
   37.9850   26.7320   41.7400 C   0  0  0  0  0  0  0  0  0  0  0  0
   38.9680   26.6510   41.2830 H   0  0  0  0  0  0  0  0  0  0  0  0
   38.0280   27.4550   42.5640 H   0  0  0  0  0  0  0  0  0  0  0  0
   37.6340   25.4460   42.2050 O   0  0  0  0  0  0  0  0  0  0  0  0
   39.8680   24.8210   40.9160 O   0  0  0  0  0  0  0  0  0  0  0  0
   38.8490   24.3270   41.8960 P   0  0  0  0  0  0  0  0  0  0  0  0
   39.6810   23.8620   43.3020 O   0  0  0  0  0  0  0  0  0  0  0  0
   39.2050   24.1550   44.1050 H   0  0  0  0  0  0  0  0  0  0  0  0
   38.1250   22.9270   41.2750 O   0  0  0  0  0  0  0  0  0  0  0  0
   38.8060   22.2480   41.0370 H   0  0  0  0  0  0  0  0  0  0  0  0
   37.7780   29.4000   40.7590 O   0  0  0  0  0  0  0  0  0  0  0  0
   36.6060   30.8740   38.9870 O   0  0  0  0  0  0  0  0  0  0  0  0
   36.9460   30.8270   40.4520 P   0  0  1  0  0  0  0  0  0  0  0  0
   35.5810   30.9490   41.4200 O   0  0  0  0  0  0  0  0  0  0  0  0
   35.5330   30.3550   42.1810 H   0  0  0  0  0  0  0  0  0  0  0  0
   37.9290   32.1300   40.8530 O   0  0  0  0  0  0  0  0  0  0  0  0
   38.5390   32.5900   39.7280 C   0  0  0  0  0  0  0  0  0  0  0  0
   38.4690   31.9950   38.8220 H   0  0  0  0  0  0  0  0  0  0  0  0
   38.0360   33.5710   39.4870 H   0  0  0  0  0  0  0  0  0  0  0  0
   41.9700   32.6140   41.1690 C   0  0  0  0  0  0  0  0  0  0  0  0
   40.6250   32.2770   40.9730 C   0  0  0  0  0  0  0  0  0  0  0  0
   39.9550   32.9290   39.9500 C   0  0  0  0  0  0  0  0  0  0  0  0
   40.6240   33.8560   39.1910 N   0  0  0  0  0  0  0  0  0  0  0  0
   41.9230   34.1580   39.4050 C   0  0  0  0  0  0  0  0  0  0  0  0
   42.5820   33.5380   40.3880 N   0  0  0  0  0  0  0  0  0  0  0  0
   42.5690   32.1550   41.9430 H   0  0  0  0  0  0  0  0  0  0  0  0
   40.1940   31.5350   41.6280 H   0  0  0  0  0  0  0  0  0  0  0  0
   42.3300   34.9040   38.7370 H   0  0  0  0  0  0  0  0  0  0  0  0
  1  6  1  6  0  0  0
  1 24  1  0  0  0  0
  1  5  1  0  0  0  0
  2  7  1  0  0  0  0
  2  1  1  0  0  0  0
  3  2  1  0  0  0  0
  3  4  1  0  0  0  0
  4 11  1  0  0  0  0
  4  5  1  0  0  0  0
  5 13  1  1  0  0  0
  5 14  1  0  0  0  0
  8  2  1  0  0  0  0
  9  3  1  0  0  0  0
 10  3  1  0  0  0  0
 12  4  1  0  0  0  0
 14 17  1  0  0  0  0
 14 16  1  0  0  0  0
 15 14  1  0  0  0  0
 18 19  2  0  0  0  0
 19 17  1  0  0  0  0
 19 20  1  0  0  0  0
 20 21  1  0  0  0  0
 22 19  1  0  0  0  0
 23 22  1  0  0  0  0
 26 25  2  6  0  0  0
 26 24  1  0  0  0  0
 26 29  1  0  0  0  0
 26 27  1  0  0  0  0
 27 28  1  0  0  0  0
 30 35  1  0  0  0  0
 30 29  1  0  0  0  0
 31 30  1  0  0  0  0
 32 30  1  0  0  0  0
 33 39  1  0  0  0  0
 34 33  1  0  0  0  0
 34 40  1  0  0  0  0
 35 34  2  0  0  0  0
 36 37  2  0  0  0  0
 36 35  1  0  0  0  0
 37 38  1  0  0  0  0
 38 33  2  0  0  0  0
 41 37  1  0  0  0  0
M  END
>  <minimizedAffinity>
-4.95100069

$$$$
