
 OpenBabel03252501533D

 19 19  0  0  0  0  0  0  0  0999 V2000
   45.0570   34.6810   45.1300 C   0  0  0  0  0  0  0  0  0  0  0  0
   45.5990   35.0630   43.8970 C   0  0  0  0  0  0  0  0  0  0  0  0
   46.7360   34.3750   43.4500 C   0  0  0  0  0  0  0  0  0  0  0  0
   47.2400   33.3940   44.2230 N   0  0  0  0  0  0  0  0  0  0  0  0
   46.6910   33.0550   45.4030 C   0  0  0  0  0  0  0  0  0  0  0  0
   45.5930   33.6890   45.8780 N   0  0  0  0  0  0  0  0  0  0  0  0
   44.1800   35.1510   45.5630 H   0  0  0  0  0  0  0  0  0  0  0  0
   47.2430   32.2430   45.8710 H   0  0  0  0  0  0  0  0  0  0  0  0
   44.9080   36.1680   43.1830 C   0  0  0  0  0  0  0  0  0  0  0  0
   45.1230   36.1830   42.0950 H   0  0  0  0  0  0  0  0  0  0  0  0
   45.2160   37.1310   43.6700 H   0  0  0  0  0  0  0  0  0  0  0  0
   43.8150   36.0980   43.3970 H   0  0  0  0  0  0  0  0  0  0  0  0
   47.1960   34.8170   42.2370 O   0  0  0  0  0  0  0  0  0  0  0  0
   49.2100   33.4870   41.2000 O   0  0  0  0  0  0  0  0  0  0  0  0
   48.8440   34.8210   41.7870 P   0  0  0  0  0  0  0  0  0  0  0  0
   49.7660   35.1260   43.1810 O   0  0  0  0  0  0  0  0  0  0  0  0
   49.9370   34.2770   43.6590 H   0  0  0  0  0  0  0  0  0  0  0  0
   49.2270   36.0160   40.6720 O   0  0  0  0  0  0  0  0  0  0  0  0
   48.8350   35.8750   39.7680 H   0  0  0  0  0  0  0  0  0  0  0  0
  1  7  1  0  0  0  0
  1  6  1  0  0  0  0
  2  1  2  0  0  0  0
  3  2  1  0  0  0  0
  3  4  2  0  0  0  0
  4  5  1  0  0  0  0
  5  8  1  0  0  0  0
  5  6  2  0  0  0  0
  9 12  1  0  0  0  0
  9 11  1  0  0  0  0
  9  2  1  0  0  0  0
 10  9  1  0  0  0  0
 13  3  1  0  0  0  0
 14 15  2  0  0  0  0
 15 13  1  0  0  0  0
 15 16  1  0  0  0  0
 16 17  1  0  0  0  0
 18 15  1  0  0  0  0
 19 18  1  0  0  0  0
M  END
>  <minimizedAffinity>
-4.58397388

>  <minimizedRMSD>
2.05490828

$$$$
