
 OpenBabel03252504483D

 22 22  0  0  0  0  0  0  0  0999 V2000
   45.2840   35.1150   44.0170 C   0  0  0  0  0  0  0  0  0  0  0  0
   46.3620   34.5940   43.3060 C   0  0  0  0  0  0  0  0  0  0  0  0
   47.0930   33.5720   43.9120 C   0  0  0  0  0  0  0  0  0  0  0  0
   46.7210   33.1410   45.1450 N   0  0  0  0  0  0  0  0  0  0  0  0
   45.6650   33.6740   45.8060 C   0  0  0  0  0  0  0  0  0  0  0  0
   44.9500   34.6570   45.2420 N   0  0  0  0  0  0  0  0  0  0  0  0
   44.7080   35.9110   43.5600 H   0  0  0  0  0  0  0  0  0  0  0  0
   47.9360   33.1300   43.4110 H   0  0  0  0  0  0  0  0  0  0  0  0
   46.6770   35.1170   41.9990 C   0  0  0  0  0  0  0  0  0  0  0  0
   46.3900   34.3220   41.2500 H   0  0  0  0  0  0  0  0  0  0  0  0
   46.1550   36.0610   41.8080 H   0  0  0  0  0  0  0  0  0  0  0  0
   48.1830   35.2450   41.8580 C   0  0  0  0  0  0  0  0  0  0  0  0
   48.5510   34.9630   40.8520 H   0  0  0  0  0  0  0  0  0  0  0  0
   48.7120   34.7360   42.6700 H   0  0  0  0  0  0  0  0  0  0  0  0
   48.4280   36.3310   41.9690 H   0  0  0  0  0  0  0  0  0  0  0  0
   45.3000   33.2250   47.0570 O   0  0  0  0  0  0  0  0  0  0  0  0
   45.6160   32.0640   49.3630 O   0  0  0  0  0  0  0  0  0  0  0  0
   46.2780   32.2040   48.0130 P   0  0  0  0  0  0  0  0  0  0  0  0
   46.4030   30.6390   47.3380 O   0  0  0  0  0  0  0  0  0  0  0  0
   47.3630   30.3570   47.4160 H   0  0  0  0  0  0  0  0  0  0  0  0
   47.7970   32.8960   48.1220 O   0  0  0  0  0  0  0  0  0  0  0  0
   48.4630   32.3650   48.5940 H   0  0  0  0  0  0  0  0  0  0  0  0
  1  6  1  0  0  0  0
  2  3  1  0  0  0  0
  2  1  2  0  0  0  0
  3  4  2  0  0  0  0
  4  5  1  0  0  0  0
  5 16  1  0  0  0  0
  6  5  2  0  0  0  0
  7  1  1  0  0  0  0
  8  3  1  0  0  0  0
  9  2  1  0  0  0  0
 10  9  1  0  0  0  0
 11  9  1  0  0  0  0
 12 15  1  0  0  0  0
 12  9  1  0  0  0  0
 12 14  1  0  0  0  0
 13 12  1  0  0  0  0
 16 18  1  0  0  0  0
 18 21  1  0  0  0  0
 18 17  2  0  0  0  0
 19 20  1  0  0  0  0
 19 18  1  0  0  0  0
 21 22  1  0  0  0  0
M  END
>  <minimizedAffinity>
-4.41081715

>  <minimizedRMSD>
0.622923672

$$$$
