
 OpenBabel03252508223D

 32 33  0  0  0  0  0  0  0  0999 V2000
   36.6510   29.2760   40.6920 C   0  0  0  0  0  0  0  0  0  0  0  0
   35.9240   28.3610   39.9790 C   0  0  0  0  0  0  0  0  0  0  0  0
   35.4980   28.4750   38.6630 C   0  0  0  0  0  0  0  0  0  0  0  0
   35.8900   29.6860   38.0520 C   0  0  0  0  0  0  0  0  0  0  0  0
   36.6230   30.6400   38.7220 C   0  0  0  0  0  0  0  0  0  0  0  0
   36.9980   30.4400   40.0200 C   0  0  0  0  0  0  0  0  0  0  0  0
   35.6370   27.4350   40.4820 H   0  0  0  0  0  0  0  0  0  0  0  0
   34.9300   27.7090   38.1810 H   0  0  0  0  0  0  0  0  0  0  0  0
   35.5570   29.7830   37.0100 H   0  0  0  0  0  0  0  0  0  0  0  0
   36.8740   31.5360   38.1650 H   0  0  0  0  0  0  0  0  0  0  0  0
   37.0730   29.1020   42.0800 C   0  0  0  0  0  0  0  0  0  0  0  0
   38.1610   29.2440   42.2330 H   0  0  0  0  0  0  0  0  0  0  0  0
   36.5800   29.9120   42.6820 H   0  0  0  0  0  0  0  0  0  0  0  0
   36.5800   27.7950   42.6590 C   0  0  0  0  0  0  0  0  0  0  0  0
   36.1220   27.9990   43.6360 H   0  0  0  0  0  0  0  0  0  0  0  0
   35.8860   27.2640   41.9650 H   0  0  0  0  0  0  0  0  0  0  0  0
   39.9750   26.4860   43.6770 C   0  0  0  0  0  0  0  0  0  0  0  0
   38.8770   27.3820   43.5290 C   0  0  0  0  0  0  0  0  0  0  0  0
   37.7500   26.9050   42.8420 C   0  0  0  0  0  0  0  0  0  0  0  0
   37.7810   25.6080   42.3610 N   0  0  0  0  0  0  0  0  0  0  0  0
   38.8380   24.8260   42.5350 C   0  0  0  0  0  0  0  0  0  0  0  0
   39.9420   25.2460   43.1890 N   0  0  0  0  0  0  0  0  0  0  0  0
   40.7750   26.9560   44.2160 H   0  0  0  0  0  0  0  0  0  0  0  0
   38.8620   28.3800   43.9040 H   0  0  0  0  0  0  0  0  0  0  0  0
   38.8650   23.8070   42.1570 H   0  0  0  0  0  0  0  0  0  0  0  0
   37.7370   31.3990   40.7020 O   0  0  0  0  0  0  0  0  0  0  0  0
   39.3250   32.7480   39.1440 O   0  0  0  0  0  0  0  0  0  0  0  0
   38.1780   32.9190   40.1140 P   0  0  0  0  0  0  0  0  0  0  0  0
   36.9350   33.7870   39.4110 O   0  0  0  0  0  0  0  0  0  0  0  0
   36.0410   33.4740   39.6260 H   0  0  0  0  0  0  0  0  0  0  0  0
   38.8060   33.8000   41.4400 O   0  0  0  0  0  0  0  0  0  0  0  0
   38.3100   33.5130   42.2510 H   0  0  0  0  0  0  0  0  0  0  0  0
  1 11  1  0  0  0  0
  2  7  1  0  0  0  0
  2  1  2  0  0  0  0
  3  2  1  0  0  0  0
  4  3  2  0  0  0  0
  4  5  1  0  0  0  0
  5  6  2  0  0  0  0
  6  1  1  0  0  0  0
  6 26  1  0  0  0  0
  8  3  1  0  0  0  0
  9  4  1  0  0  0  0
 10  5  1  0  0  0  0
 11 12  1  0  0  0  0
 11 14  1  0  0  0  0
 11 13  1  0  0  0  0
 14 19  1  0  0  0  0
 14 15  1  0  0  0  0
 16 14  1  0  0  0  0
 17 23  1  0  0  0  0
 18 17  1  0  0  0  0
 18 24  1  0  0  0  0
 19 18  2  0  0  0  0
 20 21  2  0  0  0  0
 20 19  1  0  0  0  0
 21 22  1  0  0  0  0
 22 17  2  0  0  0  0
 25 21  1  0  0  0  0
 27 28  2  0  0  0  0
 28 26  1  0  0  0  0
 28 31  1  0  0  0  0
 29 30  1  0  0  0  0
 29 28  1  0  0  0  0
 31 32  1  0  0  0  0
M  END
>  <minimizedAffinity>
-5.42904568

$$$$

 OpenBabel03252508223D

 32 33  0  0  0  0  0  0  0  0999 V2000
   37.0170   26.6050   41.9920 C   0  0  0  0  0  0  0  0  0  0  0  0
   36.9150   25.2400   41.9550 C   0  0  0  0  0  0  0  0  0  0  0  0
   36.6470   24.4520   40.8440 C   0  0  0  0  0  0  0  0  0  0  0  0
   36.4740   25.1990   39.6580 C   0  0  0  0  0  0  0  0  0  0  0  0
   36.5660   26.5720   39.6380 C   0  0  0  0  0  0  0  0  0  0  0  0
   36.8340   27.2650   40.7840 C   0  0  0  0  0  0  0  0  0  0  0  0
   37.0540   24.6940   42.8900 H   0  0  0  0  0  0  0  0  0  0  0  0
   36.5840   23.3870   40.9050 H   0  0  0  0  0  0  0  0  0  0  0  0
   36.2620   24.5810   38.7750 H   0  0  0  0  0  0  0  0  0  0  0  0
   36.4170   27.0520   38.6780 H   0  0  0  0  0  0  0  0  0  0  0  0
   37.3010   27.3850   43.1930 C   0  0  0  0  0  0  0  0  0  0  0  0
   36.9890   28.4450   43.1170 H   0  0  0  0  0  0  0  0  0  0  0  0
   36.6820   26.9530   44.0250 H   0  0  0  0  0  0  0  0  0  0  0  0
   38.7420   27.2430   43.6300 C   0  0  0  0  0  0  0  0  0  0  0  0
   38.7740   27.2490   44.7280 H   0  0  0  0  0  0  0  0  0  0  0  0
   39.2240   26.3360   43.1950 H   0  0  0  0  0  0  0  0  0  0  0  0
   41.4990   29.3820   42.1820 C   0  0  0  0  0  0  0  0  0  0  0  0
   40.8180   28.2310   42.6730 C   0  0  0  0  0  0  0  0  0  0  0  0
   39.4950   28.4070   43.1100 C   0  0  0  0  0  0  0  0  0  0  0  0
   38.9490   29.6750   43.0340 N   0  0  0  0  0  0  0  0  0  0  0  0
   39.6400   30.7050   42.5650 C   0  0  0  0  0  0  0  0  0  0  0  0
   40.9130   30.5790   42.1360 N   0  0  0  0  0  0  0  0  0  0  0  0
   42.4960   29.1290   41.8780 H   0  0  0  0  0  0  0  0  0  0  0  0
   41.2480   27.2570   42.7270 H   0  0  0  0  0  0  0  0  0  0  0  0
   39.2120   31.7030   42.5050 H   0  0  0  0  0  0  0  0  0  0  0  0
   36.9290   28.6510   40.7700 O   0  0  0  0  0  0  0  0  0  0  0  0
   36.1170   30.3050   38.9330 O   0  0  0  0  0  0  0  0  0  0  0  0
   35.7250   29.7260   40.2730 P   0  0  0  0  0  0  0  0  0  0  0  0
   34.1870   29.0750   40.2070 O   0  0  0  0  0  0  0  0  0  0  0  0
   34.0710   28.2430   40.6940 H   0  0  0  0  0  0  0  0  0  0  0  0
   35.7400   31.0330   41.3770 O   0  0  0  0  0  0  0  0  0  0  0  0
   35.9880   30.6700   42.2680 H   0  0  0  0  0  0  0  0  0  0  0  0
  1 11  1  0  0  0  0
  2  1  1  0  0  0  0
  2  7  1  0  0  0  0
  3  8  1  0  0  0  0
  3  2  2  0  0  0  0
  4  3  1  0  0  0  0
  5  4  2  0  0  0  0
  5  6  1  0  0  0  0
  6  1  2  0  0  0  0
  9  4  1  0  0  0  0
 10  5  1  0  0  0  0
 11 14  1  0  0  0  0
 11 13  1  0  0  0  0
 12 11  1  0  0  0  0
 14 15  1  0  0  0  0
 16 14  1  0  0  0  0
 17 18  1  0  0  0  0
 18 24  1  0  0  0  0
 18 19  2  0  0  0  0
 19 14  1  0  0  0  0
 20 19  1  0  0  0  0
 21 20  2  0  0  0  0
 22 17  2  0  0  0  0
 22 21  1  0  0  0  0
 23 17  1  0  0  0  0
 25 21  1  0  0  0  0
 26  6  1  0  0  0  0
 27 28  2  0  0  0  0
 28 26  1  0  0  0  0
 28 31  1  0  0  0  0
 29 28  1  0  0  0  0
 29 30  1  0  0  0  0
 31 32  1  0  0  0  0
M  END
>  <minimizedAffinity>
-5.42811298

$$$$

 OpenBabel03252508223D

 32 33  0  0  0  0  0  0  0  0999 V2000
   36.4500   30.4410   39.2250 C   0  0  0  0  0  0  0  0  0  0  0  0
   36.2240   29.4870   38.2690 C   0  0  0  0  0  0  0  0  0  0  0  0
   36.6380   29.5180   36.9440 C   0  0  0  0  0  0  0  0  0  0  0  0
   37.3640   30.6830   36.6120 C   0  0  0  0  0  0  0  0  0  0  0  0
   37.6200   31.6730   37.5340 C   0  0  0  0  0  0  0  0  0  0  0  0
   37.1720   31.5560   38.8190 C   0  0  0  0  0  0  0  0  0  0  0  0
   35.6600   28.6000   38.5590 H   0  0  0  0  0  0  0  0  0  0  0  0
   36.4170   28.7260   36.2610 H   0  0  0  0  0  0  0  0  0  0  0  0
   37.6940   30.7140   35.5650 H   0  0  0  0  0  0  0  0  0  0  0  0
   38.1850   32.5280   37.1810 H   0  0  0  0  0  0  0  0  0  0  0  0
   35.9890   30.3560   40.6080 C   0  0  0  0  0  0  0  0  0  0  0  0
   36.6450   30.8860   41.3270 H   0  0  0  0  0  0  0  0  0  0  0  0
   35.0000   30.8850   40.6640 H   0  0  0  0  0  0  0  0  0  0  0  0
   35.7200   28.9280   41.0250 C   0  0  0  0  0  0  0  0  0  0  0  0
   34.8160   28.9130   41.6480 H   0  0  0  0  0  0  0  0  0  0  0  0
   35.6460   28.2410   40.1490 H   0  0  0  0  0  0  0  0  0  0  0  0
   38.1380   26.6910   42.8760 C   0  0  0  0  0  0  0  0  0  0  0  0
   37.0100   27.0890   42.1020 C   0  0  0  0  0  0  0  0  0  0  0  0
   36.8750   28.4590   41.8250 C   0  0  0  0  0  0  0  0  0  0  0  0
   37.8380   29.3200   42.3190 N   0  0  0  0  0  0  0  0  0  0  0  0
   38.8660   28.8810   43.0340 C   0  0  0  0  0  0  0  0  0  0  0  0
   39.0320   27.5730   43.3220 N   0  0  0  0  0  0  0  0  0  0  0  0
   38.1370   25.6270   43.0230 H   0  0  0  0  0  0  0  0  0  0  0  0
   36.2730   26.4170   41.7260 H   0  0  0  0  0  0  0  0  0  0  0  0
   39.6230   29.5560   43.4230 H   0  0  0  0  0  0  0  0  0  0  0  0
   37.4270   32.5510   39.7540 O   0  0  0  0  0  0  0  0  0  0  0  0
   39.6760   31.8760   40.8730 O   0  0  0  0  0  0  0  0  0  0  0  0
   38.9490   33.0590   40.2770 P   0  0  0  0  0  0  0  0  0  0  0  0
   39.8850   33.7950   39.1030 O   0  0  0  0  0  0  0  0  0  0  0  0
   39.3980   34.0980   38.3180 H   0  0  0  0  0  0  0  0  0  0  0  0
   38.6910   34.1570   41.5650 O   0  0  0  0  0  0  0  0  0  0  0  0
   37.8490   34.6480   41.3750 H   0  0  0  0  0  0  0  0  0  0  0  0
  1 11  1  0  0  0  0
  2  7  1  0  0  0  0
  2  1  2  0  0  0  0
  3  2  1  0  0  0  0
  4  3  2  0  0  0  0
  4  5  1  0  0  0  0
  5  6  2  0  0  0  0
  6  1  1  0  0  0  0
  6 26  1  0  0  0  0
  8  3  1  0  0  0  0
  9  4  1  0  0  0  0
 10  5  1  0  0  0  0
 11 13  1  0  0  0  0
 11 14  1  0  0  0  0
 11 12  1  0  0  0  0
 14 15  1  0  0  0  0
 14 19  1  0  0  0  0
 16 14  1  0  0  0  0
 17 23  1  0  0  0  0
 17 22  1  0  0  0  0
 18 17  2  0  0  0  0
 19 18  1  0  0  0  0
 19 20  2  0  0  0  0
 20 21  1  0  0  0  0
 21 22  2  0  0  0  0
 21 25  1  0  0  0  0
 24 18  1  0  0  0  0
 26 28  1  0  0  0  0
 28 27  2  0  0  0  0
 28 31  1  0  0  0  0
 29 28  1  0  0  0  0
 30 29  1  0  0  0  0
 32 31  1  0  0  0  0
M  END
>  <minimizedAffinity>
-5.40712261

$$$$

 OpenBabel03252508223D

 32 33  0  0  0  0  0  0  0  0999 V2000
   38.3960   26.2280   42.8280 C   0  0  0  0  0  0  0  0  0  0  0  0
   37.2560   25.9930   42.1060 C   0  0  0  0  0  0  0  0  0  0  0  0
   36.9290   24.8350   41.4150 C   0  0  0  0  0  0  0  0  0  0  0  0
   37.9190   23.8310   41.5060 C   0  0  0  0  0  0  0  0  0  0  0  0
   39.0830   24.0140   42.2180 C   0  0  0  0  0  0  0  0  0  0  0  0
   39.3190   25.1910   42.8690 C   0  0  0  0  0  0  0  0  0  0  0  0
   36.5130   26.7910   42.0570 H   0  0  0  0  0  0  0  0  0  0  0  0
   36.0130   24.7350   40.8740 H   0  0  0  0  0  0  0  0  0  0  0  0
   37.6660   22.9120   40.9610 H   0  0  0  0  0  0  0  0  0  0  0  0
   39.7790   23.1830   42.2270 H   0  0  0  0  0  0  0  0  0  0  0  0
   38.6890   27.4700   43.5370 C   0  0  0  0  0  0  0  0  0  0  0  0
   39.0900   27.3130   44.5580 H   0  0  0  0  0  0  0  0  0  0  0  0
   39.5080   27.9920   42.9740 H   0  0  0  0  0  0  0  0  0  0  0  0
   37.5090   28.4170   43.5270 C   0  0  0  0  0  0  0  0  0  0  0  0
   36.6300   27.8710   43.1590 H   0  0  0  0  0  0  0  0  0  0  0  0
   37.3350   28.8820   44.5260 H   0  0  0  0  0  0  0  0  0  0  0  0
   39.3500   31.1650   41.7020 C   0  0  0  0  0  0  0  0  0  0  0  0
   39.1030   30.1000   42.6150 C   0  0  0  0  0  0  0  0  0  0  0  0
   37.8210   29.5270   42.5980 C   0  0  0  0  0  0  0  0  0  0  0  0
   36.8940   30.0340   41.7040 N   0  0  0  0  0  0  0  0  0  0  0  0
   37.1920   31.0290   40.8800 C   0  0  0  0  0  0  0  0  0  0  0  0
   38.4120   31.6070   40.8640 N   0  0  0  0  0  0  0  0  0  0  0  0
   40.3580   31.5220   41.8030 H   0  0  0  0  0  0  0  0  0  0  0  0
   39.8240   29.7170   43.3000 H   0  0  0  0  0  0  0  0  0  0  0  0
   36.4650   31.4280   40.1770 H   0  0  0  0  0  0  0  0  0  0  0  0
   40.4910   25.3820   43.5890 O   0  0  0  0  0  0  0  0  0  0  0  0
   42.4090   27.0820   43.1440 O   0  0  0  0  0  0  0  0  0  0  0  0
   42.0290   25.6340   42.9390 P   0  0  0  0  0  0  0  0  0  0  0  0
   43.2180   24.6220   43.5360 O   0  0  0  0  0  0  0  0  0  0  0  0
   42.8920   23.8290   43.9930 H   0  0  0  0  0  0  0  0  0  0  0  0
   41.8940   25.4130   41.2470 O   0  0  0  0  0  0  0  0  0  0  0  0
   41.2070   24.7140   41.0910 H   0  0  0  0  0  0  0  0  0  0  0  0
  1  6  1  0  0  0  0
  1 11  1  0  0  0  0
  2  1  2  0  0  0  0
  3  4  2  0  0  0  0
  3  2  1  0  0  0  0
  4  5  1  0  0  0  0
  5 10  1  0  0  0  0
  5  6  2  0  0  0  0
  6 26  1  0  0  0  0
  7  2  1  0  0  0  0
  8  3  1  0  0  0  0
  9  4  1  0  0  0  0
 11 12  1  0  0  0  0
 13 11  1  0  0  0  0
 14 11  1  0  0  0  0
 14 16  1  0  0  0  0
 15 14  1  0  0  0  0
 17 23  1  0  0  0  0
 17 18  1  0  0  0  0
 18 24  1  0  0  0  0
 19 18  2  0  0  0  0
 19 14  1  0  0  0  0
 20 19  1  0  0  0  0
 21 20  2  0  0  0  0
 22 21  1  0  0  0  0
 22 17  2  0  0  0  0
 25 21  1  0  0  0  0
 28 27  2  0  0  0  0
 28 29  1  0  0  0  0
 28 26  1  0  0  0  0
 29 30  1  0  0  0  0
 31 28  1  0  0  0  0
 32 31  1  0  0  0  0
M  END
>  <minimizedAffinity>
-5.40311432

$$$$

 OpenBabel03252508223D

 32 33  0  0  0  0  0  0  0  0999 V2000
   36.1540   29.9910   39.0310 C   0  0  0  0  0  0  0  0  0  0  0  0
   35.4070   29.4480   38.0200 C   0  0  0  0  0  0  0  0  0  0  0  0
   35.7370   29.3950   36.6730 C   0  0  0  0  0  0  0  0  0  0  0  0
   36.9890   29.9800   36.3810 C   0  0  0  0  0  0  0  0  0  0  0  0
   37.7810   30.5400   37.3590 C   0  0  0  0  0  0  0  0  0  0  0  0
   37.3720   30.5460   38.6620 C   0  0  0  0  0  0  0  0  0  0  0  0
   34.4450   29.0040   38.2810 H   0  0  0  0  0  0  0  0  0  0  0  0
   35.0920   28.9500   35.9460 H   0  0  0  0  0  0  0  0  0  0  0  0
   37.2570   29.9420   35.3170 H   0  0  0  0  0  0  0  0  0  0  0  0
   38.7240   30.9640   37.0330 H   0  0  0  0  0  0  0  0  0  0  0  0
   35.7550   30.0190   40.4360 C   0  0  0  0  0  0  0  0  0  0  0  0
   36.4280   30.6250   41.0750 H   0  0  0  0  0  0  0  0  0  0  0  0
   34.7560   30.5300   40.4890 H   0  0  0  0  0  0  0  0  0  0  0  0
   35.5410   28.6280   40.9880 C   0  0  0  0  0  0  0  0  0  0  0  0
   34.6550   28.6450   41.6380 H   0  0  0  0  0  0  0  0  0  0  0  0
   35.4620   27.8630   40.1800 H   0  0  0  0  0  0  0  0  0  0  0  0
   38.5730   28.8680   43.2290 C   0  0  0  0  0  0  0  0  0  0  0  0
   37.4350   29.2710   42.4710 C   0  0  0  0  0  0  0  0  0  0  0  0
   36.7310   28.2650   41.7910 C   0  0  0  0  0  0  0  0  0  0  0  0
   37.1860   26.9630   41.9030 N   0  0  0  0  0  0  0  0  0  0  0  0
   38.2540   26.6580   42.6270 C   0  0  0  0  0  0  0  0  0  0  0  0
   38.9590   27.5940   43.2960 N   0  0  0  0  0  0  0  0  0  0  0  0
   39.0290   29.7170   43.7030 H   0  0  0  0  0  0  0  0  0  0  0  0
   37.0930   30.2770   42.3920 H   0  0  0  0  0  0  0  0  0  0  0  0
   38.6130   25.6350   42.7160 H   0  0  0  0  0  0  0  0  0  0  0  0
   38.1660   31.1100   39.6530 O   0  0  0  0  0  0  0  0  0  0  0  0
   38.9560   32.9560   41.3070 O   0  0  0  0  0  0  0  0  0  0  0  0
   38.4170   32.7590   39.9080 P   0  0  0  0  0  0  0  0  0  0  0  0
   39.4090   33.5000   38.7850 O   0  0  0  0  0  0  0  0  0  0  0  0
   39.5410   33.0030   37.9610 H   0  0  0  0  0  0  0  0  0  0  0  0
   36.8770   33.5060   39.8830 O   0  0  0  0  0  0  0  0  0  0  0  0
   36.3130   33.0060   39.2370 H   0  0  0  0  0  0  0  0  0  0  0  0
  1 11  1  0  0  0  0
  2  7  1  0  0  0  0
  2  1  2  0  0  0  0
  3  2  1  0  0  0  0
  4  3  2  0  0  0  0
  4  5  1  0  0  0  0
  5  6  2  0  0  0  0
  6  1  1  0  0  0  0
  6 26  1  0  0  0  0
  8  3  1  0  0  0  0
  9  4  1  0  0  0  0
 10  5  1  0  0  0  0
 11 13  1  0  0  0  0
 11 14  1  0  0  0  0
 11 12  1  0  0  0  0
 14 15  1  0  0  0  0
 14 19  1  0  0  0  0
 16 14  1  0  0  0  0
 17 22  1  0  0  0  0
 17 23  1  0  0  0  0
 18 17  2  0  0  0  0
 19 20  2  0  0  0  0
 19 18  1  0  0  0  0
 20 21  1  0  0  0  0
 21 25  1  0  0  0  0
 21 22  2  0  0  0  0
 24 18  1  0  0  0  0
 26 28  1  0  0  0  0
 28 27  2  0  0  0  0
 29 28  1  0  0  0  0
 30 29  1  0  0  0  0
 31 28  1  0  0  0  0
 32 31  1  0  0  0  0
M  END
>  <minimizedAffinity>
-5.17953157

$$$$

 OpenBabel03252508223D

 32 33  0  0  0  0  0  0  0  0999 V2000
   39.0310   28.8390   42.7080 C   0  0  0  0  0  0  0  0  0  0  0  0
   39.6530   27.6600   43.0180 C   0  0  0  0  0  0  0  0  0  0  0  0
   39.0610   26.4100   43.1390 C   0  0  0  0  0  0  0  0  0  0  0  0
   37.6690   26.4260   42.9050 C   0  0  0  0  0  0  0  0  0  0  0  0
   36.9930   27.5830   42.5900 C   0  0  0  0  0  0  0  0  0  0  0  0
   37.6610   28.7700   42.4910 C   0  0  0  0  0  0  0  0  0  0  0  0
   40.7300   27.6830   43.1930 H   0  0  0  0  0  0  0  0  0  0  0  0
   39.6240   25.5360   43.3870 H   0  0  0  0  0  0  0  0  0  0  0  0
   37.1940   25.4400   43.0000 H   0  0  0  0  0  0  0  0  0  0  0  0
   35.9250   27.4910   42.4290 H   0  0  0  0  0  0  0  0  0  0  0  0
   39.7060   30.1290   42.5930 C   0  0  0  0  0  0  0  0  0  0  0  0
   39.0310   30.9960   42.7340 H   0  0  0  0  0  0  0  0  0  0  0  0
   40.4490   30.1930   43.4320 H   0  0  0  0  0  0  0  0  0  0  0  0
   40.5100   30.2330   41.3160 C   0  0  0  0  0  0  0  0  0  0  0  0
   41.5690   30.0660   41.5590 H   0  0  0  0  0  0  0  0  0  0  0  0
   40.1380   29.5360   40.5280 H   0  0  0  0  0  0  0  0  0  0  0  0
   40.9760   33.3680   39.2600 C   0  0  0  0  0  0  0  0  0  0  0  0
   41.1810   32.0430   39.7430 C   0  0  0  0  0  0  0  0  0  0  0  0
   40.3400   31.6010   40.7770 C   0  0  0  0  0  0  0  0  0  0  0  0
   39.3780   32.4750   41.2520 N   0  0  0  0  0  0  0  0  0  0  0  0
   39.2420   33.6970   40.7550 C   0  0  0  0  0  0  0  0  0  0  0  0
   40.0290   34.1610   39.7620 N   0  0  0  0  0  0  0  0  0  0  0  0
   41.6720   33.5950   38.4760 H   0  0  0  0  0  0  0  0  0  0  0  0
   41.9260   31.3770   39.3710 H   0  0  0  0  0  0  0  0  0  0  0  0
   38.4870   34.3850   41.1270 H   0  0  0  0  0  0  0  0  0  0  0  0
   36.9850   29.9420   42.1730 O   0  0  0  0  0  0  0  0  0  0  0  0
   37.2700   29.8340   39.5900 O   0  0  0  0  0  0  0  0  0  0  0  0
   36.3370   30.3380   40.6660 P   0  0  0  0  0  0  0  0  0  0  0  0
   34.7810   29.7860   40.4040 O   0  0  0  0  0  0  0  0  0  0  0  0
   34.2970   29.5220   41.2040 H   0  0  0  0  0  0  0  0  0  0  0  0
   36.3580   32.0460   40.5510 O   0  0  0  0  0  0  0  0  0  0  0  0
   36.2070   32.4090   41.4620 H   0  0  0  0  0  0  0  0  0  0  0  0
  1  2  1  0  0  0  0
  2  3  2  0  0  0  0
  2  7  1  0  0  0  0
  3  8  1  0  0  0  0
  4  9  1  0  0  0  0
  4  3  1  0  0  0  0
  5  4  2  0  0  0  0
  6  5  1  0  0  0  0
  6  1  2  0  0  0  0
 10  5  1  0  0  0  0
 11  1  1  0  0  0  0
 11 12  1  0  0  0  0
 11 13  1  0  0  0  0
 14 15  1  0  0  0  0
 14 11  1  0  0  0  0
 16 14  1  0  0  0  0
 17 18  2  0  0  0  0
 17 22  1  0  0  0  0
 18 19  1  0  0  0  0
 19 20  2  0  0  0  0
 19 14  1  0  0  0  0
 21 25  1  0  0  0  0
 21 20  1  0  0  0  0
 22 21  2  0  0  0  0
 23 17  1  0  0  0  0
 24 18  1  0  0  0  0
 26  6  1  0  0  0  0
 27 28  2  0  0  0  0
 28 26  1  0  0  0  0
 29 28  1  0  0  0  0
 29 30  1  0  0  0  0
 31 28  1  0  0  0  0
 31 32  1  0  0  0  0
M  END
>  <minimizedAffinity>
-5.10578251

$$$$

 OpenBabel03252508223D

 32 33  0  0  0  0  0  0  0  0999 V2000
   36.3960   29.5350   37.4440 C   0  0  0  0  0  0  0  0  0  0  0  0
   35.4360   29.4300   36.4730 C   0  0  0  0  0  0  0  0  0  0  0  0
   34.1430   28.9480   36.6250 C   0  0  0  0  0  0  0  0  0  0  0  0
   33.8510   28.5400   37.9450 C   0  0  0  0  0  0  0  0  0  0  0  0
   34.7780   28.6240   38.9590 C   0  0  0  0  0  0  0  0  0  0  0  0
   36.0290   29.1140   38.7150 C   0  0  0  0  0  0  0  0  0  0  0  0
   35.6960   29.7540   35.4630 H   0  0  0  0  0  0  0  0  0  0  0  0
   33.4550   28.9000   35.8090 H   0  0  0  0  0  0  0  0  0  0  0  0
   32.8300   28.1570   38.0720 H   0  0  0  0  0  0  0  0  0  0  0  0
   34.4560   28.2850   39.9370 H   0  0  0  0  0  0  0  0  0  0  0  0
   37.7440   30.0520   37.2260 C   0  0  0  0  0  0  0  0  0  0  0  0
   38.4830   29.6900   37.9690 H   0  0  0  0  0  0  0  0  0  0  0  0
   38.0990   29.6540   36.2380 H   0  0  0  0  0  0  0  0  0  0  0  0
   37.7560   31.5580   37.0960 C   0  0  0  0  0  0  0  0  0  0  0  0
   38.4490   31.8320   36.2880 H   0  0  0  0  0  0  0  0  0  0  0  0
   36.7330   31.9740   36.9390 H   0  0  0  0  0  0  0  0  0  0  0  0
   37.9270   33.4910   40.3380 C   0  0  0  0  0  0  0  0  0  0  0  0
   37.4080   32.9720   39.1170 C   0  0  0  0  0  0  0  0  0  0  0  0
   38.2460   32.1250   38.3740 C   0  0  0  0  0  0  0  0  0  0  0  0
   39.5070   31.8550   38.8750 N   0  0  0  0  0  0  0  0  0  0  0  0
   39.9260   32.3720   40.0210 C   0  0  0  0  0  0  0  0  0  0  0  0
   39.1530   33.1900   40.7650 N   0  0  0  0  0  0  0  0  0  0  0  0
   37.2030   34.1220   40.8170 H   0  0  0  0  0  0  0  0  0  0  0  0
   36.4350   33.1870   38.7390 H   0  0  0  0  0  0  0  0  0  0  0  0
   40.9170   32.1600   40.4160 H   0  0  0  0  0  0  0  0  0  0  0  0
   36.9690   29.2020   39.7340 O   0  0  0  0  0  0  0  0  0  0  0  0
   38.0110   30.1620   41.9160 O   0  0  0  0  0  0  0  0  0  0  0  0
   36.6890   29.7650   41.3010 P   0  0  0  0  0  0  0  0  0  0  0  0
   35.5870   31.0170   41.4090 O   0  0  0  0  0  0  0  0  0  0  0  0
   35.0220   31.1380   40.6280 H   0  0  0  0  0  0  0  0  0  0  0  0
   36.1220   28.4320   42.2130 O   0  0  0  0  0  0  0  0  0  0  0  0
   35.5910   27.8560   41.6030 H   0  0  0  0  0  0  0  0  0  0  0  0
  1  6  1  0  0  0  0
  2  3  1  0  0  0  0
  2  1  2  0  0  0  0
  3  4  2  0  0  0  0
  4  9  1  0  0  0  0
  4  5  1  0  0  0  0
  5 10  1  0  0  0  0
  6  5  2  0  0  0  0
  6 26  1  0  0  0  0
  7  2  1  0  0  0  0
  8  3  1  0  0  0  0
 11  1  1  0  0  0  0
 11 12  1  0  0  0  0
 13 11  1  0  0  0  0
 14 11  1  0  0  0  0
 14 19  1  0  0  0  0
 15 14  1  0  0  0  0
 16 14  1  0  0  0  0
 17 22  1  0  0  0  0
 17 23  1  0  0  0  0
 18 17  2  0  0  0  0
 19 20  2  0  0  0  0
 19 18  1  0  0  0  0
 20 21  1  0  0  0  0
 21 25  1  0  0  0  0
 21 22  2  0  0  0  0
 24 18  1  0  0  0  0
 26 28  1  0  0  0  0
 28 29  1  0  0  0  0
 28 27  2  0  0  0  0
 28 31  1  0  0  0  0
 30 29  1  0  0  0  0
 32 31  1  0  0  0  0
M  END
>  <minimizedAffinity>
-5.04602098

$$$$

 OpenBabel03252508223D

 32 33  0  0  0  0  0  0  0  0999 V2000
   38.2560   27.8450   42.7280 C   0  0  0  0  0  0  0  0  0  0  0  0
   39.4950   27.3110   42.9600 C   0  0  0  0  0  0  0  0  0  0  0  0
   40.7070   27.9880   42.9850 C   0  0  0  0  0  0  0  0  0  0  0  0
   40.5770   29.3730   42.7370 C   0  0  0  0  0  0  0  0  0  0  0  0
   39.3570   29.9630   42.4980 C   0  0  0  0  0  0  0  0  0  0  0  0
   38.2140   29.2140   42.4930 C   0  0  0  0  0  0  0  0  0  0  0  0
   39.5590   26.2370   43.1480 H   0  0  0  0  0  0  0  0  0  0  0  0
   41.6330   27.4900   43.1740 H   0  0  0  0  0  0  0  0  0  0  0  0
   41.5320   29.9150   42.7540 H   0  0  0  0  0  0  0  0  0  0  0  0
   39.3630   31.0310   42.3180 H   0  0  0  0  0  0  0  0  0  0  0  0
   37.0120   27.0820   42.7130 C   0  0  0  0  0  0  0  0  0  0  0  0
   36.4360   27.1550   43.6580 H   0  0  0  0  0  0  0  0  0  0  0  0
   36.3510   27.5360   41.9280 H   0  0  0  0  0  0  0  0  0  0  0  0
   37.2360   25.6470   42.2910 C   0  0  0  0  0  0  0  0  0  0  0  0
   38.2870   25.3900   42.4780 H   0  0  0  0  0  0  0  0  0  0  0  0
   36.5290   24.9460   42.7950 H   0  0  0  0  0  0  0  0  0  0  0  0
   36.8760   24.2820   38.7860 C   0  0  0  0  0  0  0  0  0  0  0  0
   37.1590   24.3240   40.1820 C   0  0  0  0  0  0  0  0  0  0  0  0
   36.9570   25.5480   40.8400 C   0  0  0  0  0  0  0  0  0  0  0  0
   36.5000   26.6200   40.0930 N   0  0  0  0  0  0  0  0  0  0  0  0
   36.2560   26.5100   38.7940 C   0  0  0  0  0  0  0  0  0  0  0  0
   36.4380   25.3530   38.1250 N   0  0  0  0  0  0  0  0  0  0  0  0
   37.0660   23.3010   38.3930 H   0  0  0  0  0  0  0  0  0  0  0  0
   37.5110   23.4920   40.7490 H   0  0  0  0  0  0  0  0  0  0  0  0
   35.8980   27.3520   38.2060 H   0  0  0  0  0  0  0  0  0  0  0  0
   36.9800   29.8020   42.2530 O   0  0  0  0  0  0  0  0  0  0  0  0
   37.3840   29.9060   39.6850 O   0  0  0  0  0  0  0  0  0  0  0  0
   36.3950   30.3110   40.7530 P   0  0  0  0  0  0  0  0  0  0  0  0
   34.8610   29.7640   40.3750 O   0  0  0  0  0  0  0  0  0  0  0  0
   34.3460   29.4320   41.1280 H   0  0  0  0  0  0  0  0  0  0  0  0
   36.3960   32.0230   40.7750 O   0  0  0  0  0  0  0  0  0  0  0  0
   36.1970   32.3100   41.7050 H   0  0  0  0  0  0  0  0  0  0  0  0
  1  2  1  0  0  0  0
  2  3  2  0  0  0  0
  2  7  1  0  0  0  0
  3  8  1  0  0  0  0
  4  9  1  0  0  0  0
  4  3  1  0  0  0  0
  5  4  2  0  0  0  0
  6  5  1  0  0  0  0
  6  1  2  0  0  0  0
 10  5  1  0  0  0  0
 11  1  1  0  0  0  0
 11 12  1  0  0  0  0
 13 11  1  0  0  0  0
 14 15  1  0  0  0  0
 14 11  1  0  0  0  0
 14 16  1  0  0  0  0
 17 18  1  0  0  0  0
 18 24  1  0  0  0  0
 18 19  2  0  0  0  0
 19 14  1  0  0  0  0
 20 19  1  0  0  0  0
 21 20  2  0  0  0  0
 22 17  2  0  0  0  0
 22 21  1  0  0  0  0
 23 17  1  0  0  0  0
 25 21  1  0  0  0  0
 26  6  1  0  0  0  0
 27 28  2  0  0  0  0
 28 31  1  0  0  0  0
 28 26  1  0  0  0  0
 29 28  1  0  0  0  0
 29 30  1  0  0  0  0
 31 32  1  0  0  0  0
M  END
>  <minimizedAffinity>
-5.01422882

$$$$

 OpenBabel03252508223D

 32 33  0  0  0  0  0  0  0  0999 V2000
   36.8790   30.3030   38.6600 C   0  0  0  0  0  0  0  0  0  0  0  0
   35.7710   29.6670   38.1660 C   0  0  0  0  0  0  0  0  0  0  0  0
   35.7310   28.7360   37.1370 C   0  0  0  0  0  0  0  0  0  0  0  0
   37.0010   28.4610   36.5830 C   0  0  0  0  0  0  0  0  0  0  0  0
   38.1470   29.0710   37.0400 C   0  0  0  0  0  0  0  0  0  0  0  0
   38.0900   29.9760   38.0620 C   0  0  0  0  0  0  0  0  0  0  0  0
   34.8060   29.9030   38.6170 H   0  0  0  0  0  0  0  0  0  0  0  0
   34.8180   28.2860   36.8120 H   0  0  0  0  0  0  0  0  0  0  0  0
   36.9770   27.7260   35.7670 H   0  0  0  0  0  0  0  0  0  0  0  0
   39.0720   28.7920   36.5490 H   0  0  0  0  0  0  0  0  0  0  0  0
   36.8620   31.2760   39.7480 C   0  0  0  0  0  0  0  0  0  0  0  0
   37.8630   31.6840   39.9930 H   0  0  0  0  0  0  0  0  0  0  0  0
   36.2610   32.1570   39.3980 H   0  0  0  0  0  0  0  0  0  0  0  0
   36.1470   30.7430   40.9690 C   0  0  0  0  0  0  0  0  0  0  0  0
   35.9220   31.5870   41.6350 H   0  0  0  0  0  0  0  0  0  0  0  0
   35.2360   30.1580   40.7000 H   0  0  0  0  0  0  0  0  0  0  0  0
   37.5590   27.6150   42.5480 C   0  0  0  0  0  0  0  0  0  0  0  0
   36.6450   28.4790   41.8790 C   0  0  0  0  0  0  0  0  0  0  0  0
   37.0580   29.8020   41.6600 C   0  0  0  0  0  0  0  0  0  0  0  0
   38.3140   30.1740   42.1060 N   0  0  0  0  0  0  0  0  0  0  0  0
   39.1160   29.3160   42.7230 C   0  0  0  0  0  0  0  0  0  0  0  0
   38.7570   28.0350   42.9530 N   0  0  0  0  0  0  0  0  0  0  0  0
   37.1380   26.6330   42.6590 H   0  0  0  0  0  0  0  0  0  0  0  0
   35.6790   28.1830   41.5390 H   0  0  0  0  0  0  0  0  0  0  0  0
   40.1030   29.6060   43.0750 H   0  0  0  0  0  0  0  0  0  0  0  0
   39.2420   30.5960   38.5280 O   0  0  0  0  0  0  0  0  0  0  0  0
   40.7840   32.6900   38.5710 O   0  0  0  0  0  0  0  0  0  0  0  0
   40.2460   31.6260   37.6440 P   0  0  0  0  0  0  0  0  0  0  0  0
   41.4930   30.8640   36.8330 O   0  0  0  0  0  0  0  0  0  0  0  0
   41.3880   29.9040   36.7240 H   0  0  0  0  0  0  0  0  0  0  0  0
   39.2500   32.4390   36.5140 O   0  0  0  0  0  0  0  0  0  0  0  0
   38.5290   31.8120   36.2450 H   0  0  0  0  0  0  0  0  0  0  0  0
  1 11  1  0  0  0  0
  2  7  1  0  0  0  0
  2  1  1  0  0  0  0
  3  2  2  0  0  0  0
  4  5  2  0  0  0  0
  4  3  1  0  0  0  0
  5  6  1  0  0  0  0
  6 26  1  0  0  0  0
  6  1  2  0  0  0  0
  8  3  1  0  0  0  0
  9  4  1  0  0  0  0
 10  5  1  0  0  0  0
 11 12  1  0  0  0  0
 11 14  1  0  0  0  0
 13 11  1  0  0  0  0
 14 15  1  0  0  0  0
 14 19  1  0  0  0  0
 16 14  1  0  0  0  0
 17 23  1  0  0  0  0
 17 22  1  0  0  0  0
 18 17  2  0  0  0  0
 19 18  1  0  0  0  0
 19 20  2  0  0  0  0
 20 21  1  0  0  0  0
 21 22  2  0  0  0  0
 21 25  1  0  0  0  0
 24 18  1  0  0  0  0
 28 26  1  0  0  0  0
 28 27  2  0  0  0  0
 29 28  1  0  0  0  0
 30 29  1  0  0  0  0
 31 28  1  0  0  0  0
 32 31  1  0  0  0  0
M  END
>  <minimizedAffinity>
-4.92079067

$$$$
