
 OpenBabel03252509173D

 23 24  0  0  0  0  0  0  0  0999 V2000
   39.0580   30.2870   41.3220 C   0  0  0  0  0  0  0  0  0  0  0  0
   40.1920   30.8940   41.9300 C   0  0  0  0  0  0  0  0  0  0  0  0
   40.8500   31.8740   41.2710 C   0  0  0  0  0  0  0  0  0  0  0  0
   40.3820   32.2560   40.0000 C   0  0  0  0  0  0  0  0  0  0  0  0
   38.9220   31.1500   39.7420 S   0  0  0  0  0  0  0  0  0  0  0  0
   40.5380   30.5790   42.9210 H   0  0  0  0  0  0  0  0  0  0  0  0
   41.6970   32.4070   41.5940 H   0  0  0  0  0  0  0  0  0  0  0  0
   37.2430   28.0470   43.6770 C   0  0  0  0  0  0  0  0  0  0  0  0
   36.8540   27.0270   42.7700 C   0  0  0  0  0  0  0  0  0  0  0  0
   37.2260   27.1590   41.4180 C   0  0  0  0  0  0  0  0  0  0  0  0
   37.9500   28.2730   41.0500 N   0  0  0  0  0  0  0  0  0  0  0  0
   38.2900   29.2110   41.9750 C   0  0  0  0  0  0  0  0  0  0  0  0
   37.9400   29.1040   43.2830 N   0  0  0  0  0  0  0  0  0  0  0  0
   36.9760   27.9790   44.7110 H   0  0  0  0  0  0  0  0  0  0  0  0
   36.2950   26.1790   43.0850 H   0  0  0  0  0  0  0  0  0  0  0  0
   36.9630   26.4230   40.6870 H   0  0  0  0  0  0  0  0  0  0  0  0
   40.8020   33.1870   39.0870 O   0  0  0  0  0  0  0  0  0  0  0  0
   42.2080   31.5090   37.5390 O   0  0  0  0  0  0  0  0  0  0  0  0
   41.3240   32.7200   37.5130 P   0  0  0  0  0  0  0  0  0  0  0  0
   39.9390   32.4400   36.5800 O   0  0  0  0  0  0  0  0  0  0  0  0
   40.1640   32.2990   35.6290 H   0  0  0  0  0  0  0  0  0  0  0  0
   42.1900   34.0060   36.8400 O   0  0  0  0  0  0  0  0  0  0  0  0
   43.0410   33.7430   36.4320 H   0  0  0  0  0  0  0  0  0  0  0  0
  1  2  2  0  0  0  0
  1 12  1  0  0  0  0
  2  6  1  0  0  0  0
  3  7  1  0  0  0  0
  3  2  1  0  0  0  0
  4  3  2  0  0  0  0
  5  4  1  0  0  0  0
  5  1  1  0  0  0  0
  8 14  1  0  0  0  0
  9 15  1  0  0  0  0
  9  8  2  0  0  0  0
 10  9  1  0  0  0  0
 11 10  2  0  0  0  0
 11 12  1  0  0  0  0
 12 13  2  0  0  0  0
 13  8  1  0  0  0  0
 16 10  1  0  0  0  0
 17  4  1  0  0  0  0
 19 18  2  0  0  0  0
 19 17  1  0  0  0  0
 20 19  1  0  0  0  0
 21 20  1  0  0  0  0
 22 19  1  0  0  0  0
 23 22  1  0  0  0  0
M  END
>  <minimizedAffinity>
-4.94261694

$$$$

 OpenBabel03252509173D

 23 24  0  0  0  0  0  0  0  0999 V2000
   37.7390   28.0000   41.7950 C   0  0  0  0  0  0  0  0  0  0  0  0
   36.5100   28.0650   41.0800 C   0  0  0  0  0  0  0  0  0  0  0  0
   36.0190   29.2720   40.7170 C   0  0  0  0  0  0  0  0  0  0  0  0
   36.7520   30.4220   41.0630 C   0  0  0  0  0  0  0  0  0  0  0  0
   38.2170   29.7330   41.9540 S   0  0  0  0  0  0  0  0  0  0  0  0
   35.9570   27.1550   40.8220 H   0  0  0  0  0  0  0  0  0  0  0  0
   35.1310   29.4700   40.1920 H   0  0  0  0  0  0  0  0  0  0  0  0
   38.6570   24.4380   42.3620 C   0  0  0  0  0  0  0  0  0  0  0  0
   39.7160   24.6190   43.2900 C   0  0  0  0  0  0  0  0  0  0  0  0
   40.0560   25.9330   43.6660 C   0  0  0  0  0  0  0  0  0  0  0  0
   39.3400   26.9730   43.1120 N   0  0  0  0  0  0  0  0  0  0  0  0
   38.3360   26.7240   42.2280 C   0  0  0  0  0  0  0  0  0  0  0  0
   37.9920   25.4650   41.8510 N   0  0  0  0  0  0  0  0  0  0  0  0
   38.3730   23.4530   42.0550 H   0  0  0  0  0  0  0  0  0  0  0  0
   40.2500   23.7960   43.7010 H   0  0  0  0  0  0  0  0  0  0  0  0
   40.8440   26.1330   44.3620 H   0  0  0  0  0  0  0  0  0  0  0  0
   36.5470   31.7610   40.8550 O   0  0  0  0  0  0  0  0  0  0  0  0
   38.6020   31.9550   39.1430 O   0  0  0  0  0  0  0  0  0  0  0  0
   37.7440   32.7380   40.0920 P   0  0  0  0  0  0  0  0  0  0  0  0
   36.9410   33.9930   39.2890 O   0  0  0  0  0  0  0  0  0  0  0  0
   37.5740   34.6670   38.9420 H   0  0  0  0  0  0  0  0  0  0  0  0
   38.7330   33.3970   41.2930 O   0  0  0  0  0  0  0  0  0  0  0  0
   39.6910   33.3160   41.1100 H   0  0  0  0  0  0  0  0  0  0  0  0
  1  5  1  0  0  0  0
  1 12  1  0  0  0  0
  2  1  2  0  0  0  0
  3  4  2  0  0  0  0
  3  2  1  0  0  0  0
  4  5  1  0  0  0  0
  6  2  1  0  0  0  0
  7  3  1  0  0  0  0
  8  9  1  0  0  0  0
  9 10  2  0  0  0  0
  9 15  1  0  0  0  0
 10 16  1  0  0  0  0
 11 10  1  0  0  0  0
 12 11  2  0  0  0  0
 13 12  1  0  0  0  0
 13  8  2  0  0  0  0
 14  8  1  0  0  0  0
 17  4  1  0  0  0  0
 18 19  2  0  0  0  0
 19 17  1  0  0  0  0
 19 22  1  0  0  0  0
 20 19  1  0  0  0  0
 21 20  1  0  0  0  0
 23 22  1  0  0  0  0
M  END
>  <minimizedAffinity>
-4.90492296

$$$$

 OpenBabel03252509173D

 23 24  0  0  0  0  0  0  0  0999 V2000
   37.8030   29.4080   41.5770 C   0  0  0  0  0  0  0  0  0  0  0  0
   38.1390   29.0660   42.9170 C   0  0  0  0  0  0  0  0  0  0  0  0
   38.0370   27.7780   43.3170 C   0  0  0  0  0  0  0  0  0  0  0  0
   37.5990   26.8220   42.3820 C   0  0  0  0  0  0  0  0  0  0  0  0
   37.3210   27.8260   40.8550 S   0  0  0  0  0  0  0  0  0  0  0  0
   38.4780   29.8290   43.6270 H   0  0  0  0  0  0  0  0  0  0  0  0
   38.2480   27.3840   44.2680 H   0  0  0  0  0  0  0  0  0  0  0  0
   37.2250   32.7230   39.9860 C   0  0  0  0  0  0  0  0  0  0  0  0
   38.4560   33.3500   40.3090 C   0  0  0  0  0  0  0  0  0  0  0  0
   39.4060   32.6160   41.0460 C   0  0  0  0  0  0  0  0  0  0  0  0
   39.0870   31.3270   41.4130 N   0  0  0  0  0  0  0  0  0  0  0  0
   37.8860   30.7890   41.0670 C   0  0  0  0  0  0  0  0  0  0  0  0
   36.9550   31.4790   40.3580 N   0  0  0  0  0  0  0  0  0  0  0  0
   36.4810   33.2520   39.4280 H   0  0  0  0  0  0  0  0  0  0  0  0
   38.6730   34.3480   40.0110 H   0  0  0  0  0  0  0  0  0  0  0  0
   40.3530   33.0350   41.3180 H   0  0  0  0  0  0  0  0  0  0  0  0
   37.3890   25.4700   42.4540 O   0  0  0  0  0  0  0  0  0  0  0  0
   39.5240   24.9260   40.9250 O   0  0  0  0  0  0  0  0  0  0  0  0
   38.6050   24.3520   41.9620 P   0  0  0  0  0  0  0  0  0  0  0  0
   39.4640   23.8930   43.3470 O   0  0  0  0  0  0  0  0  0  0  0  0
   40.0890   23.1520   43.1570 H   0  0  0  0  0  0  0  0  0  0  0  0
   37.8400   22.9920   41.3120 O   0  0  0  0  0  0  0  0  0  0  0  0
   38.2150   22.6940   40.4580 H   0  0  0  0  0  0  0  0  0  0  0  0
  1  2  2  0  0  0  0
  2  3  1  0  0  0  0
  2  6  1  0  0  0  0
  3  7  1  0  0  0  0
  4 17  1  0  0  0  0
  4  3  2  0  0  0  0
  5  1  1  0  0  0  0
  5  4  1  0  0  0  0
  8  9  2  0  0  0  0
  8 13  1  0  0  0  0
  9 10  1  0  0  0  0
 10 16  1  0  0  0  0
 10 11  2  0  0  0  0
 12 11  1  0  0  0  0
 12  1  1  0  0  0  0
 13 12  2  0  0  0  0
 14  8  1  0  0  0  0
 15  9  1  0  0  0  0
 18 19  2  0  0  0  0
 19 17  1  0  0  0  0
 19 20  1  0  0  0  0
 21 20  1  0  0  0  0
 22 19  1  0  0  0  0
 23 22  1  0  0  0  0
M  END
>  <minimizedAffinity>
-4.6537466

$$$$

 OpenBabel03252509173D

 23 24  0  0  0  0  0  0  0  0999 V2000
   37.2970   27.9450   41.2250 C   0  0  0  0  0  0  0  0  0  0  0  0
   36.1380   28.1990   40.4410 C   0  0  0  0  0  0  0  0  0  0  0  0
   35.7640   29.4770   40.2050 C   0  0  0  0  0  0  0  0  0  0  0  0
   36.5460   30.5120   40.7510 C   0  0  0  0  0  0  0  0  0  0  0  0
   37.8820   29.6010   41.6460 S   0  0  0  0  0  0  0  0  0  0  0  0
   35.5450   27.3760   40.0260 H   0  0  0  0  0  0  0  0  0  0  0  0
   34.9370   29.8110   39.6490 H   0  0  0  0  0  0  0  0  0  0  0  0
   39.0850   24.9170   42.4430 C   0  0  0  0  0  0  0  0  0  0  0  0
   38.2900   23.9160   41.8240 C   0  0  0  0  0  0  0  0  0  0  0  0
   37.1970   24.3260   41.0350 C   0  0  0  0  0  0  0  0  0  0  0  0
   36.9610   25.6780   40.9070 N   0  0  0  0  0  0  0  0  0  0  0  0
   37.7660   26.5810   41.5280 C   0  0  0  0  0  0  0  0  0  0  0  0
   38.8250   26.2080   42.2940 N   0  0  0  0  0  0  0  0  0  0  0  0
   39.9230   24.6400   43.0490 H   0  0  0  0  0  0  0  0  0  0  0  0
   38.4990   22.8810   41.9430 H   0  0  0  0  0  0  0  0  0  0  0  0
   36.5620   23.6200   40.5430 H   0  0  0  0  0  0  0  0  0  0  0  0
   36.4530   31.8790   40.7080 O   0  0  0  0  0  0  0  0  0  0  0  0
   38.5410   32.0580   39.0340 O   0  0  0  0  0  0  0  0  0  0  0  0
   37.7040   32.8340   40.0070 P   0  0  0  0  0  0  0  0  0  0  0  0
   36.9700   34.1610   39.2540 O   0  0  0  0  0  0  0  0  0  0  0  0
   37.6390   34.8200   38.9470 H   0  0  0  0  0  0  0  0  0  0  0  0
   38.7030   33.3920   41.2520 O   0  0  0  0  0  0  0  0  0  0  0  0
   39.6600   33.2770   41.0780 H   0  0  0  0  0  0  0  0  0  0  0  0
  1 12  1  0  0  0  0
  1  5  1  0  0  0  0
  2  1  2  0  0  0  0
  3  2  1  0  0  0  0
  3  4  2  0  0  0  0
  4  5  1  0  0  0  0
  6  2  1  0  0  0  0
  7  3  1  0  0  0  0
  8 14  1  0  0  0  0
  9 15  1  0  0  0  0
  9  8  2  0  0  0  0
 10  9  1  0  0  0  0
 11 10  2  0  0  0  0
 11 12  1  0  0  0  0
 12 13  2  0  0  0  0
 13  8  1  0  0  0  0
 16 10  1  0  0  0  0
 17  4  1  0  0  0  0
 18 19  2  0  0  0  0
 19 17  1  0  0  0  0
 19 22  1  0  0  0  0
 20 19  1  0  0  0  0
 21 20  1  0  0  0  0
 23 22  1  0  0  0  0
M  END
>  <minimizedAffinity>
-4.52414417

$$$$

 OpenBabel03252509173D

 23 24  0  0  0  0  0  0  0  0999 V2000
   41.5060   30.5920   38.4730 C   0  0  0  0  0  0  0  0  0  0  0  0
   41.1860   29.4130   39.2030 C   0  0  0  0  0  0  0  0  0  0  0  0
   40.1620   29.4390   40.0850 C   0  0  0  0  0  0  0  0  0  0  0  0
   39.4490   30.6410   40.2460 C   0  0  0  0  0  0  0  0  0  0  0  0
   40.2940   31.7890   39.0690 S   0  0  0  0  0  0  0  0  0  0  0  0
   41.7570   28.4880   39.0610 H   0  0  0  0  0  0  0  0  0  0  0  0
   39.8160   28.6510   40.6890 H   0  0  0  0  0  0  0  0  0  0  0  0
   44.6300   31.2810   36.5700 C   0  0  0  0  0  0  0  0  0  0  0  0
   44.4010   30.4470   35.4440 C   0  0  0  0  0  0  0  0  0  0  0  0
   43.2070   29.7010   35.3970 C   0  0  0  0  0  0  0  0  0  0  0  0
   42.3240   29.8240   36.4490 N   0  0  0  0  0  0  0  0  0  0  0  0
   42.6090   30.6440   37.4960 C   0  0  0  0  0  0  0  0  0  0  0  0
   43.7550   31.3710   37.5620 N   0  0  0  0  0  0  0  0  0  0  0  0
   45.5270   31.8610   36.6370 H   0  0  0  0  0  0  0  0  0  0  0  0
   45.1020   30.3740   34.6480 H   0  0  0  0  0  0  0  0  0  0  0  0
   42.9780   29.0560   34.5750 H   0  0  0  0  0  0  0  0  0  0  0  0
   38.3870   31.0020   41.0320 O   0  0  0  0  0  0  0  0  0  0  0  0
   36.6790   30.9370   38.9650 O   0  0  0  0  0  0  0  0  0  0  0  0
   36.8930   31.5070   40.3360 P   0  0  0  0  0  0  0  0  0  0  0  0
   35.6550   31.0350   41.3900 O   0  0  0  0  0  0  0  0  0  0  0  0
   34.7830   31.4110   41.1170 H   0  0  0  0  0  0  0  0  0  0  0  0
   36.9060   33.1930   40.2220 O   0  0  0  0  0  0  0  0  0  0  0  0
   36.6190   33.5370   39.3510 H   0  0  0  0  0  0  0  0  0  0  0  0
  1  5  1  0  0  0  0
  1  2  2  0  0  0  0
  2  3  1  0  0  0  0
  3  4  2  0  0  0  0
  3  7  1  0  0  0  0
  4 17  1  0  0  0  0
  5  4  1  0  0  0  0
  6  2  1  0  0  0  0
  8 14  1  0  0  0  0
  8 13  1  0  0  0  0
  9  8  2  0  0  0  0
 10  9  1  0  0  0  0
 10 11  2  0  0  0  0
 11 12  1  0  0  0  0
 12 13  2  0  0  0  0
 12  1  1  0  0  0  0
 15  9  1  0  0  0  0
 16 10  1  0  0  0  0
 18 19  2  0  0  0  0
 19 17  1  0  0  0  0
 19 20  1  0  0  0  0
 21 20  1  0  0  0  0
 22 19  1  0  0  0  0
 23 22  1  0  0  0  0
M  END
>  <minimizedAffinity>
-4.38430405

$$$$

 OpenBabel03252509173D

 23 24  0  0  0  0  0  0  0  0999 V2000
   37.6910   27.7480   41.1470 C   0  0  0  0  0  0  0  0  0  0  0  0
   37.5110   28.2890   42.4510 C   0  0  0  0  0  0  0  0  0  0  0  0
   37.9960   29.5210   42.7290 C   0  0  0  0  0  0  0  0  0  0  0  0
   38.6630   30.2220   41.7080 C   0  0  0  0  0  0  0  0  0  0  0  0
   38.5890   29.0520   40.2790 S   0  0  0  0  0  0  0  0  0  0  0  0
   36.9880   27.7230   43.2300 H   0  0  0  0  0  0  0  0  0  0  0  0
   37.9390   30.0410   43.6410 H   0  0  0  0  0  0  0  0  0  0  0  0
   36.2130   24.7780   39.4600 C   0  0  0  0  0  0  0  0  0  0  0  0
   36.4180   23.8100   40.4790 C   0  0  0  0  0  0  0  0  0  0  0  0
   37.0430   24.2200   41.6720 C   0  0  0  0  0  0  0  0  0  0  0  0
   37.4230   25.5400   41.7860 N   0  0  0  0  0  0  0  0  0  0  0  0
   37.1940   26.4130   40.7680 C   0  0  0  0  0  0  0  0  0  0  0  0
   36.5930   26.0400   39.6080 N   0  0  0  0  0  0  0  0  0  0  0  0
   35.7410   24.5010   38.5410 H   0  0  0  0  0  0  0  0  0  0  0  0
   36.1130   22.7980   40.3610 H   0  0  0  0  0  0  0  0  0  0  0  0
   37.2240   23.5370   42.4760 H   0  0  0  0  0  0  0  0  0  0  0  0
   39.2590   31.4540   41.6530 O   0  0  0  0  0  0  0  0  0  0  0  0
   37.2260   32.4410   40.2080 O   0  0  0  0  0  0  0  0  0  0  0  0
   38.6430   32.6970   40.6310 P   0  0  0  0  0  0  0  0  0  0  0  0
   38.7700   34.1600   41.4740 O   0  0  0  0  0  0  0  0  0  0  0  0
   38.5580   34.9320   40.8950 H   0  0  0  0  0  0  0  0  0  0  0  0
   39.6120   32.7730   39.2480 O   0  0  0  0  0  0  0  0  0  0  0  0
   39.1080   32.8050   38.4090 H   0  0  0  0  0  0  0  0  0  0  0  0
  1  2  2  0  0  0  0
  2  3  1  0  0  0  0
  2  6  1  0  0  0  0
  3  7  1  0  0  0  0
  4  3  2  0  0  0  0
  5  1  1  0  0  0  0
  5  4  1  0  0  0  0
  8 13  2  0  0  0  0
  8  9  1  0  0  0  0
  9 10  2  0  0  0  0
 10 11  1  0  0  0  0
 10 16  1  0  0  0  0
 12  1  1  0  0  0  0
 12 11  2  0  0  0  0
 13 12  1  0  0  0  0
 14  8  1  0  0  0  0
 15  9  1  0  0  0  0
 17  4  1  0  0  0  0
 18 19  2  0  0  0  0
 19 20  1  0  0  0  0
 19 17  1  0  0  0  0
 21 20  1  0  0  0  0
 22 19  1  0  0  0  0
 23 22  1  0  0  0  0
M  END
>  <minimizedAffinity>
-4.37955952

$$$$

 OpenBabel03252509173D

 23 24  0  0  0  0  0  0  0  0999 V2000
   39.2300   29.6470   40.0000 C   0  0  0  0  0  0  0  0  0  0  0  0
   39.5340   28.9880   38.7760 C   0  0  0  0  0  0  0  0  0  0  0  0
   40.0550   29.7020   37.7520 C   0  0  0  0  0  0  0  0  0  0  0  0
   40.2790   31.0780   37.9430 C   0  0  0  0  0  0  0  0  0  0  0  0
   39.7100   31.3570   39.6800 S   0  0  0  0  0  0  0  0  0  0  0  0
   39.3500   27.9150   38.6510 H   0  0  0  0  0  0  0  0  0  0  0  0
   40.3240   29.3510   36.7990 H   0  0  0  0  0  0  0  0  0  0  0  0
   38.5730   27.9700   43.2580 C   0  0  0  0  0  0  0  0  0  0  0  0
   37.2150   27.6080   43.0590 C   0  0  0  0  0  0  0  0  0  0  0  0
   36.6040   27.9530   41.8380 C   0  0  0  0  0  0  0  0  0  0  0  0
   37.3600   28.6250   40.9010 N   0  0  0  0  0  0  0  0  0  0  0  0
   38.6580   28.9390   41.1600 C   0  0  0  0  0  0  0  0  0  0  0  0
   39.2670   28.6160   42.3300 N   0  0  0  0  0  0  0  0  0  0  0  0
   39.0680   27.7230   44.1740 H   0  0  0  0  0  0  0  0  0  0  0  0
   36.6580   27.0890   43.8020 H   0  0  0  0  0  0  0  0  0  0  0  0
   35.5830   27.7070   41.6290 H   0  0  0  0  0  0  0  0  0  0  0  0
   40.7800   32.0660   37.1370 O   0  0  0  0  0  0  0  0  0  0  0  0
   42.8230   32.7120   38.7500 O   0  0  0  0  0  0  0  0  0  0  0  0
   42.4010   32.6220   37.3130 P   0  0  0  0  0  0  0  0  0  0  0  0
   43.4000   31.5590   36.4530 O   0  0  0  0  0  0  0  0  0  0  0  0
   44.3280   31.8940   36.4000 H   0  0  0  0  0  0  0  0  0  0  0  0
   42.5110   34.1600   36.6220 O   0  0  0  0  0  0  0  0  0  0  0  0
   42.9700   34.8180   37.1830 H   0  0  0  0  0  0  0  0  0  0  0  0
  1 12  1  0  0  0  0
  2  1  2  0  0  0  0
  3  4  2  0  0  0  0
  3  2  1  0  0  0  0
  4  5  1  0  0  0  0
  5  1  1  0  0  0  0
  6  2  1  0  0  0  0
  7  3  1  0  0  0  0
  8 14  1  0  0  0  0
  9  8  1  0  0  0  0
  9 15  1  0  0  0  0
 10  9  2  0  0  0  0
 11 12  2  0  0  0  0
 11 10  1  0  0  0  0
 12 13  1  0  0  0  0
 13  8  2  0  0  0  0
 16 10  1  0  0  0  0
 17 19  1  0  0  0  0
 17  4  1  0  0  0  0
 19 18  2  0  0  0  0
 20 19  1  0  0  0  0
 21 20  1  0  0  0  0
 22 23  1  0  0  0  0
 22 19  1  0  0  0  0
M  END
>  <minimizedAffinity>
-4.26653576

$$$$

 OpenBabel03252509173D

 23 24  0  0  0  0  0  0  0  0999 V2000
   37.6630   26.8610   41.1140 C   0  0  0  0  0  0  0  0  0  0  0  0
   37.8070   25.4690   40.8560 C   0  0  0  0  0  0  0  0  0  0  0  0
   38.7950   24.7800   41.4700 C   0  0  0  0  0  0  0  0  0  0  0  0
   39.6480   25.4760   42.3470 C   0  0  0  0  0  0  0  0  0  0  0  0
   38.9940   27.2040   42.2840 S   0  0  0  0  0  0  0  0  0  0  0  0
   37.1300   24.9500   40.1670 H   0  0  0  0  0  0  0  0  0  0  0  0
   39.0190   23.7580   41.3740 H   0  0  0  0  0  0  0  0  0  0  0  0
   34.9970   29.3220   40.2840 C   0  0  0  0  0  0  0  0  0  0  0  0
   34.7390   28.9360   38.9420 C   0  0  0  0  0  0  0  0  0  0  0  0
   35.4810   27.8690   38.4000 C   0  0  0  0  0  0  0  0  0  0  0  0
   36.4200   27.2570   39.2030 N   0  0  0  0  0  0  0  0  0  0  0  0
   36.6140   27.6810   40.4810 C   0  0  0  0  0  0  0  0  0  0  0  0
   35.9100   28.7070   41.0240 N   0  0  0  0  0  0  0  0  0  0  0  0
   34.4510   30.1280   40.7270 H   0  0  0  0  0  0  0  0  0  0  0  0
   34.0070   29.4280   38.3480 H   0  0  0  0  0  0  0  0  0  0  0  0
   35.3310   27.5320   37.3950 H   0  0  0  0  0  0  0  0  0  0  0  0
   40.7190   25.0930   43.1120 O   0  0  0  0  0  0  0  0  0  0  0  0
   42.5860   26.9800   42.7290 O   0  0  0  0  0  0  0  0  0  0  0  0
   42.3290   25.5040   42.6570 P   0  0  0  0  0  0  0  0  0  0  0  0
   43.3790   24.6550   43.6800 O   0  0  0  0  0  0  0  0  0  0  0  0
   44.3180   24.7400   43.3880 H   0  0  0  0  0  0  0  0  0  0  0  0
   42.5760   24.9900   41.0660 O   0  0  0  0  0  0  0  0  0  0  0  0
   42.9930   25.6630   40.4900 H   0  0  0  0  0  0  0  0  0  0  0  0
  1  5  1  0  0  0  0
  2  1  2  0  0  0  0
  2  3  1  0  0  0  0
  3  4  2  0  0  0  0
  4 17  1  0  0  0  0
  5  4  1  0  0  0  0
  6  2  1  0  0  0  0
  7  3  1  0  0  0  0
  8 14  1  0  0  0  0
  8 13  1  0  0  0  0
  9  8  2  0  0  0  0
 10  9  1  0  0  0  0
 10 11  2  0  0  0  0
 11 12  1  0  0  0  0
 12 13  2  0  0  0  0
 12  1  1  0  0  0  0
 15  9  1  0  0  0  0
 16 10  1  0  0  0  0
 19 18  2  0  0  0  0
 19 17  1  0  0  0  0
 19 20  1  0  0  0  0
 21 20  1  0  0  0  0
 22 19  1  0  0  0  0
 23 22  1  0  0  0  0
M  END
>  <minimizedAffinity>
-4.09295702

$$$$

 OpenBabel03252509173D

 23 24  0  0  0  0  0  0  0  0999 V2000
   39.7560   28.2580   41.3740 C   0  0  0  0  0  0  0  0  0  0  0  0
   40.3180   28.6120   40.1160 C   0  0  0  0  0  0  0  0  0  0  0  0
   40.0940   29.8470   39.6140 C   0  0  0  0  0  0  0  0  0  0  0  0
   39.3070   30.7400   40.3650 C   0  0  0  0  0  0  0  0  0  0  0  0
   38.8690   29.7510   41.8660 S   0  0  0  0  0  0  0  0  0  0  0  0
   40.9280   27.8990   39.5490 H   0  0  0  0  0  0  0  0  0  0  0  0
   40.4410   30.2430   38.7050 H   0  0  0  0  0  0  0  0  0  0  0  0
   41.0620   25.1850   43.0190 C   0  0  0  0  0  0  0  0  0  0  0  0
   39.8770   24.4030   43.0180 C   0  0  0  0  0  0  0  0  0  0  0  0
   38.7090   24.9620   42.4630 C   0  0  0  0  0  0  0  0  0  0  0  0
   38.7820   26.2400   41.9500 N   0  0  0  0  0  0  0  0  0  0  0  0
   39.9530   26.9310   41.9850 C   0  0  0  0  0  0  0  0  0  0  0  0
   41.0900   26.4110   42.5150 N   0  0  0  0  0  0  0  0  0  0  0  0
   41.9660   24.7910   43.4330 H   0  0  0  0  0  0  0  0  0  0  0  0
   39.8530   23.4200   43.4220 H   0  0  0  0  0  0  0  0  0  0  0  0
   37.7860   24.4220   42.4330 H   0  0  0  0  0  0  0  0  0  0  0  0
   38.8960   32.0300   40.1570 O   0  0  0  0  0  0  0  0  0  0  0  0
   36.9810   31.7090   38.3070 O   0  0  0  0  0  0  0  0  0  0  0  0
   37.3000   32.3800   39.6100 P   0  0  0  0  0  0  0  0  0  0  0  0
   36.2260   31.8880   40.8240 O   0  0  0  0  0  0  0  0  0  0  0  0
   35.3030   32.1810   40.6330 H   0  0  0  0  0  0  0  0  0  0  0  0
   37.1670   34.0520   39.4030 O   0  0  0  0  0  0  0  0  0  0  0  0
   36.7580   34.3170   38.5540 H   0  0  0  0  0  0  0  0  0  0  0  0
  1  5  1  0  0  0  0
  1 12  1  0  0  0  0
  2  1  2  0  0  0  0
  3  2  1  0  0  0  0
  3  4  2  0  0  0  0
  4  5  1  0  0  0  0
  6  2  1  0  0  0  0
  7  3  1  0  0  0  0
  8 14  1  0  0  0  0
  9  8  1  0  0  0  0
  9 15  1  0  0  0  0
 10  9  2  0  0  0  0
 11 12  2  0  0  0  0
 11 10  1  0  0  0  0
 12 13  1  0  0  0  0
 13  8  2  0  0  0  0
 16 10  1  0  0  0  0
 17  4  1  0  0  0  0
 18 19  2  0  0  0  0
 19 17  1  0  0  0  0
 19 20  1  0  0  0  0
 21 20  1  0  0  0  0
 22 19  1  0  0  0  0
 23 22  1  0  0  0  0
M  END
>  <minimizedAffinity>
-4.03806448

$$$$
