
 OpenBabel03242521443D

 36 37  0  0  1  0  0  0  0  0999 V2000
   45.0870   35.7980   44.2800 C   0  0  0  0  0  0  0  0  0  0  0  0
   45.9540   35.0360   43.4770 C   0  0  0  0  0  0  0  0  0  0  0  0
   46.4060   33.7970   43.9400 C   0  0  0  0  0  0  0  0  0  0  0  0
   45.9790   33.4010   45.1380 N   0  0  0  0  0  0  0  0  0  0  0  0
   45.1440   34.1440   45.8990 C   0  0  0  0  0  0  0  0  0  0  0  0
   44.6930   35.3460   45.4750 N   0  0  0  0  0  0  0  0  0  0  0  0
   46.2300   35.4650   42.5230 H   0  0  0  0  0  0  0  0  0  0  0  0
   44.8370   33.7590   46.8650 H   0  0  0  0  0  0  0  0  0  0  0  0
   48.3650   33.8700   42.4120 C   0  0  2  0  0  0  0  0  0  0  0  0
   47.2970   33.0640   43.0620 C   0  0  2  0  0  0  0  0  0  0  0  0
   46.6600   32.4910   41.9210 O   0  0  0  0  0  0  0  0  0  0  0  0
   47.7240   31.9760   41.2080 C   0  0  0  0  0  0  0  0  0  0  0  0
   48.9610   32.7690   41.5130 C   0  0  1  0  0  0  0  0  0  0  0  0
   47.9450   34.6040   41.6660 H   0  0  0  0  0  0  0  0  0  0  0  0
   47.7860   32.2320   43.6420 H   0  0  0  0  0  0  0  0  0  0  0  0
   47.8860   30.9130   41.4740 H   0  0  0  0  0  0  0  0  0  0  0  0
   47.5230   32.0470   40.1270 H   0  0  0  0  0  0  0  0  0  0  0  0
   49.6990   32.2240   42.1140 H   0  0  0  0  0  0  0  0  0  0  0  0
   49.2650   34.4340   43.2640 O   0  0  0  0  0  0  0  0  0  0  0  0
   49.3510   35.4150   43.1560 H   0  0  0  0  0  0  0  0  0  0  0  0
   49.5280   33.3700   40.3910 O   0  0  0  0  0  0  0  0  0  0  0  0
   50.2010   34.0110   40.7310 H   0  0  0  0  0  0  0  0  0  0  0  0
   44.6260   37.1330   43.7610 C   0  0  0  0  0  0  0  0  0  0  0  0
   43.5280   37.1090   43.7160 H   0  0  0  0  0  0  0  0  0  0  0  0
   45.0850   37.3270   42.7880 H   0  0  0  0  0  0  0  0  0  0  0  0
   45.4760   39.4390   44.5100 C   0  0  0  0  0  0  0  0  0  0  0  0
   45.5110   39.8050   43.3010 O   0  0  0  0  0  0  0  0  0  0  0  0
   45.0300   38.1120   44.7610 N   0  0  0  0  0  0  0  0  0  0  0  0
   44.9890   37.8120   45.7790 H   0  0  0  0  0  0  0  0  0  0  0  0
   45.8480   40.2720   45.5590 O   0  0  0  0  0  0  0  0  0  0  0  0
   43.5260   41.5680   45.7550 O   0  0  0  0  0  0  0  0  0  0  0  0
   44.6170   40.9070   46.5990 P   0  0  0  0  0  0  0  0  0  0  0  0
   45.2840   41.9850   47.6950 O   0  0  0  0  0  0  0  0  0  0  0  0
   44.7030   42.8030   47.6820 H   0  0  0  0  0  0  0  0  0  0  0  0
   43.8860   39.5950   47.3580 O   0  0  0  0  0  0  0  0  0  0  0  0
   43.0640   39.2790   46.8650 H   0  0  0  0  0  0  0  0  0  0  0  0
  1  6  1  0  0  0  0
  2  3  1  0  0  0  0
  2  1  2  0  0  0  0
  3  4  2  0  0  0  0
  4  5  1  0  0  0  0
  5  8  1  0  0  0  0
  6  5  2  0  0  0  0
  7  2  1  0  0  0  0
  9 14  1  6  0  0  0
  9 10  1  0  0  0  0
  9 19  1  0  0  0  0
 10 15  1  1  0  0  0
 10  3  1  0  0  0  0
 11 10  1  0  0  0  0
 12 16  1  0  0  0  0
 12 13  1  0  0  0  0
 12 11  1  0  0  0  0
 13 18  1  1  0  0  0
 13  9  1  0  0  0  0
 17 12  1  0  0  0  0
 20 19  1  0  0  0  0
 21 22  1  0  0  0  0
 21 13  1  0  0  0  0
 23  1  1  0  0  0  0
 23 28  1  0  0  0  0
 24 23  1  0  0  0  0
 25 23  1  0  0  0  0
 26 28  1  0  0  0  0
 26 30  1  0  0  0  0
 27 26  2  0  0  0  0
 28 29  1  0  0  0  0
 30 32  1  0  0  0  0
 31 32  2  0  0  0  0
 32 35  1  0  0  0  0
 32 33  1  0  0  0  0
 34 33  1  0  0  0  0
 36 35  1  0  0  0  0
M  END
>  <minimizedAffinity>
-3.80761504

>  <minimizedRMSD>
0.882095039

$$$$
