
 OpenBabel03242521453D

 36 37  0  0  1  0  0  0  0  0999 V2000
   38.1900   27.0570   43.2490 C   0  0  0  0  0  0  0  0  0  0  0  0
   37.4200   26.2560   42.3880 C   0  0  0  0  0  0  0  0  0  0  0  0
   37.8700   24.9730   42.0590 C   0  0  0  0  0  0  0  0  0  0  0  0
   39.0240   24.5770   42.5940 N   0  0  0  0  0  0  0  0  0  0  0  0
   39.7540   25.3590   43.4210 C   0  0  0  0  0  0  0  0  0  0  0  0
   39.3410   26.6030   43.7540 N   0  0  0  0  0  0  0  0  0  0  0  0
   36.5000   26.6890   42.0180 H   0  0  0  0  0  0  0  0  0  0  0  0
   40.6840   24.9710   43.8190 H   0  0  0  0  0  0  0  0  0  0  0  0
   37.7240   23.1570   40.3690 C   0  0  2  0  0  0  0  0  0  0  0  0
   37.0270   24.2000   41.1680 C   0  0  2  0  0  0  0  0  0  0  0  0
   36.4080   24.9630   40.1340 O   0  0  0  0  0  0  0  0  0  0  0  0
   35.7850   23.9930   39.3750 C   0  0  0  0  0  0  0  0  0  0  0  0
   36.5290   22.6960   39.5110 C   0  0  1  0  0  0  0  0  0  0  0  0
   38.4230   23.6050   39.6060 H   0  0  0  0  0  0  0  0  0  0  0  0
   36.2140   23.7030   41.7670 H   0  0  0  0  0  0  0  0  0  0  0  0
   34.7370   23.8590   39.7080 H   0  0  0  0  0  0  0  0  0  0  0  0
   35.7870   24.2850   38.3130 H   0  0  0  0  0  0  0  0  0  0  0  0
   35.9900   21.9360   40.0890 H   0  0  0  0  0  0  0  0  0  0  0  0
   38.2980   22.1590   41.0950 O   0  0  0  0  0  0  0  0  0  0  0  0
   39.2620   22.0350   40.9040 H   0  0  0  0  0  0  0  0  0  0  0  0
   37.0140   22.2030   38.3020 O   0  0  0  0  0  0  0  0  0  0  0  0
   37.6400   21.4720   38.5330 H   0  0  0  0  0  0  0  0  0  0  0  0
   37.6860   28.4380   43.5760 C   0  0  0  0  0  0  0  0  0  0  0  0
   38.4130   28.9010   44.2570 H   0  0  0  0  0  0  0  0  0  0  0  0
   36.6850   28.3700   44.0080 H   0  0  0  0  0  0  0  0  0  0  0  0
   38.5500   30.2540   41.9770 C   0  0  0  0  0  0  0  0  0  0  0  0
   39.3990   30.5970   42.8460 O   0  0  0  0  0  0  0  0  0  0  0  0
   37.6910   29.1730   42.3190 N   0  0  0  0  0  0  0  0  0  0  0  0
   36.9860   28.8780   41.5810 H   0  0  0  0  0  0  0  0  0  0  0  0
   38.4400   30.8830   40.7420 O   0  0  0  0  0  0  0  0  0  0  0  0
   36.4930   30.9870   38.9210 O   0  0  0  0  0  0  0  0  0  0  0  0
   36.9090   31.5530   40.2800 P   0  0  0  0  0  0  0  0  0  0  0  0
   36.9930   33.2260   40.2500 O   0  0  0  0  0  0  0  0  0  0  0  0
   36.5840   33.5170   39.3810 H   0  0  0  0  0  0  0  0  0  0  0  0
   35.7700   30.9890   41.3850 O   0  0  0  0  0  0  0  0  0  0  0  0
   35.3060   30.1540   41.0610 H   0  0  0  0  0  0  0  0  0  0  0  0
  1 23  1  0  0  0  0
  1  6  1  0  0  0  0
  2  1  2  0  0  0  0
  3  2  1  0  0  0  0
  3  4  2  0  0  0  0
  4  5  1  0  0  0  0
  5  6  2  0  0  0  0
  5  8  1  0  0  0  0
  7  2  1  0  0  0  0
  9 14  1  6  0  0  0
  9 19  1  0  0  0  0
  9 10  1  0  0  0  0
 10 15  1  1  0  0  0
 10  3  1  0  0  0  0
 11 10  1  0  0  0  0
 12 13  1  0  0  0  0
 12 16  1  0  0  0  0
 12 11  1  0  0  0  0
 13 18  1  1  0  0  0
 13  9  1  0  0  0  0
 17 12  1  0  0  0  0
 20 19  1  0  0  0  0
 21 22  1  0  0  0  0
 21 13  1  0  0  0  0
 23 25  1  0  0  0  0
 23 24  1  0  0  0  0
 26 28  1  0  0  0  0
 26 27  2  0  0  0  0
 28 23  1  0  0  0  0
 29 28  1  0  0  0  0
 30 26  1  0  0  0  0
 31 32  2  0  0  0  0
 32 30  1  0  0  0  0
 32 35  1  0  0  0  0
 33 32  1  0  0  0  0
 34 33  1  0  0  0  0
 36 35  1  0  0  0  0
M  END
>  <minimizedAffinity>
-6.04055405

$$$$

 OpenBabel03242521453D

 36 37  0  0  1  0  0  0  0  0999 V2000
   36.8240   29.4560   41.4830 C   0  0  0  0  0  0  0  0  0  0  0  0
   36.6330   28.0670   41.3910 C   0  0  0  0  0  0  0  0  0  0  0  0
   37.5150   27.2080   42.0540 C   0  0  0  0  0  0  0  0  0  0  0  0
   38.5030   27.7680   42.7490 N   0  0  0  0  0  0  0  0  0  0  0  0
   38.6750   29.1060   42.8290 C   0  0  0  0  0  0  0  0  0  0  0  0
   37.8360   29.9590   42.1970 N   0  0  0  0  0  0  0  0  0  0  0  0
   35.7930   27.7330   40.7960 H   0  0  0  0  0  0  0  0  0  0  0  0
   39.5020   29.4930   43.4130 H   0  0  0  0  0  0  0  0  0  0  0  0
   38.4670   24.9200   41.8590 C   0  0  2  0  0  0  0  0  0  0  0  0
   37.2600   25.7870   41.9180 C   0  0  2  0  0  0  0  0  0  0  0  0
   36.6040   25.4200   40.7050 O   0  0  0  0  0  0  0  0  0  0  0  0
   36.5990   24.0410   40.7710 C   0  0  0  0  0  0  0  0  0  0  0  0
   37.7630   23.5740   41.5950 C   0  0  1  0  0  0  0  0  0  0  0  0
   39.0590   25.0840   40.9140 H   0  0  0  0  0  0  0  0  0  0  0  0
   36.6190   25.4430   42.7770 H   0  0  0  0  0  0  0  0  0  0  0  0
   35.6530   23.6820   41.2230 H   0  0  0  0  0  0  0  0  0  0  0  0
   36.6940   23.6140   39.7610 H   0  0  0  0  0  0  0  0  0  0  0  0
   37.4790   23.1610   42.5700 H   0  0  0  0  0  0  0  0  0  0  0  0
   39.2410   24.9270   42.9790 O   0  0  0  0  0  0  0  0  0  0  0  0
   40.1880   25.1580   42.8050 H   0  0  0  0  0  0  0  0  0  0  0  0
   38.6400   22.7440   40.9000 O   0  0  0  0  0  0  0  0  0  0  0  0
   39.4500   22.6640   41.4630 H   0  0  0  0  0  0  0  0  0  0  0  0
   35.8650   30.3570   40.7500 C   0  0  0  0  0  0  0  0  0  0  0  0
   34.9770   30.4790   41.3840 H   0  0  0  0  0  0  0  0  0  0  0  0
   35.6330   29.9250   39.7730 H   0  0  0  0  0  0  0  0  0  0  0  0
   37.0880   32.2040   39.4480 C   0  0  0  0  0  0  0  0  0  0  0  0
   36.9720   31.5190   38.3930 O   0  0  0  0  0  0  0  0  0  0  0  0
   36.5360   31.6440   40.6330 N   0  0  0  0  0  0  0  0  0  0  0  0
   36.6230   32.2280   41.5160 H   0  0  0  0  0  0  0  0  0  0  0  0
   37.7180   33.4420   39.4760 O   0  0  0  0  0  0  0  0  0  0  0  0
   40.2490   34.2810   39.5800 O   0  0  0  0  0  0  0  0  0  0  0  0
   39.1560   33.6260   40.4260 P   0  0  0  0  0  0  0  0  0  0  0  0
   39.6490   32.1400   41.0260 O   0  0  0  0  0  0  0  0  0  0  0  0
   40.6330   32.0700   40.8390 H   0  0  0  0  0  0  0  0  0  0  0  0
   38.7990   34.7230   41.6520 O   0  0  0  0  0  0  0  0  0  0  0  0
   39.0520   35.6680   41.4040 H   0  0  0  0  0  0  0  0  0  0  0  0
  1  6  1  0  0  0  0
  2  1  2  0  0  0  0
  2  3  1  0  0  0  0
  3  4  2  0  0  0  0
  4  5  1  0  0  0  0
  5  8  1  0  0  0  0
  6  5  2  0  0  0  0
  7  2  1  0  0  0  0
  9 14  1  6  0  0  0
  9 10  1  0  0  0  0
  9 19  1  0  0  0  0
 10  3  1  0  0  0  0
 10 15  1  1  0  0  0
 11 12  1  0  0  0  0
 11 10  1  0  0  0  0
 12 16  1  0  0  0  0
 12 13  1  0  0  0  0
 13  9  1  0  0  0  0
 13 18  1  1  0  0  0
 17 12  1  0  0  0  0
 20 19  1  0  0  0  0
 21 22  1  0  0  0  0
 21 13  1  0  0  0  0
 23 24  1  0  0  0  0
 23  1  1  0  0  0  0
 25 23  1  0  0  0  0
 26 30  1  0  0  0  0
 26 28  1  0  0  0  0
 27 26  2  0  0  0  0
 28 23  1  0  0  0  0
 28 29  1  0  0  0  0
 30 32  1  0  0  0  0
 31 32  2  0  0  0  0
 32 33  1  0  0  0  0
 32 35  1  0  0  0  0
 34 33  1  0  0  0  0
 36 35  1  0  0  0  0
M  END
>  <minimizedAffinity>
-5.86951637

$$$$

 OpenBabel03242521453D

 36 37  0  0  1  0  0  0  0  0999 V2000
   37.5150   31.7670   39.5040 C   0  0  0  0  0  0  0  0  0  0  0  0
   37.6230   30.7600   40.4790 C   0  0  0  0  0  0  0  0  0  0  0  0
   37.4430   29.4240   40.1080 C   0  0  0  0  0  0  0  0  0  0  0  0
   37.1770   29.1780   38.8260 N   0  0  0  0  0  0  0  0  0  0  0  0
   37.0770   30.1570   37.8990 C   0  0  0  0  0  0  0  0  0  0  0  0
   37.2450   31.4570   38.2320 N   0  0  0  0  0  0  0  0  0  0  0  0
   37.8440   31.0860   41.4880 H   0  0  0  0  0  0  0  0  0  0  0  0
   36.8570   29.8830   36.8740 H   0  0  0  0  0  0  0  0  0  0  0  0
   37.4940   27.0170   40.7260 C   0  0  2  0  0  0  0  0  0  0  0  0
   37.5690   28.4370   41.1630 C   0  0  2  0  0  0  0  0  0  0  0  0
   36.5260   28.4760   42.1350 O   0  0  0  0  0  0  0  0  0  0  0  0
   36.8100   27.3830   42.9270 C   0  0  0  0  0  0  0  0  0  0  0  0
   37.5400   26.3530   42.1170 C   0  0  1  0  0  0  0  0  0  0  0  0
   36.4660   26.7440   40.3510 H   0  0  0  0  0  0  0  0  0  0  0  0
   38.5480   28.5910   41.6980 H   0  0  0  0  0  0  0  0  0  0  0  0
   37.4320   27.6880   43.7920 H   0  0  0  0  0  0  0  0  0  0  0  0
   35.8770   26.9340   43.3010 H   0  0  0  0  0  0  0  0  0  0  0  0
   38.5970   26.2430   42.3880 H   0  0  0  0  0  0  0  0  0  0  0  0
   38.4890   26.6150   39.8890 O   0  0  0  0  0  0  0  0  0  0  0  0
   38.1590   26.2210   39.0420 H   0  0  0  0  0  0  0  0  0  0  0  0
   36.8790   25.1290   42.0450 O   0  0  0  0  0  0  0  0  0  0  0  0
   37.3380   24.6060   41.3410 H   0  0  0  0  0  0  0  0  0  0  0  0
   37.7020   33.1980   39.9350 C   0  0  0  0  0  0  0  0  0  0  0  0
   37.8730   33.1960   41.0200 H   0  0  0  0  0  0  0  0  0  0  0  0
   36.8280   33.7850   39.6450 H   0  0  0  0  0  0  0  0  0  0  0  0
   40.2410   33.5620   39.7770 C   0  0  0  0  0  0  0  0  0  0  0  0
   40.3770   33.0100   40.9050 O   0  0  0  0  0  0  0  0  0  0  0  0
   38.9150   33.6590   39.2720 N   0  0  0  0  0  0  0  0  0  0  0  0
   38.8050   34.1130   38.3190 H   0  0  0  0  0  0  0  0  0  0  0  0
   41.3150   34.0590   39.0480 O   0  0  0  0  0  0  0  0  0  0  0  0
   42.6520   32.0230   37.9600 O   0  0  0  0  0  0  0  0  0  0  0  0
   41.7920   33.2360   37.5990 P   0  0  0  0  0  0  0  0  0  0  0  0
   42.6050   34.2860   36.5770 O   0  0  0  0  0  0  0  0  0  0  0  0
   43.4360   33.8070   36.2780 H   0  0  0  0  0  0  0  0  0  0  0  0
   40.3910   32.6190   36.8980 O   0  0  0  0  0  0  0  0  0  0  0  0
   40.2150   31.6650   37.1750 H   0  0  0  0  0  0  0  0  0  0  0  0
  1 23  1  0  0  0  0
  1  2  1  0  0  0  0
  2  7  1  0  0  0  0
  3  2  2  0  0  0  0
  3 10  1  0  0  0  0
  4  3  1  0  0  0  0
  5  6  1  0  0  0  0
  5  4  2  0  0  0  0
  6  1  2  0  0  0  0
  8  5  1  0  0  0  0
  9 14  1  6  0  0  0
  9 10  1  0  0  0  0
  9 13  1  0  0  0  0
 10 15  1  1  0  0  0
 10 11  1  0  0  0  0
 11 12  1  0  0  0  0
 12 17  1  0  0  0  0
 12 16  1  0  0  0  0
 13 18  1  1  0  0  0
 13 12  1  0  0  0  0
 19  9  1  0  0  0  0
 20 19  1  0  0  0  0
 21 13  1  0  0  0  0
 22 21  1  0  0  0  0
 23 24  1  0  0  0  0
 25 23  1  0  0  0  0
 26 27  2  0  0  0  0
 28 26  1  0  0  0  0
 28 23  1  0  0  0  0
 29 28  1  0  0  0  0
 30 26  1  0  0  0  0
 32 31  2  0  0  0  0
 32 30  1  0  0  0  0
 33 32  1  0  0  0  0
 34 33  1  0  0  0  0
 35 36  1  0  0  0  0
 35 32  1  0  0  0  0
M  END
>  <minimizedAffinity>
-5.77393293

$$$$

 OpenBabel03242521453D

 36 37  0  0  1  0  0  0  0  0999 V2000
   38.4970   30.5890   41.5060 C   0  0  0  0  0  0  0  0  0  0  0  0
   39.4600   31.4080   40.8890 C   0  0  0  0  0  0  0  0  0  0  0  0
   39.1610   32.0150   39.6650 C   0  0  0  0  0  0  0  0  0  0  0  0
   37.9580   31.7790   39.1460 N   0  0  0  0  0  0  0  0  0  0  0  0
   37.0420   30.9900   39.7500 C   0  0  0  0  0  0  0  0  0  0  0  0
   37.3050   30.3910   40.9340 N   0  0  0  0  0  0  0  0  0  0  0  0
   40.4010   31.5220   41.4100 H   0  0  0  0  0  0  0  0  0  0  0  0
   36.0820   30.8430   39.2690 H   0  0  0  0  0  0  0  0  0  0  0  0
   40.7230   32.3940   37.7690 C   0  0  2  0  0  0  0  0  0  0  0  0
   40.1980   32.8460   39.0860 C   0  0  2  0  0  0  0  0  0  0  0  0
   41.4020   32.9060   39.8500 O   0  0  0  0  0  0  0  0  0  0  0  0
   42.2420   33.6360   39.0340 C   0  0  0  0  0  0  0  0  0  0  0  0
   41.8390   33.4450   37.6010 C   0  0  1  0  0  0  0  0  0  0  0  0
   41.2980   31.4280   37.8530 H   0  0  0  0  0  0  0  0  0  0  0  0
   39.8080   33.8960   38.9700 H   0  0  0  0  0  0  0  0  0  0  0  0
   42.1910   34.7120   39.2960 H   0  0  0  0  0  0  0  0  0  0  0  0
   43.2800   33.2890   39.1530 H   0  0  0  0  0  0  0  0  0  0  0  0
   41.3830   34.3320   37.1470 H   0  0  0  0  0  0  0  0  0  0  0  0
   39.8150   32.3870   36.7550 O   0  0  0  0  0  0  0  0  0  0  0  0
   39.7370   31.5110   36.3000 H   0  0  0  0  0  0  0  0  0  0  0  0
   42.8460   32.8990   36.8080 O   0  0  0  0  0  0  0  0  0  0  0  0
   42.4160   32.6380   35.9560 H   0  0  0  0  0  0  0  0  0  0  0  0
   38.8500   29.9390   42.8170 C   0  0  0  0  0  0  0  0  0  0  0  0
   38.0530   30.1850   43.5320 H   0  0  0  0  0  0  0  0  0  0  0  0
   39.8340   30.2850   43.1440 H   0  0  0  0  0  0  0  0  0  0  0  0
   37.9060   27.5680   43.1150 C   0  0  0  0  0  0  0  0  0  0  0  0
   37.0120   28.0340   43.8760 O   0  0  0  0  0  0  0  0  0  0  0  0
   38.8290   28.5040   42.5700 N   0  0  0  0  0  0  0  0  0  0  0  0
   39.5710   28.1120   41.9200 H   0  0  0  0  0  0  0  0  0  0  0  0
   38.0060   26.2160   42.8100 O   0  0  0  0  0  0  0  0  0  0  0  0
   40.3020   25.7020   41.5520 O   0  0  0  0  0  0  0  0  0  0  0  0
   39.5640   25.4590   42.8700 P   0  0  0  0  0  0  0  0  0  0  0  0
   39.4020   23.8220   43.1910 O   0  0  0  0  0  0  0  0  0  0  0  0
   39.9790   23.3420   42.5250 H   0  0  0  0  0  0  0  0  0  0  0  0
   40.4550   26.2580   44.0540 O   0  0  0  0  0  0  0  0  0  0  0  0
   41.0220   26.9980   43.6700 H   0  0  0  0  0  0  0  0  0  0  0  0
  1 23  1  0  0  0  0
  2  7  1  0  0  0  0
  2  1  2  0  0  0  0
  3  2  1  0  0  0  0
  4  3  2  0  0  0  0
  4  5  1  0  0  0  0
  5  6  2  0  0  0  0
  6  1  1  0  0  0  0
  8  5  1  0  0  0  0
  9 14  1  1  0  0  0
  9 10  1  0  0  0  0
 10 15  1  6  0  0  0
 10  3  1  0  0  0  0
 10 11  1  0  0  0  0
 12 17  1  0  0  0  0
 12 16  1  0  0  0  0
 12 11  1  0  0  0  0
 13 18  1  6  0  0  0
 13  9  1  0  0  0  0
 13 12  1  0  0  0  0
 19  9  1  0  0  0  0
 20 19  1  0  0  0  0
 21 13  1  0  0  0  0
 22 21  1  0  0  0  0
 23 25  1  0  0  0  0
 23 24  1  0  0  0  0
 26 27  2  0  0  0  0
 28 23  1  0  0  0  0
 28 26  1  0  0  0  0
 29 28  1  0  0  0  0
 30 32  1  0  0  0  0
 30 26  1  0  0  0  0
 31 32  2  0  0  0  0
 32 33  1  0  0  0  0
 32 35  1  0  0  0  0
 34 33  1  0  0  0  0
 36 35  1  0  0  0  0
M  END
>  <minimizedAffinity>
-5.59977436

$$$$

 OpenBabel03242521453D

 36 37  0  0  1  0  0  0  0  0999 V2000
   36.8830   31.8310   39.8170 C   0  0  0  0  0  0  0  0  0  0  0  0
   36.8180   31.0830   38.6290 C   0  0  0  0  0  0  0  0  0  0  0  0
   36.3730   29.7580   38.6760 C   0  0  0  0  0  0  0  0  0  0  0  0
   36.0300   29.2720   39.8680 N   0  0  0  0  0  0  0  0  0  0  0  0
   36.0970   30.0030   41.0030 C   0  0  0  0  0  0  0  0  0  0  0  0
   36.5240   31.2870   40.9850 N   0  0  0  0  0  0  0  0  0  0  0  0
   37.1240   31.5890   37.7220 H   0  0  0  0  0  0  0  0  0  0  0  0
   35.8020   29.5430   41.9380 H   0  0  0  0  0  0  0  0  0  0  0  0
   37.3060   29.4970   36.3870 C   0  0  2  0  0  0  0  0  0  0  0  0
   36.3290   29.0450   37.4140 C   0  0  2  0  0  0  0  0  0  0  0  0
   35.1030   29.1870   36.7000 O   0  0  0  0  0  0  0  0  0  0  0  0
   35.3680   28.5360   35.5120 C   0  0  0  0  0  0  0  0  0  0  0  0
   36.8390   28.5990   35.2240 C   0  0  1  0  0  0  0  0  0  0  0  0
   37.0760   30.5350   36.0120 H   0  0  0  0  0  0  0  0  0  0  0  0
   36.4960   27.9480   37.6030 H   0  0  0  0  0  0  0  0  0  0  0  0
   35.0440   27.4780   35.5740 H   0  0  0  0  0  0  0  0  0  0  0  0
   34.8300   29.0250   34.6850 H   0  0  0  0  0  0  0  0  0  0  0  0
   37.3530   27.6360   35.3320 H   0  0  0  0  0  0  0  0  0  0  0  0
   38.6160   29.3300   36.7210 O   0  0  0  0  0  0  0  0  0  0  0  0
   39.1470   30.1640   36.6650 H   0  0  0  0  0  0  0  0  0  0  0  0
   37.1450   29.2350   34.0230 O   0  0  0  0  0  0  0  0  0  0  0  0
   38.1220   29.3920   34.0340 H   0  0  0  0  0  0  0  0  0  0  0  0
   37.3760   33.2510   39.7380 C   0  0  0  0  0  0  0  0  0  0  0  0
   37.5250   33.6060   40.7670 H   0  0  0  0  0  0  0  0  0  0  0  0
   36.6580   33.8570   39.1810 H   0  0  0  0  0  0  0  0  0  0  0  0
   39.9320   32.9910   39.7020 C   0  0  0  0  0  0  0  0  0  0  0  0
   39.9220   32.8430   40.9570 O   0  0  0  0  0  0  0  0  0  0  0  0
   38.6710   33.1880   39.0750 N   0  0  0  0  0  0  0  0  0  0  0  0
   38.6810   33.3000   38.0190 H   0  0  0  0  0  0  0  0  0  0  0  0
   41.1010   32.9670   38.9510 O   0  0  0  0  0  0  0  0  0  0  0  0
   42.4830   32.2090   36.7990 O   0  0  0  0  0  0  0  0  0  0  0  0
   41.1620   31.9730   37.5330 P   0  0  0  0  0  0  0  0  0  0  0  0
   39.8450   32.2880   36.5460 O   0  0  0  0  0  0  0  0  0  0  0  0
   40.2060   32.4060   35.6170 H   0  0  0  0  0  0  0  0  0  0  0  0
   41.2010   30.3720   38.0540 O   0  0  0  0  0  0  0  0  0  0  0  0
   42.1430   30.0190   38.1300 H   0  0  0  0  0  0  0  0  0  0  0  0
  1  6  1  0  0  0  0
  2  3  1  0  0  0  0
  2  1  2  0  0  0  0
  3  4  2  0  0  0  0
  4  5  1  0  0  0  0
  5  8  1  0  0  0  0
  6  5  2  0  0  0  0
  7  2  1  0  0  0  0
  9 14  1  6  0  0  0
  9 19  1  0  0  0  0
  9 10  1  0  0  0  0
 10 15  1  1  0  0  0
 10  3  1  0  0  0  0
 11 10  1  0  0  0  0
 12 16  1  0  0  0  0
 12 11  1  0  0  0  0
 13 18  1  1  0  0  0
 13 12  1  0  0  0  0
 13  9  1  0  0  0  0
 17 12  1  0  0  0  0
 20 19  1  0  0  0  0
 21 22  1  0  0  0  0
 21 13  1  0  0  0  0
 23  1  1  0  0  0  0
 23 24  1  0  0  0  0
 25 23  1  0  0  0  0
 26 27  2  0  0  0  0
 28 26  1  0  0  0  0
 28 23  1  0  0  0  0
 29 28  1  0  0  0  0
 30 26  1  0  0  0  0
 31 32  2  0  0  0  0
 32 35  1  0  0  0  0
 32 30  1  0  0  0  0
 33 32  1  0  0  0  0
 34 33  1  0  0  0  0
 35 36  1  0  0  0  0
M  END
>  <minimizedAffinity>
-5.55004072

$$$$

 OpenBabel03242521453D

 36 37  0  0  1  0  0  0  0  0999 V2000
   38.8180   30.1870   40.9990 C   0  0  0  0  0  0  0  0  0  0  0  0
   38.2030   28.9280   41.1200 C   0  0  0  0  0  0  0  0  0  0  0  0
   38.7460   27.9800   41.9920 C   0  0  0  0  0  0  0  0  0  0  0  0
   39.8350   28.3320   42.6730 N   0  0  0  0  0  0  0  0  0  0  0  0
   40.4160   29.5460   42.5470 C   0  0  0  0  0  0  0  0  0  0  0  0
   39.9110   30.4810   41.7100 N   0  0  0  0  0  0  0  0  0  0  0  0
   37.3220   28.7610   40.5140 H   0  0  0  0  0  0  0  0  0  0  0  0
   41.3010   29.7640   43.1330 H   0  0  0  0  0  0  0  0  0  0  0  0
   38.9320   25.5220   42.3100 C   0  0  2  0  0  0  0  0  0  0  0  0
   38.0620   26.7040   42.0690 C   0  0  2  0  0  0  0  0  0  0  0  0
   37.4050   26.3150   40.8640 O   0  0  0  0  0  0  0  0  0  0  0  0
   36.9570   25.0430   41.1620 C   0  0  0  0  0  0  0  0  0  0  0  0
   37.8550   24.4240   42.1920 C   0  0  1  0  0  0  0  0  0  0  0  0
   39.6060   25.3080   41.4320 H   0  0  0  0  0  0  0  0  0  0  0  0
   37.2890   26.7480   42.8870 H   0  0  0  0  0  0  0  0  0  0  0  0
   35.9180   25.0830   41.5460 H   0  0  0  0  0  0  0  0  0  0  0  0
   36.9780   24.4140   40.2580 H   0  0  0  0  0  0  0  0  0  0  0  0
   37.3900   24.3200   43.1790 H   0  0  0  0  0  0  0  0  0  0  0  0
   39.5910   25.5210   43.5000 O   0  0  0  0  0  0  0  0  0  0  0  0
   40.5720   25.4180   43.4090 H   0  0  0  0  0  0  0  0  0  0  0  0
   38.4660   23.2480   41.7630 O   0  0  0  0  0  0  0  0  0  0  0  0
   39.1700   23.0430   42.4290 H   0  0  0  0  0  0  0  0  0  0  0  0
   38.2180   31.1840   40.0440 C   0  0  0  0  0  0  0  0  0  0  0  0
   37.6230   31.8920   40.6370 H   0  0  0  0  0  0  0  0  0  0  0  0
   37.6250   30.6580   39.2920 H   0  0  0  0  0  0  0  0  0  0  0  0
   39.6840   33.2610   39.6740 C   0  0  0  0  0  0  0  0  0  0  0  0
   38.9470   33.9070   40.4710 O   0  0  0  0  0  0  0  0  0  0  0  0
   39.3410   31.8980   39.4540 N   0  0  0  0  0  0  0  0  0  0  0  0
   39.9700   31.3540   38.7940 H   0  0  0  0  0  0  0  0  0  0  0  0
   40.7790   33.8280   39.0330 O   0  0  0  0  0  0  0  0  0  0  0  0
   42.2400   31.8000   38.1000 O   0  0  0  0  0  0  0  0  0  0  0  0
   41.4450   33.0260   37.6480 P   0  0  0  0  0  0  0  0  0  0  0  0
   42.3960   34.0860   36.7650 O   0  0  0  0  0  0  0  0  0  0  0  0
   43.2560   33.6050   36.5730 H   0  0  0  0  0  0  0  0  0  0  0  0
   40.1480   32.4320   36.7520 O   0  0  0  0  0  0  0  0  0  0  0  0
   39.9300   31.4750   36.9850 H   0  0  0  0  0  0  0  0  0  0  0  0
  1  2  2  0  0  0  0
  1  6  1  0  0  0  0
  2  3  1  0  0  0  0
  3 10  1  0  0  0  0
  3  4  2  0  0  0  0
  5  4  1  0  0  0  0
  5  8  1  0  0  0  0
  6  5  2  0  0  0  0
  7  2  1  0  0  0  0
  9 14  1  6  0  0  0
  9 19  1  0  0  0  0
 10  9  1  0  0  0  0
 10 15  1  1  0  0  0
 11 12  1  0  0  0  0
 11 10  1  0  0  0  0
 12 16  1  0  0  0  0
 12 13  1  0  0  0  0
 13  9  1  0  0  0  0
 13 18  1  1  0  0  0
 17 12  1  0  0  0  0
 20 19  1  0  0  0  0
 21 13  1  0  0  0  0
 21 22  1  0  0  0  0
 23 24  1  0  0  0  0
 23  1  1  0  0  0  0
 25 23  1  0  0  0  0
 26 27  2  0  0  0  0
 28 26  1  0  0  0  0
 28 23  1  0  0  0  0
 29 28  1  0  0  0  0
 30 26  1  0  0  0  0
 32 31  2  0  0  0  0
 32 30  1  0  0  0  0
 33 32  1  0  0  0  0
 34 33  1  0  0  0  0
 35 36  1  0  0  0  0
 35 32  1  0  0  0  0
M  END
>  <minimizedAffinity>
-5.50210094

$$$$

 OpenBabel03242521453D

 36 37  0  0  1  0  0  0  0  0999 V2000
   37.0830   29.4180   41.7300 C   0  0  0  0  0  0  0  0  0  0  0  0
   36.7980   28.0580   41.5170 C   0  0  0  0  0  0  0  0  0  0  0  0
   37.6070   27.0870   42.1160 C   0  0  0  0  0  0  0  0  0  0  0  0
   38.6180   27.5150   42.8690 N   0  0  0  0  0  0  0  0  0  0  0  0
   38.8800   28.8270   43.0650 C   0  0  0  0  0  0  0  0  0  0  0  0
   38.1140   29.7870   42.4970 N   0  0  0  0  0  0  0  0  0  0  0  0
   35.9490   27.8350   40.8850 H   0  0  0  0  0  0  0  0  0  0  0  0
   39.7200   29.1040   43.6910 H   0  0  0  0  0  0  0  0  0  0  0  0
   38.3940   24.7450   41.8420 C   0  0  2  0  0  0  0  0  0  0  0  0
   37.2570   25.7040   41.8560 C   0  0  2  0  0  0  0  0  0  0  0  0
   36.6920   25.4710   40.5670 O   0  0  0  0  0  0  0  0  0  0  0  0
   36.5740   24.0960   40.5330 C   0  0  0  0  0  0  0  0  0  0  0  0
   37.6170   23.4820   41.4200 C   0  0  1  0  0  0  0  0  0  0  0  0
   39.0830   24.9200   40.9670 H   0  0  0  0  0  0  0  0  0  0  0  0
   36.5130   25.3600   42.6290 H   0  0  0  0  0  0  0  0  0  0  0  0
   35.5650   23.7890   40.8730 H   0  0  0  0  0  0  0  0  0  0  0  0
   36.7310   23.7290   39.5070 H   0  0  0  0  0  0  0  0  0  0  0  0
   37.2110   23.0320   42.3340 H   0  0  0  0  0  0  0  0  0  0  0  0
   39.0570   24.6150   43.0240 O   0  0  0  0  0  0  0  0  0  0  0  0
   40.0320   24.7770   42.9510 H   0  0  0  0  0  0  0  0  0  0  0  0
   38.4880   22.6290   40.7480 O   0  0  0  0  0  0  0  0  0  0  0  0
   39.2330   22.4450   41.3730 H   0  0  0  0  0  0  0  0  0  0  0  0
   36.2030   30.4420   41.0640 C   0  0  0  0  0  0  0  0  0  0  0  0
   36.0380   31.2540   41.7850 H   0  0  0  0  0  0  0  0  0  0  0  0
   35.2730   29.9690   40.7380 H   0  0  0  0  0  0  0  0  0  0  0  0
   36.7670   30.6660   38.5670 C   0  0  0  0  0  0  0  0  0  0  0  0
   35.8130   29.8830   38.2950 O   0  0  0  0  0  0  0  0  0  0  0  0
   36.9730   30.9630   39.9430 N   0  0  0  0  0  0  0  0  0  0  0  0
   37.7670   31.6310   40.1680 H   0  0  0  0  0  0  0  0  0  0  0  0
   37.5870   31.2200   37.5920 O   0  0  0  0  0  0  0  0  0  0  0  0
   39.9500   30.8760   38.7810 O   0  0  0  0  0  0  0  0  0  0  0  0
   39.0950   31.9280   38.0730 P   0  0  0  0  0  0  0  0  0  0  0  0
   38.8240   33.2620   39.0500 O   0  0  0  0  0  0  0  0  0  0  0  0
   39.4300   33.1610   39.8450 H   0  0  0  0  0  0  0  0  0  0  0  0
   39.9240   32.3270   36.6620 O   0  0  0  0  0  0  0  0  0  0  0  0
   40.5570   31.5970   36.3730 H   0  0  0  0  0  0  0  0  0  0  0  0
  1  6  1  0  0  0  0
  2  1  2  0  0  0  0
  2  3  1  0  0  0  0
  3  4  2  0  0  0  0
  4  5  1  0  0  0  0
  5  8  1  0  0  0  0
  6  5  2  0  0  0  0
  7  2  1  0  0  0  0
  9 14  1  6  0  0  0
  9 10  1  0  0  0  0
  9 19  1  0  0  0  0
 10  3  1  0  0  0  0
 10 15  1  1  0  0  0
 11 10  1  0  0  0  0
 12 11  1  0  0  0  0
 12 16  1  0  0  0  0
 12 13  1  0  0  0  0
 13  9  1  0  0  0  0
 13 18  1  1  0  0  0
 17 12  1  0  0  0  0
 20 19  1  0  0  0  0
 21 22  1  0  0  0  0
 21 13  1  0  0  0  0
 23  1  1  0  0  0  0
 23 24  1  0  0  0  0
 25 23  1  0  0  0  0
 26 28  1  0  0  0  0
 27 26  2  0  0  0  0
 28 29  1  0  0  0  0
 28 23  1  0  0  0  0
 30 32  1  0  0  0  0
 30 26  1  0  0  0  0
 32 31  2  0  0  0  0
 32 33  1  0  0  0  0
 33 34  1  0  0  0  0
 35 32  1  0  0  0  0
 36 35  1  0  0  0  0
M  END
>  <minimizedAffinity>
-5.48311138

$$$$

 OpenBabel03242521453D

 36 37  0  0  1  0  0  0  0  0999 V2000
   39.0350   32.5050   39.5100 C   0  0  0  0  0  0  0  0  0  0  0  0
   40.3960   32.5330   39.1610 C   0  0  0  0  0  0  0  0  0  0  0  0
   41.1410   33.6940   39.3970 C   0  0  0  0  0  0  0  0  0  0  0  0
   40.5040   34.7230   39.9520 N   0  0  0  0  0  0  0  0  0  0  0  0
   39.1940   34.6810   40.2830 C   0  0  0  0  0  0  0  0  0  0  0  0
   38.4510   33.5720   40.0650 N   0  0  0  0  0  0  0  0  0  0  0  0
   40.8000   31.6330   38.7170 H   0  0  0  0  0  0  0  0  0  0  0  0
   38.7410   35.5580   40.7320 H   0  0  0  0  0  0  0  0  0  0  0  0
   42.8030   33.3780   37.5760 C   0  0  2  0  0  0  0  0  0  0  0  0
   42.5380   33.6540   39.0140 C   0  0  2  0  0  0  0  0  0  0  0  0
   43.2900   32.6110   39.6320 O   0  0  0  0  0  0  0  0  0  0  0  0
   44.5190   32.7170   39.0130 C   0  0  0  0  0  0  0  0  0  0  0  0
   44.3410   33.3010   37.6420 C   0  0  1  0  0  0  0  0  0  0  0  0
   42.5110   32.3270   37.2870 H   0  0  0  0  0  0  0  0  0  0  0  0
   43.0220   34.6350   39.2800 H   0  0  0  0  0  0  0  0  0  0  0  0
   45.1950   33.3620   39.6100 H   0  0  0  0  0  0  0  0  0  0  0  0
   44.9770   31.7210   38.9100 H   0  0  0  0  0  0  0  0  0  0  0  0
   44.7210   34.3250   37.5450 H   0  0  0  0  0  0  0  0  0  0  0  0
   42.3340   34.3170   36.7100 O   0  0  0  0  0  0  0  0  0  0  0  0
   41.7400   33.9480   36.0080 H   0  0  0  0  0  0  0  0  0  0  0  0
   44.7880   32.4680   36.6190 O   0  0  0  0  0  0  0  0  0  0  0  0
   44.4470   32.8580   35.7760 H   0  0  0  0  0  0  0  0  0  0  0  0
   38.2560   31.2460   39.2340 C   0  0  0  0  0  0  0  0  0  0  0  0
   38.7920   30.6910   38.4520 H   0  0  0  0  0  0  0  0  0  0  0  0
   37.2340   31.5050   38.9450 H   0  0  0  0  0  0  0  0  0  0  0  0
   37.2540   30.3610   41.4280 C   0  0  0  0  0  0  0  0  0  0  0  0
   36.1860   30.9870   41.1780 O   0  0  0  0  0  0  0  0  0  0  0  0
   38.2970   30.4720   40.4670 N   0  0  0  0  0  0  0  0  0  0  0  0
   39.1890   29.9340   40.6730 H   0  0  0  0  0  0  0  0  0  0  0  0
   37.4280   29.5970   42.5760 O   0  0  0  0  0  0  0  0  0  0  0  0
   38.4760   27.4650   43.7890 O   0  0  0  0  0  0  0  0  0  0  0  0
   38.6920   28.4120   42.6070 P   0  0  0  0  0  0  0  0  0  0  0  0
   40.1890   29.1620   42.6850 O   0  0  0  0  0  0  0  0  0  0  0  0
   40.7030   28.6970   43.4110 H   0  0  0  0  0  0  0  0  0  0  0  0
   38.5200   27.4700   41.2220 O   0  0  0  0  0  0  0  0  0  0  0  0
   37.9740   26.6390   41.3910 H   0  0  0  0  0  0  0  0  0  0  0  0
  1  6  1  0  0  0  0
  2  3  1  0  0  0  0
  2  1  2  0  0  0  0
  3  4  2  0  0  0  0
  4  5  1  0  0  0  0
  5  8  1  0  0  0  0
  6  5  2  0  0  0  0
  7  2  1  0  0  0  0
  9 14  1  6  0  0  0
  9 13  1  0  0  0  0
  9 10  1  0  0  0  0
 10 15  1  1  0  0  0
 10  3  1  0  0  0  0
 10 11  1  0  0  0  0
 12 16  1  0  0  0  0
 12 11  1  0  0  0  0
 13 18  1  6  0  0  0
 13 12  1  0  0  0  0
 17 12  1  0  0  0  0
 19  9  1  0  0  0  0
 20 19  1  0  0  0  0
 21 13  1  0  0  0  0
 22 21  1  0  0  0  0
 23  1  1  0  0  0  0
 23 28  1  0  0  0  0
 24 23  1  0  0  0  0
 25 23  1  0  0  0  0
 26 30  1  0  0  0  0
 27 26  2  0  0  0  0
 28 29  1  0  0  0  0
 28 26  1  0  0  0  0
 30 32  1  0  0  0  0
 32 33  1  0  0  0  0
 32 31  2  0  0  0  0
 33 34  1  0  0  0  0
 35 36  1  0  0  0  0
 35 32  1  0  0  0  0
M  END
>  <minimizedAffinity>
-5.44360542

$$$$

 OpenBabel03242521453D

 36 37  0  0  1  0  0  0  0  0999 V2000
   39.0280   31.0300   41.5480 C   0  0  0  0  0  0  0  0  0  0  0  0
   39.9270   31.8700   40.8680 C   0  0  0  0  0  0  0  0  0  0  0  0
   39.5620   32.4050   39.6290 C   0  0  0  0  0  0  0  0  0  0  0  0
   38.3590   32.0830   39.1570 N   0  0  0  0  0  0  0  0  0  0  0  0
   37.5040   31.2740   39.8220 C   0  0  0  0  0  0  0  0  0  0  0  0
   37.8330   30.7420   41.0220 N   0  0  0  0  0  0  0  0  0  0  0  0
   40.8750   32.0580   41.3550 H   0  0  0  0  0  0  0  0  0  0  0  0
   36.5410   31.0540   39.3780 H   0  0  0  0  0  0  0  0  0  0  0  0
   41.1380   32.7260   37.7340 C   0  0  2  0  0  0  0  0  0  0  0  0
   40.5350   33.2640   38.9840 C   0  0  2  0  0  0  0  0  0  0  0  0
   41.7050   33.5170   39.7600 O   0  0  0  0  0  0  0  0  0  0  0  0
   42.4980   34.2330   38.8860 C   0  0  0  0  0  0  0  0  0  0  0  0
   42.1580   33.8530   37.4750 C   0  0  1  0  0  0  0  0  0  0  0  0
   41.7960   31.8320   37.9340 H   0  0  0  0  0  0  0  0  0  0  0  0
   40.0540   34.2540   38.7460 H   0  0  0  0  0  0  0  0  0  0  0  0
   42.3420   35.3200   39.0280 H   0  0  0  0  0  0  0  0  0  0  0  0
   43.5600   34.0000   39.0620 H   0  0  0  0  0  0  0  0  0  0  0  0
   41.6350   34.6400   36.9180 H   0  0  0  0  0  0  0  0  0  0  0  0
   40.2650   32.5260   36.7090 O   0  0  0  0  0  0  0  0  0  0  0  0
   40.2800   31.6020   36.3510 H   0  0  0  0  0  0  0  0  0  0  0  0
   43.2330   33.3220   36.7660 O   0  0  0  0  0  0  0  0  0  0  0  0
   42.8550   32.9330   35.9380 H   0  0  0  0  0  0  0  0  0  0  0  0
   39.4530   30.4590   42.8750 C   0  0  0  0  0  0  0  0  0  0  0  0
   39.0100   31.0860   43.6610 H   0  0  0  0  0  0  0  0  0  0  0  0
   40.5440   30.4230   42.9260 H   0  0  0  0  0  0  0  0  0  0  0  0
   39.5510   27.9060   43.1530 C   0  0  0  0  0  0  0  0  0  0  0  0
   40.8030   27.9830   43.3000 O   0  0  0  0  0  0  0  0  0  0  0  0
   38.8580   29.1310   42.9480 N   0  0  0  0  0  0  0  0  0  0  0  0
   37.8040   29.0650   42.8390 H   0  0  0  0  0  0  0  0  0  0  0  0
   38.8620   26.7000   43.1870 O   0  0  0  0  0  0  0  0  0  0  0  0
   36.2890   27.3390   43.4800 O   0  0  0  0  0  0  0  0  0  0  0  0
   37.2590   26.6350   42.5310 P   0  0  0  0  0  0  0  0  0  0  0  0
   36.8080   25.0440   42.2590 O   0  0  0  0  0  0  0  0  0  0  0  0
   35.8890   24.9370   42.6490 H   0  0  0  0  0  0  0  0  0  0  0  0
   37.2680   27.5470   41.1160 O   0  0  0  0  0  0  0  0  0  0  0  0
   36.9770   28.5000   41.2750 H   0  0  0  0  0  0  0  0  0  0  0  0
  1 23  1  0  0  0  0
  2  7  1  0  0  0  0
  2  1  2  0  0  0  0
  3  2  1  0  0  0  0
  4  3  2  0  0  0  0
  4  5  1  0  0  0  0
  5  6  2  0  0  0  0
  6  1  1  0  0  0  0
  8  5  1  0  0  0  0
  9 14  1  1  0  0  0
  9 10  1  0  0  0  0
 10 15  1  6  0  0  0
 10  3  1  0  0  0  0
 10 11  1  0  0  0  0
 12 16  1  0  0  0  0
 12 17  1  0  0  0  0
 12 11  1  0  0  0  0
 13 18  1  6  0  0  0
 13  9  1  0  0  0  0
 13 12  1  0  0  0  0
 19  9  1  0  0  0  0
 20 19  1  0  0  0  0
 21 13  1  0  0  0  0
 22 21  1  0  0  0  0
 23 25  1  0  0  0  0
 23 28  1  0  0  0  0
 23 24  1  0  0  0  0
 26 30  1  0  0  0  0
 26 27  2  0  0  0  0
 28 26  1  0  0  0  0
 29 28  1  0  0  0  0
 32 30  1  0  0  0  0
 32 31  2  0  0  0  0
 33 32  1  0  0  0  0
 33 34  1  0  0  0  0
 35 36  1  0  0  0  0
 35 32  1  0  0  0  0
M  END
>  <minimizedAffinity>
-5.4134059

$$$$
