
 OpenBabel03252509283D

 19 19  0  0  0  0  0  0  0  0999 V2000
   47.1620   33.9770   42.4740 C   0  0  0  0  0  0  0  0  0  0  0  0
   47.4190   34.8420   41.7970 H   0  0  0  0  0  0  0  0  0  0  0  0
   46.6350   33.2460   41.8150 H   0  0  0  0  0  0  0  0  0  0  0  0
   45.2950   34.2310   45.6970 C   0  0  0  0  0  0  0  0  0  0  0  0
   46.1680   33.7460   44.7070 C   0  0  0  0  0  0  0  0  0  0  0  0
   46.2620   34.4570   43.5210 C   0  0  0  0  0  0  0  0  0  0  0  0
   45.5040   35.5950   43.3680 N   0  0  0  0  0  0  0  0  0  0  0  0
   44.6730   36.0290   44.3480 C   0  0  0  0  0  0  0  0  0  0  0  0
   44.5740   35.3500   45.4940 N   0  0  0  0  0  0  0  0  0  0  0  0
   45.2840   33.6110   46.5930 H   0  0  0  0  0  0  0  0  0  0  0  0
   46.7670   32.8410   44.8360 H   0  0  0  0  0  0  0  0  0  0  0  0
   44.0850   36.9260   44.2060 H   0  0  0  0  0  0  0  0  0  0  0  0
   48.3180   33.4170   43.0170 O   0  0  0  0  0  0  0  0  0  0  0  0
   50.6600   33.1080   41.9010 O   0  0  0  0  0  0  0  0  0  0  0  0
   49.6270   34.1480   42.2310 P   0  0  0  0  0  0  0  0  0  0  0  0
   50.2120   35.3610   43.2480 O   0  0  0  0  0  0  0  0  0  0  0  0
   50.2530   35.0670   44.1860 H   0  0  0  0  0  0  0  0  0  0  0  0
   49.0660   34.8070   40.7810 O   0  0  0  0  0  0  0  0  0  0  0  0
   48.7250   34.0450   40.2350 H   0  0  0  0  0  0  0  0  0  0  0  0
  1 13  1  0  0  0  0
  1  6  1  0  0  0  0
  2  1  1  0  0  0  0
  3  1  1  0  0  0  0
  4 10  1  0  0  0  0
  5 11  1  0  0  0  0
  5  4  2  0  0  0  0
  6  5  1  0  0  0  0
  7  6  2  0  0  0  0
  7  8  1  0  0  0  0
  8  9  2  0  0  0  0
  9  4  1  0  0  0  0
 12  8  1  0  0  0  0
 14 15  2  0  0  0  0
 15 13  1  0  0  0  0
 15 16  1  0  0  0  0
 16 17  1  0  0  0  0
 18 15  1  0  0  0  0
 19 18  1  0  0  0  0
M  END
>  <minimizedAffinity>
-4.5224967

>  <minimizedRMSD>
2.87764859

$$$$
