
 OpenBabel03252503423D

 19 19  0  0  0  0  0  0  0  0999 V2000
   37.9660   26.6590   40.8130 C   0  0  0  0  0  0  0  0  0  0  0  0
   37.2730   26.3500   41.9720 C   0  0  0  0  0  0  0  0  0  0  0  0
   36.8990   27.4130   42.8010 C   0  0  0  0  0  0  0  0  0  0  0  0
   37.2410   28.6550   42.4110 N   0  0  0  0  0  0  0  0  0  0  0  0
   37.9140   28.9200   41.2780 C   0  0  0  0  0  0  0  0  0  0  0  0
   38.3000   27.9130   40.4370 N   0  0  0  0  0  0  0  0  0  0  0  0
   38.3180   25.9210   40.0760 H   0  0  0  0  0  0  0  0  0  0  0  0
   36.3700   27.1310   43.6800 H   0  0  0  0  0  0  0  0  0  0  0  0
   37.0090   24.9210   42.1960 C   0  0  0  0  0  0  0  0  0  0  0  0
   36.7380   24.6980   43.2480 H   0  0  0  0  0  0  0  0  0  0  0  0
   36.1690   24.6590   41.5140 H   0  0  0  0  0  0  0  0  0  0  0  0
   37.9200   24.3560   41.9190 H   0  0  0  0  0  0  0  0  0  0  0  0
   38.1980   30.2510   41.0040 O   0  0  0  0  0  0  0  0  0  0  0  0
   36.5830   30.9450   39.0330 O   0  0  0  0  0  0  0  0  0  0  0  0
   36.9280   31.2780   40.4890 P   0  0  0  0  0  0  0  0  0  0  0  0
   37.3980   32.8970   40.6150 O   0  0  0  0  0  0  0  0  0  0  0  0
   36.8510   33.4140   39.9700 H   0  0  0  0  0  0  0  0  0  0  0  0
   35.5310   30.9820   41.3910 O   0  0  0  0  0  0  0  0  0  0  0  0
   35.5240   31.3820   42.2750 H   0  0  0  0  0  0  0  0  0  0  0  0
  1  2  1  0  0  0  0
  2  9  1  0  0  0  0
  2  3  2  0  0  0  0
  3  8  1  0  0  0  0
  4  3  1  0  0  0  0
  5  4  2  0  0  0  0
  6  1  2  0  0  0  0
  6  5  1  0  0  0  0
  7  1  1  0  0  0  0
  9 10  1  0  0  0  0
 11  9  1  0  0  0  0
 12  9  1  0  0  0  0
 13  5  1  0  0  0  0
 14 15  2  0  0  0  0
 15 16  1  0  0  0  0
 15 13  1  0  0  0  0
 15 18  1  0  0  0  0
 17 16  1  0  0  0  0
 18 19  1  0  0  0  0
M  END
>  <minimizedAffinity>
-4.47789764

$$$$

 OpenBabel03252503423D

 19 19  0  0  0  0  0  0  0  0999 V2000
   40.3380   28.5140   42.3930 C   0  0  0  0  0  0  0  0  0  0  0  0
   39.4090   27.7980   43.1320 C   0  0  0  0  0  0  0  0  0  0  0  0
   38.1360   28.3570   43.2800 C   0  0  0  0  0  0  0  0  0  0  0  0
   37.9080   29.5480   42.6950 N   0  0  0  0  0  0  0  0  0  0  0  0
   38.8330   30.2160   41.9840 C   0  0  0  0  0  0  0  0  0  0  0  0
   40.0910   29.7090   41.8120 N   0  0  0  0  0  0  0  0  0  0  0  0
   41.3720   28.1890   42.2000 H   0  0  0  0  0  0  0  0  0  0  0  0
   37.4550   27.7750   43.8540 H   0  0  0  0  0  0  0  0  0  0  0  0
   39.8800   26.5170   43.6790 C   0  0  0  0  0  0  0  0  0  0  0  0
   39.2300   26.1390   44.4950 H   0  0  0  0  0  0  0  0  0  0  0  0
   39.8840   25.8070   42.8230 H   0  0  0  0  0  0  0  0  0  0  0  0
   40.9090   26.6650   44.0620 H   0  0  0  0  0  0  0  0  0  0  0  0
   38.4550   31.4350   41.4370 O   0  0  0  0  0  0  0  0  0  0  0  0
   37.1320   30.5610   39.3260 O   0  0  0  0  0  0  0  0  0  0  0  0
   37.0130   31.5180   40.5170 P   0  0  0  0  0  0  0  0  0  0  0  0
   36.7600   33.0950   39.9670 O   0  0  0  0  0  0  0  0  0  0  0  0
   36.1940   33.0380   39.1550 H   0  0  0  0  0  0  0  0  0  0  0  0
   35.7010   30.9790   41.4330 O   0  0  0  0  0  0  0  0  0  0  0  0
   35.3550   31.6240   42.0700 H   0  0  0  0  0  0  0  0  0  0  0  0
  1  2  1  0  0  0  0
  2  3  2  0  0  0  0
  2  9  1  0  0  0  0
  3  8  1  0  0  0  0
  4  3  1  0  0  0  0
  5  4  2  0  0  0  0
  6  5  1  0  0  0  0
  6  1  2  0  0  0  0
  7  1  1  0  0  0  0
  9 12  1  0  0  0  0
  9 10  1  0  0  0  0
 11  9  1  0  0  0  0
 13  5  1  0  0  0  0
 14 15  2  0  0  0  0
 15 18  1  0  0  0  0
 15 13  1  0  0  0  0
 16 15  1  0  0  0  0
 17 16  1  0  0  0  0
 18 19  1  0  0  0  0
M  END
>  <minimizedAffinity>
-4.40522718

$$$$

 OpenBabel03252503423D

 19 19  0  0  0  0  0  0  0  0999 V2000
   37.5170   29.3440   42.6390 C   0  0  0  0  0  0  0  0  0  0  0  0
   36.8680   28.1400   42.4120 C   0  0  0  0  0  0  0  0  0  0  0  0
   36.6530   27.7650   41.0830 C   0  0  0  0  0  0  0  0  0  0  0  0
   37.0910   28.6000   40.1220 N   0  0  0  0  0  0  0  0  0  0  0  0
   37.7190   29.7620   40.3770 C   0  0  0  0  0  0  0  0  0  0  0  0
   37.9510   30.1700   41.6610 N   0  0  0  0  0  0  0  0  0  0  0  0
   37.7490   29.7550   43.6330 H   0  0  0  0  0  0  0  0  0  0  0  0
   36.1520   26.8350   40.9550 H   0  0  0  0  0  0  0  0  0  0  0  0
   36.4790   27.3900   43.6160 C   0  0  0  0  0  0  0  0  0  0  0  0
   35.7140   26.6150   43.4040 H   0  0  0  0  0  0  0  0  0  0  0  0
   37.4140   26.9210   43.9940 H   0  0  0  0  0  0  0  0  0  0  0  0
   36.0820   28.1120   44.3560 H   0  0  0  0  0  0  0  0  0  0  0  0
   38.1150   30.5230   39.2840 O   0  0  0  0  0  0  0  0  0  0  0  0
   39.2420   32.8800   39.6650 O   0  0  0  0  0  0  0  0  0  0  0  0
   37.8980   32.2200   39.3370 P   0  0  0  0  0  0  0  0  0  0  0  0
   36.7540   32.6270   40.5120 O   0  0  0  0  0  0  0  0  0  0  0  0
   36.9380   33.5600   40.7940 H   0  0  0  0  0  0  0  0  0  0  0  0
   37.4390   32.8010   37.8190 O   0  0  0  0  0  0  0  0  0  0  0  0
   36.5030   32.6670   37.5970 H   0  0  0  0  0  0  0  0  0  0  0  0
  1  7  1  0  0  0  0
  2  1  1  0  0  0  0
  2  9  1  0  0  0  0
  3  2  2  0  0  0  0
  4  5  2  0  0  0  0
  4  3  1  0  0  0  0
  5  6  1  0  0  0  0
  6  1  2  0  0  0  0
  8  3  1  0  0  0  0
  9 11  1  0  0  0  0
  9 12  1  0  0  0  0
 10  9  1  0  0  0  0
 13 15  1  0  0  0  0
 13  5  1  0  0  0  0
 15 14  2  0  0  0  0
 15 16  1  0  0  0  0
 16 17  1  0  0  0  0
 18 15  1  0  0  0  0
 19 18  1  0  0  0  0
M  END
>  <minimizedAffinity>
-4.05458021

$$$$

 OpenBabel03252503423D

 19 19  0  0  0  0  0  0  0  0999 V2000
   39.5280   27.3760   41.8800 C   0  0  0  0  0  0  0  0  0  0  0  0
   39.9800   28.4520   42.6280 C   0  0  0  0  0  0  0  0  0  0  0  0
   39.0620   29.4650   42.9200 C   0  0  0  0  0  0  0  0  0  0  0  0
   37.8070   29.3200   42.4530 N   0  0  0  0  0  0  0  0  0  0  0  0
   37.4010   28.2620   41.7300 C   0  0  0  0  0  0  0  0  0  0  0  0
   38.2630   27.2480   41.4200 N   0  0  0  0  0  0  0  0  0  0  0  0
   40.1440   26.5150   41.5810 H   0  0  0  0  0  0  0  0  0  0  0  0
   39.4510   30.2710   43.4950 H   0  0  0  0  0  0  0  0  0  0  0  0
   41.3930   28.3980   43.0310 C   0  0  0  0  0  0  0  0  0  0  0  0
   41.7830   29.3870   43.3470 H   0  0  0  0  0  0  0  0  0  0  0  0
   41.4390   27.6740   43.8750 H   0  0  0  0  0  0  0  0  0  0  0  0
   41.9820   28.0240   42.1700 H   0  0  0  0  0  0  0  0  0  0  0  0
   36.0750   28.2480   41.3150 O   0  0  0  0  0  0  0  0  0  0  0  0
   36.2750   29.6940   39.1140 O   0  0  0  0  0  0  0  0  0  0  0  0
   35.4760   29.5770   40.4170 P   0  0  0  0  0  0  0  0  0  0  0  0
   35.6230   31.0020   41.3140 O   0  0  0  0  0  0  0  0  0  0  0  0
   35.6580   31.7550   40.6690 H   0  0  0  0  0  0  0  0  0  0  0  0
   33.8700   29.3070   39.9690 O   0  0  0  0  0  0  0  0  0  0  0  0
   33.2190   29.4620   40.6720 H   0  0  0  0  0  0  0  0  0  0  0  0
  1  2  1  0  0  0  0
  2  3  2  0  0  0  0
  2  9  1  0  0  0  0
  3  8  1  0  0  0  0
  4  3  1  0  0  0  0
  5  4  2  0  0  0  0
  6  5  1  0  0  0  0
  6  1  2  0  0  0  0
  7  1  1  0  0  0  0
  9 10  1  0  0  0  0
  9 11  1  0  0  0  0
 12  9  1  0  0  0  0
 13  5  1  0  0  0  0
 14 15  2  0  0  0  0
 15 16  1  0  0  0  0
 15 13  1  0  0  0  0
 17 16  1  0  0  0  0
 18 15  1  0  0  0  0
 18 19  1  0  0  0  0
M  END
>  <minimizedAffinity>
-4.05074978

$$$$

 OpenBabel03252503423D

 19 19  0  0  0  0  0  0  0  0999 V2000
   36.5220   27.5350   40.8080 C   0  0  0  0  0  0  0  0  0  0  0  0
   37.1250   27.1350   41.9910 C   0  0  0  0  0  0  0  0  0  0  0  0
   37.4780   28.1330   42.9040 C   0  0  0  0  0  0  0  0  0  0  0  0
   37.2070   29.4080   42.5660 N   0  0  0  0  0  0  0  0  0  0  0  0
   36.6210   29.7620   41.4100 C   0  0  0  0  0  0  0  0  0  0  0  0
   36.2580   28.8210   40.4870 N   0  0  0  0  0  0  0  0  0  0  0  0
   36.1950   26.8540   40.0080 H   0  0  0  0  0  0  0  0  0  0  0  0
   37.9380   27.7820   43.7970 H   0  0  0  0  0  0  0  0  0  0  0  0
   37.3230   25.6860   42.1470 C   0  0  0  0  0  0  0  0  0  0  0  0
   38.0620   25.4400   42.9360 H   0  0  0  0  0  0  0  0  0  0  0  0
   36.3230   25.2710   42.4070 H   0  0  0  0  0  0  0  0  0  0  0  0
   37.6660   25.2800   41.1750 H   0  0  0  0  0  0  0  0  0  0  0  0
   36.4030   31.1170   41.1960 O   0  0  0  0  0  0  0  0  0  0  0  0
   38.7360   31.6560   40.0840 O   0  0  0  0  0  0  0  0  0  0  0  0
   37.2320   31.8960   39.9160 P   0  0  0  0  0  0  0  0  0  0  0  0
   36.9060   33.5540   39.9310 O   0  0  0  0  0  0  0  0  0  0  0  0
   37.6630   34.0080   39.4810 H   0  0  0  0  0  0  0  0  0  0  0  0
   36.8020   31.2080   38.4340 O   0  0  0  0  0  0  0  0  0  0  0  0
   35.9440   31.4990   38.0840 H   0  0  0  0  0  0  0  0  0  0  0  0
  1  2  1  0  0  0  0
  2  9  1  0  0  0  0
  2  3  2  0  0  0  0
  3  8  1  0  0  0  0
  4  3  1  0  0  0  0
  5  4  2  0  0  0  0
  6  1  2  0  0  0  0
  6  5  1  0  0  0  0
  7  1  1  0  0  0  0
  9 11  1  0  0  0  0
  9 10  1  0  0  0  0
 12  9  1  0  0  0  0
 13  5  1  0  0  0  0
 15 16  1  0  0  0  0
 15 14  2  0  0  0  0
 15 13  1  0  0  0  0
 17 16  1  0  0  0  0
 18 15  1  0  0  0  0
 19 18  1  0  0  0  0
M  END
>  <minimizedAffinity>
-4.02815008

$$$$

 OpenBabel03252503423D

 19 19  0  0  0  0  0  0  0  0999 V2000
   39.6880   28.8090   41.8760 C   0  0  0  0  0  0  0  0  0  0  0  0
   39.0390   28.2170   42.9480 C   0  0  0  0  0  0  0  0  0  0  0  0
   37.7340   28.6360   43.2220 C   0  0  0  0  0  0  0  0  0  0  0  0
   37.2040   29.5840   42.4250 N   0  0  0  0  0  0  0  0  0  0  0  0
   37.8620   30.1370   41.3920 C   0  0  0  0  0  0  0  0  0  0  0  0
   39.1400   29.7590   41.0860 N   0  0  0  0  0  0  0  0  0  0  0  0
   40.7120   28.5720   41.5520 H   0  0  0  0  0  0  0  0  0  0  0  0
   37.2740   28.1560   44.0530 H   0  0  0  0  0  0  0  0  0  0  0  0
   39.8130   27.2030   43.6800 C   0  0  0  0  0  0  0  0  0  0  0  0
   39.3900   26.9870   44.6820 H   0  0  0  0  0  0  0  0  0  0  0  0
   39.7910   26.2900   43.0430 H   0  0  0  0  0  0  0  0  0  0  0  0
   40.8510   27.5740   43.7860 H   0  0  0  0  0  0  0  0  0  0  0  0
   37.1890   31.1050   40.6560 O   0  0  0  0  0  0  0  0  0  0  0  0
   38.7590   32.2590   38.8740 O   0  0  0  0  0  0  0  0  0  0  0  0
   38.0290   32.5240   40.1950 P   0  0  0  0  0  0  0  0  0  0  0  0
   39.1400   32.9610   41.3910 O   0  0  0  0  0  0  0  0  0  0  0  0
   39.8500   33.4970   40.9530 H   0  0  0  0  0  0  0  0  0  0  0  0
   36.9390   33.7790   39.8940 O   0  0  0  0  0  0  0  0  0  0  0  0
   36.5920   34.2170   40.6880 H   0  0  0  0  0  0  0  0  0  0  0  0
  1  2  1  0  0  0  0
  2  3  2  0  0  0  0
  2  9  1  0  0  0  0
  3  8  1  0  0  0  0
  4  3  1  0  0  0  0
  5  4  2  0  0  0  0
  6  5  1  0  0  0  0
  6  1  2  0  0  0  0
  7  1  1  0  0  0  0
  9 12  1  0  0  0  0
  9 10  1  0  0  0  0
 11  9  1  0  0  0  0
 13  5  1  0  0  0  0
 14 15  2  0  0  0  0
 15 13  1  0  0  0  0
 15 16  1  0  0  0  0
 17 16  1  0  0  0  0
 18 15  1  0  0  0  0
 18 19  1  0  0  0  0
M  END
>  <minimizedAffinity>
-3.90188193

$$$$

 OpenBabel03252503423D

 19 19  0  0  0  0  0  0  0  0999 V2000
   38.4020   25.9760   41.6820 C   0  0  0  0  0  0  0  0  0  0  0  0
   37.8400   24.9070   41.0010 C   0  0  0  0  0  0  0  0  0  0  0  0
   36.8380   25.1930   40.0680 C   0  0  0  0  0  0  0  0  0  0  0  0
   36.4930   26.4840   39.9020 N   0  0  0  0  0  0  0  0  0  0  0  0
   37.0600   27.4970   40.5790 C   0  0  0  0  0  0  0  0  0  0  0  0
   38.0430   27.2660   41.5010 N   0  0  0  0  0  0  0  0  0  0  0  0
   39.1960   25.8910   42.4390 H   0  0  0  0  0  0  0  0  0  0  0  0
   36.4350   24.3440   39.5690 H   0  0  0  0  0  0  0  0  0  0  0  0
   38.3730   23.5810   41.3450 C   0  0  0  0  0  0  0  0  0  0  0  0
   37.7060   22.7570   41.0200 H   0  0  0  0  0  0  0  0  0  0  0  0
   39.3580   23.5100   40.8320 H   0  0  0  0  0  0  0  0  0  0  0  0
   38.5070   23.5400   42.4440 H   0  0  0  0  0  0  0  0  0  0  0  0
   36.6030   28.7800   40.3040 O   0  0  0  0  0  0  0  0  0  0  0  0
   38.1830   30.7210   41.1440 O   0  0  0  0  0  0  0  0  0  0  0  0
   36.8600   30.0150   41.4610 P   0  0  0  0  0  0  0  0  0  0  0  0
   36.9130   29.3580   43.0170 O   0  0  0  0  0  0  0  0  0  0  0  0
   37.4380   29.9800   43.5820 H   0  0  0  0  0  0  0  0  0  0  0  0
   35.6520   31.1910   41.3420 O   0  0  0  0  0  0  0  0  0  0  0  0
   34.8070   30.9510   41.7550 H   0  0  0  0  0  0  0  0  0  0  0  0
  1  7  1  0  0  0  0
  2  9  1  0  0  0  0
  2  1  2  0  0  0  0
  3  2  1  0  0  0  0
  4  3  2  0  0  0  0
  4  5  1  0  0  0  0
  5  6  2  0  0  0  0
  6  1  1  0  0  0  0
  8  3  1  0  0  0  0
  9 12  1  0  0  0  0
 10  9  1  0  0  0  0
 11  9  1  0  0  0  0
 13  5  1  0  0  0  0
 13 15  1  0  0  0  0
 14 15  2  0  0  0  0
 15 16  1  0  0  0  0
 16 17  1  0  0  0  0
 18 15  1  0  0  0  0
 18 19  1  0  0  0  0
M  END
>  <minimizedAffinity>
-3.88846922

$$$$

 OpenBabel03252503423D

 19 19  0  0  0  0  0  0  0  0999 V2000
   37.8340   25.6800   40.0550 C   0  0  0  0  0  0  0  0  0  0  0  0
   37.7310   24.6500   40.9780 C   0  0  0  0  0  0  0  0  0  0  0  0
   37.2200   24.9660   42.2400 C   0  0  0  0  0  0  0  0  0  0  0  0
   36.8680   26.2460   42.4660 N   0  0  0  0  0  0  0  0  0  0  0  0
   36.9810   27.2210   41.5470 C   0  0  0  0  0  0  0  0  0  0  0  0
   37.4750   26.9590   40.2990 N   0  0  0  0  0  0  0  0  0  0  0  0
   38.2180   25.5680   39.0290 H   0  0  0  0  0  0  0  0  0  0  0  0
   37.1590   24.1470   42.9170 H   0  0  0  0  0  0  0  0  0  0  0  0
   38.1770   23.3290   40.5110 C   0  0  0  0  0  0  0  0  0  0  0  0
   38.3640   22.6240   41.3470 H   0  0  0  0  0  0  0  0  0  0  0  0
   37.3600   22.9490   39.8570 H   0  0  0  0  0  0  0  0  0  0  0  0
   39.1060   23.4680   39.9250 H   0  0  0  0  0  0  0  0  0  0  0  0
   36.5770   28.4960   41.9210 O   0  0  0  0  0  0  0  0  0  0  0  0
   34.6890   29.0160   40.1510 O   0  0  0  0  0  0  0  0  0  0  0  0
   36.0020   29.5680   40.7160 P   0  0  0  0  0  0  0  0  0  0  0  0
   37.1420   29.7240   39.4790 O   0  0  0  0  0  0  0  0  0  0  0  0
   36.6550   29.9950   38.6600 H   0  0  0  0  0  0  0  0  0  0  0  0
   35.6350   31.0710   41.3940 O   0  0  0  0  0  0  0  0  0  0  0  0
   36.4030   31.6400   41.5630 H   0  0  0  0  0  0  0  0  0  0  0  0
  1  6  2  0  0  0  0
  1  2  1  0  0  0  0
  2  3  2  0  0  0  0
  3  4  1  0  0  0  0
  3  8  1  0  0  0  0
  5 13  1  0  0  0  0
  5  4  2  0  0  0  0
  6  5  1  0  0  0  0
  7  1  1  0  0  0  0
  9  2  1  0  0  0  0
  9 10  1  0  0  0  0
 11  9  1  0  0  0  0
 12  9  1  0  0  0  0
 14 15  2  0  0  0  0
 15 18  1  0  0  0  0
 15 13  1  0  0  0  0
 16 15  1  0  0  0  0
 17 16  1  0  0  0  0
 18 19  1  0  0  0  0
M  END
>  <minimizedAffinity>
-3.76367807

$$$$

 OpenBabel03252503423D

 19 19  0  0  0  0  0  0  0  0999 V2000
   39.9390   27.0150   41.4000 C   0  0  0  0  0  0  0  0  0  0  0  0
   40.0800   26.2690   42.5600 C   0  0  0  0  0  0  0  0  0  0  0  0
   39.3480   26.6740   43.6790 C   0  0  0  0  0  0  0  0  0  0  0  0
   38.5610   27.7590   43.5490 N   0  0  0  0  0  0  0  0  0  0  0  0
   38.4470   28.4610   42.4080 C   0  0  0  0  0  0  0  0  0  0  0  0
   39.1430   28.1020   41.2870 N   0  0  0  0  0  0  0  0  0  0  0  0
   40.4560   26.8060   40.4510 H   0  0  0  0  0  0  0  0  0  0  0  0
   39.4870   26.0740   44.5470 H   0  0  0  0  0  0  0  0  0  0  0  0
   40.9970   25.1220   42.4720 C   0  0  0  0  0  0  0  0  0  0  0  0
   41.3110   24.7520   43.4690 H   0  0  0  0  0  0  0  0  0  0  0  0
   40.4390   24.3320   41.9210 H   0  0  0  0  0  0  0  0  0  0  0  0
   41.8870   25.4380   41.8940 H   0  0  0  0  0  0  0  0  0  0  0  0
   37.5970   29.5590   42.4200 O   0  0  0  0  0  0  0  0  0  0  0  0
   35.7090   28.6190   40.8300 O   0  0  0  0  0  0  0  0  0  0  0  0
   36.5980   29.8470   41.0590 P   0  0  0  0  0  0  0  0  0  0  0  0
   37.5450   30.1360   39.6890 O   0  0  0  0  0  0  0  0  0  0  0  0
   36.9980   29.9020   38.8970 H   0  0  0  0  0  0  0  0  0  0  0  0
   35.5560   31.1420   41.3580 O   0  0  0  0  0  0  0  0  0  0  0  0
   35.9610   32.0200   41.2730 H   0  0  0  0  0  0  0  0  0  0  0  0
  1  2  1  0  0  0  0
  2  3  2  0  0  0  0
  3  8  1  0  0  0  0
  4  3  1  0  0  0  0
  5 13  1  0  0  0  0
  5  4  2  0  0  0  0
  6  1  2  0  0  0  0
  6  5  1  0  0  0  0
  7  1  1  0  0  0  0
  9  2  1  0  0  0  0
  9 10  1  0  0  0  0
 11  9  1  0  0  0  0
 12  9  1  0  0  0  0
 14 15  2  0  0  0  0
 15 18  1  0  0  0  0
 15 13  1  0  0  0  0
 16 15  1  0  0  0  0
 17 16  1  0  0  0  0
 19 18  1  0  0  0  0
M  END
>  <minimizedAffinity>
-3.75266385

$$$$
