
 OpenBabel03252500573D

 33 34  0  0  0  0  0  0  0  0999 V2000
   43.6880   34.8210   40.1410 O   0  0  0  0  0  0  0  0  0  0  0  0
   43.2660   34.6640   41.5980 P   0  0  1  0  0  0  0  0  0  0  0  0
   43.1950   33.0150   41.9750 O   0  0  0  0  0  0  0  0  0  0  0  0
   43.3080   32.8510   42.9510 H   0  0  0  0  0  0  0  0  0  0  0  0
   44.4230   35.3760   42.5980 O   0  0  0  0  0  0  0  0  0  0  0  0
   46.5080   34.3490   43.0090 C   0  0  0  0  0  0  0  0  0  0  0  0
   45.2620   34.7130   43.4890 C   0  0  0  0  0  0  0  0  0  0  0  0
   44.9500   34.3840   44.8260 C   0  0  0  0  0  0  0  0  0  0  0  0
   45.8880   33.7380   45.5420 N   0  0  0  0  0  0  0  0  0  0  0  0
   47.0840   33.3960   45.0620 C   0  0  0  0  0  0  0  0  0  0  0  0
   47.3880   33.7090   43.7840 N   0  0  0  0  0  0  0  0  0  0  0  0
   43.9830   34.6800   45.1560 H   0  0  0  0  0  0  0  0  0  0  0  0
   47.8360   32.8790   45.6390 H   0  0  0  0  0  0  0  0  0  0  0  0
   46.9020   34.6560   41.6370 C   0  0  0  0  0  0  0  0  0  0  0  0
   46.8520   33.8050   40.9500 H   0  0  0  0  0  0  0  0  0  0  0  0
   46.1820   35.4160   41.2140 H   0  0  0  0  0  0  0  0  0  0  0  0
   48.2590   35.3240   41.6580 C   0  0  0  0  0  0  0  0  0  0  0  0
   48.8240   34.8840   42.5240 H   0  0  0  0  0  0  0  0  0  0  0  0
   48.8050   35.0030   40.7470 H   0  0  0  0  0  0  0  0  0  0  0  0
   48.2110   36.4290   41.7290 H   0  0  0  0  0  0  0  0  0  0  0  0
   41.7090   35.2940   41.8390 O   0  0  0  0  0  0  0  0  0  0  0  0
   40.6350   34.6580   41.2460 C   0  0  0  0  0  0  0  0  0  0  0  0
   39.8780   35.3480   40.3090 C   0  0  0  0  0  0  0  0  0  0  0  0
   38.7910   34.7740   39.6780 C   0  0  0  0  0  0  0  0  0  0  0  0
   38.4670   33.4940   39.9970 N   0  0  0  0  0  0  0  0  0  0  0  0
   39.1960   32.8170   40.9060 C   0  0  0  0  0  0  0  0  0  0  0  0
   40.2450   33.3960   41.5030 N   0  0  0  0  0  0  0  0  0  0  0  0
   40.1490   36.3680   40.0660 H   0  0  0  0  0  0  0  0  0  0  0  0
   38.2560   35.3920   38.9570 H   0  0  0  0  0  0  0  0  0  0  0  0
   38.7790   31.4220   41.2010 C   0  0  0  0  0  0  0  0  0  0  0  0
   37.4460   31.3140   41.4690 F   0  0  0  0  0  0  0  0  0  0  0  0
   39.4650   30.8840   42.2890 F   0  0  0  0  0  0  0  0  0  0  0  0
   39.0530   30.6130   40.0920 F   0  0  0  0  0  0  0  0  0  0  0  0
  2  1  2  6  0  0  0
  2 21  1  0  0  0  0
  2  3  1  0  0  0  0
  2  5  1  0  0  0  0
  3  4  1  0  0  0  0
  5  7  1  0  0  0  0
  6  7  2  0  0  0  0
  6 11  1  0  0  0  0
  7  8  1  0  0  0  0
  8 12  1  0  0  0  0
  8  9  2  0  0  0  0
 10  9  1  0  0  0  0
 10 13  1  0  0  0  0
 11 10  2  0  0  0  0
 14 17  1  0  0  0  0
 14  6  1  0  0  0  0
 15 14  1  0  0  0  0
 16 14  1  0  0  0  0
 17 20  1  0  0  0  0
 17 18  1  0  0  0  0
 19 17  1  0  0  0  0
 22 27  1  0  0  0  0
 22 21  1  0  0  0  0
 23 22  2  0  0  0  0
 24 25  2  0  0  0  0
 24 23  1  0  0  0  0
 25 26  1  0  0  0  0
 26 30  1  0  0  0  0
 26 27  2  0  0  0  0
 28 23  1  0  0  0  0
 29 24  1  0  0  0  0
 30 31  1  0  0  0  0
 30 32  1  0  0  0  0
 33 30  1  0  0  0  0
M  END
>  <minimizedAffinity>
-5.45772171

>  <minimizedRMSD>
0.602528572

$$$$
