
 OpenBabel03242516243D

 38 41  0  0  0  0  0  0  0  0999 V2000
   46.1130   32.6800   46.9060 C   0  0  0  0  0  0  0  0  0  0  0  0
   47.2350   31.8720   46.9690 C   0  0  0  0  0  0  0  0  0  0  0  0
   47.4420   31.0380   48.0370 C   0  0  0  0  0  0  0  0  0  0  0  0
   46.5250   30.9910   49.0750 C   0  0  0  0  0  0  0  0  0  0  0  0
   45.4110   31.7710   49.0430 C   0  0  0  0  0  0  0  0  0  0  0  0
   45.2290   32.6000   47.9580 C   0  0  0  0  0  0  0  0  0  0  0  0
   47.9240   31.9380   46.1410 H   0  0  0  0  0  0  0  0  0  0  0  0
   46.7430   30.3120   49.8950 H   0  0  0  0  0  0  0  0  0  0  0  0
   44.7130   31.7230   49.8530 H   0  0  0  0  0  0  0  0  0  0  0  0
   44.3550   33.2380   47.8930 H   0  0  0  0  0  0  0  0  0  0  0  0
   44.6980   35.3780   44.8810 C   0  0  0  0  0  0  0  0  0  0  0  0
   45.4300   35.3110   43.6820 C   0  0  0  0  0  0  0  0  0  0  0  0
   46.4200   34.3290   43.5630 C   0  0  0  0  0  0  0  0  0  0  0  0
   46.6490   33.4700   44.6030 N   0  0  0  0  0  0  0  0  0  0  0  0
   45.9110   33.5730   45.7510 C   0  0  0  0  0  0  0  0  0  0  0  0
   44.9430   34.5190   45.8920 N   0  0  0  0  0  0  0  0  0  0  0  0
   43.9360   36.1450   44.9550 H   0  0  0  0  0  0  0  0  0  0  0  0
   45.2880   35.9610   42.8370 H   0  0  0  0  0  0  0  0  0  0  0  0
   47.0530   34.1670   42.7030 H   0  0  0  0  0  0  0  0  0  0  0  0
   48.8930   30.0360   48.0890 S   0  0  0  0  0  0  0  0  0  0  0  0
   49.7940   30.2920   49.5640 C   0  0  0  0  0  0  0  0  0  0  0  0
   50.0110   31.5280   50.1050 N   0  0  0  0  0  0  0  0  0  0  0  0
   50.7170   31.7330   51.2130 C   0  0  0  0  0  0  0  0  0  0  0  0
   51.2370   30.6600   51.8210 N   0  0  0  0  0  0  0  0  0  0  0  0
   51.0760   29.4080   51.3610 C   0  0  0  0  0  0  0  0  0  0  0  0
   51.6380   28.3030   51.9760 C   0  0  0  0  0  0  0  0  0  0  0  0
   51.4690   27.0520   51.4590 C   0  0  0  0  0  0  0  0  0  0  0  0
   50.7310   26.8590   50.3100 C   0  0  0  0  0  0  0  0  0  0  0  0
   50.1580   27.9530   49.6760 C   0  0  0  0  0  0  0  0  0  0  0  0
   50.3360   29.2070   50.2030 C   0  0  0  0  0  0  0  0  0  0  0  0
   50.8820   32.7060   51.6320 H   0  0  0  0  0  0  0  0  0  0  0  0
   52.1950   28.5500   52.8660 H   0  0  0  0  0  0  0  0  0  0  0  0
   51.9550   26.2720   52.0260 H   0  0  0  0  0  0  0  0  0  0  0  0
   50.6910   25.8140   50.0300 H   0  0  0  0  0  0  0  0  0  0  0  0
   49.4800   27.5870   48.4340 C   0  0  0  0  0  0  0  0  0  0  0  0
   48.2150   28.0780   48.2320 F   0  0  0  0  0  0  0  0  0  0  0  0
   49.7980   26.3630   47.9210 F   0  0  0  0  0  0  0  0  0  0  0  0
   50.0390   28.2900   47.3560 F   0  0  0  0  0  0  0  0  0  0  0  0
  1  2  2  0  0  0  0
  1  6  1  0  0  0  0
  2  3  1  0  0  0  0
  3 20  1  0  0  0  0
  3  4  2  0  0  0  0
  4  8  1  0  0  0  0
  5  4  1  0  0  0  0
  5  9  1  0  0  0  0
  6  5  2  0  0  0  0
  7  2  1  0  0  0  0
 10  6  1  0  0  0  0
 11 17  1  0  0  0  0
 11 16  1  0  0  0  0
 12 11  2  0  0  0  0
 13 12  1  0  0  0  0
 13 14  2  0  0  0  0
 14 15  1  0  0  0  0
 15 16  2  0  0  0  0
 15  1  1  0  0  0  0
 18 12  1  0  0  0  0
 19 13  1  0  0  0  0
 20 21  1  0  0  0  0
 21 22  2  0  0  0  0
 21 30  1  0  0  0  0
 22 23  1  0  0  0  0
 23 31  1  0  0  0  0
 23 24  2  0  0  0  0
 25 24  1  0  0  0  0
 25 26  1  0  0  0  0
 26 32  1  0  0  0  0
 27 26  2  0  0  0  0
 27 33  1  0  0  0  0
 28 27  1  0  0  0  0
 29 30  1  0  0  0  0
 29 28  2  0  0  0  0
 30 25  2  0  0  0  0
 34 28  1  0  0  0  0
 35 29  1  0  0  0  0
 36 35  1  0  0  0  0
 37 35  1  0  0  0  0
 38 35  1  0  0  0  0
M  END
>  <minimizedAffinity>
-6.55793095

>  <minimizedRMSD>
0.306647003

$$$$
