
 OpenBabel03252508303D

 34 36  0  0  1  0  0  0  0  0999 V2000
   35.7530   28.5420   41.3880 N   0  0  0  0  0  0  0  0  0  0  0  0
   35.8340   29.0250   40.0060 C   0  0  2  0  0  0  0  0  0  0  0  0
   36.3620   28.0010   39.0690 C   0  0  0  0  0  0  0  0  0  0  0  0
   36.4210   26.6820   39.6730 N   0  0  0  0  0  0  0  0  0  0  0  0
   37.0740   26.6300   40.9310 C   0  0  0  0  0  0  0  0  0  0  0  0
   37.0910   27.9600   41.6420 C   0  0  2  0  0  0  0  0  0  0  0  0
   35.6500   29.4120   41.9790 H   0  0  0  0  0  0  0  0  0  0  0  0
   34.7980   29.3400   39.7230 H   0  0  0  0  0  0  0  0  0  0  0  0
   37.4100   28.1120   38.7420 H   0  0  0  0  0  0  0  0  0  0  0  0
   35.6680   27.8800   38.1900 H   0  0  0  0  0  0  0  0  0  0  0  0
   36.7610   26.0180   38.9510 H   0  0  0  0  0  0  0  0  0  0  0  0
   38.0940   26.2160   40.7880 H   0  0  0  0  0  0  0  0  0  0  0  0
   36.5020   25.9000   41.5730 H   0  0  0  0  0  0  0  0  0  0  0  0
   37.8550   28.6020   41.1830 H   0  0  0  0  0  0  0  0  0  0  0  0
   38.3200   31.5860   39.4860 C   0  0  0  0  0  0  0  0  0  0  0  0
   37.4970   32.1120   40.4910 C   0  0  0  0  0  0  0  0  0  0  0  0
   36.4920   31.2120   40.7950 C   0  0  0  0  0  0  0  0  0  0  0  0
   36.7160   30.1800   39.9840 N   0  0  0  0  0  0  0  0  0  0  0  0
   37.7810   30.3970   39.2220 N   0  0  0  0  0  0  0  0  0  0  0  0
   37.7370   33.1020   40.8850 H   0  0  0  0  0  0  0  0  0  0  0  0
   35.8550   31.6070   41.5770 H   0  0  0  0  0  0  0  0  0  0  0  0
   41.2190   33.8950   38.8510 C   0  0  0  0  0  0  0  0  0  0  0  0
   40.0690   33.3570   39.5160 C   0  0  0  0  0  0  0  0  0  0  0  0
   39.4940   32.2580   38.9310 C   0  0  0  0  0  0  0  0  0  0  0  0
   40.0220   31.7490   37.7890 N   0  0  0  0  0  0  0  0  0  0  0  0
   41.1090   32.2800   37.1880 C   0  0  0  0  0  0  0  0  0  0  0  0
   41.6820   33.3450   37.7370 N   0  0  0  0  0  0  0  0  0  0  0  0
   41.6550   34.7620   39.3340 H   0  0  0  0  0  0  0  0  0  0  0  0
   39.6450   33.7580   40.4230 H   0  0  0  0  0  0  0  0  0  0  0  0
   41.4470   31.7920   36.2760 H   0  0  0  0  0  0  0  0  0  0  0  0
   37.3430   27.8320   43.1190 C   0  0  0  0  0  0  0  0  0  0  0  0
   36.1670   27.3340   43.6790 F   0  0  0  0  0  0  0  0  0  0  0  0
   37.4990   29.1070   43.6170 F   0  0  0  0  0  0  0  0  0  0  0  0
   38.3500   26.9720   43.4250 F   0  0  0  0  0  0  0  0  0  0  0  0
  1  6  1  0  0  0  0
  1  7  1  0  0  0  0
  2  8  1  6  0  0  0
  2  1  1  0  0  0  0
  3  4  1  0  0  0  0
  3  2  1  0  0  0  0
  4  5  1  0  0  0  0
  5 13  1  0  0  0  0
  5  6  1  0  0  0  0
  6 14  1  6  0  0  0
  6 31  1  0  0  0  0
  9  3  1  0  0  0  0
 10  3  1  0  0  0  0
 11  4  1  0  0  0  0
 12  5  1  0  0  0  0
 15 16  1  0  0  0  0
 16 17  2  0  0  0  0
 16 20  1  0  0  0  0
 17 21  1  0  0  0  0
 18  2  1  0  0  0  0
 18 17  1  0  0  0  0
 19 15  2  0  0  0  0
 19 18  1  0  0  0  0
 22 28  1  0  0  0  0
 22 23  1  0  0  0  0
 23 29  1  0  0  0  0
 24 15  1  0  0  0  0
 24 23  2  0  0  0  0
 25 24  1  0  0  0  0
 26 27  1  0  0  0  0
 26 25  2  0  0  0  0
 27 22  2  0  0  0  0
 30 26  1  0  0  0  0
 31 34  1  0  0  0  0
 31 33  1  0  0  0  0
 31 32  1  0  0  0  0
M  END
>  <minimizedAffinity>
-5.61261511

$$$$

 OpenBabel03252508303D

 34 36  0  0  1  0  0  0  0  0999 V2000
   35.7330   28.7240   41.2550 N   0  0  0  0  0  0  0  0  0  0  0  0
   35.8530   29.1950   39.8720 C   0  0  2  0  0  0  0  0  0  0  0  0
   36.3760   28.1530   38.9520 C   0  0  0  0  0  0  0  0  0  0  0  0
   36.3950   26.8370   39.5650 N   0  0  0  0  0  0  0  0  0  0  0  0
   37.0210   26.7800   40.8370 C   0  0  0  0  0  0  0  0  0  0  0  0
   37.0520   28.1140   41.5400 C   0  0  2  0  0  0  0  0  0  0  0  0
   35.6360   29.5990   41.8380 H   0  0  0  0  0  0  0  0  0  0  0  0
   34.8290   29.5300   39.5660 H   0  0  0  0  0  0  0  0  0  0  0  0
   37.4340   28.2400   38.6470 H   0  0  0  0  0  0  0  0  0  0  0  0
   35.6990   28.0410   38.0600 H   0  0  0  0  0  0  0  0  0  0  0  0
   36.7350   26.1620   38.8550 H   0  0  0  0  0  0  0  0  0  0  0  0
   38.0340   26.3440   40.7180 H   0  0  0  0  0  0  0  0  0  0  0  0
   36.4200   26.0670   41.4720 H   0  0  0  0  0  0  0  0  0  0  0  0
   37.8390   28.7370   41.0920 H   0  0  0  0  0  0  0  0  0  0  0  0
   38.3960   31.7050   39.3770 C   0  0  0  0  0  0  0  0  0  0  0  0
   37.5820   32.2410   40.3840 C   0  0  0  0  0  0  0  0  0  0  0  0
   36.5560   31.3610   40.6780 C   0  0  0  0  0  0  0  0  0  0  0  0
   36.7590   30.3310   39.8600 N   0  0  0  0  0  0  0  0  0  0  0  0
   37.8310   30.5290   39.1030 N   0  0  0  0  0  0  0  0  0  0  0  0
   37.8420   33.2230   40.7850 H   0  0  0  0  0  0  0  0  0  0  0  0
   35.9250   31.7650   41.4610 H   0  0  0  0  0  0  0  0  0  0  0  0
   41.3590   32.6750   37.2750 C   0  0  0  0  0  0  0  0  0  0  0  0
   40.2070   31.9260   37.6840 C   0  0  0  0  0  0  0  0  0  0  0  0
   39.5860   32.3540   38.8300 C   0  0  0  0  0  0  0  0  0  0  0  0
   40.0750   33.4280   39.5010 N   0  0  0  0  0  0  0  0  0  0  0  0
   41.1640   34.1120   39.0880 C   0  0  0  0  0  0  0  0  0  0  0  0
   41.7810   33.7150   37.9810 N   0  0  0  0  0  0  0  0  0  0  0  0
   41.8300   32.3170   36.3680 H   0  0  0  0  0  0  0  0  0  0  0  0
   39.8140   31.0720   37.1560 H   0  0  0  0  0  0  0  0  0  0  0  0
   41.4690   34.9570   39.7020 H   0  0  0  0  0  0  0  0  0  0  0  0
   37.2710   27.9910   43.0220 C   0  0  0  0  0  0  0  0  0  0  0  0
   37.4290   29.2880   43.5080 F   0  0  0  0  0  0  0  0  0  0  0  0
   38.4830   27.3600   43.2040 F   0  0  0  0  0  0  0  0  0  0  0  0
   36.2270   27.4210   43.6790 F   0  0  0  0  0  0  0  0  0  0  0  0
  1  6  1  0  0  0  0
  1  7  1  0  0  0  0
  2  8  1  6  0  0  0
  2  1  1  0  0  0  0
  3  4  1  0  0  0  0
  3  2  1  0  0  0  0
  4  5  1  0  0  0  0
  5 13  1  0  0  0  0
  5  6  1  0  0  0  0
  6 14  1  6  0  0  0
  6 31  1  0  0  0  0
  9  3  1  0  0  0  0
 10  3  1  0  0  0  0
 11  4  1  0  0  0  0
 12  5  1  0  0  0  0
 15 16  1  0  0  0  0
 16 17  2  0  0  0  0
 16 20  1  0  0  0  0
 17 21  1  0  0  0  0
 18  2  1  0  0  0  0
 18 17  1  0  0  0  0
 19 15  2  0  0  0  0
 19 18  1  0  0  0  0
 22 23  2  0  0  0  0
 22 27  1  0  0  0  0
 23 24  1  0  0  0  0
 24 15  1  0  0  0  0
 24 25  2  0  0  0  0
 26 25  1  0  0  0  0
 26 30  1  0  0  0  0
 27 26  2  0  0  0  0
 28 22  1  0  0  0  0
 29 23  1  0  0  0  0
 31 33  1  0  0  0  0
 31 32  1  0  0  0  0
 31 34  1  0  0  0  0
M  END
>  <minimizedAffinity>
-5.53136206

$$$$

 OpenBabel03252508303D

 34 36  0  0  1  0  0  0  0  0999 V2000
   37.0840   29.2860   42.8900 N   0  0  0  0  0  0  0  0  0  0  0  0
   38.1410   28.3600   43.3050 C   0  0  2  0  0  0  0  0  0  0  0  0
   39.4980   28.8280   42.9260 C   0  0  0  0  0  0  0  0  0  0  0  0
   39.4980   30.2090   42.4780 N   0  0  0  0  0  0  0  0  0  0  0  0
   38.5380   30.5120   41.4780 C   0  0  0  0  0  0  0  0  0  0  0  0
   37.3790   29.5470   41.4620 C   0  0  2  0  0  0  0  0  0  0  0  0
   36.1880   28.7290   42.9490 H   0  0  0  0  0  0  0  0  0  0  0  0
   38.0430   28.2510   44.4150 H   0  0  0  0  0  0  0  0  0  0  0  0
   39.9720   28.3410   42.0560 H   0  0  0  0  0  0  0  0  0  0  0  0
   40.1800   28.8210   43.8220 H   0  0  0  0  0  0  0  0  0  0  0  0
   40.4790   30.4730   42.2680 H   0  0  0  0  0  0  0  0  0  0  0  0
   39.0510   30.5680   40.4950 H   0  0  0  0  0  0  0  0  0  0  0  0
   38.1330   31.5380   41.7060 H   0  0  0  0  0  0  0  0  0  0  0  0
   37.6970   28.6100   40.9850 H   0  0  0  0  0  0  0  0  0  0  0  0
   38.0880   25.2610   41.4610 C   0  0  0  0  0  0  0  0  0  0  0  0
   36.8860   25.2470   42.1800 C   0  0  0  0  0  0  0  0  0  0  0  0
   36.7760   26.4010   42.9350 C   0  0  0  0  0  0  0  0  0  0  0  0
   37.8910   27.0770   42.6690 N   0  0  0  0  0  0  0  0  0  0  0  0
   38.6550   26.4150   41.8090 N   0  0  0  0  0  0  0  0  0  0  0  0
   36.2270   24.3840   42.0630 H   0  0  0  0  0  0  0  0  0  0  0  0
   35.8450   26.4020   43.4890 H   0  0  0  0  0  0  0  0  0  0  0  0
   39.8060   23.2760   38.7680 C   0  0  0  0  0  0  0  0  0  0  0  0
   39.4840   24.4100   39.5830 C   0  0  0  0  0  0  0  0  0  0  0  0
   38.5250   24.2090   40.5440 C   0  0  0  0  0  0  0  0  0  0  0  0
   37.9460   22.9880   40.6730 N   0  0  0  0  0  0  0  0  0  0  0  0
   38.2740   21.9390   39.8890 C   0  0  0  0  0  0  0  0  0  0  0  0
   39.2000   22.1110   38.9510 N   0  0  0  0  0  0  0  0  0  0  0  0
   40.5660   23.4610   38.0180 H   0  0  0  0  0  0  0  0  0  0  0  0
   39.9390   25.3820   39.4850 H   0  0  0  0  0  0  0  0  0  0  0  0
   37.7480   21.0060   40.0790 H   0  0  0  0  0  0  0  0  0  0  0  0
   36.1680   30.0990   40.7620 C   0  0  0  0  0  0  0  0  0  0  0  0
   35.8250   31.2730   41.4300 F   0  0  0  0  0  0  0  0  0  0  0  0
   35.1340   29.2140   40.9790 F   0  0  0  0  0  0  0  0  0  0  0  0
   36.3900   30.4080   39.4570 F   0  0  0  0  0  0  0  0  0  0  0  0
  1  7  1  0  0  0  0
  1  2  1  0  0  0  0
  2  8  1  1  0  0  0
  3  2  1  0  0  0  0
  3 10  1  0  0  0  0
  4  3  1  0  0  0  0
  5 13  1  0  0  0  0
  5  4  1  0  0  0  0
  6 14  1  6  0  0  0
  6  5  1  0  0  0  0
  6  1  1  0  0  0  0
  9  3  1  0  0  0  0
 11  4  1  0  0  0  0
 12  5  1  0  0  0  0
 15 19  2  0  0  0  0
 15 16  1  0  0  0  0
 16 17  2  0  0  0  0
 17 21  1  0  0  0  0
 18 17  1  0  0  0  0
 18  2  1  0  0  0  0
 19 18  1  0  0  0  0
 20 16  1  0  0  0  0
 22 27  2  0  0  0  0
 22 23  1  0  0  0  0
 23 24  2  0  0  0  0
 24 25  1  0  0  0  0
 24 15  1  0  0  0  0
 26 30  1  0  0  0  0
 26 25  2  0  0  0  0
 27 26  1  0  0  0  0
 28 22  1  0  0  0  0
 29 23  1  0  0  0  0
 31 33  1  0  0  0  0
 31 32  1  0  0  0  0
 31  6  1  0  0  0  0
 34 31  1  0  0  0  0
M  END
>  <minimizedAffinity>
-5.29198122

$$$$

 OpenBabel03252508303D

 34 36  0  0  1  0  0  0  0  0999 V2000
   39.1080   31.3740   39.6320 N   0  0  0  0  0  0  0  0  0  0  0  0
   37.7380   30.8840   39.8060 C   0  0  2  0  0  0  0  0  0  0  0  0
   36.8050   31.9410   40.2740 C   0  0  0  0  0  0  0  0  0  0  0  0
   37.3910   33.2670   40.1930 N   0  0  0  0  0  0  0  0  0  0  0  0
   38.6700   33.3920   40.7930 C   0  0  0  0  0  0  0  0  0  0  0  0
   39.4010   32.0770   40.9030 C   0  0  2  0  0  0  0  0  0  0  0  0
   39.7090   30.5050   39.5850 H   0  0  0  0  0  0  0  0  0  0  0  0
   37.4240   30.4750   38.8130 H   0  0  0  0  0  0  0  0  0  0  0  0
   36.5170   31.9200   41.3390 H   0  0  0  0  0  0  0  0  0  0  0  0
   35.9000   31.9890   39.6050 H   0  0  0  0  0  0  0  0  0  0  0  0
   36.6720   33.9500   40.4990 H   0  0  0  0  0  0  0  0  0  0  0  0
   38.5570   33.8930   41.7770 H   0  0  0  0  0  0  0  0  0  0  0  0
   39.2810   34.0740   40.1350 H   0  0  0  0  0  0  0  0  0  0  0  0
   38.9780   31.5000   41.7370 H   0  0  0  0  0  0  0  0  0  0  0  0
   38.2820   27.9980   41.9000 C   0  0  0  0  0  0  0  0  0  0  0  0
   37.2400   28.6870   42.5350 C   0  0  0  0  0  0  0  0  0  0  0  0
   36.9240   29.8270   41.8200 C   0  0  0  0  0  0  0  0  0  0  0  0
   37.7630   29.8130   40.7870 N   0  0  0  0  0  0  0  0  0  0  0  0
   38.5540   28.7480   40.8330 N   0  0  0  0  0  0  0  0  0  0  0  0
   36.8330   28.2640   43.4570 H   0  0  0  0  0  0  0  0  0  0  0  0
   36.1130   30.3620   42.3000 H   0  0  0  0  0  0  0  0  0  0  0  0
   40.3310   25.3720   43.6450 C   0  0  0  0  0  0  0  0  0  0  0  0
   39.8790   26.6840   43.2840 C   0  0  0  0  0  0  0  0  0  0  0  0
   38.8600   26.7400   42.3680 C   0  0  0  0  0  0  0  0  0  0  0  0
   38.3450   25.5900   41.8620 N   0  0  0  0  0  0  0  0  0  0  0  0
   38.7930   24.3690   42.2250 C   0  0  0  0  0  0  0  0  0  0  0  0
   39.7800   24.2910   43.1110 N   0  0  0  0  0  0  0  0  0  0  0  0
   41.1350   25.3560   44.3710 H   0  0  0  0  0  0  0  0  0  0  0  0
   40.2850   27.6000   43.6820 H   0  0  0  0  0  0  0  0  0  0  0  0
   38.3080   23.5140   41.7570 H   0  0  0  0  0  0  0  0  0  0  0  0
   40.8830   32.2440   41.0880 C   0  0  0  0  0  0  0  0  0  0  0  0
   41.4950   31.4660   40.1060 F   0  0  0  0  0  0  0  0  0  0  0  0
   41.2100   31.6670   42.2970 F   0  0  0  0  0  0  0  0  0  0  0  0
   41.3080   33.5250   40.9340 F   0  0  0  0  0  0  0  0  0  0  0  0
  1  2  1  0  0  0  0
  1  6  1  0  0  0  0
  2  8  1  6  0  0  0
  2  3  1  0  0  0  0
  2 18  1  0  0  0  0
  3  9  1  0  0  0  0
  4  3  1  0  0  0  0
  4 11  1  0  0  0  0
  4  5  1  0  0  0  0
  5  6  1  0  0  0  0
  5 12  1  0  0  0  0
  6 31  1  0  0  0  0
  6 14  1  1  0  0  0
  7  1  1  0  0  0  0
 10  3  1  0  0  0  0
 13  5  1  0  0  0  0
 15 24  1  0  0  0  0
 15 16  1  0  0  0  0
 16 20  1  0  0  0  0
 17 21  1  0  0  0  0
 17 16  2  0  0  0  0
 18 19  1  0  0  0  0
 18 17  1  0  0  0  0
 19 15  2  0  0  0  0
 22 28  1  0  0  0  0
 23 22  1  0  0  0  0
 23 29  1  0  0  0  0
 24 23  2  0  0  0  0
 25 26  2  0  0  0  0
 25 24  1  0  0  0  0
 26 27  1  0  0  0  0
 27 22  2  0  0  0  0
 30 26  1  0  0  0  0
 31 33  1  0  0  0  0
 32 31  1  0  0  0  0
 34 31  1  0  0  0  0
M  END
>  <minimizedAffinity>
-5.24699688

$$$$

 OpenBabel03252508303D

 34 36  0  0  1  0  0  0  0  0999 V2000
   37.0040   29.7100   42.4790 N   0  0  0  0  0  0  0  0  0  0  0  0
   37.1850   30.8040   41.5200 C   0  0  2  0  0  0  0  0  0  0  0  0
   36.1910   30.7720   40.4170 C   0  0  0  0  0  0  0  0  0  0  0  0
   35.1090   29.8400   40.6780 N   0  0  0  0  0  0  0  0  0  0  0  0
   35.5230   28.5350   41.0530 C   0  0  0  0  0  0  0  0  0  0  0  0
   36.9160   28.5010   41.6300 C   0  0  2  0  0  0  0  0  0  0  0  0
   37.9070   29.6700   43.0260 H   0  0  0  0  0  0  0  0  0  0  0  0
   37.1080   31.7530   42.1090 H   0  0  0  0  0  0  0  0  0  0  0  0
   36.5400   30.3960   39.4390 H   0  0  0  0  0  0  0  0  0  0  0  0
   35.6850   31.7720   40.3160 H   0  0  0  0  0  0  0  0  0  0  0  0
   34.4410   29.9000   39.8870 H   0  0  0  0  0  0  0  0  0  0  0  0
   35.4130   27.8600   40.1790 H   0  0  0  0  0  0  0  0  0  0  0  0
   34.8090   28.1760   41.8480 H   0  0  0  0  0  0  0  0  0  0  0  0
   37.6450   28.5830   40.8120 H   0  0  0  0  0  0  0  0  0  0  0  0
   40.1990   30.5190   39.5590 C   0  0  0  0  0  0  0  0  0  0  0  0
   40.6600   30.5880   40.8800 C   0  0  0  0  0  0  0  0  0  0  0  0
   39.5880   30.6940   41.7470 C   0  0  0  0  0  0  0  0  0  0  0  0
   38.5190   30.6900   40.9540 N   0  0  0  0  0  0  0  0  0  0  0  0
   38.8740   30.5870   39.6790 N   0  0  0  0  0  0  0  0  0  0  0  0
   41.7380   30.5520   41.0500 H   0  0  0  0  0  0  0  0  0  0  0  0
   39.9350   30.7400   42.7730 H   0  0  0  0  0  0  0  0  0  0  0  0
   42.0360   29.2480   36.5340 C   0  0  0  0  0  0  0  0  0  0  0  0
   41.1600   29.2160   37.6680 C   0  0  0  0  0  0  0  0  0  0  0  0
   41.0540   30.3830   38.3810 C   0  0  0  0  0  0  0  0  0  0  0  0
   41.7610   31.4750   37.9940 N   0  0  0  0  0  0  0  0  0  0  0  0
   42.5780   31.4720   36.9180 C   0  0  0  0  0  0  0  0  0  0  0  0
   42.6960   30.3520   36.2130 N   0  0  0  0  0  0  0  0  0  0  0  0
   42.1010   28.3140   35.9880 H   0  0  0  0  0  0  0  0  0  0  0  0
   40.5970   28.3510   37.9800 H   0  0  0  0  0  0  0  0  0  0  0  0
   43.0960   32.4030   36.6990 H   0  0  0  0  0  0  0  0  0  0  0  0
   37.1850   27.2620   42.4390 C   0  0  0  0  0  0  0  0  0  0  0  0
   36.9560   26.1790   41.5920 F   0  0  0  0  0  0  0  0  0  0  0  0
   36.2170   27.1980   43.4180 F   0  0  0  0  0  0  0  0  0  0  0  0
   38.4630   27.1780   42.8930 F   0  0  0  0  0  0  0  0  0  0  0  0
  1  7  1  0  0  0  0
  2  8  1  1  0  0  0
  2  1  1  0  0  0  0
  3  4  1  0  0  0  0
  3  2  1  0  0  0  0
  4  5  1  0  0  0  0
  5  6  1  0  0  0  0
  5 13  1  0  0  0  0
  6 14  1  6  0  0  0
  6 31  1  0  0  0  0
  6  1  1  0  0  0  0
  9  3  1  0  0  0  0
 10  3  1  0  0  0  0
 11  4  1  0  0  0  0
 12  5  1  0  0  0  0
 15 19  2  0  0  0  0
 15 16  1  0  0  0  0
 16 20  1  0  0  0  0
 16 17  2  0  0  0  0
 17 21  1  0  0  0  0
 18  2  1  0  0  0  0
 18 17  1  0  0  0  0
 19 18  1  0  0  0  0
 22 23  1  0  0  0  0
 23 29  1  0  0  0  0
 23 24  2  0  0  0  0
 24 15  1  0  0  0  0
 25 24  1  0  0  0  0
 26 25  2  0  0  0  0
 27 22  2  0  0  0  0
 27 26  1  0  0  0  0
 28 22  1  0  0  0  0
 30 26  1  0  0  0  0
 31 34  1  0  0  0  0
 31 33  1  0  0  0  0
 32 31  1  0  0  0  0
M  END
>  <minimizedAffinity>
-5.23102045

$$$$

 OpenBabel03252508303D

 34 36  0  0  1  0  0  0  0  0999 V2000
   35.4180   30.0970   40.5540 N   0  0  0  0  0  0  0  0  0  0  0  0
   36.5260   30.4620   41.4410 C   0  0  2  0  0  0  0  0  0  0  0  0
   37.5480   31.3050   40.7690 C   0  0  0  0  0  0  0  0  0  0  0  0
   37.0920   31.7990   39.4820 N   0  0  0  0  0  0  0  0  0  0  0  0
   36.5720   30.8070   38.6110 C   0  0  0  0  0  0  0  0  0  0  0  0
   36.0890   29.5770   39.3400 C   0  0  2  0  0  0  0  0  0  0  0  0
   34.9310   29.2920   41.0360 H   0  0  0  0  0  0  0  0  0  0  0  0
   36.0670   30.9960   42.3120 H   0  0  0  0  0  0  0  0  0  0  0  0
   38.4860   30.8090   40.4660 H   0  0  0  0  0  0  0  0  0  0  0  0
   37.7500   32.2330   41.3740 H   0  0  0  0  0  0  0  0  0  0  0  0
   37.8390   32.4050   39.0930 H   0  0  0  0  0  0  0  0  0  0  0  0
   37.3380   30.5660   37.8440 H   0  0  0  0  0  0  0  0  0  0  0  0
   35.6910   31.2620   38.0760 H   0  0  0  0  0  0  0  0  0  0  0  0
   36.9560   28.9740   39.6400 H   0  0  0  0  0  0  0  0  0  0  0  0
   38.6330   27.7400   42.5200 C   0  0  0  0  0  0  0  0  0  0  0  0
   37.3340   27.2290   42.6340 C   0  0  0  0  0  0  0  0  0  0  0  0
   36.4150   28.1840   42.2380 C   0  0  0  0  0  0  0  0  0  0  0  0
   37.1570   29.2370   41.9010 N   0  0  0  0  0  0  0  0  0  0  0  0
   38.4490   28.9790   42.0640 N   0  0  0  0  0  0  0  0  0  0  0  0
   37.2150   26.2060   42.9970 H   0  0  0  0  0  0  0  0  0  0  0  0
   35.4070   27.7940   42.3160 H   0  0  0  0  0  0  0  0  0  0  0  0
   42.0610   26.7180   43.6790 C   0  0  0  0  0  0  0  0  0  0  0  0
   40.9450   27.5810   43.4290 C   0  0  0  0  0  0  0  0  0  0  0  0
   39.8540   27.0000   42.8350 C   0  0  0  0  0  0  0  0  0  0  0  0
   39.8810   25.6790   42.5210 N   0  0  0  0  0  0  0  0  0  0  0  0
   40.9500   24.8920   42.7700 C   0  0  0  0  0  0  0  0  0  0  0  0
   42.0180   25.4350   43.3450 N   0  0  0  0  0  0  0  0  0  0  0  0
   42.9090   27.2010   44.1490 H   0  0  0  0  0  0  0  0  0  0  0  0
   40.9170   28.6300   43.6760 H   0  0  0  0  0  0  0  0  0  0  0  0
   40.8640   23.8480   42.4770 H   0  0  0  0  0  0  0  0  0  0  0  0
   35.1380   28.7480   38.5220 C   0  0  0  0  0  0  0  0  0  0  0  0
   35.1340   29.2980   37.2410 F   0  0  0  0  0  0  0  0  0  0  0  0
   33.8750   28.9510   39.0350 F   0  0  0  0  0  0  0  0  0  0  0  0
   35.5090   27.4440   38.4170 F   0  0  0  0  0  0  0  0  0  0  0  0
  1  7  1  0  0  0  0
  1  2  1  0  0  0  0
  2 18  1  0  0  0  0
  2  8  1  1  0  0  0
  3 10  1  0  0  0  0
  3  2  1  0  0  0  0
  4  3  1  0  0  0  0
  5  6  1  0  0  0  0
  5  4  1  0  0  0  0
  6 14  1  1  0  0  0
  6  1  1  0  0  0  0
  9  3  1  0  0  0  0
 11  4  1  0  0  0  0
 12  5  1  0  0  0  0
 13  5  1  0  0  0  0
 15 16  1  0  0  0  0
 15 24  1  0  0  0  0
 16 20  1  0  0  0  0
 17 21  1  0  0  0  0
 17 16  2  0  0  0  0
 18 19  1  0  0  0  0
 18 17  1  0  0  0  0
 19 15  2  0  0  0  0
 22 28  1  0  0  0  0
 23 29  1  0  0  0  0
 23 22  1  0  0  0  0
 24 23  2  0  0  0  0
 25 26  2  0  0  0  0
 25 24  1  0  0  0  0
 26 27  1  0  0  0  0
 27 22  2  0  0  0  0
 30 26  1  0  0  0  0
 31 33  1  0  0  0  0
 31  6  1  0  0  0  0
 32 31  1  0  0  0  0
 34 31  1  0  0  0  0
M  END
>  <minimizedAffinity>
-5.18884516

$$$$

 OpenBabel03252508303D

 34 36  0  0  1  0  0  0  0  0999 V2000
   37.0100   31.6640   39.6080 N   0  0  0  0  0  0  0  0  0  0  0  0
   37.5850   31.4760   40.9430 C   0  0  2  0  0  0  0  0  0  0  0  0
   39.0130   31.8760   41.0160 C   0  0  0  0  0  0  0  0  0  0  0  0
   39.4400   32.6090   39.8370 N   0  0  0  0  0  0  0  0  0  0  0  0
   39.1300   31.9840   38.6020 C   0  0  0  0  0  0  0  0  0  0  0  0
   37.9840   31.0090   38.7040 C   0  0  2  0  0  0  0  0  0  0  0  0
   36.1190   31.0950   39.6070 H   0  0  0  0  0  0  0  0  0  0  0  0
   36.9560   32.0840   41.6430 H   0  0  0  0  0  0  0  0  0  0  0  0
   39.7610   31.0640   41.0210 H   0  0  0  0  0  0  0  0  0  0  0  0
   39.1770   32.5920   41.8700 H   0  0  0  0  0  0  0  0  0  0  0  0
   40.4300   32.8840   39.9770 H   0  0  0  0  0  0  0  0  0  0  0  0
   40.0500   31.5110   38.1990 H   0  0  0  0  0  0  0  0  0  0  0  0
   38.8300   32.8000   37.8830 H   0  0  0  0  0  0  0  0  0  0  0  0
   38.3420   30.0830   39.1740 H   0  0  0  0  0  0  0  0  0  0  0  0
   37.9150   28.0310   41.9570 C   0  0  0  0  0  0  0  0  0  0  0  0
   36.5670   28.1490   41.5940 C   0  0  0  0  0  0  0  0  0  0  0  0
   36.3050   29.4400   41.1730 C   0  0  0  0  0  0  0  0  0  0  0  0
   37.4730   30.0690   41.2880 N   0  0  0  0  0  0  0  0  0  0  0  0
   38.4110   29.2490   41.7430 N   0  0  0  0  0  0  0  0  0  0  0  0
   35.9320   27.2650   41.6840 H   0  0  0  0  0  0  0  0  0  0  0  0
   35.2660   29.5390   40.8830 H   0  0  0  0  0  0  0  0  0  0  0  0
   40.1100   25.5100   43.6800 C   0  0  0  0  0  0  0  0  0  0  0  0
   39.6070   26.7980   43.3040 C   0  0  0  0  0  0  0  0  0  0  0  0
   38.5480   26.8010   42.4320 C   0  0  0  0  0  0  0  0  0  0  0  0
   38.0440   25.6250   41.9810 N   0  0  0  0  0  0  0  0  0  0  0  0
   38.5410   24.4260   42.3560 C   0  0  0  0  0  0  0  0  0  0  0  0
   39.5670   24.4000   43.1990 N   0  0  0  0  0  0  0  0  0  0  0  0
   40.9460   25.5350   44.3690 H   0  0  0  0  0  0  0  0  0  0  0  0
   40.0050   27.7360   43.6580 H   0  0  0  0  0  0  0  0  0  0  0  0
   38.0600   23.5470   41.9330 H   0  0  0  0  0  0  0  0  0  0  0  0
   37.3530   30.7050   37.3740 C   0  0  0  0  0  0  0  0  0  0  0  0
   38.1310   29.7090   36.7860 F   0  0  0  0  0  0  0  0  0  0  0  0
   37.5010   31.8260   36.5870 F   0  0  0  0  0  0  0  0  0  0  0  0
   36.0800   30.2400   37.4710 F   0  0  0  0  0  0  0  0  0  0  0  0
  1  2  1  0  0  0  0
  2  3  1  0  0  0  0
  2 18  1  0  0  0  0
  2  8  1  1  0  0  0
  3  9  1  0  0  0  0
  3 10  1  0  0  0  0
  4 11  1  0  0  0  0
  4  3  1  0  0  0  0
  5  6  1  0  0  0  0
  5  4  1  0  0  0  0
  6 14  1  1  0  0  0
  6  1  1  0  0  0  0
  7  1  1  0  0  0  0
 12  5  1  0  0  0  0
 13  5  1  0  0  0  0
 15 24  1  0  0  0  0
 16 20  1  0  0  0  0
 16 15  1  0  0  0  0
 17 18  1  0  0  0  0
 17 16  2  0  0  0  0
 18 19  1  0  0  0  0
 19 15  2  0  0  0  0
 21 17  1  0  0  0  0
 22 28  1  0  0  0  0
 23 29  1  0  0  0  0
 23 22  1  0  0  0  0
 24 23  2  0  0  0  0
 25 26  2  0  0  0  0
 25 24  1  0  0  0  0
 26 27  1  0  0  0  0
 27 22  2  0  0  0  0
 30 26  1  0  0  0  0
 31 34  1  0  0  0  0
 31  6  1  0  0  0  0
 32 31  1  0  0  0  0
 33 31  1  0  0  0  0
M  END
>  <minimizedAffinity>
-5.17256546

$$$$

 OpenBabel03252508303D

 34 36  0  0  1  0  0  0  0  0999 V2000
   39.2110   25.5430   40.7890 N   0  0  0  0  0  0  0  0  0  0  0  0
   39.8940   26.1690   41.9260 C   0  0  2  0  0  0  0  0  0  0  0  0
   39.7050   25.4200   43.1940 C   0  0  0  0  0  0  0  0  0  0  0  0
   39.1230   24.1070   42.9760 N   0  0  0  0  0  0  0  0  0  0  0  0
   37.9490   24.1000   42.1800 C   0  0  0  0  0  0  0  0  0  0  0  0
   37.8350   25.3080   41.2840 C   0  0  2  0  0  0  0  0  0  0  0  0
   39.1750   26.2900   40.0430 H   0  0  0  0  0  0  0  0  0  0  0  0
   40.9760   26.2290   41.6460 H   0  0  0  0  0  0  0  0  0  0  0  0
   38.9820   25.8350   43.9180 H   0  0  0  0  0  0  0  0  0  0  0  0
   40.6990   25.2120   43.6790 H   0  0  0  0  0  0  0  0  0  0  0  0
   39.0570   23.6340   43.8970 H   0  0  0  0  0  0  0  0  0  0  0  0
   37.0670   23.9840   42.8440 H   0  0  0  0  0  0  0  0  0  0  0  0
   37.9980   23.1840   41.5240 H   0  0  0  0  0  0  0  0  0  0  0  0
   37.5180   26.1710   41.8850 H   0  0  0  0  0  0  0  0  0  0  0  0
   38.6840   29.5610   41.7130 C   0  0  0  0  0  0  0  0  0  0  0  0
   38.4630   29.2050   43.0500 C   0  0  0  0  0  0  0  0  0  0  0  0
   38.8950   27.9100   43.2700 C   0  0  0  0  0  0  0  0  0  0  0  0
   39.3590   27.5100   42.0880 N   0  0  0  0  0  0  0  0  0  0  0  0
   39.2370   28.4710   41.1810 N   0  0  0  0  0  0  0  0  0  0  0  0
   38.0050   29.9460   43.7080 H   0  0  0  0  0  0  0  0  0  0  0  0
   38.7340   27.6290   44.3040 H   0  0  0  0  0  0  0  0  0  0  0  0
   37.0660   32.4220   39.8870 C   0  0  0  0  0  0  0  0  0  0  0  0
   37.2380   31.0880   40.3820 C   0  0  0  0  0  0  0  0  0  0  0  0
   38.3650   30.8630   41.1300 C   0  0  0  0  0  0  0  0  0  0  0  0
   39.2370   31.8790   41.3580 N   0  0  0  0  0  0  0  0  0  0  0  0
   39.0440   33.1260   40.8770 C   0  0  0  0  0  0  0  0  0  0  0  0
   37.9590   33.3670   40.1500 N   0  0  0  0  0  0  0  0  0  0  0  0
   36.1680   32.5730   39.3000 H   0  0  0  0  0  0  0  0  0  0  0  0
   36.5500   30.2770   40.2040 H   0  0  0  0  0  0  0  0  0  0  0  0
   39.8060   33.8640   41.1210 H   0  0  0  0  0  0  0  0  0  0  0  0
   36.8860   25.1000   40.1370 C   0  0  0  0  0  0  0  0  0  0  0  0
   35.9610   24.1450   40.5570 F   0  0  0  0  0  0  0  0  0  0  0  0
   37.6050   24.5190   39.1150 F   0  0  0  0  0  0  0  0  0  0  0  0
   36.2020   26.2210   39.7880 F   0  0  0  0  0  0  0  0  0  0  0  0
  1  6  1  0  0  0  0
  1  2  1  0  0  0  0
  2  8  1  6  0  0  0
  2 18  1  0  0  0  0
  2  3  1  0  0  0  0
  3 10  1  0  0  0  0
  3  9  1  0  0  0  0
  4  3  1  0  0  0  0
  4 11  1  0  0  0  0
  5 12  1  0  0  0  0
  5  4  1  0  0  0  0
  6 14  1  1  0  0  0
  6  5  1  0  0  0  0
  7  1  1  0  0  0  0
 13  5  1  0  0  0  0
 15 16  1  0  0  0  0
 16 17  2  0  0  0  0
 16 20  1  0  0  0  0
 17 21  1  0  0  0  0
 18 17  1  0  0  0  0
 19 15  2  0  0  0  0
 19 18  1  0  0  0  0
 22 27  2  0  0  0  0
 22 23  1  0  0  0  0
 23 24  2  0  0  0  0
 24 25  1  0  0  0  0
 24 15  1  0  0  0  0
 26 30  1  0  0  0  0
 26 25  2  0  0  0  0
 27 26  1  0  0  0  0
 28 22  1  0  0  0  0
 29 23  1  0  0  0  0
 31 32  1  0  0  0  0
 31  6  1  0  0  0  0
 33 31  1  0  0  0  0
 34 31  1  0  0  0  0
M  END
>  <minimizedAffinity>
-5.1038065

$$$$

 OpenBabel03252508303D

 34 36  0  0  1  0  0  0  0  0999 V2000
   38.6000   27.6820   41.7440 N   0  0  0  0  0  0  0  0  0  0  0  0
   38.2040   28.9990   41.2370 C   0  0  2  0  0  0  0  0  0  0  0  0
   37.2190   29.6810   42.1150 C   0  0  0  0  0  0  0  0  0  0  0  0
   37.0780   29.0210   43.4000 N   0  0  0  0  0  0  0  0  0  0  0  0
   36.8420   27.6230   43.3300 C   0  0  0  0  0  0  0  0  0  0  0  0
   37.3140   27.0090   42.0350 C   0  0  2  0  0  0  0  0  0  0  0  0
   39.0540   27.1950   40.9240 H   0  0  0  0  0  0  0  0  0  0  0  0
   39.1470   29.5950   41.1430 H   0  0  0  0  0  0  0  0  0  0  0  0
   36.1670   29.6840   41.7810 H   0  0  0  0  0  0  0  0  0  0  0  0
   37.5730   30.7200   42.3670 H   0  0  0  0  0  0  0  0  0  0  0  0
   36.4060   29.5720   43.9670 H   0  0  0  0  0  0  0  0  0  0  0  0
   35.7640   27.4320   43.5170 H   0  0  0  0  0  0  0  0  0  0  0  0
   37.4200   27.1460   44.1720 H   0  0  0  0  0  0  0  0  0  0  0  0
   36.5950   27.2510   41.2410 H   0  0  0  0  0  0  0  0  0  0  0  0
   36.2210   28.7990   38.2300 C   0  0  0  0  0  0  0  0  0  0  0  0
   37.4720   28.3000   37.8450 C   0  0  0  0  0  0  0  0  0  0  0  0
   38.3380   28.3160   38.9240 C   0  0  0  0  0  0  0  0  0  0  0  0
   37.6130   28.8160   39.9220 N   0  0  0  0  0  0  0  0  0  0  0  0
   36.3800   29.0970   39.5190 N   0  0  0  0  0  0  0  0  0  0  0  0
   37.6000   27.9820   36.8080 H   0  0  0  0  0  0  0  0  0  0  0  0
   39.3060   27.9240   38.6360 H   0  0  0  0  0  0  0  0  0  0  0  0
   32.7390   28.9900   36.8230 C   0  0  0  0  0  0  0  0  0  0  0  0
   33.7680   28.8570   37.8120 C   0  0  0  0  0  0  0  0  0  0  0  0
   35.0580   28.9110   37.3510 C   0  0  0  0  0  0  0  0  0  0  0  0
   35.2930   29.0810   36.0250 N   0  0  0  0  0  0  0  0  0  0  0  0
   34.3000   29.2040   35.1180 C   0  0  0  0  0  0  0  0  0  0  0  0
   33.0420   29.1540   35.5420 N   0  0  0  0  0  0  0  0  0  0  0  0
   31.7290   28.9440   37.2130 H   0  0  0  0  0  0  0  0  0  0  0  0
   33.5870   28.7210   38.8670 H   0  0  0  0  0  0  0  0  0  0  0  0
   34.6020   29.3370   34.0810 H   0  0  0  0  0  0  0  0  0  0  0  0
   37.5010   25.5200   42.1270 C   0  0  0  0  0  0  0  0  0  0  0  0
   38.6060   25.3110   42.9520 F   0  0  0  0  0  0  0  0  0  0  0  0
   37.8650   25.0780   40.8740 F   0  0  0  0  0  0  0  0  0  0  0  0
   36.4400   24.8730   42.6760 F   0  0  0  0  0  0  0  0  0  0  0  0
  1  6  1  0  0  0  0
  2  8  1  6  0  0  0
  2  1  1  0  0  0  0
  2  3  1  0  0  0  0
  3 10  1  0  0  0  0
  3  4  1  0  0  0  0
  4 11  1  0  0  0  0
  5  4  1  0  0  0  0
  5 12  1  0  0  0  0
  5 13  1  0  0  0  0
  6 14  1  6  0  0  0
  6 31  1  0  0  0  0
  6  5  1  0  0  0  0
  7  1  1  0  0  0  0
  9  3  1  0  0  0  0
 15 19  2  0  0  0  0
 16 15  1  0  0  0  0
 16 17  2  0  0  0  0
 17 18  1  0  0  0  0
 18  2  1  0  0  0  0
 19 18  1  0  0  0  0
 20 16  1  0  0  0  0
 21 17  1  0  0  0  0
 22 28  1  0  0  0  0
 22 23  1  0  0  0  0
 23 29  1  0  0  0  0
 24 23  2  0  0  0  0
 24 15  1  0  0  0  0
 25 24  1  0  0  0  0
 26 27  1  0  0  0  0
 26 25  2  0  0  0  0
 27 22  2  0  0  0  0
 30 26  1  0  0  0  0
 31 34  1  0  0  0  0
 31 32  1  0  0  0  0
 33 31  1  0  0  0  0
M  END
>  <minimizedAffinity>
-5.03539896

$$$$
