
 OpenBabel03252500083D

 23 24  0  0  0  0  0  0  0  0999 V2000
   38.5730   30.2640   38.1710 C   0  0  0  0  0  0  0  0  0  0  0  0
   38.6390   31.6550   38.3820 C   0  0  0  0  0  0  0  0  0  0  0  0
   38.4880   32.1200   39.6840 C   0  0  0  0  0  0  0  0  0  0  0  0
   38.2870   31.2300   40.6910 N   0  0  0  0  0  0  0  0  0  0  0  0
   38.2290   29.8880   40.4580 C   0  0  0  0  0  0  0  0  0  0  0  0
   38.3720   29.4190   39.2020 N   0  0  0  0  0  0  0  0  0  0  0  0
   38.6960   29.9500   37.1460 H   0  0  0  0  0  0  0  0  0  0  0  0
   38.7990   32.3780   37.5900 H   0  0  0  0  0  0  0  0  0  0  0  0
   35.4140   28.9490   40.7830 Cl  0  0  0  0  0  0  0  0  0  0  0  0
   36.7370   28.4820   41.7990 C   0  0  0  0  0  0  0  0  0  0  0  0
   38.0090   28.9650   41.5770 C   0  0  0  0  0  0  0  0  0  0  0  0
   39.0930   28.6100   42.3750 C   0  0  0  0  0  0  0  0  0  0  0  0
   38.8180   27.7380   43.4100 C   0  0  0  0  0  0  0  0  0  0  0  0
   37.5540   27.2510   43.6400 C   0  0  0  0  0  0  0  0  0  0  0  0
   36.5160   27.6130   42.8480 C   0  0  0  0  0  0  0  0  0  0  0  0
   40.0880   28.9890   42.1990 H   0  0  0  0  0  0  0  0  0  0  0  0
   39.6050   27.4080   44.0820 H   0  0  0  0  0  0  0  0  0  0  0  0
   37.3440   26.5720   44.4470 H   0  0  0  0  0  0  0  0  0  0  0  0
   35.5020   27.2390   43.0100 H   0  0  0  0  0  0  0  0  0  0  0  0
   38.5380   33.5830   40.0400 C   0  0  0  0  0  0  0  0  0  0  0  0
   38.6960   33.7540   41.3900 F   0  0  0  0  0  0  0  0  0  0  0  0
   39.6170   34.1610   39.3840 F   0  0  0  0  0  0  0  0  0  0  0  0
   37.3630   34.1360   39.5910 F   0  0  0  0  0  0  0  0  0  0  0  0
  1  2  2  0  0  0  0
  1  6  1  0  0  0  0
  2  3  1  0  0  0  0
  3 20  1  0  0  0  0
  3  4  2  0  0  0  0
  5  4  1  0  0  0  0
  5 11  1  0  0  0  0
  6  5  2  0  0  0  0
  7  1  1  0  0  0  0
  8  2  1  0  0  0  0
  9 10  1  0  0  0  0
 10 15  1  0  0  0  0
 11 10  2  0  0  0  0
 11 12  1  0  0  0  0
 12 13  2  0  0  0  0
 13 14  1  0  0  0  0
 13 17  1  0  0  0  0
 14 18  1  0  0  0  0
 15 19  1  0  0  0  0
 15 14  2  0  0  0  0
 16 12  1  0  0  0  0
 20 21  1  0  0  0  0
 22 20  1  0  0  0  0
 23 20  1  0  0  0  0
M  END
>  <minimizedAffinity>
-5.04020309

$$$$

 OpenBabel03252500083D

 23 24  0  0  0  0  0  0  0  0999 V2000
   37.1200   27.5540   39.1440 C   0  0  0  0  0  0  0  0  0  0  0  0
   36.9300   26.8470   40.3480 C   0  0  0  0  0  0  0  0  0  0  0  0
   37.0860   27.5450   41.5400 C   0  0  0  0  0  0  0  0  0  0  0  0
   37.4100   28.8640   41.5040 N   0  0  0  0  0  0  0  0  0  0  0  0
   37.5870   29.5240   40.3240 C   0  0  0  0  0  0  0  0  0  0  0  0
   37.4400   28.8640   39.1570 N   0  0  0  0  0  0  0  0  0  0  0  0
   36.9880   26.9720   38.2460 H   0  0  0  0  0  0  0  0  0  0  0  0
   36.6720   25.7950   40.3940 H   0  0  0  0  0  0  0  0  0  0  0  0
   40.2890   30.1500   41.4250 Cl  0  0  0  0  0  0  0  0  0  0  0  0
   39.1680   31.3270   40.8260 C   0  0  0  0  0  0  0  0  0  0  0  0
   37.9370   30.9490   40.3340 C   0  0  0  0  0  0  0  0  0  0  0  0
   37.0130   31.8690   39.8450 C   0  0  0  0  0  0  0  0  0  0  0  0
   37.4050   33.1920   39.8820 C   0  0  0  0  0  0  0  0  0  0  0  0
   38.6290   33.5800   40.3710 C   0  0  0  0  0  0  0  0  0  0  0  0
   39.5100   32.6630   40.8410 C   0  0  0  0  0  0  0  0  0  0  0  0
   36.0500   31.5710   39.4600 H   0  0  0  0  0  0  0  0  0  0  0  0
   36.7450   33.9770   39.5220 H   0  0  0  0  0  0  0  0  0  0  0  0
   38.9310   34.6120   40.3990 H   0  0  0  0  0  0  0  0  0  0  0  0
   40.4900   32.9460   41.2340 H   0  0  0  0  0  0  0  0  0  0  0  0
   36.9110   26.9030   42.8920 C   0  0  0  0  0  0  0  0  0  0  0  0
   35.8770   27.4800   43.5790 F   0  0  0  0  0  0  0  0  0  0  0  0
   36.6330   25.5550   42.7080 F   0  0  0  0  0  0  0  0  0  0  0  0
   38.1070   27.0500   43.5530 F   0  0  0  0  0  0  0  0  0  0  0  0
  1  6  2  0  0  0  0
  1  2  1  0  0  0  0
  2  8  1  0  0  0  0
  2  3  2  0  0  0  0
  3 20  1  0  0  0  0
  4  3  1  0  0  0  0
  5 11  1  0  0  0  0
  5  4  2  0  0  0  0
  6  5  1  0  0  0  0
  7  1  1  0  0  0  0
 10 15  1  0  0  0  0
 10  9  1  0  0  0  0
 11 10  2  0  0  0  0
 12 13  2  0  0  0  0
 12 11  1  0  0  0  0
 13 14  1  0  0  0  0
 14 18  1  0  0  0  0
 14 15  2  0  0  0  0
 15 19  1  0  0  0  0
 16 12  1  0  0  0  0
 17 13  1  0  0  0  0
 20 23  1  0  0  0  0
 20 21  1  0  0  0  0
 22 20  1  0  0  0  0
M  END
>  <minimizedAffinity>
-4.97590113

$$$$

 OpenBabel03252500083D

 23 24  0  0  0  0  0  0  0  0999 V2000
   40.7830   32.5290   40.9700 C   0  0  0  0  0  0  0  0  0  0  0  0
   39.6840   32.9430   40.1910 C   0  0  0  0  0  0  0  0  0  0  0  0
   38.5730   32.1080   40.1430 C   0  0  0  0  0  0  0  0  0  0  0  0
   38.5860   30.9400   40.8390 N   0  0  0  0  0  0  0  0  0  0  0  0
   39.6640   30.5650   41.5850 C   0  0  0  0  0  0  0  0  0  0  0  0
   40.7500   31.3620   41.6440 N   0  0  0  0  0  0  0  0  0  0  0  0
   41.6210   33.2090   40.9770 H   0  0  0  0  0  0  0  0  0  0  0  0
   39.6580   33.8700   39.6310 H   0  0  0  0  0  0  0  0  0  0  0  0
   36.9340   29.5790   42.2810 Cl  0  0  0  0  0  0  0  0  0  0  0  0
   38.4110   28.7660   42.6800 C   0  0  0  0  0  0  0  0  0  0  0  0
   39.6320   29.2940   42.3190 C   0  0  0  0  0  0  0  0  0  0  0  0
   40.8370   28.6670   42.6240 C   0  0  0  0  0  0  0  0  0  0  0  0
   40.7370   27.4760   43.3150 C   0  0  0  0  0  0  0  0  0  0  0  0
   39.5250   26.9410   43.6800 C   0  0  0  0  0  0  0  0  0  0  0  0
   38.3660   27.5720   43.3700 C   0  0  0  0  0  0  0  0  0  0  0  0
   41.7920   29.0820   42.3400 H   0  0  0  0  0  0  0  0  0  0  0  0
   41.6270   26.9190   43.5940 H   0  0  0  0  0  0  0  0  0  0  0  0
   39.4500   26.0130   44.2180 H   0  0  0  0  0  0  0  0  0  0  0  0
   37.3900   27.1680   43.6490 H   0  0  0  0  0  0  0  0  0  0  0  0
   37.3380   32.4360   39.3480 C   0  0  0  0  0  0  0  0  0  0  0  0
   36.9500   33.7330   39.5560 F   0  0  0  0  0  0  0  0  0  0  0  0
   37.6210   32.2620   38.0000 F   0  0  0  0  0  0  0  0  0  0  0  0
   36.3680   31.5450   39.7430 F   0  0  0  0  0  0  0  0  0  0  0  0
  1  7  1  0  0  0  0
  1  6  1  0  0  0  0
  2  1  2  0  0  0  0
  3  2  1  0  0  0  0
  3  4  2  0  0  0  0
  4  5  1  0  0  0  0
  5  6  2  0  0  0  0
  5 11  1  0  0  0  0
  8  2  1  0  0  0  0
  9 10  1  0  0  0  0
 10 15  1  0  0  0  0
 11 12  1  0  0  0  0
 11 10  2  0  0  0  0
 12 13  2  0  0  0  0
 13 17  1  0  0  0  0
 13 14  1  0  0  0  0
 14 18  1  0  0  0  0
 15 19  1  0  0  0  0
 15 14  2  0  0  0  0
 16 12  1  0  0  0  0
 20 21  1  0  0  0  0
 20 23  1  0  0  0  0
 20  3  1  0  0  0  0
 22 20  1  0  0  0  0
M  END
>  <minimizedAffinity>
-4.84493589

$$$$

 OpenBabel03252500083D

 23 24  0  0  0  0  0  0  0  0999 V2000
   35.7520   30.2770   40.5180 C   0  0  0  0  0  0  0  0  0  0  0  0
   36.8450   31.1010   40.8510 C   0  0  0  0  0  0  0  0  0  0  0  0
   38.0230   30.4830   41.2570 C   0  0  0  0  0  0  0  0  0  0  0  0
   38.0770   29.1260   41.3170 N   0  0  0  0  0  0  0  0  0  0  0  0
   37.0040   28.3530   40.9880 C   0  0  0  0  0  0  0  0  0  0  0  0
   35.8540   28.9340   40.5920 N   0  0  0  0  0  0  0  0  0  0  0  0
   34.8620   30.8010   40.2080 H   0  0  0  0  0  0  0  0  0  0  0  0
   36.8180   32.1840   40.8080 H   0  0  0  0  0  0  0  0  0  0  0  0
   36.3960   27.1910   43.6700 Cl  0  0  0  0  0  0  0  0  0  0  0  0
   36.8450   26.2720   42.2720 C   0  0  0  0  0  0  0  0  0  0  0  0
   37.1100   26.8910   41.0690 C   0  0  0  0  0  0  0  0  0  0  0  0
   37.4730   26.1820   39.9270 C   0  0  0  0  0  0  0  0  0  0  0  0
   37.5530   24.8110   40.0710 C   0  0  0  0  0  0  0  0  0  0  0  0
   37.2920   24.1840   41.2650 C   0  0  0  0  0  0  0  0  0  0  0  0
   36.9400   24.8980   42.3620 C   0  0  0  0  0  0  0  0  0  0  0  0
   37.6790   26.6690   38.9860 H   0  0  0  0  0  0  0  0  0  0  0  0
   37.8310   24.1800   39.2310 H   0  0  0  0  0  0  0  0  0  0  0  0
   37.3560   23.1160   41.3740 H   0  0  0  0  0  0  0  0  0  0  0  0
   36.7270   24.4230   43.3220 H   0  0  0  0  0  0  0  0  0  0  0  0
   39.2600   31.2520   41.6390 C   0  0  0  0  0  0  0  0  0  0  0  0
   39.5720   31.0550   42.9580 F   0  0  0  0  0  0  0  0  0  0  0  0
   40.3160   30.8070   40.8560 F   0  0  0  0  0  0  0  0  0  0  0  0
   38.9990   32.5740   41.3700 F   0  0  0  0  0  0  0  0  0  0  0  0
  1  6  2  0  0  0  0
  1  2  1  0  0  0  0
  2  3  2  0  0  0  0
  3  4  1  0  0  0  0
  3 20  1  0  0  0  0
  5 11  1  0  0  0  0
  5  4  2  0  0  0  0
  6  5  1  0  0  0  0
  7  1  1  0  0  0  0
  8  2  1  0  0  0  0
 10 15  1  0  0  0  0
 10  9  1  0  0  0  0
 11 10  2  0  0  0  0
 12 13  2  0  0  0  0
 12 11  1  0  0  0  0
 13 14  1  0  0  0  0
 14 18  1  0  0  0  0
 14 15  2  0  0  0  0
 15 19  1  0  0  0  0
 16 12  1  0  0  0  0
 17 13  1  0  0  0  0
 20 21  1  0  0  0  0
 22 20  1  0  0  0  0
 23 20  1  0  0  0  0
M  END
>  <minimizedAffinity>
-4.8347106

$$$$

 OpenBabel03252500083D

 23 24  0  0  0  0  0  0  0  0999 V2000
   35.6720   30.2210   40.6640 C   0  0  0  0  0  0  0  0  0  0  0  0
   36.8110   30.9860   40.9850 C   0  0  0  0  0  0  0  0  0  0  0  0
   37.9700   30.3040   41.3380 C   0  0  0  0  0  0  0  0  0  0  0  0
   37.9650   28.9450   41.3580 N   0  0  0  0  0  0  0  0  0  0  0  0
   36.8490   28.2300   41.0420 C   0  0  0  0  0  0  0  0  0  0  0  0
   35.7150   28.8740   40.6970 N   0  0  0  0  0  0  0  0  0  0  0  0
   34.7970   30.7920   40.3960 H   0  0  0  0  0  0  0  0  0  0  0  0
   36.8310   32.0700   40.9730 H   0  0  0  0  0  0  0  0  0  0  0  0
   36.6790   26.8960   38.3770 Cl  0  0  0  0  0  0  0  0  0  0  0  0
   36.8190   26.0670   39.8920 C   0  0  0  0  0  0  0  0  0  0  0  0
   36.8910   26.7640   41.0790 C   0  0  0  0  0  0  0  0  0  0  0  0
   37.0030   26.1280   42.3130 C   0  0  0  0  0  0  0  0  0  0  0  0
   37.0380   24.7490   42.2770 C   0  0  0  0  0  0  0  0  0  0  0  0
   36.9660   24.0450   41.1000 C   0  0  0  0  0  0  0  0  0  0  0  0
   36.8570   24.6880   39.9120 C   0  0  0  0  0  0  0  0  0  0  0  0
   37.0600   26.6750   43.2410 H   0  0  0  0  0  0  0  0  0  0  0  0
   37.1230   24.1710   43.1940 H   0  0  0  0  0  0  0  0  0  0  0  0
   36.9930   22.9690   41.0750 H   0  0  0  0  0  0  0  0  0  0  0  0
   36.7990   24.1510   38.9620 H   0  0  0  0  0  0  0  0  0  0  0  0
   39.2520   31.0060   41.7030 C   0  0  0  0  0  0  0  0  0  0  0  0
   39.1580   32.3530   41.4690 F   0  0  0  0  0  0  0  0  0  0  0  0
   39.4990   30.8000   43.0540 F   0  0  0  0  0  0  0  0  0  0  0  0
   40.2450   30.4270   40.9500 F   0  0  0  0  0  0  0  0  0  0  0  0
  1  6  2  0  0  0  0
  1  2  1  0  0  0  0
  2  3  2  0  0  0  0
  3  4  1  0  0  0  0
  3 20  1  0  0  0  0
  5 11  1  0  0  0  0
  5  4  2  0  0  0  0
  6  5  1  0  0  0  0
  7  1  1  0  0  0  0
  8  2  1  0  0  0  0
  9 10  1  0  0  0  0
 10 15  2  0  0  0  0
 10 11  1  0  0  0  0
 11 12  2  0  0  0  0
 12 16  1  0  0  0  0
 13 12  1  0  0  0  0
 13 17  1  0  0  0  0
 14 13  2  0  0  0  0
 15 14  1  0  0  0  0
 18 14  1  0  0  0  0
 19 15  1  0  0  0  0
 20 22  1  0  0  0  0
 21 20  1  0  0  0  0
 23 20  1  0  0  0  0
M  END
>  <minimizedAffinity>
-4.75718451

$$$$

 OpenBabel03252500083D

 23 24  0  0  0  0  0  0  0  0999 V2000
   39.9670   29.2090   39.6900 C   0  0  0  0  0  0  0  0  0  0  0  0
   39.2080   30.3870   39.8340 C   0  0  0  0  0  0  0  0  0  0  0  0
   37.8840   30.2590   40.2400 C   0  0  0  0  0  0  0  0  0  0  0  0
   37.3770   29.0210   40.4820 N   0  0  0  0  0  0  0  0  0  0  0  0
   38.1350   27.8980   40.3350 C   0  0  0  0  0  0  0  0  0  0  0  0
   39.4210   28.0020   39.9420 N   0  0  0  0  0  0  0  0  0  0  0  0
   40.9880   29.3580   39.3740 H   0  0  0  0  0  0  0  0  0  0  0  0
   39.5970   31.3810   39.6460 H   0  0  0  0  0  0  0  0  0  0  0  0
   38.3440   26.9820   43.1680 Cl  0  0  0  0  0  0  0  0  0  0  0  0
   37.5960   26.0830   41.8900 C   0  0  0  0  0  0  0  0  0  0  0  0
   37.5440   26.5820   40.6060 C   0  0  0  0  0  0  0  0  0  0  0  0
   36.9510   25.8860   39.5570 C   0  0  0  0  0  0  0  0  0  0  0  0
   36.4140   24.6550   39.8800 C   0  0  0  0  0  0  0  0  0  0  0  0
   36.4610   24.1480   41.1560 C   0  0  0  0  0  0  0  0  0  0  0  0
   37.0440   24.8480   42.1590 C   0  0  0  0  0  0  0  0  0  0  0  0
   36.9100   26.2780   38.5530 H   0  0  0  0  0  0  0  0  0  0  0  0
   35.9320   24.0440   39.1220 H   0  0  0  0  0  0  0  0  0  0  0  0
   36.0410   23.1890   41.4040 H   0  0  0  0  0  0  0  0  0  0  0  0
   37.0940   24.4660   43.1820 H   0  0  0  0  0  0  0  0  0  0  0  0
   36.9700   31.4400   40.4300 C   0  0  0  0  0  0  0  0  0  0  0  0
   35.9830   31.1570   41.3360 F   0  0  0  0  0  0  0  0  0  0  0  0
   37.7200   32.5090   40.9020 F   0  0  0  0  0  0  0  0  0  0  0  0
   36.4530   31.7400   39.1920 F   0  0  0  0  0  0  0  0  0  0  0  0
  1  2  2  0  0  0  0
  1  6  1  0  0  0  0
  2  3  1  0  0  0  0
  3 20  1  0  0  0  0
  3  4  2  0  0  0  0
  5  4  1  0  0  0  0
  5 11  1  0  0  0  0
  6  5  2  0  0  0  0
  7  1  1  0  0  0  0
  8  2  1  0  0  0  0
 10 15  1  0  0  0  0
 10  9  1  0  0  0  0
 11 10  2  0  0  0  0
 12 13  2  0  0  0  0
 12 11  1  0  0  0  0
 13 14  1  0  0  0  0
 14 18  1  0  0  0  0
 14 15  2  0  0  0  0
 15 19  1  0  0  0  0
 16 12  1  0  0  0  0
 17 13  1  0  0  0  0
 20 22  1  0  0  0  0
 20 21  1  0  0  0  0
 23 20  1  0  0  0  0
M  END
>  <minimizedAffinity>
-4.64983082

$$$$

 OpenBabel03252500083D

 23 24  0  0  0  0  0  0  0  0999 V2000
   37.0370   27.8040   43.5740 C   0  0  0  0  0  0  0  0  0  0  0  0
   38.2090   28.5850   43.6180 C   0  0  0  0  0  0  0  0  0  0  0  0
   38.5880   29.2510   42.4570 C   0  0  0  0  0  0  0  0  0  0  0  0
   37.8250   29.1280   41.3390 N   0  0  0  0  0  0  0  0  0  0  0  0
   36.6950   28.3650   41.3250 C   0  0  0  0  0  0  0  0  0  0  0  0
   36.3120   27.7120   42.4410 N   0  0  0  0  0  0  0  0  0  0  0  0
   36.7840   27.3070   44.4970 H   0  0  0  0  0  0  0  0  0  0  0  0
   38.8280   28.6940   44.5010 H   0  0  0  0  0  0  0  0  0  0  0  0
   37.5040   26.1550   39.4900 Cl  0  0  0  0  0  0  0  0  0  0  0  0
   36.2100   27.2670   39.1900 C   0  0  0  0  0  0  0  0  0  0  0  0
   35.9040   28.2610   40.0930 C   0  0  0  0  0  0  0  0  0  0  0  0
   34.8710   29.1710   39.8820 C   0  0  0  0  0  0  0  0  0  0  0  0
   34.1660   29.0180   38.7050 C   0  0  0  0  0  0  0  0  0  0  0  0
   34.4640   28.0300   37.7970 C   0  0  0  0  0  0  0  0  0  0  0  0
   35.4740   27.1580   38.0280 C   0  0  0  0  0  0  0  0  0  0  0  0
   34.6320   29.9480   40.5920 H   0  0  0  0  0  0  0  0  0  0  0  0
   33.3440   29.6840   38.4590 H   0  0  0  0  0  0  0  0  0  0  0  0
   33.9120   27.9140   36.8810 H   0  0  0  0  0  0  0  0  0  0  0  0
   35.7300   26.3640   37.3210 H   0  0  0  0  0  0  0  0  0  0  0  0
   39.8180   30.1150   42.3750 C   0  0  0  0  0  0  0  0  0  0  0  0
   40.0390   30.5340   41.0900 F   0  0  0  0  0  0  0  0  0  0  0  0
   39.6310   31.2280   43.1850 F   0  0  0  0  0  0  0  0  0  0  0  0
   40.8620   29.3580   42.8510 F   0  0  0  0  0  0  0  0  0  0  0  0
  1  2  1  0  0  0  0
  1  7  1  0  0  0  0
  2  8  1  0  0  0  0
  3  2  2  0  0  0  0
  4  3  1  0  0  0  0
  5  4  2  0  0  0  0
  5  6  1  0  0  0  0
  6  1  2  0  0  0  0
 10  9  1  0  0  0  0
 10 11  1  0  0  0  0
 11  5  1  0  0  0  0
 12 11  2  0  0  0  0
 12 16  1  0  0  0  0
 13 12  1  0  0  0  0
 14 15  1  0  0  0  0
 14 13  2  0  0  0  0
 15 10  2  0  0  0  0
 17 13  1  0  0  0  0
 18 14  1  0  0  0  0
 19 15  1  0  0  0  0
 20  3  1  0  0  0  0
 20 23  1  0  0  0  0
 20 22  1  0  0  0  0
 21 20  1  0  0  0  0
M  END
>  <minimizedAffinity>
-4.630898

$$$$

 OpenBabel03252500083D

 23 24  0  0  0  0  0  0  0  0999 V2000
   37.3870   29.5280   37.6600 C   0  0  0  0  0  0  0  0  0  0  0  0
   36.0540   29.4310   37.2130 C   0  0  0  0  0  0  0  0  0  0  0  0
   35.1010   28.9690   38.1130 C   0  0  0  0  0  0  0  0  0  0  0  0
   35.4820   28.6330   39.3740 N   0  0  0  0  0  0  0  0  0  0  0  0
   36.7790   28.7370   39.7800 C   0  0  0  0  0  0  0  0  0  0  0  0
   37.7180   29.1840   38.9210 N   0  0  0  0  0  0  0  0  0  0  0  0
   38.0900   29.8920   36.9270 H   0  0  0  0  0  0  0  0  0  0  0  0
   35.7340   29.6960   36.2110 H   0  0  0  0  0  0  0  0  0  0  0  0
   36.9820   25.8000   40.2710 Cl  0  0  0  0  0  0  0  0  0  0  0  0
   37.2600   27.0240   41.4640 C   0  0  0  0  0  0  0  0  0  0  0  0
   37.1430   28.3620   41.1510 C   0  0  0  0  0  0  0  0  0  0  0  0
   37.3590   29.3700   42.0870 C   0  0  0  0  0  0  0  0  0  0  0  0
   37.7000   28.9490   43.3570 C   0  0  0  0  0  0  0  0  0  0  0  0
   37.8170   27.6190   43.6800 C   0  0  0  0  0  0  0  0  0  0  0  0
   37.6020   26.6570   42.7500 C   0  0  0  0  0  0  0  0  0  0  0  0
   37.2690   30.4170   41.8390 H   0  0  0  0  0  0  0  0  0  0  0  0
   37.8850   29.6680   44.1490 H   0  0  0  0  0  0  0  0  0  0  0  0
   38.0820   27.2940   44.6710 H   0  0  0  0  0  0  0  0  0  0  0  0
   37.6900   25.5930   42.9820 H   0  0  0  0  0  0  0  0  0  0  0  0
   33.6450   28.8200   37.7580 C   0  0  0  0  0  0  0  0  0  0  0  0
   32.8430   29.2210   38.7930 F   0  0  0  0  0  0  0  0  0  0  0  0
   33.3780   29.6130   36.6490 F   0  0  0  0  0  0  0  0  0  0  0  0
   33.4510   27.4960   37.4460 F   0  0  0  0  0  0  0  0  0  0  0  0
  1  6  1  0  0  0  0
  2  1  2  0  0  0  0
  2  3  1  0  0  0  0
  3  4  2  0  0  0  0
  4  5  1  0  0  0  0
  5 11  1  0  0  0  0
  6  5  2  0  0  0  0
  7  1  1  0  0  0  0
  8  2  1  0  0  0  0
  9 10  1  0  0  0  0
 10 15  1  0  0  0  0
 11 10  2  0  0  0  0
 11 12  1  0  0  0  0
 12 13  2  0  0  0  0
 13 14  1  0  0  0  0
 13 17  1  0  0  0  0
 14 18  1  0  0  0  0
 15 19  1  0  0  0  0
 15 14  2  0  0  0  0
 16 12  1  0  0  0  0
 20  3  1  0  0  0  0
 20 21  1  0  0  0  0
 22 20  1  0  0  0  0
 23 20  1  0  0  0  0
M  END
>  <minimizedAffinity>
-4.60892534

$$$$

 OpenBabel03252500083D

 23 24  0  0  0  0  0  0  0  0999 V2000
   38.1250   30.5320   41.3820 C   0  0  0  0  0  0  0  0  0  0  0  0
   38.0180   29.4970   42.3320 C   0  0  0  0  0  0  0  0  0  0  0  0
   37.3860   28.3220   41.9400 C   0  0  0  0  0  0  0  0  0  0  0  0
   36.9020   28.2140   40.6750 N   0  0  0  0  0  0  0  0  0  0  0  0
   37.0200   29.2320   39.7760 C   0  0  0  0  0  0  0  0  0  0  0  0
   37.6300   30.3800   40.1380 N   0  0  0  0  0  0  0  0  0  0  0  0
   38.6230   31.4230   41.7310 H   0  0  0  0  0  0  0  0  0  0  0  0
   38.3980   29.5670   43.3450 H   0  0  0  0  0  0  0  0  0  0  0  0
   34.0410   29.2130   39.5980 Cl  0  0  0  0  0  0  0  0  0  0  0  0
   35.1140   29.0520   38.2480 C   0  0  0  0  0  0  0  0  0  0  0  0
   36.4810   29.0710   38.4210 C   0  0  0  0  0  0  0  0  0  0  0  0
   37.3710   28.9430   37.3570 C   0  0  0  0  0  0  0  0  0  0  0  0
   36.7990   28.7960   36.1090 C   0  0  0  0  0  0  0  0  0  0  0  0
   35.4380   28.7750   35.9260 C   0  0  0  0  0  0  0  0  0  0  0  0
   34.5940   28.9010   36.9790 C   0  0  0  0  0  0  0  0  0  0  0  0
   38.4410   28.9600   37.4950 H   0  0  0  0  0  0  0  0  0  0  0  0
   37.4190   28.6890   35.2230 H   0  0  0  0  0  0  0  0  0  0  0  0
   34.9950   28.6590   34.9520 H   0  0  0  0  0  0  0  0  0  0  0  0
   33.5070   28.8870   36.8590 H   0  0  0  0  0  0  0  0  0  0  0  0
   37.2080   27.1430   42.8610 C   0  0  0  0  0  0  0  0  0  0  0  0
   38.2960   26.9900   43.6790 F   0  0  0  0  0  0  0  0  0  0  0  0
   36.0830   27.3620   43.6450 F   0  0  0  0  0  0  0  0  0  0  0  0
   37.0150   26.0440   42.0590 F   0  0  0  0  0  0  0  0  0  0  0  0
  1  7  1  0  0  0  0
  1  2  1  0  0  0  0
  2  8  1  0  0  0  0
  3  2  2  0  0  0  0
  3 20  1  0  0  0  0
  4  3  1  0  0  0  0
  5  6  1  0  0  0  0
  5  4  2  0  0  0  0
  6  1  2  0  0  0  0
 10 11  1  0  0  0  0
 10  9  1  0  0  0  0
 11  5  1  0  0  0  0
 12 16  1  0  0  0  0
 12 11  2  0  0  0  0
 13 12  1  0  0  0  0
 14 13  2  0  0  0  0
 14 15  1  0  0  0  0
 15 10  2  0  0  0  0
 17 13  1  0  0  0  0
 18 14  1  0  0  0  0
 19 15  1  0  0  0  0
 20 22  1  0  0  0  0
 20 21  1  0  0  0  0
 23 20  1  0  0  0  0
M  END
>  <minimizedAffinity>
-4.60824156

$$$$
