
 OpenBabel03252505153D

 20 21  0  0  0  0  0  0  0  0999 V2000
   44.6080   36.0070   44.3380 C   0  0  0  0  0  0  0  0  0  0  0  0
   45.3500   35.9340   43.1360 C   0  0  0  0  0  0  0  0  0  0  0  0
   46.2530   34.8930   43.0410 C   0  0  0  0  0  0  0  0  0  0  0  0
   46.3980   33.9990   44.0720 N   0  0  0  0  0  0  0  0  0  0  0  0
   45.6660   34.1010   45.2150 C   0  0  0  0  0  0  0  0  0  0  0  0
   44.7720   35.1120   45.3370 N   0  0  0  0  0  0  0  0  0  0  0  0
   43.8900   36.8180   44.4390 H   0  0  0  0  0  0  0  0  0  0  0  0
   45.2360   36.6280   42.3370 H   0  0  0  0  0  0  0  0  0  0  0  0
   47.0730   34.7050   41.7980 C   0  0  0  0  0  0  0  0  0  0  0  0
   48.3590   35.5010   41.8140 C   0  0  0  0  0  0  0  0  0  0  0  0
   48.3190   33.9520   41.8990 C   0  0  0  0  0  0  0  0  0  0  0  0
   46.4950   34.7710   40.8350 H   0  0  0  0  0  0  0  0  0  0  0  0
   48.6530   36.0450   42.7260 H   0  0  0  0  0  0  0  0  0  0  0  0
   48.7250   35.8800   40.8400 H   0  0  0  0  0  0  0  0  0  0  0  0
   48.6300   33.3990   40.9820 H   0  0  0  0  0  0  0  0  0  0  0  0
   48.6490   33.5460   42.8760 H   0  0  0  0  0  0  0  0  0  0  0  0
   45.8530   33.1120   46.3060 C   0  0  0  0  0  0  0  0  0  0  0  0
   47.1260   33.1410   46.8250 F   0  0  0  0  0  0  0  0  0  0  0  0
   44.9370   33.2940   47.3350 F   0  0  0  0  0  0  0  0  0  0  0  0
   45.6690   31.8090   45.8270 F   0  0  0  0  0  0  0  0  0  0  0  0
  1  7  1  0  0  0  0
  1  6  1  0  0  0  0
  2  1  2  0  0  0  0
  3  2  1  0  0  0  0
  3  4  2  0  0  0  0
  4  5  1  0  0  0  0
  5  6  2  0  0  0  0
  5 17  1  0  0  0  0
  8  2  1  0  0  0  0
  9 10  1  0  0  0  0
  9 11  1  0  0  0  0
  9  3  1  0  0  0  0
 10 11  1  0  0  0  0
 10 13  1  0  0  0  0
 11 16  1  0  0  0  0
 12  9  1  0  0  0  0
 14 10  1  0  0  0  0
 15 11  1  0  0  0  0
 17 18  1  0  0  0  0
 17 19  1  0  0  0  0
 20 17  1  0  0  0  0
M  END
>  <minimizedAffinity>
-4.77434587

>  <minimizedRMSD>
0.165593579

$$$$
