
 OpenBabel03252508383D

 36 38  0  0  0  0  0  0  0  0999 V2000
   45.1500   33.9460   40.7010 C   0  0  0  0  0  0  0  0  0  0  0  0
   44.1010   33.6320   39.8820 C   0  0  0  0  0  0  0  0  0  0  0  0
   44.4050   33.1290   38.6500 C   0  0  0  0  0  0  0  0  0  0  0  0
   45.6780   32.9250   38.1930 C   0  0  0  0  0  0  0  0  0  0  0  0
   46.7150   33.2490   39.0370 C   0  0  0  0  0  0  0  0  0  0  0  0
   46.4750   33.7630   40.3000 C   0  0  0  0  0  0  0  0  0  0  0  0
   43.5840   32.8760   37.9900 H   0  0  0  0  0  0  0  0  0  0  0  0
   45.8760   32.5260   37.2130 H   0  0  0  0  0  0  0  0  0  0  0  0
   47.7290   33.0940   38.6930 H   0  0  0  0  0  0  0  0  0  0  0  0
   40.8220   35.2600   40.7990 C   0  0  0  0  0  0  0  0  0  0  0  0
   42.1230   35.0960   40.2720 C   0  0  0  0  0  0  0  0  0  0  0  0
   42.7670   33.8600   40.4000 C   0  0  0  0  0  0  0  0  0  0  0  0
   42.0580   32.8900   41.0440 N   0  0  0  0  0  0  0  0  0  0  0  0
   40.8320   33.0710   41.5320 C   0  0  0  0  0  0  0  0  0  0  0  0
   40.2170   34.2450   41.4120 N   0  0  0  0  0  0  0  0  0  0  0  0
   40.2320   36.5430   40.6310 N   0  0  0  0  0  0  0  0  0  0  0  0
   42.6650   35.8780   39.7670 H   0  0  0  0  0  0  0  0  0  0  0  0
   40.3610   32.2280   42.0250 H   0  0  0  0  0  0  0  0  0  0  0  0
   40.8490   37.3770   40.7840 H   0  0  0  0  0  0  0  0  0  0  0  0
   39.2170   36.5100   40.3650 H   0  0  0  0  0  0  0  0  0  0  0  0
   47.6300   34.0760   41.1150 C   0  0  0  0  0  0  0  0  0  0  0  0
   48.1140   35.3660   40.9770 C   0  0  0  0  0  0  0  0  0  0  0  0
   49.2150   35.8620   41.6740 C   0  0  0  0  0  0  0  0  0  0  0  0
   49.8450   35.0020   42.5470 C   0  0  0  0  0  0  0  0  0  0  0  0
   49.3770   33.7140   42.6970 C   0  0  0  0  0  0  0  0  0  0  0  0
   48.2730   33.2400   41.9880 C   0  0  0  0  0  0  0  0  0  0  0  0
   47.6530   36.0950   40.2960 H   0  0  0  0  0  0  0  0  0  0  0  0
   49.5560   36.8760   41.5340 H   0  0  0  0  0  0  0  0  0  0  0  0
   50.7000   35.2990   43.1260 H   0  0  0  0  0  0  0  0  0  0  0  0
   49.8360   32.9900   43.3750 H   0  0  0  0  0  0  0  0  0  0  0  0
   47.7760   31.8500   42.1360 C   0  0  0  0  0  0  0  0  0  0  0  0
   46.4360   31.8760   42.4580 F   0  0  0  0  0  0  0  0  0  0  0  0
   48.5450   31.0780   42.9590 F   0  0  0  0  0  0  0  0  0  0  0  0
   47.8380   31.2660   40.8660 F   0  0  0  0  0  0  0  0  0  0  0  0
   44.7530   34.9090   43.1030 N   0  0  0  0  0  0  0  0  0  0  0  0
   44.9280   34.4890   42.0250 C   0  0  0  0  0  0  0  0  0  0  0  0
  1 36  1  0  0  0  0
  2 12  1  0  0  0  0
  2  1  2  0  0  0  0
  3  2  1  0  0  0  0
  4  3  2  0  0  0  0
  4  5  1  0  0  0  0
  5  6  2  0  0  0  0
  6  1  1  0  0  0  0
  6 21  1  0  0  0  0
  7  3  1  0  0  0  0
  8  4  1  0  0  0  0
  9  5  1  0  0  0  0
 10 15  1  0  0  0  0
 11 12  1  0  0  0  0
 11 10  2  0  0  0  0
 12 13  2  0  0  0  0
 13 14  1  0  0  0  0
 14 18  1  0  0  0  0
 15 14  2  0  0  0  0
 16 19  1  0  0  0  0
 16 10  1  0  0  0  0
 17 11  1  0  0  0  0
 20 16  1  0  0  0  0
 21 26  1  0  0  0  0
 22 21  2  0  0  0  0
 22 23  1  0  0  0  0
 23 24  2  0  0  0  0
 24 25  1  0  0  0  0
 24 29  1  0  0  0  0
 25 30  1  0  0  0  0
 26 31  1  0  0  0  0
 26 25  2  0  0  0  0
 27 22  1  0  0  0  0
 28 23  1  0  0  0  0
 31 32  1  0  0  0  0
 31 33  1  0  0  0  0
 34 31  1  0  0  0  0
 36 35  3  0  0  0  0
M  END
>  <minimizedAffinity>
-5.96593475

>  <minimizedRMSD>
0.0821535364

$$$$
