
 OpenBabel03242521213D

 31 33  0  0  0  0  0  0  0  0999 V2000
   43.6830   34.2940   41.6710 C   0  0  0  0  0  0  0  0  0  0  0  0
   42.9700   35.4400   41.4790 C   0  0  0  0  0  0  0  0  0  0  0  0
   41.6140   35.4670   41.2190 C   0  0  0  0  0  0  0  0  0  0  0  0
   41.0110   34.2550   41.1660 N   0  0  0  0  0  0  0  0  0  0  0  0
   41.7140   33.1280   41.3560 C   0  0  0  0  0  0  0  0  0  0  0  0
   43.0460   33.1010   41.6120 N   0  0  0  0  0  0  0  0  0  0  0  0
   43.4600   36.4030   41.5230 H   0  0  0  0  0  0  0  0  0  0  0  0
   41.0430   36.3580   41.0660 H   0  0  0  0  0  0  0  0  0  0  0  0
   41.0190   31.8160   41.2910 C   0  0  0  0  0  0  0  0  0  0  0  0
   40.6010   31.2140   42.4620 C   0  0  0  0  0  0  0  0  0  0  0  0
   39.9500   30.0020   42.5180 C   0  0  0  0  0  0  0  0  0  0  0  0
   39.7080   29.3590   41.2950 C   0  0  0  0  0  0  0  0  0  0  0  0
   40.1240   29.9580   40.1410 C   0  0  0  0  0  0  0  0  0  0  0  0
   40.7720   31.1690   40.1060 C   0  0  0  0  0  0  0  0  0  0  0  0
   40.7990   31.7330   43.3920 H   0  0  0  0  0  0  0  0  0  0  0  0
   39.6470   29.5830   43.4710 H   0  0  0  0  0  0  0  0  0  0  0  0
   39.1990   28.4060   41.3150 H   0  0  0  0  0  0  0  0  0  0  0  0
   39.9200   29.4310   39.2180 H   0  0  0  0  0  0  0  0  0  0  0  0
   41.2150   31.8010   38.8360 C   0  0  0  0  0  0  0  0  0  0  0  0
   42.6090   31.9240   38.9030 F   0  0  0  0  0  0  0  0  0  0  0  0
   40.9270   31.0780   37.7190 F   0  0  0  0  0  0  0  0  0  0  0  0
   40.7260   33.1020   38.8010 F   0  0  0  0  0  0  0  0  0  0  0  0
   46.8710   34.1670   43.4760 C   0  0  0  0  0  0  0  0  0  0  0  0
   47.7960   34.3630   42.4590 C   0  0  0  0  0  0  0  0  0  0  0  0
   47.3390   34.5380   41.1640 C   0  0  0  0  0  0  0  0  0  0  0  0
   45.9850   34.5090   40.9380 N   0  0  0  0  0  0  0  0  0  0  0  0
   45.1130   34.3190   41.9420 C   0  0  0  0  0  0  0  0  0  0  0  0
   45.5480   34.1500   43.1910 N   0  0  0  0  0  0  0  0  0  0  0  0
   47.2770   34.0360   44.4700 H   0  0  0  0  0  0  0  0  0  0  0  0
   48.8560   34.3980   42.5400 H   0  0  0  0  0  0  0  0  0  0  0  0
   47.8850   34.7010   40.2450 H   0  0  0  0  0  0  0  0  0  0  0  0
  1 27  1  0  0  0  0
  2  7  1  0  0  0  0
  2  1  2  0  0  0  0
  3  2  1  0  0  0  0
  4  3  2  0  0  0  0
  4  5  1  0  0  0  0
  5  6  2  0  0  0  0
  6  1  1  0  0  0  0
  8  3  1  0  0  0  0
  9  5  1  0  0  0  0
  9 10  1  0  0  0  0
 10 11  2  0  0  0  0
 10 15  1  0  0  0  0
 11 16  1  0  0  0  0
 12 17  1  0  0  0  0
 12 11  1  0  0  0  0
 13 12  2  0  0  0  0
 14 13  1  0  0  0  0
 14  9  2  0  0  0  0
 18 13  1  0  0  0  0
 19 20  1  0  0  0  0
 19 14  1  0  0  0  0
 21 19  1  0  0  0  0
 22 19  1  0  0  0  0
 23 29  1  0  0  0  0
 24 30  1  0  0  0  0
 24 23  2  0  0  0  0
 25 24  1  0  0  0  0
 26 25  2  0  0  0  0
 26 27  1  0  0  0  0
 27 28  2  0  0  0  0
 28 23  1  0  0  0  0
 31 25  1  0  0  0  0
M  END
>  <minimizedAffinity>
-4.52861881

>  <minimizedRMSD>
7.42715263

$$$$
