
 OpenBabel03242518253D

 40 43  0  0  1  0  0  0  0  0999 V2000
   43.5200   34.8390   41.3530 C   0  0  0  0  0  0  0  0  0  0  0  0
   42.5750   34.0450   40.7020 C   0  0  0  0  0  0  0  0  0  0  0  0
   42.5160   32.7150   41.0750 C   0  0  0  0  0  0  0  0  0  0  0  0
   43.3420   32.2240   42.0290 N   0  0  0  0  0  0  0  0  0  0  0  0
   44.2400   33.0190   42.6370 C   0  0  0  0  0  0  0  0  0  0  0  0
   44.3370   34.3320   42.3060 N   0  0  0  0  0  0  0  0  0  0  0  0
   43.6190   35.8880   41.1100 H   0  0  0  0  0  0  0  0  0  0  0  0
   41.7830   32.1040   40.5670 H   0  0  0  0  0  0  0  0  0  0  0  0
   41.7830   34.6790   39.7310 N   0  0  0  0  0  0  0  0  0  0  0  0
   42.4670   35.2580   38.6020 C   0  0  0  0  0  0  0  0  0  0  0  0
   41.5900   36.0140   37.6750 C   0  0  0  0  0  0  0  0  0  0  0  0
   40.3990   35.2890   37.3390 N   0  0  0  0  0  0  0  0  0  0  0  0
   39.8060   34.5010   38.3450 C   0  0  0  0  0  0  0  0  0  0  0  0
   40.3650   34.8320   39.7090 C   0  0  0  0  0  0  0  0  0  0  0  0
   43.2740   35.8980   38.9910 H   0  0  0  0  0  0  0  0  0  0  0  0
   42.9680   34.4370   38.0280 H   0  0  0  0  0  0  0  0  0  0  0  0
   42.1540   36.2320   36.7550 H   0  0  0  0  0  0  0  0  0  0  0  0
   41.3530   37.0040   38.1380 H   0  0  0  0  0  0  0  0  0  0  0  0
   39.7170   35.9860   36.9290 H   0  0  0  0  0  0  0  0  0  0  0  0
   38.7010   34.5510   38.3680 H   0  0  0  0  0  0  0  0  0  0  0  0
   40.0390   33.4170   38.1590 H   0  0  0  0  0  0  0  0  0  0  0  0
   40.1460   35.9150   39.8900 H   0  0  0  0  0  0  0  0  0  0  0  0
   39.8370   34.2630   40.5020 H   0  0  0  0  0  0  0  0  0  0  0  0
   45.6240   31.2090   43.5380 C   0  0  0  0  0  0  0  0  0  0  0  0
   45.1310   32.4780   43.6700 C   0  0  0  0  0  0  0  0  0  0  0  0
   45.4930   33.2070   44.7740 C   0  0  0  0  0  0  0  0  0  0  0  0
   46.3360   32.6640   45.7260 C   0  0  0  0  0  0  0  0  0  0  0  0
   46.8310   31.3740   45.5820 C   0  0  0  0  0  0  0  0  0  0  0  0
   46.4740   30.6280   44.4740 C   0  0  0  0  0  0  0  0  0  0  0  0
   47.6420   31.1090   46.6850 O   0  0  0  0  0  0  0  0  0  0  0  0
   47.4200   32.1120   47.6480 C   0  0  1  0  0  0  0  0  0  0  0  0
   46.8540   33.1730   46.9220 O   0  0  0  0  0  0  0  0  0  0  0  0
   45.3250   30.6430   42.6530 H   0  0  0  0  0  0  0  0  0  0  0  0
   45.1170   34.2290   44.9120 H   0  0  0  0  0  0  0  0  0  0  0  0
   46.8330   29.6320   44.3270 H   0  0  0  0  0  0  0  0  0  0  0  0
   48.3460   32.4480   48.1340 H   0  0  0  0  0  0  0  0  0  0  0  0
   46.4410   31.5410   48.6650 C   0  0  0  0  0  0  0  0  0  0  0  0
   45.7480   32.5890   49.2450 F   0  0  0  0  0  0  0  0  0  0  0  0
   45.5570   30.7120   48.0410 F   0  0  0  0  0  0  0  0  0  0  0  0
   47.1960   30.8530   49.5840 F   0  0  0  0  0  0  0  0  0  0  0  0
  1  6  1  0  0  0  0
  2  3  1  0  0  0  0
  2  1  2  0  0  0  0
  3  4  2  0  0  0  0
  4  5  1  0  0  0  0
  5 25  1  0  0  0  0
  6  5  2  0  0  0  0
  7  1  1  0  0  0  0
  8  3  1  0  0  0  0
  9  2  1  0  0  0  0
 10 15  1  0  0  0  0
 10  9  1  0  0  0  0
 11 18  1  0  0  0  0
 11 10  1  0  0  0  0
 12 11  1  0  0  0  0
 12 13  1  0  0  0  0
 13 20  1  0  0  0  0
 13 14  1  0  0  0  0
 14  9  1  0  0  0  0
 14 22  1  0  0  0  0
 14 23  1  0  0  0  0
 16 10  1  0  0  0  0
 17 11  1  0  0  0  0
 19 12  1  0  0  0  0
 21 13  1  0  0  0  0
 24 25  2  0  0  0  0
 24 29  1  0  0  0  0
 25 26  1  0  0  0  0
 26 34  1  0  0  0  0
 26 27  2  0  0  0  0
 27 32  1  0  0  0  0
 28 27  1  0  0  0  0
 28 30  1  0  0  0  0
 29 28  2  0  0  0  0
 30 31  1  0  0  0  0
 31 36  1  1  0  0  0
 31 37  1  0  0  0  0
 32 31  1  0  0  0  0
 33 24  1  0  0  0  0
 35 29  1  0  0  0  0
 37 38  1  0  0  0  0
 37 40  1  0  0  0  0
 39 37  1  0  0  0  0
M  END
>  <minimizedAffinity>
-5.90178108

>  <minimizedRMSD>
1.38688922

$$$$
