
 OpenBabel03252502033D

 29 31  0  0  0  0  0  0  0  0999 V2000
   40.4310   32.0160   38.6140 C   0  0  0  0  0  0  0  0  0  0  0  0
   40.9030   33.2850   38.6050 N   0  0  0  0  0  0  0  0  0  0  0  0
   41.9480   33.7130   37.8920 C   0  0  0  0  0  0  0  0  0  0  0  0
   42.6220   32.8530   37.1010 N   0  0  0  0  0  0  0  0  0  0  0  0
   42.2540   31.5630   37.0210 C   0  0  0  0  0  0  0  0  0  0  0  0
   42.9520   30.6970   36.2100 C   0  0  0  0  0  0  0  0  0  0  0  0
   42.5880   29.3800   36.1180 C   0  0  0  0  0  0  0  0  0  0  0  0
   41.5040   28.9580   36.8650 C   0  0  0  0  0  0  0  0  0  0  0  0
   40.8420   29.8600   37.6580 C   0  0  0  0  0  0  0  0  0  0  0  0
   41.1680   31.1940   37.7840 C   0  0  0  0  0  0  0  0  0  0  0  0
   42.2760   34.7440   37.9290 H   0  0  0  0  0  0  0  0  0  0  0  0
   43.7980   31.0420   35.6300 H   0  0  0  0  0  0  0  0  0  0  0  0
   43.0710   28.6310   35.5110 H   0  0  0  0  0  0  0  0  0  0  0  0
   41.1760   27.9270   36.8280 H   0  0  0  0  0  0  0  0  0  0  0  0
   39.9870   29.4830   38.2330 H   0  0  0  0  0  0  0  0  0  0  0  0
   37.0470   32.1480   39.7830 C   0  0  0  0  0  0  0  0  0  0  0  0
   36.8970   31.1000   40.6930 C   0  0  0  0  0  0  0  0  0  0  0  0
   37.9960   30.3160   40.9150 C   0  0  0  0  0  0  0  0  0  0  0  0
   39.1270   30.5890   40.2660 N   0  0  0  0  0  0  0  0  0  0  0  0
   39.2840   31.5740   39.4050 C   0  0  0  0  0  0  0  0  0  0  0  0
   38.2070   32.3490   39.1800 N   0  0  0  0  0  0  0  0  0  0  0  0
   36.1600   32.7790   39.6050 H   0  0  0  0  0  0  0  0  0  0  0  0
   37.9140   29.2040   41.8520 C   0  0  0  0  0  0  0  0  0  0  0  0
   36.9280   28.3040   41.4390 F   0  0  0  0  0  0  0  0  0  0  0  0
   39.0980   28.5380   41.8900 F   0  0  0  0  0  0  0  0  0  0  0  0
   37.5740   29.5920   43.1350 F   0  0  0  0  0  0  0  0  0  0  0  0
   35.6400   30.9140   41.3200 N   0  0  0  0  0  0  0  0  0  0  0  0
   35.2280   31.5170   42.0750 H   0  0  0  0  0  0  0  0  0  0  0  0
   35.0860   30.1060   40.9940 H   0  0  0  0  0  0  0  0  0  0  0  0
  1 20  1  0  0  0  0
  2  1  1  0  0  0  0
  3 11  1  0  0  0  0
  3  2  2  0  0  0  0
  4  3  1  0  0  0  0
  5  4  2  0  0  0  0
  5 10  1  0  0  0  0
  6  5  1  0  0  0  0
  7  6  2  0  0  0  0
  7  8  1  0  0  0  0
  8  9  2  0  0  0  0
  9 10  1  0  0  0  0
  9 15  1  0  0  0  0
 10  1  2  0  0  0  0
 12  6  1  0  0  0  0
 13  7  1  0  0  0  0
 14  8  1  0  0  0  0
 16 17  1  0  0  0  0
 17 18  2  0  0  0  0
 17 27  1  0  0  0  0
 18 23  1  0  0  0  0
 19 18  1  0  0  0  0
 20 19  2  0  0  0  0
 21 20  1  0  0  0  0
 21 16  2  0  0  0  0
 22 16  1  0  0  0  0
 23 25  1  0  0  0  0
 23 26  1  0  0  0  0
 24 23  1  0  0  0  0
 27 28  1  0  0  0  0
 29 27  1  0  0  0  0
M  END
>  <minimizedAffinity>
-5.73979712

$$$$

 OpenBabel03252502033D

 29 31  0  0  0  0  0  0  0  0999 V2000
   36.7590   28.6110   38.1340 C   0  0  0  0  0  0  0  0  0  0  0  0
   37.8020   28.4990   37.2780 N   0  0  0  0  0  0  0  0  0  0  0  0
   37.7090   28.5160   35.9460 C   0  0  0  0  0  0  0  0  0  0  0  0
   36.5040   28.6520   35.3550 N   0  0  0  0  0  0  0  0  0  0  0  0
   35.3890   28.7730   36.0940 C   0  0  0  0  0  0  0  0  0  0  0  0
   34.1650   28.9110   35.4770 C   0  0  0  0  0  0  0  0  0  0  0  0
   33.0200   29.0360   36.2180 C   0  0  0  0  0  0  0  0  0  0  0  0
   33.1390   29.0150   37.5950 C   0  0  0  0  0  0  0  0  0  0  0  0
   34.3800   28.8750   38.1610 C   0  0  0  0  0  0  0  0  0  0  0  0
   35.5610   28.7470   37.4610 C   0  0  0  0  0  0  0  0  0  0  0  0
   38.5840   28.4220   35.3150 H   0  0  0  0  0  0  0  0  0  0  0  0
   34.0890   28.9260   34.3980 H   0  0  0  0  0  0  0  0  0  0  0  0
   32.0220   29.1490   35.8250 H   0  0  0  0  0  0  0  0  0  0  0  0
   32.2640   29.1090   38.2250 H   0  0  0  0  0  0  0  0  0  0  0  0
   34.4280   28.8640   39.2570 H   0  0  0  0  0  0  0  0  0  0  0  0
   37.1410   30.0720   41.3830 C   0  0  0  0  0  0  0  0  0  0  0  0
   37.1610   29.0160   42.2960 C   0  0  0  0  0  0  0  0  0  0  0  0
   37.0380   27.7550   41.7820 C   0  0  0  0  0  0  0  0  0  0  0  0
   36.9090   27.6040   40.4640 N   0  0  0  0  0  0  0  0  0  0  0  0
   36.8890   28.5900   39.5900 C   0  0  0  0  0  0  0  0  0  0  0  0
   37.0080   29.8340   40.0890 N   0  0  0  0  0  0  0  0  0  0  0  0
   37.2400   31.0880   41.8000 H   0  0  0  0  0  0  0  0  0  0  0  0
   37.0510   26.6040   42.6750 C   0  0  0  0  0  0  0  0  0  0  0  0
   36.7690   25.4390   41.9560 F   0  0  0  0  0  0  0  0  0  0  0  0
   38.2810   26.4610   43.2340 F   0  0  0  0  0  0  0  0  0  0  0  0
   36.1050   26.6800   43.6800 F   0  0  0  0  0  0  0  0  0  0  0  0
   37.3050   29.3080   43.6760 N   0  0  0  0  0  0  0  0  0  0  0  0
   38.1830   29.6280   44.1540 H   0  0  0  0  0  0  0  0  0  0  0  0
   36.4570   29.1920   44.2540 H   0  0  0  0  0  0  0  0  0  0  0  0
  1 20  1  0  0  0  0
  2  1  2  0  0  0  0
  3  2  1  0  0  0  0
  4  3  2  0  0  0  0
  4  5  1  0  0  0  0
  5 10  1  0  0  0  0
  6  5  2  0  0  0  0
  6  7  1  0  0  0  0
  7  8  2  0  0  0  0
  8  9  1  0  0  0  0
  8 14  1  0  0  0  0
  9 15  1  0  0  0  0
 10  1  1  0  0  0  0
 10  9  2  0  0  0  0
 11  3  1  0  0  0  0
 12  6  1  0  0  0  0
 13  7  1  0  0  0  0
 16 22  1  0  0  0  0
 16 17  1  0  0  0  0
 17 27  1  0  0  0  0
 18 17  2  0  0  0  0
 18 23  1  0  0  0  0
 19 18  1  0  0  0  0
 20 21  1  0  0  0  0
 20 19  2  0  0  0  0
 21 16  2  0  0  0  0
 23 25  1  0  0  0  0
 23 26  1  0  0  0  0
 24 23  1  0  0  0  0
 27 28  1  0  0  0  0
 27 29  1  0  0  0  0
M  END
>  <minimizedAffinity>
-5.72513342

$$$$

 OpenBabel03252502033D

 29 31  0  0  0  0  0  0  0  0999 V2000
   37.6050   27.3770   40.8420 C   0  0  0  0  0  0  0  0  0  0  0  0
   36.8130   26.4430   40.2630 N   0  0  0  0  0  0  0  0  0  0  0  0
   36.8480   25.1340   40.5270 C   0  0  0  0  0  0  0  0  0  0  0  0
   37.7230   24.6530   41.4340 N   0  0  0  0  0  0  0  0  0  0  0  0
   38.5650   25.4770   42.0790 C   0  0  0  0  0  0  0  0  0  0  0  0
   39.4530   24.9710   43.0020 C   0  0  0  0  0  0  0  0  0  0  0  0
   40.3160   25.7990   43.6680 C   0  0  0  0  0  0  0  0  0  0  0  0
   40.2640   27.1500   43.3790 C   0  0  0  0  0  0  0  0  0  0  0  0
   39.3620   27.6050   42.4510 C   0  0  0  0  0  0  0  0  0  0  0  0
   38.4720   26.8130   41.7560 C   0  0  0  0  0  0  0  0  0  0  0  0
   36.1860   24.4370   40.0300 H   0  0  0  0  0  0  0  0  0  0  0  0
   39.4810   23.9100   43.2190 H   0  0  0  0  0  0  0  0  0  0  0  0
   41.0430   25.4950   44.4050 H   0  0  0  0  0  0  0  0  0  0  0  0
   40.9260   27.8470   43.8760 H   0  0  0  0  0  0  0  0  0  0  0  0
   39.3540   28.6830   42.2530 H   0  0  0  0  0  0  0  0  0  0  0  0
   36.4240   30.7380   41.2280 C   0  0  0  0  0  0  0  0  0  0  0  0
   37.1100   31.5130   40.2900 C   0  0  0  0  0  0  0  0  0  0  0  0
   38.0130   30.8610   39.4950 C   0  0  0  0  0  0  0  0  0  0  0  0
   38.1850   29.5500   39.6540 N   0  0  0  0  0  0  0  0  0  0  0  0
   37.5450   28.8050   40.5330 C   0  0  0  0  0  0  0  0  0  0  0  0
   36.6570   29.4390   41.3200 N   0  0  0  0  0  0  0  0  0  0  0  0
   35.6970   31.2650   41.8680 H   0  0  0  0  0  0  0  0  0  0  0  0
   38.7650   31.6050   38.4940 C   0  0  0  0  0  0  0  0  0  0  0  0
   39.6880   30.7630   37.8680 F   0  0  0  0  0  0  0  0  0  0  0  0
   37.9250   32.0860   37.5410 F   0  0  0  0  0  0  0  0  0  0  0  0
   39.4930   32.6540   39.0240 F   0  0  0  0  0  0  0  0  0  0  0  0
   36.8360   32.9010   40.2200 N   0  0  0  0  0  0  0  0  0  0  0  0
   35.9680   33.3430   39.8250 H   0  0  0  0  0  0  0  0  0  0  0  0
   37.5660   33.5270   40.5950 H   0  0  0  0  0  0  0  0  0  0  0  0
  1 10  1  0  0  0  0
  2  3  1  0  0  0  0
  2  1  2  0  0  0  0
  3  4  2  0  0  0  0
  4  5  1  0  0  0  0
  5  6  1  0  0  0  0
  6 12  1  0  0  0  0
  6  7  2  0  0  0  0
  7 13  1  0  0  0  0
  8  7  1  0  0  0  0
  8 14  1  0  0  0  0
  9  8  2  0  0  0  0
 10  5  2  0  0  0  0
 10  9  1  0  0  0  0
 11  3  1  0  0  0  0
 15  9  1  0  0  0  0
 16 21  1  0  0  0  0
 16 22  1  0  0  0  0
 17 16  2  0  0  0  0
 18 19  2  0  0  0  0
 18 17  1  0  0  0  0
 19 20  1  0  0  0  0
 20  1  1  0  0  0  0
 20 21  2  0  0  0  0
 23 26  1  0  0  0  0
 23 18  1  0  0  0  0
 24 23  1  0  0  0  0
 25 23  1  0  0  0  0
 27 17  1  0  0  0  0
 27 29  1  0  0  0  0
 28 27  1  0  0  0  0
M  END
>  <minimizedAffinity>
-5.70724869

$$$$

 OpenBabel03252502033D

 29 31  0  0  0  0  0  0  0  0999 V2000
   38.6270   27.6510   42.0020 C   0  0  0  0  0  0  0  0  0  0  0  0
   39.4970   27.4960   43.0290 N   0  0  0  0  0  0  0  0  0  0  0  0
   39.8230   26.3290   43.5920 C   0  0  0  0  0  0  0  0  0  0  0  0
   39.2710   25.1840   43.1390 N   0  0  0  0  0  0  0  0  0  0  0  0
   38.3920   25.2020   42.1230 C   0  0  0  0  0  0  0  0  0  0  0  0
   37.8370   24.0260   41.6720 C   0  0  0  0  0  0  0  0  0  0  0  0
   36.9400   24.0290   40.6380 C   0  0  0  0  0  0  0  0  0  0  0  0
   36.6150   25.2470   40.0700 C   0  0  0  0  0  0  0  0  0  0  0  0
   37.1960   26.3910   40.5560 C   0  0  0  0  0  0  0  0  0  0  0  0
   38.1040   26.4410   41.5930 C   0  0  0  0  0  0  0  0  0  0  0  0
   40.5270   26.2720   44.4120 H   0  0  0  0  0  0  0  0  0  0  0  0
   38.1010   23.0790   42.1260 H   0  0  0  0  0  0  0  0  0  0  0  0
   36.4550   23.1620   40.2180 H   0  0  0  0  0  0  0  0  0  0  0  0
   35.9110   25.3040   39.2510 H   0  0  0  0  0  0  0  0  0  0  0  0
   36.9100   27.3350   40.0760 H   0  0  0  0  0  0  0  0  0  0  0  0
   36.6450   30.6010   41.5520 C   0  0  0  0  0  0  0  0  0  0  0  0
   37.2780   31.3610   40.5660 C   0  0  0  0  0  0  0  0  0  0  0  0
   38.4280   30.8450   40.0350 C   0  0  0  0  0  0  0  0  0  0  0  0
   38.8740   29.6700   40.4760 N   0  0  0  0  0  0  0  0  0  0  0  0
   38.2880   28.9410   41.4050 C   0  0  0  0  0  0  0  0  0  0  0  0
   37.1570   29.4420   41.9340 N   0  0  0  0  0  0  0  0  0  0  0  0
   35.7190   31.0190   41.9790 H   0  0  0  0  0  0  0  0  0  0  0  0
   39.1420   31.5820   39.0020 C   0  0  0  0  0  0  0  0  0  0  0  0
   40.2930   30.8840   38.6260 F   0  0  0  0  0  0  0  0  0  0  0  0
   38.3590   31.7200   37.9000 F   0  0  0  0  0  0  0  0  0  0  0  0
   39.5640   32.8330   39.4130 F   0  0  0  0  0  0  0  0  0  0  0  0
   36.7020   32.5980   40.1820 N   0  0  0  0  0  0  0  0  0  0  0  0
   35.8340   32.7250   39.6050 H   0  0  0  0  0  0  0  0  0  0  0  0
   37.1920   33.4460   40.5080 H   0  0  0  0  0  0  0  0  0  0  0  0
  1  2  1  0  0  0  0
  2  3  2  0  0  0  0
  3 11  1  0  0  0  0
  4  3  1  0  0  0  0
  5  4  2  0  0  0  0
  6  5  1  0  0  0  0
  6 12  1  0  0  0  0
  7  6  2  0  0  0  0
  8  9  2  0  0  0  0
  8  7  1  0  0  0  0
  9 10  1  0  0  0  0
 10  1  2  0  0  0  0
 10  5  1  0  0  0  0
 13  7  1  0  0  0  0
 14  8  1  0  0  0  0
 15  9  1  0  0  0  0
 16 21  1  0  0  0  0
 16 22  1  0  0  0  0
 17 16  2  0  0  0  0
 18 19  2  0  0  0  0
 18 17  1  0  0  0  0
 19 20  1  0  0  0  0
 20 21  2  0  0  0  0
 20  1  1  0  0  0  0
 23 26  1  0  0  0  0
 23 18  1  0  0  0  0
 24 23  1  0  0  0  0
 25 23  1  0  0  0  0
 27 29  1  0  0  0  0
 27 17  1  0  0  0  0
 28 27  1  0  0  0  0
M  END
>  <minimizedAffinity>
-5.54171038

$$$$

 OpenBabel03252502033D

 29 31  0  0  0  0  0  0  0  0999 V2000
   38.2180   28.7500   41.0840 C   0  0  0  0  0  0  0  0  0  0  0  0
   36.9560   28.2790   41.2290 N   0  0  0  0  0  0  0  0  0  0  0  0
   36.5850   27.3240   42.0860 C   0  0  0  0  0  0  0  0  0  0  0  0
   37.5000   26.7510   42.8940 N   0  0  0  0  0  0  0  0  0  0  0  0
   38.7880   27.1290   42.8490 C   0  0  0  0  0  0  0  0  0  0  0  0
   39.7110   26.5340   43.6800 C   0  0  0  0  0  0  0  0  0  0  0  0
   41.0270   26.9100   43.6440 C   0  0  0  0  0  0  0  0  0  0  0  0
   41.3900   27.8990   42.7500 C   0  0  0  0  0  0  0  0  0  0  0  0
   40.4330   28.4610   41.9430 C   0  0  0  0  0  0  0  0  0  0  0  0
   39.0970   28.1180   41.9410 C   0  0  0  0  0  0  0  0  0  0  0  0
   35.5570   26.9920   42.1530 H   0  0  0  0  0  0  0  0  0  0  0  0
   39.4110   25.7610   44.3750 H   0  0  0  0  0  0  0  0  0  0  0  0
   41.8170   26.5030   44.2550 H   0  0  0  0  0  0  0  0  0  0  0  0
   42.4180   28.2320   42.6830 H   0  0  0  0  0  0  0  0  0  0  0  0
   40.7660   29.2420   41.2490 H   0  0  0  0  0  0  0  0  0  0  0  0
   38.8630   30.1120   37.8340 C   0  0  0  0  0  0  0  0  0  0  0  0
   39.2420   31.4420   38.0260 C   0  0  0  0  0  0  0  0  0  0  0  0
   39.2780   31.8920   39.3180 C   0  0  0  0  0  0  0  0  0  0  0  0
   38.9570   31.0540   40.3030 N   0  0  0  0  0  0  0  0  0  0  0  0
   38.5980   29.7970   40.1370 C   0  0  0  0  0  0  0  0  0  0  0  0
   38.5590   29.3480   38.8700 N   0  0  0  0  0  0  0  0  0  0  0  0
   38.8350   29.7520   36.7920 H   0  0  0  0  0  0  0  0  0  0  0  0
   39.6650   33.2690   39.5950 C   0  0  0  0  0  0  0  0  0  0  0  0
   40.1790   33.3680   40.8900 F   0  0  0  0  0  0  0  0  0  0  0  0
   40.6350   33.6640   38.7290 F   0  0  0  0  0  0  0  0  0  0  0  0
   38.6100   34.1590   39.5250 F   0  0  0  0  0  0  0  0  0  0  0  0
   39.5620   32.2320   36.8930 N   0  0  0  0  0  0  0  0  0  0  0  0
   40.4310   32.1570   36.3100 H   0  0  0  0  0  0  0  0  0  0  0  0
   38.8640   32.9460   36.6280 H   0  0  0  0  0  0  0  0  0  0  0  0
  1  2  2  0  0  0  0
  1 10  1  0  0  0  0
  2  3  1  0  0  0  0
  3 11  1  0  0  0  0
  3  4  2  0  0  0  0
  5  4  1  0  0  0  0
  5  6  1  0  0  0  0
  6 12  1  0  0  0  0
  7  6  2  0  0  0  0
  7 13  1  0  0  0  0
  8  7  1  0  0  0  0
  9  8  2  0  0  0  0
 10  9  1  0  0  0  0
 10  5  2  0  0  0  0
 14  8  1  0  0  0  0
 15  9  1  0  0  0  0
 16 17  2  0  0  0  0
 16 21  1  0  0  0  0
 17 18  1  0  0  0  0
 18 23  1  0  0  0  0
 18 19  2  0  0  0  0
 20 19  1  0  0  0  0
 20  1  1  0  0  0  0
 21 20  2  0  0  0  0
 22 16  1  0  0  0  0
 23 24  1  0  0  0  0
 25 23  1  0  0  0  0
 26 23  1  0  0  0  0
 27 17  1  0  0  0  0
 28 27  1  0  0  0  0
 29 27  1  0  0  0  0
M  END
>  <minimizedAffinity>
-5.437356

$$$$

 OpenBabel03252502033D

 29 31  0  0  0  0  0  0  0  0999 V2000
   40.6480   31.8600   38.8920 C   0  0  0  0  0  0  0  0  0  0  0  0
   40.8980   31.5370   37.6000 N   0  0  0  0  0  0  0  0  0  0  0  0
   41.9900   31.8890   36.9160 C   0  0  0  0  0  0  0  0  0  0  0  0
   42.9500   32.6250   37.5120 N   0  0  0  0  0  0  0  0  0  0  0  0
   42.8230   33.0100   38.7930 C   0  0  0  0  0  0  0  0  0  0  0  0
   43.8120   33.7620   39.3880 C   0  0  0  0  0  0  0  0  0  0  0  0
   43.6950   34.1610   40.6920 C   0  0  0  0  0  0  0  0  0  0  0  0
   42.5570   33.7860   41.3820 C   0  0  0  0  0  0  0  0  0  0  0  0
   41.6010   33.0380   40.7440 C   0  0  0  0  0  0  0  0  0  0  0  0
   41.6710   32.6110   39.4350 C   0  0  0  0  0  0  0  0  0  0  0  0
   42.1300   31.5980   35.8830 H   0  0  0  0  0  0  0  0  0  0  0  0
   44.6980   34.0470   38.8350 H   0  0  0  0  0  0  0  0  0  0  0  0
   44.4150   34.7480   41.2410 H   0  0  0  0  0  0  0  0  0  0  0  0
   42.4170   34.0770   42.4140 H   0  0  0  0  0  0  0  0  0  0  0  0
   40.7140   32.7630   41.3280 H   0  0  0  0  0  0  0  0  0  0  0  0
   37.2330   32.1620   39.9330 C   0  0  0  0  0  0  0  0  0  0  0  0
   36.9790   31.0870   40.7870 C   0  0  0  0  0  0  0  0  0  0  0  0
   38.0160   30.2250   41.0170 C   0  0  0  0  0  0  0  0  0  0  0  0
   39.1880   30.4510   40.4250 N   0  0  0  0  0  0  0  0  0  0  0  0
   39.4430   31.4600   39.6170 C   0  0  0  0  0  0  0  0  0  0  0  0
   38.4280   32.3130   39.3850 N   0  0  0  0  0  0  0  0  0  0  0  0
   36.3960   32.8560   39.7490 H   0  0  0  0  0  0  0  0  0  0  0  0
   37.8250   29.0810   41.8980 C   0  0  0  0  0  0  0  0  0  0  0  0
   36.8320   28.2430   41.3830 F   0  0  0  0  0  0  0  0  0  0  0  0
   38.9740   28.3620   41.9850 F   0  0  0  0  0  0  0  0  0  0  0  0
   37.4160   29.4330   43.1710 F   0  0  0  0  0  0  0  0  0  0  0  0
   35.6880   30.9570   41.3560 N   0  0  0  0  0  0  0  0  0  0  0  0
   35.2840   31.5520   42.1210 H   0  0  0  0  0  0  0  0  0  0  0  0
   35.0980   30.2010   40.9720 H   0  0  0  0  0  0  0  0  0  0  0  0
  1 10  1  0  0  0  0
  1 20  1  0  0  0  0
  2  1  2  0  0  0  0
  3  4  2  0  0  0  0
  3  2  1  0  0  0  0
  4  5  1  0  0  0  0
  5  6  2  0  0  0  0
  5 10  1  0  0  0  0
  6  7  1  0  0  0  0
  7 13  1  0  0  0  0
  7  8  2  0  0  0  0
  8 14  1  0  0  0  0
  9 15  1  0  0  0  0
  9  8  1  0  0  0  0
 10  9  2  0  0  0  0
 11  3  1  0  0  0  0
 12  6  1  0  0  0  0
 16 17  1  0  0  0  0
 17 18  2  0  0  0  0
 17 27  1  0  0  0  0
 18 23  1  0  0  0  0
 19 18  1  0  0  0  0
 20 19  2  0  0  0  0
 21 20  1  0  0  0  0
 21 16  2  0  0  0  0
 22 16  1  0  0  0  0
 23 25  1  0  0  0  0
 23 26  1  0  0  0  0
 24 23  1  0  0  0  0
 27 28  1  0  0  0  0
 29 27  1  0  0  0  0
M  END
>  <minimizedAffinity>
-5.42906237

$$$$

 OpenBabel03252502033D

 29 31  0  0  0  0  0  0  0  0999 V2000
   38.0640   31.0990   40.3430 C   0  0  0  0  0  0  0  0  0  0  0  0
   37.1710   32.0350   39.9400 N   0  0  0  0  0  0  0  0  0  0  0  0
   37.4460   33.3280   39.7450 C   0  0  0  0  0  0  0  0  0  0  0  0
   38.6970   33.7890   39.9510 N   0  0  0  0  0  0  0  0  0  0  0  0
   39.6760   32.9610   40.3520 C   0  0  0  0  0  0  0  0  0  0  0  0
   40.9480   33.4470   40.5580 C   0  0  0  0  0  0  0  0  0  0  0  0
   41.9550   32.6150   40.9660 C   0  0  0  0  0  0  0  0  0  0  0  0
   41.6490   31.2810   41.1630 C   0  0  0  0  0  0  0  0  0  0  0  0
   40.3670   30.8460   40.9450 C   0  0  0  0  0  0  0  0  0  0  0  0
   39.3190   31.6430   40.5330 C   0  0  0  0  0  0  0  0  0  0  0  0
   36.6860   34.0260   39.4220 H   0  0  0  0  0  0  0  0  0  0  0  0
   41.1730   34.4940   40.3990 H   0  0  0  0  0  0  0  0  0  0  0  0
   42.9780   32.9030   41.1520 H   0  0  0  0  0  0  0  0  0  0  0  0
   42.4100   30.5820   41.4860 H   0  0  0  0  0  0  0  0  0  0  0  0
   40.1680   29.7810   41.1120 H   0  0  0  0  0  0  0  0  0  0  0  0
   37.3530   27.7440   39.3060 C   0  0  0  0  0  0  0  0  0  0  0  0
   37.1300   27.0050   40.4690 C   0  0  0  0  0  0  0  0  0  0  0  0
   37.2280   27.6800   41.6550 C   0  0  0  0  0  0  0  0  0  0  0  0
   37.5230   28.9790   41.6380 N   0  0  0  0  0  0  0  0  0  0  0  0
   37.7360   29.6900   40.5490 C   0  0  0  0  0  0  0  0  0  0  0  0
   37.6430   29.0330   39.3780 N   0  0  0  0  0  0  0  0  0  0  0  0
   37.2740   27.1990   38.3510 H   0  0  0  0  0  0  0  0  0  0  0  0
   37.0080   26.9740   42.9100 C   0  0  0  0  0  0  0  0  0  0  0  0
   36.6870   25.6380   42.6560 F   0  0  0  0  0  0  0  0  0  0  0  0
   38.1390   26.9950   43.6620 F   0  0  0  0  0  0  0  0  0  0  0  0
   35.9630   27.4900   43.6540 F   0  0  0  0  0  0  0  0  0  0  0  0
   36.8220   25.6270   40.3550 N   0  0  0  0  0  0  0  0  0  0  0  0
   35.9130   25.2200   40.0230 H   0  0  0  0  0  0  0  0  0  0  0  0
   37.5720   24.9710   40.6260 H   0  0  0  0  0  0  0  0  0  0  0  0
  1 10  1  0  0  0  0
  1 20  1  0  0  0  0
  2  1  2  0  0  0  0
  3  2  1  0  0  0  0
  3  4  2  0  0  0  0
  4  5  1  0  0  0  0
  5 10  2  0  0  0  0
  5  6  1  0  0  0  0
  6  7  2  0  0  0  0
  7 13  1  0  0  0  0
  7  8  1  0  0  0  0
  8 14  1  0  0  0  0
  9 15  1  0  0  0  0
  9  8  2  0  0  0  0
 10  9  1  0  0  0  0
 11  3  1  0  0  0  0
 12  6  1  0  0  0  0
 16 21  2  0  0  0  0
 16 17  1  0  0  0  0
 17 18  2  0  0  0  0
 18 23  1  0  0  0  0
 19 18  1  0  0  0  0
 20 19  2  0  0  0  0
 21 20  1  0  0  0  0
 22 16  1  0  0  0  0
 23 26  1  0  0  0  0
 23 25  1  0  0  0  0
 24 23  1  0  0  0  0
 27 17  1  0  0  0  0
 27 29  1  0  0  0  0
 28 27  1  0  0  0  0
M  END
>  <minimizedAffinity>
-5.41268921

$$$$

 OpenBabel03252502033D

 29 31  0  0  0  0  0  0  0  0999 V2000
   38.0110   29.1410   41.1690 C   0  0  0  0  0  0  0  0  0  0  0  0
   37.9590   29.6210   42.4340 N   0  0  0  0  0  0  0  0  0  0  0  0
   37.6370   28.9060   43.5160 C   0  0  0  0  0  0  0  0  0  0  0  0
   37.3310   27.5980   43.3920 N   0  0  0  0  0  0  0  0  0  0  0  0
   37.3460   27.0010   42.1890 C   0  0  0  0  0  0  0  0  0  0  0  0
   37.0310   25.6650   42.0790 C   0  0  0  0  0  0  0  0  0  0  0  0
   37.0430   25.0430   40.8590 C   0  0  0  0  0  0  0  0  0  0  0  0
   37.3780   25.8020   39.7530 C   0  0  0  0  0  0  0  0  0  0  0  0
   37.6840   27.1290   39.9150 C   0  0  0  0  0  0  0  0  0  0  0  0
   37.6870   27.8000   41.1200 C   0  0  0  0  0  0  0  0  0  0  0  0
   37.6130   29.3500   44.5020 H   0  0  0  0  0  0  0  0  0  0  0  0
   36.7710   25.0840   42.9540 H   0  0  0  0  0  0  0  0  0  0  0  0
   36.8120   24.0060   40.6760 H   0  0  0  0  0  0  0  0  0  0  0  0
   37.4020   25.3580   38.7660 H   0  0  0  0  0  0  0  0  0  0  0  0
   37.9440   27.6920   39.0110 H   0  0  0  0  0  0  0  0  0  0  0  0
   37.3440   31.0230   38.1940 C   0  0  0  0  0  0  0  0  0  0  0  0
   38.5780   31.4690   37.7180 C   0  0  0  0  0  0  0  0  0  0  0  0
   39.6830   31.1140   38.4430 C   0  0  0  0  0  0  0  0  0  0  0  0
   39.5250   30.3760   39.5400 N   0  0  0  0  0  0  0  0  0  0  0  0
   38.3680   29.9470   40.0020 C   0  0  0  0  0  0  0  0  0  0  0  0
   37.2760   30.2930   39.2950 N   0  0  0  0  0  0  0  0  0  0  0  0
   36.4550   31.3110   37.6080 H   0  0  0  0  0  0  0  0  0  0  0  0
   41.0040   31.5430   38.0060 C   0  0  0  0  0  0  0  0  0  0  0  0
   41.9620   31.1830   38.9580 F   0  0  0  0  0  0  0  0  0  0  0  0
   41.3300   30.9340   36.8360 F   0  0  0  0  0  0  0  0  0  0  0  0
   41.1100   32.9120   37.8460 F   0  0  0  0  0  0  0  0  0  0  0  0
   38.6130   32.2490   36.5350 N   0  0  0  0  0  0  0  0  0  0  0  0
   38.4570   31.8990   35.5570 H   0  0  0  0  0  0  0  0  0  0  0  0
   38.8110   33.2540   36.6610 H   0  0  0  0  0  0  0  0  0  0  0  0
  1  2  1  0  0  0  0
  2  3  2  0  0  0  0
  3 11  1  0  0  0  0
  4  3  1  0  0  0  0
  5  4  2  0  0  0  0
  6  5  1  0  0  0  0
  6 12  1  0  0  0  0
  7  6  2  0  0  0  0
  8  9  2  0  0  0  0
  8  7  1  0  0  0  0
  9 10  1  0  0  0  0
 10  1  2  0  0  0  0
 10  5  1  0  0  0  0
 13  7  1  0  0  0  0
 14  8  1  0  0  0  0
 15  9  1  0  0  0  0
 16 21  1  0  0  0  0
 17 16  2  0  0  0  0
 17 18  1  0  0  0  0
 18 19  2  0  0  0  0
 19 20  1  0  0  0  0
 20  1  1  0  0  0  0
 21 20  2  0  0  0  0
 22 16  1  0  0  0  0
 23 18  1  0  0  0  0
 23 24  1  0  0  0  0
 25 23  1  0  0  0  0
 26 23  1  0  0  0  0
 27 29  1  0  0  0  0
 27 17  1  0  0  0  0
 28 27  1  0  0  0  0
M  END
>  <minimizedAffinity>
-5.38351107

$$$$

 OpenBabel03252502033D

 29 31  0  0  0  0  0  0  0  0999 V2000
   39.3220   27.7660   41.8900 C   0  0  0  0  0  0  0  0  0  0  0  0
   40.2060   27.6620   42.9120 N   0  0  0  0  0  0  0  0  0  0  0  0
   40.3710   26.5810   43.6790 C   0  0  0  0  0  0  0  0  0  0  0  0
   39.6240   25.4800   43.4620 N   0  0  0  0  0  0  0  0  0  0  0  0
   38.7100   25.4540   42.4780 C   0  0  0  0  0  0  0  0  0  0  0  0
   37.9540   24.3220   42.2680 C   0  0  0  0  0  0  0  0  0  0  0  0
   37.0190   24.2820   41.2690 C   0  0  0  0  0  0  0  0  0  0  0  0
   36.8640   25.4120   40.4870 C   0  0  0  0  0  0  0  0  0  0  0  0
   37.6410   26.5140   40.7360 C   0  0  0  0  0  0  0  0  0  0  0  0
   38.5950   26.6040   41.7280 C   0  0  0  0  0  0  0  0  0  0  0  0
   41.0970   26.5620   44.4810 H   0  0  0  0  0  0  0  0  0  0  0  0
   38.0880   23.4450   42.8890 H   0  0  0  0  0  0  0  0  0  0  0  0
   36.3840   23.4440   41.0300 H   0  0  0  0  0  0  0  0  0  0  0  0
   36.1380   25.4310   39.6850 H   0  0  0  0  0  0  0  0  0  0  0  0
   37.4840   27.3880   40.0910 H   0  0  0  0  0  0  0  0  0  0  0  0
   40.2900   30.1410   39.3880 C   0  0  0  0  0  0  0  0  0  0  0  0
   39.2740   31.0960   39.3290 C   0  0  0  0  0  0  0  0  0  0  0  0
   38.2150   30.9220   40.1780 C   0  0  0  0  0  0  0  0  0  0  0  0
   38.2110   29.8720   40.9990 N   0  0  0  0  0  0  0  0  0  0  0  0
   39.1620   28.9630   41.0660 C   0  0  0  0  0  0  0  0  0  0  0  0
   40.2060   29.1260   40.2330 N   0  0  0  0  0  0  0  0  0  0  0  0
   41.1420   30.2830   38.7030 H   0  0  0  0  0  0  0  0  0  0  0  0
   37.1180   31.8800   40.1730 C   0  0  0  0  0  0  0  0  0  0  0  0
   37.5890   33.1470   40.5290 F   0  0  0  0  0  0  0  0  0  0  0  0
   36.5810   31.9690   38.9280 F   0  0  0  0  0  0  0  0  0  0  0  0
   36.1160   31.5700   41.0740 F   0  0  0  0  0  0  0  0  0  0  0  0
   39.3970   32.1690   38.4120 N   0  0  0  0  0  0  0  0  0  0  0  0
   40.0470   32.9890   38.5000 H   0  0  0  0  0  0  0  0  0  0  0  0
   38.7830   32.1290   37.5830 H   0  0  0  0  0  0  0  0  0  0  0  0
  1  2  1  0  0  0  0
  2  3  2  0  0  0  0
  3 11  1  0  0  0  0
  4  3  1  0  0  0  0
  5  4  2  0  0  0  0
  6  5  1  0  0  0  0
  6 12  1  0  0  0  0
  7  6  2  0  0  0  0
  8  9  2  0  0  0  0
  8  7  1  0  0  0  0
  9 10  1  0  0  0  0
 10  1  2  0  0  0  0
 10  5  1  0  0  0  0
 13  7  1  0  0  0  0
 14  8  1  0  0  0  0
 15  9  1  0  0  0  0
 16 21  1  0  0  0  0
 17 16  2  0  0  0  0
 17 18  1  0  0  0  0
 18 19  2  0  0  0  0
 19 20  1  0  0  0  0
 20  1  1  0  0  0  0
 21 20  2  0  0  0  0
 22 16  1  0  0  0  0
 23 18  1  0  0  0  0
 23 24  1  0  0  0  0
 23 26  1  0  0  0  0
 25 23  1  0  0  0  0
 27 28  1  0  0  0  0
 27 17  1  0  0  0  0
 29 27  1  0  0  0  0
M  END
>  <minimizedAffinity>
-5.37827444

$$$$
