
 OpenBabel03242510303D

 29 30  0  0  1  0  0  0  0  0999 V2000
   37.1680   30.5600   39.7530 C   0  0  1  0  0  0  0  0  0  0  0  0
   36.1070   30.4670   40.8190 C   0  0  0  0  0  0  0  0  0  0  0  0
   35.4760   29.0960   40.6750 C   0  0  0  0  0  0  0  0  0  0  0  0
   34.7450   29.0720   39.3550 C   0  0  0  0  0  0  0  0  0  0  0  0
   35.6030   29.4160   38.2000 C   0  0  0  0  0  0  0  0  0  0  0  0
   36.5120   30.5780   38.3920 C   0  0  2  0  0  0  0  0  0  0  0  0
   37.7950   29.6550   39.8190 H   0  0  0  0  0  0  0  0  0  0  0  0
   36.5740   30.4790   41.8290 H   0  0  0  0  0  0  0  0  0  0  0  0
   35.3120   31.2200   40.7310 H   0  0  0  0  0  0  0  0  0  0  0  0
   36.1980   28.2850   40.8130 H   0  0  0  0  0  0  0  0  0  0  0  0
   34.6880   29.0020   41.4710 H   0  0  0  0  0  0  0  0  0  0  0  0
   33.8740   29.7330   39.4500 H   0  0  0  0  0  0  0  0  0  0  0  0
   34.3470   28.0420   39.1900 H   0  0  0  0  0  0  0  0  0  0  0  0
   36.2470   28.5180   37.9630 H   0  0  0  0  0  0  0  0  0  0  0  0
   34.9470   29.6070   37.3260 H   0  0  0  0  0  0  0  0  0  0  0  0
   35.8750   31.4880   38.3440 H   0  0  0  0  0  0  0  0  0  0  0  0
   38.3500   34.1610   40.0480 C   0  0  0  0  0  0  0  0  0  0  0  0
   37.5170   33.0610   39.8970 C   0  0  0  0  0  0  0  0  0  0  0  0
   38.0080   31.7610   39.9010 C   0  0  0  0  0  0  0  0  0  0  0  0
   39.3500   31.6360   40.0600 N   0  0  0  0  0  0  0  0  0  0  0  0
   40.1600   32.7130   40.2060 C   0  0  0  0  0  0  0  0  0  0  0  0
   39.6690   33.9690   40.2000 N   0  0  0  0  0  0  0  0  0  0  0  0
   37.9230   35.1540   40.0380 H   0  0  0  0  0  0  0  0  0  0  0  0
   36.4630   33.1970   39.7740 H   0  0  0  0  0  0  0  0  0  0  0  0
   41.2320   32.5050   40.3280 H   0  0  0  0  0  0  0  0  0  0  0  0
   37.5670   30.6510   37.3430 C   0  0  0  0  0  0  0  0  0  0  0  0
   38.7020   29.9530   37.6860 F   0  0  0  0  0  0  0  0  0  0  0  0
   37.0440   30.0160   36.2080 F   0  0  0  0  0  0  0  0  0  0  0  0
   37.8800   31.9670   37.0540 F   0  0  0  0  0  0  0  0  0  0  0  0
  1  7  1  1  0  0  0
  1 19  1  0  0  0  0
  1  2  1  0  0  0  0
  2  8  1  0  0  0  0
  3 10  1  0  0  0  0
  3  2  1  0  0  0  0
  3 11  1  0  0  0  0
  4 12  1  0  0  0  0
  4  3  1  0  0  0  0
  5  6  1  0  0  0  0
  5  4  1  0  0  0  0
  6 16  1  6  0  0  0
  6  1  1  0  0  0  0
  9  2  1  0  0  0  0
 13  4  1  0  0  0  0
 14  5  1  0  0  0  0
 15  5  1  0  0  0  0
 17 22  1  0  0  0  0
 18 19  1  0  0  0  0
 18 17  2  0  0  0  0
 19 20  2  0  0  0  0
 20 21  1  0  0  0  0
 21 25  1  0  0  0  0
 22 21  2  0  0  0  0
 23 17  1  0  0  0  0
 24 18  1  0  0  0  0
 26 27  1  0  0  0  0
 26  6  1  0  0  0  0
 28 26  1  0  0  0  0
 29 26  1  0  0  0  0
M  END
>  <minimizedAffinity>
-4.72296238

$$$$

 OpenBabel03242510303D

 29 30  0  0  1  0  0  0  0  0999 V2000
   36.3310   28.6520   41.4560 C   0  0  1  0  0  0  0  0  0  0  0  0
   36.6440   27.3160   42.0790 C   0  0  0  0  0  0  0  0  0  0  0  0
   37.0120   27.5950   43.5230 C   0  0  0  0  0  0  0  0  0  0  0  0
   38.3090   28.3680   43.5170 C   0  0  0  0  0  0  0  0  0  0  0  0
   38.2540   29.6040   42.7060 C   0  0  0  0  0  0  0  0  0  0  0  0
   37.5930   29.4790   41.3790 C   0  0  2  0  0  0  0  0  0  0  0  0
   35.6180   29.1750   42.1150 H   0  0  0  0  0  0  0  0  0  0  0  0
   35.7280   26.6860   42.1180 H   0  0  0  0  0  0  0  0  0  0  0  0
   37.4830   26.7850   41.6090 H   0  0  0  0  0  0  0  0  0  0  0  0
   36.1990   28.0710   44.0790 H   0  0  0  0  0  0  0  0  0  0  0  0
   37.2390   26.6080   44.0100 H   0  0  0  0  0  0  0  0  0  0  0  0
   39.1000   27.6810   43.1920 H   0  0  0  0  0  0  0  0  0  0  0  0
   38.5510   28.6590   44.5670 H   0  0  0  0  0  0  0  0  0  0  0  0
   37.6860   30.3840   43.2950 H   0  0  0  0  0  0  0  0  0  0  0  0
   39.2920   29.9710   42.5640 H   0  0  0  0  0  0  0  0  0  0  0  0
   38.3060   28.9350   40.7220 H   0  0  0  0  0  0  0  0  0  0  0  0
   34.0370   28.9100   38.4350 C   0  0  0  0  0  0  0  0  0  0  0  0
   34.5320   29.0550   39.7240 C   0  0  0  0  0  0  0  0  0  0  0  0
   35.7570   28.5210   40.1050 C   0  0  0  0  0  0  0  0  0  0  0  0
   36.4360   27.8510   39.1400 N   0  0  0  0  0  0  0  0  0  0  0  0
   35.9490   27.7110   37.8830 C   0  0  0  0  0  0  0  0  0  0  0  0
   34.7580   28.2350   37.5270 N   0  0  0  0  0  0  0  0  0  0  0  0
   33.0790   29.3430   38.1840 H   0  0  0  0  0  0  0  0  0  0  0  0
   33.9680   29.5900   40.4590 H   0  0  0  0  0  0  0  0  0  0  0  0
   36.5750   27.1500   37.1750 H   0  0  0  0  0  0  0  0  0  0  0  0
   37.2720   30.8050   40.7790 C   0  0  0  0  0  0  0  0  0  0  0  0
   36.0610   31.2980   41.2060 F   0  0  0  0  0  0  0  0  0  0  0  0
   38.2460   31.6990   41.2470 F   0  0  0  0  0  0  0  0  0  0  0  0
   37.3060   30.7390   39.3990 F   0  0  0  0  0  0  0  0  0  0  0  0
  1  2  1  0  0  0  0
  1  7  1  1  0  0  0
  2  8  1  0  0  0  0
  2  3  1  0  0  0  0
  3 11  1  0  0  0  0
  3 10  1  0  0  0  0
  4  3  1  0  0  0  0
  4 13  1  0  0  0  0
  5 14  1  0  0  0  0
  5  4  1  0  0  0  0
  6 16  1  6  0  0  0
  6  1  1  0  0  0  0
  6  5  1  0  0  0  0
  9  2  1  0  0  0  0
 12  4  1  0  0  0  0
 15  5  1  0  0  0  0
 17 18  1  0  0  0  0
 18 19  2  0  0  0  0
 18 24  1  0  0  0  0
 19  1  1  0  0  0  0
 20 19  1  0  0  0  0
 21 20  2  0  0  0  0
 22 21  1  0  0  0  0
 22 17  2  0  0  0  0
 23 17  1  0  0  0  0
 25 21  1  0  0  0  0
 26 27  1  0  0  0  0
 26 28  1  0  0  0  0
 26  6  1  0  0  0  0
 29 26  1  0  0  0  0
M  END
>  <minimizedAffinity>
-4.67532682

$$$$

 OpenBabel03242510303D

 29 30  0  0  1  0  0  0  0  0999 V2000
   36.7710   30.8030   38.9980 C   0  0  1  0  0  0  0  0  0  0  0  0
   36.8620   30.3200   37.5730 C   0  0  0  0  0  0  0  0  0  0  0  0
   35.6820   29.3910   37.3620 C   0  0  0  0  0  0  0  0  0  0  0  0
   35.9050   28.1760   38.2310 C   0  0  0  0  0  0  0  0  0  0  0  0
   36.1110   28.5020   39.6590 C   0  0  0  0  0  0  0  0  0  0  0  0
   37.0200   29.6470   39.9370 C   0  0  2  0  0  0  0  0  0  0  0  0
   35.7440   31.1690   39.1670 H   0  0  0  0  0  0  0  0  0  0  0  0
   36.7060   31.1680   36.8690 H   0  0  0  0  0  0  0  0  0  0  0  0
   37.7800   29.7640   37.3430 H   0  0  0  0  0  0  0  0  0  0  0  0
   34.7210   29.8910   37.5140 H   0  0  0  0  0  0  0  0  0  0  0  0
   35.7250   29.0270   36.3000 H   0  0  0  0  0  0  0  0  0  0  0  0
   36.7420   27.6120   37.7990 H   0  0  0  0  0  0  0  0  0  0  0  0
   35.0050   27.5190   38.1560 H   0  0  0  0  0  0  0  0  0  0  0  0
   35.1040   28.7520   40.1090 H   0  0  0  0  0  0  0  0  0  0  0  0
   36.4980   27.5960   40.1690 H   0  0  0  0  0  0  0  0  0  0  0  0
   38.0530   29.2820   39.7470 H   0  0  0  0  0  0  0  0  0  0  0  0
   38.3310   34.1190   40.0130 C   0  0  0  0  0  0  0  0  0  0  0  0
   37.3810   33.1420   39.7450 C   0  0  0  0  0  0  0  0  0  0  0  0
   37.7360   31.8780   39.2880 C   0  0  0  0  0  0  0  0  0  0  0  0
   39.0650   31.6610   39.1200 N   0  0  0  0  0  0  0  0  0  0  0  0
   39.9890   32.6200   39.3810 C   0  0  0  0  0  0  0  0  0  0  0  0
   39.6300   33.8410   39.8240 N   0  0  0  0  0  0  0  0  0  0  0  0
   38.0070   35.0880   40.3670 H   0  0  0  0  0  0  0  0  0  0  0  0
   36.3420   33.3480   39.8900 H   0  0  0  0  0  0  0  0  0  0  0  0
   41.0390   32.3450   39.2110 H   0  0  0  0  0  0  0  0  0  0  0  0
   36.9110   30.1280   41.3430 C   0  0  0  0  0  0  0  0  0  0  0  0
   35.9310   31.0810   41.5000 F   0  0  0  0  0  0  0  0  0  0  0  0
   36.5110   29.0250   42.1110 F   0  0  0  0  0  0  0  0  0  0  0  0
   38.1270   30.6090   41.7920 F   0  0  0  0  0  0  0  0  0  0  0  0
  1  7  1  1  0  0  0
  1 19  1  0  0  0  0
  1  6  1  0  0  0  0
  2  1  1  0  0  0  0
  3 10  1  0  0  0  0
  3  2  1  0  0  0  0
  3  4  1  0  0  0  0
  4  5  1  0  0  0  0
  5  6  1  0  0  0  0
  5 14  1  0  0  0  0
  5 15  1  0  0  0  0
  6 16  1  6  0  0  0
  6 26  1  0  0  0  0
  8  2  1  0  0  0  0
  9  2  1  0  0  0  0
 11  3  1  0  0  0  0
 12  4  1  0  0  0  0
 13  4  1  0  0  0  0
 17 23  1  0  0  0  0
 18 24  1  0  0  0  0
 18 17  2  0  0  0  0
 19 18  1  0  0  0  0
 20 19  2  0  0  0  0
 20 21  1  0  0  0  0
 21 22  2  0  0  0  0
 22 17  1  0  0  0  0
 25 21  1  0  0  0  0
 26 27  1  0  0  0  0
 26 29  1  0  0  0  0
 26 28  1  0  0  0  0
M  END
>  <minimizedAffinity>
-4.6054883

$$$$

 OpenBabel03242510303D

 29 30  0  0  1  0  0  0  0  0999 V2000
   38.4380   25.4760   42.3020 C   0  0  1  0  0  0  0  0  0  0  0  0
   39.8790   25.0910   42.0910 C   0  0  0  0  0  0  0  0  0  0  0  0
   40.5800   25.3170   43.4170 C   0  0  0  0  0  0  0  0  0  0  0  0
   40.5790   26.8040   43.6790 C   0  0  0  0  0  0  0  0  0  0  0  0
   39.2280   27.4060   43.6520 C   0  0  0  0  0  0  0  0  0  0  0  0
   38.3450   26.9660   42.5380 C   0  0  2  0  0  0  0  0  0  0  0  0
   38.0790   24.9620   43.2100 H   0  0  0  0  0  0  0  0  0  0  0  0
   39.9610   23.9990   41.8910 H   0  0  0  0  0  0  0  0  0  0  0  0
   40.3970   25.6840   41.3260 H   0  0  0  0  0  0  0  0  0  0  0  0
   40.1580   24.7100   44.2230 H   0  0  0  0  0  0  0  0  0  0  0  0
   41.6560   25.0250   43.2840 H   0  0  0  0  0  0  0  0  0  0  0  0
   41.2650   27.2660   42.9580 H   0  0  0  0  0  0  0  0  0  0  0  0
   41.0120   26.9840   44.6920 H   0  0  0  0  0  0  0  0  0  0  0  0
   38.7070   27.1420   44.6200 H   0  0  0  0  0  0  0  0  0  0  0  0
   39.3400   28.5090   43.6140 H   0  0  0  0  0  0  0  0  0  0  0  0
   38.7200   27.4690   41.6200 H   0  0  0  0  0  0  0  0  0  0  0  0
   36.8530   25.3270   38.8500 C   0  0  0  0  0  0  0  0  0  0  0  0
   37.6730   25.7100   39.9020 C   0  0  0  0  0  0  0  0  0  0  0  0
   37.5870   25.1140   41.1560 C   0  0  0  0  0  0  0  0  0  0  0  0
   36.6520   24.1390   41.2840 N   0  0  0  0  0  0  0  0  0  0  0  0
   35.8520   23.7700   40.2530 C   0  0  0  0  0  0  0  0  0  0  0  0
   35.9470   24.3560   39.0430 N   0  0  0  0  0  0  0  0  0  0  0  0
   36.9560   25.8190   37.8920 H   0  0  0  0  0  0  0  0  0  0  0  0
   38.4000   26.4830   39.7650 H   0  0  0  0  0  0  0  0  0  0  0  0
   35.1260   22.9710   40.4600 H   0  0  0  0  0  0  0  0  0  0  0  0
   36.9200   27.3360   42.7640 C   0  0  0  0  0  0  0  0  0  0  0  0
   36.1980   26.3230   43.3530 F   0  0  0  0  0  0  0  0  0  0  0  0
   36.9260   28.3980   43.6800 F   0  0  0  0  0  0  0  0  0  0  0  0
   36.3220   27.7280   41.5800 F   0  0  0  0  0  0  0  0  0  0  0  0
  1  6  1  0  0  0  0
  1  7  1  1  0  0  0
  2  1  1  0  0  0  0
  2  3  1  0  0  0  0
  3  4  1  0  0  0  0
  3 10  1  0  0  0  0
  4 13  1  0  0  0  0
  5  4  1  0  0  0  0
  5 14  1  0  0  0  0
  6 16  1  6  0  0  0
  6 26  1  0  0  0  0
  6  5  1  0  0  0  0
  8  2  1  0  0  0  0
  9  2  1  0  0  0  0
 11  3  1  0  0  0  0
 12  4  1  0  0  0  0
 15  5  1  0  0  0  0
 17 22  2  0  0  0  0
 17 18  1  0  0  0  0
 18 19  2  0  0  0  0
 19 20  1  0  0  0  0
 19  1  1  0  0  0  0
 21 25  1  0  0  0  0
 21 20  2  0  0  0  0
 22 21  1  0  0  0  0
 23 17  1  0  0  0  0
 24 18  1  0  0  0  0
 26 27  1  0  0  0  0
 26 28  1  0  0  0  0
 29 26  1  0  0  0  0
M  END
>  <minimizedAffinity>
-4.5624299

$$$$

 OpenBabel03242510303D

 29 30  0  0  1  0  0  0  0  0999 V2000
   38.4280   29.3580   41.4690 C   0  0  1  0  0  0  0  0  0  0  0  0
   39.2700   29.2060   42.7100 C   0  0  0  0  0  0  0  0  0  0  0  0
   39.0320   27.7970   43.2170 C   0  0  0  0  0  0  0  0  0  0  0  0
   37.5960   27.7190   43.6750 C   0  0  0  0  0  0  0  0  0  0  0  0
   36.6230   28.1090   42.6310 C   0  0  0  0  0  0  0  0  0  0  0  0
   36.9660   29.3270   41.8480 C   0  0  2  0  0  0  0  0  0  0  0  0
   38.6320   28.4950   40.8140 H   0  0  0  0  0  0  0  0  0  0  0  0
   40.3510   29.2540   42.4500 H   0  0  0  0  0  0  0  0  0  0  0  0
   39.0160   29.9070   43.5160 H   0  0  0  0  0  0  0  0  0  0  0  0
   39.3220   27.0340   42.4880 H   0  0  0  0  0  0  0  0  0  0  0  0
   39.6610   27.6590   44.1380 H   0  0  0  0  0  0  0  0  0  0  0  0
   37.5080   28.3250   44.5850 H   0  0  0  0  0  0  0  0  0  0  0  0
   37.3760   26.6660   43.9700 H   0  0  0  0  0  0  0  0  0  0  0  0
   36.5320   27.2510   41.9000 H   0  0  0  0  0  0  0  0  0  0  0  0
   35.6350   28.2530   43.1140 H   0  0  0  0  0  0  0  0  0  0  0  0
   36.7790   30.1950   42.5170 H   0  0  0  0  0  0  0  0  0  0  0  0
   39.3980   31.8740   38.7890 C   0  0  0  0  0  0  0  0  0  0  0  0
   39.1500   30.6670   39.4290 C   0  0  0  0  0  0  0  0  0  0  0  0
   38.7140   30.6100   40.7470 C   0  0  0  0  0  0  0  0  0  0  0  0
   38.5470   31.8060   41.3670 N   0  0  0  0  0  0  0  0  0  0  0  0
   38.7920   32.9820   40.7390 C   0  0  0  0  0  0  0  0  0  0  0  0
   39.2150   33.0220   39.4600 N   0  0  0  0  0  0  0  0  0  0  0  0
   39.7360   31.8700   37.7620 H   0  0  0  0  0  0  0  0  0  0  0  0
   39.2920   29.7440   38.9080 H   0  0  0  0  0  0  0  0  0  0  0  0
   38.6270   33.8940   41.3290 H   0  0  0  0  0  0  0  0  0  0  0  0
   36.1400   29.4590   40.6150 C   0  0  0  0  0  0  0  0  0  0  0  0
   36.7060   28.8290   39.5310 F   0  0  0  0  0  0  0  0  0  0  0  0
   34.9340   28.7920   40.8710 F   0  0  0  0  0  0  0  0  0  0  0  0
   35.9000   30.7900   40.3270 F   0  0  0  0  0  0  0  0  0  0  0  0
  1  7  1  6  0  0  0
  1  6  1  0  0  0  0
  1  2  1  0  0  0  0
  2  3  1  0  0  0  0
  2  9  1  0  0  0  0
  3  4  1  0  0  0  0
  3 11  1  0  0  0  0
  4 13  1  0  0  0  0
  4 12  1  0  0  0  0
  5 15  1  0  0  0  0
  5  4  1  0  0  0  0
  6 16  1  1  0  0  0
  6  5  1  0  0  0  0
  8  2  1  0  0  0  0
 10  3  1  0  0  0  0
 14  5  1  0  0  0  0
 17 18  2  0  0  0  0
 17 22  1  0  0  0  0
 18 19  1  0  0  0  0
 19 20  2  0  0  0  0
 19  1  1  0  0  0  0
 21 25  1  0  0  0  0
 21 20  1  0  0  0  0
 22 21  2  0  0  0  0
 23 17  1  0  0  0  0
 24 18  1  0  0  0  0
 26 28  1  0  0  0  0
 26  6  1  0  0  0  0
 27 26  1  0  0  0  0
 29 26  1  0  0  0  0
M  END
>  <minimizedAffinity>
-4.55688477

$$$$

 OpenBabel03242510303D

 29 30  0  0  1  0  0  0  0  0999 V2000
   37.2150   26.8120   41.5730 C   0  0  1  0  0  0  0  0  0  0  0  0
   36.9490   25.5460   40.7990 C   0  0  0  0  0  0  0  0  0  0  0  0
   37.0310   24.4100   41.8010 C   0  0  0  0  0  0  0  0  0  0  0  0
   38.4650   24.3220   42.2660 C   0  0  0  0  0  0  0  0  0  0  0  0
   38.9830   25.5930   42.8190 C   0  0  0  0  0  0  0  0  0  0  0  0
   38.6490   26.8190   42.0460 C   0  0  2  0  0  0  0  0  0  0  0  0
   36.5600   26.8120   42.4600 H   0  0  0  0  0  0  0  0  0  0  0  0
   35.9020   25.5390   40.4220 H   0  0  0  0  0  0  0  0  0  0  0  0
   37.6720   25.3470   39.9970 H   0  0  0  0  0  0  0  0  0  0  0  0
   36.2950   24.5040   42.6040 H   0  0  0  0  0  0  0  0  0  0  0  0
   36.8240   23.4560   41.2450 H   0  0  0  0  0  0  0  0  0  0  0  0
   39.0610   23.9500   41.4240 H   0  0  0  0  0  0  0  0  0  0  0  0
   38.5280   23.5490   43.0680 H   0  0  0  0  0  0  0  0  0  0  0  0
   38.5580   25.7210   43.8580 H   0  0  0  0  0  0  0  0  0  0  0  0
   40.0860   25.5070   42.9090 H   0  0  0  0  0  0  0  0  0  0  0  0
   39.2960   26.8090   41.1420 H   0  0  0  0  0  0  0  0  0  0  0  0
   35.8240   30.1160   40.3050 C   0  0  0  0  0  0  0  0  0  0  0  0
   36.0160   28.9870   41.0900 C   0  0  0  0  0  0  0  0  0  0  0  0
   36.9650   28.0220   40.7700 C   0  0  0  0  0  0  0  0  0  0  0  0
   37.6880   28.2540   39.6450 N   0  0  0  0  0  0  0  0  0  0  0  0
   37.4950   29.3570   38.8810 C   0  0  0  0  0  0  0  0  0  0  0  0
   36.5710   30.2840   39.2030 N   0  0  0  0  0  0  0  0  0  0  0  0
   35.0740   30.8400   40.5930 H   0  0  0  0  0  0  0  0  0  0  0  0
   35.4280   28.8380   41.9710 H   0  0  0  0  0  0  0  0  0  0  0  0
   38.1310   29.4500   37.9890 H   0  0  0  0  0  0  0  0  0  0  0  0
   38.9000   28.0650   42.8250 C   0  0  0  0  0  0  0  0  0  0  0  0
   37.8410   28.4020   43.6360 F   0  0  0  0  0  0  0  0  0  0  0  0
   39.9770   27.7890   43.6790 F   0  0  0  0  0  0  0  0  0  0  0  0
   39.2130   29.1150   41.9820 F   0  0  0  0  0  0  0  0  0  0  0  0
  1  6  1  0  0  0  0
  1  7  1  1  0  0  0
  2  1  1  0  0  0  0
  2  3  1  0  0  0  0
  3  4  1  0  0  0  0
  3 10  1  0  0  0  0
  4  5  1  0  0  0  0
  4 13  1  0  0  0  0
  5 15  1  0  0  0  0
  5 14  1  0  0  0  0
  6 16  1  6  0  0  0
  6  5  1  0  0  0  0
  6 26  1  0  0  0  0
  8  2  1  0  0  0  0
  9  2  1  0  0  0  0
 11  3  1  0  0  0  0
 12  4  1  0  0  0  0
 17 23  1  0  0  0  0
 17 18  1  0  0  0  0
 18 24  1  0  0  0  0
 19 18  2  0  0  0  0
 19  1  1  0  0  0  0
 20 19  1  0  0  0  0
 21 22  1  0  0  0  0
 21 20  2  0  0  0  0
 22 17  2  0  0  0  0
 25 21  1  0  0  0  0
 26 27  1  0  0  0  0
 26 28  1  0  0  0  0
 29 26  1  0  0  0  0
M  END
>  <minimizedAffinity>
-4.55240774

$$$$

 OpenBabel03242510303D

 29 30  0  0  1  0  0  0  0  0999 V2000
   38.3640   27.5040   41.1740 C   0  0  1  0  0  0  0  0  0  0  0  0
   39.4900   26.6260   40.6920 C   0  0  0  0  0  0  0  0  0  0  0  0
   38.8550   25.3160   40.2660 C   0  0  0  0  0  0  0  0  0  0  0  0
   38.3100   24.6530   41.5080 C   0  0  0  0  0  0  0  0  0  0  0  0
   37.3720   25.5070   42.2670 C   0  0  0  0  0  0  0  0  0  0  0  0
   37.7840   26.9260   42.4440 C   0  0  2  0  0  0  0  0  0  0  0  0
   37.5760   27.4990   40.4030 H   0  0  0  0  0  0  0  0  0  0  0  0
   39.9440   27.0530   39.7710 H   0  0  0  0  0  0  0  0  0  0  0  0
   40.2480   26.4050   41.4550 H   0  0  0  0  0  0  0  0  0  0  0  0
   38.1270   25.4450   39.4600 H   0  0  0  0  0  0  0  0  0  0  0  0
   39.6780   24.6490   39.8910 H   0  0  0  0  0  0  0  0  0  0  0  0
   39.1680   24.3260   42.1090 H   0  0  0  0  0  0  0  0  0  0  0  0
   37.7630   23.7290   41.2040 H   0  0  0  0  0  0  0  0  0  0  0  0
   36.3810   25.5080   41.7230 H   0  0  0  0  0  0  0  0  0  0  0  0
   37.2130   25.0470   43.2650 H   0  0  0  0  0  0  0  0  0  0  0  0
   38.5920   26.9270   43.2070 H   0  0  0  0  0  0  0  0  0  0  0  0
   40.1870   30.5530   42.5290 C   0  0  0  0  0  0  0  0  0  0  0  0
   39.8040   29.2340   42.3300 C   0  0  0  0  0  0  0  0  0  0  0  0
   38.8020   28.8870   41.4300 C   0  0  0  0  0  0  0  0  0  0  0  0
   38.2250   29.9180   40.7610 N   0  0  0  0  0  0  0  0  0  0  0  0
   38.6020   31.2050   40.9610 C   0  0  0  0  0  0  0  0  0  0  0  0
   39.5750   31.5260   41.8370 N   0  0  0  0  0  0  0  0  0  0  0  0
   40.9710   30.7750   43.2400 H   0  0  0  0  0  0  0  0  0  0  0  0
   40.2810   28.4470   42.8740 H   0  0  0  0  0  0  0  0  0  0  0  0
   38.0720   31.9660   40.3710 H   0  0  0  0  0  0  0  0  0  0  0  0
   36.6610   27.7900   42.9040 C   0  0  0  0  0  0  0  0  0  0  0  0
   35.8900   28.2530   41.8630 F   0  0  0  0  0  0  0  0  0  0  0  0
   35.8240   26.9740   43.6790 F   0  0  0  0  0  0  0  0  0  0  0  0
   37.1340   28.8460   43.6610 F   0  0  0  0  0  0  0  0  0  0  0  0
  1  7  1  6  0  0  0
  1 19  1  0  0  0  0
  1  6  1  0  0  0  0
  2  1  1  0  0  0  0
  2  9  1  0  0  0  0
  3  2  1  0  0  0  0
  3  4  1  0  0  0  0
  4 12  1  0  0  0  0
  4  5  1  0  0  0  0
  5  6  1  0  0  0  0
  5 15  1  0  0  0  0
  6 26  1  0  0  0  0
  6 16  1  1  0  0  0
  8  2  1  0  0  0  0
 10  3  1  0  0  0  0
 11  3  1  0  0  0  0
 13  4  1  0  0  0  0
 14  5  1  0  0  0  0
 17 23  1  0  0  0  0
 18 17  1  0  0  0  0
 18 24  1  0  0  0  0
 19 18  2  0  0  0  0
 20 21  2  0  0  0  0
 20 19  1  0  0  0  0
 21 22  1  0  0  0  0
 22 17  2  0  0  0  0
 25 21  1  0  0  0  0
 26 29  1  0  0  0  0
 26 28  1  0  0  0  0
 27 26  1  0  0  0  0
M  END
>  <minimizedAffinity>
-4.52364254

$$$$

 OpenBabel03242510303D

 29 30  0  0  1  0  0  0  0  0999 V2000
   37.5270   29.3930   41.8590 C   0  0  1  0  0  0  0  0  0  0  0  0
   36.5700   28.2290   41.8070 C   0  0  0  0  0  0  0  0  0  0  0  0
   36.6000   27.5910   43.1820 C   0  0  0  0  0  0  0  0  0  0  0  0
   37.9740   26.9950   43.3730 C   0  0  0  0  0  0  0  0  0  0  0  0
   39.0710   27.9700   43.1850 C   0  0  0  0  0  0  0  0  0  0  0  0
   38.9380   28.8760   42.0130 C   0  0  2  0  0  0  0  0  0  0  0  0
   37.2820   29.9940   42.7500 H   0  0  0  0  0  0  0  0  0  0  0  0
   35.5280   28.5940   41.6670 H   0  0  0  0  0  0  0  0  0  0  0  0
   36.8340   27.4610   41.0680 H   0  0  0  0  0  0  0  0  0  0  0  0
   36.2880   28.2810   43.9720 H   0  0  0  0  0  0  0  0  0  0  0  0
   35.8840   26.7260   43.1680 H   0  0  0  0  0  0  0  0  0  0  0  0
   38.0540   26.1310   42.7000 H   0  0  0  0  0  0  0  0  0  0  0  0
   38.0450   26.5960   44.4130 H   0  0  0  0  0  0  0  0  0  0  0  0
   39.1240   28.6180   44.1100 H   0  0  0  0  0  0  0  0  0  0  0  0
   40.0240   27.4080   43.1060 H   0  0  0  0  0  0  0  0  0  0  0  0
   39.1670   28.2640   41.1140 H   0  0  0  0  0  0  0  0  0  0  0  0
   37.0770   32.3430   39.5030 C   0  0  0  0  0  0  0  0  0  0  0  0
   37.1280   31.5880   40.6670 C   0  0  0  0  0  0  0  0  0  0  0  0
   37.4500   30.2360   40.6530 C   0  0  0  0  0  0  0  0  0  0  0  0
   37.7090   29.7030   39.4320 N   0  0  0  0  0  0  0  0  0  0  0  0
   37.6560   30.4430   38.2980 C   0  0  0  0  0  0  0  0  0  0  0  0
   37.3430   31.7540   38.3270 N   0  0  0  0  0  0  0  0  0  0  0  0
   36.8220   33.3920   39.5630 H   0  0  0  0  0  0  0  0  0  0  0  0
   36.9180   32.0430   41.6130 H   0  0  0  0  0  0  0  0  0  0  0  0
   37.8820   29.9170   37.3600 H   0  0  0  0  0  0  0  0  0  0  0  0
   39.8760   30.0320   42.0820 C   0  0  0  0  0  0  0  0  0  0  0  0
   39.3540   31.0940   42.7840 F   0  0  0  0  0  0  0  0  0  0  0  0
   40.9940   29.5940   42.8060 F   0  0  0  0  0  0  0  0  0  0  0  0
   40.2540   30.4320   40.8130 F   0  0  0  0  0  0  0  0  0  0  0  0
  1  6  1  0  0  0  0
  1  7  1  1  0  0  0
  2  1  1  0  0  0  0
  2  3  1  0  0  0  0
  3  4  1  0  0  0  0
  3 10  1  0  0  0  0
  4 13  1  0  0  0  0
  5  4  1  0  0  0  0
  5 14  1  0  0  0  0
  6 16  1  6  0  0  0
  6 26  1  0  0  0  0
  6  5  1  0  0  0  0
  8  2  1  0  0  0  0
  9  2  1  0  0  0  0
 11  3  1  0  0  0  0
 12  4  1  0  0  0  0
 15  5  1  0  0  0  0
 17 23  1  0  0  0  0
 17 18  1  0  0  0  0
 18 24  1  0  0  0  0
 19 18  2  0  0  0  0
 19  1  1  0  0  0  0
 20 19  1  0  0  0  0
 21 22  1  0  0  0  0
 21 20  2  0  0  0  0
 22 17  2  0  0  0  0
 25 21  1  0  0  0  0
 26 27  1  0  0  0  0
 26 28  1  0  0  0  0
 29 26  1  0  0  0  0
M  END
>  <minimizedAffinity>
-4.52320957

$$$$

 OpenBabel03242510303D

 29 30  0  0  1  0  0  0  0  0999 V2000
   37.5070   27.8250   40.6840 C   0  0  1  0  0  0  0  0  0  0  0  0
   36.2570   27.8300   39.8420 C   0  0  0  0  0  0  0  0  0  0  0  0
   36.0810   29.2530   39.3500 C   0  0  0  0  0  0  0  0  0  0  0  0
   35.7790   30.1130   40.5530 C   0  0  0  0  0  0  0  0  0  0  0  0
   36.7990   30.0130   41.6190 C   0  0  0  0  0  0  0  0  0  0  0  0
   37.2740   28.6390   41.9350 C   0  0  2  0  0  0  0  0  0  0  0  0
   38.3100   28.3090   40.1030 H   0  0  0  0  0  0  0  0  0  0  0  0
   36.4050   27.2120   38.9290 H   0  0  0  0  0  0  0  0  0  0  0  0
   35.3470   27.5410   40.3850 H   0  0  0  0  0  0  0  0  0  0  0  0
   36.9250   29.5950   38.7440 H   0  0  0  0  0  0  0  0  0  0  0  0
   35.1580   29.2760   38.7090 H   0  0  0  0  0  0  0  0  0  0  0  0
   34.7720   29.8480   40.9020 H   0  0  0  0  0  0  0  0  0  0  0  0
   35.7320   31.1780   40.2230 H   0  0  0  0  0  0  0  0  0  0  0  0
   37.6990   30.6180   41.3000 H   0  0  0  0  0  0  0  0  0  0  0  0
   36.3850   30.4760   42.5390 H   0  0  0  0  0  0  0  0  0  0  0  0
   36.4570   28.1450   42.5040 H   0  0  0  0  0  0  0  0  0  0  0  0
   37.5600   24.3030   42.1150 C   0  0  0  0  0  0  0  0  0  0  0  0
   37.1270   25.5800   41.7880 C   0  0  0  0  0  0  0  0  0  0  0  0
   37.9210   26.4630   41.0650 C   0  0  0  0  0  0  0  0  0  0  0  0
   39.1430   25.9970   40.7010 N   0  0  0  0  0  0  0  0  0  0  0  0
   39.5620   24.7490   41.0240 C   0  0  0  0  0  0  0  0  0  0  0  0
   38.7810   23.9030   41.7260 N   0  0  0  0  0  0  0  0  0  0  0  0
   36.9080   23.6510   42.6790 H   0  0  0  0  0  0  0  0  0  0  0  0
   36.1570   25.9140   42.0910 H   0  0  0  0  0  0  0  0  0  0  0  0
   40.5680   24.4680   40.6840 H   0  0  0  0  0  0  0  0  0  0  0  0
   38.5200   28.6440   42.7520 C   0  0  0  0  0  0  0  0  0  0  0  0
   39.6580   28.6190   41.9800 F   0  0  0  0  0  0  0  0  0  0  0  0
   38.5390   29.8660   43.4400 F   0  0  0  0  0  0  0  0  0  0  0  0
   38.5220   27.5910   43.6480 F   0  0  0  0  0  0  0  0  0  0  0  0
  1  7  1  6  0  0  0
  1 19  1  0  0  0  0
  1  6  1  0  0  0  0
  2  9  1  0  0  0  0
  2  1  1  0  0  0  0
  3  2  1  0  0  0  0
  3  4  1  0  0  0  0
  4 12  1  0  0  0  0
  4  5  1  0  0  0  0
  5  6  1  0  0  0  0
  5 15  1  0  0  0  0
  6 16  1  1  0  0  0
  6 26  1  0  0  0  0
  8  2  1  0  0  0  0
 10  3  1  0  0  0  0
 11  3  1  0  0  0  0
 13  4  1  0  0  0  0
 14  5  1  0  0  0  0
 17 23  1  0  0  0  0
 18 24  1  0  0  0  0
 18 17  1  0  0  0  0
 19 18  2  0  0  0  0
 20 21  2  0  0  0  0
 20 19  1  0  0  0  0
 21 22  1  0  0  0  0
 22 17  2  0  0  0  0
 25 21  1  0  0  0  0
 26 28  1  0  0  0  0
 26 29  1  0  0  0  0
 27 26  1  0  0  0  0
M  END
>  <minimizedAffinity>
-4.48577833

$$$$
