
 OpenBabel03252506443D

 35 37  0  0  1  0  0  0  0  0999 V2000
   36.8700   29.6580   40.9350 N   0  0  1  0  0  0  0  0  0  0  0  0
   37.2870   31.0340   41.0470 C   0  0  0  0  0  0  0  0  0  0  0  0
   36.9210   31.9260   39.9270 C   0  0  0  0  0  0  0  0  0  0  0  0
   37.5060   31.4400   38.6320 C   0  0  0  0  0  0  0  0  0  0  0  0
   37.7150   29.9690   38.6210 C   0  0  0  0  0  0  0  0  0  0  0  0
   36.7360   29.3130   39.5450 C   0  0  2  0  0  0  0  0  0  0  0  0
   38.3920   31.0980   41.1870 H   0  0  0  0  0  0  0  0  0  0  0  0
   36.8080   31.4170   41.9950 H   0  0  0  0  0  0  0  0  0  0  0  0
   37.5120   32.8860   40.1330 H   0  0  0  0  0  0  0  0  0  0  0  0
   35.8930   32.2930   39.8840 H   0  0  0  0  0  0  0  0  0  0  0  0
   38.4410   31.9260   38.3290 H   0  0  0  0  0  0  0  0  0  0  0  0
   36.7570   31.7380   37.8400 H   0  0  0  0  0  0  0  0  0  0  0  0
   38.7450   29.7020   38.9760 H   0  0  0  0  0  0  0  0  0  0  0  0
   37.5670   29.5220   37.6280 H   0  0  0  0  0  0  0  0  0  0  0  0
   37.1410   28.2270   39.5540 H   0  0  0  0  0  0  0  0  0  0  0  0
   37.5120   27.8850   42.6890 C   0  0  1  0  0  0  0  0  0  0  0  0
   38.0780   29.1950   43.0510 C   0  0  0  0  0  0  0  0  0  0  0  0
   37.8530   28.8750   41.6210 C   0  0  2  0  0  0  0  0  0  0  0  0
   36.4530   27.7530   42.9520 H   0  0  0  0  0  0  0  0  0  0  0  0
   39.1240   29.2100   43.3780 H   0  0  0  0  0  0  0  0  0  0  0  0
   37.4480   29.9730   43.5390 H   0  0  0  0  0  0  0  0  0  0  0  0
   38.6970   28.5680   40.9640 H   0  0  0  0  0  0  0  0  0  0  0  0
   38.0210   25.4620   42.1750 C   0  0  0  0  0  0  0  0  0  0  0  0
   38.3670   26.6700   42.8260 C   0  0  0  0  0  0  0  0  0  0  0  0
   39.5400   26.6840   43.5980 C   0  0  0  0  0  0  0  0  0  0  0  0
   40.2700   25.5440   43.6730 N   0  0  0  0  0  0  0  0  0  0  0  0
   39.9080   24.4040   43.0350 C   0  0  0  0  0  0  0  0  0  0  0  0
   38.7750   24.3550   42.2770 N   0  0  0  0  0  0  0  0  0  0  0  0
   37.1240   25.4210   41.5730 H   0  0  0  0  0  0  0  0  0  0  0  0
   39.8120   27.5940   44.0970 H   0  0  0  0  0  0  0  0  0  0  0  0
   40.5820   23.5590   43.1780 H   0  0  0  0  0  0  0  0  0  0  0  0
   35.3530   29.1350   39.0290 C   0  0  0  0  0  0  0  0  0  0  0  0
   35.2040   29.6720   37.7390 F   0  0  0  0  0  0  0  0  0  0  0  0
   35.0640   27.7710   38.8070 F   0  0  0  0  0  0  0  0  0  0  0  0
   34.3450   29.5440   39.8690 F   0  0  0  0  0  0  0  0  0  0  0  0
  1  2  1  6  0  0  0
  1 18  1  0  0  0  0
  2  7  1  0  0  0  0
  2  8  1  0  0  0  0
  3  9  1  0  0  0  0
  3  2  1  0  0  0  0
  4  3  1  0  0  0  0
  5  4  1  0  0  0  0
  5 13  1  0  0  0  0
  5  6  1  0  0  0  0
  6 15  1  6  0  0  0
  6  1  1  0  0  0  0
 10  3  1  0  0  0  0
 11  4  1  0  0  0  0
 12  4  1  0  0  0  0
 14  5  1  0  0  0  0
 16 24  1  0  0  0  0
 16 19  1  1  0  0  0
 16 17  1  0  0  0  0
 17 20  1  0  0  0  0
 17 21  1  0  0  0  0
 18 22  1  6  0  0  0
 18 16  1  0  0  0  0
 18 17  1  0  0  0  0
 23 28  2  0  0  0  0
 23 24  1  0  0  0  0
 24 25  2  0  0  0  0
 25 26  1  0  0  0  0
 25 30  1  0  0  0  0
 27 31  1  0  0  0  0
 27 26  2  0  0  0  0
 28 27  1  0  0  0  0
 29 23  1  0  0  0  0
 32  6  1  0  0  0  0
 32 35  1  0  0  0  0
 33 32  1  0  0  0  0
 34 32  1  0  0  0  0
M  END
>  <minimizedAffinity>
-5.16134024

$$$$

 OpenBabel03252506443D

 35 37  0  0  1  0  0  0  0  0999 V2000
   38.1790   26.3860   42.2120 N   0  0  1  0  0  0  0  0  0  0  0  0
   37.1530   25.4320   41.8670 C   0  0  0  0  0  0  0  0  0  0  0  0
   37.5710   24.0170   41.7830 C   0  0  0  0  0  0  0  0  0  0  0  0
   38.6480   23.8290   40.7540 C   0  0  0  0  0  0  0  0  0  0  0  0
   39.4650   25.0540   40.5570 C   0  0  0  0  0  0  0  0  0  0  0  0
   39.4620   25.8700   41.8120 C   0  0  2  0  0  0  0  0  0  0  0  0
   36.6760   25.7050   40.8960 H   0  0  0  0  0  0  0  0  0  0  0  0
   36.3640   25.5370   42.6670 H   0  0  0  0  0  0  0  0  0  0  0  0
   36.6690   23.4900   41.3130 H   0  0  0  0  0  0  0  0  0  0  0  0
   37.6970   23.4680   42.7190 H   0  0  0  0  0  0  0  0  0  0  0  0
   38.3020   23.4800   39.7730 H   0  0  0  0  0  0  0  0  0  0  0  0
   39.2880   22.9860   41.1480 H   0  0  0  0  0  0  0  0  0  0  0  0
   39.0460   25.6940   39.7370 H   0  0  0  0  0  0  0  0  0  0  0  0
   40.5160   24.8360   40.3190 H   0  0  0  0  0  0  0  0  0  0  0  0
   39.9760   26.8410   41.4410 H   0  0  0  0  0  0  0  0  0  0  0  0
   37.4210   28.8460   42.3000 C   0  0  1  0  0  0  0  0  0  0  0  0
   36.4090   28.0200   41.6210 C   0  0  0  0  0  0  0  0  0  0  0  0
   37.8340   27.6130   41.5600 C   0  0  2  0  0  0  0  0  0  0  0  0
   37.3890   28.8020   43.3980 H   0  0  0  0  0  0  0  0  0  0  0  0
   35.9860   28.4180   40.6920 H   0  0  0  0  0  0  0  0  0  0  0  0
   35.6930   27.4000   42.2060 H   0  0  0  0  0  0  0  0  0  0  0  0
   38.4450   27.8070   40.6520 H   0  0  0  0  0  0  0  0  0  0  0  0
   39.0710   30.7170   41.8890 C   0  0  0  0  0  0  0  0  0  0  0  0
   37.7750   30.1720   41.7170 C   0  0  0  0  0  0  0  0  0  0  0  0
   36.8440   30.9200   40.9800 C   0  0  0  0  0  0  0  0  0  0  0  0
   37.2370   32.1150   40.4760 N   0  0  0  0  0  0  0  0  0  0  0  0
   38.4880   32.6070   40.6600 C   0  0  0  0  0  0  0  0  0  0  0  0
   39.4180   31.9070   41.3700 N   0  0  0  0  0  0  0  0  0  0  0  0
   39.8090   30.1640   42.4510 H   0  0  0  0  0  0  0  0  0  0  0  0
   35.8590   30.5170   40.8440 H   0  0  0  0  0  0  0  0  0  0  0  0
   38.6750   33.5780   40.2020 H   0  0  0  0  0  0  0  0  0  0  0  0
   40.3710   25.4200   42.8990 C   0  0  0  0  0  0  0  0  0  0  0  0
   39.7910   24.4040   43.6770 F   0  0  0  0  0  0  0  0  0  0  0  0
   41.5070   24.7670   42.3740 F   0  0  0  0  0  0  0  0  0  0  0  0
   40.9060   26.4160   43.6800 F   0  0  0  0  0  0  0  0  0  0  0  0
  1  2  1  6  0  0  0
  2  8  1  0  0  0  0
  3  2  1  0  0  0  0
  3 10  1  0  0  0  0
  4 12  1  0  0  0  0
  4  3  1  0  0  0  0
  5  4  1  0  0  0  0
  5  6  1  0  0  0  0
  6 15  1  6  0  0  0
  6  1  1  0  0  0  0
  6 32  1  0  0  0  0
  7  2  1  0  0  0  0
  9  3  1  0  0  0  0
 11  4  1  0  0  0  0
 13  5  1  0  0  0  0
 14  5  1  0  0  0  0
 16 19  1  1  0  0  0
 17 21  1  0  0  0  0
 17 16  1  0  0  0  0
 18 22  1  6  0  0  0
 18 17  1  0  0  0  0
 18  1  1  0  0  0  0
 18 16  1  0  0  0  0
 20 17  1  0  0  0  0
 23 29  1  0  0  0  0
 24 23  1  0  0  0  0
 24 16  1  0  0  0  0
 25 24  2  0  0  0  0
 26 27  2  0  0  0  0
 26 25  1  0  0  0  0
 27 28  1  0  0  0  0
 28 23  2  0  0  0  0
 30 25  1  0  0  0  0
 31 27  1  0  0  0  0
 32 33  1  0  0  0  0
 32 35  1  0  0  0  0
 34 32  1  0  0  0  0
M  END
>  <minimizedAffinity>
-4.91817474

$$$$

 OpenBabel03252506443D

 35 37  0  0  1  0  0  0  0  0999 V2000
   38.8880   27.8460   41.1040 N   0  0  1  0  0  0  0  0  0  0  0  0
   39.9450   26.8770   41.2540 C   0  0  0  0  0  0  0  0  0  0  0  0
   39.7350   25.8250   42.2710 C   0  0  0  0  0  0  0  0  0  0  0  0
   39.5480   26.4210   43.6370 C   0  0  0  0  0  0  0  0  0  0  0  0
   38.9800   27.7920   43.5850 C   0  0  0  0  0  0  0  0  0  0  0  0
   38.1620   27.9530   42.3420 C   0  0  2  0  0  0  0  0  0  0  0  0
   40.9120   27.3840   41.4830 H   0  0  0  0  0  0  0  0  0  0  0  0
   40.0550   26.3930   40.2400 H   0  0  0  0  0  0  0  0  0  0  0  0
   40.7550   25.3100   42.3510 H   0  0  0  0  0  0  0  0  0  0  0  0
   39.0760   24.9930   42.0130 H   0  0  0  0  0  0  0  0  0  0  0  0
   40.4460   26.4400   44.2660 H   0  0  0  0  0  0  0  0  0  0  0  0
   38.8390   25.7200   44.1690 H   0  0  0  0  0  0  0  0  0  0  0  0
   39.7910   28.5670   43.5580 H   0  0  0  0  0  0  0  0  0  0  0  0
   38.3190   28.0160   44.4340 H   0  0  0  0  0  0  0  0  0  0  0  0
   37.9500   29.0930   42.3670 H   0  0  0  0  0  0  0  0  0  0  0  0
   38.9190   29.9980   39.6880 C   0  0  1  0  0  0  0  0  0  0  0  0
   40.0490   29.1260   39.3240 C   0  0  0  0  0  0  0  0  0  0  0  0
   39.5100   29.0730   40.7040 C   0  0  2  0  0  0  0  0  0  0  0  0
   37.9580   29.7200   39.2340 H   0  0  0  0  0  0  0  0  0  0  0  0
   41.0280   29.6040   39.2110 H   0  0  0  0  0  0  0  0  0  0  0  0
   39.8990   28.2520   38.6490 H   0  0  0  0  0  0  0  0  0  0  0  0
   40.0330   29.5850   41.5420 H   0  0  0  0  0  0  0  0  0  0  0  0
   40.2240   32.0960   39.1500 C   0  0  0  0  0  0  0  0  0  0  0  0
   39.1620   31.4620   39.8400 C   0  0  0  0  0  0  0  0  0  0  0  0
   38.3500   32.2580   40.6620 C   0  0  0  0  0  0  0  0  0  0  0  0
   38.6270   33.5820   40.7480 N   0  0  0  0  0  0  0  0  0  0  0  0
   39.6530   34.1560   40.0720 C   0  0  0  0  0  0  0  0  0  0  0  0
   40.4630   33.4130   39.2640 N   0  0  0  0  0  0  0  0  0  0  0  0
   40.8660   31.5090   38.5090 H   0  0  0  0  0  0  0  0  0  0  0  0
   37.5420   31.7880   41.1900 H   0  0  0  0  0  0  0  0  0  0  0  0
   39.7670   35.2280   40.2290 H   0  0  0  0  0  0  0  0  0  0  0  0
   36.7940   27.3720   42.3670 C   0  0  0  0  0  0  0  0  0  0  0  0
   36.3150   27.2210   43.6790 F   0  0  0  0  0  0  0  0  0  0  0  0
   35.8500   28.2680   41.8190 F   0  0  0  0  0  0  0  0  0  0  0  0
   36.6160   26.2280   41.6270 F   0  0  0  0  0  0  0  0  0  0  0  0
  1  2  1  1  0  0  0
  1  6  1  0  0  0  0
  2  7  1  0  0  0  0
  2  3  1  0  0  0  0
  3  9  1  0  0  0  0
  3  4  1  0  0  0  0
  4 12  1  0  0  0  0
  4 11  1  0  0  0  0
  5  4  1  0  0  0  0
  5 14  1  0  0  0  0
  6 32  1  0  0  0  0
  6 15  1  1  0  0  0
  6  5  1  0  0  0  0
  8  2  1  0  0  0  0
 10  3  1  0  0  0  0
 13  5  1  0  0  0  0
 16 19  1  6  0  0  0
 16 24  1  0  0  0  0
 16 18  1  0  0  0  0
 17 16  1  0  0  0  0
 17 18  1  0  0  0  0
 18  1  1  0  0  0  0
 18 22  1  1  0  0  0
 20 17  1  0  0  0  0
 21 17  1  0  0  0  0
 23 28  2  0  0  0  0
 23 24  1  0  0  0  0
 24 25  2  0  0  0  0
 25 26  1  0  0  0  0
 25 30  1  0  0  0  0
 27 31  1  0  0  0  0
 27 26  2  0  0  0  0
 28 27  1  0  0  0  0
 29 23  1  0  0  0  0
 32 33  1  0  0  0  0
 34 32  1  0  0  0  0
 35 32  1  0  0  0  0
M  END
>  <minimizedAffinity>
-4.88098669

$$$$

 OpenBabel03252506443D

 35 37  0  0  1  0  0  0  0  0999 V2000
   37.4980   30.3800   41.3200 N   0  0  1  0  0  0  0  0  0  0  0  0
   36.2070   30.3210   40.6800 C   0  0  0  0  0  0  0  0  0  0  0  0
   35.4670   29.0480   40.8060 C   0  0  0  0  0  0  0  0  0  0  0  0
   36.2490   27.9060   40.2230 C   0  0  0  0  0  0  0  0  0  0  0  0
   37.7150   28.1390   40.2720 C   0  0  0  0  0  0  0  0  0  0  0  0
   38.0430   29.0510   41.4130 C   0  0  2  0  0  0  0  0  0  0  0  0
   36.2970   30.5570   39.5940 H   0  0  0  0  0  0  0  0  0  0  0  0
   35.6010   31.1480   41.1510 H   0  0  0  0  0  0  0  0  0  0  0  0
   34.5930   29.1630   40.0740 H   0  0  0  0  0  0  0  0  0  0  0  0
   34.9530   28.8500   41.7490 H   0  0  0  0  0  0  0  0  0  0  0  0
   35.9750   27.6250   39.1990 H   0  0  0  0  0  0  0  0  0  0  0  0
   35.9700   27.0080   40.8500 H   0  0  0  0  0  0  0  0  0  0  0  0
   38.0800   28.6290   39.3320 H   0  0  0  0  0  0  0  0  0  0  0  0
   38.2920   27.2150   40.4240 H   0  0  0  0  0  0  0  0  0  0  0  0
   39.1640   29.2650   41.2030 H   0  0  0  0  0  0  0  0  0  0  0  0
   38.9530   32.4940   41.1010 C   0  0  1  0  0  0  0  0  0  0  0  0
   37.7400   32.6160   40.2750 C   0  0  0  0  0  0  0  0  0  0  0  0
   38.3030   31.2690   40.5390 C   0  0  2  0  0  0  0  0  0  0  0  0
   38.8060   32.7120   42.1680 H   0  0  0  0  0  0  0  0  0  0  0  0
   37.8710   32.9960   39.2560 H   0  0  0  0  0  0  0  0  0  0  0  0
   36.7650   32.8950   40.7320 H   0  0  0  0  0  0  0  0  0  0  0  0
   38.9090   30.7420   39.7690 H   0  0  0  0  0  0  0  0  0  0  0  0
   41.4810   32.4490   41.0620 C   0  0  0  0  0  0  0  0  0  0  0  0
   40.2600   32.9270   40.5280 C   0  0  0  0  0  0  0  0  0  0  0  0
   40.3250   33.8150   39.4420 C   0  0  0  0  0  0  0  0  0  0  0  0
   41.5480   34.1610   38.9700 N   0  0  0  0  0  0  0  0  0  0  0  0
   42.6980   33.6830   39.5080 C   0  0  0  0  0  0  0  0  0  0  0  0
   42.6720   32.8190   40.5620 N   0  0  0  0  0  0  0  0  0  0  0  0
   41.4630   31.7640   41.8980 H   0  0  0  0  0  0  0  0  0  0  0  0
   39.4060   34.1840   39.0290 H   0  0  0  0  0  0  0  0  0  0  0  0
   43.6120   34.0400   39.0350 H   0  0  0  0  0  0  0  0  0  0  0  0
   38.0820   28.4360   42.7650 C   0  0  0  0  0  0  0  0  0  0  0  0
   38.0140   27.0340   42.7030 F   0  0  0  0  0  0  0  0  0  0  0  0
   39.3380   28.6350   43.3800 F   0  0  0  0  0  0  0  0  0  0  0  0
   37.1930   28.9470   43.6790 F   0  0  0  0  0  0  0  0  0  0  0  0
  1  2  1  6  0  0  0
  1  6  1  0  0  0  0
  2  3  1  0  0  0  0
  2  8  1  0  0  0  0
  3 10  1  0  0  0  0
  4  5  1  0  0  0  0
  4  3  1  0  0  0  0
  4 12  1  0  0  0  0
  5 14  1  0  0  0  0
  5  6  1  0  0  0  0
  6 15  1  6  0  0  0
  6 32  1  0  0  0  0
  7  2  1  0  0  0  0
  9  3  1  0  0  0  0
 11  4  1  0  0  0  0
 13  5  1  0  0  0  0
 16 19  1  1  0  0  0
 17 18  1  0  0  0  0
 17 21  1  0  0  0  0
 17 16  1  0  0  0  0
 18 22  1  6  0  0  0
 18 16  1  0  0  0  0
 18  1  1  0  0  0  0
 20 17  1  0  0  0  0
 23 29  1  0  0  0  0
 24 23  2  0  0  0  0
 24 16  1  0  0  0  0
 25 24  1  0  0  0  0
 26 25  2  0  0  0  0
 26 27  1  0  0  0  0
 27 28  2  0  0  0  0
 28 23  1  0  0  0  0
 30 25  1  0  0  0  0
 31 27  1  0  0  0  0
 32 34  1  0  0  0  0
 32 35  1  0  0  0  0
 33 32  1  0  0  0  0
M  END
>  <minimizedAffinity>
-4.86658955

$$$$

 OpenBabel03252506443D

 35 37  0  0  1  0  0  0  0  0999 V2000
   36.5050   27.4250   40.4810 N   0  0  1  0  0  0  0  0  0  0  0  0
   36.2620   26.6780   39.2710 C   0  0  0  0  0  0  0  0  0  0  0  0
   36.7210   25.2730   39.2610 C   0  0  0  0  0  0  0  0  0  0  0  0
   38.2020   25.1850   39.4900 C   0  0  0  0  0  0  0  0  0  0  0  0
   38.7240   26.3290   40.2800 C   0  0  0  0  0  0  0  0  0  0  0  0
   37.6420   26.8660   41.1640 C   0  0  2  0  0  0  0  0  0  0  0  0
   36.7210   27.1930   38.3950 H   0  0  0  0  0  0  0  0  0  0  0  0
   35.1430   26.7020   39.1230 H   0  0  0  0  0  0  0  0  0  0  0  0
   36.6080   24.9540   38.1660 H   0  0  0  0  0  0  0  0  0  0  0  0
   36.1070   24.5340   39.7810 H   0  0  0  0  0  0  0  0  0  0  0  0
   38.8100   25.0830   38.5820 H   0  0  0  0  0  0  0  0  0  0  0  0
   38.3570   24.2150   40.0480 H   0  0  0  0  0  0  0  0  0  0  0  0
   39.0610   27.1640   39.6130 H   0  0  0  0  0  0  0  0  0  0  0  0
   39.5630   26.0510   40.9340 H   0  0  0  0  0  0  0  0  0  0  0  0
   38.1470   27.8320   41.5620 H   0  0  0  0  0  0  0  0  0  0  0  0
   36.5420   29.9410   41.0330 C   0  0  1  0  0  0  0  0  0  0  0  0
   35.4810   29.6440   40.0550 C   0  0  0  0  0  0  0  0  0  0  0  0
   36.6930   28.7890   40.0900 C   0  0  2  0  0  0  0  0  0  0  0  0
   36.2790   29.7210   42.0770 H   0  0  0  0  0  0  0  0  0  0  0  0
   35.3970   30.3180   39.1960 H   0  0  0  0  0  0  0  0  0  0  0  0
   34.5070   29.2160   40.3840 H   0  0  0  0  0  0  0  0  0  0  0  0
   37.5040   28.9160   39.3390 H   0  0  0  0  0  0  0  0  0  0  0  0
   38.7040   31.2080   41.3630 C   0  0  0  0  0  0  0  0  0  0  0  0
   37.3970   31.1440   40.8230 C   0  0  0  0  0  0  0  0  0  0  0  0
   36.9410   32.2460   40.0830 C   0  0  0  0  0  0  0  0  0  0  0  0
   37.7740   33.3040   39.9280 N   0  0  0  0  0  0  0  0  0  0  0  0
   39.0220   33.3310   40.4600 C   0  0  0  0  0  0  0  0  0  0  0  0
   39.4980   32.2780   41.1840 N   0  0  0  0  0  0  0  0  0  0  0  0
   39.0840   30.3750   41.9360 H   0  0  0  0  0  0  0  0  0  0  0  0
   35.9510   32.2090   39.6690 H   0  0  0  0  0  0  0  0  0  0  0  0
   39.5890   34.2400   40.2630 H   0  0  0  0  0  0  0  0  0  0  0  0
   37.3670   26.1090   42.4130 C   0  0  0  0  0  0  0  0  0  0  0  0
   38.5510   25.7770   43.0940 F   0  0  0  0  0  0  0  0  0  0  0  0
   36.7070   26.9190   43.3640 F   0  0  0  0  0  0  0  0  0  0  0  0
   36.5350   25.0240   42.2830 F   0  0  0  0  0  0  0  0  0  0  0  0
  1  2  1  6  0  0  0
  1  6  1  0  0  0  0
  3  2  1  0  0  0  0
  3  4  1  0  0  0  0
  3 10  1  0  0  0  0
  4 12  1  0  0  0  0
  4  5  1  0  0  0  0
  5 14  1  0  0  0  0
  5  6  1  0  0  0  0
  6 15  1  1  0  0  0
  6 32  1  0  0  0  0
  7  2  1  0  0  0  0
  8  2  1  0  0  0  0
  9  3  1  0  0  0  0
 11  4  1  0  0  0  0
 13  5  1  0  0  0  0
 16 19  1  1  0  0  0
 17 18  1  0  0  0  0
 17 21  1  0  0  0  0
 17 16  1  0  0  0  0
 18 22  1  6  0  0  0
 18  1  1  0  0  0  0
 18 16  1  0  0  0  0
 20 17  1  0  0  0  0
 23 29  1  0  0  0  0
 24 16  1  0  0  0  0
 24 23  2  0  0  0  0
 25 24  1  0  0  0  0
 26 25  2  0  0  0  0
 26 27  1  0  0  0  0
 27 28  2  0  0  0  0
 28 23  1  0  0  0  0
 30 25  1  0  0  0  0
 31 27  1  0  0  0  0
 32 33  1  0  0  0  0
 32 34  1  0  0  0  0
 35 32  1  0  0  0  0
M  END
>  <minimizedAffinity>
-4.81789541

$$$$

 OpenBabel03252506443D

 35 37  0  0  1  0  0  0  0  0999 V2000
   38.6720   31.5200   40.6670 N   0  0  1  0  0  0  0  0  0  0  0  0
   39.6330   32.5330   41.0290 C   0  0  0  0  0  0  0  0  0  0  0  0
   39.8730   33.5990   40.0330 C   0  0  0  0  0  0  0  0  0  0  0  0
   40.3680   33.0290   38.7360 C   0  0  0  0  0  0  0  0  0  0  0  0
   39.9030   31.6360   38.5140 C   0  0  0  0  0  0  0  0  0  0  0  0
   38.6090   31.4150   39.2330 C   0  0  2  0  0  0  0  0  0  0  0  0
   40.6170   32.0690   41.2740 H   0  0  0  0  0  0  0  0  0  0  0  0
   39.2370   32.9970   41.9780 H   0  0  0  0  0  0  0  0  0  0  0  0
   40.7890   34.1550   40.4390 H   0  0  0  0  0  0  0  0  0  0  0  0
   39.1330   34.3990   39.9570 H   0  0  0  0  0  0  0  0  0  0  0  0
   41.4550   33.0590   38.5960 H   0  0  0  0  0  0  0  0  0  0  0  0
   39.9580   33.7140   37.9370 H   0  0  0  0  0  0  0  0  0  0  0  0
   40.6430   30.8920   38.9130 H   0  0  0  0  0  0  0  0  0  0  0  0
   39.7240   31.4070   37.4540 H   0  0  0  0  0  0  0  0  0  0  0  0
   38.4850   30.2680   39.1090 H   0  0  0  0  0  0  0  0  0  0  0  0
   38.2840   29.6170   42.3580 C   0  0  1  0  0  0  0  0  0  0  0  0
   39.4660   30.4100   42.7380 C   0  0  0  0  0  0  0  0  0  0  0  0
   39.0910   30.3100   41.3060 C   0  0  2  0  0  0  0  0  0  0  0  0
   37.3210   30.0610   42.6460 H   0  0  0  0  0  0  0  0  0  0  0  0
   40.3610   29.8540   43.0370 H   0  0  0  0  0  0  0  0  0  0  0  0
   39.3530   31.3870   43.2610 H   0  0  0  0  0  0  0  0  0  0  0  0
   39.6340   29.6240   40.6200 H   0  0  0  0  0  0  0  0  0  0  0  0
   37.4320   27.3160   41.7480 C   0  0  0  0  0  0  0  0  0  0  0  0
   38.3600   28.1300   42.4420 C   0  0  0  0  0  0  0  0  0  0  0  0
   39.3500   27.4890   43.2040 C   0  0  0  0  0  0  0  0  0  0  0  0
   39.3610   26.1340   43.2300 N   0  0  0  0  0  0  0  0  0  0  0  0
   38.4550   25.3850   42.5520 C   0  0  0  0  0  0  0  0  0  0  0  0
   37.4800   25.9740   41.8020 N   0  0  0  0  0  0  0  0  0  0  0  0
   36.6590   27.7810   41.1530 H   0  0  0  0  0  0  0  0  0  0  0  0
   40.0580   28.0960   43.7340 H   0  0  0  0  0  0  0  0  0  0  0  0
   38.5750   24.3070   42.6580 H   0  0  0  0  0  0  0  0  0  0  0  0
   37.3850   31.9430   38.5750 C   0  0  0  0  0  0  0  0  0  0  0  0
   37.5710   32.1230   37.1940 F   0  0  0  0  0  0  0  0  0  0  0  0
   36.3410   30.9920   38.6030 F   0  0  0  0  0  0  0  0  0  0  0  0
   36.8240   33.0520   39.1610 F   0  0  0  0  0  0  0  0  0  0  0  0
  1  2  1  6  0  0  0
  1 18  1  0  0  0  0
  2  7  1  0  0  0  0
  2  8  1  0  0  0  0
  3  9  1  0  0  0  0
  3  2  1  0  0  0  0
  4  3  1  0  0  0  0
  5  4  1  0  0  0  0
  5 13  1  0  0  0  0
  5  6  1  0  0  0  0
  6 15  1  6  0  0  0
  6  1  1  0  0  0  0
 10  3  1  0  0  0  0
 11  4  1  0  0  0  0
 12  4  1  0  0  0  0
 14  5  1  0  0  0  0
 16 24  1  0  0  0  0
 16 19  1  1  0  0  0
 16 17  1  0  0  0  0
 17 20  1  0  0  0  0
 17 21  1  0  0  0  0
 18 22  1  6  0  0  0
 18 16  1  0  0  0  0
 18 17  1  0  0  0  0
 23 28  2  0  0  0  0
 23 24  1  0  0  0  0
 24 25  2  0  0  0  0
 25 26  1  0  0  0  0
 25 30  1  0  0  0  0
 27 31  1  0  0  0  0
 27 26  2  0  0  0  0
 28 27  1  0  0  0  0
 29 23  1  0  0  0  0
 32 34  1  0  0  0  0
 32 35  1  0  0  0  0
 32  6  1  0  0  0  0
 33 32  1  0  0  0  0
M  END
>  <minimizedAffinity>
-4.80854177

$$$$

 OpenBabel03252506443D

 35 37  0  0  1  0  0  0  0  0999 V2000
   38.0230   29.5710   41.8640 N   0  0  1  0  0  0  0  0  0  0  0  0
   39.1860   30.1430   42.4960 C   0  0  0  0  0  0  0  0  0  0  0  0
   39.6220   31.4650   42.0000 C   0  0  0  0  0  0  0  0  0  0  0  0
   39.9530   31.4140   40.5360 C   0  0  0  0  0  0  0  0  0  0  0  0
   39.1970   30.3540   39.8210 C   0  0  0  0  0  0  0  0  0  0  0  0
   37.9040   30.0910   40.5270 C   0  0  2  0  0  0  0  0  0  0  0  0
   40.0550   29.4470   42.4210 H   0  0  0  0  0  0  0  0  0  0  0  0
   38.9220   30.2280   43.5900 H   0  0  0  0  0  0  0  0  0  0  0  0
   40.6450   31.6220   42.4920 H   0  0  0  0  0  0  0  0  0  0  0  0
   39.0670   32.3440   42.3390 H   0  0  0  0  0  0  0  0  0  0  0  0
   41.0180   31.3010   40.3010 H   0  0  0  0  0  0  0  0  0  0  0  0
   39.6780   32.4340   40.1360 H   0  0  0  0  0  0  0  0  0  0  0  0
   39.7710   29.3910   39.7980 H   0  0  0  0  0  0  0  0  0  0  0  0
   38.9470   30.6290   38.7860 H   0  0  0  0  0  0  0  0  0  0  0  0
   37.5360   29.1480   39.9630 H   0  0  0  0  0  0  0  0  0  0  0  0
   37.0520   27.1940   42.0630 C   0  0  1  0  0  0  0  0  0  0  0  0
   37.9320   27.4880   43.2070 C   0  0  0  0  0  0  0  0  0  0  0  0
   38.1910   28.1500   41.9050 C   0  0  2  0  0  0  0  0  0  0  0  0
   36.0380   27.6090   42.1460 H   0  0  0  0  0  0  0  0  0  0  0  0
   38.6450   26.7080   43.4960 H   0  0  0  0  0  0  0  0  0  0  0  0
   37.5690   28.0990   44.0630 H   0  0  0  0  0  0  0  0  0  0  0  0
   39.0010   27.7900   41.2320 H   0  0  0  0  0  0  0  0  0  0  0  0
   37.7310   24.7590   42.0800 C   0  0  0  0  0  0  0  0  0  0  0  0
   37.1510   25.8590   41.4040 C   0  0  0  0  0  0  0  0  0  0  0  0
   36.6740   25.6490   40.1010 C   0  0  0  0  0  0  0  0  0  0  0  0
   36.7930   24.4090   39.5670 N   0  0  0  0  0  0  0  0  0  0  0  0
   37.3550   23.3760   40.2440 C   0  0  0  0  0  0  0  0  0  0  0  0
   37.8290   23.5440   41.5120 N   0  0  0  0  0  0  0  0  0  0  0  0
   38.1070   24.8900   43.0840 H   0  0  0  0  0  0  0  0  0  0  0  0
   36.2320   26.4770   39.5790 H   0  0  0  0  0  0  0  0  0  0  0  0
   37.3900   22.4320   39.7010 H   0  0  0  0  0  0  0  0  0  0  0  0
   36.8040   31.0610   40.2820 C   0  0  0  0  0  0  0  0  0  0  0  0
   35.8760   30.5720   39.3480 F   0  0  0  0  0  0  0  0  0  0  0  0
   35.9990   31.2190   41.4310 F   0  0  0  0  0  0  0  0  0  0  0  0
   37.1940   32.3440   39.9860 F   0  0  0  0  0  0  0  0  0  0  0  0
  1 18  1  0  0  0  0
  1  2  1  6  0  0  0
  2  8  1  0  0  0  0
  3 10  1  0  0  0  0
  3  9  1  0  0  0  0
  3  2  1  0  0  0  0
  4  3  1  0  0  0  0
  5  6  1  0  0  0  0
  5  4  1  0  0  0  0
  6 15  1  6  0  0  0
  6  1  1  0  0  0  0
  7  2  1  0  0  0  0
 11  4  1  0  0  0  0
 12  4  1  0  0  0  0
 13  5  1  0  0  0  0
 14  5  1  0  0  0  0
 16 19  1  1  0  0  0
 16 17  1  0  0  0  0
 17 20  1  0  0  0  0
 17 21  1  0  0  0  0
 18 22  1  6  0  0  0
 18 16  1  0  0  0  0
 18 17  1  0  0  0  0
 23 29  1  0  0  0  0
 24 16  1  0  0  0  0
 24 23  2  0  0  0  0
 25 24  1  0  0  0  0
 26 25  2  0  0  0  0
 26 27  1  0  0  0  0
 27 28  2  0  0  0  0
 28 23  1  0  0  0  0
 30 25  1  0  0  0  0
 31 27  1  0  0  0  0
 32  6  1  0  0  0  0
 32 34  1  0  0  0  0
 33 32  1  0  0  0  0
 35 32  1  0  0  0  0
M  END
>  <minimizedAffinity>
-4.77063894

$$$$

 OpenBabel03252506443D

 35 37  0  0  1  0  0  0  0  0999 V2000
   36.4820   27.0840   40.2940 N   0  0  1  0  0  0  0  0  0  0  0  0
   36.2300   26.4190   39.0390 C   0  0  0  0  0  0  0  0  0  0  0  0
   36.6380   25.0010   38.9510 C   0  0  0  0  0  0  0  0  0  0  0  0
   38.1120   24.8440   39.1940 C   0  0  0  0  0  0  0  0  0  0  0  0
   38.6630   25.9190   40.0580 C   0  0  0  0  0  0  0  0  0  0  0  0
   37.5870   26.4440   40.9580 C   0  0  2  0  0  0  0  0  0  0  0  0
   36.7210   26.9670   38.2000 H   0  0  0  0  0  0  0  0  0  0  0  0
   35.1160   26.4930   38.8780 H   0  0  0  0  0  0  0  0  0  0  0  0
   36.5310   24.7510   37.8380 H   0  0  0  0  0  0  0  0  0  0  0  0
   35.9900   24.2560   39.4180 H   0  0  0  0  0  0  0  0  0  0  0  0
   38.7290   24.7730   38.2900 H   0  0  0  0  0  0  0  0  0  0  0  0
   38.2220   23.8380   39.6960 H   0  0  0  0  0  0  0  0  0  0  0  0
   39.0400   26.7800   39.4450 H   0  0  0  0  0  0  0  0  0  0  0  0
   39.4810   25.5730   40.7050 H   0  0  0  0  0  0  0  0  0  0  0  0
   38.1210   27.3650   41.4190 H   0  0  0  0  0  0  0  0  0  0  0  0
   36.4660   29.5740   40.9520 C   0  0  1  0  0  0  0  0  0  0  0  0
   35.5330   29.3300   39.8390 C   0  0  0  0  0  0  0  0  0  0  0  0
   36.7250   28.4610   39.9870 C   0  0  2  0  0  0  0  0  0  0  0  0
   36.0740   29.3140   41.9460 H   0  0  0  0  0  0  0  0  0  0  0  0
   35.5590   30.0400   39.0050 H   0  0  0  0  0  0  0  0  0  0  0  0
   34.5220   28.9000   40.0270 H   0  0  0  0  0  0  0  0  0  0  0  0
   37.6230   28.6090   39.3470 H   0  0  0  0  0  0  0  0  0  0  0  0
   36.9430   31.9420   40.2070 C   0  0  0  0  0  0  0  0  0  0  0  0
   37.3480   30.7750   40.9000 C   0  0  0  0  0  0  0  0  0  0  0  0
   38.6000   30.7930   41.5330 C   0  0  0  0  0  0  0  0  0  0  0  0
   39.3460   31.9210   41.4480 N   0  0  0  0  0  0  0  0  0  0  0  0
   38.9260   33.0220   40.7750 C   0  0  0  0  0  0  0  0  0  0  0  0
   37.7160   33.0400   40.1480 N   0  0  0  0  0  0  0  0  0  0  0  0
   35.9840   31.9590   39.7100 H   0  0  0  0  0  0  0  0  0  0  0  0
   38.9180   29.9140   42.0610 H   0  0  0  0  0  0  0  0  0  0  0  0
   39.6210   33.8610   40.7820 H   0  0  0  0  0  0  0  0  0  0  0  0
   37.2660   25.6260   42.1560 C   0  0  0  0  0  0  0  0  0  0  0  0
   38.4240   25.2410   42.8510 F   0  0  0  0  0  0  0  0  0  0  0  0
   36.5880   26.3920   43.1290 F   0  0  0  0  0  0  0  0  0  0  0  0
   36.4240   24.5610   41.9440 F   0  0  0  0  0  0  0  0  0  0  0  0
  1  2  1  6  0  0  0
  1  6  1  0  0  0  0
  3  2  1  0  0  0  0
  3  4  1  0  0  0  0
  3 10  1  0  0  0  0
  4 12  1  0  0  0  0
  4  5  1  0  0  0  0
  5 14  1  0  0  0  0
  5  6  1  0  0  0  0
  6 15  1  1  0  0  0
  6 32  1  0  0  0  0
  7  2  1  0  0  0  0
  8  2  1  0  0  0  0
  9  3  1  0  0  0  0
 11  4  1  0  0  0  0
 13  5  1  0  0  0  0
 16 19  1  1  0  0  0
 17 18  1  0  0  0  0
 17 21  1  0  0  0  0
 17 16  1  0  0  0  0
 18 22  1  6  0  0  0
 18  1  1  0  0  0  0
 18 16  1  0  0  0  0
 20 17  1  0  0  0  0
 23 24  1  0  0  0  0
 24 16  1  0  0  0  0
 24 25  2  0  0  0  0
 25 30  1  0  0  0  0
 26 25  1  0  0  0  0
 27 31  1  0  0  0  0
 27 26  2  0  0  0  0
 28 23  2  0  0  0  0
 28 27  1  0  0  0  0
 29 23  1  0  0  0  0
 32 33  1  0  0  0  0
 32 34  1  0  0  0  0
 35 32  1  0  0  0  0
M  END
>  <minimizedAffinity>
-4.74620962

$$$$

 OpenBabel03252506443D

 35 37  0  0  1  0  0  0  0  0999 V2000
   37.2070   28.7430   40.5810 N   0  0  1  0  0  0  0  0  0  0  0  0
   36.7480   27.7480   39.6440 C   0  0  0  0  0  0  0  0  0  0  0  0
   36.7030   26.3540   40.1320 C   0  0  0  0  0  0  0  0  0  0  0  0
   38.0620   25.8880   40.5700 C   0  0  0  0  0  0  0  0  0  0  0  0
   38.9260   27.0070   41.0260 C   0  0  0  0  0  0  0  0  0  0  0  0
   38.0740   28.1220   41.5480 C   0  0  2  0  0  0  0  0  0  0  0  0
   37.3700   27.7650   38.7180 H   0  0  0  0  0  0  0  0  0  0  0  0
   35.7070   28.0690   39.3500 H   0  0  0  0  0  0  0  0  0  0  0  0
   36.5090   25.7350   39.1870 H   0  0  0  0  0  0  0  0  0  0  0  0
   35.8650   26.0660   40.7720 H   0  0  0  0  0  0  0  0  0  0  0  0
   38.6160   25.3000   39.8280 H   0  0  0  0  0  0  0  0  0  0  0  0
   37.8670   25.1670   41.4180 H   0  0  0  0  0  0  0  0  0  0  0  0
   39.5390   27.4170   40.1810 H   0  0  0  0  0  0  0  0  0  0  0  0
   39.6090   26.7180   41.8380 H   0  0  0  0  0  0  0  0  0  0  0  0
   38.8690   28.9550   41.6880 H   0  0  0  0  0  0  0  0  0  0  0  0
   37.5630   31.2210   39.9750 C   0  0  1  0  0  0  0  0  0  0  0  0
   37.0150   30.4830   38.8240 C   0  0  0  0  0  0  0  0  0  0  0  0
   37.8540   29.7630   39.8120 C   0  0  2  0  0  0  0  0  0  0  0  0
   36.8180   31.5170   40.7270 H   0  0  0  0  0  0  0  0  0  0  0  0
   37.4800   30.6700   37.8490 H   0  0  0  0  0  0  0  0  0  0  0  0
   35.9290   30.2490   38.7620 H   0  0  0  0  0  0  0  0  0  0  0  0
   38.9200   29.5300   39.5960 H   0  0  0  0  0  0  0  0  0  0  0  0
   39.5770   32.0180   38.6720 C   0  0  0  0  0  0  0  0  0  0  0  0
   38.6700   32.1930   39.7440 C   0  0  0  0  0  0  0  0  0  0  0  0
   38.8480   33.3110   40.5740 C   0  0  0  0  0  0  0  0  0  0  0  0
   39.8730   34.1550   40.3020 N   0  0  0  0  0  0  0  0  0  0  0  0
   40.7240   33.9560   39.2640 C   0  0  0  0  0  0  0  0  0  0  0  0
   40.5810   32.8800   38.4380 N   0  0  0  0  0  0  0  0  0  0  0  0
   39.4660   31.1670   38.0150 H   0  0  0  0  0  0  0  0  0  0  0  0
   38.1660   33.4540   41.3910 H   0  0  0  0  0  0  0  0  0  0  0  0
   41.5050   34.7080   39.1560 H   0  0  0  0  0  0  0  0  0  0  0  0
   37.5350   27.9580   42.9230 C   0  0  0  0  0  0  0  0  0  0  0  0
   38.2810   27.0310   43.6690 F   0  0  0  0  0  0  0  0  0  0  0  0
   37.7040   29.1380   43.6800 F   0  0  0  0  0  0  0  0  0  0  0  0
   36.1860   27.7120   43.0110 F   0  0  0  0  0  0  0  0  0  0  0  0
  1  2  1  6  0  0  0
  1  6  1  0  0  0  0
  2  3  1  0  0  0  0
  3  4  1  0  0  0  0
  3 10  1  0  0  0  0
  4  5  1  0  0  0  0
  4 12  1  0  0  0  0
  5  6  1  0  0  0  0
  5 14  1  0  0  0  0
  6 15  1  1  0  0  0
  6 32  1  0  0  0  0
  7  2  1  0  0  0  0
  8  2  1  0  0  0  0
  9  3  1  0  0  0  0
 11  4  1  0  0  0  0
 13  5  1  0  0  0  0
 16 19  1  1  0  0  0
 17 18  1  0  0  0  0
 17 16  1  0  0  0  0
 18 22  1  6  0  0  0
 18 16  1  0  0  0  0
 18  1  1  0  0  0  0
 20 17  1  0  0  0  0
 21 17  1  0  0  0  0
 23 24  1  0  0  0  0
 24 16  1  0  0  0  0
 24 25  2  0  0  0  0
 25 30  1  0  0  0  0
 26 25  1  0  0  0  0
 27 26  2  0  0  0  0
 28 23  2  0  0  0  0
 28 27  1  0  0  0  0
 29 23  1  0  0  0  0
 31 27  1  0  0  0  0
 32 35  1  0  0  0  0
 32 33  1  0  0  0  0
 32 34  1  0  0  0  0
M  END
>  <minimizedAffinity>
-4.73590422

$$$$
