
 OpenBabel03252509183D

 36 38  0  0  1  0  0  0  0  0999 V2000
   46.7620   30.9600   47.0090 C   0  0  1  0  0  0  0  0  0  0  0  0
   46.9940   32.0540   47.9950 C   0  0  0  0  0  0  0  0  0  0  0  0
   45.8820   32.2650   48.9760 C   0  0  0  0  0  0  0  0  0  0  0  0
   45.3280   30.9690   49.5180 C   0  0  0  0  0  0  0  0  0  0  0  0
   45.0950   29.9410   48.4440 C   0  0  0  0  0  0  0  0  0  0  0  0
   45.2670   30.5840   47.0600 C   0  0  2  0  0  0  0  0  0  0  0  0
   47.2750   30.0460   47.3650 H   0  0  0  0  0  0  0  0  0  0  0  0
   47.0900   33.0100   47.4030 H   0  0  0  0  0  0  0  0  0  0  0  0
   47.9880   31.9530   48.4980 H   0  0  0  0  0  0  0  0  0  0  0  0
   45.0710   32.8940   48.5610 H   0  0  0  0  0  0  0  0  0  0  0  0
   46.3030   32.8100   49.8570 H   0  0  0  0  0  0  0  0  0  0  0  0
   46.0370   30.5330   50.2690 H   0  0  0  0  0  0  0  0  0  0  0  0
   44.4080   31.2170   50.0830 H   0  0  0  0  0  0  0  0  0  0  0  0
   44.0550   29.5570   48.5350 H   0  0  0  0  0  0  0  0  0  0  0  0
   45.7920   29.1020   48.5080 H   0  0  0  0  0  0  0  0  0  0  0  0
   44.6130   31.4460   46.9270 H   0  0  0  0  0  0  0  0  0  0  0  0
   47.7390   32.5690   43.3730 C   0  0  0  0  0  0  0  0  0  0  0  0
   48.2500   31.2710   43.5330 C   0  0  0  0  0  0  0  0  0  0  0  0
   47.9860   30.6300   44.6950 C   0  0  0  0  0  0  0  0  0  0  0  0
   47.2240   31.2660   45.6950 C   0  0  0  0  0  0  0  0  0  0  0  0
   46.8530   32.8800   44.9380 S   0  0  0  0  0  0  0  0  0  0  0  0
   48.8360   30.7790   42.7720 H   0  0  0  0  0  0  0  0  0  0  0  0
   48.2840   29.6420   45.0050 H   0  0  0  0  0  0  0  0  0  0  0  0
   47.8380   33.9390   39.9150 C   0  0  0  0  0  0  0  0  0  0  0  0
   48.4700   35.1830   40.1690 C   0  0  0  0  0  0  0  0  0  0  0  0
   48.8310   35.4960   41.5050 C   0  0  0  0  0  0  0  0  0  0  0  0
   48.5390   34.5600   42.4540 N   0  0  0  0  0  0  0  0  0  0  0  0
   47.9380   33.3890   42.1730 C   0  0  0  0  0  0  0  0  0  0  0  0
   47.5950   33.0930   40.9060 N   0  0  0  0  0  0  0  0  0  0  0  0
   47.5500   33.6710   38.9050 H   0  0  0  0  0  0  0  0  0  0  0  0
   48.6730   35.8760   39.3790 H   0  0  0  0  0  0  0  0  0  0  0  0
   49.3150   36.4320   41.7530 H   0  0  0  0  0  0  0  0  0  0  0  0
   44.9830   29.4790   46.0550 C   0  0  0  0  0  0  0  0  0  0  0  0
   43.8240   28.7990   46.3740 F   0  0  0  0  0  0  0  0  0  0  0  0
   44.9190   30.0170   44.7900 F   0  0  0  0  0  0  0  0  0  0  0  0
   46.0320   28.6020   46.1050 F   0  0  0  0  0  0  0  0  0  0  0  0
  1  6  1  0  0  0  0
  1  7  1  1  0  0  0
  1  2  1  0  0  0  0
  2  9  1  0  0  0  0
  2  3  1  0  0  0  0
  3  4  1  0  0  0  0
  3 11  1  0  0  0  0
  4 13  1  0  0  0  0
  4 12  1  0  0  0  0
  5 15  1  0  0  0  0
  5 14  1  0  0  0  0
  5  4  1  0  0  0  0
  6 16  1  6  0  0  0
  6  5  1  0  0  0  0
  8  2  1  0  0  0  0
 10  3  1  0  0  0  0
 17 18  2  0  0  0  0
 17 21  1  0  0  0  0
 18 19  1  0  0  0  0
 19 23  1  0  0  0  0
 19 20  2  0  0  0  0
 20  1  1  0  0  0  0
 21 20  1  0  0  0  0
 22 18  1  0  0  0  0
 24 25  2  0  0  0  0
 24 29  1  0  0  0  0
 25 26  1  0  0  0  0
 26 32  1  0  0  0  0
 26 27  2  0  0  0  0
 28 27  1  0  0  0  0
 28 17  1  0  0  0  0
 29 28  2  0  0  0  0
 30 24  1  0  0  0  0
 31 25  1  0  0  0  0
 33 36  1  0  0  0  0
 33 34  1  0  0  0  0
 33  6  1  0  0  0  0
 35 33  1  0  0  0  0
M  END
>  <minimizedAffinity>
-5.24160337

>  <minimizedRMSD>
4.99747467

$$$$
