
 OpenBabel03242517443D

 24 25  0  0  0  0  0  0  0  0999 V2000
   41.6940   33.7330   40.8700 C   0  0  0  0  0  0  0  0  0  0  0  0
   42.0520   32.5340   41.4680 C   0  0  0  0  0  0  0  0  0  0  0  0
   41.0690   31.6700   41.8830 C   0  0  0  0  0  0  0  0  0  0  0  0
   39.7250   31.9640   41.7210 C   0  0  0  0  0  0  0  0  0  0  0  0
   39.3750   33.1500   41.1290 C   0  0  0  0  0  0  0  0  0  0  0  0
   40.3450   34.0390   40.7020 C   0  0  0  0  0  0  0  0  0  0  0  0
   43.1140   32.3740   41.5610 H   0  0  0  0  0  0  0  0  0  0  0  0
   41.3670   30.7370   42.3480 H   0  0  0  0  0  0  0  0  0  0  0  0
   38.9870   31.2420   42.0690 H   0  0  0  0  0  0  0  0  0  0  0  0
   38.3170   33.3500   41.0180 H   0  0  0  0  0  0  0  0  0  0  0  0
   39.8630   35.3100   40.0670 C   0  0  0  0  0  0  0  0  0  0  0  0
   40.0800   36.4070   40.8720 F   0  0  0  0  0  0  0  0  0  0  0  0
   40.5130   35.4410   38.8430 F   0  0  0  0  0  0  0  0  0  0  0  0
   38.5130   35.1240   39.8310 F   0  0  0  0  0  0  0  0  0  0  0  0
   42.8070   34.9920   40.2620 S   0  0  0  0  0  0  0  0  0  0  0  0
   44.3940   35.6770   42.4250 C   0  0  0  0  0  0  0  0  0  0  0  0
   44.3020   34.9520   41.2190 C   0  0  0  0  0  0  0  0  0  0  0  0
   45.4150   34.2290   40.8370 C   0  0  0  0  0  0  0  0  0  0  0  0
   46.5280   34.2450   41.6210 N   0  0  0  0  0  0  0  0  0  0  0  0
   46.5630   34.9520   42.7600 C   0  0  0  0  0  0  0  0  0  0  0  0
   45.5190   35.6700   43.1810 N   0  0  0  0  0  0  0  0  0  0  0  0
   43.5210   36.2610   42.7500 H   0  0  0  0  0  0  0  0  0  0  0  0
   45.3210   33.6780   39.9020 H   0  0  0  0  0  0  0  0  0  0  0  0
   47.5020   34.8730   43.2750 H   0  0  0  0  0  0  0  0  0  0  0  0
  1  2  1  0  0  0  0
  2  7  1  0  0  0  0
  2  3  2  0  0  0  0
  3  8  1  0  0  0  0
  4  3  1  0  0  0  0
  4  9  1  0  0  0  0
  5  4  2  0  0  0  0
  6  1  2  0  0  0  0
  6  5  1  0  0  0  0
 10  5  1  0  0  0  0
 11  6  1  0  0  0  0
 11 12  1  0  0  0  0
 13 11  1  0  0  0  0
 14 11  1  0  0  0  0
 15  1  1  0  0  0  0
 15 17  1  0  0  0  0
 16 22  1  0  0  0  0
 16 21  1  0  0  0  0
 17 16  2  0  0  0  0
 18 17  1  0  0  0  0
 18 19  2  0  0  0  0
 19 20  1  0  0  0  0
 20 21  2  0  0  0  0
 20 24  1  0  0  0  0
 23 18  1  0  0  0  0
M  END
>  <minimizedAffinity>
-5.09679079

>  <minimizedRMSD>
2.36545801

$$$$
