
 OpenBabel03252508383D

 36 38  0  0  0  0  0  0  0  0999 V2000
   45.1360   33.9490   40.7060 C   0  0  0  0  0  0  0  0  0  0  0  0
   44.0880   33.6370   39.8830 C   0  0  0  0  0  0  0  0  0  0  0  0
   44.3950   33.1390   38.6500 C   0  0  0  0  0  0  0  0  0  0  0  0
   45.6690   32.9380   38.1940 C   0  0  0  0  0  0  0  0  0  0  0  0
   46.7050   33.2600   39.0410 C   0  0  0  0  0  0  0  0  0  0  0  0
   46.4620   33.7690   40.3060 C   0  0  0  0  0  0  0  0  0  0  0  0
   43.5750   32.8870   37.9880 H   0  0  0  0  0  0  0  0  0  0  0  0
   45.8690   32.5420   37.2130 H   0  0  0  0  0  0  0  0  0  0  0  0
   47.7190   33.1070   38.6980 H   0  0  0  0  0  0  0  0  0  0  0  0
   40.8060   35.2580   40.8000 C   0  0  0  0  0  0  0  0  0  0  0  0
   42.1080   35.0970   40.2740 C   0  0  0  0  0  0  0  0  0  0  0  0
   42.7540   33.8620   40.4010 C   0  0  0  0  0  0  0  0  0  0  0  0
   42.0450   32.8900   41.0420 N   0  0  0  0  0  0  0  0  0  0  0  0
   40.8190   33.0680   41.5290 C   0  0  0  0  0  0  0  0  0  0  0  0
   40.2020   34.2410   41.4100 N   0  0  0  0  0  0  0  0  0  0  0  0
   40.2140   36.5410   40.6340 N   0  0  0  0  0  0  0  0  0  0  0  0
   42.6490   35.8810   39.7710 H   0  0  0  0  0  0  0  0  0  0  0  0
   40.3480   32.2230   42.0200 H   0  0  0  0  0  0  0  0  0  0  0  0
   40.8290   37.3750   40.7890 H   0  0  0  0  0  0  0  0  0  0  0  0
   39.2000   36.5060   40.3670 H   0  0  0  0  0  0  0  0  0  0  0  0
   47.6160   34.0800   41.1220 C   0  0  0  0  0  0  0  0  0  0  0  0
   48.1270   35.3560   40.9560 C   0  0  0  0  0  0  0  0  0  0  0  0
   49.2310   35.8490   41.6500 C   0  0  0  0  0  0  0  0  0  0  0  0
   49.8360   35.0000   42.5520 C   0  0  0  0  0  0  0  0  0  0  0  0
   49.3410   33.7260   42.7310 C   0  0  0  0  0  0  0  0  0  0  0  0
   48.2330   33.2550   42.0240 C   0  0  0  0  0  0  0  0  0  0  0  0
   47.6870   36.0770   40.2520 H   0  0  0  0  0  0  0  0  0  0  0  0
   49.5940   36.8510   41.4870 H   0  0  0  0  0  0  0  0  0  0  0  0
   50.6910   35.2940   43.1300 H   0  0  0  0  0  0  0  0  0  0  0  0
   49.7790   33.0100   43.4310 H   0  0  0  0  0  0  0  0  0  0  0  0
   47.7070   31.8800   42.2030 C   0  0  0  0  0  0  0  0  0  0  0  0
   48.5320   31.1820   43.0560 F   0  0  0  0  0  0  0  0  0  0  0  0
   47.4300   31.2420   41.0280 F   0  0  0  0  0  0  0  0  0  0  0  0
   46.4920   32.0050   42.8870 F   0  0  0  0  0  0  0  0  0  0  0  0
   44.7350   34.9030   43.1100 N   0  0  0  0  0  0  0  0  0  0  0  0
   44.9120   34.4870   42.0310 C   0  0  0  0  0  0  0  0  0  0  0  0
  1 36  1  0  0  0  0
  2 12  1  0  0  0  0
  2  1  2  0  0  0  0
  3  2  1  0  0  0  0
  4  3  2  0  0  0  0
  4  5  1  0  0  0  0
  5  6  2  0  0  0  0
  6  1  1  0  0  0  0
  6 21  1  0  0  0  0
  7  3  1  0  0  0  0
  8  4  1  0  0  0  0
  9  5  1  0  0  0  0
 10 15  1  0  0  0  0
 11 12  1  0  0  0  0
 11 10  2  0  0  0  0
 12 13  2  0  0  0  0
 13 14  1  0  0  0  0
 14 18  1  0  0  0  0
 15 14  2  0  0  0  0
 16 19  1  0  0  0  0
 16 10  1  0  0  0  0
 17 11  1  0  0  0  0
 20 16  1  0  0  0  0
 21 26  1  0  0  0  0
 22 21  2  0  0  0  0
 22 23  1  0  0  0  0
 23 24  2  0  0  0  0
 24 25  1  0  0  0  0
 24 29  1  0  0  0  0
 25 30  1  0  0  0  0
 26 31  1  0  0  0  0
 26 25  2  0  0  0  0
 27 22  1  0  0  0  0
 28 23  1  0  0  0  0
 31 34  1  0  0  0  0
 31 32  1  0  0  0  0
 33 31  1  0  0  0  0
 36 35  3  0  0  0  0
M  END
>  <minimizedAffinity>
-5.97451544

>  <minimizedRMSD>
0.0508867428

$$$$
