
 OpenBabel03252509203D

 20 21  0  0  0  0  0  0  0  0999 V2000
   45.4090   34.0110   44.7280 C   0  0  0  0  0  0  0  0  0  0  0  0
   45.7420   34.8490   43.6130 C   0  0  0  0  0  0  0  0  0  0  0  0
   46.9290   34.5080   42.9960 C   0  0  0  0  0  0  0  0  0  0  0  0
   47.7110   33.4510   43.4280 N   0  0  0  0  0  0  0  0  0  0  0  0
   47.3370   32.6960   44.4900 C   0  0  0  0  0  0  0  0  0  0  0  0
   46.1920   32.9870   45.1250 N   0  0  0  0  0  0  0  0  0  0  0  0
   44.5190   34.1730   45.2880 H   0  0  0  0  0  0  0  0  0  0  0  0
   48.0870   31.9360   44.6460 H   0  0  0  0  0  0  0  0  0  0  0  0
   47.3030   35.2690   41.7530 C   0  0  0  0  0  0  0  0  0  0  0  0
   48.8080   35.5790   41.7330 C   0  0  0  0  0  0  0  0  0  0  0  0
   48.0890   34.6060   40.7540 C   0  0  0  0  0  0  0  0  0  0  0  0
   46.7300   36.1940   41.6120 H   0  0  0  0  0  0  0  0  0  0  0  0
   49.4050   35.1400   42.5350 H   0  0  0  0  0  0  0  0  0  0  0  0
   49.1700   36.5140   41.3020 H   0  0  0  0  0  0  0  0  0  0  0  0
   48.1000   34.9490   39.6760 H   0  0  0  0  0  0  0  0  0  0  0  0
   48.4800   33.5580   40.8620 H   0  0  0  0  0  0  0  0  0  0  0  0
   44.8310   35.9280   43.2480 C   0  0  0  0  0  0  0  0  0  0  0  0
   44.2810   35.7170   41.9990 F   0  0  0  0  0  0  0  0  0  0  0  0
   45.4270   37.1660   43.3440 F   0  0  0  0  0  0  0  0  0  0  0  0
   43.7690   35.9430   44.1330 F   0  0  0  0  0  0  0  0  0  0  0  0
  1  6  1  0  0  0  0
  1  7  1  0  0  0  0
  2  1  2  0  0  0  0
  3  4  2  0  0  0  0
  3  2  1  0  0  0  0
  4  5  1  0  0  0  0
  5  8  1  0  0  0  0
  5  6  2  0  0  0  0
  9  3  1  0  0  0  0
 10  9  1  0  0  0  0
 10 13  1  0  0  0  0
 11 16  1  0  0  0  0
 11 10  1  0  0  0  0
 11  9  1  0  0  0  0
 12  9  1  0  0  0  0
 14 10  1  0  0  0  0
 15 11  1  0  0  0  0
 17 19  1  0  0  0  0
 17  2  1  0  0  0  0
 17 20  1  0  0  0  0
 18 17  1  0  0  0  0
M  END
>  <minimizedAffinity>
-4.58015871

>  <minimizedRMSD>
1.65780699

$$$$
