
 OpenBabel03252502543D

 26 27  0  0  0  0  0  0  0  0999 V2000
   39.1130   26.9840   39.6750 Br  0  0  0  0  0  0  0  0  0  0  0  0
   38.3550   27.5950   41.3330 C   0  0  0  0  0  0  0  0  0  0  0  0
   38.7010   28.8740   41.7280 C   0  0  0  0  0  0  0  0  0  0  0  0
   38.1280   29.2690   42.9330 C   0  0  0  0  0  0  0  0  0  0  0  0
   37.2930   28.4800   43.6790 C   0  0  0  0  0  0  0  0  0  0  0  0
   36.9950   27.2290   43.2300 C   0  0  0  0  0  0  0  0  0  0  0  0
   37.5200   26.7480   42.0370 C   0  0  0  0  0  0  0  0  0  0  0  0
   38.3640   30.2710   43.2980 H   0  0  0  0  0  0  0  0  0  0  0  0
   36.8990   28.8910   44.6110 H   0  0  0  0  0  0  0  0  0  0  0  0
   36.3420   26.5840   43.7930 H   0  0  0  0  0  0  0  0  0  0  0  0
   37.2190   25.3820   41.5080 C   0  0  0  0  0  0  0  0  0  0  0  0
   36.4700   24.7420   42.5060 F   0  0  0  0  0  0  0  0  0  0  0  0
   38.4090   24.6660   41.4610 F   0  0  0  0  0  0  0  0  0  0  0  0
   36.5860   25.4100   40.3020 F   0  0  0  0  0  0  0  0  0  0  0  0
   39.5840   29.8010   41.0070 C   0  0  0  0  0  0  0  0  0  0  0  0
   39.8980   29.2730   40.0670 H   0  0  0  0  0  0  0  0  0  0  0  0
   40.4540   30.0820   41.6230 H   0  0  0  0  0  0  0  0  0  0  0  0
   38.4840   33.3330   40.5090 C   0  0  0  0  0  0  0  0  0  0  0  0
   37.4300   33.1800   39.5960 C   0  0  0  0  0  0  0  0  0  0  0  0
   37.1250   31.8960   39.1800 C   0  0  0  0  0  0  0  0  0  0  0  0
   37.8380   30.8460   39.6560 N   0  0  0  0  0  0  0  0  0  0  0  0
   38.8700   31.0360   40.5540 C   0  0  0  0  0  0  0  0  0  0  0  0
   39.1560   32.2810   40.9500 N   0  0  0  0  0  0  0  0  0  0  0  0
   38.7640   34.2960   40.8660 H   0  0  0  0  0  0  0  0  0  0  0  0
   36.9190   34.0850   39.2750 H   0  0  0  0  0  0  0  0  0  0  0  0
   36.3180   31.7790   38.4820 H   0  0  0  0  0  0  0  0  0  0  0  0
  1  2  1  0  0  0  0
  2  3  2  0  0  0  0
  2  7  1  0  0  0  0
  3  4  1  0  0  0  0
  4  8  1  0  0  0  0
  4  5  2  0  0  0  0
  5  9  1  0  0  0  0
  6  5  1  0  0  0  0
  6 10  1  0  0  0  0
  7  6  2  0  0  0  0
 11  7  1  0  0  0  0
 11 12  1  0  0  0  0
 13 11  1  0  0  0  0
 14 11  1  0  0  0  0
 15 17  1  0  0  0  0
 15  3  1  0  0  0  0
 16 15  1  0  0  0  0
 18 24  1  0  0  0  0
 18 23  1  0  0  0  0
 19 18  2  0  0  0  0
 20 19  1  0  0  0  0
 20 21  2  0  0  0  0
 21 22  1  0  0  0  0
 22 23  2  0  0  0  0
 22 15  1  0  0  0  0
 25 19  1  0  0  0  0
 26 20  1  0  0  0  0
M  END
>  <minimizedAffinity>
-5.13930178

$$$$

 OpenBabel03252502543D

 26 27  0  0  0  0  0  0  0  0999 V2000
   36.5860   26.1310   39.5920 Br  0  0  0  0  0  0  0  0  0  0  0  0
   37.1780   26.8450   41.2760 C   0  0  0  0  0  0  0  0  0  0  0  0
   36.6250   28.0540   41.6550 C   0  0  0  0  0  0  0  0  0  0  0  0
   37.0860   28.5280   42.8800 C   0  0  0  0  0  0  0  0  0  0  0  0
   38.0040   27.8750   43.6580 C   0  0  0  0  0  0  0  0  0  0  0  0
   38.5090   26.6860   43.2230 C   0  0  0  0  0  0  0  0  0  0  0  0
   38.1080   26.1340   42.0130 C   0  0  0  0  0  0  0  0  0  0  0  0
   36.6850   29.4800   43.2340 H   0  0  0  0  0  0  0  0  0  0  0  0
   38.2950   28.3380   44.6030 H   0  0  0  0  0  0  0  0  0  0  0  0
   39.2320   26.1480   43.8110 H   0  0  0  0  0  0  0  0  0  0  0  0
   38.6360   24.8330   41.4970 C   0  0  0  0  0  0  0  0  0  0  0  0
   37.5520   23.9440   41.5200 F   0  0  0  0  0  0  0  0  0  0  0  0
   39.5180   24.3230   42.4420 F   0  0  0  0  0  0  0  0  0  0  0  0
   39.2080   24.9460   40.2660 F   0  0  0  0  0  0  0  0  0  0  0  0
   35.6370   28.8360   40.9000 C   0  0  0  0  0  0  0  0  0  0  0  0
   34.9290   29.2670   41.6570 H   0  0  0  0  0  0  0  0  0  0  0  0
   35.1110   28.2080   40.1640 H   0  0  0  0  0  0  0  0  0  0  0  0
   37.0730   32.1910   40.1140 C   0  0  0  0  0  0  0  0  0  0  0  0
   37.3750   32.0620   38.7500 C   0  0  0  0  0  0  0  0  0  0  0  0
   37.0850   30.8540   38.1420 C   0  0  0  0  0  0  0  0  0  0  0  0
   36.5300   29.8510   38.8650 N   0  0  0  0  0  0  0  0  0  0  0  0
   36.2480   30.0140   40.2080 C   0  0  0  0  0  0  0  0  0  0  0  0
   36.5320   31.1870   40.7850 N   0  0  0  0  0  0  0  0  0  0  0  0
   37.2730   33.0970   40.6360 H   0  0  0  0  0  0  0  0  0  0  0  0
   37.8170   32.9260   38.2580 H   0  0  0  0  0  0  0  0  0  0  0  0
   37.3150   30.7560   37.0980 H   0  0  0  0  0  0  0  0  0  0  0  0
  1  2  1  0  0  0  0
  2  3  2  0  0  0  0
  2  7  1  0  0  0  0
  3  4  1  0  0  0  0
  4  8  1  0  0  0  0
  4  5  2  0  0  0  0
  5  9  1  0  0  0  0
  6  5  1  0  0  0  0
  6 10  1  0  0  0  0
  7  6  2  0  0  0  0
 11 12  1  0  0  0  0
 11  7  1  0  0  0  0
 11 13  1  0  0  0  0
 14 11  1  0  0  0  0
 15  3  1  0  0  0  0
 15 16  1  0  0  0  0
 17 15  1  0  0  0  0
 18 24  1  0  0  0  0
 18 23  1  0  0  0  0
 19 18  2  0  0  0  0
 20 19  1  0  0  0  0
 20 21  2  0  0  0  0
 21 22  1  0  0  0  0
 22 23  2  0  0  0  0
 22 15  1  0  0  0  0
 25 19  1  0  0  0  0
 26 20  1  0  0  0  0
M  END
>  <minimizedAffinity>
-5.12015057

$$$$

 OpenBabel03252502543D

 26 27  0  0  0  0  0  0  0  0999 V2000
   36.9340   27.6740   43.3810 Br  0  0  0  0  0  0  0  0  0  0  0  0
   36.8020   27.3910   41.4840 C   0  0  0  0  0  0  0  0  0  0  0  0
   36.4170   28.4830   40.7290 C   0  0  0  0  0  0  0  0  0  0  0  0
   36.3360   28.2270   39.3640 C   0  0  0  0  0  0  0  0  0  0  0  0
   36.6070   27.0110   38.7940 C   0  0  0  0  0  0  0  0  0  0  0  0
   36.9810   25.9770   39.5990 C   0  0  0  0  0  0  0  0  0  0  0  0
   37.0900   26.1380   40.9750 C   0  0  0  0  0  0  0  0  0  0  0  0
   36.0370   29.0520   38.7140 H   0  0  0  0  0  0  0  0  0  0  0  0
   36.5120   26.9220   37.7110 H   0  0  0  0  0  0  0  0  0  0  0  0
   37.2010   25.0090   39.1830 H   0  0  0  0  0  0  0  0  0  0  0  0
   37.4960   25.0300   41.8940 C   0  0  0  0  0  0  0  0  0  0  0  0
   37.7240   23.9160   41.0730 F   0  0  0  0  0  0  0  0  0  0  0  0
   36.3890   24.6740   42.6540 F   0  0  0  0  0  0  0  0  0  0  0  0
   38.5710   25.3520   42.6660 F   0  0  0  0  0  0  0  0  0  0  0  0
   36.1040   29.8260   41.2350 C   0  0  0  0  0  0  0  0  0  0  0  0
   35.9470   29.7200   42.3410 H   0  0  0  0  0  0  0  0  0  0  0  0
   35.2120   30.2410   40.7380 H   0  0  0  0  0  0  0  0  0  0  0  0
   39.4500   31.4740   41.4060 C   0  0  0  0  0  0  0  0  0  0  0  0
   39.2240   32.6570   40.6880 C   0  0  0  0  0  0  0  0  0  0  0  0
   37.9560   32.8620   40.1710 C   0  0  0  0  0  0  0  0  0  0  0  0
   36.9900   31.9320   40.3700 N   0  0  0  0  0  0  0  0  0  0  0  0
   37.2490   30.7770   41.0820 C   0  0  0  0  0  0  0  0  0  0  0  0
   38.4780   30.5910   41.5770 N   0  0  0  0  0  0  0  0  0  0  0  0
   40.4030   31.2620   41.8270 H   0  0  0  0  0  0  0  0  0  0  0  0
   40.0640   33.3410   40.5850 H   0  0  0  0  0  0  0  0  0  0  0  0
   37.7840   33.7680   39.6220 H   0  0  0  0  0  0  0  0  0  0  0  0
  2  1  1  0  0  0  0
  3 15  1  0  0  0  0
  3  2  2  0  0  0  0
  4  3  1  0  0  0  0
  5  4  2  0  0  0  0
  5  6  1  0  0  0  0
  6  7  2  0  0  0  0
  7  2  1  0  0  0  0
  7 11  1  0  0  0  0
  8  4  1  0  0  0  0
  9  5  1  0  0  0  0
 10  6  1  0  0  0  0
 11 13  1  0  0  0  0
 11 14  1  0  0  0  0
 12 11  1  0  0  0  0
 15 16  1  0  0  0  0
 17 15  1  0  0  0  0
 18 23  1  0  0  0  0
 18 24  1  0  0  0  0
 19 18  2  0  0  0  0
 20 21  2  0  0  0  0
 20 19  1  0  0  0  0
 21 22  1  0  0  0  0
 22 15  1  0  0  0  0
 22 23  2  0  0  0  0
 25 19  1  0  0  0  0
 26 20  1  0  0  0  0
M  END
>  <minimizedAffinity>
-4.99731922

$$$$

 OpenBabel03252502543D

 26 27  0  0  0  0  0  0  0  0999 V2000
   36.0280   29.5600   40.7280 Br  0  0  0  0  0  0  0  0  0  0  0  0
   37.7380   30.2170   41.3150 C   0  0  0  0  0  0  0  0  0  0  0  0
   38.2300   29.6740   42.4880 C   0  0  0  0  0  0  0  0  0  0  0  0
   39.4680   30.1810   42.8700 C   0  0  0  0  0  0  0  0  0  0  0  0
   40.1570   31.1330   42.1660 C   0  0  0  0  0  0  0  0  0  0  0  0
   39.6120   31.6250   41.0180 C   0  0  0  0  0  0  0  0  0  0  0  0
   38.3800   31.1780   40.5570 C   0  0  0  0  0  0  0  0  0  0  0  0
   39.9100   29.7910   43.7890 H   0  0  0  0  0  0  0  0  0  0  0  0
   41.1220   31.4600   42.5570 H   0  0  0  0  0  0  0  0  0  0  0  0
   40.1280   32.3730   40.4410 H   0  0  0  0  0  0  0  0  0  0  0  0
   37.7460   31.6910   39.3030 C   0  0  0  0  0  0  0  0  0  0  0  0
   37.6540   30.5880   38.4420 F   0  0  0  0  0  0  0  0  0  0  0  0
   38.6520   32.5390   38.6790 F   0  0  0  0  0  0  0  0  0  0  0  0
   36.5440   32.2930   39.5270 F   0  0  0  0  0  0  0  0  0  0  0  0
   37.5770   28.6540   43.3190 C   0  0  0  0  0  0  0  0  0  0  0  0
   36.5210   28.5720   42.9480 H   0  0  0  0  0  0  0  0  0  0  0  0
   37.6110   28.9270   44.3860 H   0  0  0  0  0  0  0  0  0  0  0  0
   39.7930   25.6530   43.4720 C   0  0  0  0  0  0  0  0  0  0  0  0
   39.1020   24.7440   42.6560 C   0  0  0  0  0  0  0  0  0  0  0  0
   37.9170   25.1700   42.0820 C   0  0  0  0  0  0  0  0  0  0  0  0
   37.4670   26.4270   42.3200 N   0  0  0  0  0  0  0  0  0  0  0  0
   38.1740   27.2940   43.1300 C   0  0  0  0  0  0  0  0  0  0  0  0
   39.3180   26.8710   43.6790 N   0  0  0  0  0  0  0  0  0  0  0  0
   40.7090   25.3820   43.9400 H   0  0  0  0  0  0  0  0  0  0  0  0
   39.5470   23.7600   42.5260 H   0  0  0  0  0  0  0  0  0  0  0  0
   37.3900   24.4750   41.4570 H   0  0  0  0  0  0  0  0  0  0  0  0
  1  2  1  0  0  0  0
  2  3  1  0  0  0  0
  3  4  2  0  0  0  0
  3 15  1  0  0  0  0
  4  8  1  0  0  0  0
  5  9  1  0  0  0  0
  5  4  1  0  0  0  0
  6  5  2  0  0  0  0
  7  6  1  0  0  0  0
  7  2  2  0  0  0  0
 10  6  1  0  0  0  0
 11 14  1  0  0  0  0
 11  7  1  0  0  0  0
 12 11  1  0  0  0  0
 13 11  1  0  0  0  0
 15 17  1  0  0  0  0
 16 15  1  0  0  0  0
 18 23  1  0  0  0  0
 18 24  1  0  0  0  0
 19 18  2  0  0  0  0
 20 21  2  0  0  0  0
 20 19  1  0  0  0  0
 21 22  1  0  0  0  0
 22 15  1  0  0  0  0
 22 23  2  0  0  0  0
 25 19  1  0  0  0  0
 26 20  1  0  0  0  0
M  END
>  <minimizedAffinity>
-4.88685846

$$$$

 OpenBabel03252502543D

 26 27  0  0  0  0  0  0  0  0999 V2000
   36.3910   27.4480   38.4620 Br  0  0  0  0  0  0  0  0  0  0  0  0
   36.6030   29.1550   39.3220 C   0  0  0  0  0  0  0  0  0  0  0  0
   36.4780   29.1650   40.6980 C   0  0  0  0  0  0  0  0  0  0  0  0
   36.6390   30.4220   41.2730 C   0  0  0  0  0  0  0  0  0  0  0  0
   36.8980   31.5630   40.5590 C   0  0  0  0  0  0  0  0  0  0  0  0
   37.0070   31.4800   39.2040 C   0  0  0  0  0  0  0  0  0  0  0  0
   36.8620   30.2670   38.5420 C   0  0  0  0  0  0  0  0  0  0  0  0
   36.5520   30.4940   42.3590 H   0  0  0  0  0  0  0  0  0  0  0  0
   37.0060   32.4980   41.1120 H   0  0  0  0  0  0  0  0  0  0  0  0
   37.2110   32.3570   38.6140 H   0  0  0  0  0  0  0  0  0  0  0  0
   36.9750   30.1320   37.0570 C   0  0  0  0  0  0  0  0  0  0  0  0
   38.0970   29.3220   36.8300 F   0  0  0  0  0  0  0  0  0  0  0  0
   37.3350   31.3700   36.5390 F   0  0  0  0  0  0  0  0  0  0  0  0
   35.8400   29.6430   36.4840 F   0  0  0  0  0  0  0  0  0  0  0  0
   36.2030   28.0060   41.5580 C   0  0  0  0  0  0  0  0  0  0  0  0
   35.7670   27.2140   40.8920 H   0  0  0  0  0  0  0  0  0  0  0  0
   35.5130   28.2710   42.3750 H   0  0  0  0  0  0  0  0  0  0  0  0
   39.1840   27.2660   43.6790 C   0  0  0  0  0  0  0  0  0  0  0  0
   39.7400   26.1610   43.0180 C   0  0  0  0  0  0  0  0  0  0  0  0
   39.0950   25.7020   41.8830 C   0  0  0  0  0  0  0  0  0  0  0  0
   37.9690   26.3210   41.4510 N   0  0  0  0  0  0  0  0  0  0  0  0
   37.4500   27.4070   42.1290 C   0  0  0  0  0  0  0  0  0  0  0  0
   38.0820   27.8420   43.2250 N   0  0  0  0  0  0  0  0  0  0  0  0
   39.6360   27.6630   44.5560 H   0  0  0  0  0  0  0  0  0  0  0  0
   40.6470   25.7360   43.4420 H   0  0  0  0  0  0  0  0  0  0  0  0
   39.5210   24.8570   41.3770 H   0  0  0  0  0  0  0  0  0  0  0  0
  1  2  1  0  0  0  0
  2  3  1  0  0  0  0
  3  4  2  0  0  0  0
  3 15  1  0  0  0  0
  4  8  1  0  0  0  0
  5  9  1  0  0  0  0
  5  4  1  0  0  0  0
  6  5  2  0  0  0  0
  7  6  1  0  0  0  0
  7  2  2  0  0  0  0
 10  6  1  0  0  0  0
 11  7  1  0  0  0  0
 12 11  1  0  0  0  0
 13 11  1  0  0  0  0
 14 11  1  0  0  0  0
 15 22  1  0  0  0  0
 15 17  1  0  0  0  0
 16 15  1  0  0  0  0
 18 24  1  0  0  0  0
 19 25  1  0  0  0  0
 19 18  2  0  0  0  0
 20 19  1  0  0  0  0
 21 20  2  0  0  0  0
 21 22  1  0  0  0  0
 22 23  2  0  0  0  0
 23 18  1  0  0  0  0
 26 20  1  0  0  0  0
M  END
>  <minimizedAffinity>
-4.63356304

$$$$

 OpenBabel03252502543D

 26 27  0  0  0  0  0  0  0  0999 V2000
   36.1770   26.8040   38.5560 Br  0  0  0  0  0  0  0  0  0  0  0  0
   36.5620   26.9600   40.4340 C   0  0  0  0  0  0  0  0  0  0  0  0
   36.3740   28.2100   40.9940 C   0  0  0  0  0  0  0  0  0  0  0  0
   36.6660   28.2710   42.3540 C   0  0  0  0  0  0  0  0  0  0  0  0
   37.1020   27.2020   43.0920 C   0  0  0  0  0  0  0  0  0  0  0  0
   37.2660   25.9990   42.4750 C   0  0  0  0  0  0  0  0  0  0  0  0
   36.9990   25.8420   41.1200 C   0  0  0  0  0  0  0  0  0  0  0  0
   36.5360   29.2320   42.8540 H   0  0  0  0  0  0  0  0  0  0  0  0
   37.3010   27.3620   44.1530 H   0  0  0  0  0  0  0  0  0  0  0  0
   37.6070   25.1400   43.0270 H   0  0  0  0  0  0  0  0  0  0  0  0
   37.1650   24.5400   40.4040 C   0  0  0  0  0  0  0  0  0  0  0  0
   37.6680   23.6410   41.3550 F   0  0  0  0  0  0  0  0  0  0  0  0
   38.2000   24.6830   39.4870 F   0  0  0  0  0  0  0  0  0  0  0  0
   36.0130   24.1080   39.8190 F   0  0  0  0  0  0  0  0  0  0  0  0
   35.9120   29.4180   40.2980 C   0  0  0  0  0  0  0  0  0  0  0  0
   35.2250   29.9500   41.0080 H   0  0  0  0  0  0  0  0  0  0  0  0
   35.4000   29.1620   39.3550 H   0  0  0  0  0  0  0  0  0  0  0  0
   39.1200   30.9730   39.1910 C   0  0  0  0  0  0  0  0  0  0  0  0
   38.9510   32.3040   39.6030 C   0  0  0  0  0  0  0  0  0  0  0  0
   37.7660   32.6320   40.2390 C   0  0  0  0  0  0  0  0  0  0  0  0
   36.8230   31.6800   40.4400 N   0  0  0  0  0  0  0  0  0  0  0  0
   37.0240   30.3790   40.0200 C   0  0  0  0  0  0  0  0  0  0  0  0
   38.1740   30.0730   39.4070 N   0  0  0  0  0  0  0  0  0  0  0  0
   40.0090   30.6620   38.6990 H   0  0  0  0  0  0  0  0  0  0  0  0
   39.7670   32.9930   39.3960 H   0  0  0  0  0  0  0  0  0  0  0  0
   37.6380   33.6500   40.5540 H   0  0  0  0  0  0  0  0  0  0  0  0
  1  2  1  0  0  0  0
  2  3  2  0  0  0  0
  2  7  1  0  0  0  0
  3  4  1  0  0  0  0
  4  8  1  0  0  0  0
  4  5  2  0  0  0  0
  5  9  1  0  0  0  0
  6 10  1  0  0  0  0
  6  5  1  0  0  0  0
  7  6  2  0  0  0  0
 11  7  1  0  0  0  0
 11 12  1  0  0  0  0
 13 11  1  0  0  0  0
 14 11  1  0  0  0  0
 15  3  1  0  0  0  0
 15 16  1  0  0  0  0
 17 15  1  0  0  0  0
 18 23  2  0  0  0  0
 18 19  1  0  0  0  0
 19 20  2  0  0  0  0
 20 21  1  0  0  0  0
 20 26  1  0  0  0  0
 22 15  1  0  0  0  0
 22 21  2  0  0  0  0
 23 22  1  0  0  0  0
 24 18  1  0  0  0  0
 25 19  1  0  0  0  0
M  END
>  <minimizedAffinity>
-4.6135726

$$$$

 OpenBabel03252502543D

 26 27  0  0  0  0  0  0  0  0999 V2000
   37.9850   29.9120   37.7100 Br  0  0  0  0  0  0  0  0  0  0  0  0
   36.1260   29.4240   37.6280 C   0  0  0  0  0  0  0  0  0  0  0  0
   35.4760   29.2910   38.8410 C   0  0  0  0  0  0  0  0  0  0  0  0
   34.1350   28.9370   38.7280 C   0  0  0  0  0  0  0  0  0  0  0  0
   33.4940   28.7330   37.5350 C   0  0  0  0  0  0  0  0  0  0  0  0
   34.1960   28.8820   36.3770 C   0  0  0  0  0  0  0  0  0  0  0  0
   35.5410   29.2340   36.3910 C   0  0  0  0  0  0  0  0  0  0  0  0
   33.5670   28.8170   39.6530 H   0  0  0  0  0  0  0  0  0  0  0  0
   32.4380   28.4580   37.5630 H   0  0  0  0  0  0  0  0  0  0  0  0
   33.7220   28.7290   35.4230 H   0  0  0  0  0  0  0  0  0  0  0  0
   36.3480   29.4070   35.1440 C   0  0  0  0  0  0  0  0  0  0  0  0
   36.6790   30.7680   35.0880 F   0  0  0  0  0  0  0  0  0  0  0  0
   35.5060   29.2140   34.0550 F   0  0  0  0  0  0  0  0  0  0  0  0
   37.4390   28.5910   35.1030 F   0  0  0  0  0  0  0  0  0  0  0  0
   36.0650   29.4850   40.1720 C   0  0  0  0  0  0  0  0  0  0  0  0
   35.2530   29.9100   40.8200 H   0  0  0  0  0  0  0  0  0  0  0  0
   36.9390   30.1550   40.1270 H   0  0  0  0  0  0  0  0  0  0  0  0
   37.0910   25.9510   40.8000 C   0  0  0  0  0  0  0  0  0  0  0  0
   37.1610   25.9170   42.2010 C   0  0  0  0  0  0  0  0  0  0  0  0
   36.8610   27.0810   42.8860 C   0  0  0  0  0  0  0  0  0  0  0  0
   36.5150   28.1970   42.1990 N   0  0  0  0  0  0  0  0  0  0  0  0
   36.4580   28.1930   40.8180 C   0  0  0  0  0  0  0  0  0  0  0  0
   36.7500   27.0620   40.1670 N   0  0  0  0  0  0  0  0  0  0  0  0
   37.3100   25.0860   40.2200 H   0  0  0  0  0  0  0  0  0  0  0  0
   37.4460   24.9720   42.6590 H   0  0  0  0  0  0  0  0  0  0  0  0
   36.9140   27.0540   43.9580 H   0  0  0  0  0  0  0  0  0  0  0  0
  2  1  1  0  0  0  0
  2  3  1  0  0  0  0
  3 15  1  0  0  0  0
  4  3  2  0  0  0  0
  4  8  1  0  0  0  0
  5  9  1  0  0  0  0
  5  4  1  0  0  0  0
  6  7  1  0  0  0  0
  6  5  2  0  0  0  0
  7  2  2  0  0  0  0
 10  6  1  0  0  0  0
 11  7  1  0  0  0  0
 12 11  1  0  0  0  0
 13 11  1  0  0  0  0
 14 11  1  0  0  0  0
 15 22  1  0  0  0  0
 15 16  1  0  0  0  0
 17 15  1  0  0  0  0
 18 19  1  0  0  0  0
 19 25  1  0  0  0  0
 19 20  2  0  0  0  0
 20 26  1  0  0  0  0
 21 20  1  0  0  0  0
 22 21  2  0  0  0  0
 23 18  2  0  0  0  0
 23 22  1  0  0  0  0
 24 18  1  0  0  0  0
M  END
>  <minimizedAffinity>
-4.57906151

$$$$

 OpenBabel03252502543D

 26 27  0  0  0  0  0  0  0  0999 V2000
   40.9140   27.9730   41.6460 Br  0  0  0  0  0  0  0  0  0  0  0  0
   39.2870   26.9760   41.8840 C   0  0  0  0  0  0  0  0  0  0  0  0
   38.2800   27.6090   42.5880 C   0  0  0  0  0  0  0  0  0  0  0  0
   37.1250   26.8470   42.7330 C   0  0  0  0  0  0  0  0  0  0  0  0
   36.9740   25.5810   42.2320 C   0  0  0  0  0  0  0  0  0  0  0  0
   38.0090   25.0160   41.5480 C   0  0  0  0  0  0  0  0  0  0  0  0
   39.2020   25.7020   41.3530 C   0  0  0  0  0  0  0  0  0  0  0  0
   36.2920   27.2940   43.2800 H   0  0  0  0  0  0  0  0  0  0  0  0
   36.0240   25.0730   42.4040 H   0  0  0  0  0  0  0  0  0  0  0  0
   37.9230   24.0240   41.1420 H   0  0  0  0  0  0  0  0  0  0  0  0
   40.3620   25.1210   40.6080 C   0  0  0  0  0  0  0  0  0  0  0  0
   39.9300   23.8710   40.1430 F   0  0  0  0  0  0  0  0  0  0  0  0
   41.3560   24.8190   41.5300 F   0  0  0  0  0  0  0  0  0  0  0  0
   40.8110   25.9340   39.6120 F   0  0  0  0  0  0  0  0  0  0  0  0
   38.3350   28.9590   43.1660 C   0  0  0  0  0  0  0  0  0  0  0  0
   39.4050   29.1370   43.4530 H   0  0  0  0  0  0  0  0  0  0  0  0
   37.6630   29.0470   44.0350 H   0  0  0  0  0  0  0  0  0  0  0  0
   38.5070   31.8550   40.8170 C   0  0  0  0  0  0  0  0  0  0  0  0
   37.1950   31.9020   40.3230 C   0  0  0  0  0  0  0  0  0  0  0  0
   36.2980   30.9610   40.7950 C   0  0  0  0  0  0  0  0  0  0  0  0
   36.7040   30.0390   41.7030 N   0  0  0  0  0  0  0  0  0  0  0  0
   38.0060   30.0230   42.1670 C   0  0  0  0  0  0  0  0  0  0  0  0
   38.8630   30.9380   41.7030 N   0  0  0  0  0  0  0  0  0  0  0  0
   39.2400   32.5540   40.4910 H   0  0  0  0  0  0  0  0  0  0  0  0
   36.9680   32.6810   39.5980 H   0  0  0  0  0  0  0  0  0  0  0  0
   35.2940   30.9980   40.4170 H   0  0  0  0  0  0  0  0  0  0  0  0
  1  2  1  0  0  0  0
  2  3  1  0  0  0  0
  3  4  2  0  0  0  0
  3 15  1  0  0  0  0
  4  8  1  0  0  0  0
  5  9  1  0  0  0  0
  5  4  1  0  0  0  0
  6  5  2  0  0  0  0
  7  6  1  0  0  0  0
  7  2  2  0  0  0  0
 10  6  1  0  0  0  0
 11  7  1  0  0  0  0
 11 13  1  0  0  0  0
 12 11  1  0  0  0  0
 14 11  1  0  0  0  0
 15 16  1  0  0  0  0
 15 17  1  0  0  0  0
 18 23  1  0  0  0  0
 19 20  1  0  0  0  0
 19 18  2  0  0  0  0
 20 21  2  0  0  0  0
 21 22  1  0  0  0  0
 22 15  1  0  0  0  0
 23 22  2  0  0  0  0
 24 18  1  0  0  0  0
 25 19  1  0  0  0  0
 26 20  1  0  0  0  0
M  END
>  <minimizedAffinity>
-4.54681778

$$$$

 OpenBabel03252502543D

 26 27  0  0  0  0  0  0  0  0999 V2000
   41.7810   28.0890   42.1670 Br  0  0  0  0  0  0  0  0  0  0  0  0
   39.9330   28.0590   42.7000 C   0  0  0  0  0  0  0  0  0  0  0  0
   39.3090   29.2880   42.8080 C   0  0  0  0  0  0  0  0  0  0  0  0
   37.9750   29.2130   43.1970 C   0  0  0  0  0  0  0  0  0  0  0  0
   37.3170   28.0390   43.4550 C   0  0  0  0  0  0  0  0  0  0  0  0
   37.9940   26.8630   43.3290 C   0  0  0  0  0  0  0  0  0  0  0  0
   39.3290   26.8400   42.9460 C   0  0  0  0  0  0  0  0  0  0  0  0
   37.4270   30.1510   43.2990 H   0  0  0  0  0  0  0  0  0  0  0  0
   36.2680   28.0960   43.7530 H   0  0  0  0  0  0  0  0  0  0  0  0
   37.5060   25.9240   43.5240 H   0  0  0  0  0  0  0  0  0  0  0  0
   40.1100   25.5730   42.7960 C   0  0  0  0  0  0  0  0  0  0  0  0
   39.2910   24.5560   43.3080 F   0  0  0  0  0  0  0  0  0  0  0  0
   41.1850   25.6230   43.6750 F   0  0  0  0  0  0  0  0  0  0  0  0
   40.5040   25.3440   41.5120 F   0  0  0  0  0  0  0  0  0  0  0  0
   39.9170   30.6010   42.5560 C   0  0  0  0  0  0  0  0  0  0  0  0
   41.0280   30.4380   42.5410 H   0  0  0  0  0  0  0  0  0  0  0  0
   39.6260   31.3300   43.3300 H   0  0  0  0  0  0  0  0  0  0  0  0
   39.6520   31.1620   38.8750 C   0  0  0  0  0  0  0  0  0  0  0  0
   38.8210   32.2900   38.8160 C   0  0  0  0  0  0  0  0  0  0  0  0
   38.3790   32.8250   40.0130 C   0  0  0  0  0  0  0  0  0  0  0  0
   38.7540   32.2540   41.1850 N   0  0  0  0  0  0  0  0  0  0  0  0
   39.5730   31.1410   41.2040 C   0  0  0  0  0  0  0  0  0  0  0  0
   39.9940   30.6340   40.0400 N   0  0  0  0  0  0  0  0  0  0  0  0
   40.0230   30.7080   37.9880 H   0  0  0  0  0  0  0  0  0  0  0  0
   38.5790   32.6740   37.8270 H   0  0  0  0  0  0  0  0  0  0  0  0
   37.7440   33.6880   39.9670 H   0  0  0  0  0  0  0  0  0  0  0  0
  1  2  1  0  0  0  0
  2  3  2  0  0  0  0
  2  7  1  0  0  0  0
  3  4  1  0  0  0  0
  4  8  1  0  0  0  0
  4  5  2  0  0  0  0
  5  9  1  0  0  0  0
  6  5  1  0  0  0  0
  6 10  1  0  0  0  0
  7  6  2  0  0  0  0
 11  7  1  0  0  0  0
 11 12  1  0  0  0  0
 11 13  1  0  0  0  0
 14 11  1  0  0  0  0
 15  3  1  0  0  0  0
 15 17  1  0  0  0  0
 16 15  1  0  0  0  0
 18 23  1  0  0  0  0
 19 18  2  0  0  0  0
 19 20  1  0  0  0  0
 20 21  2  0  0  0  0
 21 22  1  0  0  0  0
 22 15  1  0  0  0  0
 23 22  2  0  0  0  0
 24 18  1  0  0  0  0
 25 19  1  0  0  0  0
 26 20  1  0  0  0  0
M  END
>  <minimizedAffinity>
-4.48414183

$$$$
