
 OpenBabel03252508323D

 27 28  0  0  1  0  0  0  0  0999 V2000
   45.4390   34.3270   42.0690 N   0  0  0  0  0  0  0  0  0  0  0  0
   46.6090   33.8660   41.4120 C   0  0  1  0  0  0  0  0  0  0  0  0
   46.5070   33.7280   39.9290 C   0  0  0  0  0  0  0  0  0  0  0  0
   45.2540   33.5120   39.3470 N   0  0  0  0  0  0  0  0  0  0  0  0
   44.1230   33.9610   40.0460 C   0  0  0  0  0  0  0  0  0  0  0  0
   44.4780   34.8840   41.1710 C   0  0  0  0  0  0  0  0  0  0  0  0
   46.9260   32.8910   41.8320 H   0  0  0  0  0  0  0  0  0  0  0  0
   46.9240   34.6770   39.4660 H   0  0  0  0  0  0  0  0  0  0  0  0
   47.1860   32.8940   39.6120 H   0  0  0  0  0  0  0  0  0  0  0  0
   45.2310   33.8700   38.3740 H   0  0  0  0  0  0  0  0  0  0  0  0
   43.6690   33.0550   40.5470 H   0  0  0  0  0  0  0  0  0  0  0  0
   43.3090   34.3810   39.4440 H   0  0  0  0  0  0  0  0  0  0  0  0
   43.5930   35.3600   41.6250 H   0  0  0  0  0  0  0  0  0  0  0  0
   45.0040   35.7570   40.6750 H   0  0  0  0  0  0  0  0  0  0  0  0
   44.7280   35.3030   44.1200 C   0  0  0  0  0  0  0  0  0  0  0  0
   45.3510   34.2150   43.4710 C   0  0  0  0  0  0  0  0  0  0  0  0
   45.8420   33.1790   44.2400 C   0  0  0  0  0  0  0  0  0  0  0  0
   45.7380   33.1960   45.5940 N   0  0  0  0  0  0  0  0  0  0  0  0
   45.1310   34.2610   46.2110 C   0  0  0  0  0  0  0  0  0  0  0  0
   44.6390   35.2860   45.4840 N   0  0  0  0  0  0  0  0  0  0  0  0
   44.2880   36.1900   43.7150 H   0  0  0  0  0  0  0  0  0  0  0  0
   46.2960   32.3450   43.7760 H   0  0  0  0  0  0  0  0  0  0  0  0
   45.0460   34.2760   47.2960 H   0  0  0  0  0  0  0  0  0  0  0  0
   47.7890   34.8430   41.6240 C   0  0  0  0  0  0  0  0  0  0  0  0
   47.4470   36.0050   42.2170 F   0  0  0  0  0  0  0  0  0  0  0  0
   48.2850   35.1970   40.3600 F   0  0  0  0  0  0  0  0  0  0  0  0
   48.8360   34.1810   42.2360 F   0  0  0  0  0  0  0  0  0  0  0  0
  1 16  1  0  0  0  0
  2 24  1  0  0  0  0
  2  7  1  1  0  0  0
  2  1  1  0  0  0  0
  3  2  1  0  0  0  0
  4  3  1  0  0  0  0
  4  5  1  0  0  0  0
  5 11  1  0  0  0  0
  5  6  1  0  0  0  0
  6 13  1  0  0  0  0
  6  1  1  0  0  0  0
  8  3  1  0  0  0  0
  9  3  1  0  0  0  0
 10  4  1  0  0  0  0
 12  5  1  0  0  0  0
 14  6  1  0  0  0  0
 15 20  1  0  0  0  0
 16 15  2  0  0  0  0
 16 17  1  0  0  0  0
 17 18  2  0  0  0  0
 18 19  1  0  0  0  0
 19 23  1  0  0  0  0
 20 19  2  0  0  0  0
 21 15  1  0  0  0  0
 22 17  1  0  0  0  0
 24 25  1  0  0  0  0
 24 27  1  0  0  0  0
 26 24  1  0  0  0  0
M  END
>  <minimizedAffinity>
-4.54528189

>  <minimizedRMSD>
1.93037343

$$$$
