
 OpenBabel03252507443D

 26 27  0  0  0  0  0  0  0  0999 V2000
   39.0010   29.2160   42.9190 C   0  0  0  0  0  0  0  0  0  0  0  0
   39.5570   29.7650   43.6680 H   0  0  0  0  0  0  0  0  0  0  0  0
   39.7750   28.6750   42.3000 H   0  0  0  0  0  0  0  0  0  0  0  0
   38.2210   30.0950   42.0270 C   0  0  0  0  0  0  0  0  0  0  0  0
   38.9030   31.1480   41.4090 C   0  0  0  0  0  0  0  0  0  0  0  0
   38.2080   31.9940   40.5660 C   0  0  0  0  0  0  0  0  0  0  0  0
   36.8750   31.7720   40.3650 N   0  0  0  0  0  0  0  0  0  0  0  0
   36.2500   30.7460   40.9780 C   0  0  0  0  0  0  0  0  0  0  0  0
   36.9260   29.9320   41.7920 N   0  0  0  0  0  0  0  0  0  0  0  0
   38.7320   32.8170   40.0830 H   0  0  0  0  0  0  0  0  0  0  0  0
   35.1980   30.5270   40.8530 H   0  0  0  0  0  0  0  0  0  0  0  0
   40.6620   31.3870   41.7160 S   0  0  0  0  0  0  0  0  0  0  0  0
   41.3240   30.5420   40.7850 H   0  0  0  0  0  0  0  0  0  0  0  0
   38.1810   28.1550   43.5940 C   0  0  0  0  0  0  0  0  0  0  0  0
   38.1990   28.2410   44.6950 H   0  0  0  0  0  0  0  0  0  0  0  0
   37.1180   28.3500   43.2950 H   0  0  0  0  0  0  0  0  0  0  0  0
   38.5230   26.7640   43.1740 C   0  0  0  0  0  0  0  0  0  0  0  0
   39.7040   26.1290   43.6790 C   0  0  0  0  0  0  0  0  0  0  0  0
   39.6350   24.4680   42.8540 S   0  0  0  0  0  0  0  0  0  0  0  0
   38.0360   24.9350   41.9850 C   0  0  0  0  0  0  0  0  0  0  0  0
   37.8460   25.9940   42.3530 N   0  0  0  0  0  0  0  0  0  0  0  0
   40.4120   26.5620   44.3640 H   0  0  0  0  0  0  0  0  0  0  0  0
   37.2950   24.0220   41.0530 C   0  0  0  0  0  0  0  0  0  0  0  0
   35.9700   23.9560   41.4190 F   0  0  0  0  0  0  0  0  0  0  0  0
   37.4210   24.4660   39.7350 F   0  0  0  0  0  0  0  0  0  0  0  0
   37.9670   22.8380   41.1200 F   0  0  0  0  0  0  0  0  0  0  0  0
  1 14  1  0  0  0  0
  1  2  1  0  0  0  0
  3  1  1  0  0  0  0
  4  1  1  0  0  0  0
  5 12  1  0  0  0  0
  5  4  2  0  0  0  0
  6  5  1  0  0  0  0
  7  6  2  0  0  0  0
  7  8  1  0  0  0  0
  8  9  2  0  0  0  0
  9  4  1  0  0  0  0
 10  6  1  0  0  0  0
 11  8  1  0  0  0  0
 13 12  1  0  0  0  0
 14 15  1  0  0  0  0
 16 14  1  0  0  0  0
 17 14  1  0  0  0  0
 17 18  2  0  0  0  0
 18 22  1  0  0  0  0
 19 18  1  0  0  0  0
 20 21  2  0  0  0  0
 20 19  1  0  0  0  0
 21 17  1  0  0  0  0
 23 26  1  0  0  0  0
 23 24  1  0  0  0  0
 23 20  1  0  0  0  0
 25 23  1  0  0  0  0
M  END
>  <minimizedAffinity>
-4.76157284

$$$$

 OpenBabel03252507443D

 26 27  0  0  0  0  0  0  0  0999 V2000
   38.5640   27.9090   43.4380 C   0  0  0  0  0  0  0  0  0  0  0  0
   39.5580   28.2880   43.2390 H   0  0  0  0  0  0  0  0  0  0  0  0
   38.4660   27.8820   44.5620 H   0  0  0  0  0  0  0  0  0  0  0  0
   38.3580   26.5440   42.9180 C   0  0  0  0  0  0  0  0  0  0  0  0
   39.4440   25.6640   42.9810 C   0  0  0  0  0  0  0  0  0  0  0  0
   39.2930   24.3760   42.5050 C   0  0  0  0  0  0  0  0  0  0  0  0
   38.0840   24.0050   41.9870 N   0  0  0  0  0  0  0  0  0  0  0  0
   37.0590   24.8800   41.9420 C   0  0  0  0  0  0  0  0  0  0  0  0
   37.2110   26.1240   42.4030 N   0  0  0  0  0  0  0  0  0  0  0  0
   40.1330   23.6860   42.5490 H   0  0  0  0  0  0  0  0  0  0  0  0
   36.0830   24.6370   41.5430 H   0  0  0  0  0  0  0  0  0  0  0  0
   41.0120   26.2160   43.6770 S   0  0  0  0  0  0  0  0  0  0  0  0
   40.8940   26.0140   45.0770 H   0  0  0  0  0  0  0  0  0  0  0  0
   37.5520   28.9040   42.9490 C   0  0  0  0  0  0  0  0  0  0  0  0
   36.6940   28.4240   42.4450 H   0  0  0  0  0  0  0  0  0  0  0  0
   37.1280   29.3890   43.8670 H   0  0  0  0  0  0  0  0  0  0  0  0
   38.1250   29.9810   42.0900 C   0  0  0  0  0  0  0  0  0  0  0  0
   39.3950   30.5610   42.4130 C   0  0  0  0  0  0  0  0  0  0  0  0
   39.6110   31.8060   41.0540 S   0  0  0  0  0  0  0  0  0  0  0  0
   37.9580   31.3180   40.3060 C   0  0  0  0  0  0  0  0  0  0  0  0
   37.5910   30.5030   41.0090 N   0  0  0  0  0  0  0  0  0  0  0  0
   40.0170   30.2950   43.2490 H   0  0  0  0  0  0  0  0  0  0  0  0
   37.3860   31.9420   39.0670 C   0  0  0  0  0  0  0  0  0  0  0  0
   36.4090   31.1280   38.5420 F   0  0  0  0  0  0  0  0  0  0  0  0
   36.8700   33.2080   39.3550 F   0  0  0  0  0  0  0  0  0  0  0  0
   38.4590   32.1470   38.2540 F   0  0  0  0  0  0  0  0  0  0  0  0
  1  3  1  0  0  0  0
  2  1  1  0  0  0  0
  4  5  1  0  0  0  0
  4  1  1  0  0  0  0
  5 12  1  0  0  0  0
  6 10  1  0  0  0  0
  6  5  2  0  0  0  0
  7  6  1  0  0  0  0
  8  7  2  0  0  0  0
  8  9  1  0  0  0  0
  9  4  2  0  0  0  0
 11  8  1  0  0  0  0
 12 13  1  0  0  0  0
 14  1  1  0  0  0  0
 14 16  1  0  0  0  0
 15 14  1  0  0  0  0
 17 18  2  0  0  0  0
 17 14  1  0  0  0  0
 18 22  1  0  0  0  0
 19 18  1  0  0  0  0
 20 21  2  0  0  0  0
 20 19  1  0  0  0  0
 21 17  1  0  0  0  0
 23 25  1  0  0  0  0
 23 20  1  0  0  0  0
 24 23  1  0  0  0  0
 26 23  1  0  0  0  0
M  END
>  <minimizedAffinity>
-4.65814543

$$$$

 OpenBabel03252507443D

 26 27  0  0  0  0  0  0  0  0999 V2000
   38.6600   29.6000   43.0160 C   0  0  0  0  0  0  0  0  0  0  0  0
   38.3870   29.9420   44.0060 H   0  0  0  0  0  0  0  0  0  0  0  0
   37.8520   29.9810   42.3260 H   0  0  0  0  0  0  0  0  0  0  0  0
   38.7070   28.1290   42.9130 C   0  0  0  0  0  0  0  0  0  0  0  0
   37.7080   27.5070   42.1570 C   0  0  0  0  0  0  0  0  0  0  0  0
   37.7170   26.1310   42.0360 C   0  0  0  0  0  0  0  0  0  0  0  0
   38.7040   25.4230   42.6600 N   0  0  0  0  0  0  0  0  0  0  0  0
   39.6520   26.0560   43.3810 C   0  0  0  0  0  0  0  0  0  0  0  0
   39.6380   27.3860   43.4960 N   0  0  0  0  0  0  0  0  0  0  0  0
   36.9420   25.6400   41.4500 H   0  0  0  0  0  0  0  0  0  0  0  0
   40.4550   25.5420   43.8940 H   0  0  0  0  0  0  0  0  0  0  0  0
   36.4330   28.4990   41.3570 S   0  0  0  0  0  0  0  0  0  0  0  0
   36.9910   28.8950   40.1130 H   0  0  0  0  0  0  0  0  0  0  0  0
   39.9310   30.2790   42.5940 C   0  0  0  0  0  0  0  0  0  0  0  0
   40.4790   30.7200   43.4450 H   0  0  0  0  0  0  0  0  0  0  0  0
   40.5960   29.4670   42.1970 H   0  0  0  0  0  0  0  0  0  0  0  0
   39.7490   31.2880   41.5100 C   0  0  0  0  0  0  0  0  0  0  0  0
   40.8370   32.1370   41.1260 C   0  0  0  0  0  0  0  0  0  0  0  0
   40.0750   33.1610   39.7790 S   0  0  0  0  0  0  0  0  0  0  0  0
   38.4390   32.2610   39.9820 C   0  0  0  0  0  0  0  0  0  0  0  0
   38.6580   31.5180   40.8150 N   0  0  0  0  0  0  0  0  0  0  0  0
   41.8250   32.1300   41.5510 H   0  0  0  0  0  0  0  0  0  0  0  0
   37.2160   32.5570   39.1650 C   0  0  0  0  0  0  0  0  0  0  0  0
   36.8580   33.8770   39.3220 F   0  0  0  0  0  0  0  0  0  0  0  0
   37.4470   32.2670   37.8190 F   0  0  0  0  0  0  0  0  0  0  0  0
   36.2870   31.6570   39.5920 F   0  0  0  0  0  0  0  0  0  0  0  0
  1  2  1  0  0  0  0
  3  1  1  0  0  0  0
  4  1  1  0  0  0  0
  4  9  1  0  0  0  0
  5  4  2  0  0  0  0
  6  5  1  0  0  0  0
  6  7  2  0  0  0  0
  7  8  1  0  0  0  0
  8  9  2  0  0  0  0
  8 11  1  0  0  0  0
 10  6  1  0  0  0  0
 12  5  1  0  0  0  0
 13 12  1  0  0  0  0
 14  1  1  0  0  0  0
 14 15  1  0  0  0  0
 16 14  1  0  0  0  0
 17 14  1  0  0  0  0
 18 17  2  0  0  0  0
 18 22  1  0  0  0  0
 19 20  1  0  0  0  0
 19 18  1  0  0  0  0
 20 21  2  0  0  0  0
 21 17  1  0  0  0  0
 23 24  1  0  0  0  0
 23 26  1  0  0  0  0
 23 20  1  0  0  0  0
 25 23  1  0  0  0  0
M  END
>  <minimizedAffinity>
-4.64223623

$$$$

 OpenBabel03252507443D

 26 27  0  0  0  0  0  0  0  0999 V2000
   36.0330   30.4200   40.5080 C   0  0  0  0  0  0  0  0  0  0  0  0
   35.2550   31.1350   40.7440 H   0  0  0  0  0  0  0  0  0  0  0  0
   36.9090   30.6930   41.1650 H   0  0  0  0  0  0  0  0  0  0  0  0
   36.4650   30.4910   39.1000 C   0  0  0  0  0  0  0  0  0  0  0  0
   37.2370   31.5950   38.7210 C   0  0  0  0  0  0  0  0  0  0  0  0
   37.6620   31.6990   37.4110 C   0  0  0  0  0  0  0  0  0  0  0  0
   37.3130   30.7170   36.5270 N   0  0  0  0  0  0  0  0  0  0  0  0
   36.5690   29.6670   36.9270 C   0  0  0  0  0  0  0  0  0  0  0  0
   36.1600   29.5710   38.1950 N   0  0  0  0  0  0  0  0  0  0  0  0
   38.2610   32.5560   37.1090 H   0  0  0  0  0  0  0  0  0  0  0  0
   36.2660   28.8630   36.2680 H   0  0  0  0  0  0  0  0  0  0  0  0
   37.6620   32.8570   39.9360 S   0  0  0  0  0  0  0  0  0  0  0  0
   38.8360   32.3800   40.5760 H   0  0  0  0  0  0  0  0  0  0  0  0
   35.5900   29.0510   40.9380 C   0  0  0  0  0  0  0  0  0  0  0  0
   34.6330   29.0680   41.4890 H   0  0  0  0  0  0  0  0  0  0  0  0
   35.3840   28.4830   39.9930 H   0  0  0  0  0  0  0  0  0  0  0  0
   36.6210   28.2940   41.7070 C   0  0  0  0  0  0  0  0  0  0  0  0
   37.4310   28.9640   42.6800 C   0  0  0  0  0  0  0  0  0  0  0  0
   38.5040   27.5870   43.3090 S   0  0  0  0  0  0  0  0  0  0  0  0
   37.6670   26.3680   42.1500 C   0  0  0  0  0  0  0  0  0  0  0  0
   36.9040   27.0150   41.6070 N   0  0  0  0  0  0  0  0  0  0  0  0
   37.3800   30.0080   42.9340 H   0  0  0  0  0  0  0  0  0  0  0  0
   38.0230   24.9130   42.0700 C   0  0  0  0  0  0  0  0  0  0  0  0
   36.8860   24.1460   42.1860 F   0  0  0  0  0  0  0  0  0  0  0  0
   38.6810   24.6390   40.8690 F   0  0  0  0  0  0  0  0  0  0  0  0
   38.9430   24.7260   43.0570 F   0  0  0  0  0  0  0  0  0  0  0  0
  1  2  1  0  0  0  0
  1 14  1  0  0  0  0
  1  3  1  0  0  0  0
  4  1  1  0  0  0  0
  5  4  1  0  0  0  0
  5 12  1  0  0  0  0
  6  5  2  0  0  0  0
  7  8  2  0  0  0  0
  7  6  1  0  0  0  0
  8  9  1  0  0  0  0
  9  4  2  0  0  0  0
 10  6  1  0  0  0  0
 11  8  1  0  0  0  0
 12 13  1  0  0  0  0
 14 15  1  0  0  0  0
 14 17  1  0  0  0  0
 16 14  1  0  0  0  0
 17 18  2  0  0  0  0
 18 22  1  0  0  0  0
 18 19  1  0  0  0  0
 20 19  1  0  0  0  0
 21 17  1  0  0  0  0
 21 20  2  0  0  0  0
 23 20  1  0  0  0  0
 23 24  1  0  0  0  0
 23 26  1  0  0  0  0
 25 23  1  0  0  0  0
M  END
>  <minimizedAffinity>
-4.6333952

$$$$

 OpenBabel03252507443D

 26 27  0  0  0  0  0  0  0  0999 V2000
   37.1370   27.4420   42.3870 C   0  0  0  0  0  0  0  0  0  0  0  0
   36.1510   27.0660   42.6280 H   0  0  0  0  0  0  0  0  0  0  0  0
   37.1050   27.6990   41.2880 H   0  0  0  0  0  0  0  0  0  0  0  0
   38.1980   26.4400   42.6010 C   0  0  0  0  0  0  0  0  0  0  0  0
   38.1750   25.2990   41.7920 C   0  0  0  0  0  0  0  0  0  0  0  0
   39.1510   24.3360   41.9620 C   0  0  0  0  0  0  0  0  0  0  0  0
   40.1090   24.5330   42.9170 N   0  0  0  0  0  0  0  0  0  0  0  0
   40.1000   25.6450   43.6780 C   0  0  0  0  0  0  0  0  0  0  0  0
   39.1540   26.5720   43.5110 N   0  0  0  0  0  0  0  0  0  0  0  0
   39.1390   23.4450   41.3370 H   0  0  0  0  0  0  0  0  0  0  0  0
   40.8350   25.8490   44.4470 H   0  0  0  0  0  0  0  0  0  0  0  0
   36.8840   25.1000   40.5500 S   0  0  0  0  0  0  0  0  0  0  0  0
   37.3600   25.7850   39.4010 H   0  0  0  0  0  0  0  0  0  0  0  0
   37.3650   28.7330   43.1170 C   0  0  0  0  0  0  0  0  0  0  0  0
   36.4410   29.1330   43.5720 H   0  0  0  0  0  0  0  0  0  0  0  0
   38.0400   28.4850   43.9780 H   0  0  0  0  0  0  0  0  0  0  0  0
   38.0400   29.7830   42.2990 C   0  0  0  0  0  0  0  0  0  0  0  0
   39.4030   30.1360   42.5630 C   0  0  0  0  0  0  0  0  0  0  0  0
   39.7190   31.4480   41.2890 S   0  0  0  0  0  0  0  0  0  0  0  0
   37.9650   31.2780   40.6390 C   0  0  0  0  0  0  0  0  0  0  0  0
   37.5230   30.4700   41.3060 N   0  0  0  0  0  0  0  0  0  0  0  0
   40.0310   29.7090   43.3250 H   0  0  0  0  0  0  0  0  0  0  0  0
   37.4150   32.0860   39.5000 C   0  0  0  0  0  0  0  0  0  0  0  0
   36.9900   33.3120   39.9590 F   0  0  0  0  0  0  0  0  0  0  0  0
   38.3800   32.2410   38.5030 F   0  0  0  0  0  0  0  0  0  0  0  0
   36.4360   31.3050   38.9630 F   0  0  0  0  0  0  0  0  0  0  0  0
  1  4  1  0  0  0  0
  1  2  1  0  0  0  0
  1 14  1  0  0  0  0
  3  1  1  0  0  0  0
  4  9  1  0  0  0  0
  5  6  1  0  0  0  0
  5  4  2  0  0  0  0
  6  7  2  0  0  0  0
  7  8  1  0  0  0  0
  8 11  1  0  0  0  0
  9  8  2  0  0  0  0
 10  6  1  0  0  0  0
 12  5  1  0  0  0  0
 13 12  1  0  0  0  0
 14 15  1  0  0  0  0
 14 16  1  0  0  0  0
 17 18  2  0  0  0  0
 17 14  1  0  0  0  0
 18 22  1  0  0  0  0
 19 18  1  0  0  0  0
 20 19  1  0  0  0  0
 20 21  2  0  0  0  0
 21 17  1  0  0  0  0
 23 24  1  0  0  0  0
 23 20  1  0  0  0  0
 25 23  1  0  0  0  0
 26 23  1  0  0  0  0
M  END
>  <minimizedAffinity>
-4.59161711

$$$$

 OpenBabel03252507443D

 26 27  0  0  0  0  0  0  0  0999 V2000
   36.8160   30.5860   39.7290 C   0  0  0  0  0  0  0  0  0  0  0  0
   37.2000   29.6960   39.2480 H   0  0  0  0  0  0  0  0  0  0  0  0
   35.9560   30.9330   39.0860 H   0  0  0  0  0  0  0  0  0  0  0  0
   37.8130   31.6710   39.8010 C   0  0  0  0  0  0  0  0  0  0  0  0
   39.1440   31.3380   39.5270 C   0  0  0  0  0  0  0  0  0  0  0  0
   40.1090   32.3250   39.5830 C   0  0  0  0  0  0  0  0  0  0  0  0
   39.7280   33.5970   39.9050 N   0  0  0  0  0  0  0  0  0  0  0  0
   38.4360   33.8830   40.1630 C   0  0  0  0  0  0  0  0  0  0  0  0
   37.5070   32.9240   40.1080 N   0  0  0  0  0  0  0  0  0  0  0  0
   41.1460   32.0720   39.3730 H   0  0  0  0  0  0  0  0  0  0  0  0
   38.0820   34.8720   40.4220 H   0  0  0  0  0  0  0  0  0  0  0  0
   39.5800   29.6400   39.1080 S   0  0  0  0  0  0  0  0  0  0  0  0
   39.3680   29.5330   37.7080 H   0  0  0  0  0  0  0  0  0  0  0  0
   36.2280   30.2140   41.0580 C   0  0  0  0  0  0  0  0  0  0  0  0
   36.1590   31.0730   41.7480 H   0  0  0  0  0  0  0  0  0  0  0  0
   35.1680   29.9090   40.8520 H   0  0  0  0  0  0  0  0  0  0  0  0
   36.9090   29.0640   41.7230 C   0  0  0  0  0  0  0  0  0  0  0  0
   37.8320   29.2940   42.7930 C   0  0  0  0  0  0  0  0  0  0  0  0
   38.3600   27.5690   43.2300 S   0  0  0  0  0  0  0  0  0  0  0  0
   37.2440   26.8600   41.8950 C   0  0  0  0  0  0  0  0  0  0  0  0
   36.7670   27.7880   41.4420 N   0  0  0  0  0  0  0  0  0  0  0  0
   38.1060   30.2530   43.1960 H   0  0  0  0  0  0  0  0  0  0  0  0
   37.1140   25.3930   41.6080 C   0  0  0  0  0  0  0  0  0  0  0  0
   36.4690   24.7690   42.6520 F   0  0  0  0  0  0  0  0  0  0  0  0
   36.4240   25.1910   40.4110 F   0  0  0  0  0  0  0  0  0  0  0  0
   38.3890   24.9680   41.3880 F   0  0  0  0  0  0  0  0  0  0  0  0
  1  4  1  0  0  0  0
  1 14  1  0  0  0  0
  2  1  1  0  0  0  0
  3  1  1  0  0  0  0
  4  9  1  0  0  0  0
  5  6  1  0  0  0  0
  5  4  2  0  0  0  0
  6  7  2  0  0  0  0
  7  8  1  0  0  0  0
  8 11  1  0  0  0  0
  9  8  2  0  0  0  0
 10  6  1  0  0  0  0
 12  5  1  0  0  0  0
 13 12  1  0  0  0  0
 14 17  1  0  0  0  0
 14 15  1  0  0  0  0
 16 14  1  0  0  0  0
 17 18  2  0  0  0  0
 18 22  1  0  0  0  0
 18 19  1  0  0  0  0
 20 19  1  0  0  0  0
 21 17  1  0  0  0  0
 21 20  2  0  0  0  0
 23 20  1  0  0  0  0
 23 24  1  0  0  0  0
 25 23  1  0  0  0  0
 26 23  1  0  0  0  0
M  END
>  <minimizedAffinity>
-4.5435915

$$$$

 OpenBabel03252507443D

 26 27  0  0  0  0  0  0  0  0999 V2000
   36.9050   29.8440   41.7660 C   0  0  0  0  0  0  0  0  0  0  0  0
   36.4640   28.8890   41.5090 H   0  0  0  0  0  0  0  0  0  0  0  0
   36.1880   30.3260   42.4930 H   0  0  0  0  0  0  0  0  0  0  0  0
   37.0550   30.7340   40.5990 C   0  0  0  0  0  0  0  0  0  0  0  0
   36.8680   30.1690   39.3330 C   0  0  0  0  0  0  0  0  0  0  0  0
   37.0000   30.9690   38.2140 C   0  0  0  0  0  0  0  0  0  0  0  0
   37.3100   32.2880   38.3840 N   0  0  0  0  0  0  0  0  0  0  0  0
   37.4840   32.7990   39.6200 C   0  0  0  0  0  0  0  0  0  0  0  0
   37.3550   32.0210   40.6980 N   0  0  0  0  0  0  0  0  0  0  0  0
   36.8570   30.5350   37.2260 H   0  0  0  0  0  0  0  0  0  0  0  0
   37.7300   33.8360   39.8080 H   0  0  0  0  0  0  0  0  0  0  0  0
   36.4600   28.4200   39.1780 S   0  0  0  0  0  0  0  0  0  0  0  0
   35.0480   28.3510   39.3100 H   0  0  0  0  0  0  0  0  0  0  0  0
   38.1810   29.6100   42.5200 C   0  0  0  0  0  0  0  0  0  0  0  0
   39.0210   30.2110   42.1290 H   0  0  0  0  0  0  0  0  0  0  0  0
   37.9980   29.9900   43.5590 H   0  0  0  0  0  0  0  0  0  0  0  0
   38.5710   28.1730   42.6240 C   0  0  0  0  0  0  0  0  0  0  0  0
   39.8140   27.8060   43.2340 C   0  0  0  0  0  0  0  0  0  0  0  0
   39.7820   25.9560   43.0980 S   0  0  0  0  0  0  0  0  0  0  0  0
   38.1090   26.0180   42.2470 C   0  0  0  0  0  0  0  0  0  0  0  0
   37.8850   27.1330   42.2060 N   0  0  0  0  0  0  0  0  0  0  0  0
   40.5390   28.4840   43.6490 H   0  0  0  0  0  0  0  0  0  0  0  0
   37.3600   24.8030   41.7860 C   0  0  0  0  0  0  0  0  0  0  0  0
   36.9690   24.9640   40.4760 F   0  0  0  0  0  0  0  0  0  0  0  0
   38.1530   23.6620   41.9260 F   0  0  0  0  0  0  0  0  0  0  0  0
   36.3380   24.6660   42.6760 F   0  0  0  0  0  0  0  0  0  0  0  0
  1  3  1  0  0  0  0
  1 14  1  0  0  0  0
  2  1  1  0  0  0  0
  4  9  1  0  0  0  0
  4  1  1  0  0  0  0
  5  4  2  0  0  0  0
  6  7  2  0  0  0  0
  6  5  1  0  0  0  0
  7  8  1  0  0  0  0
  8 11  1  0  0  0  0
  8  9  2  0  0  0  0
 10  6  1  0  0  0  0
 12 13  1  0  0  0  0
 12  5  1  0  0  0  0
 14 17  1  0  0  0  0
 14 16  1  0  0  0  0
 15 14  1  0  0  0  0
 17 18  2  0  0  0  0
 18 22  1  0  0  0  0
 19 18  1  0  0  0  0
 20 19  1  0  0  0  0
 21 20  2  0  0  0  0
 21 17  1  0  0  0  0
 23 25  1  0  0  0  0
 23 20  1  0  0  0  0
 23 26  1  0  0  0  0
 24 23  1  0  0  0  0
M  END
>  <minimizedAffinity>
-4.53578806

$$$$

 OpenBabel03252507443D

 26 27  0  0  0  0  0  0  0  0999 V2000
   37.5180   30.6940   38.0390 C   0  0  0  0  0  0  0  0  0  0  0  0
   38.2870   30.0260   37.6710 H   0  0  0  0  0  0  0  0  0  0  0  0
   36.9900   31.0870   37.1220 H   0  0  0  0  0  0  0  0  0  0  0  0
   38.0670   31.8390   38.7890 C   0  0  0  0  0  0  0  0  0  0  0  0
   39.4490   31.8590   39.0080 C   0  0  0  0  0  0  0  0  0  0  0  0
   40.0030   32.9150   39.7050 C   0  0  0  0  0  0  0  0  0  0  0  0
   39.1790   33.9060   40.1590 N   0  0  0  0  0  0  0  0  0  0  0  0
   37.8510   33.8540   39.9300 C   0  0  0  0  0  0  0  0  0  0  0  0
   37.3210   32.8310   39.2550 N   0  0  0  0  0  0  0  0  0  0  0  0
   41.0760   32.9360   39.8800 H   0  0  0  0  0  0  0  0  0  0  0  0
   37.1570   34.6130   40.2670 H   0  0  0  0  0  0  0  0  0  0  0  0
   40.4800   30.5200   38.3820 S   0  0  0  0  0  0  0  0  0  0  0  0
   40.7860   30.8760   37.0420 H   0  0  0  0  0  0  0  0  0  0  0  0
   36.5010   29.8980   38.8050 C   0  0  0  0  0  0  0  0  0  0  0  0
   35.8080   30.5370   39.3800 H   0  0  0  0  0  0  0  0  0  0  0  0
   35.8680   29.3850   38.0350 H   0  0  0  0  0  0  0  0  0  0  0  0
   37.0900   28.8450   39.6830 C   0  0  0  0  0  0  0  0  0  0  0  0
   37.8200   27.7540   39.1080 C   0  0  0  0  0  0  0  0  0  0  0  0
   38.3100   26.7800   40.6100 S   0  0  0  0  0  0  0  0  0  0  0  0
   37.4450   28.0160   41.7290 C   0  0  0  0  0  0  0  0  0  0  0  0
   37.0280   28.7780   40.9940 N   0  0  0  0  0  0  0  0  0  0  0  0
   38.0020   27.5970   38.0600 H   0  0  0  0  0  0  0  0  0  0  0  0
   37.3990   27.9000   43.2240 C   0  0  0  0  0  0  0  0  0  0  0  0
   36.1740   27.4090   43.6170 F   0  0  0  0  0  0  0  0  0  0  0  0
   38.4290   27.0740   43.6800 F   0  0  0  0  0  0  0  0  0  0  0  0
   37.6870   29.1510   43.6790 F   0  0  0  0  0  0  0  0  0  0  0  0
  1  4  1  0  0  0  0
  1 14  1  0  0  0  0
  2  1  1  0  0  0  0
  3  1  1  0  0  0  0
  4  5  2  0  0  0  0
  4  9  1  0  0  0  0
  5  6  1  0  0  0  0
  6 10  1  0  0  0  0
  6  7  2  0  0  0  0
  8  7  1  0  0  0  0
  8 11  1  0  0  0  0
  9  8  2  0  0  0  0
 12  5  1  0  0  0  0
 13 12  1  0  0  0  0
 14 15  1  0  0  0  0
 14 17  1  0  0  0  0
 16 14  1  0  0  0  0
 17 21  1  0  0  0  0
 18 17  2  0  0  0  0
 18 19  1  0  0  0  0
 19 20  1  0  0  0  0
 20 23  1  0  0  0  0
 21 20  2  0  0  0  0
 22 18  1  0  0  0  0
 23 24  1  0  0  0  0
 23 26  1  0  0  0  0
 23 25  1  0  0  0  0
M  END
>  <minimizedAffinity>
-4.46550274

$$$$

 OpenBabel03252507443D

 26 27  0  0  0  0  0  0  0  0999 V2000
   37.0890   27.3760   42.9740 C   0  0  0  0  0  0  0  0  0  0  0  0
   37.8210   28.0670   43.3730 H   0  0  0  0  0  0  0  0  0  0  0  0
   36.3950   27.1370   43.8310 H   0  0  0  0  0  0  0  0  0  0  0  0
   37.6930   26.1180   42.4970 C   0  0  0  0  0  0  0  0  0  0  0  0
   39.0800   25.9830   42.6250 C   0  0  0  0  0  0  0  0  0  0  0  0
   39.6840   24.8190   42.1910 C   0  0  0  0  0  0  0  0  0  0  0  0
   38.9040   23.8360   41.6490 N   0  0  0  0  0  0  0  0  0  0  0  0
   37.5700   24.0010   41.5410 C   0  0  0  0  0  0  0  0  0  0  0  0
   36.9910   25.1280   41.9620 N   0  0  0  0  0  0  0  0  0  0  0  0
   40.7620   24.7080   42.2860 H   0  0  0  0  0  0  0  0  0  0  0  0
   36.9080   23.2550   41.1210 H   0  0  0  0  0  0  0  0  0  0  0  0
   40.0520   27.3170   43.3490 S   0  0  0  0  0  0  0  0  0  0  0  0
   40.0000   27.1010   44.7510 H   0  0  0  0  0  0  0  0  0  0  0  0
   36.2600   28.0810   41.9410 C   0  0  0  0  0  0  0  0  0  0  0  0
   36.0250   27.4390   41.0730 H   0  0  0  0  0  0  0  0  0  0  0  0
   35.2730   28.2950   42.4310 H   0  0  0  0  0  0  0  0  0  0  0  0
   36.8320   29.3820   41.4870 C   0  0  0  0  0  0  0  0  0  0  0  0
   36.0360   30.2910   40.7170 C   0  0  0  0  0  0  0  0  0  0  0  0
   37.2120   31.6990   40.4380 S   0  0  0  0  0  0  0  0  0  0  0  0
   38.5530   30.8080   41.4060 C   0  0  0  0  0  0  0  0  0  0  0  0
   38.0440   29.8380   41.7130 N   0  0  0  0  0  0  0  0  0  0  0  0
   35.0170   30.1350   40.4110 H   0  0  0  0  0  0  0  0  0  0  0  0
   39.9250   31.3670   41.6390 C   0  0  0  0  0  0  0  0  0  0  0  0
   40.8490   30.6590   40.9030 F   0  0  0  0  0  0  0  0  0  0  0  0
   39.9620   32.7220   41.3030 F   0  0  0  0  0  0  0  0  0  0  0  0
   40.1000   31.3050   42.9880 F   0  0  0  0  0  0  0  0  0  0  0  0
  1  2  1  0  0  0  0
  1  3  1  0  0  0  0
  4  5  1  0  0  0  0
  4  1  1  0  0  0  0
  5 12  1  0  0  0  0
  6 10  1  0  0  0  0
  6  5  2  0  0  0  0
  7  6  1  0  0  0  0
  8  7  2  0  0  0  0
  8  9  1  0  0  0  0
  9  4  2  0  0  0  0
 11  8  1  0  0  0  0
 12 13  1  0  0  0  0
 14 16  1  0  0  0  0
 14  1  1  0  0  0  0
 15 14  1  0  0  0  0
 17 21  1  0  0  0  0
 17 14  1  0  0  0  0
 18 17  2  0  0  0  0
 19 18  1  0  0  0  0
 19 20  1  0  0  0  0
 20 23  1  0  0  0  0
 20 21  2  0  0  0  0
 22 18  1  0  0  0  0
 23 26  1  0  0  0  0
 24 23  1  0  0  0  0
 25 23  1  0  0  0  0
M  END
>  <minimizedAffinity>
-4.43545294

$$$$
