
 OpenBabel03252509183D

 36 38  0  0  1  0  0  0  0  0999 V2000
   48.2870   30.2520   47.4520 C   0  0  1  0  0  0  0  0  0  0  0  0
   48.0290   30.9300   48.7550 C   0  0  0  0  0  0  0  0  0  0  0  0
   48.9770   30.5650   49.8550 C   0  0  0  0  0  0  0  0  0  0  0  0
   50.4140   30.5090   49.3930 C   0  0  0  0  0  0  0  0  0  0  0  0
   50.5780   29.7760   48.0890 C   0  0  0  0  0  0  0  0  0  0  0  0
   49.2600   29.0820   47.7110 C   0  0  2  0  0  0  0  0  0  0  0  0
   48.8670   30.9360   46.8040 H   0  0  0  0  0  0  0  0  0  0  0  0
   47.0010   30.6050   49.0910 H   0  0  0  0  0  0  0  0  0  0  0  0
   47.9300   32.0370   48.6310 H   0  0  0  0  0  0  0  0  0  0  0  0
   48.6910   29.6220   50.3590 H   0  0  0  0  0  0  0  0  0  0  0  0
   48.9350   31.3760   50.6240 H   0  0  0  0  0  0  0  0  0  0  0  0
   50.8150   31.5470   49.2600 H   0  0  0  0  0  0  0  0  0  0  0  0
   51.0050   30.0620   50.2150 H   0  0  0  0  0  0  0  0  0  0  0  0
   51.3680   29.0020   48.2100 H   0  0  0  0  0  0  0  0  0  0  0  0
   50.8510   30.4380   47.2660 H   0  0  0  0  0  0  0  0  0  0  0  0
   48.9110   28.4140   48.4980 H   0  0  0  0  0  0  0  0  0  0  0  0
   44.7070   28.7280   46.1790 C   0  0  0  0  0  0  0  0  0  0  0  0
   45.3050   29.5550   45.2130 C   0  0  0  0  0  0  0  0  0  0  0  0
   46.4990   30.1120   45.5170 C   0  0  0  0  0  0  0  0  0  0  0  0
   47.1010   29.8590   46.7650 C   0  0  0  0  0  0  0  0  0  0  0  0
   45.8940   28.7530   47.5640 S   0  0  0  0  0  0  0  0  0  0  0  0
   44.8490   29.7540   44.2560 H   0  0  0  0  0  0  0  0  0  0  0  0
   47.1120   30.7670   44.9180 H   0  0  0  0  0  0  0  0  0  0  0  0
   41.2300   27.7760   45.2570 C   0  0  0  0  0  0  0  0  0  0  0  0
   41.1640   26.4950   45.8630 C   0  0  0  0  0  0  0  0  0  0  0  0
   42.3070   26.0180   46.5550 C   0  0  0  0  0  0  0  0  0  0  0  0
   43.3940   26.8420   46.5860 N   0  0  0  0  0  0  0  0  0  0  0  0
   43.4180   28.0520   45.9970 C   0  0  0  0  0  0  0  0  0  0  0  0
   42.3350   28.5040   45.3400 N   0  0  0  0  0  0  0  0  0  0  0  0
   40.3740   28.1680   44.7200 H   0  0  0  0  0  0  0  0  0  0  0  0
   40.2790   25.8960   45.8040 H   0  0  0  0  0  0  0  0  0  0  0  0
   42.3090   25.0480   47.0360 H   0  0  0  0  0  0  0  0  0  0  0  0
   49.5390   28.3510   46.4070 C   0  0  0  0  0  0  0  0  0  0  0  0
   49.5770   29.2290   45.3410 F   0  0  0  0  0  0  0  0  0  0  0  0
   50.7140   27.6450   46.5210 F   0  0  0  0  0  0  0  0  0  0  0  0
   48.5130   27.4670   46.2080 F   0  0  0  0  0  0  0  0  0  0  0  0
  1  7  1  6  0  0  0
  1  6  1  0  0  0  0
  1  2  1  0  0  0  0
  2  8  1  0  0  0  0
  2  3  1  0  0  0  0
  3 10  1  0  0  0  0
  3 11  1  0  0  0  0
  4  3  1  0  0  0  0
  4 13  1  0  0  0  0
  5 14  1  0  0  0  0
  5  4  1  0  0  0  0
  6  5  1  0  0  0  0
  6 16  1  1  0  0  0
  9  2  1  0  0  0  0
 12  4  1  0  0  0  0
 15  5  1  0  0  0  0
 17 21  1  0  0  0  0
 18 19  1  0  0  0  0
 18 17  2  0  0  0  0
 19 20  2  0  0  0  0
 20  1  1  0  0  0  0
 20 21  1  0  0  0  0
 22 18  1  0  0  0  0
 23 19  1  0  0  0  0
 24 29  2  0  0  0  0
 24 25  1  0  0  0  0
 25 26  2  0  0  0  0
 26 27  1  0  0  0  0
 26 32  1  0  0  0  0
 28 17  1  0  0  0  0
 28 27  2  0  0  0  0
 29 28  1  0  0  0  0
 30 24  1  0  0  0  0
 31 25  1  0  0  0  0
 33 35  1  0  0  0  0
 33  6  1  0  0  0  0
 34 33  1  0  0  0  0
 36 33  1  0  0  0  0
M  END
>  <minimizedAffinity>
-3.60268927

>  <minimizedRMSD>
5.696136

$$$$
