
 OpenBabel03252500033D

 34 36  0  0  0  0  0  0  0  0999 V2000
   46.8930   34.1520   42.5000 C   0  0  0  0  0  0  0  0  0  0  0  0
   48.0400   34.9260   42.3670 C   0  0  0  0  0  0  0  0  0  0  0  0
   48.6690   35.1840   41.1670 C   0  0  0  0  0  0  0  0  0  0  0  0
   48.1690   34.6660   40.0070 C   0  0  0  0  0  0  0  0  0  0  0  0
   47.0310   33.8900   40.0790 C   0  0  0  0  0  0  0  0  0  0  0  0
   46.4730   33.3380   38.9550 C   0  0  0  0  0  0  0  0  0  0  0  0
   45.3470   32.5600   38.9710 C   0  0  0  0  0  0  0  0  0  0  0  0
   44.7680   32.3440   40.2170 C   0  0  0  0  0  0  0  0  0  0  0  0
   45.3540   32.9140   41.3330 C   0  0  0  0  0  0  0  0  0  0  0  0
   46.4600   33.6730   41.2930 C   0  0  0  0  0  0  0  0  0  0  0  0
   48.5250   35.3880   43.2270 H   0  0  0  0  0  0  0  0  0  0  0  0
   49.5600   35.7910   41.1000 H   0  0  0  0  0  0  0  0  0  0  0  0
   48.6470   34.8570   39.0600 H   0  0  0  0  0  0  0  0  0  0  0  0
   46.9310   33.5100   37.9760 H   0  0  0  0  0  0  0  0  0  0  0  0
   44.9220   32.1330   38.0680 H   0  0  0  0  0  0  0  0  0  0  0  0
   43.8760   31.7250   40.2040 H   0  0  0  0  0  0  0  0  0  0  0  0
   45.0770   34.5280   45.7620 C   0  0  0  0  0  0  0  0  0  0  0  0
   45.4790   34.8420   44.4660 C   0  0  0  0  0  0  0  0  0  0  0  0
   46.3810   33.9920   43.8220 C   0  0  0  0  0  0  0  0  0  0  0  0
   46.7940   32.9020   44.5510 N   0  0  0  0  0  0  0  0  0  0  0  0
   46.3890   32.6370   45.7810 C   0  0  0  0  0  0  0  0  0  0  0  0
   45.5360   33.4550   46.3700 N   0  0  0  0  0  0  0  0  0  0  0  0
   44.3800   35.2040   46.2320 H   0  0  0  0  0  0  0  0  0  0  0  0
   46.9850   31.3870   46.3600 C   0  0  0  0  0  0  0  0  0  0  0  0
   46.0210   30.4710   46.6970 F   0  0  0  0  0  0  0  0  0  0  0  0
   47.7920   31.6990   47.4350 F   0  0  0  0  0  0  0  0  0  0  0  0
   47.8850   30.8460   45.4120 F   0  0  0  0  0  0  0  0  0  0  0  0
   45.0260   36.0200   43.6950 C   0  0  0  0  0  0  0  0  0  0  0  0
   43.9020   35.6170   42.9620 F   0  0  0  0  0  0  0  0  0  0  0  0
   45.9550   36.4520   42.7680 F   0  0  0  0  0  0  0  0  0  0  0  0
   44.5800   37.0520   44.5100 F   0  0  0  0  0  0  0  0  0  0  0  0
   44.6230   32.5850   42.5150 N   0  0  0  0  0  0  0  0  0  0  0  0
   44.6560   31.8000   43.2000 H   0  0  0  0  0  0  0  0  0  0  0  0
   43.8340   33.0300   43.0300 H   0  0  0  0  0  0  0  0  0  0  0  0
  1 19  1  0  0  0  0
  2  1  1  0  0  0  0
  2 11  1  0  0  0  0
  3  2  2  0  0  0  0
  4  5  2  0  0  0  0
  4  3  1  0  0  0  0
  5 10  1  0  0  0  0
  6  7  2  0  0  0  0
  6  5  1  0  0  0  0
  7  8  1  0  0  0  0
  8  9  2  0  0  0  0
  9 32  1  0  0  0  0
 10  9  1  0  0  0  0
 10  1  2  0  0  0  0
 12  3  1  0  0  0  0
 13  4  1  0  0  0  0
 14  6  1  0  0  0  0
 15  7  1  0  0  0  0
 16  8  1  0  0  0  0
 17 23  1  0  0  0  0
 17 22  1  0  0  0  0
 18 17  2  0  0  0  0
 19 18  1  0  0  0  0
 19 20  2  0  0  0  0
 20 21  1  0  0  0  0
 21 24  1  0  0  0  0
 21 22  2  0  0  0  0
 24 25  1  0  0  0  0
 24 26  1  0  0  0  0
 27 24  1  0  0  0  0
 28 18  1  0  0  0  0
 28 31  1  0  0  0  0
 29 28  1  0  0  0  0
 30 28  1  0  0  0  0
 32 34  1  0  0  0  0
 32 33  1  0  0  0  0
M  END
>  <minimizedAffinity>
-6.57844591

>  <minimizedRMSD>
1.41640961

$$$$
