
 OpenBabel03252500533D

 19 19  0  0  0  0  0  0  0  0999 V2000
   46.9600   33.4360   43.8320 C   0  0  0  0  0  0  0  0  0  0  0  0
   46.0530   34.4860   43.7490 C   0  0  0  0  0  0  0  0  0  0  0  0
   45.2640   34.6750   44.9190 C   0  0  0  0  0  0  0  0  0  0  0  0
   45.4410   33.8570   45.9860 N   0  0  0  0  0  0  0  0  0  0  0  0
   46.3360   32.8570   46.0030 C   0  0  0  0  0  0  0  0  0  0  0  0
   47.0860   32.6580   44.9260 N   0  0  0  0  0  0  0  0  0  0  0  0
   44.5110   35.4340   45.0430 H   0  0  0  0  0  0  0  0  0  0  0  0
   46.5100   32.1830   46.8280 H   0  0  0  0  0  0  0  0  0  0  0  0
   45.7820   35.4420   42.6830 C   0  0  0  0  0  0  0  0  0  0  0  0
   47.0060   35.9430   42.1570 F   0  0  0  0  0  0  0  0  0  0  0  0
   45.0440   36.5290   42.9850 F   0  0  0  0  0  0  0  0  0  0  0  0
   45.3310   34.7590   41.5240 F   0  0  0  0  0  0  0  0  0  0  0  0
   47.7860   33.1760   42.6410 C   0  0  0  0  0  0  0  0  0  0  0  0
   47.8840   32.0900   42.4820 H   0  0  0  0  0  0  0  0  0  0  0  0
   47.3260   33.5510   41.7010 H   0  0  0  0  0  0  0  0  0  0  0  0
   49.1720   33.7210   42.8580 C   0  0  0  0  0  0  0  0  0  0  0  0
   49.4510   33.7870   43.9200 H   0  0  0  0  0  0  0  0  0  0  0  0
   49.9470   32.9530   42.4700 H   0  0  0  0  0  0  0  0  0  0  0  0
   49.3910   34.5990   42.2270 H   0  0  0  0  0  0  0  0  0  0  0  0
  1  6  1  0  0  0  0
  2  1  2  0  0  0  0
  2  3  1  0  0  0  0
  3  7  1  0  0  0  0
  3  4  2  0  0  0  0
  4  5  1  0  0  0  0
  5  8  1  0  0  0  0
  6  5  2  0  0  0  0
  9 11  1  0  0  0  0
  9  2  1  0  0  0  0
 10  9  1  0  0  0  0
 12  9  1  0  0  0  0
 13 16  1  0  0  0  0
 13  1  1  0  0  0  0
 14 13  1  0  0  0  0
 15 13  1  0  0  0  0
 16 17  1  0  0  0  0
 18 16  1  0  0  0  0
 19 16  1  0  0  0  0
M  END
>  <minimizedAffinity>
-3.71383762

>  <minimizedRMSD>
1.84033334

$$$$
