
 OpenBabel03252505563D

 31 32  0  0  0  0  0  0  0  0999 V2000
   45.7690   32.7220   47.6570 O   0  0  0  0  0  0  0  0  0  0  0  0
   44.9430   34.9750   45.0250 C   0  0  0  0  0  0  0  0  0  0  0  0
   45.8340   34.6240   44.0140 C   0  0  0  0  0  0  0  0  0  0  0  0
   46.7430   33.5760   44.2640 C   0  0  0  0  0  0  0  0  0  0  0  0
   46.6870   32.9790   45.4730 N   0  0  0  0  0  0  0  0  0  0  0  0
   45.8180   33.3420   46.4180 C   0  0  0  0  0  0  0  0  0  0  0  0
   44.9520   34.3280   46.2050 N   0  0  0  0  0  0  0  0  0  0  0  0
   44.2370   35.7900   44.8310 H   0  0  0  0  0  0  0  0  0  0  0  0
   45.7860   35.3480   42.7070 C   0  0  0  0  0  0  0  0  0  0  0  0
   44.8900   36.3820   42.9290 F   0  0  0  0  0  0  0  0  0  0  0  0
   45.2100   34.4710   41.7840 F   0  0  0  0  0  0  0  0  0  0  0  0
   47.0030   35.7760   42.3530 F   0  0  0  0  0  0  0  0  0  0  0  0
   47.7510   33.1440   43.2670 C   0  0  0  0  0  0  0  0  0  0  0  0
   48.7000   34.1840   43.1750 F   0  0  0  0  0  0  0  0  0  0  0  0
   48.4510   32.0260   43.6130 F   0  0  0  0  0  0  0  0  0  0  0  0
   47.2420   33.1060   41.9670 F   0  0  0  0  0  0  0  0  0  0  0  0
   45.3280   31.4020   47.8060 C   0  0  0  0  0  0  0  0  0  0  0  0
   44.7490   31.2830   48.7370 H   0  0  0  0  0  0  0  0  0  0  0  0
   44.7430   31.0700   46.9260 H   0  0  0  0  0  0  0  0  0  0  0  0
   46.5160   30.5450   47.9020 C   0  0  0  0  0  0  0  0  0  0  0  0
   46.7370   29.2750   47.3930 C   0  0  0  0  0  0  0  0  0  0  0  0
   47.9540   28.6930   47.6300 C   0  0  0  0  0  0  0  0  0  0  0  0
   48.9080   29.3030   48.3220 N   0  0  0  0  0  0  0  0  0  0  0  0
   48.6900   30.5290   48.8130 C   0  0  0  0  0  0  0  0  0  0  0  0
   47.4970   31.1630   48.6100 N   0  0  0  0  0  0  0  0  0  0  0  0
   45.8810   28.8910   46.8480 H   0  0  0  0  0  0  0  0  0  0  0  0
   48.0730   27.7000   47.2090 H   0  0  0  0  0  0  0  0  0  0  0  0
   49.8190   31.1200   49.5710 C   0  0  0  0  0  0  0  0  0  0  0  0
   49.8120   32.4890   49.4860 F   0  0  0  0  0  0  0  0  0  0  0  0
   51.0340   30.6380   49.0820 F   0  0  0  0  0  0  0  0  0  0  0  0
   49.7650   30.7820   50.9090 F   0  0  0  0  0  0  0  0  0  0  0  0
  1 17  1  0  0  0  0
  2  7  1  0  0  0  0
  3  4  1  0  0  0  0
  3  2  2  0  0  0  0
  4  5  2  0  0  0  0
  5  6  1  0  0  0  0
  6  1  1  0  0  0  0
  7  6  2  0  0  0  0
  8  2  1  0  0  0  0
  9 10  1  0  0  0  0
  9  3  1  0  0  0  0
 11  9  1  0  0  0  0
 12  9  1  0  0  0  0
 13 15  1  0  0  0  0
 13  4  1  0  0  0  0
 14 13  1  0  0  0  0
 16 13  1  0  0  0  0
 17 20  1  0  0  0  0
 17 18  1  0  0  0  0
 19 17  1  0  0  0  0
 20 25  1  0  0  0  0
 21 22  1  0  0  0  0
 21 20  2  0  0  0  0
 22 23  2  0  0  0  0
 23 24  1  0  0  0  0
 24 28  1  0  0  0  0
 25 24  2  0  0  0  0
 26 21  1  0  0  0  0
 27 22  1  0  0  0  0
 28 31  1  0  0  0  0
 29 28  1  0  0  0  0
 30 28  1  0  0  0  0
M  END
>  <minimizedAffinity>
-5.81914186

>  <minimizedRMSD>
0.2364586

$$$$
