
 OpenBabel03252504503D

 19 19  0  0  0  0  0  0  0  0999 V2000
   36.2270   30.2300   41.0430 C   0  0  0  0  0  0  0  0  0  0  0  0
   37.1260   29.4610   41.7730 C   0  0  0  0  0  0  0  0  0  0  0  0
   38.4120   29.9740   41.9400 C   0  0  0  0  0  0  0  0  0  0  0  0
   38.7190   31.1810   41.3930 N   0  0  0  0  0  0  0  0  0  0  0  0
   37.8110   31.8990   40.6880 C   0  0  0  0  0  0  0  0  0  0  0  0
   36.5630   31.4230   40.5130 N   0  0  0  0  0  0  0  0  0  0  0  0
   35.2210   29.8480   40.9010 H   0  0  0  0  0  0  0  0  0  0  0  0
   39.1450   29.4130   42.4980 H   0  0  0  0  0  0  0  0  0  0  0  0
   38.1740   33.2180   40.0990 C   0  0  0  0  0  0  0  0  0  0  0  0
   37.0310   33.8010   39.5660 F   0  0  0  0  0  0  0  0  0  0  0  0
   38.6500   34.0530   41.0900 F   0  0  0  0  0  0  0  0  0  0  0  0
   39.1460   33.0580   39.1100 F   0  0  0  0  0  0  0  0  0  0  0  0
   36.6960   28.1950   42.3140 C   0  0  0  0  0  0  0  0  0  0  0  0
   36.9130   27.3680   41.6320 H   0  0  0  0  0  0  0  0  0  0  0  0
   35.5740   28.2230   42.4460 H   0  0  0  0  0  0  0  0  0  0  0  0
   37.3290   27.9980   43.6800 C   0  0  0  0  0  0  0  0  0  0  0  0
   38.1690   27.2650   43.6350 H   0  0  0  0  0  0  0  0  0  0  0  0
   36.5940   27.6470   44.4380 H   0  0  0  0  0  0  0  0  0  0  0  0
   37.7620   28.9600   44.0580 H   0  0  0  0  0  0  0  0  0  0  0  0
  1  2  1  0  0  0  0
  2  3  2  0  0  0  0
  2 13  1  0  0  0  0
  3  8  1  0  0  0  0
  4  3  1  0  0  0  0
  5  4  2  0  0  0  0
  6  5  1  0  0  0  0
  6  1  2  0  0  0  0
  7  1  1  0  0  0  0
  9  5  1  0  0  0  0
  9 11  1  0  0  0  0
 10  9  1  0  0  0  0
 12  9  1  0  0  0  0
 13 15  1  0  0  0  0
 13 16  1  0  0  0  0
 14 13  1  0  0  0  0
 16 19  1  0  0  0  0
 16 18  1  0  0  0  0
 17 16  1  0  0  0  0
M  END
>  <minimizedAffinity>
-4.02306652

$$$$

 OpenBabel03252504503D

 19 19  0  0  0  0  0  0  0  0999 V2000
   37.9420   30.3840   40.9560 C   0  0  0  0  0  0  0  0  0  0  0  0
   36.8980   30.5600   40.0550 C   0  0  0  0  0  0  0  0  0  0  0  0
   35.8510   29.6400   40.1060 C   0  0  0  0  0  0  0  0  0  0  0  0
   35.8980   28.6340   41.0210 N   0  0  0  0  0  0  0  0  0  0  0  0
   36.9360   28.4990   41.8830 C   0  0  0  0  0  0  0  0  0  0  0  0
   37.9590   29.3760   41.8500 N   0  0  0  0  0  0  0  0  0  0  0  0
   38.7660   31.0890   40.9320 H   0  0  0  0  0  0  0  0  0  0  0  0
   35.0190   29.7350   39.4270 H   0  0  0  0  0  0  0  0  0  0  0  0
   36.9630   27.3880   42.8740 C   0  0  0  0  0  0  0  0  0  0  0  0
   37.0340   26.1800   42.1910 F   0  0  0  0  0  0  0  0  0  0  0  0
   38.0930   27.4940   43.6590 F   0  0  0  0  0  0  0  0  0  0  0  0
   35.8240   27.4260   43.6800 F   0  0  0  0  0  0  0  0  0  0  0  0
   36.9440   31.6630   39.1270 C   0  0  0  0  0  0  0  0  0  0  0  0
   35.9880   31.8060   38.6170 H   0  0  0  0  0  0  0  0  0  0  0  0
   37.7080   31.4290   38.3270 H   0  0  0  0  0  0  0  0  0  0  0  0
   37.3960   32.9120   39.8640 C   0  0  0  0  0  0  0  0  0  0  0  0
   36.5410   33.6010   40.0560 H   0  0  0  0  0  0  0  0  0  0  0  0
   38.1810   33.4700   39.3040 H   0  0  0  0  0  0  0  0  0  0  0  0
   37.8270   32.6470   40.8640 H   0  0  0  0  0  0  0  0  0  0  0  0
  1  6  1  0  0  0  0
  2  3  1  0  0  0  0
  2  1  2  0  0  0  0
  3  4  2  0  0  0  0
  4  5  1  0  0  0  0
  5  9  1  0  0  0  0
  6  5  2  0  0  0  0
  7  1  1  0  0  0  0
  8  3  1  0  0  0  0
  9 11  1  0  0  0  0
  9 12  1  0  0  0  0
 10  9  1  0  0  0  0
 13 16  1  0  0  0  0
 13  2  1  0  0  0  0
 14 13  1  0  0  0  0
 15 13  1  0  0  0  0
 16 17  1  0  0  0  0
 16 19  1  0  0  0  0
 18 16  1  0  0  0  0
M  END
>  <minimizedAffinity>
-3.99962592

$$$$

 OpenBabel03252504503D

 19 19  0  0  0  0  0  0  0  0999 V2000
   38.2950   29.7600   41.7700 C   0  0  0  0  0  0  0  0  0  0  0  0
   37.0070   29.2580   41.6250 C   0  0  0  0  0  0  0  0  0  0  0  0
   36.0800   30.0650   40.9660 C   0  0  0  0  0  0  0  0  0  0  0  0
   36.4740   31.2830   40.5030 N   0  0  0  0  0  0  0  0  0  0  0  0
   37.7420   31.7340   40.6640 C   0  0  0  0  0  0  0  0  0  0  0  0
   38.6540   30.9710   41.2990 N   0  0  0  0  0  0  0  0  0  0  0  0
   39.0310   29.1470   42.2800 H   0  0  0  0  0  0  0  0  0  0  0  0
   35.0680   29.7200   40.8300 H   0  0  0  0  0  0  0  0  0  0  0  0
   38.1460   33.0710   40.1480 C   0  0  0  0  0  0  0  0  0  0  0  0
   39.0270   32.8940   39.0870 F   0  0  0  0  0  0  0  0  0  0  0  0
   37.0370   33.7360   39.6670 F   0  0  0  0  0  0  0  0  0  0  0  0
   38.7460   33.8220   41.1590 F   0  0  0  0  0  0  0  0  0  0  0  0
   36.6950   27.9520   42.1510 C   0  0  0  0  0  0  0  0  0  0  0  0
   37.2100   27.1590   41.6010 H   0  0  0  0  0  0  0  0  0  0  0  0
   35.5860   27.7690   42.0240 H   0  0  0  0  0  0  0  0  0  0  0  0
   37.0120   27.9250   43.6350 C   0  0  0  0  0  0  0  0  0  0  0  0
   37.9560   27.3660   43.8370 H   0  0  0  0  0  0  0  0  0  0  0  0
   36.1930   27.4660   44.2330 H   0  0  0  0  0  0  0  0  0  0  0  0
   37.1640   28.9650   44.0260 H   0  0  0  0  0  0  0  0  0  0  0  0
  1  7  1  0  0  0  0
  2  1  1  0  0  0  0
  2 13  1  0  0  0  0
  3  2  2  0  0  0  0
  4  5  2  0  0  0  0
  4  3  1  0  0  0  0
  5  6  1  0  0  0  0
  6  1  2  0  0  0  0
  8  3  1  0  0  0  0
  9  5  1  0  0  0  0
  9 12  1  0  0  0  0
 10  9  1  0  0  0  0
 11  9  1  0  0  0  0
 13 16  1  0  0  0  0
 14 13  1  0  0  0  0
 15 13  1  0  0  0  0
 16 17  1  0  0  0  0
 16 19  1  0  0  0  0
 16 18  1  0  0  0  0
M  END
>  <minimizedAffinity>
-3.98320317

$$$$

 OpenBabel03252504503D

 19 19  0  0  0  0  0  0  0  0999 V2000
   39.1120   30.2570   42.3910 C   0  0  0  0  0  0  0  0  0  0  0  0
   37.9910   29.4430   42.5070 C   0  0  0  0  0  0  0  0  0  0  0  0
   36.8720   29.7900   41.7500 C   0  0  0  0  0  0  0  0  0  0  0  0
   36.9310   30.8870   40.9470 N   0  0  0  0  0  0  0  0  0  0  0  0
   38.0460   31.6530   40.8630 C   0  0  0  0  0  0  0  0  0  0  0  0
   39.1380   31.3370   41.5860 N   0  0  0  0  0  0  0  0  0  0  0  0
   39.9930   30.0040   42.9720 H   0  0  0  0  0  0  0  0  0  0  0  0
   35.9790   29.1900   41.8060 H   0  0  0  0  0  0  0  0  0  0  0  0
   38.0820   32.8490   39.9770 C   0  0  0  0  0  0  0  0  0  0  0  0
   38.4500   33.9560   40.7320 F   0  0  0  0  0  0  0  0  0  0  0  0
   39.0390   32.6720   38.9980 F   0  0  0  0  0  0  0  0  0  0  0  0
   36.8350   33.0560   39.3850 F   0  0  0  0  0  0  0  0  0  0  0  0
   38.0360   28.3000   43.3850 C   0  0  0  0  0  0  0  0  0  0  0  0
   38.3050   28.5830   44.4060 H   0  0  0  0  0  0  0  0  0  0  0  0
   38.8420   27.5970   43.0190 H   0  0  0  0  0  0  0  0  0  0  0  0
   36.7050   27.5710   43.3200 C   0  0  0  0  0  0  0  0  0  0  0  0
   36.0890   27.7710   44.2290 H   0  0  0  0  0  0  0  0  0  0  0  0
   36.8320   26.4700   43.2140 H   0  0  0  0  0  0  0  0  0  0  0  0
   36.1040   27.9210   42.4410 H   0  0  0  0  0  0  0  0  0  0  0  0
  1  2  1  0  0  0  0
  1  7  1  0  0  0  0
  2 13  1  0  0  0  0
  3  8  1  0  0  0  0
  3  2  2  0  0  0  0
  4  3  1  0  0  0  0
  5  4  2  0  0  0  0
  5  6  1  0  0  0  0
  6  1  2  0  0  0  0
  9 10  1  0  0  0  0
  9  5  1  0  0  0  0
 11  9  1  0  0  0  0
 12  9  1  0  0  0  0
 13 14  1  0  0  0  0
 15 13  1  0  0  0  0
 16 13  1  0  0  0  0
 16 17  1  0  0  0  0
 18 16  1  0  0  0  0
 19 16  1  0  0  0  0
M  END
>  <minimizedAffinity>
-3.9281981

$$$$

 OpenBabel03252504503D

 19 19  0  0  0  0  0  0  0  0999 V2000
   36.9050   29.7070   41.8360 C   0  0  0  0  0  0  0  0  0  0  0  0
   38.0060   29.3720   42.6170 C   0  0  0  0  0  0  0  0  0  0  0  0
   39.1400   30.1740   42.4960 C   0  0  0  0  0  0  0  0  0  0  0  0
   39.1150   31.2300   41.6370 N   0  0  0  0  0  0  0  0  0  0  0  0
   38.0200   31.5220   40.8940 C   0  0  0  0  0  0  0  0  0  0  0  0
   36.9130   30.7590   40.9950 N   0  0  0  0  0  0  0  0  0  0  0  0
   36.0130   29.0940   41.9160 H   0  0  0  0  0  0  0  0  0  0  0  0
   40.0190   29.9540   43.0800 H   0  0  0  0  0  0  0  0  0  0  0  0
   38.0200   32.6820   39.9610 C   0  0  0  0  0  0  0  0  0  0  0  0
   38.9710   32.4620   38.9720 F   0  0  0  0  0  0  0  0  0  0  0  0
   36.7890   32.7830   39.3460 F   0  0  0  0  0  0  0  0  0  0  0  0
   38.3000   33.8630   40.6520 F   0  0  0  0  0  0  0  0  0  0  0  0
   37.9260   28.2340   43.4990 C   0  0  0  0  0  0  0  0  0  0  0  0
   38.0600   28.5200   44.5450 H   0  0  0  0  0  0  0  0  0  0  0  0
   38.7680   27.5230   43.2460 H   0  0  0  0  0  0  0  0  0  0  0  0
   36.6110   27.5130   43.2620 C   0  0  0  0  0  0  0  0  0  0  0  0
   35.8810   27.7220   44.0800 H   0  0  0  0  0  0  0  0  0  0  0  0
   36.7430   26.4110   43.1780 H   0  0  0  0  0  0  0  0  0  0  0  0
   36.1340   27.8630   42.3090 H   0  0  0  0  0  0  0  0  0  0  0  0
  1  7  1  0  0  0  0
  1  2  1  0  0  0  0
  2 13  1  0  0  0  0
  3  2  2  0  0  0  0
  3  8  1  0  0  0  0
  4  3  1  0  0  0  0
  5  6  1  0  0  0  0
  5  4  2  0  0  0  0
  6  1  2  0  0  0  0
  9 12  1  0  0  0  0
  9  5  1  0  0  0  0
 10  9  1  0  0  0  0
 11  9  1  0  0  0  0
 13 14  1  0  0  0  0
 15 13  1  0  0  0  0
 16 13  1  0  0  0  0
 16 17  1  0  0  0  0
 18 16  1  0  0  0  0
 19 16  1  0  0  0  0
M  END
>  <minimizedAffinity>
-3.91630554

$$$$

 OpenBabel03252504503D

 19 19  0  0  0  0  0  0  0  0999 V2000
   37.7000   26.9740   42.0140 C   0  0  0  0  0  0  0  0  0  0  0  0
   38.5940   27.5210   42.9280 C   0  0  0  0  0  0  0  0  0  0  0  0
   38.5970   28.9090   43.0620 C   0  0  0  0  0  0  0  0  0  0  0  0
   37.7390   29.6490   42.3080 N   0  0  0  0  0  0  0  0  0  0  0  0
   36.8820   29.0750   41.4290 C   0  0  0  0  0  0  0  0  0  0  0  0
   36.8630   27.7350   41.2820 N   0  0  0  0  0  0  0  0  0  0  0  0
   37.6820   25.8960   41.8940 H   0  0  0  0  0  0  0  0  0  0  0  0
   39.2740   29.3790   43.7570 H   0  0  0  0  0  0  0  0  0  0  0  0
   35.9550   29.9090   40.6160 C   0  0  0  0  0  0  0  0  0  0  0  0
   34.7010   29.3080   40.6100 F   0  0  0  0  0  0  0  0  0  0  0  0
   35.8220   31.1540   41.1960 F   0  0  0  0  0  0  0  0  0  0  0  0
   36.4360   30.0440   39.3130 F   0  0  0  0  0  0  0  0  0  0  0  0
   39.4590   26.6450   43.6800 C   0  0  0  0  0  0  0  0  0  0  0  0
   39.4030   25.6140   43.3210 H   0  0  0  0  0  0  0  0  0  0  0  0
   39.1120   26.6350   44.7560 H   0  0  0  0  0  0  0  0  0  0  0  0
   40.8740   27.1930   43.6430 C   0  0  0  0  0  0  0  0  0  0  0  0
   41.5170   26.6080   42.9440 H   0  0  0  0  0  0  0  0  0  0  0  0
   41.3530   27.1920   44.6480 H   0  0  0  0  0  0  0  0  0  0  0  0
   40.8800   28.2520   43.2750 H   0  0  0  0  0  0  0  0  0  0  0  0
  1  2  1  0  0  0  0
  2  3  2  0  0  0  0
  2 13  1  0  0  0  0
  3  8  1  0  0  0  0
  4  3  1  0  0  0  0
  5  4  2  0  0  0  0
  6  5  1  0  0  0  0
  6  1  2  0  0  0  0
  7  1  1  0  0  0  0
  9 11  1  0  0  0  0
  9  5  1  0  0  0  0
 10  9  1  0  0  0  0
 12  9  1  0  0  0  0
 13 15  1  0  0  0  0
 14 13  1  0  0  0  0
 16 13  1  0  0  0  0
 16 18  1  0  0  0  0
 17 16  1  0  0  0  0
 19 16  1  0  0  0  0
M  END
>  <minimizedAffinity>
-3.84576654

$$$$

 OpenBabel03252504503D

 19 19  0  0  0  0  0  0  0  0999 V2000
   36.1490   27.6640   39.3820 C   0  0  0  0  0  0  0  0  0  0  0  0
   35.6760   28.9410   39.1020 C   0  0  0  0  0  0  0  0  0  0  0  0
   35.6540   29.8560   40.1540 C   0  0  0  0  0  0  0  0  0  0  0  0
   36.0900   29.4640   41.3820 N   0  0  0  0  0  0  0  0  0  0  0  0
   36.5440   28.2080   41.6120 C   0  0  0  0  0  0  0  0  0  0  0  0
   36.5740   27.3070   40.6100 N   0  0  0  0  0  0  0  0  0  0  0  0
   36.1740   26.9370   38.5770 H   0  0  0  0  0  0  0  0  0  0  0  0
   35.2950   30.8590   39.9860 H   0  0  0  0  0  0  0  0  0  0  0  0
   37.0150   27.8040   42.9660 C   0  0  0  0  0  0  0  0  0  0  0  0
   35.9400   27.2850   43.6780 F   0  0  0  0  0  0  0  0  0  0  0  0
   37.9630   26.8080   42.8500 F   0  0  0  0  0  0  0  0  0  0  0  0
   37.5610   28.8990   43.6380 F   0  0  0  0  0  0  0  0  0  0  0  0
   35.2410   29.2550   37.7640 C   0  0  0  0  0  0  0  0  0  0  0  0
   35.8910   28.8030   37.0090 H   0  0  0  0  0  0  0  0  0  0  0  0
   35.3030   30.3750   37.6180 H   0  0  0  0  0  0  0  0  0  0  0  0
   33.7910   28.8360   37.6020 C   0  0  0  0  0  0  0  0  0  0  0  0
   33.7050   27.8980   37.0050 H   0  0  0  0  0  0  0  0  0  0  0  0
   33.1760   29.6250   37.1120 H   0  0  0  0  0  0  0  0  0  0  0  0
   33.3260   28.6260   38.6000 H   0  0  0  0  0  0  0  0  0  0  0  0
  1  6  1  0  0  0  0
  2  1  2  0  0  0  0
  2  3  1  0  0  0  0
  3  4  2  0  0  0  0
  4  5  1  0  0  0  0
  5  9  1  0  0  0  0
  6  5  2  0  0  0  0
  7  1  1  0  0  0  0
  8  3  1  0  0  0  0
  9 12  1  0  0  0  0
  9 10  1  0  0  0  0
 11  9  1  0  0  0  0
 13  2  1  0  0  0  0
 14 13  1  0  0  0  0
 15 13  1  0  0  0  0
 16 13  1  0  0  0  0
 16 19  1  0  0  0  0
 17 16  1  0  0  0  0
 18 16  1  0  0  0  0
M  END
>  <minimizedAffinity>
-3.82088375

$$$$

 OpenBabel03252504503D

 19 19  0  0  0  0  0  0  0  0999 V2000
   36.9630   26.0530   40.4120 C   0  0  0  0  0  0  0  0  0  0  0  0
   37.2970   25.8890   41.7520 C   0  0  0  0  0  0  0  0  0  0  0  0
   37.0120   26.9480   42.6130 C   0  0  0  0  0  0  0  0  0  0  0  0
   36.4290   28.0710   42.1100 N   0  0  0  0  0  0  0  0  0  0  0  0
   36.1190   28.1890   40.7960 C   0  0  0  0  0  0  0  0  0  0  0  0
   36.3870   27.1780   39.9460 N   0  0  0  0  0  0  0  0  0  0  0  0
   37.1780   25.2400   39.7250 H   0  0  0  0  0  0  0  0  0  0  0  0
   37.2530   26.8680   43.6600 H   0  0  0  0  0  0  0  0  0  0  0  0
   35.4830   29.4290   40.2730 C   0  0  0  0  0  0  0  0  0  0  0  0
   35.9860   29.6910   39.0050 F   0  0  0  0  0  0  0  0  0  0  0  0
   34.1210   29.2370   40.1540 F   0  0  0  0  0  0  0  0  0  0  0  0
   35.7340   30.5040   41.1280 F   0  0  0  0  0  0  0  0  0  0  0  0
   37.9090   24.6550   42.1810 C   0  0  0  0  0  0  0  0  0  0  0  0
   37.6010   24.3800   43.1930 H   0  0  0  0  0  0  0  0  0  0  0  0
   39.0300   24.8010   42.2100 H   0  0  0  0  0  0  0  0  0  0  0  0
   37.6000   23.5690   41.1670 C   0  0  0  0  0  0  0  0  0  0  0  0
   36.8150   22.8720   41.5470 H   0  0  0  0  0  0  0  0  0  0  0  0
   38.5010   22.9730   40.8980 H   0  0  0  0  0  0  0  0  0  0  0  0
   37.2020   24.0130   40.2180 H   0  0  0  0  0  0  0  0  0  0  0  0
  1  2  1  0  0  0  0
  2 13  1  0  0  0  0
  2  3  2  0  0  0  0
  3  8  1  0  0  0  0
  4  3  1  0  0  0  0
  5  4  2  0  0  0  0
  6  1  2  0  0  0  0
  6  5  1  0  0  0  0
  7  1  1  0  0  0  0
  9  5  1  0  0  0  0
  9 12  1  0  0  0  0
 10  9  1  0  0  0  0
 11  9  1  0  0  0  0
 13 15  1  0  0  0  0
 13 14  1  0  0  0  0
 16 17  1  0  0  0  0
 16 13  1  0  0  0  0
 18 16  1  0  0  0  0
 19 16  1  0  0  0  0
M  END
>  <minimizedAffinity>
-3.73087716

$$$$

 OpenBabel03252504503D

 19 19  0  0  0  0  0  0  0  0999 V2000
   37.0470   26.7310   40.6130 C   0  0  0  0  0  0  0  0  0  0  0  0
   37.0460   26.2790   41.9290 C   0  0  0  0  0  0  0  0  0  0  0  0
   37.0440   27.2470   42.9330 C   0  0  0  0  0  0  0  0  0  0  0  0
   37.0430   28.5630   42.5850 N   0  0  0  0  0  0  0  0  0  0  0  0
   37.0440   28.9600   41.2890 C   0  0  0  0  0  0  0  0  0  0  0  0
   37.0460   28.0420   40.3020 N   0  0  0  0  0  0  0  0  0  0  0  0
   37.0490   25.9940   39.8170 H   0  0  0  0  0  0  0  0  0  0  0  0
   37.0440   26.9460   43.9680 H   0  0  0  0  0  0  0  0  0  0  0  0
   37.0430   30.4060   40.9360 C   0  0  0  0  0  0  0  0  0  0  0  0
   36.9620   30.5300   39.5540 F   0  0  0  0  0  0  0  0  0  0  0  0
   35.9310   31.0150   41.4800 F   0  0  0  0  0  0  0  0  0  0  0  0
   38.2000   31.0240   41.4130 F   0  0  0  0  0  0  0  0  0  0  0  0
   37.0440   24.8610   42.1880 C   0  0  0  0  0  0  0  0  0  0  0  0
   36.4470   24.6100   43.0690 H   0  0  0  0  0  0  0  0  0  0  0  0
   38.1030   24.5340   42.4090 H   0  0  0  0  0  0  0  0  0  0  0  0
   36.5720   24.1290   40.9440 C   0  0  0  0  0  0  0  0  0  0  0  0
   35.5220   23.7690   41.0600 H   0  0  0  0  0  0  0  0  0  0  0  0
   37.2190   23.2580   40.6970 H   0  0  0  0  0  0  0  0  0  0  0  0
   36.5820   24.8120   40.0550 H   0  0  0  0  0  0  0  0  0  0  0  0
  1  2  1  0  0  0  0
  2 13  1  0  0  0  0
  2  3  2  0  0  0  0
  3  8  1  0  0  0  0
  4  3  1  0  0  0  0
  5  4  2  0  0  0  0
  6  1  2  0  0  0  0
  6  5  1  0  0  0  0
  7  1  1  0  0  0  0
  9  5  1  0  0  0  0
  9 12  1  0  0  0  0
  9 11  1  0  0  0  0
 10  9  1  0  0  0  0
 13 15  1  0  0  0  0
 13 14  1  0  0  0  0
 16 17  1  0  0  0  0
 16 13  1  0  0  0  0
 18 16  1  0  0  0  0
 19 16  1  0  0  0  0
M  END
>  <minimizedAffinity>
-3.66202807

$$$$
