
 OpenBabel03252501563D

 16 16  0  0  0  0  0  0  0  0999 V2000
   39.1680   24.5570   42.5740 C   0  0  0  0  0  0  0  0  0  0  0  0
   38.0720   25.4210   42.4910 C   0  0  0  0  0  0  0  0  0  0  0  0
   38.2130   26.6880   43.0380 C   0  0  0  0  0  0  0  0  0  0  0  0
   39.3880   27.0140   43.6160 N   0  0  0  0  0  0  0  0  0  0  0  0
   40.4310   26.1520   43.6800 C   0  0  0  0  0  0  0  0  0  0  0  0
   40.3330   24.9090   43.1580 N   0  0  0  0  0  0  0  0  0  0  0  0
   39.1710   23.5300   42.1750 H   0  0  0  0  0  0  0  0  0  0  0  0
   41.2960   26.5810   44.1790 H   0  0  0  0  0  0  0  0  0  0  0  0
   36.8890   24.8520   41.8160 C   0  0  0  0  0  0  0  0  0  0  0  0
   36.0640   25.5500   41.6880 H   0  0  0  0  0  0  0  0  0  0  0  0
   37.1540   24.4400   40.8210 H   0  0  0  0  0  0  0  0  0  0  0  0
   36.5070   24.0350   42.4960 H   0  0  0  0  0  0  0  0  0  0  0  0
   37.0430   27.5530   42.9280 C   0  0  0  0  0  0  0  0  0  0  0  0
   36.7110   27.7390   41.6110 F   0  0  0  0  0  0  0  0  0  0  0  0
   35.9820   27.0800   43.6740 F   0  0  0  0  0  0  0  0  0  0  0  0
   37.4070   28.8030   43.4400 F   0  0  0  0  0  0  0  0  0  0  0  0
  1  6  1  0  0  0  0
  2  1  2  0  0  0  0
  2  3  1  0  0  0  0
  3  4  2  0  0  0  0
  4  5  1  0  0  0  0
  5  8  1  0  0  0  0
  6  5  2  0  0  0  0
  7  1  1  0  0  0  0
  9  2  1  0  0  0  0
  9 12  1  0  0  0  0
 10  9  1  0  0  0  0
 11  9  1  0  0  0  0
 13  3  1  0  0  0  0
 13 16  1  0  0  0  0
 13 15  1  0  0  0  0
 14 13  1  0  0  0  0
M  END
>  <minimizedAffinity>
-3.90015364

$$$$

 OpenBabel03252501563D

 16 16  0  0  0  0  0  0  0  0999 V2000
   40.2970   27.8910   43.3040 C   0  0  0  0  0  0  0  0  0  0  0  0
   38.9280   27.8070   43.0380 C   0  0  0  0  0  0  0  0  0  0  0  0
   38.3760   26.5410   42.9110 C   0  0  0  0  0  0  0  0  0  0  0  0
   39.1840   25.4690   43.0500 N   0  0  0  0  0  0  0  0  0  0  0  0
   40.5090   25.5850   43.3070 C   0  0  0  0  0  0  0  0  0  0  0  0
   41.0830   26.8020   43.4380 N   0  0  0  0  0  0  0  0  0  0  0  0
   40.8420   28.8410   43.4250 H   0  0  0  0  0  0  0  0  0  0  0  0
   41.0040   24.6210   43.3870 H   0  0  0  0  0  0  0  0  0  0  0  0
   38.2400   29.1090   42.9270 C   0  0  0  0  0  0  0  0  0  0  0  0
   37.1630   29.0400   42.7930 H   0  0  0  0  0  0  0  0  0  0  0  0
   38.4400   29.7460   43.8130 H   0  0  0  0  0  0  0  0  0  0  0  0
   38.6430   29.5930   41.9900 H   0  0  0  0  0  0  0  0  0  0  0  0
   36.9440   26.5030   42.6340 C   0  0  0  0  0  0  0  0  0  0  0  0
   36.2420   27.0460   43.6800 F   0  0  0  0  0  0  0  0  0  0  0  0
   36.6390   27.1060   41.4300 F   0  0  0  0  0  0  0  0  0  0  0  0
   36.5770   25.1560   42.5470 F   0  0  0  0  0  0  0  0  0  0  0  0
  1  7  1  0  0  0  0
  1  6  1  0  0  0  0
  2  1  2  0  0  0  0
  3  2  1  0  0  0  0
  3  4  2  0  0  0  0
  4  5  1  0  0  0  0
  5  8  1  0  0  0  0
  5  6  2  0  0  0  0
  9  2  1  0  0  0  0
  9 11  1  0  0  0  0
 10  9  1  0  0  0  0
 12  9  1  0  0  0  0
 13  3  1  0  0  0  0
 13 14  1  0  0  0  0
 15 13  1  0  0  0  0
 16 13  1  0  0  0  0
M  END
>  <minimizedAffinity>
-3.71311426

$$$$

 OpenBabel03252501563D

 16 16  0  0  0  0  0  0  0  0999 V2000
   37.2530   30.5370   40.9440 C   0  0  0  0  0  0  0  0  0  0  0  0
   36.8090   29.2970   41.4110 C   0  0  0  0  0  0  0  0  0  0  0  0
   37.6010   28.6410   42.3420 C   0  0  0  0  0  0  0  0  0  0  0  0
   38.7470   29.2300   42.7420 N   0  0  0  0  0  0  0  0  0  0  0  0
   39.1500   30.4340   42.2700 C   0  0  0  0  0  0  0  0  0  0  0  0
   38.4050   31.1040   41.3620 N   0  0  0  0  0  0  0  0  0  0  0  0
   36.7080   31.1470   40.2060 H   0  0  0  0  0  0  0  0  0  0  0  0
   40.0940   30.7560   42.7000 H   0  0  0  0  0  0  0  0  0  0  0  0
   35.5260   28.8460   40.8350 C   0  0  0  0  0  0  0  0  0  0  0  0
   35.1470   27.9160   41.2540 H   0  0  0  0  0  0  0  0  0  0  0  0
   34.7420   29.6220   40.9440 H   0  0  0  0  0  0  0  0  0  0  0  0
   35.7320   28.6380   39.7450 H   0  0  0  0  0  0  0  0  0  0  0  0
   37.0960   27.3510   42.7990 C   0  0  0  0  0  0  0  0  0  0  0  0
   35.9620   27.5220   43.5500 F   0  0  0  0  0  0  0  0  0  0  0  0
   36.9010   26.4740   41.7500 F   0  0  0  0  0  0  0  0  0  0  0  0
   38.0690   26.8040   43.6430 F   0  0  0  0  0  0  0  0  0  0  0  0
  1  6  2  0  0  0  0
  1  2  1  0  0  0  0
  2  3  2  0  0  0  0
  3  4  1  0  0  0  0
  3 13  1  0  0  0  0
  5  8  1  0  0  0  0
  5  4  2  0  0  0  0
  6  5  1  0  0  0  0
  7  1  1  0  0  0  0
  9 11  1  0  0  0  0
  9 10  1  0  0  0  0
  9  2  1  0  0  0  0
 12  9  1  0  0  0  0
 13 14  1  0  0  0  0
 13 16  1  0  0  0  0
 15 13  1  0  0  0  0
M  END
>  <minimizedAffinity>
-3.69222498

$$$$

 OpenBabel03252501563D

 16 16  0  0  0  0  0  0  0  0999 V2000
   38.9280   28.8260   42.9440 C   0  0  0  0  0  0  0  0  0  0  0  0
   38.1660   29.5870   42.0530 C   0  0  0  0  0  0  0  0  0  0  0  0
   36.8950   29.1280   41.7410 C   0  0  0  0  0  0  0  0  0  0  0  0
   36.4680   27.9810   42.3100 N   0  0  0  0  0  0  0  0  0  0  0  0
   37.2310   27.2660   43.1700 C   0  0  0  0  0  0  0  0  0  0  0  0
   38.4760   27.6820   43.4980 N   0  0  0  0  0  0  0  0  0  0  0  0
   39.9480   29.0930   43.2630 H   0  0  0  0  0  0  0  0  0  0  0  0
   36.7290   26.3720   43.5300 H   0  0  0  0  0  0  0  0  0  0  0  0
   38.8360   30.8050   41.5540 C   0  0  0  0  0  0  0  0  0  0  0  0
   38.2150   31.4330   40.9190 H   0  0  0  0  0  0  0  0  0  0  0  0
   39.2160   31.4260   42.3920 H   0  0  0  0  0  0  0  0  0  0  0  0
   39.6880   30.4470   40.9060 H   0  0  0  0  0  0  0  0  0  0  0  0
   36.1390   29.9550   40.8080 C   0  0  0  0  0  0  0  0  0  0  0  0
   35.9220   31.1990   41.3410 F   0  0  0  0  0  0  0  0  0  0  0  0
   36.7440   30.0150   39.5680 F   0  0  0  0  0  0  0  0  0  0  0  0
   34.8860   29.3530   40.6470 F   0  0  0  0  0  0  0  0  0  0  0  0
  1  7  1  0  0  0  0
  1  6  1  0  0  0  0
  2  1  2  0  0  0  0
  3  2  1  0  0  0  0
  3  4  2  0  0  0  0
  4  5  1  0  0  0  0
  5  6  2  0  0  0  0
  5  8  1  0  0  0  0
  9  2  1  0  0  0  0
  9 11  1  0  0  0  0
 10  9  1  0  0  0  0
 12  9  1  0  0  0  0
 13 14  1  0  0  0  0
 13  3  1  0  0  0  0
 15 13  1  0  0  0  0
 16 13  1  0  0  0  0
M  END
>  <minimizedAffinity>
-3.57873917

$$$$

 OpenBabel03252501563D

 16 16  0  0  0  0  0  0  0  0999 V2000
   39.9700   29.3060   42.6270 C   0  0  0  0  0  0  0  0  0  0  0  0
   38.9290   28.3800   42.7480 C   0  0  0  0  0  0  0  0  0  0  0  0
   37.7000   28.7230   42.2040 C   0  0  0  0  0  0  0  0  0  0  0  0
   37.5770   29.9190   41.5930 N   0  0  0  0  0  0  0  0  0  0  0  0
   38.6060   30.7950   41.4920 C   0  0  0  0  0  0  0  0  0  0  0  0
   39.8190   30.4970   42.0100 N   0  0  0  0  0  0  0  0  0  0  0  0
   40.9860   29.1420   43.0200 H   0  0  0  0  0  0  0  0  0  0  0  0
   38.3280   31.7060   40.9700 H   0  0  0  0  0  0  0  0  0  0  0  0
   39.2910   27.1360   43.4560 C   0  0  0  0  0  0  0  0  0  0  0  0
   38.5010   26.3880   43.4840 H   0  0  0  0  0  0  0  0  0  0  0  0
   40.1950   26.6700   43.0120 H   0  0  0  0  0  0  0  0  0  0  0  0
   39.4820   27.4340   44.5280 H   0  0  0  0  0  0  0  0  0  0  0  0
   36.6460   27.7260   42.3550 C   0  0  0  0  0  0  0  0  0  0  0  0
   37.0090   26.5520   41.7470 F   0  0  0  0  0  0  0  0  0  0  0  0
   36.2980   27.5430   43.6790 F   0  0  0  0  0  0  0  0  0  0  0  0
   35.5220   28.2100   41.6760 F   0  0  0  0  0  0  0  0  0  0  0  0
  1  2  1  0  0  0  0
  1  7  1  0  0  0  0
  2  9  1  0  0  0  0
  3 13  1  0  0  0  0
  3  2  2  0  0  0  0
  4  3  1  0  0  0  0
  5  4  2  0  0  0  0
  5  6  1  0  0  0  0
  6  1  2  0  0  0  0
  8  5  1  0  0  0  0
  9 10  1  0  0  0  0
  9 12  1  0  0  0  0
 11  9  1  0  0  0  0
 13 15  1  0  0  0  0
 14 13  1  0  0  0  0
 16 13  1  0  0  0  0
M  END
>  <minimizedAffinity>
-3.56845975

$$$$

 OpenBabel03252501563D

 16 16  0  0  0  0  0  0  0  0999 V2000
   36.9310   25.7990   39.9180 C   0  0  0  0  0  0  0  0  0  0  0  0
   36.9890   26.0910   41.2840 C   0  0  0  0  0  0  0  0  0  0  0  0
   37.0650   27.4260   41.6510 C   0  0  0  0  0  0  0  0  0  0  0  0
   37.0800   28.3620   40.6790 N   0  0  0  0  0  0  0  0  0  0  0  0
   37.0220   28.0460   39.3630 C   0  0  0  0  0  0  0  0  0  0  0  0
   36.9470   26.7560   38.9660 N   0  0  0  0  0  0  0  0  0  0  0  0
   36.8680   24.7780   39.5100 H   0  0  0  0  0  0  0  0  0  0  0  0
   37.0450   28.9240   38.7230 H   0  0  0  0  0  0  0  0  0  0  0  0
   36.9600   24.9090   42.1680 C   0  0  0  0  0  0  0  0  0  0  0  0
   36.9310   25.1410   43.2300 H   0  0  0  0  0  0  0  0  0  0  0  0
   36.0970   24.2520   41.9320 H   0  0  0  0  0  0  0  0  0  0  0  0
   37.9330   24.3650   41.9900 H   0  0  0  0  0  0  0  0  0  0  0  0
   37.1240   27.6810   43.0860 C   0  0  0  0  0  0  0  0  0  0  0  0
   35.9280   27.3620   43.6770 F   0  0  0  0  0  0  0  0  0  0  0  0
   38.1900   27.0330   43.6800 F   0  0  0  0  0  0  0  0  0  0  0  0
   37.3100   29.0580   43.2520 F   0  0  0  0  0  0  0  0  0  0  0  0
  1  2  1  0  0  0  0
  2  3  2  0  0  0  0
  2  9  1  0  0  0  0
  3 13  1  0  0  0  0
  4  3  1  0  0  0  0
  5  4  2  0  0  0  0
  6  5  1  0  0  0  0
  6  1  2  0  0  0  0
  7  1  1  0  0  0  0
  8  5  1  0  0  0  0
  9 10  1  0  0  0  0
 11  9  1  0  0  0  0
 12  9  1  0  0  0  0
 13 16  1  0  0  0  0
 13 14  1  0  0  0  0
 13 15  1  0  0  0  0
M  END
>  <minimizedAffinity>
-3.56387877

$$$$

 OpenBabel03252501563D

 16 16  0  0  0  0  0  0  0  0999 V2000
   37.7980   26.7890   41.9470 C   0  0  0  0  0  0  0  0  0  0  0  0
   36.9940   27.5690   41.1120 C   0  0  0  0  0  0  0  0  0  0  0  0
   36.7270   28.8700   41.5120 C   0  0  0  0  0  0  0  0  0  0  0  0
   37.2520   29.3070   42.6750 N   0  0  0  0  0  0  0  0  0  0  0  0
   38.0280   28.5250   43.4630 C   0  0  0  0  0  0  0  0  0  0  0  0
   38.3110   27.2510   43.1070 N   0  0  0  0  0  0  0  0  0  0  0  0
   38.0760   25.7450   41.7320 H   0  0  0  0  0  0  0  0  0  0  0  0
   38.3640   29.0390   44.3600 H   0  0  0  0  0  0  0  0  0  0  0  0
   36.5300   26.8840   39.8890 C   0  0  0  0  0  0  0  0  0  0  0  0
   35.9660   27.5160   39.2060 H   0  0  0  0  0  0  0  0  0  0  0  0
   37.3790   26.4400   39.3310 H   0  0  0  0  0  0  0  0  0  0  0  0
   35.8170   26.0810   40.2360 H   0  0  0  0  0  0  0  0  0  0  0  0
   35.8840   29.6450   40.6080 C   0  0  0  0  0  0  0  0  0  0  0  0
   36.4760   29.7500   39.3760 F   0  0  0  0  0  0  0  0  0  0  0  0
   34.6040   29.1310   40.5320 F   0  0  0  0  0  0  0  0  0  0  0  0
   35.7980   30.9390   41.1340 F   0  0  0  0  0  0  0  0  0  0  0  0
  1  6  1  0  0  0  0
  2  3  1  0  0  0  0
  2  1  2  0  0  0  0
  3  4  2  0  0  0  0
  4  5  1  0  0  0  0
  5  8  1  0  0  0  0
  6  5  2  0  0  0  0
  7  1  1  0  0  0  0
  9 12  1  0  0  0  0
  9  2  1  0  0  0  0
 10  9  1  0  0  0  0
 11  9  1  0  0  0  0
 13 16  1  0  0  0  0
 13  3  1  0  0  0  0
 14 13  1  0  0  0  0
 15 13  1  0  0  0  0
M  END
>  <minimizedAffinity>
-3.55211568

$$$$

 OpenBabel03252501563D

 16 16  0  0  0  0  0  0  0  0999 V2000
   36.2830   29.7900   38.4440 C   0  0  0  0  0  0  0  0  0  0  0  0
   36.9460   31.0200   38.4640 C   0  0  0  0  0  0  0  0  0  0  0  0
   37.0180   31.6900   39.6770 C   0  0  0  0  0  0  0  0  0  0  0  0
   36.4480   31.1230   40.7610 N   0  0  0  0  0  0  0  0  0  0  0  0
   35.8110   29.9290   40.7080 C   0  0  0  0  0  0  0  0  0  0  0  0
   35.7210   29.2450   39.5440 N   0  0  0  0  0  0  0  0  0  0  0  0
   36.1640   29.1710   37.5410 H   0  0  0  0  0  0  0  0  0  0  0  0
   35.4130   29.6260   41.6720 H   0  0  0  0  0  0  0  0  0  0  0  0
   37.4940   31.4460   37.1610 C   0  0  0  0  0  0  0  0  0  0  0  0
   38.0720   32.3670   37.1940 H   0  0  0  0  0  0  0  0  0  0  0  0
   38.1270   30.6530   36.7130 H   0  0  0  0  0  0  0  0  0  0  0  0
   36.6000   31.6590   36.5050 H   0  0  0  0  0  0  0  0  0  0  0  0
   37.7200   32.9680   39.6480 C   0  0  0  0  0  0  0  0  0  0  0  0
   38.9180   32.8400   38.9940 F   0  0  0  0  0  0  0  0  0  0  0  0
   36.9360   33.9720   39.1130 F   0  0  0  0  0  0  0  0  0  0  0  0
   38.0100   33.3080   40.9740 F   0  0  0  0  0  0  0  0  0  0  0  0
  1  2  2  0  0  0  0
  1  6  1  0  0  0  0
  2  3  1  0  0  0  0
  3  4  2  0  0  0  0
  5  4  1  0  0  0  0
  5  8  1  0  0  0  0
  6  5  2  0  0  0  0
  7  1  1  0  0  0  0
  9 10  1  0  0  0  0
  9  2  1  0  0  0  0
 11  9  1  0  0  0  0
 12  9  1  0  0  0  0
 13  3  1  0  0  0  0
 13 16  1  0  0  0  0
 14 13  1  0  0  0  0
 15 13  1  0  0  0  0
M  END
>  <minimizedAffinity>
-3.49826455

$$$$

 OpenBabel03252501563D

 16 16  0  0  0  0  0  0  0  0999 V2000
   37.2310   31.4830   38.2220 C   0  0  0  0  0  0  0  0  0  0  0  0
   36.4460   30.3650   38.5200 C   0  0  0  0  0  0  0  0  0  0  0  0
   36.1290   30.1430   39.8520 C   0  0  0  0  0  0  0  0  0  0  0  0
   36.5900   31.0090   40.7780 N   0  0  0  0  0  0  0  0  0  0  0  0
   37.3490   32.0840   40.4550 C   0  0  0  0  0  0  0  0  0  0  0  0
   37.6790   32.3340   39.1680 N   0  0  0  0  0  0  0  0  0  0  0  0
   37.5440   31.7580   37.2020 H   0  0  0  0  0  0  0  0  0  0  0  0
   37.6310   32.6710   41.3250 H   0  0  0  0  0  0  0  0  0  0  0  0
   36.0550   29.5570   37.3490 C   0  0  0  0  0  0  0  0  0  0  0  0
   35.3850   28.7300   37.5760 H   0  0  0  0  0  0  0  0  0  0  0  0
   35.5800   30.1850   36.5680 H   0  0  0  0  0  0  0  0  0  0  0  0
   37.0080   29.0920   36.9610 H   0  0  0  0  0  0  0  0  0  0  0  0
   35.3090   28.9650   40.1140 C   0  0  0  0  0  0  0  0  0  0  0  0
   35.3320   28.6570   41.4510 F   0  0  0  0  0  0  0  0  0  0  0  0
   34.0230   29.1160   39.6340 F   0  0  0  0  0  0  0  0  0  0  0  0
   35.9000   27.8930   39.4360 F   0  0  0  0  0  0  0  0  0  0  0  0
  1  2  2  0  0  0  0
  1  6  1  0  0  0  0
  2  3  1  0  0  0  0
  3 13  1  0  0  0  0
  3  4  2  0  0  0  0
  5  4  1  0  0  0  0
  5  8  1  0  0  0  0
  6  5  2  0  0  0  0
  7  1  1  0  0  0  0
  9 10  1  0  0  0  0
  9  2  1  0  0  0  0
 11  9  1  0  0  0  0
 12  9  1  0  0  0  0
 13 14  1  0  0  0  0
 15 13  1  0  0  0  0
 16 13  1  0  0  0  0
M  END
>  <minimizedAffinity>
-3.49112034

$$$$
