
 OpenBabel03252502433D

 26 27  0  0  1  0  0  0  0  0999 V2000
   47.0200   35.0980   41.5770 C   0  0  0  0  0  0  0  0  0  0  0  0
   46.5070   35.2580   40.6050 H   0  0  0  0  0  0  0  0  0  0  0  0
   47.0080   36.0200   42.1960 H   0  0  0  0  0  0  0  0  0  0  0  0
   48.4520   34.7050   41.3820 C   0  0  1  0  0  0  0  0  0  0  0  0
   49.4920   35.5630   42.0310 C   0  0  0  0  0  0  0  0  0  0  0  0
   49.1850   34.2200   42.5620 C   0  0  2  0  0  0  0  0  0  0  0  0
   48.6240   34.3120   40.3450 H   0  0  0  0  0  0  0  0  0  0  0  0
   50.3860   35.7220   41.3900 H   0  0  0  0  0  0  0  0  0  0  0  0
   49.2430   36.5140   42.5410 H   0  0  0  0  0  0  0  0  0  0  0  0
   48.8340   33.8880   43.5100 H   0  0  0  0  0  0  0  0  0  0  0  0
   50.2370   33.1710   42.1500 C   0  0  0  0  0  0  0  0  0  0  0  0
   49.9970   32.0120   42.8940 F   0  0  0  0  0  0  0  0  0  0  0  0
   50.0890   32.7850   40.8330 F   0  0  0  0  0  0  0  0  0  0  0  0
   51.5160   33.6200   42.2880 F   0  0  0  0  0  0  0  0  0  0  0  0
   46.3490   33.9100   42.2220 C   0  0  0  0  0  0  0  0  0  0  0  0
   47.1800   33.3290   42.7360 H   0  0  0  0  0  0  0  0  0  0  0  0
   45.7230   33.3240   41.5680 H   0  0  0  0  0  0  0  0  0  0  0  0
   44.4620   35.9350   44.7420 C   0  0  0  0  0  0  0  0  0  0  0  0
   45.0070   35.5200   43.5140 C   0  0  0  0  0  0  0  0  0  0  0  0
   45.7060   34.3460   43.4970 C   0  0  0  0  0  0  0  0  0  0  0  0
   45.8440   33.6270   44.6470 N   0  0  0  0  0  0  0  0  0  0  0  0
   45.3220   34.0310   45.7930 C   0  0  0  0  0  0  0  0  0  0  0  0
   44.6320   35.1800   45.8560 N   0  0  0  0  0  0  0  0  0  0  0  0
   43.8930   36.8290   44.9160 H   0  0  0  0  0  0  0  0  0  0  0  0
   44.7530   36.2390   42.7580 H   0  0  0  0  0  0  0  0  0  0  0  0
   45.5100   33.3600   46.6310 H   0  0  0  0  0  0  0  0  0  0  0  0
  1  3  1  0  0  0  0
  1 15  1  0  0  0  0
  2  1  1  0  0  0  0
  4  7  1  6  0  0  0
  4  1  1  0  0  0  0
  4  5  1  0  0  0  0
  4  6  1  0  0  0  0
  5  9  1  0  0  0  0
  5  6  1  0  0  0  0
  6 10  1  1  0  0  0
  8  5  1  0  0  0  0
 11 14  1  0  0  0  0
 11  6  1  0  0  0  0
 11 12  1  0  0  0  0
 13 11  1  0  0  0  0
 15 16  1  0  0  0  0
 15 20  1  0  0  0  0
 17 15  1  0  0  0  0
 18 24  1  0  0  0  0
 18 23  1  0  0  0  0
 19 18  2  0  0  0  0
 20 19  1  0  0  0  0
 20 21  2  0  0  0  0
 21 22  1  0  0  0  0
 22 23  2  0  0  0  0
 22 26  1  0  0  0  0
 25 19  1  0  0  0  0
M  END
>  <minimizedAffinity>
-4.6529274

>  <minimizedRMSD>
1.00478303

$$$$
