
 OpenBabel03252508203D

 29 30  0  0  0  0  0  0  0  0999 V2000
   43.9570   34.2480   41.3270 C   0  0  0  0  0  0  0  0  0  0  0  0
   43.6720   33.3310   41.8840 H   0  0  0  0  0  0  0  0  0  0  0  0
   43.3850   35.1530   41.6880 H   0  0  0  0  0  0  0  0  0  0  0  0
   45.4020   34.4550   41.3080 C   0  0  0  0  0  0  0  0  0  0  0  0
   46.2470   33.9720   40.3300 C   0  0  0  0  0  0  0  0  0  0  0  0
   47.6080   34.1520   40.2900 C   0  0  0  0  0  0  0  0  0  0  0  0
   48.1530   34.8970   41.3540 C   0  0  0  0  0  0  0  0  0  0  0  0
   47.3340   35.4050   42.3650 C   0  0  0  0  0  0  0  0  0  0  0  0
   45.9650   35.1860   42.3440 C   0  0  0  0  0  0  0  0  0  0  0  0
   45.7610   33.4090   39.5430 H   0  0  0  0  0  0  0  0  0  0  0  0
   48.2210   33.7500   39.4980 H   0  0  0  0  0  0  0  0  0  0  0  0
   49.2130   35.0680   41.3730 H   0  0  0  0  0  0  0  0  0  0  0  0
   47.8000   35.9710   43.1610 H   0  0  0  0  0  0  0  0  0  0  0  0
   45.0910   35.7280   43.4230 C   0  0  0  0  0  0  0  0  0  0  0  0
   45.2390   37.0950   43.4280 F   0  0  0  0  0  0  0  0  0  0  0  0
   45.2930   35.1370   44.6440 F   0  0  0  0  0  0  0  0  0  0  0  0
   43.7710   35.4780   43.0950 F   0  0  0  0  0  0  0  0  0  0  0  0
   43.4030   34.0620   39.9100 C   0  0  0  0  0  0  0  0  0  0  0  0
   43.4420   32.9830   39.6320 H   0  0  0  0  0  0  0  0  0  0  0  0
   43.9190   34.7100   39.1940 H   0  0  0  0  0  0  0  0  0  0  0  0
   40.2000   35.9150   40.6120 C   0  0  0  0  0  0  0  0  0  0  0  0
   41.5680   35.5800   40.6110 C   0  0  0  0  0  0  0  0  0  0  0  0
   41.9680   34.4400   39.9250 C   0  0  0  0  0  0  0  0  0  0  0  0
   41.0020   33.7110   39.2870 N   0  0  0  0  0  0  0  0  0  0  0  0
   39.7020   34.0520   39.3010 C   0  0  0  0  0  0  0  0  0  0  0  0
   39.2950   35.1600   39.9670 N   0  0  0  0  0  0  0  0  0  0  0  0
   39.9240   36.8070   41.1540 H   0  0  0  0  0  0  0  0  0  0  0  0
   42.3310   36.1580   41.1160 H   0  0  0  0  0  0  0  0  0  0  0  0
   38.9520   33.4620   38.7910 H   0  0  0  0  0  0  0  0  0  0  0  0
  1  3  1  0  0  0  0
  1  2  1  0  0  0  0
  4  1  1  0  0  0  0
  4  9  1  0  0  0  0
  5  4  2  0  0  0  0
  6  5  1  0  0  0  0
  6  7  2  0  0  0  0
  7 12  1  0  0  0  0
  7  8  1  0  0  0  0
  8 13  1  0  0  0  0
  9  8  2  0  0  0  0
  9 14  1  0  0  0  0
 10  5  1  0  0  0  0
 11  6  1  0  0  0  0
 14 15  1  0  0  0  0
 14 16  1  0  0  0  0
 17 14  1  0  0  0  0
 18 23  1  0  0  0  0
 18  1  1  0  0  0  0
 19 18  1  0  0  0  0
 20 18  1  0  0  0  0
 21 27  1  0  0  0  0
 22 21  1  0  0  0  0
 22 28  1  0  0  0  0
 23 22  2  0  0  0  0
 24 25  2  0  0  0  0
 24 23  1  0  0  0  0
 25 26  1  0  0  0  0
 26 21  2  0  0  0  0
 29 25  1  0  0  0  0
M  END
>  <minimizedAffinity>
-5.30135155

>  <minimizedRMSD>
1.43614399

$$$$
