
 OpenBabel03252506413D

 35 37  0  0  1  0  0  0  0  0999 V2000
   49.5290   33.4010   41.4930 N   0  0  1  0  0  0  0  0  0  0  0  0
   50.6970   33.0840   42.2780 C   0  0  0  0  0  0  0  0  0  0  0  0
   51.3000   31.7530   42.0540 C   0  0  0  0  0  0  0  0  0  0  0  0
   50.3170   30.6560   42.3450 C   0  0  0  0  0  0  0  0  0  0  0  0
   48.9100   31.0870   42.1450 C   0  0  0  0  0  0  0  0  0  0  0  0
   48.8580   32.1830   41.1260 C   0  0  2  0  0  0  0  0  0  0  0  0
   50.4750   33.1780   43.3670 H   0  0  0  0  0  0  0  0  0  0  0  0
   51.4560   33.8800   42.0230 H   0  0  0  0  0  0  0  0  0  0  0  0
   52.0640   31.6490   42.9010 H   0  0  0  0  0  0  0  0  0  0  0  0
   51.9220   31.6200   41.1650 H   0  0  0  0  0  0  0  0  0  0  0  0
   50.4040   30.2030   43.3410 H   0  0  0  0  0  0  0  0  0  0  0  0
   50.5820   29.8240   41.6280 H   0  0  0  0  0  0  0  0  0  0  0  0
   48.4680   31.4870   43.0950 H   0  0  0  0  0  0  0  0  0  0  0  0
   48.2620   30.2780   41.7780 H   0  0  0  0  0  0  0  0  0  0  0  0
   47.7500   32.5130   41.2200 H   0  0  0  0  0  0  0  0  0  0  0  0
   47.2980   34.5950   41.9730 C   0  0  1  0  0  0  0  0  0  0  0  0
   48.3570   35.5780   41.6900 C   0  0  0  0  0  0  0  0  0  0  0  0
   48.7230   34.2740   42.2930 C   0  0  2  0  0  0  0  0  0  0  0  0
   46.8520   34.1300   41.0820 H   0  0  0  0  0  0  0  0  0  0  0  0
   48.4180   36.4460   42.3550 H   0  0  0  0  0  0  0  0  0  0  0  0
   48.6660   35.7970   40.6430 H   0  0  0  0  0  0  0  0  0  0  0  0
   48.9410   34.1880   43.3800 H   0  0  0  0  0  0  0  0  0  0  0  0
   45.5560   36.0190   43.1260 C   0  0  0  0  0  0  0  0  0  0  0  0
   46.3600   34.8540   43.1040 C   0  0  0  0  0  0  0  0  0  0  0  0
   46.2410   33.9560   44.1760 C   0  0  0  0  0  0  0  0  0  0  0  0
   45.3650   34.2540   45.1670 N   0  0  0  0  0  0  0  0  0  0  0  0
   44.6090   35.3810   45.1560 C   0  0  0  0  0  0  0  0  0  0  0  0
   44.7000   36.2750   44.1300 N   0  0  0  0  0  0  0  0  0  0  0  0
   45.6260   36.7290   42.3150 H   0  0  0  0  0  0  0  0  0  0  0  0
   46.8450   33.0690   44.1690 H   0  0  0  0  0  0  0  0  0  0  0  0
   43.9460   35.5010   46.0120 H   0  0  0  0  0  0  0  0  0  0  0  0
   48.9500   31.7700   39.7010 C   0  0  0  0  0  0  0  0  0  0  0  0
   48.1050   32.5360   38.8800 F   0  0  0  0  0  0  0  0  0  0  0  0
   50.2220   32.0750   39.1660 F   0  0  0  0  0  0  0  0  0  0  0  0
   48.8140   30.4250   39.4580 F   0  0  0  0  0  0  0  0  0  0  0  0
  1  2  1  1  0  0  0
  1 18  1  0  0  0  0
  2  7  1  0  0  0  0
  3  2  1  0  0  0  0
  3  4  1  0  0  0  0
  3  9  1  0  0  0  0
  4 11  1  0  0  0  0
  5  4  1  0  0  0  0
  5 13  1  0  0  0  0
  6 15  1  1  0  0  0
  6  1  1  0  0  0  0
  6  5  1  0  0  0  0
  8  2  1  0  0  0  0
 10  3  1  0  0  0  0
 12  4  1  0  0  0  0
 14  5  1  0  0  0  0
 16 19  1  6  0  0  0
 16 18  1  0  0  0  0
 16 24  1  0  0  0  0
 17 16  1  0  0  0  0
 17 18  1  0  0  0  0
 17 20  1  0  0  0  0
 18 22  1  1  0  0  0
 21 17  1  0  0  0  0
 23 28  1  0  0  0  0
 24 23  2  0  0  0  0
 24 25  1  0  0  0  0
 25 26  2  0  0  0  0
 27 26  1  0  0  0  0
 27 31  1  0  0  0  0
 28 27  2  0  0  0  0
 29 23  1  0  0  0  0
 30 25  1  0  0  0  0
 32  6  1  0  0  0  0
 33 32  1  0  0  0  0
 34 32  1  0  0  0  0
 35 32  1  0  0  0  0
M  END
>  <minimizedAffinity>
-4.73853254

>  <minimizedRMSD>
0.553033113

$$$$
