
 OpenBabel03242512533D

 39 42  0  0  1  0  0  0  0  0999 V2000
   36.5490   29.2950   38.0990 N   0  0  0  0  0  0  0  0  0  0  0  0
   35.9630   28.7940   36.8670 C   0  0  0  0  0  0  0  0  0  0  0  0
   34.5390   29.2320   37.1290 C   0  0  0  0  0  0  0  0  0  0  0  0
   34.3260   28.6240   38.4980 C   0  0  0  0  0  0  0  0  0  0  0  0
   35.6290   28.9080   39.2040 C   0  0  1  0  0  0  0  0  0  0  0  0
   36.4280   29.3310   36.0370 H   0  0  0  0  0  0  0  0  0  0  0  0
   36.0050   27.6910   36.8110 H   0  0  0  0  0  0  0  0  0  0  0  0
   33.9110   28.7160   36.3720 H   0  0  0  0  0  0  0  0  0  0  0  0
   34.4580   30.3180   37.1460 H   0  0  0  0  0  0  0  0  0  0  0  0
   34.2730   27.5160   38.3240 H   0  0  0  0  0  0  0  0  0  0  0  0
   33.4330   29.0060   39.0170 H   0  0  0  0  0  0  0  0  0  0  0  0
   35.4860   29.8000   39.7460 H   0  0  0  0  0  0  0  0  0  0  0  0
   36.2300   27.7340   39.8120 C   0  0  0  0  0  0  0  0  0  0  0  0
   36.2110   26.5320   39.1810 N   0  0  0  0  0  0  0  0  0  0  0  0
   36.7330   25.4020   39.6820 C   0  0  0  0  0  0  0  0  0  0  0  0
   37.3180   25.4430   40.8850 N   0  0  0  0  0  0  0  0  0  0  0  0
   37.3640   26.5880   41.5420 C   0  0  0  0  0  0  0  0  0  0  0  0
   37.9850   26.5830   42.7780 C   0  0  0  0  0  0  0  0  0  0  0  0
   38.0410   27.7880   43.4730 C   0  0  0  0  0  0  0  0  0  0  0  0
   37.5170   28.9940   43.0120 C   0  0  0  0  0  0  0  0  0  0  0  0
   36.9150   28.9150   41.7690 C   0  0  0  0  0  0  0  0  0  0  0  0
   36.8310   27.7800   41.0500 C   0  0  0  0  0  0  0  0  0  0  0  0
   36.6650   24.4880   39.0950 H   0  0  0  0  0  0  0  0  0  0  0  0
   38.4120   25.6900   43.2020 H   0  0  0  0  0  0  0  0  0  0  0  0
   38.5400   27.7390   44.4470 H   0  0  0  0  0  0  0  0  0  0  0  0
   37.6000   29.8830   43.6060 H   0  0  0  0  0  0  0  0  0  0  0  0
   36.5090   29.8240   41.4460 H   0  0  0  0  0  0  0  0  0  0  0  0
   40.0940   30.4390   38.2400 C   0  0  0  0  0  0  0  0  0  0  0  0
   39.0060   29.6300   37.9430 C   0  0  0  0  0  0  0  0  0  0  0  0
   37.7380   30.0190   38.3420 C   0  0  0  0  0  0  0  0  0  0  0  0
   37.6260   31.1960   39.0160 N   0  0  0  0  0  0  0  0  0  0  0  0
   38.6950   31.9800   39.3020 C   0  0  0  0  0  0  0  0  0  0  0  0
   39.9330   31.5870   38.9040 N   0  0  0  0  0  0  0  0  0  0  0  0
   41.0620   30.0830   37.9020 H   0  0  0  0  0  0  0  0  0  0  0  0
   39.1430   28.7170   37.4370 H   0  0  0  0  0  0  0  0  0  0  0  0
   38.5600   33.2630   40.0390 C   0  0  0  0  0  0  0  0  0  0  0  0
   38.8340   33.0680   41.3950 F   0  0  0  0  0  0  0  0  0  0  0  0
   37.3340   33.8700   39.8370 F   0  0  0  0  0  0  0  0  0  0  0  0
   39.5040   34.1610   39.6030 F   0  0  0  0  0  0  0  0  0  0  0  0
  1 30  1  0  0  0  0
  1  5  1  0  0  0  0
  2  3  1  0  0  0  0
  2  1  1  0  0  0  0
  3  9  1  0  0  0  0
  3  4  1  0  0  0  0
  4 11  1  0  0  0  0
  4  5  1  0  0  0  0
  5 12  1  1  0  0  0
  5 13  1  0  0  0  0
  6  2  1  0  0  0  0
  7  2  1  0  0  0  0
  8  3  1  0  0  0  0
 10  4  1  0  0  0  0
 13 22  1  0  0  0  0
 14 15  1  0  0  0  0
 14 13  2  0  0  0  0
 15 16  2  0  0  0  0
 16 17  1  0  0  0  0
 17 18  1  0  0  0  0
 18 24  1  0  0  0  0
 18 19  2  0  0  0  0
 19 25  1  0  0  0  0
 20 19  1  0  0  0  0
 20 26  1  0  0  0  0
 21 20  2  0  0  0  0
 22 17  2  0  0  0  0
 22 21  1  0  0  0  0
 23 15  1  0  0  0  0
 27 21  1  0  0  0  0
 28 33  1  0  0  0  0
 29 28  2  0  0  0  0
 29 30  1  0  0  0  0
 30 31  2  0  0  0  0
 31 32  1  0  0  0  0
 32 36  1  0  0  0  0
 33 32  2  0  0  0  0
 34 28  1  0  0  0  0
 35 29  1  0  0  0  0
 36 37  1  0  0  0  0
 38 36  1  0  0  0  0
 39 36  1  0  0  0  0
M  END
>  <minimizedAffinity>
-5.96512127

$$$$

 OpenBabel03242512533D

 39 42  0  0  1  0  0  0  0  0999 V2000
   36.2410   29.0260   40.2320 N   0  0  0  0  0  0  0  0  0  0  0  0
   34.8390   29.3550   40.0310 C   0  0  0  0  0  0  0  0  0  0  0  0
   34.7020   28.7990   38.6310 C   0  0  0  0  0  0  0  0  0  0  0  0
   35.8590   29.5010   37.9560 C   0  0  0  0  0  0  0  0  0  0  0  0
   36.9580   29.4130   38.9870 C   0  0  1  0  0  0  0  0  0  0  0  0
   34.2590   28.7970   40.7690 H   0  0  0  0  0  0  0  0  0  0  0  0
   34.6720   30.4470   40.0120 H   0  0  0  0  0  0  0  0  0  0  0  0
   33.7340   29.1810   38.2390 H   0  0  0  0  0  0  0  0  0  0  0  0
   34.8180   27.7170   38.6240 H   0  0  0  0  0  0  0  0  0  0  0  0
   35.5520   30.5770   37.8850 H   0  0  0  0  0  0  0  0  0  0  0  0
   36.1210   29.0770   36.9740 H   0  0  0  0  0  0  0  0  0  0  0  0
   37.5300   28.5620   38.7430 H   0  0  0  0  0  0  0  0  0  0  0  0
   37.5820   30.6910   39.2830 C   0  0  0  0  0  0  0  0  0  0  0  0
   36.8410   31.8250   39.3820 N   0  0  0  0  0  0  0  0  0  0  0  0
   37.3440   33.0410   39.6400 C   0  0  0  0  0  0  0  0  0  0  0  0
   38.6650   33.1660   39.8170 N   0  0  0  0  0  0  0  0  0  0  0  0
   39.4320   32.0940   39.7320 C   0  0  0  0  0  0  0  0  0  0  0  0
   40.7900   32.2710   39.9290 C   0  0  0  0  0  0  0  0  0  0  0  0
   41.6030   31.1430   39.8450 C   0  0  0  0  0  0  0  0  0  0  0  0
   41.1450   29.8550   39.5780 C   0  0  0  0  0  0  0  0  0  0  0  0
   39.7770   29.7620   39.3950 C   0  0  0  0  0  0  0  0  0  0  0  0
   38.9410   30.8160   39.4640 C   0  0  0  0  0  0  0  0  0  0  0  0
   36.6640   33.8880   39.6980 H   0  0  0  0  0  0  0  0  0  0  0  0
   41.2180   33.2360   40.1380 H   0  0  0  0  0  0  0  0  0  0  0  0
   42.6700   31.3290   40.0070 H   0  0  0  0  0  0  0  0  0  0  0  0
   41.8350   29.0340   39.5300 H   0  0  0  0  0  0  0  0  0  0  0  0
   39.4530   28.7920   39.1750 H   0  0  0  0  0  0  0  0  0  0  0  0
   37.9960   28.4510   43.4690 C   0  0  0  0  0  0  0  0  0  0  0  0
   37.3480   29.1390   42.4540 C   0  0  0  0  0  0  0  0  0  0  0  0
   36.9180   28.4500   41.3320 C   0  0  0  0  0  0  0  0  0  0  0  0
   37.1590   27.1130   41.2850 N   0  0  0  0  0  0  0  0  0  0  0  0
   37.7940   26.4480   42.2820 C   0  0  0  0  0  0  0  0  0  0  0  0
   38.2110   27.1350   43.3780 N   0  0  0  0  0  0  0  0  0  0  0  0
   38.3110   29.0420   44.3240 H   0  0  0  0  0  0  0  0  0  0  0  0
   37.2010   30.1790   42.5240 H   0  0  0  0  0  0  0  0  0  0  0  0
   38.0520   24.9860   42.2200 C   0  0  0  0  0  0  0  0  0  0  0  0
   36.8590   24.2800   42.3950 F   0  0  0  0  0  0  0  0  0  0  0  0
   39.0330   24.5790   43.1050 F   0  0  0  0  0  0  0  0  0  0  0  0
   38.5010   24.6370   40.9690 F   0  0  0  0  0  0  0  0  0  0  0  0
  1 30  1  0  0  0  0
  2  1  1  0  0  0  0
  2  6  1  0  0  0  0
  3  2  1  0  0  0  0
  4  3  1  0  0  0  0
  4  5  1  0  0  0  0
  5 12  1  6  0  0  0
  5 13  1  0  0  0  0
  5  1  1  0  0  0  0
  7  2  1  0  0  0  0
  8  3  1  0  0  0  0
  9  3  1  0  0  0  0
 10  4  1  0  0  0  0
 11  4  1  0  0  0  0
 13 14  2  0  0  0  0
 13 22  1  0  0  0  0
 14 15  1  0  0  0  0
 15 23  1  0  0  0  0
 15 16  2  0  0  0  0
 17 16  1  0  0  0  0
 17 18  1  0  0  0  0
 18 24  1  0  0  0  0
 19 18  2  0  0  0  0
 19 25  1  0  0  0  0
 20 19  1  0  0  0  0
 21 22  1  0  0  0  0
 21 20  2  0  0  0  0
 22 17  2  0  0  0  0
 26 20  1  0  0  0  0
 27 21  1  0  0  0  0
 28 34  1  0  0  0  0
 29 35  1  0  0  0  0
 29 28  2  0  0  0  0
 30 29  1  0  0  0  0
 31 30  2  0  0  0  0
 31 32  1  0  0  0  0
 32 33  2  0  0  0  0
 33 28  1  0  0  0  0
 36 32  1  0  0  0  0
 36 37  1  0  0  0  0
 36 38  1  0  0  0  0
 39 36  1  0  0  0  0
M  END
>  <minimizedAffinity>
-5.9194355

$$$$

 OpenBabel03242512533D

 39 42  0  0  1  0  0  0  0  0999 V2000
   37.4770   28.0880   41.1910 N   0  0  0  0  0  0  0  0  0  0  0  0
   38.0030   26.9790   41.9700 C   0  0  0  0  0  0  0  0  0  0  0  0
   37.0660   27.1010   43.1500 C   0  0  0  0  0  0  0  0  0  0  0  0
   37.2570   28.5630   43.4880 C   0  0  0  0  0  0  0  0  0  0  0  0
   37.2850   29.2250   42.1320 C   0  0  1  0  0  0  0  0  0  0  0  0
   37.8460   26.0650   41.3930 H   0  0  0  0  0  0  0  0  0  0  0  0
   39.0410   27.1660   42.3030 H   0  0  0  0  0  0  0  0  0  0  0  0
   37.4890   26.4570   43.9520 H   0  0  0  0  0  0  0  0  0  0  0  0
   36.0390   26.8780   42.8630 H   0  0  0  0  0  0  0  0  0  0  0  0
   38.2920   28.6340   43.9170 H   0  0  0  0  0  0  0  0  0  0  0  0
   36.4950   28.9620   44.1750 H   0  0  0  0  0  0  0  0  0  0  0  0
   36.3030   29.5550   41.9410 H   0  0  0  0  0  0  0  0  0  0  0  0
   38.4330   30.0910   41.9300 C   0  0  0  0  0  0  0  0  0  0  0  0
   39.6380   29.7950   42.4810 N   0  0  0  0  0  0  0  0  0  0  0  0
   40.7390   30.5490   42.3500 C   0  0  0  0  0  0  0  0  0  0  0  0
   40.6660   31.6740   41.6290 N   0  0  0  0  0  0  0  0  0  0  0  0
   39.5160   32.0090   41.0700 C   0  0  0  0  0  0  0  0  0  0  0  0
   39.4900   33.1760   40.3280 C   0  0  0  0  0  0  0  0  0  0  0  0
   38.2830   33.5310   39.7320 C   0  0  0  0  0  0  0  0  0  0  0  0
   37.1040   32.7950   39.8310 C   0  0  0  0  0  0  0  0  0  0  0  0
   37.2140   31.6430   40.5880 C   0  0  0  0  0  0  0  0  0  0  0  0
   38.3530   31.2470   41.1870 C   0  0  0  0  0  0  0  0  0  0  0  0
   41.6580   30.2230   42.8330 H   0  0  0  0  0  0  0  0  0  0  0  0
   40.3600   33.7980   40.2070 H   0  0  0  0  0  0  0  0  0  0  0  0
   38.3070   34.4620   39.1550 H   0  0  0  0  0  0  0  0  0  0  0  0
   36.2110   33.1340   39.3430 H   0  0  0  0  0  0  0  0  0  0  0  0
   36.3150   31.1130   40.6700 H   0  0  0  0  0  0  0  0  0  0  0  0
   37.6360   28.2630   37.4710 C   0  0  0  0  0  0  0  0  0  0  0  0
   38.0800   28.1480   38.7810 C   0  0  0  0  0  0  0  0  0  0  0  0
   37.1620   28.1980   39.8170 C   0  0  0  0  0  0  0  0  0  0  0  0
   35.8520   28.3610   39.4890 N   0  0  0  0  0  0  0  0  0  0  0  0
   35.4280   28.4720   38.2050 C   0  0  0  0  0  0  0  0  0  0  0  0
   36.3380   28.4210   37.1980 N   0  0  0  0  0  0  0  0  0  0  0  0
   38.4000   28.2170   36.7010 H   0  0  0  0  0  0  0  0  0  0  0  0
   39.1060   28.0450   38.9890 H   0  0  0  0  0  0  0  0  0  0  0  0
   33.9940   28.6500   37.8580 C   0  0  0  0  0  0  0  0  0  0  0  0
   33.8690   29.5000   36.7570 F   0  0  0  0  0  0  0  0  0  0  0  0
   33.2320   29.0730   38.9320 F   0  0  0  0  0  0  0  0  0  0  0  0
   33.4520   27.4530   37.4570 F   0  0  0  0  0  0  0  0  0  0  0  0
  1  2  1  0  0  0  0
  1  5  1  0  0  0  0
  2  7  1  0  0  0  0
  2  3  1  0  0  0  0
  3  4  1  0  0  0  0
  3  8  1  0  0  0  0
  4 10  1  0  0  0  0
  4 11  1  0  0  0  0
  5 12  1  6  0  0  0
  5  4  1  0  0  0  0
  6  2  1  0  0  0  0
  9  3  1  0  0  0  0
 13  5  1  0  0  0  0
 13 14  1  0  0  0  0
 15 14  2  0  0  0  0
 15 23  1  0  0  0  0
 16 15  1  0  0  0  0
 17 22  1  0  0  0  0
 17 16  2  0  0  0  0
 18 17  1  0  0  0  0
 19 20  1  0  0  0  0
 19 18  2  0  0  0  0
 20 21  2  0  0  0  0
 21 27  1  0  0  0  0
 21 22  1  0  0  0  0
 22 13  2  0  0  0  0
 24 18  1  0  0  0  0
 25 19  1  0  0  0  0
 26 20  1  0  0  0  0
 28 29  1  0  0  0  0
 29 35  1  0  0  0  0
 29 30  2  0  0  0  0
 30  1  1  0  0  0  0
 31 30  1  0  0  0  0
 32 31  2  0  0  0  0
 33 28  2  0  0  0  0
 33 32  1  0  0  0  0
 34 28  1  0  0  0  0
 36 32  1  0  0  0  0
 36 38  1  0  0  0  0
 37 36  1  0  0  0  0
 39 36  1  0  0  0  0
M  END
>  <minimizedAffinity>
-5.88708544

$$$$

 OpenBabel03242512533D

 39 42  0  0  1  0  0  0  0  0999 V2000
   36.5660   29.7690   38.7170 N   0  0  0  0  0  0  0  0  0  0  0  0
   36.3820   29.5360   37.2940 C   0  0  0  0  0  0  0  0  0  0  0  0
   34.9050   29.2080   37.3340 C   0  0  0  0  0  0  0  0  0  0  0  0
   34.9040   28.1290   38.3940 C   0  0  0  0  0  0  0  0  0  0  0  0
   35.8610   28.6690   39.4300 C   0  0  1  0  0  0  0  0  0  0  0  0
   36.5960   30.4720   36.7740 H   0  0  0  0  0  0  0  0  0  0  0  0
   36.9460   28.6510   36.9460 H   0  0  0  0  0  0  0  0  0  0  0  0
   34.6550   28.7780   36.3400 H   0  0  0  0  0  0  0  0  0  0  0  0
   34.3180   30.0760   37.6320 H   0  0  0  0  0  0  0  0  0  0  0  0
   35.3970   27.2430   37.9140 H   0  0  0  0  0  0  0  0  0  0  0  0
   33.9020   27.8900   38.7810 H   0  0  0  0  0  0  0  0  0  0  0  0
   35.2720   29.1640   40.1500 H   0  0  0  0  0  0  0  0  0  0  0  0
   36.8990   27.7280   39.8110 C   0  0  0  0  0  0  0  0  0  0  0  0
   37.5440   26.9830   38.8760 N   0  0  0  0  0  0  0  0  0  0  0  0
   38.5030   26.0860   39.1500 C   0  0  0  0  0  0  0  0  0  0  0  0
   38.8650   25.8990   40.4250 N   0  0  0  0  0  0  0  0  0  0  0  0
   38.2680   26.6000   41.3740 C   0  0  0  0  0  0  0  0  0  0  0  0
   38.6800   26.3780   42.6760 C   0  0  0  0  0  0  0  0  0  0  0  0
   38.0590   27.1170   43.6800 C   0  0  0  0  0  0  0  0  0  0  0  0
   37.0560   28.0600   43.4640 C   0  0  0  0  0  0  0  0  0  0  0  0
   36.7030   28.2230   42.1370 C   0  0  0  0  0  0  0  0  0  0  0  0
   37.2670   27.5390   41.1240 C   0  0  0  0  0  0  0  0  0  0  0  0
   38.9590   25.5380   38.3270 H   0  0  0  0  0  0  0  0  0  0  0  0
   39.4480   25.6650   42.9210 H   0  0  0  0  0  0  0  0  0  0  0  0
   38.4140   26.9090   44.6950 H   0  0  0  0  0  0  0  0  0  0  0  0
   36.6250   28.5910   44.2910 H   0  0  0  0  0  0  0  0  0  0  0  0
   35.9350   28.9190   41.9940 H   0  0  0  0  0  0  0  0  0  0  0  0
   37.7360   33.0490   40.0440 C   0  0  0  0  0  0  0  0  0  0  0  0
   36.9970   32.1470   39.2920 C   0  0  0  0  0  0  0  0  0  0  0  0
   37.2480   30.7910   39.4160 C   0  0  0  0  0  0  0  0  0  0  0  0
   38.2230   30.4090   40.2830 N   0  0  0  0  0  0  0  0  0  0  0  0
   38.9420   31.2970   41.0140 C   0  0  0  0  0  0  0  0  0  0  0  0
   38.6860   32.6260   40.8840 N   0  0  0  0  0  0  0  0  0  0  0  0
   37.4960   34.0990   39.9060 H   0  0  0  0  0  0  0  0  0  0  0  0
   36.2650   32.4900   38.6180 H   0  0  0  0  0  0  0  0  0  0  0  0
   40.0060   30.8690   41.9590 C   0  0  0  0  0  0  0  0  0  0  0  0
   40.0930   29.4750   41.9820 F   0  0  0  0  0  0  0  0  0  0  0  0
   39.8430   31.4020   43.2240 F   0  0  0  0  0  0  0  0  0  0  0  0
   41.2330   31.3030   41.5190 F   0  0  0  0  0  0  0  0  0  0  0  0
  1 30  1  0  0  0  0
  1  5  1  0  0  0  0
  2  3  1  0  0  0  0
  2  1  1  0  0  0  0
  3  9  1  0  0  0  0
  3  4  1  0  0  0  0
  4 11  1  0  0  0  0
  4  5  1  0  0  0  0
  5 13  1  0  0  0  0
  5 12  1  1  0  0  0
  6  2  1  0  0  0  0
  7  2  1  0  0  0  0
  8  3  1  0  0  0  0
 10  4  1  0  0  0  0
 13 22  1  0  0  0  0
 14 15  1  0  0  0  0
 14 13  2  0  0  0  0
 15 16  2  0  0  0  0
 16 17  1  0  0  0  0
 17 18  1  0  0  0  0
 18 24  1  0  0  0  0
 18 19  2  0  0  0  0
 19 25  1  0  0  0  0
 20 19  1  0  0  0  0
 20 26  1  0  0  0  0
 21 20  2  0  0  0  0
 22 17  2  0  0  0  0
 22 21  1  0  0  0  0
 23 15  1  0  0  0  0
 27 21  1  0  0  0  0
 28 33  1  0  0  0  0
 29 30  1  0  0  0  0
 29 28  2  0  0  0  0
 30 31  2  0  0  0  0
 31 32  1  0  0  0  0
 32 36  1  0  0  0  0
 33 32  2  0  0  0  0
 34 28  1  0  0  0  0
 35 29  1  0  0  0  0
 36 37  1  0  0  0  0
 36 38  1  0  0  0  0
 39 36  1  0  0  0  0
M  END
>  <minimizedAffinity>
-5.83345938

$$$$

 OpenBabel03242512533D

 39 42  0  0  1  0  0  0  0  0999 V2000
   36.6750   29.9100   38.4590 N   0  0  0  0  0  0  0  0  0  0  0  0
   36.3510   29.5080   37.1010 C   0  0  0  0  0  0  0  0  0  0  0  0
   34.8850   29.2090   37.3250 C   0  0  0  0  0  0  0  0  0  0  0  0
   34.9870   28.2670   38.5050 C   0  0  0  0  0  0  0  0  0  0  0  0
   36.0420   28.9160   39.3680 C   0  0  1  0  0  0  0  0  0  0  0  0
   36.5150   30.3700   36.4510 H   0  0  0  0  0  0  0  0  0  0  0  0
   36.8760   28.5790   36.8110 H   0  0  0  0  0  0  0  0  0  0  0  0
   34.5370   28.6640   36.4220 H   0  0  0  0  0  0  0  0  0  0  0  0
   34.3320   30.1140   37.5700 H   0  0  0  0  0  0  0  0  0  0  0  0
   35.4270   27.3220   38.0920 H   0  0  0  0  0  0  0  0  0  0  0  0
   34.0270   28.0910   39.0150 H   0  0  0  0  0  0  0  0  0  0  0  0
   35.5280   29.5040   40.0760 H   0  0  0  0  0  0  0  0  0  0  0  0
   37.1110   28.0140   39.7580 C   0  0  0  0  0  0  0  0  0  0  0  0
   37.7750   27.2750   38.8320 N   0  0  0  0  0  0  0  0  0  0  0  0
   38.7640   26.4140   39.1140 C   0  0  0  0  0  0  0  0  0  0  0  0
   39.1360   26.2570   40.3900 N   0  0  0  0  0  0  0  0  0  0  0  0
   38.5210   26.9520   41.3320 C   0  0  0  0  0  0  0  0  0  0  0  0
   38.9450   26.7630   42.6350 C   0  0  0  0  0  0  0  0  0  0  0  0
   38.3050   27.4970   43.6300 C   0  0  0  0  0  0  0  0  0  0  0  0
   37.2720   28.4050   43.4050 C   0  0  0  0  0  0  0  0  0  0  0  0
   36.9090   28.5370   42.0770 C   0  0  0  0  0  0  0  0  0  0  0  0
   37.4910   27.8560   41.0720 C   0  0  0  0  0  0  0  0  0  0  0  0
   39.2330   25.8680   38.2980 H   0  0  0  0  0  0  0  0  0  0  0  0
   39.7360   26.0780   42.8870 H   0  0  0  0  0  0  0  0  0  0  0  0
   38.6710   27.3160   44.6470 H   0  0  0  0  0  0  0  0  0  0  0  0
   36.8280   28.9340   44.2260 H   0  0  0  0  0  0  0  0  0  0  0  0
   36.1190   29.2060   41.9280 H   0  0  0  0  0  0  0  0  0  0  0  0
   37.8690   32.8680   40.3890 C   0  0  0  0  0  0  0  0  0  0  0  0
   37.0320   31.8340   39.9910 C   0  0  0  0  0  0  0  0  0  0  0  0
   37.4250   31.0000   38.9570 C   0  0  0  0  0  0  0  0  0  0  0  0
   38.6320   31.2440   38.3780 N   0  0  0  0  0  0  0  0  0  0  0  0
   39.4430   32.2560   38.7740 C   0  0  0  0  0  0  0  0  0  0  0  0
   39.0460   33.0670   39.7890 N   0  0  0  0  0  0  0  0  0  0  0  0
   37.5090   33.4890   41.2040 H   0  0  0  0  0  0  0  0  0  0  0  0
   36.0970   31.6960   40.4550 H   0  0  0  0  0  0  0  0  0  0  0  0
   40.7580   32.5130   38.1340 C   0  0  0  0  0  0  0  0  0  0  0  0
   41.7330   31.6780   38.6870 F   0  0  0  0  0  0  0  0  0  0  0  0
   41.1250   33.8460   38.1820 F   0  0  0  0  0  0  0  0  0  0  0  0
   40.7100   32.1810   36.8010 F   0  0  0  0  0  0  0  0  0  0  0  0
  1 30  1  0  0  0  0
  1  5  1  0  0  0  0
  2  3  1  0  0  0  0
  2  1  1  0  0  0  0
  3  9  1  0  0  0  0
  3  4  1  0  0  0  0
  4 11  1  0  0  0  0
  4  5  1  0  0  0  0
  5 13  1  0  0  0  0
  5 12  1  1  0  0  0
  6  2  1  0  0  0  0
  7  2  1  0  0  0  0
  8  3  1  0  0  0  0
 10  4  1  0  0  0  0
 13 22  1  0  0  0  0
 14 15  1  0  0  0  0
 14 13  2  0  0  0  0
 15 16  2  0  0  0  0
 16 17  1  0  0  0  0
 17 18  1  0  0  0  0
 18 24  1  0  0  0  0
 18 19  2  0  0  0  0
 19 25  1  0  0  0  0
 20 19  1  0  0  0  0
 20 26  1  0  0  0  0
 21 20  2  0  0  0  0
 22 17  2  0  0  0  0
 22 21  1  0  0  0  0
 23 15  1  0  0  0  0
 27 21  1  0  0  0  0
 28 34  1  0  0  0  0
 29 28  1  0  0  0  0
 29 35  1  0  0  0  0
 30 29  2  0  0  0  0
 31 32  2  0  0  0  0
 31 30  1  0  0  0  0
 32 33  1  0  0  0  0
 33 28  2  0  0  0  0
 36 38  1  0  0  0  0
 36 37  1  0  0  0  0
 36 32  1  0  0  0  0
 39 36  1  0  0  0  0
M  END
>  <minimizedAffinity>
-5.79325867

$$$$

 OpenBabel03242512533D

 39 42  0  0  1  0  0  0  0  0999 V2000
   40.5020   28.8740   42.4530 N   0  0  0  0  0  0  0  0  0  0  0  0
   41.8500   28.3380   42.5520 C   0  0  0  0  0  0  0  0  0  0  0  0
   42.4850   29.5220   43.2480 C   0  0  0  0  0  0  0  0  0  0  0  0
   42.0630   30.6340   42.3130 C   0  0  0  0  0  0  0  0  0  0  0  0
   40.6290   30.2840   41.9940 C   0  0  1  0  0  0  0  0  0  0  0  0
   41.8070   27.4470   43.1810 H   0  0  0  0  0  0  0  0  0  0  0  0
   42.3130   28.2040   41.5570 H   0  0  0  0  0  0  0  0  0  0  0  0
   43.5830   29.3630   43.1920 H   0  0  0  0  0  0  0  0  0  0  0  0
   42.0790   29.6530   44.2500 H   0  0  0  0  0  0  0  0  0  0  0  0
   42.6620   30.4770   41.3780 H   0  0  0  0  0  0  0  0  0  0  0  0
   42.2020   31.6420   42.7330 H   0  0  0  0  0  0  0  0  0  0  0  0
   40.0310   30.8300   42.6670 H   0  0  0  0  0  0  0  0  0  0  0  0
   40.3410   30.2530   40.5700 C   0  0  0  0  0  0  0  0  0  0  0  0
   41.1330   29.5620   39.7110 N   0  0  0  0  0  0  0  0  0  0  0  0
   40.9400   29.4960   38.3850 C   0  0  0  0  0  0  0  0  0  0  0  0
   39.8980   30.1480   37.8540 N   0  0  0  0  0  0  0  0  0  0  0  0
   39.0950   30.8360   38.6470 C   0  0  0  0  0  0  0  0  0  0  0  0
   38.0290   31.4880   38.0540 C   0  0  0  0  0  0  0  0  0  0  0  0
   37.1750   32.2090   38.8850 C   0  0  0  0  0  0  0  0  0  0  0  0
   37.3220   32.3200   40.2660 C   0  0  0  0  0  0  0  0  0  0  0  0
   38.4100   31.6400   40.7800 C   0  0  0  0  0  0  0  0  0  0  0  0
   39.2690   30.9250   40.0280 C   0  0  0  0  0  0  0  0  0  0  0  0
   41.6340   28.9150   37.7820 H   0  0  0  0  0  0  0  0  0  0  0  0
   37.8510   31.4490   36.9930 H   0  0  0  0  0  0  0  0  0  0  0  0
   36.3450   32.7100   38.3750 H   0  0  0  0  0  0  0  0  0  0  0  0
   36.6220   32.8960   40.8400 H   0  0  0  0  0  0  0  0  0  0  0  0
   38.5180   31.7500   41.8150 H   0  0  0  0  0  0  0  0  0  0  0  0
   36.9940   28.2280   43.5330 C   0  0  0  0  0  0  0  0  0  0  0  0
   38.1840   28.9160   43.3470 C   0  0  0  0  0  0  0  0  0  0  0  0
   39.2420   28.2870   42.7120 C   0  0  0  0  0  0  0  0  0  0  0  0
   39.0540   27.0050   42.2990 N   0  0  0  0  0  0  0  0  0  0  0  0
   37.8870   26.3390   42.4860 C   0  0  0  0  0  0  0  0  0  0  0  0
   36.8560   26.9680   43.1100 N   0  0  0  0  0  0  0  0  0  0  0  0
   36.1990   28.7710   44.0360 H   0  0  0  0  0  0  0  0  0  0  0  0
   38.2910   29.9020   43.7020 H   0  0  0  0  0  0  0  0  0  0  0  0
   37.6930   24.9390   42.0310 C   0  0  0  0  0  0  0  0  0  0  0  0
   36.3930   24.5160   42.3190 F   0  0  0  0  0  0  0  0  0  0  0  0
   38.6460   24.0750   42.5400 F   0  0  0  0  0  0  0  0  0  0  0  0
   37.8050   24.8650   40.6640 F   0  0  0  0  0  0  0  0  0  0  0  0
  1  2  1  0  0  0  0
  1 30  1  0  0  0  0
  2  6  1  0  0  0  0
  2  3  1  0  0  0  0
  3  9  1  0  0  0  0
  4 11  1  0  0  0  0
  4  3  1  0  0  0  0
  5  4  1  0  0  0  0
  5  1  1  0  0  0  0
  5 12  1  1  0  0  0
  7  2  1  0  0  0  0
  8  3  1  0  0  0  0
 10  4  1  0  0  0  0
 13  5  1  0  0  0  0
 14 13  2  0  0  0  0
 15 14  1  0  0  0  0
 16 15  2  0  0  0  0
 16 17  1  0  0  0  0
 17 22  1  0  0  0  0
 18 17  2  0  0  0  0
 18 19  1  0  0  0  0
 19 20  2  0  0  0  0
 20 21  1  0  0  0  0
 20 26  1  0  0  0  0
 21 27  1  0  0  0  0
 22 13  1  0  0  0  0
 22 21  2  0  0  0  0
 23 15  1  0  0  0  0
 24 18  1  0  0  0  0
 25 19  1  0  0  0  0
 28 34  1  0  0  0  0
 29 28  1  0  0  0  0
 29 35  1  0  0  0  0
 30 29  2  0  0  0  0
 31 32  2  0  0  0  0
 31 30  1  0  0  0  0
 32 33  1  0  0  0  0
 33 28  2  0  0  0  0
 36 37  1  0  0  0  0
 36 32  1  0  0  0  0
 36 38  1  0  0  0  0
 39 36  1  0  0  0  0
M  END
>  <minimizedAffinity>
-5.73765898

$$$$

 OpenBabel03242512533D

 39 42  0  0  1  0  0  0  0  0999 V2000
   37.1520   28.1840   41.1050 N   0  0  0  0  0  0  0  0  0  0  0  0
   37.5640   26.9620   41.7760 C   0  0  0  0  0  0  0  0  0  0  0  0
   36.8080   27.1780   43.0680 C   0  0  0  0  0  0  0  0  0  0  0  0
   37.2900   28.5660   43.4260 C   0  0  0  0  0  0  0  0  0  0  0  0
   37.2730   29.2850   42.0990 C   0  0  1  0  0  0  0  0  0  0  0  0
   37.1820   26.1200   41.1950 H   0  0  0  0  0  0  0  0  0  0  0  0
   38.6500   26.9530   41.9820 H   0  0  0  0  0  0  0  0  0  0  0  0
   37.2040   26.4310   43.7890 H   0  0  0  0  0  0  0  0  0  0  0  0
   35.7310   27.1480   42.9040 H   0  0  0  0  0  0  0  0  0  0  0  0
   38.3650   28.4380   43.7230 H   0  0  0  0  0  0  0  0  0  0  0  0
   36.6950   29.0520   44.2150 H   0  0  0  0  0  0  0  0  0  0  0  0
   36.3490   29.7870   42.0430 H   0  0  0  0  0  0  0  0  0  0  0  0
   38.5240   29.9530   41.7820 C   0  0  0  0  0  0  0  0  0  0  0  0
   39.7150   29.4200   42.1540 N   0  0  0  0  0  0  0  0  0  0  0  0
   40.9090   29.9810   41.9090 C   0  0  0  0  0  0  0  0  0  0  0  0
   40.9480   31.1480   41.2540 N   0  0  0  0  0  0  0  0  0  0  0  0
   39.8160   31.7110   40.8700 C   0  0  0  0  0  0  0  0  0  0  0  0
   39.9070   32.9120   40.1910 C   0  0  0  0  0  0  0  0  0  0  0  0
   38.7170   33.5080   39.7780 C   0  0  0  0  0  0  0  0  0  0  0  0
   37.4480   32.9790   40.0020 C   0  0  0  0  0  0  0  0  0  0  0  0
   37.4440   31.7780   40.6860 C   0  0  0  0  0  0  0  0  0  0  0  0
   38.5600   31.1540   41.1090 C   0  0  0  0  0  0  0  0  0  0  0  0
   41.8080   29.4720   42.2500 H   0  0  0  0  0  0  0  0  0  0  0  0
   40.8520   33.3830   39.9810 H   0  0  0  0  0  0  0  0  0  0  0  0
   38.8350   34.4570   39.2450 H   0  0  0  0  0  0  0  0  0  0  0  0
   36.5760   33.4980   39.6530 H   0  0  0  0  0  0  0  0  0  0  0  0
   36.4820   31.4050   40.8640 H   0  0  0  0  0  0  0  0  0  0  0  0
   35.1380   29.1030   38.1060 C   0  0  0  0  0  0  0  0  0  0  0  0
   35.4520   28.9100   39.4440 C   0  0  0  0  0  0  0  0  0  0  0  0
   36.7020   28.4200   39.7860 C   0  0  0  0  0  0  0  0  0  0  0  0
   37.5690   28.1490   38.7730 N   0  0  0  0  0  0  0  0  0  0  0  0
   37.2530   28.3400   37.4680 C   0  0  0  0  0  0  0  0  0  0  0  0
   36.0240   28.8220   37.1460 N   0  0  0  0  0  0  0  0  0  0  0  0
   34.1450   29.4890   37.8980 H   0  0  0  0  0  0  0  0  0  0  0  0
   34.7420   29.1140   40.1930 H   0  0  0  0  0  0  0  0  0  0  0  0
   38.2080   28.0400   36.3710 C   0  0  0  0  0  0  0  0  0  0  0  0
   39.4580   28.5960   36.6570 F   0  0  0  0  0  0  0  0  0  0  0  0
   37.7360   28.4300   35.1300 F   0  0  0  0  0  0  0  0  0  0  0  0
   38.4230   26.6860   36.2860 F   0  0  0  0  0  0  0  0  0  0  0  0
  1  2  1  0  0  0  0
  1  5  1  0  0  0  0
  2  7  1  0  0  0  0
  2  3  1  0  0  0  0
  3  4  1  0  0  0  0
  3  8  1  0  0  0  0
  4 10  1  0  0  0  0
  4 11  1  0  0  0  0
  5 12  1  6  0  0  0
  5  4  1  0  0  0  0
  6  2  1  0  0  0  0
  9  3  1  0  0  0  0
 13  5  1  0  0  0  0
 13 14  1  0  0  0  0
 15 14  2  0  0  0  0
 15 23  1  0  0  0  0
 16 15  1  0  0  0  0
 17 22  1  0  0  0  0
 17 16  2  0  0  0  0
 18 17  1  0  0  0  0
 19 20  1  0  0  0  0
 19 18  2  0  0  0  0
 20 21  2  0  0  0  0
 21 27  1  0  0  0  0
 21 22  1  0  0  0  0
 22 13  2  0  0  0  0
 24 18  1  0  0  0  0
 25 19  1  0  0  0  0
 26 20  1  0  0  0  0
 28 29  1  0  0  0  0
 29 30  2  0  0  0  0
 29 35  1  0  0  0  0
 30  1  1  0  0  0  0
 31 30  1  0  0  0  0
 32 31  2  0  0  0  0
 33 32  1  0  0  0  0
 33 28  2  0  0  0  0
 34 28  1  0  0  0  0
 36 37  1  0  0  0  0
 36 32  1  0  0  0  0
 38 36  1  0  0  0  0
 39 36  1  0  0  0  0
M  END
>  <minimizedAffinity>
-5.65148973

$$$$

 OpenBabel03242512533D

 39 42  0  0  1  0  0  0  0  0999 V2000
   37.2510   30.3050   39.7910 N   0  0  0  0  0  0  0  0  0  0  0  0
   37.4530   31.6240   40.3660 C   0  0  0  0  0  0  0  0  0  0  0  0
   38.9160   31.7750   40.0100 C   0  0  0  0  0  0  0  0  0  0  0  0
   39.4610   30.4870   40.5870 C   0  0  0  0  0  0  0  0  0  0  0  0
   38.4130   29.4710   40.1990 C   0  0  1  0  0  0  0  0  0  0  0  0
   36.8100   32.3230   39.8280 H   0  0  0  0  0  0  0  0  0  0  0  0
   37.3410   31.6150   41.4660 H   0  0  0  0  0  0  0  0  0  0  0  0
   39.2880   32.6480   40.5890 H   0  0  0  0  0  0  0  0  0  0  0  0
   39.0550   31.8320   38.9320 H   0  0  0  0  0  0  0  0  0  0  0  0
   39.4070   30.6160   41.7000 H   0  0  0  0  0  0  0  0  0  0  0  0
   40.4790   30.2450   40.2450 H   0  0  0  0  0  0  0  0  0  0  0  0
   38.7440   29.0300   39.3010 H   0  0  0  0  0  0  0  0  0  0  0  0
   37.9400   28.6690   41.3140 C   0  0  0  0  0  0  0  0  0  0  0  0
   37.7920   29.2080   42.5510 N   0  0  0  0  0  0  0  0  0  0  0  0
   37.3720   28.5310   43.6300 C   0  0  0  0  0  0  0  0  0  0  0  0
   37.0730   27.2330   43.4980 N   0  0  0  0  0  0  0  0  0  0  0  0
   37.2000   26.6580   42.3150 C   0  0  0  0  0  0  0  0  0  0  0  0
   36.8730   25.3170   42.2250 C   0  0  0  0  0  0  0  0  0  0  0  0
   36.9990   24.7080   40.9790 C   0  0  0  0  0  0  0  0  0  0  0  0
   37.4310   25.3520   39.8230 C   0  0  0  0  0  0  0  0  0  0  0  0
   37.7370   26.6900   39.9960 C   0  0  0  0  0  0  0  0  0  0  0  0
   37.6340   27.3340   41.1740 C   0  0  0  0  0  0  0  0  0  0  0  0
   37.2870   29.0570   44.5790 H   0  0  0  0  0  0  0  0  0  0  0  0
   36.5330   24.7520   43.0760 H   0  0  0  0  0  0  0  0  0  0  0  0
   36.7300   23.6460   40.9540 H   0  0  0  0  0  0  0  0  0  0  0  0
   37.5020   24.8140   38.8970 H   0  0  0  0  0  0  0  0  0  0  0  0
   38.0790   27.1540   39.1220 H   0  0  0  0  0  0  0  0  0  0  0  0
   34.0610   28.8210   38.5580 C   0  0  0  0  0  0  0  0  0  0  0  0
   35.0040   29.2970   39.4590 C   0  0  0  0  0  0  0  0  0  0  0  0
   36.2100   29.7860   38.9860 C   0  0  0  0  0  0  0  0  0  0  0  0
   36.4090   29.7740   37.6410 N   0  0  0  0  0  0  0  0  0  0  0  0
   35.4830   29.3060   36.7680 C   0  0  0  0  0  0  0  0  0  0  0  0
   34.3020   28.8290   37.2440 N   0  0  0  0  0  0  0  0  0  0  0  0
   33.1340   28.4500   38.9860 H   0  0  0  0  0  0  0  0  0  0  0  0
   34.8140   29.2680   40.4940 H   0  0  0  0  0  0  0  0  0  0  0  0
   35.7110   29.2970   35.3000 C   0  0  0  0  0  0  0  0  0  0  0  0
   34.5160   29.5630   34.6260 F   0  0  0  0  0  0  0  0  0  0  0  0
   36.3090   28.1300   34.8600 F   0  0  0  0  0  0  0  0  0  0  0  0
   36.5620   30.3160   34.9460 F   0  0  0  0  0  0  0  0  0  0  0  0
  1  5  1  0  0  0  0
  1  2  1  0  0  0  0
  2  7  1  0  0  0  0
  3  2  1  0  0  0  0
  3  4  1  0  0  0  0
  3  8  1  0  0  0  0
  4 10  1  0  0  0  0
  5 12  1  6  0  0  0
  5  4  1  0  0  0  0
  5 13  1  0  0  0  0
  6  2  1  0  0  0  0
  9  3  1  0  0  0  0
 11  4  1  0  0  0  0
 13 14  1  0  0  0  0
 14 15  2  0  0  0  0
 15 23  1  0  0  0  0
 16 15  1  0  0  0  0
 17 16  2  0  0  0  0
 18 17  1  0  0  0  0
 18 24  1  0  0  0  0
 19 18  2  0  0  0  0
 20 21  2  0  0  0  0
 20 19  1  0  0  0  0
 21 22  1  0  0  0  0
 22 13  2  0  0  0  0
 22 17  1  0  0  0  0
 25 19  1  0  0  0  0
 26 20  1  0  0  0  0
 27 21  1  0  0  0  0
 28 34  1  0  0  0  0
 28 29  1  0  0  0  0
 29 35  1  0  0  0  0
 30 29  2  0  0  0  0
 30  1  1  0  0  0  0
 31 30  1  0  0  0  0
 32 33  1  0  0  0  0
 32 31  2  0  0  0  0
 33 28  2  0  0  0  0
 36 32  1  0  0  0  0
 37 36  1  0  0  0  0
 38 36  1  0  0  0  0
 39 36  1  0  0  0  0
M  END
>  <minimizedAffinity>
-5.64211369

$$$$

 OpenBabel03242512533D

 39 42  0  0  1  0  0  0  0  0999 V2000
   38.1420   28.9370   42.3000 N   0  0  0  0  0  0  0  0  0  0  0  0
   37.3740   28.6970   43.5100 C   0  0  0  0  0  0  0  0  0  0  0  0
   37.7190   27.2330   43.6780 C   0  0  0  0  0  0  0  0  0  0  0  0
   37.3510   26.7180   42.3040 C   0  0  0  0  0  0  0  0  0  0  0  0
   37.8780   27.7930   41.3850 C   0  0  1  0  0  0  0  0  0  0  0  0
   37.7910   29.3260   44.2990 H   0  0  0  0  0  0  0  0  0  0  0  0
   36.2870   28.8010   43.3350 H   0  0  0  0  0  0  0  0  0  0  0  0
   37.0180   26.8340   44.4430 H   0  0  0  0  0  0  0  0  0  0  0  0
   38.7770   27.1010   43.8960 H   0  0  0  0  0  0  0  0  0  0  0  0
   36.2310   26.7600   42.2620 H   0  0  0  0  0  0  0  0  0  0  0  0
   37.7380   25.7080   42.0930 H   0  0  0  0  0  0  0  0  0  0  0  0
   38.8370   27.4810   41.0790 H   0  0  0  0  0  0  0  0  0  0  0  0
   36.8940   28.2790   40.4340 C   0  0  0  0  0  0  0  0  0  0  0  0
   35.6450   28.6260   40.8350 N   0  0  0  0  0  0  0  0  0  0  0  0
   34.6790   29.0710   40.0170 C   0  0  0  0  0  0  0  0  0  0  0  0
   34.9480   29.1890   38.7110 N   0  0  0  0  0  0  0  0  0  0  0  0
   36.1490   28.8640   38.2670 C   0  0  0  0  0  0  0  0  0  0  0  0
   36.3820   29.0080   36.9110 C   0  0  0  0  0  0  0  0  0  0  0  0
   37.6490   28.6730   36.4380 C   0  0  0  0  0  0  0  0  0  0  0  0
   38.6920   28.2040   37.2330 C   0  0  0  0  0  0  0  0  0  0  0  0
   38.3790   28.0890   38.5750 C   0  0  0  0  0  0  0  0  0  0  0  0
   37.1740   28.3980   39.0910 C   0  0  0  0  0  0  0  0  0  0  0  0
   33.7090   29.3220   40.4390 H   0  0  0  0  0  0  0  0  0  0  0  0
   35.6250   29.3640   36.2330 H   0  0  0  0  0  0  0  0  0  0  0  0
   37.7900   28.8020   35.3600 H   0  0  0  0  0  0  0  0  0  0  0  0
   39.6430   27.9660   36.7950 H   0  0  0  0  0  0  0  0  0  0  0  0
   39.1670   27.7160   39.1550 H   0  0  0  0  0  0  0  0  0  0  0  0
   41.0590   31.2260   41.9190 C   0  0  0  0  0  0  0  0  0  0  0  0
   40.3160   30.1390   42.3570 C   0  0  0  0  0  0  0  0  0  0  0  0
   39.0040   29.9970   41.9360 C   0  0  0  0  0  0  0  0  0  0  0  0
   38.5070   30.9470   41.1000 N   0  0  0  0  0  0  0  0  0  0  0  0
   39.2400   32.0060   40.6760 C   0  0  0  0  0  0  0  0  0  0  0  0
   40.5260   32.1340   41.0970 N   0  0  0  0  0  0  0  0  0  0  0  0
   42.0810   31.2850   42.2810 H   0  0  0  0  0  0  0  0  0  0  0  0
   40.7370   29.4380   43.0210 H   0  0  0  0  0  0  0  0  0  0  0  0
   38.6860   33.0390   39.7630 C   0  0  0  0  0  0  0  0  0  0  0  0
   39.5290   34.1520   39.7300 F   0  0  0  0  0  0  0  0  0  0  0  0
   37.3820   33.3810   40.0720 F   0  0  0  0  0  0  0  0  0  0  0  0
   38.6580   32.5650   38.4730 F   0  0  0  0  0  0  0  0  0  0  0  0
  1  2  1  0  0  0  0
  2  3  1  0  0  0  0
  2  6  1  0  0  0  0
  3  9  1  0  0  0  0
  3  8  1  0  0  0  0
  4  3  1  0  0  0  0
  5 12  1  6  0  0  0
  5  1  1  0  0  0  0
  5  4  1  0  0  0  0
  7  2  1  0  0  0  0
 10  4  1  0  0  0  0
 11  4  1  0  0  0  0
 13 14  1  0  0  0  0
 13  5  1  0  0  0  0
 15 23  1  0  0  0  0
 15 14  2  0  0  0  0
 16 15  1  0  0  0  0
 17 16  2  0  0  0  0
 17 22  1  0  0  0  0
 18 17  1  0  0  0  0
 19 18  2  0  0  0  0
 19 20  1  0  0  0  0
 20 21  2  0  0  0  0
 21 22  1  0  0  0  0
 21 27  1  0  0  0  0
 22 13  2  0  0  0  0
 24 18  1  0  0  0  0
 25 19  1  0  0  0  0
 26 20  1  0  0  0  0
 28 34  1  0  0  0  0
 28 29  1  0  0  0  0
 29 35  1  0  0  0  0
 30  1  1  0  0  0  0
 30 29  2  0  0  0  0
 31 30  1  0  0  0  0
 32 33  1  0  0  0  0
 32 31  2  0  0  0  0
 33 28  2  0  0  0  0
 36 38  1  0  0  0  0
 36 32  1  0  0  0  0
 37 36  1  0  0  0  0
 39 36  1  0  0  0  0
M  END
>  <minimizedAffinity>
-5.53564405

$$$$
