
 OpenBabel03242521213D

 31 33  0  0  0  0  0  0  0  0999 V2000
   44.5830   32.3290   37.8540 C   0  0  0  0  0  0  0  0  0  0  0  0
   44.0690   31.5230   36.8840 C   0  0  0  0  0  0  0  0  0  0  0  0
   42.7300   31.1980   36.7820 C   0  0  0  0  0  0  0  0  0  0  0  0
   41.9300   31.7440   37.7290 N   0  0  0  0  0  0  0  0  0  0  0  0
   42.4370   32.5390   38.6840 C   0  0  0  0  0  0  0  0  0  0  0  0
   43.7520   32.8580   38.7840 N   0  0  0  0  0  0  0  0  0  0  0  0
   44.7160   31.0900   36.1320 H   0  0  0  0  0  0  0  0  0  0  0  0
   42.3140   30.5670   36.0260 H   0  0  0  0  0  0  0  0  0  0  0  0
   41.5290   33.1210   39.7060 C   0  0  0  0  0  0  0  0  0  0  0  0
   41.2350   32.3930   40.8430 C   0  0  0  0  0  0  0  0  0  0  0  0
   40.4090   32.8350   41.8510 C   0  0  0  0  0  0  0  0  0  0  0  0
   39.8420   34.1080   41.6900 C   0  0  0  0  0  0  0  0  0  0  0  0
   40.1350   34.8230   40.5660 C   0  0  0  0  0  0  0  0  0  0  0  0
   40.9630   34.3640   39.5700 C   0  0  0  0  0  0  0  0  0  0  0  0
   41.6870   31.4130   40.9420 H   0  0  0  0  0  0  0  0  0  0  0  0
   40.2190   32.2130   42.7190 H   0  0  0  0  0  0  0  0  0  0  0  0
   39.1890   34.4730   42.4700 H   0  0  0  0  0  0  0  0  0  0  0  0
   39.6790   35.8000   40.4770 H   0  0  0  0  0  0  0  0  0  0  0  0
   41.2670   35.1630   38.3540 C   0  0  0  0  0  0  0  0  0  0  0  0
   40.8080   36.4640   38.5940 F   0  0  0  0  0  0  0  0  0  0  0  0
   42.5930   35.2510   38.0570 F   0  0  0  0  0  0  0  0  0  0  0  0
   40.4900   34.6810   37.3070 F   0  0  0  0  0  0  0  0  0  0  0  0
   47.8640   33.7330   37.0180 C   0  0  0  0  0  0  0  0  0  0  0  0
   48.6700   33.2300   38.0310 C   0  0  0  0  0  0  0  0  0  0  0  0
   48.1000   32.4160   38.9960 C   0  0  0  0  0  0  0  0  0  0  0  0
   46.7590   32.1400   38.9110 N   0  0  0  0  0  0  0  0  0  0  0  0
   46.0030   32.6400   37.9190 C   0  0  0  0  0  0  0  0  0  0  0  0
   46.5470   33.4240   36.9870 N   0  0  0  0  0  0  0  0  0  0  0  0
   48.3540   34.3640   36.2880 H   0  0  0  0  0  0  0  0  0  0  0  0
   49.7110   33.3910   38.1760 H   0  0  0  0  0  0  0  0  0  0  0  0
   48.5450   31.9310   39.8540 H   0  0  0  0  0  0  0  0  0  0  0  0
  1 27  1  0  0  0  0
  1  6  1  0  0  0  0
  2  1  2  0  0  0  0
  3  2  1  0  0  0  0
  3  4  2  0  0  0  0
  4  5  1  0  0  0  0
  5  6  2  0  0  0  0
  5  9  1  0  0  0  0
  7  2  1  0  0  0  0
  8  3  1  0  0  0  0
  9 10  1  0  0  0  0
 10 15  1  0  0  0  0
 10 11  2  0  0  0  0
 11 16  1  0  0  0  0
 12 11  1  0  0  0  0
 12 17  1  0  0  0  0
 13 12  2  0  0  0  0
 14  9  2  0  0  0  0
 14 13  1  0  0  0  0
 18 13  1  0  0  0  0
 19 20  1  0  0  0  0
 19 14  1  0  0  0  0
 21 19  1  0  0  0  0
 22 19  1  0  0  0  0
 23 24  1  0  0  0  0
 24 30  1  0  0  0  0
 24 25  2  0  0  0  0
 25 31  1  0  0  0  0
 26 25  1  0  0  0  0
 27 26  2  0  0  0  0
 28 23  2  0  0  0  0
 28 27  1  0  0  0  0
 29 23  1  0  0  0  0
M  END
>  <minimizedAffinity>
-4.5985117

>  <minimizedRMSD>
8.62353134

$$$$
