
 OpenBabel03242522133D

 21 22  0  0  0  0  0  0  0  0999 V2000
   44.4310   35.8950   44.7380 C   0  0  0  0  0  0  0  0  0  0  0  0
   44.6460   35.5200   43.3990 C   0  0  0  0  0  0  0  0  0  0  0  0
   45.2430   34.3120   43.1510 C   0  0  0  0  0  0  0  0  0  0  0  0
   45.5920   33.5440   44.2480 N   0  0  0  0  0  0  0  0  0  0  0  0
   45.3720   33.9360   45.5090 C   0  0  0  0  0  0  0  0  0  0  0  0
   44.7900   35.1130   45.7530 N   0  0  0  0  0  0  0  0  0  0  0  0
   43.9610   36.8410   44.9720 H   0  0  0  0  0  0  0  0  0  0  0  0
   45.7190   33.1950   46.2320 H   0  0  0  0  0  0  0  0  0  0  0  0
   45.5060   33.8370   41.7720 C   0  0  0  0  0  0  0  0  0  0  0  0
   44.6620   33.0130   41.0990 C   0  0  0  0  0  0  0  0  0  0  0  0
   45.5120   32.7840   39.4780 S   0  0  0  0  0  0  0  0  0  0  0  0
   46.9210   33.9070   40.0470 C   0  0  0  0  0  0  0  0  0  0  0  0
   46.5650   34.1740   41.1000 N   0  0  0  0  0  0  0  0  0  0  0  0
   43.6790   32.6090   41.5230 H   0  0  0  0  0  0  0  0  0  0  0  0
   48.1110   34.2380   39.1920 C   0  0  0  0  0  0  0  0  0  0  0  0
   48.9990   33.2250   39.3710 F   0  0  0  0  0  0  0  0  0  0  0  0
   47.6920   34.4320   37.9100 F   0  0  0  0  0  0  0  0  0  0  0  0
   48.6310   35.4250   39.7140 F   0  0  0  0  0  0  0  0  0  0  0  0
   44.2270   36.4300   42.4070 N   0  0  0  0  0  0  0  0  0  0  0  0
   44.9000   36.6160   41.6260 H   0  0  0  0  0  0  0  0  0  0  0  0
   43.2910   36.8400   42.5300 H   0  0  0  0  0  0  0  0  0  0  0  0
  1  7  1  0  0  0  0
  1  6  1  0  0  0  0
  2  1  2  0  0  0  0
  3  2  1  0  0  0  0
  3  4  2  0  0  0  0
  4  5  1  0  0  0  0
  5  6  2  0  0  0  0
  5  8  1  0  0  0  0
  9  3  1  0  0  0  0
 10 14  1  0  0  0  0
 10  9  2  0  0  0  0
 11 12  1  0  0  0  0
 11 10  1  0  0  0  0
 12 13  2  0  0  0  0
 13  9  1  0  0  0  0
 15 16  1  0  0  0  0
 15 18  1  0  0  0  0
 15 12  1  0  0  0  0
 17 15  1  0  0  0  0
 19 21  1  0  0  0  0
 19  2  1  0  0  0  0
 20 19  1  0  0  0  0
M  END
>  <minimizedAffinity>
-4.75736618

>  <minimizedRMSD>
2.05853939

$$$$
