
 OpenBabel03242513393D

 29 31  0  0  0  0  0  0  0  0999 V2000
   36.2500   28.1730   40.7120 C   0  0  0  0  0  0  0  0  0  0  0  0
   36.3330   29.1620   39.7470 C   0  0  0  0  0  0  0  0  0  0  0  0
   37.2270   30.1830   39.9430 C   0  0  0  0  0  0  0  0  0  0  0  0
   38.0460   30.2710   41.0500 C   0  0  0  0  0  0  0  0  0  0  0  0
   38.9890   31.1070   41.5200 N   0  0  0  0  0  0  0  0  0  0  0  0
   39.4570   30.6470   42.7130 C   0  0  0  0  0  0  0  0  0  0  0  0
   38.7840   29.5070   42.9730 N   0  0  0  0  0  0  0  0  0  0  0  0
   37.9200   29.2580   41.9760 C   0  0  0  0  0  0  0  0  0  0  0  0
   37.0500   28.2110   41.8450 C   0  0  0  0  0  0  0  0  0  0  0  0
   35.5460   27.3550   40.5730 H   0  0  0  0  0  0  0  0  0  0  0  0
   37.3090   30.9680   39.2000 H   0  0  0  0  0  0  0  0  0  0  0  0
   39.2830   31.9680   41.0070 H   0  0  0  0  0  0  0  0  0  0  0  0
   40.2190   31.1070   43.3280 H   0  0  0  0  0  0  0  0  0  0  0  0
   33.3600   28.8750   37.6410 C   0  0  0  0  0  0  0  0  0  0  0  0
   33.8670   28.9590   36.3560 C   0  0  0  0  0  0  0  0  0  0  0  0
   35.2500   29.1160   36.2350 C   0  0  0  0  0  0  0  0  0  0  0  0
   36.0240   29.1780   37.3480 N   0  0  0  0  0  0  0  0  0  0  0  0
   35.4810   29.0920   38.5710 C   0  0  0  0  0  0  0  0  0  0  0  0
   34.1550   28.9400   38.7350 N   0  0  0  0  0  0  0  0  0  0  0  0
   32.3000   28.7510   37.8800 H   0  0  0  0  0  0  0  0  0  0  0  0
   35.6530   29.1820   35.2350 H   0  0  0  0  0  0  0  0  0  0  0  0
   32.9240   28.8790   35.2170 C   0  0  0  0  0  0  0  0  0  0  0  0
   31.7320   28.4130   35.7600 F   0  0  0  0  0  0  0  0  0  0  0  0
   33.4010   27.9540   34.3250 F   0  0  0  0  0  0  0  0  0  0  0  0
   32.8290   30.1260   34.6420 F   0  0  0  0  0  0  0  0  0  0  0  0
   36.9700   27.1470   42.8970 C   0  0  0  0  0  0  0  0  0  0  0  0
   35.8760   27.4220   43.6800 F   0  0  0  0  0  0  0  0  0  0  0  0
   38.1170   27.0220   43.6220 F   0  0  0  0  0  0  0  0  0  0  0  0
   36.7310   25.9100   42.3020 F   0  0  0  0  0  0  0  0  0  0  0  0
  1  9  1  0  0  0  0
  2  3  1  0  0  0  0
  2  1  2  0  0  0  0
  3  4  2  0  0  0  0
  4  5  1  0  0  0  0
  4  8  1  0  0  0  0
  5  6  1  0  0  0  0
  6  7  2  0  0  0  0
  6 13  1  0  0  0  0
  8  7  1  0  0  0  0
  9  8  2  0  0  0  0
  9 26  1  0  0  0  0
 10  1  1  0  0  0  0
 11  3  1  0  0  0  0
 12  5  1  0  0  0  0
 14 20  1  0  0  0  0
 14 19  1  0  0  0  0
 15 14  2  0  0  0  0
 16 15  1  0  0  0  0
 16 17  2  0  0  0  0
 17 18  1  0  0  0  0
 18 19  2  0  0  0  0
 18  2  1  0  0  0  0
 21 16  1  0  0  0  0
 22 23  1  0  0  0  0
 22 15  1  0  0  0  0
 24 22  1  0  0  0  0
 25 22  1  0  0  0  0
 26 28  1  0  0  0  0
 26 27  1  0  0  0  0
 29 26  1  0  0  0  0
M  END
>  <minimizedAffinity>
-5.58060789

$$$$

 OpenBabel03242513393D

 29 31  0  0  0  0  0  0  0  0999 V2000
   38.3310   30.2360   39.9280 C   0  0  0  0  0  0  0  0  0  0  0  0
   39.2240   29.7410   40.8640 C   0  0  0  0  0  0  0  0  0  0  0  0
   40.1880   30.5880   41.3480 C   0  0  0  0  0  0  0  0  0  0  0  0
   40.3100   31.9040   40.9510 C   0  0  0  0  0  0  0  0  0  0  0  0
   41.1100   32.9500   41.2230 N   0  0  0  0  0  0  0  0  0  0  0  0
   40.7220   34.0280   40.4890 C   0  0  0  0  0  0  0  0  0  0  0  0
   39.6620   33.6280   39.7540 N   0  0  0  0  0  0  0  0  0  0  0  0
   39.3940   32.3400   40.0190 C   0  0  0  0  0  0  0  0  0  0  0  0
   38.4080   31.5510   39.4940 C   0  0  0  0  0  0  0  0  0  0  0  0
   37.5600   29.5780   39.5330 H   0  0  0  0  0  0  0  0  0  0  0  0
   40.8980   30.2220   42.0810 H   0  0  0  0  0  0  0  0  0  0  0  0
   41.8990   32.8910   41.9060 H   0  0  0  0  0  0  0  0  0  0  0  0
   41.1740   35.0110   40.4950 H   0  0  0  0  0  0  0  0  0  0  0  0
   38.8940   26.1030   40.7760 C   0  0  0  0  0  0  0  0  0  0  0  0
   38.9130   25.7460   42.1130 C   0  0  0  0  0  0  0  0  0  0  0  0
   39.0420   26.7840   43.0390 C   0  0  0  0  0  0  0  0  0  0  0  0
   39.1400   28.0670   42.6080 N   0  0  0  0  0  0  0  0  0  0  0  0
   39.1160   28.3580   41.2990 C   0  0  0  0  0  0  0  0  0  0  0  0
   38.9940   27.3910   40.3740 N   0  0  0  0  0  0  0  0  0  0  0  0
   38.7990   25.3930   39.9490 H   0  0  0  0  0  0  0  0  0  0  0  0
   39.0570   26.5130   44.0850 H   0  0  0  0  0  0  0  0  0  0  0  0
   38.7990   24.3110   42.4640 C   0  0  0  0  0  0  0  0  0  0  0  0
   39.2390   23.6230   41.3400 F   0  0  0  0  0  0  0  0  0  0  0  0
   37.4760   24.0230   42.6770 F   0  0  0  0  0  0  0  0  0  0  0  0
   39.5500   24.0790   43.5950 F   0  0  0  0  0  0  0  0  0  0  0  0
   37.4470   32.0990   38.4820 C   0  0  0  0  0  0  0  0  0  0  0  0
   38.1200   32.1990   37.2890 F   0  0  0  0  0  0  0  0  0  0  0  0
   36.8780   33.2760   38.8650 F   0  0  0  0  0  0  0  0  0  0  0  0
   36.4080   31.1930   38.2770 F   0  0  0  0  0  0  0  0  0  0  0  0
  1  2  1  0  0  0  0
  2 18  1  0  0  0  0
  2  3  2  0  0  0  0
  3 11  1  0  0  0  0
  4  5  1  0  0  0  0
  4  3  1  0  0  0  0
  5 12  1  0  0  0  0
  6 13  1  0  0  0  0
  6  5  1  0  0  0  0
  7  8  1  0  0  0  0
  7  6  2  0  0  0  0
  8  4  2  0  0  0  0
  9  1  2  0  0  0  0
  9  8  1  0  0  0  0
 10  1  1  0  0  0  0
 14 15  1  0  0  0  0
 15 22  1  0  0  0  0
 15 16  2  0  0  0  0
 16 21  1  0  0  0  0
 17 16  1  0  0  0  0
 18 17  2  0  0  0  0
 19 14  2  0  0  0  0
 19 18  1  0  0  0  0
 20 14  1  0  0  0  0
 22 24  1  0  0  0  0
 22 25  1  0  0  0  0
 23 22  1  0  0  0  0
 26 28  1  0  0  0  0
 26  9  1  0  0  0  0
 27 26  1  0  0  0  0
 29 26  1  0  0  0  0
M  END
>  <minimizedAffinity>
-5.46687555

$$$$

 OpenBabel03242513393D

 29 31  0  0  0  0  0  0  0  0999 V2000
   40.2930   30.4990   40.8820 C   0  0  0  0  0  0  0  0  0  0  0  0
   39.0500   29.9140   41.0580 C   0  0  0  0  0  0  0  0  0  0  0  0
   37.9370   30.6930   40.8680 C   0  0  0  0  0  0  0  0  0  0  0  0
   37.9950   32.0240   40.5090 C   0  0  0  0  0  0  0  0  0  0  0  0
   37.1280   33.0200   40.2560 N   0  0  0  0  0  0  0  0  0  0  0  0
   37.8100   34.1550   39.9410 C   0  0  0  0  0  0  0  0  0  0  0  0
   39.1220   33.8410   40.0040 N   0  0  0  0  0  0  0  0  0  0  0  0
   39.2580   32.5510   40.3480 C   0  0  0  0  0  0  0  0  0  0  0  0
   40.4100   31.8330   40.5220 C   0  0  0  0  0  0  0  0  0  0  0  0
   41.1870   29.8970   41.0290 H   0  0  0  0  0  0  0  0  0  0  0  0
   36.9540   30.2560   41.0010 H   0  0  0  0  0  0  0  0  0  0  0  0
   36.0930   32.8900   40.3070 H   0  0  0  0  0  0  0  0  0  0  0  0
   37.3840   35.1160   39.6890 H   0  0  0  0  0  0  0  0  0  0  0  0
   38.6330   26.2910   40.8340 C   0  0  0  0  0  0  0  0  0  0  0  0
   38.7950   25.8680   42.1410 C   0  0  0  0  0  0  0  0  0  0  0  0
   39.0490   26.8560   43.0950 C   0  0  0  0  0  0  0  0  0  0  0  0
   39.1260   28.1570   42.7180 N   0  0  0  0  0  0  0  0  0  0  0  0
   38.9620   28.5130   41.4360 C   0  0  0  0  0  0  0  0  0  0  0  0
   38.7150   27.5960   40.4850 N   0  0  0  0  0  0  0  0  0  0  0  0
   38.4300   25.6260   39.9900 H   0  0  0  0  0  0  0  0  0  0  0  0
   39.1770   26.5320   44.1190 H   0  0  0  0  0  0  0  0  0  0  0  0
   38.6890   24.4190   42.4340 C   0  0  0  0  0  0  0  0  0  0  0  0
   39.4800   24.2140   43.5580 F   0  0  0  0  0  0  0  0  0  0  0  0
   39.2220   23.7250   41.3780 F   0  0  0  0  0  0  0  0  0  0  0  0
   37.3600   24.1080   42.6170 F   0  0  0  0  0  0  0  0  0  0  0  0
   41.7490   32.4780   40.3270 C   0  0  0  0  0  0  0  0  0  0  0  0
   41.8940   33.4290   41.3080 F   0  0  0  0  0  0  0  0  0  0  0  0
   41.9240   32.9840   39.0750 F   0  0  0  0  0  0  0  0  0  0  0  0
   42.7590   31.5410   40.5310 F   0  0  0  0  0  0  0  0  0  0  0  0
  1 10  1  0  0  0  0
  1  2  1  0  0  0  0
  2 18  1  0  0  0  0
  3 11  1  0  0  0  0
  3  2  2  0  0  0  0
  4  3  1  0  0  0  0
  5 12  1  0  0  0  0
  5  4  1  0  0  0  0
  6  7  2  0  0  0  0
  6  5  1  0  0  0  0
  7  8  1  0  0  0  0
  8  4  2  0  0  0  0
  8  9  1  0  0  0  0
  9  1  2  0  0  0  0
 13  6  1  0  0  0  0
 14 15  1  0  0  0  0
 15 22  1  0  0  0  0
 15 16  2  0  0  0  0
 16 21  1  0  0  0  0
 17 16  1  0  0  0  0
 18 17  2  0  0  0  0
 19 14  2  0  0  0  0
 19 18  1  0  0  0  0
 20 14  1  0  0  0  0
 22 25  1  0  0  0  0
 22 23  1  0  0  0  0
 24 22  1  0  0  0  0
 26  9  1  0  0  0  0
 26 29  1  0  0  0  0
 26 27  1  0  0  0  0
 28 26  1  0  0  0  0
M  END
>  <minimizedAffinity>
-5.44191313

$$$$

 OpenBabel03242513393D

 29 31  0  0  0  0  0  0  0  0999 V2000
   36.8360   26.7860   39.2650 C   0  0  0  0  0  0  0  0  0  0  0  0
   36.7010   28.1590   39.1500 C   0  0  0  0  0  0  0  0  0  0  0  0
   36.6890   28.9050   40.3010 C   0  0  0  0  0  0  0  0  0  0  0  0
   36.8050   28.3560   41.5620 C   0  0  0  0  0  0  0  0  0  0  0  0
   36.8290   28.7930   42.8330 N   0  0  0  0  0  0  0  0  0  0  0  0
   36.9720   27.7360   43.6790 C   0  0  0  0  0  0  0  0  0  0  0  0
   37.0370   26.6330   42.9040 N   0  0  0  0  0  0  0  0  0  0  0  0
   36.9370   26.9850   41.6130 C   0  0  0  0  0  0  0  0  0  0  0  0
   36.9570   26.1810   40.5070 C   0  0  0  0  0  0  0  0  0  0  0  0
   36.8470   26.1780   38.3620 H   0  0  0  0  0  0  0  0  0  0  0  0
   36.5840   29.9820   40.2350 H   0  0  0  0  0  0  0  0  0  0  0  0
   36.7470   29.8040   43.0820 H   0  0  0  0  0  0  0  0  0  0  0  0
   37.0240   27.7750   44.7590 H   0  0  0  0  0  0  0  0  0  0  0  0
   37.0210   30.5270   36.3860 C   0  0  0  0  0  0  0  0  0  0  0  0
   36.3470   29.9050   35.3500 C   0  0  0  0  0  0  0  0  0  0  0  0
   35.7830   28.6580   35.6270 C   0  0  0  0  0  0  0  0  0  0  0  0
   35.9120   28.1160   36.8640 N   0  0  0  0  0  0  0  0  0  0  0  0
   36.5770   28.7620   37.8330 C   0  0  0  0  0  0  0  0  0  0  0  0
   37.1360   29.9640   37.6110 N   0  0  0  0  0  0  0  0  0  0  0  0
   37.5090   31.5030   36.3070 H   0  0  0  0  0  0  0  0  0  0  0  0
   35.2540   28.1660   34.8230 H   0  0  0  0  0  0  0  0  0  0  0  0
   36.2710   30.5930   34.0410 C   0  0  0  0  0  0  0  0  0  0  0  0
   34.9140   30.7120   33.7670 F   0  0  0  0  0  0  0  0  0  0  0  0
   36.8500   29.7880   33.0950 F   0  0  0  0  0  0  0  0  0  0  0  0
   36.9310   31.7970   34.1440 F   0  0  0  0  0  0  0  0  0  0  0  0
   37.1040   24.6960   40.6450 C   0  0  0  0  0  0  0  0  0  0  0  0
   37.0920   24.1620   39.3790 F   0  0  0  0  0  0  0  0  0  0  0  0
   36.1660   24.1370   41.4590 F   0  0  0  0  0  0  0  0  0  0  0  0
   38.3490   24.3920   41.1920 F   0  0  0  0  0  0  0  0  0  0  0  0
  1  9  1  0  0  0  0
  2  1  2  0  0  0  0
  2  3  1  0  0  0  0
  3  4  2  0  0  0  0
  4  8  1  0  0  0  0
  4  5  1  0  0  0  0
  5 12  1  0  0  0  0
  5  6  1  0  0  0  0
  6 13  1  0  0  0  0
  7  6  2  0  0  0  0
  8  7  1  0  0  0  0
  9 26  1  0  0  0  0
  9  8  2  0  0  0  0
 10  1  1  0  0  0  0
 11  3  1  0  0  0  0
 14 19  1  0  0  0  0
 15 16  1  0  0  0  0
 15 14  2  0  0  0  0
 16 17  2  0  0  0  0
 17 18  1  0  0  0  0
 18  2  1  0  0  0  0
 19 18  2  0  0  0  0
 20 14  1  0  0  0  0
 21 16  1  0  0  0  0
 22 25  1  0  0  0  0
 22 15  1  0  0  0  0
 23 22  1  0  0  0  0
 24 22  1  0  0  0  0
 26 29  1  0  0  0  0
 26 28  1  0  0  0  0
 27 26  1  0  0  0  0
M  END
>  <minimizedAffinity>
-5.37944174

$$$$

 OpenBabel03242513393D

 29 31  0  0  0  0  0  0  0  0999 V2000
   36.9550   28.2600   40.1650 C   0  0  0  0  0  0  0  0  0  0  0  0
   36.8660   27.6150   38.9430 C   0  0  0  0  0  0  0  0  0  0  0  0
   36.9340   26.2450   38.9290 C   0  0  0  0  0  0  0  0  0  0  0  0
   37.0840   25.4810   40.0680 C   0  0  0  0  0  0  0  0  0  0  0  0
   37.1800   24.1770   40.3810 N   0  0  0  0  0  0  0  0  0  0  0  0
   37.3200   24.0360   41.7270 C   0  0  0  0  0  0  0  0  0  0  0  0
   37.3080   25.2830   42.2450 N   0  0  0  0  0  0  0  0  0  0  0  0
   37.1660   26.1780   41.2550 C   0  0  0  0  0  0  0  0  0  0  0  0
   37.1060   27.5420   41.3420 C   0  0  0  0  0  0  0  0  0  0  0  0
   36.9040   29.3460   40.1950 H   0  0  0  0  0  0  0  0  0  0  0  0
   36.8670   25.7190   37.9830 H   0  0  0  0  0  0  0  0  0  0  0  0
   37.1470   23.4230   39.6590 H   0  0  0  0  0  0  0  0  0  0  0  0
   37.4190   23.1080   42.2730 H   0  0  0  0  0  0  0  0  0  0  0  0
   35.9540   28.5620   35.5340 C   0  0  0  0  0  0  0  0  0  0  0  0
   36.4050   29.8670   35.4310 C   0  0  0  0  0  0  0  0  0  0  0  0
   37.0270   30.4070   36.5590 C   0  0  0  0  0  0  0  0  0  0  0  0
   37.1640   29.6570   37.6810 N   0  0  0  0  0  0  0  0  0  0  0  0
   36.7080   28.3970   37.7270 C   0  0  0  0  0  0  0  0  0  0  0  0
   36.1030   27.8360   36.6660 N   0  0  0  0  0  0  0  0  0  0  0  0
   35.4510   28.0180   34.7290 H   0  0  0  0  0  0  0  0  0  0  0  0
   37.3820   31.4250   36.4860 H   0  0  0  0  0  0  0  0  0  0  0  0
   36.1990   30.5880   34.1540 C   0  0  0  0  0  0  0  0  0  0  0  0
   36.8740   29.8380   33.1970 F   0  0  0  0  0  0  0  0  0  0  0  0
   36.7900   31.8210   34.2540 F   0  0  0  0  0  0  0  0  0  0  0  0
   34.8450   30.6980   33.9300 F   0  0  0  0  0  0  0  0  0  0  0  0
   37.2030   28.2270   42.6720 C   0  0  0  0  0  0  0  0  0  0  0  0
   36.9530   29.5620   42.4650 F   0  0  0  0  0  0  0  0  0  0  0  0
   38.3890   28.0070   43.3040 F   0  0  0  0  0  0  0  0  0  0  0  0
   36.2000   27.7620   43.5190 F   0  0  0  0  0  0  0  0  0  0  0  0
  1 10  1  0  0  0  0
  1  9  1  0  0  0  0
  2  1  2  0  0  0  0
  3  2  1  0  0  0  0
  3  4  2  0  0  0  0
  4  5  1  0  0  0  0
  4  8  1  0  0  0  0
  5  6  1  0  0  0  0
  6  7  2  0  0  0  0
  6 13  1  0  0  0  0
  8  9  2  0  0  0  0
  8  7  1  0  0  0  0
  9 26  1  0  0  0  0
 11  3  1  0  0  0  0
 12  5  1  0  0  0  0
 14 19  1  0  0  0  0
 15 14  2  0  0  0  0
 15 16  1  0  0  0  0
 16 17  2  0  0  0  0
 17 18  1  0  0  0  0
 18  2  1  0  0  0  0
 19 18  2  0  0  0  0
 20 14  1  0  0  0  0
 21 16  1  0  0  0  0
 22 24  1  0  0  0  0
 22 15  1  0  0  0  0
 23 22  1  0  0  0  0
 25 22  1  0  0  0  0
 26 28  1  0  0  0  0
 26 29  1  0  0  0  0
 27 26  1  0  0  0  0
M  END
>  <minimizedAffinity>
-5.35545301

$$$$

 OpenBabel03242513393D

 29 31  0  0  0  0  0  0  0  0999 V2000
   37.5050   27.1520   40.9210 C   0  0  0  0  0  0  0  0  0  0  0  0
   37.0930   27.9700   39.8810 C   0  0  0  0  0  0  0  0  0  0  0  0
   36.4250   27.3920   38.8320 C   0  0  0  0  0  0  0  0  0  0  0  0
   36.1420   26.0430   38.7630 C   0  0  0  0  0  0  0  0  0  0  0  0
   35.5310   25.2020   37.9100 N   0  0  0  0  0  0  0  0  0  0  0  0
   35.5680   23.9360   38.4080 C   0  0  0  0  0  0  0  0  0  0  0  0
   36.2170   24.0090   39.5900 N   0  0  0  0  0  0  0  0  0  0  0  0
   36.5760   25.2810   39.8260 C   0  0  0  0  0  0  0  0  0  0  0  0
   37.2480   25.7900   40.9030 C   0  0  0  0  0  0  0  0  0  0  0  0
   38.0370   27.5930   41.7610 H   0  0  0  0  0  0  0  0  0  0  0  0
   36.0930   28.0120   38.0070 H   0  0  0  0  0  0  0  0  0  0  0  0
   35.1050   25.5240   37.0120 H   0  0  0  0  0  0  0  0  0  0  0  0
   35.1580   23.0480   37.9460 H   0  0  0  0  0  0  0  0  0  0  0  0
   37.1340   31.5200   39.0210 C   0  0  0  0  0  0  0  0  0  0  0  0
   37.9130   32.0830   40.0170 C   0  0  0  0  0  0  0  0  0  0  0  0
   38.4200   31.2140   40.9850 C   0  0  0  0  0  0  0  0  0  0  0  0
   38.1400   29.8880   40.9180 N   0  0  0  0  0  0  0  0  0  0  0  0
   37.3790   29.3940   39.9300 C   0  0  0  0  0  0  0  0  0  0  0  0
   36.8700   30.1940   38.9770 N   0  0  0  0  0  0  0  0  0  0  0  0
   36.6760   32.0840   38.2030 H   0  0  0  0  0  0  0  0  0  0  0  0
   39.0290   31.6460   41.7660 H   0  0  0  0  0  0  0  0  0  0  0  0
   38.1510   33.5450   39.9880 C   0  0  0  0  0  0  0  0  0  0  0  0
   39.2680   33.7190   39.1800 F   0  0  0  0  0  0  0  0  0  0  0  0
   38.4490   33.9600   41.2600 F   0  0  0  0  0  0  0  0  0  0  0  0
   37.0140   34.1610   39.5150 F   0  0  0  0  0  0  0  0  0  0  0  0
   37.6870   24.8950   42.0220 C   0  0  0  0  0  0  0  0  0  0  0  0
   38.3710   25.6710   42.9260 F   0  0  0  0  0  0  0  0  0  0  0  0
   38.4110   23.8210   41.5980 F   0  0  0  0  0  0  0  0  0  0  0  0
   36.5740   24.3930   42.6920 F   0  0  0  0  0  0  0  0  0  0  0  0
  1 10  1  0  0  0  0
  2 18  1  0  0  0  0
  2  1  2  0  0  0  0
  3  2  1  0  0  0  0
  4  3  2  0  0  0  0
  4  8  1  0  0  0  0
  5  6  1  0  0  0  0
  5  4  1  0  0  0  0
  6  7  2  0  0  0  0
  7  8  1  0  0  0  0
  8  9  2  0  0  0  0
  9  1  1  0  0  0  0
  9 26  1  0  0  0  0
 11  3  1  0  0  0  0
 12  5  1  0  0  0  0
 13  6  1  0  0  0  0
 14 15  1  0  0  0  0
 15 16  2  0  0  0  0
 16 21  1  0  0  0  0
 17 16  1  0  0  0  0
 18 17  2  0  0  0  0
 19 14  2  0  0  0  0
 19 18  1  0  0  0  0
 20 14  1  0  0  0  0
 22 15  1  0  0  0  0
 22 24  1  0  0  0  0
 23 22  1  0  0  0  0
 25 22  1  0  0  0  0
 26 29  1  0  0  0  0
 26 27  1  0  0  0  0
 28 26  1  0  0  0  0
M  END
>  <minimizedAffinity>
-5.34272194

$$$$

 OpenBabel03242513393D

 29 31  0  0  0  0  0  0  0  0999 V2000
   35.9650   28.9500   37.0730 C   0  0  0  0  0  0  0  0  0  0  0  0
   35.3570   28.8550   38.3140 C   0  0  0  0  0  0  0  0  0  0  0  0
   33.9860   28.8370   38.3610 C   0  0  0  0  0  0  0  0  0  0  0  0
   33.1880   28.9060   37.2380 C   0  0  0  0  0  0  0  0  0  0  0  0
   31.8730   28.9110   36.9570 N   0  0  0  0  0  0  0  0  0  0  0  0
   31.6910   29.0030   35.6110 C   0  0  0  0  0  0  0  0  0  0  0  0
   32.9230   29.0550   35.0620 N   0  0  0  0  0  0  0  0  0  0  0  0
   33.8490   28.9980   36.0320 C   0  0  0  0  0  0  0  0  0  0  0  0
   35.2110   29.0220   35.9120 C   0  0  0  0  0  0  0  0  0  0  0  0
   37.0520   28.9660   37.0170 H   0  0  0  0  0  0  0  0  0  0  0  0
   33.4890   28.7640   39.3220 H   0  0  0  0  0  0  0  0  0  0  0  0
   31.1400   28.8500   37.6990 H   0  0  0  0  0  0  0  0  0  0  0  0
   30.7450   29.0280   35.0870 H   0  0  0  0  0  0  0  0  0  0  0  0
   37.3220   27.5040   41.0820 C   0  0  0  0  0  0  0  0  0  0  0  0
   37.7220   28.6340   41.7740 C   0  0  0  0  0  0  0  0  0  0  0  0
   37.3010   29.8650   41.2650 C   0  0  0  0  0  0  0  0  0  0  0  0
   36.5360   29.9080   40.1450 N   0  0  0  0  0  0  0  0  0  0  0  0
   36.1760   28.7810   39.5130 C   0  0  0  0  0  0  0  0  0  0  0  0
   36.5590   27.5760   39.9670 N   0  0  0  0  0  0  0  0  0  0  0  0
   37.5800   26.4810   41.3700 H   0  0  0  0  0  0  0  0  0  0  0  0
   37.6100   30.7520   41.8000 H   0  0  0  0  0  0  0  0  0  0  0  0
   38.5580   28.4630   42.9850 C   0  0  0  0  0  0  0  0  0  0  0  0
   38.4460   29.6620   43.6790 F   0  0  0  0  0  0  0  0  0  0  0  0
   39.8600   28.2920   42.5920 F   0  0  0  0  0  0  0  0  0  0  0  0
   38.0970   27.3670   43.6800 F   0  0  0  0  0  0  0  0  0  0  0  0
   35.8570   29.1240   34.5630 C   0  0  0  0  0  0  0  0  0  0  0  0
   37.2080   28.9470   34.7400 F   0  0  0  0  0  0  0  0  0  0  0  0
   35.5600   30.2830   33.9120 F   0  0  0  0  0  0  0  0  0  0  0  0
   35.4230   28.0790   33.7500 F   0  0  0  0  0  0  0  0  0  0  0  0
  1  2  1  0  0  0  0
  2  3  2  0  0  0  0
  2 18  1  0  0  0  0
  3 11  1  0  0  0  0
  4  3  1  0  0  0  0
  5  4  1  0  0  0  0
  5 12  1  0  0  0  0
  6  5  1  0  0  0  0
  7  6  2  0  0  0  0
  7  8  1  0  0  0  0
  8  4  2  0  0  0  0
  9  8  1  0  0  0  0
  9  1  2  0  0  0  0
 10  1  1  0  0  0  0
 13  6  1  0  0  0  0
 14 20  1  0  0  0  0
 14 15  1  0  0  0  0
 15 22  1  0  0  0  0
 16 15  2  0  0  0  0
 16 21  1  0  0  0  0
 17 16  1  0  0  0  0
 18 19  1  0  0  0  0
 18 17  2  0  0  0  0
 19 14  2  0  0  0  0
 22 23  1  0  0  0  0
 22 25  1  0  0  0  0
 24 22  1  0  0  0  0
 26 27  1  0  0  0  0
 26  9  1  0  0  0  0
 28 26  1  0  0  0  0
 29 26  1  0  0  0  0
M  END
>  <minimizedAffinity>
-5.19619799

$$$$

 OpenBabel03242513393D

 29 31  0  0  0  0  0  0  0  0999 V2000
   36.4080   26.9110   39.7140 C   0  0  0  0  0  0  0  0  0  0  0  0
   35.7530   28.1280   39.6200 C   0  0  0  0  0  0  0  0  0  0  0  0
   35.8890   29.0160   40.6560 C   0  0  0  0  0  0  0  0  0  0  0  0
   36.6430   28.7590   41.7820 C   0  0  0  0  0  0  0  0  0  0  0  0
   36.9660   29.3910   42.9240 N   0  0  0  0  0  0  0  0  0  0  0  0
   37.7770   28.5980   43.6750 C   0  0  0  0  0  0  0  0  0  0  0  0
   37.9520   27.4580   42.9730 N   0  0  0  0  0  0  0  0  0  0  0  0
   37.2720   27.5330   41.8190 C   0  0  0  0  0  0  0  0  0  0  0  0
   37.1800   26.6000   40.8230 C   0  0  0  0  0  0  0  0  0  0  0  0
   36.3110   26.1940   38.9010 H   0  0  0  0  0  0  0  0  0  0  0  0
   35.3840   29.9750   40.6040 H   0  0  0  0  0  0  0  0  0  0  0  0
   36.6190   30.3490   43.1530 H   0  0  0  0  0  0  0  0  0  0  0  0
   38.1990   28.8360   44.6430 H   0  0  0  0  0  0  0  0  0  0  0  0
   34.7340   28.4880   36.1300 C   0  0  0  0  0  0  0  0  0  0  0  0
   33.4430   28.9790   36.2200 C   0  0  0  0  0  0  0  0  0  0  0  0
   32.9370   29.1820   37.5060 C   0  0  0  0  0  0  0  0  0  0  0  0
   33.7050   28.8990   38.5880 N   0  0  0  0  0  0  0  0  0  0  0  0
   34.9510   28.4240   38.4440 C   0  0  0  0  0  0  0  0  0  0  0  0
   35.4790   28.2140   37.2260 N   0  0  0  0  0  0  0  0  0  0  0  0
   35.2520   28.2830   35.1880 H   0  0  0  0  0  0  0  0  0  0  0  0
   31.9300   29.5660   37.5850 H   0  0  0  0  0  0  0  0  0  0  0  0
   32.7000   29.2510   34.9680 C   0  0  0  0  0  0  0  0  0  0  0  0
   31.3720   29.3930   35.3530 F   0  0  0  0  0  0  0  0  0  0  0  0
   32.8150   28.1560   34.1510 F   0  0  0  0  0  0  0  0  0  0  0  0
   33.2370   30.3740   34.3790 F   0  0  0  0  0  0  0  0  0  0  0  0
   37.8940   25.2870   40.9370 C   0  0  0  0  0  0  0  0  0  0  0  0
   37.3030   24.5840   41.9580 F   0  0  0  0  0  0  0  0  0  0  0  0
   39.2400   25.4210   41.1020 F   0  0  0  0  0  0  0  0  0  0  0  0
   37.7000   24.5410   39.7770 F   0  0  0  0  0  0  0  0  0  0  0  0
  1  9  1  0  0  0  0
  2  1  2  0  0  0  0
  2  3  1  0  0  0  0
  3  4  2  0  0  0  0
  4  8  1  0  0  0  0
  4  5  1  0  0  0  0
  5 12  1  0  0  0  0
  5  6  1  0  0  0  0
  6 13  1  0  0  0  0
  7  6  2  0  0  0  0
  8  7  1  0  0  0  0
  9 26  1  0  0  0  0
  9  8  2  0  0  0  0
 10  1  1  0  0  0  0
 11  3  1  0  0  0  0
 14 15  2  0  0  0  0
 14 19  1  0  0  0  0
 15 16  1  0  0  0  0
 16 21  1  0  0  0  0
 16 17  2  0  0  0  0
 18 17  1  0  0  0  0
 18  2  1  0  0  0  0
 19 18  2  0  0  0  0
 20 14  1  0  0  0  0
 22 23  1  0  0  0  0
 22 15  1  0  0  0  0
 24 22  1  0  0  0  0
 25 22  1  0  0  0  0
 26 28  1  0  0  0  0
 26 27  1  0  0  0  0
 29 26  1  0  0  0  0
M  END
>  <minimizedAffinity>
-5.1907177

$$$$

 OpenBabel03242513393D

 29 31  0  0  0  0  0  0  0  0999 V2000
   37.1860   26.5640   39.8910 C   0  0  0  0  0  0  0  0  0  0  0  0
   37.7510   27.7730   39.5180 C   0  0  0  0  0  0  0  0  0  0  0  0
   38.6620   28.3490   40.3670 C   0  0  0  0  0  0  0  0  0  0  0  0
   39.0420   27.7860   41.5680 C   0  0  0  0  0  0  0  0  0  0  0  0
   39.8730   28.0830   42.5820 N   0  0  0  0  0  0  0  0  0  0  0  0
   39.8160   27.1030   43.5250 C   0  0  0  0  0  0  0  0  0  0  0  0
   38.9310   26.1890   43.0730 N   0  0  0  0  0  0  0  0  0  0  0  0
   38.4470   26.5830   41.8850 C   0  0  0  0  0  0  0  0  0  0  0  0
   37.5320   25.9530   41.0870 C   0  0  0  0  0  0  0  0  0  0  0  0
   36.4620   26.0920   39.2300 H   0  0  0  0  0  0  0  0  0  0  0  0
   39.1160   29.2950   40.0960 H   0  0  0  0  0  0  0  0  0  0  0  0
   40.4540   28.9510   42.5960 H   0  0  0  0  0  0  0  0  0  0  0  0
   40.3720   27.0650   44.4520 H   0  0  0  0  0  0  0  0  0  0  0  0
   36.6840   28.1670   36.0460 C   0  0  0  0  0  0  0  0  0  0  0  0
   36.6420   29.5400   35.8770 C   0  0  0  0  0  0  0  0  0  0  0  0
   36.9890   30.3200   36.9820 C   0  0  0  0  0  0  0  0  0  0  0  0
   37.3440   29.7230   38.1470 N   0  0  0  0  0  0  0  0  0  0  0  0
   37.3680   28.3870   38.2580 C   0  0  0  0  0  0  0  0  0  0  0  0
   37.0420   27.5970   37.2200 N   0  0  0  0  0  0  0  0  0  0  0  0
   36.4380   27.4410   35.2660 H   0  0  0  0  0  0  0  0  0  0  0  0
   36.9590   31.3930   36.8570 H   0  0  0  0  0  0  0  0  0  0  0  0
   36.2380   30.0780   34.5570 C   0  0  0  0  0  0  0  0  0  0  0  0
   36.9340   29.3180   33.6230 F   0  0  0  0  0  0  0  0  0  0  0  0
   36.6570   31.3810   34.4750 F   0  0  0  0  0  0  0  0  0  0  0  0
   34.8690   29.9840   34.4500 F   0  0  0  0  0  0  0  0  0  0  0  0
   36.9290   24.6450   41.5020 C   0  0  0  0  0  0  0  0  0  0  0  0
   36.0780   24.2480   40.4990 F   0  0  0  0  0  0  0  0  0  0  0  0
   36.3190   24.6970   42.7190 F   0  0  0  0  0  0  0  0  0  0  0  0
   37.9220   23.6720   41.5880 F   0  0  0  0  0  0  0  0  0  0  0  0
  1  9  1  0  0  0  0
  2  1  2  0  0  0  0
  2  3  1  0  0  0  0
  3  4  2  0  0  0  0
  4  8  1  0  0  0  0
  4  5  1  0  0  0  0
  5 12  1  0  0  0  0
  5  6  1  0  0  0  0
  6 13  1  0  0  0  0
  7  6  2  0  0  0  0
  8  7  1  0  0  0  0
  9 26  1  0  0  0  0
  9  8  2  0  0  0  0
 10  1  1  0  0  0  0
 11  3  1  0  0  0  0
 14 19  1  0  0  0  0
 15 14  2  0  0  0  0
 15 16  1  0  0  0  0
 16 17  2  0  0  0  0
 17 18  1  0  0  0  0
 18  2  1  0  0  0  0
 19 18  2  0  0  0  0
 20 14  1  0  0  0  0
 21 16  1  0  0  0  0
 22 15  1  0  0  0  0
 23 22  1  0  0  0  0
 24 22  1  0  0  0  0
 25 22  1  0  0  0  0
 26 29  1  0  0  0  0
 26 28  1  0  0  0  0
 27 26  1  0  0  0  0
M  END
>  <minimizedAffinity>
-5.18634653

$$$$
