
 OpenBabel03242523193D

 32 34  0  0  0  0  0  0  0  0999 V2000
   47.3700   32.8080   44.0240 C   0  0  0  0  0  0  0  0  0  0  0  0
   48.2270   33.3060   43.1200 C   0  0  0  0  0  0  0  0  0  0  0  0
   49.0660   32.3770   42.5470 C   0  0  0  0  0  0  0  0  0  0  0  0
   48.9600   31.0330   42.9480 N   0  0  0  0  0  0  0  0  0  0  0  0
   48.0950   30.6190   43.8460 C   0  0  0  0  0  0  0  0  0  0  0  0
   47.2390   31.5180   44.4370 N   0  0  0  0  0  0  0  0  0  0  0  0
   49.8190   32.5700   41.8030 H   0  0  0  0  0  0  0  0  0  0  0  0
   48.1280   29.5540   44.0560 H   0  0  0  0  0  0  0  0  0  0  0  0
   48.4100   34.6800   42.8010 C   0  0  0  0  0  0  0  0  0  0  0  0
   49.4360   35.2610   42.1240 C   0  0  0  0  0  0  0  0  0  0  0  0
   48.1990   35.0920   41.2800 C   0  0  0  0  0  0  0  0  0  0  0  0
   47.9480   35.3690   43.5300 H   0  0  0  0  0  0  0  0  0  0  0  0
   49.7770   36.3220   42.1290 H   0  0  0  0  0  0  0  0  0  0  0  0
   50.3310   34.6320   41.8280 H   0  0  0  0  0  0  0  0  0  0  0  0
   48.1990   34.2310   40.6150 H   0  0  0  0  0  0  0  0  0  0  0  0
   47.5030   35.9310   41.1420 H   0  0  0  0  0  0  0  0  0  0  0  0
   46.3030   33.5430   44.7160 C   0  0  0  0  0  0  0  0  0  0  0  0
   45.7260   33.9250   45.7010 O   0  0  0  0  0  0  0  0  0  0  0  0
   44.5570   31.7780   42.8870 Cl  0  0  0  0  0  0  0  0  0  0  0  0
   44.5790   33.5320   42.7660 C   0  0  0  0  0  0  0  0  0  0  0  0
   45.4270   34.1870   43.6860 C   0  0  0  0  0  0  0  0  0  0  0  0
   45.3740   35.5620   43.5170 C   0  0  0  0  0  0  0  0  0  0  0  0
   44.6670   36.2910   42.6440 C   0  0  0  0  0  0  0  0  0  0  0  0
   43.8710   35.5830   41.7860 C   0  0  0  0  0  0  0  0  0  0  0  0
   43.8180   34.2360   41.8350 C   0  0  0  0  0  0  0  0  0  0  0  0
   45.9580   36.2310   44.1860 H   0  0  0  0  0  0  0  0  0  0  0  0
   44.6570   37.3600   42.5450 H   0  0  0  0  0  0  0  0  0  0  0  0
   43.2360   36.0040   41.0210 H   0  0  0  0  0  0  0  0  0  0  0  0
   42.9830   33.3390   40.9500 C   0  0  0  0  0  0  0  0  0  0  0  0
   42.2230   34.1080   40.1240 F   0  0  0  0  0  0  0  0  0  0  0  0
   42.0880   32.6370   41.7700 F   0  0  0  0  0  0  0  0  0  0  0  0
   43.7490   32.4030   40.3090 F   0  0  0  0  0  0  0  0  0  0  0  0
  1  6  1  0  0  0  0
  1 17  1  0  0  0  0
  2  1  2  0  0  0  0
  3  4  2  0  0  0  0
  3  2  1  0  0  0  0
  4  5  1  0  0  0  0
  5  8  1  0  0  0  0
  5  6  2  0  0  0  0
  7  3  1  0  0  0  0
  9  2  1  0  0  0  0
  9 12  1  0  0  0  0
 10 13  1  0  0  0  0
 10  9  1  0  0  0  0
 11 10  1  0  0  0  0
 11  9  1  0  0  0  0
 14 10  1  0  0  0  0
 15 11  1  0  0  0  0
 16 11  1  0  0  0  0
 17 18  2  0  0  0  0
 20 19  1  0  0  0  0
 20 21  1  0  0  0  0
 21 17  1  0  0  0  0
 22 21  2  0  0  0  0
 22 26  1  0  0  0  0
 23 22  1  0  0  0  0
 24 25  1  0  0  0  0
 24 23  2  0  0  0  0
 25 20  2  0  0  0  0
 27 23  1  0  0  0  0
 28 24  1  0  0  0  0
 29 31  1  0  0  0  0
 29 25  1  0  0  0  0
 30 29  1  0  0  0  0
 32 29  1  0  0  0  0
M  END
>  <minimizedAffinity>
-5.22510672

>  <minimizedRMSD>
0.329321951

$$$$
