
 OpenBabel03252508243D

 43 45  0  0  0  0  0  0  0  0999 V2000
   36.4830   30.3720   38.9940 C   0  0  0  0  0  0  0  0  0  0  0  0
   35.8490   29.4390   38.2010 C   0  0  0  0  0  0  0  0  0  0  0  0
   36.0300   29.3190   36.8450 C   0  0  0  0  0  0  0  0  0  0  0  0
   36.9300   30.2260   36.2710 C   0  0  0  0  0  0  0  0  0  0  0  0
   37.5850   31.1680   37.0120 C   0  0  0  0  0  0  0  0  0  0  0  0
   37.3730   31.2500   38.3570 C   0  0  0  0  0  0  0  0  0  0  0  0
   35.1530   28.7020   38.5680 H   0  0  0  0  0  0  0  0  0  0  0  0
   35.5550   28.6090   36.2010 H   0  0  0  0  0  0  0  0  0  0  0  0
   37.1150   30.1790   35.1890 H   0  0  0  0  0  0  0  0  0  0  0  0
   38.2690   31.8360   36.4860 H   0  0  0  0  0  0  0  0  0  0  0  0
   38.1050   32.2510   39.0340 N   0  0  0  0  0  0  0  0  0  0  0  0
   37.5680   33.5240   39.4210 C   0  0  0  0  0  0  0  0  0  0  0  0
   38.4010   34.1580   40.5140 C   0  0  0  0  0  0  0  0  0  0  0  0
   38.8910   33.2360   41.4780 N   0  0  0  0  0  0  0  0  0  0  0  0
   39.6220   32.1510   40.9510 C   0  0  0  0  0  0  0  0  0  0  0  0
   39.5140   32.1410   39.4400 C   0  0  0  0  0  0  0  0  0  0  0  0
   36.4950   33.5810   39.5870 H   0  0  0  0  0  0  0  0  0  0  0  0
   37.7330   34.1890   38.5190 H   0  0  0  0  0  0  0  0  0  0  0  0
   37.7630   34.8980   41.0270 H   0  0  0  0  0  0  0  0  0  0  0  0
   39.2870   34.6750   40.0800 H   0  0  0  0  0  0  0  0  0  0  0  0
   39.1870   33.6790   42.3370 H   0  0  0  0  0  0  0  0  0  0  0  0
   40.7010   32.2610   41.2000 H   0  0  0  0  0  0  0  0  0  0  0  0
   39.3080   31.1730   41.3520 H   0  0  0  0  0  0  0  0  0  0  0  0
   40.0880   32.9910   39.0030 H   0  0  0  0  0  0  0  0  0  0  0  0
   39.8860   31.1490   39.0900 H   0  0  0  0  0  0  0  0  0  0  0  0
   36.2810   30.4970   40.4360 C   0  0  0  0  0  0  0  0  0  0  0  0
   35.7390   31.3850   40.7540 H   0  0  0  0  0  0  0  0  0  0  0  0
   37.3140   30.6080   40.8800 H   0  0  0  0  0  0  0  0  0  0  0  0
   35.6410   29.2570   41.0250 C   0  0  0  0  0  0  0  0  0  0  0  0
   35.2980   28.5690   40.1950 H   0  0  0  0  0  0  0  0  0  0  0  0
   34.8200   29.4290   41.7040 H   0  0  0  0  0  0  0  0  0  0  0  0
   38.5490   28.3600   43.2600 C   0  0  0  0  0  0  0  0  0  0  0  0
   37.5760   29.1280   42.5740 C   0  0  0  0  0  0  0  0  0  0  0  0
   36.6700   28.4750   41.7490 C   0  0  0  0  0  0  0  0  0  0  0  0
   36.7730   27.1140   41.6470 N   0  0  0  0  0  0  0  0  0  0  0  0
   37.6960   26.4100   42.3000 C   0  0  0  0  0  0  0  0  0  0  0  0
   38.5840   27.0270   43.1060 N   0  0  0  0  0  0  0  0  0  0  0  0
   39.2550   28.8950   43.9060 H   0  0  0  0  0  0  0  0  0  0  0  0
   37.5390   30.1940   42.6890 H   0  0  0  0  0  0  0  0  0  0  0  0
   37.6910   24.9280   42.0940 C   0  0  0  0  0  0  0  0  0  0  0  0
   37.9760   24.5880   40.7670 F   0  0  0  0  0  0  0  0  0  0  0  0
   36.4440   24.3820   42.3590 F   0  0  0  0  0  0  0  0  0  0  0  0
   38.6450   24.2840   42.8590 F   0  0  0  0  0  0  0  0  0  0  0  0
  1 26  1  0  0  0  0
  2  7  1  0  0  0  0
  2  1  2  0  0  0  0
  3  2  1  0  0  0  0
  4  3  2  0  0  0  0
  4  5  1  0  0  0  0
  5  6  2  0  0  0  0
  6  1  1  0  0  0  0
  6 11  1  0  0  0  0
  8  3  1  0  0  0  0
  9  4  1  0  0  0  0
 10  5  1  0  0  0  0
 11 12  1  0  0  0  0
 11 16  1  0  0  0  0
 12 17  1  0  0  0  0
 12 13  1  0  0  0  0
 13 19  1  0  0  0  0
 13 14  1  0  0  0  0
 14 21  1  0  0  0  0
 15 22  1  0  0  0  0
 15 23  1  0  0  0  0
 15 14  1  0  0  0  0
 16 15  1  0  0  0  0
 18 12  1  0  0  0  0
 20 13  1  0  0  0  0
 24 16  1  0  0  0  0
 25 16  1  0  0  0  0
 26 27  1  0  0  0  0
 26 28  1  0  0  0  0
 26 29  1  0  0  0  0
 29 31  1  0  0  0  0
 29 34  1  0  0  0  0
 30 29  1  0  0  0  0
 32 38  1  0  0  0  0
 33 39  1  0  0  0  0
 33 32  2  0  0  0  0
 34 33  1  0  0  0  0
 35 34  2  0  0  0  0
 35 36  1  0  0  0  0
 36 37  2  0  0  0  0
 37 32  1  0  0  0  0
 40 36  1  0  0  0  0
 40 42  1  0  0  0  0
 40 43  1  0  0  0  0
 41 40  1  0  0  0  0
M  END
>  <minimizedAffinity>
-6.12970304

$$$$

 OpenBabel03252508243D

 43 45  0  0  0  0  0  0  0  0999 V2000
   37.0380   29.5160   41.3100 C   0  0  0  0  0  0  0  0  0  0  0  0
   35.8360   28.8880   41.0650 C   0  0  0  0  0  0  0  0  0  0  0  0
   35.1090   29.0230   39.9070 C   0  0  0  0  0  0  0  0  0  0  0  0
   35.6670   29.8640   38.9360 C   0  0  0  0  0  0  0  0  0  0  0  0
   36.8550   30.5080   39.1290 C   0  0  0  0  0  0  0  0  0  0  0  0
   37.5420   30.3450   40.2960 C   0  0  0  0  0  0  0  0  0  0  0  0
   35.3480   28.2180   41.7560 H   0  0  0  0  0  0  0  0  0  0  0  0
   34.1750   28.5510   39.6850 H   0  0  0  0  0  0  0  0  0  0  0  0
   35.1300   30.0110   37.9890 H   0  0  0  0  0  0  0  0  0  0  0  0
   37.2190   31.1460   38.3200 H   0  0  0  0  0  0  0  0  0  0  0  0
   38.7640   31.0470   40.3920 N   0  0  0  0  0  0  0  0  0  0  0  0
   40.0190   30.5590   39.8960 C   0  0  0  0  0  0  0  0  0  0  0  0
   41.0090   31.6880   39.7080 C   0  0  0  0  0  0  0  0  0  0  0  0
   40.4310   32.8870   39.2100 N   0  0  0  0  0  0  0  0  0  0  0  0
   39.3450   33.3850   39.9600 C   0  0  0  0  0  0  0  0  0  0  0  0
   38.9340   32.3710   41.0090 C   0  0  0  0  0  0  0  0  0  0  0  0
   39.9860   29.8510   39.0710 H   0  0  0  0  0  0  0  0  0  0  0  0
   40.4450   29.9500   40.7510 H   0  0  0  0  0  0  0  0  0  0  0  0
   41.7720   31.3400   38.9910 H   0  0  0  0  0  0  0  0  0  0  0  0
   41.5010   31.9410   40.6750 H   0  0  0  0  0  0  0  0  0  0  0  0
   41.1120   33.5230   38.8200 H   0  0  0  0  0  0  0  0  0  0  0  0
   39.6450   34.3090   40.5000 H   0  0  0  0  0  0  0  0  0  0  0  0
   38.4710   33.6540   39.3420 H   0  0  0  0  0  0  0  0  0  0  0  0
   39.7070   32.3050   41.8100 H   0  0  0  0  0  0  0  0  0  0  0  0
   37.9390   32.6880   41.4000 H   0  0  0  0  0  0  0  0  0  0  0  0
   37.8030   29.3720   42.5470 C   0  0  0  0  0  0  0  0  0  0  0  0
   37.9190   30.2830   43.1300 H   0  0  0  0  0  0  0  0  0  0  0  0
   38.8490   29.0910   42.2280 H   0  0  0  0  0  0  0  0  0  0  0  0
   37.2580   28.2620   43.4200 C   0  0  0  0  0  0  0  0  0  0  0  0
   36.1820   28.0470   43.1450 H   0  0  0  0  0  0  0  0  0  0  0  0
   37.3250   28.4240   44.4850 H   0  0  0  0  0  0  0  0  0  0  0  0
   39.8850   25.5500   43.3670 C   0  0  0  0  0  0  0  0  0  0  0  0
   39.2200   26.7620   43.6730 C   0  0  0  0  0  0  0  0  0  0  0  0
   37.9730   27.0020   43.1100 C   0  0  0  0  0  0  0  0  0  0  0  0
   37.4580   26.0420   42.2820 N   0  0  0  0  0  0  0  0  0  0  0  0
   38.1000   24.9090   42.0050 C   0  0  0  0  0  0  0  0  0  0  0  0
   39.3110   24.6580   42.5430 N   0  0  0  0  0  0  0  0  0  0  0  0
   40.8670   25.3800   43.8220 H   0  0  0  0  0  0  0  0  0  0  0  0
   39.6690   27.4830   44.3300 H   0  0  0  0  0  0  0  0  0  0  0  0
   37.4150   23.9490   41.0830 C   0  0  0  0  0  0  0  0  0  0  0  0
   37.5340   24.3410   39.7460 F   0  0  0  0  0  0  0  0  0  0  0  0
   36.0530   23.8860   41.3340 F   0  0  0  0  0  0  0  0  0  0  0  0
   37.9520   22.6760   41.1500 F   0  0  0  0  0  0  0  0  0  0  0  0
  1 26  1  0  0  0  0
  2  1  1  0  0  0  0
  2  7  1  0  0  0  0
  3  2  2  0  0  0  0
  4  5  2  0  0  0  0
  4  3  1  0  0  0  0
  5  6  1  0  0  0  0
  6 11  1  0  0  0  0
  6  1  2  0  0  0  0
  8  3  1  0  0  0  0
  9  4  1  0  0  0  0
 10  5  1  0  0  0  0
 11 16  1  0  0  0  0
 12 11  1  0  0  0  0
 12 18  1  0  0  0  0
 13 12  1  0  0  0  0
 13 20  1  0  0  0  0
 14 13  1  0  0  0  0
 14 15  1  0  0  0  0
 15 22  1  0  0  0  0
 15 16  1  0  0  0  0
 16 25  1  0  0  0  0
 16 24  1  0  0  0  0
 17 12  1  0  0  0  0
 19 13  1  0  0  0  0
 21 14  1  0  0  0  0
 23 15  1  0  0  0  0
 26 27  1  0  0  0  0
 26 29  1  0  0  0  0
 28 26  1  0  0  0  0
 29 31  1  0  0  0  0
 30 29  1  0  0  0  0
 32 33  1  0  0  0  0
 32 38  1  0  0  0  0
 33 39  1  0  0  0  0
 34 29  1  0  0  0  0
 34 33  2  0  0  0  0
 35 34  1  0  0  0  0
 36 35  2  0  0  0  0
 36 37  1  0  0  0  0
 37 32  2  0  0  0  0
 40 43  1  0  0  0  0
 40 42  1  0  0  0  0
 40 36  1  0  0  0  0
 41 40  1  0  0  0  0
M  END
>  <minimizedAffinity>
-5.84185028

$$$$

 OpenBabel03252508243D

 43 45  0  0  0  0  0  0  0  0999 V2000
   38.3570   26.1610   42.7280 C   0  0  0  0  0  0  0  0  0  0  0  0
   37.0950   25.6840   42.4480 C   0  0  0  0  0  0  0  0  0  0  0  0
   36.8350   24.5940   41.6530 C   0  0  0  0  0  0  0  0  0  0  0  0
   37.9580   23.9530   41.1150 C   0  0  0  0  0  0  0  0  0  0  0  0
   39.2300   24.3860   41.3640 C   0  0  0  0  0  0  0  0  0  0  0  0
   39.4400   25.4740   42.1590 C   0  0  0  0  0  0  0  0  0  0  0  0
   36.1840   26.1140   42.8310 H   0  0  0  0  0  0  0  0  0  0  0  0
   35.8700   24.1980   41.4150 H   0  0  0  0  0  0  0  0  0  0  0  0
   37.8130   23.0760   40.4720 H   0  0  0  0  0  0  0  0  0  0  0  0
   40.0490   23.8290   40.9050 H   0  0  0  0  0  0  0  0  0  0  0  0
   40.7910   25.8340   42.3620 N   0  0  0  0  0  0  0  0  0  0  0  0
   41.5750   25.4320   43.4940 C   0  0  0  0  0  0  0  0  0  0  0  0
   43.0550   25.5500   43.2050 C   0  0  0  0  0  0  0  0  0  0  0  0
   43.4180   25.1760   41.8820 N   0  0  0  0  0  0  0  0  0  0  0  0
   42.7220   25.8490   40.8570 C   0  0  0  0  0  0  0  0  0  0  0  0
   41.5920   26.6660   41.4500 C   0  0  0  0  0  0  0  0  0  0  0  0
   41.2890   24.5080   43.9940 H   0  0  0  0  0  0  0  0  0  0  0  0
   41.3750   26.2280   44.2750 H   0  0  0  0  0  0  0  0  0  0  0  0
   43.5830   24.8900   43.9150 H   0  0  0  0  0  0  0  0  0  0  0  0
   43.4000   26.5990   43.3520 H   0  0  0  0  0  0  0  0  0  0  0  0
   44.4050   24.9790   41.7820 H   0  0  0  0  0  0  0  0  0  0  0  0
   43.4010   26.5610   40.3380 H   0  0  0  0  0  0  0  0  0  0  0  0
   42.3230   25.1750   40.0810 H   0  0  0  0  0  0  0  0  0  0  0  0
   41.9970   27.5390   42.0140 H   0  0  0  0  0  0  0  0  0  0  0  0
   40.9290   26.9720   40.6080 H   0  0  0  0  0  0  0  0  0  0  0  0
   38.6270   27.3260   43.5700 C   0  0  0  0  0  0  0  0  0  0  0  0
   39.6220   27.7540   43.4660 H   0  0  0  0  0  0  0  0  0  0  0  0
   38.5770   26.9510   44.6350 H   0  0  0  0  0  0  0  0  0  0  0  0
   37.5760   28.4020   43.3960 C   0  0  0  0  0  0  0  0  0  0  0  0
   37.3550   28.8910   44.3920 H   0  0  0  0  0  0  0  0  0  0  0  0
   36.6490   28.0860   42.9430 H   0  0  0  0  0  0  0  0  0  0  0  0
   39.9330   31.0050   42.0080 C   0  0  0  0  0  0  0  0  0  0  0  0
   39.4180   29.9610   42.8150 C   0  0  0  0  0  0  0  0  0  0  0  0
   38.1330   29.4970   42.5670 C   0  0  0  0  0  0  0  0  0  0  0  0
   37.4340   30.0830   41.5470 N   0  0  0  0  0  0  0  0  0  0  0  0
   37.9360   31.0650   40.8000 C   0  0  0  0  0  0  0  0  0  0  0  0
   39.1820   31.5290   41.0260 N   0  0  0  0  0  0  0  0  0  0  0  0
   40.9500   31.3570   42.2200 H   0  0  0  0  0  0  0  0  0  0  0  0
   40.0100   29.5360   43.6030 H   0  0  0  0  0  0  0  0  0  0  0  0
   37.0580   31.6120   39.7190 C   0  0  0  0  0  0  0  0  0  0  0  0
   36.8920   32.9950   39.8360 F   0  0  0  0  0  0  0  0  0  0  0  0
   35.7810   31.0760   39.7810 F   0  0  0  0  0  0  0  0  0  0  0  0
   37.5810   31.4030   38.4560 F   0  0  0  0  0  0  0  0  0  0  0  0
  1 26  1  0  0  0  0
  2  1  1  0  0  0  0
  2  7  1  0  0  0  0
  3  2  2  0  0  0  0
  4  5  2  0  0  0  0
  4  3  1  0  0  0  0
  5  6  1  0  0  0  0
  6 11  1  0  0  0  0
  6  1  2  0  0  0  0
  8  3  1  0  0  0  0
  9  4  1  0  0  0  0
 10  5  1  0  0  0  0
 11 12  1  0  0  0  0
 12 17  1  0  0  0  0
 12 18  1  0  0  0  0
 13 20  1  0  0  0  0
 13 12  1  0  0  0  0
 13 19  1  0  0  0  0
 14 13  1  0  0  0  0
 15 16  1  0  0  0  0
 15 14  1  0  0  0  0
 16 24  1  0  0  0  0
 16 11  1  0  0  0  0
 21 14  1  0  0  0  0
 22 15  1  0  0  0  0
 23 15  1  0  0  0  0
 25 16  1  0  0  0  0
 26 28  1  0  0  0  0
 27 26  1  0  0  0  0
 29 26  1  0  0  0  0
 29 30  1  0  0  0  0
 31 29  1  0  0  0  0
 32 38  1  0  0  0  0
 32 33  1  0  0  0  0
 33 39  1  0  0  0  0
 34 33  2  0  0  0  0
 34 29  1  0  0  0  0
 35 34  1  0  0  0  0
 36 37  1  0  0  0  0
 36 35  2  0  0  0  0
 37 32  2  0  0  0  0
 40 42  1  0  0  0  0
 40 41  1  0  0  0  0
 40 36  1  0  0  0  0
 43 40  1  0  0  0  0
M  END
>  <minimizedAffinity>
-5.73788738

$$$$

 OpenBabel03252508243D

 43 45  0  0  0  0  0  0  0  0999 V2000
   36.9480   27.2830   41.8490 C   0  0  0  0  0  0  0  0  0  0  0  0
   37.2390   26.1130   42.5170 C   0  0  0  0  0  0  0  0  0  0  0  0
   37.2270   24.8660   41.9420 C   0  0  0  0  0  0  0  0  0  0  0  0
   36.8940   24.8280   40.5820 C   0  0  0  0  0  0  0  0  0  0  0  0
   36.6000   25.9590   39.8740 C   0  0  0  0  0  0  0  0  0  0  0  0
   36.6230   27.1770   40.4880 C   0  0  0  0  0  0  0  0  0  0  0  0
   37.5140   26.0600   43.5580 H   0  0  0  0  0  0  0  0  0  0  0  0
   37.4470   23.9400   42.4290 H   0  0  0  0  0  0  0  0  0  0  0  0
   36.8680   23.8590   40.0670 H   0  0  0  0  0  0  0  0  0  0  0  0
   36.3500   25.8410   38.8180 H   0  0  0  0  0  0  0  0  0  0  0  0
   36.3130   28.2840   39.6670 N   0  0  0  0  0  0  0  0  0  0  0  0
   37.2010   28.8380   38.6870 C   0  0  0  0  0  0  0  0  0  0  0  0
   36.4440   29.6630   37.6680 C   0  0  0  0  0  0  0  0  0  0  0  0
   35.1840   29.1180   37.3020 N   0  0  0  0  0  0  0  0  0  0  0  0
   34.3110   28.8530   38.3790 C   0  0  0  0  0  0  0  0  0  0  0  0
   35.0440   29.0280   39.6930 C   0  0  0  0  0  0  0  0  0  0  0  0
   37.9460   28.1720   38.2570 H   0  0  0  0  0  0  0  0  0  0  0  0
   37.8200   29.5950   39.2590 H   0  0  0  0  0  0  0  0  0  0  0  0
   37.0750   29.7300   36.7650 H   0  0  0  0  0  0  0  0  0  0  0  0
   36.2530   30.6890   38.0600 H   0  0  0  0  0  0  0  0  0  0  0  0
   34.8230   29.4980   36.4380 H   0  0  0  0  0  0  0  0  0  0  0  0
   33.4690   29.5790   38.3750 H   0  0  0  0  0  0  0  0  0  0  0  0
   33.8570   27.8480   38.3390 H   0  0  0  0  0  0  0  0  0  0  0  0
   35.2570   30.1070   39.8790 H   0  0  0  0  0  0  0  0  0  0  0  0
   34.4070   28.5750   40.4880 H   0  0  0  0  0  0  0  0  0  0  0  0
   36.9570   28.6070   42.4690 C   0  0  0  0  0  0  0  0  0  0  0  0
   36.1790   28.7790   43.2100 H   0  0  0  0  0  0  0  0  0  0  0  0
   36.7370   29.3360   41.6350 H   0  0  0  0  0  0  0  0  0  0  0  0
   38.3130   28.9470   43.0520 C   0  0  0  0  0  0  0  0  0  0  0  0
   39.0350   28.0950   42.8710 H   0  0  0  0  0  0  0  0  0  0  0  0
   38.3240   29.2030   44.1000 H   0  0  0  0  0  0  0  0  0  0  0  0
   40.7650   31.5110   41.7610 C   0  0  0  0  0  0  0  0  0  0  0  0
   40.2280   30.4230   42.4910 C   0  0  0  0  0  0  0  0  0  0  0  0
   38.8940   30.0850   42.3030 C   0  0  0  0  0  0  0  0  0  0  0  0
   38.1710   30.8340   41.4140 N   0  0  0  0  0  0  0  0  0  0  0  0
   38.6940   31.8550   40.7380 C   0  0  0  0  0  0  0  0  0  0  0  0
   39.9880   32.1970   40.9080 N   0  0  0  0  0  0  0  0  0  0  0  0
   41.8200   31.7620   41.9240 H   0  0  0  0  0  0  0  0  0  0  0  0
   40.8400   29.8680   43.1760 H   0  0  0  0  0  0  0  0  0  0  0  0
   37.7850   32.5840   39.7990 C   0  0  0  0  0  0  0  0  0  0  0  0
   36.4840   32.0720   39.8360 F   0  0  0  0  0  0  0  0  0  0  0  0
   38.2010   32.4530   38.4840 F   0  0  0  0  0  0  0  0  0  0  0  0
   37.6680   33.9260   40.1120 F   0  0  0  0  0  0  0  0  0  0  0  0
  1 26  1  0  0  0  0
  1  2  1  0  0  0  0
  2  7  1  0  0  0  0
  3  8  1  0  0  0  0
  3  2  2  0  0  0  0
  4  3  1  0  0  0  0
  5  6  1  0  0  0  0
  5  4  2  0  0  0  0
  6  1  2  0  0  0  0
  9  4  1  0  0  0  0
 10  5  1  0  0  0  0
 11 16  1  0  0  0  0
 11  6  1  0  0  0  0
 12 18  1  0  0  0  0
 12 11  1  0  0  0  0
 13 20  1  0  0  0  0
 13 12  1  0  0  0  0
 14 13  1  0  0  0  0
 14 15  1  0  0  0  0
 15 16  1  0  0  0  0
 16 24  1  0  0  0  0
 16 25  1  0  0  0  0
 17 12  1  0  0  0  0
 19 13  1  0  0  0  0
 21 14  1  0  0  0  0
 22 15  1  0  0  0  0
 23 15  1  0  0  0  0
 26 29  1  0  0  0  0
 26 27  1  0  0  0  0
 28 26  1  0  0  0  0
 29 31  1  0  0  0  0
 30 29  1  0  0  0  0
 32 38  1  0  0  0  0
 32 33  1  0  0  0  0
 33 39  1  0  0  0  0
 34 33  2  0  0  0  0
 34 29  1  0  0  0  0
 35 34  1  0  0  0  0
 36 37  1  0  0  0  0
 36 35  2  0  0  0  0
 37 32  2  0  0  0  0
 40 41  1  0  0  0  0
 40 43  1  0  0  0  0
 40 36  1  0  0  0  0
 42 40  1  0  0  0  0
M  END
>  <minimizedAffinity>
-5.67847443

$$$$

 OpenBabel03252508243D

 43 45  0  0  0  0  0  0  0  0999 V2000
   36.7000   29.0840   41.0080 C   0  0  0  0  0  0  0  0  0  0  0  0
   36.3550   28.1490   41.9600 C   0  0  0  0  0  0  0  0  0  0  0  0
   37.0240   27.9640   43.1460 C   0  0  0  0  0  0  0  0  0  0  0  0
   38.1220   28.8070   43.3600 C   0  0  0  0  0  0  0  0  0  0  0  0
   38.5040   29.7490   42.4490 C   0  0  0  0  0  0  0  0  0  0  0  0
   37.8100   29.8960   41.2830 C   0  0  0  0  0  0  0  0  0  0  0  0
   35.5190   27.4740   41.8750 H   0  0  0  0  0  0  0  0  0  0  0  0
   36.7850   27.2510   43.9060 H   0  0  0  0  0  0  0  0  0  0  0  0
   38.6970   28.7050   44.2910 H   0  0  0  0  0  0  0  0  0  0  0  0
   39.3720   30.3640   42.6940 H   0  0  0  0  0  0  0  0  0  0  0  0
   38.2790   30.9050   40.4130 N   0  0  0  0  0  0  0  0  0  0  0  0
   39.1480   30.6700   39.2960 C   0  0  0  0  0  0  0  0  0  0  0  0
   39.0830   31.8100   38.3030 C   0  0  0  0  0  0  0  0  0  0  0  0
   37.7800   32.3510   38.1270 N   0  0  0  0  0  0  0  0  0  0  0  0
   37.1410   32.7720   39.3120 C   0  0  0  0  0  0  0  0  0  0  0  0
   37.9490   32.3340   40.5180 C   0  0  0  0  0  0  0  0  0  0  0  0
   39.1200   29.6810   38.8430 H   0  0  0  0  0  0  0  0  0  0  0  0
   40.1920   30.7340   39.7300 H   0  0  0  0  0  0  0  0  0  0  0  0
   39.4370   31.4230   37.3330 H   0  0  0  0  0  0  0  0  0  0  0  0
   39.7410   32.6490   38.6270 H   0  0  0  0  0  0  0  0  0  0  0  0
   37.6860   32.8930   37.2800 H   0  0  0  0  0  0  0  0  0  0  0  0
   37.0860   33.8820   39.3420 H   0  0  0  0  0  0  0  0  0  0  0  0
   36.1060   32.4050   39.4080 H   0  0  0  0  0  0  0  0  0  0  0  0
   38.8930   32.9230   40.5880 H   0  0  0  0  0  0  0  0  0  0  0  0
   37.2980   32.4630   41.4140 H   0  0  0  0  0  0  0  0  0  0  0  0
   35.9860   29.2710   39.7450 C   0  0  0  0  0  0  0  0  0  0  0  0
   36.3810   30.0520   39.1000 H   0  0  0  0  0  0  0  0  0  0  0  0
   34.9500   29.6190   40.0290 H   0  0  0  0  0  0  0  0  0  0  0  0
   35.8580   27.9740   38.9730 C   0  0  0  0  0  0  0  0  0  0  0  0
   35.1130   27.2930   39.4840 H   0  0  0  0  0  0  0  0  0  0  0  0
   36.7760   27.4320   38.8080 H   0  0  0  0  0  0  0  0  0  0  0  0
   33.4410   28.0130   36.0740 C   0  0  0  0  0  0  0  0  0  0  0  0
   34.0030   27.7310   37.3430 C   0  0  0  0  0  0  0  0  0  0  0  0
   35.2530   28.2530   37.6500 C   0  0  0  0  0  0  0  0  0  0  0  0
   35.8720   29.0150   36.6980 N   0  0  0  0  0  0  0  0  0  0  0  0
   35.3270   29.2670   35.5090 C   0  0  0  0  0  0  0  0  0  0  0  0
   34.1140   28.7700   35.1930 N   0  0  0  0  0  0  0  0  0  0  0  0
   32.4530   27.5920   35.8510 H   0  0  0  0  0  0  0  0  0  0  0  0
   33.4740   27.1270   38.0540 H   0  0  0  0  0  0  0  0  0  0  0  0
   36.1190   30.1180   34.5660 C   0  0  0  0  0  0  0  0  0  0  0  0
   35.2910   30.8730   33.7300 F   0  0  0  0  0  0  0  0  0  0  0  0
   36.9000   29.3460   33.7200 F   0  0  0  0  0  0  0  0  0  0  0  0
   36.9210   31.0320   35.2240 F   0  0  0  0  0  0  0  0  0  0  0  0
  1  6  2  0  0  0  0
  1  2  1  0  0  0  0
  2  3  2  0  0  0  0
  3  4  1  0  0  0  0
  3  8  1  0  0  0  0
  4  9  1  0  0  0  0
  5 10  1  0  0  0  0
  5  4  2  0  0  0  0
  6  5  1  0  0  0  0
  7  2  1  0  0  0  0
 11 16  1  0  0  0  0
 11  6  1  0  0  0  0
 12 18  1  0  0  0  0
 12 11  1  0  0  0  0
 13 20  1  0  0  0  0
 13 12  1  0  0  0  0
 14 13  1  0  0  0  0
 14 15  1  0  0  0  0
 15 22  1  0  0  0  0
 15 23  1  0  0  0  0
 15 16  1  0  0  0  0
 16 24  1  0  0  0  0
 16 25  1  0  0  0  0
 17 12  1  0  0  0  0
 19 13  1  0  0  0  0
 21 14  1  0  0  0  0
 26 28  1  0  0  0  0
 26  1  1  0  0  0  0
 27 26  1  0  0  0  0
 29 30  1  0  0  0  0
 29 26  1  0  0  0  0
 31 29  1  0  0  0  0
 32 33  1  0  0  0  0
 33 34  2  0  0  0  0
 33 39  1  0  0  0  0
 34 29  1  0  0  0  0
 35 34  1  0  0  0  0
 36 35  2  0  0  0  0
 37 36  1  0  0  0  0
 37 32  2  0  0  0  0
 38 32  1  0  0  0  0
 40 43  1  0  0  0  0
 40 36  1  0  0  0  0
 41 40  1  0  0  0  0
 42 40  1  0  0  0  0
M  END
>  <minimizedAffinity>
-5.45686436

$$$$

 OpenBabel03252508243D

 43 45  0  0  0  0  0  0  0  0999 V2000
   38.4530   28.6140   37.5120 C   0  0  0  0  0  0  0  0  0  0  0  0
   38.1420   27.9060   36.3710 C   0  0  0  0  0  0  0  0  0  0  0  0
   37.2510   28.3250   35.4140 C   0  0  0  0  0  0  0  0  0  0  0  0
   36.6410   29.5640   35.6540 C   0  0  0  0  0  0  0  0  0  0  0  0
   36.9150   30.3040   36.7680 C   0  0  0  0  0  0  0  0  0  0  0  0
   37.8080   29.8470   37.6930 C   0  0  0  0  0  0  0  0  0  0  0  0
   38.5760   26.9540   36.1090 H   0  0  0  0  0  0  0  0  0  0  0  0
   36.9870   27.8030   34.5190 H   0  0  0  0  0  0  0  0  0  0  0  0
   35.9180   29.9510   34.9240 H   0  0  0  0  0  0  0  0  0  0  0  0
   36.3960   31.2580   36.8790 H   0  0  0  0  0  0  0  0  0  0  0  0
   38.0290   30.6910   38.8040 N   0  0  0  0  0  0  0  0  0  0  0  0
   38.7060   31.9540   38.7380 C   0  0  0  0  0  0  0  0  0  0  0  0
   38.3700   32.8180   39.9340 C   0  0  0  0  0  0  0  0  0  0  0  0
   37.0150   32.7250   40.3530 N   0  0  0  0  0  0  0  0  0  0  0  0
   36.5600   31.4170   40.6220 C   0  0  0  0  0  0  0  0  0  0  0  0
   37.6000   30.4070   40.1820 C   0  0  0  0  0  0  0  0  0  0  0  0
   38.6840   32.4810   37.7860 H   0  0  0  0  0  0  0  0  0  0  0  0
   39.8010   31.6970   38.8740 H   0  0  0  0  0  0  0  0  0  0  0  0
   38.5810   33.8640   39.6540 H   0  0  0  0  0  0  0  0  0  0  0  0
   39.0010   32.5360   40.8090 H   0  0  0  0  0  0  0  0  0  0  0  0
   36.7280   33.4930   40.9430 H   0  0  0  0  0  0  0  0  0  0  0  0
   36.4160   31.2800   41.7170 H   0  0  0  0  0  0  0  0  0  0  0  0
   35.5920   31.1820   40.1480 H   0  0  0  0  0  0  0  0  0  0  0  0
   38.4890   30.4450   40.8550 H   0  0  0  0  0  0  0  0  0  0  0  0
   37.1080   29.4070   40.1800 H   0  0  0  0  0  0  0  0  0  0  0  0
   39.3990   28.1580   38.5290 C   0  0  0  0  0  0  0  0  0  0  0  0
   39.2690   28.5990   39.5150 H   0  0  0  0  0  0  0  0  0  0  0  0
   40.4140   28.5090   38.1810 H   0  0  0  0  0  0  0  0  0  0  0  0
   39.4280   26.6480   38.6350 C   0  0  0  0  0  0  0  0  0  0  0  0
   40.4990   26.2810   38.6310 H   0  0  0  0  0  0  0  0  0  0  0  0
   38.8690   26.1120   37.8840 H   0  0  0  0  0  0  0  0  0  0  0  0
   38.7650   24.6440   41.7650 C   0  0  0  0  0  0  0  0  0  0  0  0
   39.2700   25.0110   40.4940 C   0  0  0  0  0  0  0  0  0  0  0  0
   38.9080   26.2410   39.9610 C   0  0  0  0  0  0  0  0  0  0  0  0
   38.0750   27.0320   40.7040 N   0  0  0  0  0  0  0  0  0  0  0  0
   37.6100   26.6690   41.8970 C   0  0  0  0  0  0  0  0  0  0  0  0
   37.9500   25.4780   42.4310 N   0  0  0  0  0  0  0  0  0  0  0  0
   39.0630   23.6690   42.1680 H   0  0  0  0  0  0  0  0  0  0  0  0
   39.9210   24.3520   39.9530 H   0  0  0  0  0  0  0  0  0  0  0  0
   36.7070   27.6360   42.5980 C   0  0  0  0  0  0  0  0  0  0  0  0
   37.4180   28.7180   43.1260 F   0  0  0  0  0  0  0  0  0  0  0  0
   36.0680   27.0450   43.6770 F   0  0  0  0  0  0  0  0  0  0  0  0
   35.7620   28.1860   41.7510 F   0  0  0  0  0  0  0  0  0  0  0  0
  1  6  1  0  0  0  0
  1 26  1  0  0  0  0
  2  1  2  0  0  0  0
  3  4  2  0  0  0  0
  3  2  1  0  0  0  0
  4  5  1  0  0  0  0
  5 10  1  0  0  0  0
  5  6  2  0  0  0  0
  6 11  1  0  0  0  0
  7  2  1  0  0  0  0
  8  3  1  0  0  0  0
  9  4  1  0  0  0  0
 11 16  1  0  0  0  0
 12 11  1  0  0  0  0
 12 18  1  0  0  0  0
 12 13  1  0  0  0  0
 13 14  1  0  0  0  0
 13 20  1  0  0  0  0
 14 15  1  0  0  0  0
 14 21  1  0  0  0  0
 15 22  1  0  0  0  0
 16 15  1  0  0  0  0
 16 24  1  0  0  0  0
 17 12  1  0  0  0  0
 19 13  1  0  0  0  0
 23 15  1  0  0  0  0
 25 16  1  0  0  0  0
 26 29  1  0  0  0  0
 26 27  1  0  0  0  0
 28 26  1  0  0  0  0
 29 34  1  0  0  0  0
 30 29  1  0  0  0  0
 31 29  1  0  0  0  0
 32 38  1  0  0  0  0
 32 37  1  0  0  0  0
 33 32  2  0  0  0  0
 34 33  1  0  0  0  0
 34 35  2  0  0  0  0
 35 36  1  0  0  0  0
 36 37  2  0  0  0  0
 36 40  1  0  0  0  0
 39 33  1  0  0  0  0
 40 41  1  0  0  0  0
 40 42  1  0  0  0  0
 43 40  1  0  0  0  0
M  END
>  <minimizedAffinity>
-5.42484951

$$$$

 OpenBabel03252508243D

 43 45  0  0  0  0  0  0  0  0999 V2000
   36.7890   29.2180   40.9030 C   0  0  0  0  0  0  0  0  0  0  0  0
   36.3900   28.2420   41.7890 C   0  0  0  0  0  0  0  0  0  0  0  0
   36.9850   28.0040   43.0050 C   0  0  0  0  0  0  0  0  0  0  0  0
   38.0660   28.8360   43.3230 C   0  0  0  0  0  0  0  0  0  0  0  0
   38.5000   29.8190   42.4790 C   0  0  0  0  0  0  0  0  0  0  0  0
   37.8780   30.0170   41.2820 C   0  0  0  0  0  0  0  0  0  0  0  0
   35.5620   27.5710   41.6230 H   0  0  0  0  0  0  0  0  0  0  0  0
   36.7020   27.2570   43.7150 H   0  0  0  0  0  0  0  0  0  0  0  0
   38.5830   28.6930   44.2810 H   0  0  0  0  0  0  0  0  0  0  0  0
   39.3500   30.4220   42.8040 H   0  0  0  0  0  0  0  0  0  0  0  0
   38.3970   31.0640   40.4870 N   0  0  0  0  0  0  0  0  0  0  0  0
   39.3970   30.8920   39.4730 C   0  0  0  0  0  0  0  0  0  0  0  0
   39.3930   32.0500   38.4990 C   0  0  0  0  0  0  0  0  0  0  0  0
   38.0950   32.5370   38.1840 N   0  0  0  0  0  0  0  0  0  0  0  0
   37.3080   32.9040   39.2960 C   0  0  0  0  0  0  0  0  0  0  0  0
   37.9920   32.4760   40.5780 C   0  0  0  0  0  0  0  0  0  0  0  0
   39.4650   29.9130   39.0040 H   0  0  0  0  0  0  0  0  0  0  0  0
   40.3810   30.9910   40.0250 H   0  0  0  0  0  0  0  0  0  0  0  0
   39.8710   31.6990   37.5690 H   0  0  0  0  0  0  0  0  0  0  0  0
   39.9720   32.9080   38.9100 H   0  0  0  0  0  0  0  0  0  0  0  0
   38.0740   33.0940   37.3410 H   0  0  0  0  0  0  0  0  0  0  0  0
   37.1990   34.0100   39.3380 H   0  0  0  0  0  0  0  0  0  0  0  0
   36.2860   32.4910   39.2660 H   0  0  0  0  0  0  0  0  0  0  0  0
   38.8950   33.1030   40.7650 H   0  0  0  0  0  0  0  0  0  0  0  0
   37.2390   32.5560   41.3960 H   0  0  0  0  0  0  0  0  0  0  0  0
   36.1540   29.4620   39.6080 C   0  0  0  0  0  0  0  0  0  0  0  0
   36.7970   29.3220   38.7420 H   0  0  0  0  0  0  0  0  0  0  0  0
   35.8850   30.5590   39.6020 H   0  0  0  0  0  0  0  0  0  0  0  0
   34.8800   28.6590   39.4460 C   0  0  0  0  0  0  0  0  0  0  0  0
   34.0750   29.0710   40.1260 H   0  0  0  0  0  0  0  0  0  0  0  0
   34.9700   27.5960   39.6080 H   0  0  0  0  0  0  0  0  0  0  0  0
   34.6490   28.8970   35.6850 C   0  0  0  0  0  0  0  0  0  0  0  0
   35.1810   28.7000   36.9830 C   0  0  0  0  0  0  0  0  0  0  0  0
   34.3450   28.8640   38.0800 C   0  0  0  0  0  0  0  0  0  0  0  0
   33.0450   29.2110   37.8380 N   0  0  0  0  0  0  0  0  0  0  0  0
   32.5630   29.3930   36.6100 C   0  0  0  0  0  0  0  0  0  0  0  0
   33.3590   29.2380   35.5320 N   0  0  0  0  0  0  0  0  0  0  0  0
   35.3250   28.7620   34.8330 H   0  0  0  0  0  0  0  0  0  0  0  0
   36.2100   28.4280   37.1170 H   0  0  0  0  0  0  0  0  0  0  0  0
   31.1190   29.7710   36.4960 C   0  0  0  0  0  0  0  0  0  0  0  0
   30.9620   31.1090   36.1220 F   0  0  0  0  0  0  0  0  0  0  0  0
   30.4620   29.6420   37.7100 F   0  0  0  0  0  0  0  0  0  0  0  0
   30.4540   29.0330   35.5340 F   0  0  0  0  0  0  0  0  0  0  0  0
  1  6  2  0  0  0  0
  1  2  1  0  0  0  0
  2  3  2  0  0  0  0
  3  4  1  0  0  0  0
  3  8  1  0  0  0  0
  4  9  1  0  0  0  0
  5 10  1  0  0  0  0
  5  4  2  0  0  0  0
  6  5  1  0  0  0  0
  7  2  1  0  0  0  0
 11 16  1  0  0  0  0
 11  6  1  0  0  0  0
 12 18  1  0  0  0  0
 12 11  1  0  0  0  0
 13 20  1  0  0  0  0
 13 12  1  0  0  0  0
 14 13  1  0  0  0  0
 14 15  1  0  0  0  0
 15 22  1  0  0  0  0
 15 16  1  0  0  0  0
 16 24  1  0  0  0  0
 16 25  1  0  0  0  0
 17 12  1  0  0  0  0
 19 13  1  0  0  0  0
 21 14  1  0  0  0  0
 23 15  1  0  0  0  0
 26  1  1  0  0  0  0
 27 26  1  0  0  0  0
 28 26  1  0  0  0  0
 29 26  1  0  0  0  0
 29 31  1  0  0  0  0
 29 30  1  0  0  0  0
 32 33  1  0  0  0  0
 33 39  1  0  0  0  0
 33 34  2  0  0  0  0
 34 29  1  0  0  0  0
 35 34  1  0  0  0  0
 36 35  2  0  0  0  0
 37 32  2  0  0  0  0
 37 36  1  0  0  0  0
 38 32  1  0  0  0  0
 40 36  1  0  0  0  0
 40 42  1  0  0  0  0
 41 40  1  0  0  0  0
 43 40  1  0  0  0  0
M  END
>  <minimizedAffinity>
-5.38627863

$$$$

 OpenBabel03252508243D

 43 45  0  0  0  0  0  0  0  0999 V2000
   36.9220   26.4360   40.0160 C   0  0  0  0  0  0  0  0  0  0  0  0
   36.2990   25.4080   39.3420 C   0  0  0  0  0  0  0  0  0  0  0  0
   36.1830   24.1240   39.8180 C   0  0  0  0  0  0  0  0  0  0  0  0
   36.7480   23.8910   41.0780 C   0  0  0  0  0  0  0  0  0  0  0  0
   37.3740   24.8760   41.7870 C   0  0  0  0  0  0  0  0  0  0  0  0
   37.4670   26.1370   41.2740 C   0  0  0  0  0  0  0  0  0  0  0  0
   35.8310   25.5100   38.3760 H   0  0  0  0  0  0  0  0  0  0  0  0
   35.7070   23.3040   39.3220 H   0  0  0  0  0  0  0  0  0  0  0  0
   36.6860   22.8830   41.5100 H   0  0  0  0  0  0  0  0  0  0  0  0
   37.7880   24.6090   42.7610 H   0  0  0  0  0  0  0  0  0  0  0  0
   38.1250   27.0840   42.0890 N   0  0  0  0  0  0  0  0  0  0  0  0
   39.5270   27.3800   42.0160 C   0  0  0  0  0  0  0  0  0  0  0  0
   39.8350   28.7250   42.6380 C   0  0  0  0  0  0  0  0  0  0  0  0
   38.8530   29.7200   42.3810 N   0  0  0  0  0  0  0  0  0  0  0  0
   37.5350   29.3680   42.7410 C   0  0  0  0  0  0  0  0  0  0  0  0
   37.4780   27.9040   43.1250 C   0  0  0  0  0  0  0  0  0  0  0  0
   40.0230   27.2040   41.0640 H   0  0  0  0  0  0  0  0  0  0  0  0
   40.0130   26.6300   42.7120 H   0  0  0  0  0  0  0  0  0  0  0  0
   40.7980   29.0670   42.2230 H   0  0  0  0  0  0  0  0  0  0  0  0
   39.9220   28.6330   43.7450 H   0  0  0  0  0  0  0  0  0  0  0  0
   39.1890   30.6600   42.5400 H   0  0  0  0  0  0  0  0  0  0  0  0
   37.2140   29.9520   43.6320 H   0  0  0  0  0  0  0  0  0  0  0  0
   36.7940   29.5730   41.9510 H   0  0  0  0  0  0  0  0  0  0  0  0
   37.9960   27.7360   44.0990 H   0  0  0  0  0  0  0  0  0  0  0  0
   36.4020   27.6140   43.1580 H   0  0  0  0  0  0  0  0  0  0  0  0
   37.0470   27.7990   39.5010 C   0  0  0  0  0  0  0  0  0  0  0  0
   37.0380   28.5830   40.2550 H   0  0  0  0  0  0  0  0  0  0  0  0
   36.1200   27.9770   38.8800 H   0  0  0  0  0  0  0  0  0  0  0  0
   38.2570   27.9530   38.6040 C   0  0  0  0  0  0  0  0  0  0  0  0
   37.9630   27.7740   37.5260 H   0  0  0  0  0  0  0  0  0  0  0  0
   39.1050   27.3330   38.8470 H   0  0  0  0  0  0  0  0  0  0  0  0
   40.2820   31.0820   38.0030 C   0  0  0  0  0  0  0  0  0  0  0  0
   39.8720   29.7270   37.9690 C   0  0  0  0  0  0  0  0  0  0  0  0
   38.7070   29.3640   38.6310 C   0  0  0  0  0  0  0  0  0  0  0  0
   38.0190   30.3490   39.2860 N   0  0  0  0  0  0  0  0  0  0  0  0
   38.4220   31.6180   39.3080 C   0  0  0  0  0  0  0  0  0  0  0  0
   39.5500   31.9890   38.6700 N   0  0  0  0  0  0  0  0  0  0  0  0
   41.2050   31.3480   37.4740 H   0  0  0  0  0  0  0  0  0  0  0  0
   40.4500   28.9940   37.4400 H   0  0  0  0  0  0  0  0  0  0  0  0
   37.5680   32.5880   40.0640 C   0  0  0  0  0  0  0  0  0  0  0  0
   38.3300   33.3910   40.9190 F   0  0  0  0  0  0  0  0  0  0  0  0
   36.6560   31.9360   40.8780 F   0  0  0  0  0  0  0  0  0  0  0  0
   36.8960   33.4630   39.2300 F   0  0  0  0  0  0  0  0  0  0  0  0
  1  6  1  0  0  0  0
  2  3  1  0  0  0  0
  2  1  2  0  0  0  0
  3  4  2  0  0  0  0
  4  9  1  0  0  0  0
  4  5  1  0  0  0  0
  5 10  1  0  0  0  0
  6  5  2  0  0  0  0
  6 11  1  0  0  0  0
  7  2  1  0  0  0  0
  8  3  1  0  0  0  0
 11 16  1  0  0  0  0
 12 11  1  0  0  0  0
 12 13  1  0  0  0  0
 12 18  1  0  0  0  0
 13 20  1  0  0  0  0
 14 21  1  0  0  0  0
 14 13  1  0  0  0  0
 14 15  1  0  0  0  0
 15 16  1  0  0  0  0
 15 22  1  0  0  0  0
 16 25  1  0  0  0  0
 16 24  1  0  0  0  0
 17 12  1  0  0  0  0
 19 13  1  0  0  0  0
 23 15  1  0  0  0  0
 26  1  1  0  0  0  0
 26 27  1  0  0  0  0
 28 26  1  0  0  0  0
 29 34  1  0  0  0  0
 29 31  1  0  0  0  0
 29 26  1  0  0  0  0
 30 29  1  0  0  0  0
 32 37  1  0  0  0  0
 33 32  2  0  0  0  0
 33 34  1  0  0  0  0
 34 35  2  0  0  0  0
 35 36  1  0  0  0  0
 36 40  1  0  0  0  0
 37 36  2  0  0  0  0
 38 32  1  0  0  0  0
 39 33  1  0  0  0  0
 40 42  1  0  0  0  0
 40 41  1  0  0  0  0
 43 40  1  0  0  0  0
M  END
>  <minimizedAffinity>
-5.32563162

$$$$

 OpenBabel03252508243D

 43 45  0  0  0  0  0  0  0  0999 V2000
   38.3630   31.6770   38.8800 C   0  0  0  0  0  0  0  0  0  0  0  0
   37.3400   32.4670   39.3590 C   0  0  0  0  0  0  0  0  0  0  0  0
   37.5150   33.7060   39.9270 C   0  0  0  0  0  0  0  0  0  0  0  0
   38.8390   34.1570   40.0010 C   0  0  0  0  0  0  0  0  0  0  0  0
   39.8870   33.4130   39.5400 C   0  0  0  0  0  0  0  0  0  0  0  0
   39.6660   32.1870   38.9850 C   0  0  0  0  0  0  0  0  0  0  0  0
   36.2970   32.1960   39.3280 H   0  0  0  0  0  0  0  0  0  0  0  0
   36.7460   34.3440   40.3080 H   0  0  0  0  0  0  0  0  0  0  0  0
   39.0410   35.1410   40.4460 H   0  0  0  0  0  0  0  0  0  0  0  0
   40.8880   33.8390   39.6370 H   0  0  0  0  0  0  0  0  0  0  0  0
   40.8150   31.5030   38.5300 N   0  0  0  0  0  0  0  0  0  0  0  0
   41.3750   31.6450   37.2170 C   0  0  0  0  0  0  0  0  0  0  0  0
   42.8170   31.1890   37.1850 C   0  0  0  0  0  0  0  0  0  0  0  0
   43.5590   31.5330   38.3480 N   0  0  0  0  0  0  0  0  0  0  0  0
   42.9950   31.1020   39.5670 C   0  0  0  0  0  0  0  0  0  0  0  0
   41.6040   30.5510   39.3270 C   0  0  0  0  0  0  0  0  0  0  0  0
   41.1910   32.5820   36.6960 H   0  0  0  0  0  0  0  0  0  0  0  0
   40.8240   30.8800   36.5880 H   0  0  0  0  0  0  0  0  0  0  0  0
   43.2940   31.6640   36.3110 H   0  0  0  0  0  0  0  0  0  0  0  0
   42.8750   30.0810   37.0790 H   0  0  0  0  0  0  0  0  0  0  0  0
   44.5590   31.4910   38.2080 H   0  0  0  0  0  0  0  0  0  0  0  0
   43.6030   30.2750   39.9970 H   0  0  0  0  0  0  0  0  0  0  0  0
   42.9530   31.8910   40.3360 H   0  0  0  0  0  0  0  0  0  0  0  0
   41.6590   29.5780   38.7840 H   0  0  0  0  0  0  0  0  0  0  0  0
   41.1110   30.4580   40.3220 H   0  0  0  0  0  0  0  0  0  0  0  0
   38.1700   30.3570   38.2820 C   0  0  0  0  0  0  0  0  0  0  0  0
   38.8890   29.5990   38.5860 H   0  0  0  0  0  0  0  0  0  0  0  0
   38.3390   30.4960   37.1740 H   0  0  0  0  0  0  0  0  0  0  0  0
   36.7590   29.8460   38.4880 C   0  0  0  0  0  0  0  0  0  0  0  0
   36.3380   29.4710   37.5070 H   0  0  0  0  0  0  0  0  0  0  0  0
   36.0650   30.5450   38.9270 H   0  0  0  0  0  0  0  0  0  0  0  0
   36.7450   26.2460   39.6260 C   0  0  0  0  0  0  0  0  0  0  0  0
   36.7030   27.3820   38.7810 C   0  0  0  0  0  0  0  0  0  0  0  0
   36.7970   28.6440   39.3530 C   0  0  0  0  0  0  0  0  0  0  0  0
   36.9260   28.7140   40.7130 N   0  0  0  0  0  0  0  0  0  0  0  0
   36.9630   27.6340   41.4910 C   0  0  0  0  0  0  0  0  0  0  0  0
   36.8730   26.4000   40.9530 N   0  0  0  0  0  0  0  0  0  0  0  0
   36.6690   25.2590   39.1550 H   0  0  0  0  0  0  0  0  0  0  0  0
   36.6000   27.2710   37.7190 H   0  0  0  0  0  0  0  0  0  0  0  0
   37.1080   27.8620   42.9630 C   0  0  0  0  0  0  0  0  0  0  0  0
   37.2640   29.2180   43.2640 F   0  0  0  0  0  0  0  0  0  0  0  0
   38.2370   27.2350   43.4660 F   0  0  0  0  0  0  0  0  0  0  0  0
   35.9970   27.4460   43.6750 F   0  0  0  0  0  0  0  0  0  0  0  0
  1  6  2  0  0  0  0
  1  2  1  0  0  0  0
  2  3  2  0  0  0  0
  3  4  1  0  0  0  0
  3  8  1  0  0  0  0
  4  9  1  0  0  0  0
  5 10  1  0  0  0  0
  5  4  2  0  0  0  0
  6  5  1  0  0  0  0
  7  2  1  0  0  0  0
 11  6  1  0  0  0  0
 11 16  1  0  0  0  0
 12 11  1  0  0  0  0
 13 12  1  0  0  0  0
 13 14  1  0  0  0  0
 14 15  1  0  0  0  0
 15 22  1  0  0  0  0
 15 23  1  0  0  0  0
 16 15  1  0  0  0  0
 16 25  1  0  0  0  0
 17 12  1  0  0  0  0
 18 12  1  0  0  0  0
 19 13  1  0  0  0  0
 20 13  1  0  0  0  0
 21 14  1  0  0  0  0
 24 16  1  0  0  0  0
 26 29  1  0  0  0  0
 26 27  1  0  0  0  0
 26  1  1  0  0  0  0
 28 26  1  0  0  0  0
 29 31  1  0  0  0  0
 29 34  1  0  0  0  0
 30 29  1  0  0  0  0
 32 37  1  0  0  0  0
 33 34  1  0  0  0  0
 33 32  2  0  0  0  0
 34 35  2  0  0  0  0
 35 36  1  0  0  0  0
 36 40  1  0  0  0  0
 37 36  2  0  0  0  0
 38 32  1  0  0  0  0
 39 33  1  0  0  0  0
 40 41  1  0  0  0  0
 40 42  1  0  0  0  0
 40 43  1  0  0  0  0
M  END
>  <minimizedAffinity>
-5.32333565

$$$$
