
 OpenBabel03252508233D

 43 45  0  0  0  0  0  0  0  0999 V2000
   45.0080   34.1180   40.7870 C   0  0  0  0  0  0  0  0  0  0  0  0
   46.0870   34.4170   41.5900 C   0  0  0  0  0  0  0  0  0  0  0  0
   46.0480   35.2860   42.6540 C   0  0  0  0  0  0  0  0  0  0  0  0
   44.8060   35.8830   42.9030 C   0  0  0  0  0  0  0  0  0  0  0  0
   43.7060   35.6190   42.1380 C   0  0  0  0  0  0  0  0  0  0  0  0
   43.7920   34.7500   41.0900 C   0  0  0  0  0  0  0  0  0  0  0  0
   47.0710   33.9920   41.4710 H   0  0  0  0  0  0  0  0  0  0  0  0
   46.8640   35.5410   43.2960 H   0  0  0  0  0  0  0  0  0  0  0  0
   44.7130   36.5880   43.7410 H   0  0  0  0  0  0  0  0  0  0  0  0
   42.7760   36.1280   42.4000 H   0  0  0  0  0  0  0  0  0  0  0  0
   42.5970   34.5380   40.3680 N   0  0  0  0  0  0  0  0  0  0  0  0
   42.2310   35.2550   39.1800 C   0  0  0  0  0  0  0  0  0  0  0  0
   41.1830   34.5030   38.3890 C   0  0  0  0  0  0  0  0  0  0  0  0
   41.3670   33.0940   38.3770 N   0  0  0  0  0  0  0  0  0  0  0  0
   41.4640   32.4910   39.6490 C   0  0  0  0  0  0  0  0  0  0  0  0
   41.5580   33.5590   40.7200 C   0  0  0  0  0  0  0  0  0  0  0  0
   43.0390   35.6630   38.5770 H   0  0  0  0  0  0  0  0  0  0  0  0
   41.6920   36.1760   39.5590 H   0  0  0  0  0  0  0  0  0  0  0  0
   41.2270   34.8730   37.3500 H   0  0  0  0  0  0  0  0  0  0  0  0
   40.1680   34.6940   38.8050 H   0  0  0  0  0  0  0  0  0  0  0  0
   40.8590   32.6340   37.6340 H   0  0  0  0  0  0  0  0  0  0  0  0
   40.5480   31.8970   39.8600 H   0  0  0  0  0  0  0  0  0  0  0  0
   42.3150   31.7970   39.7420 H   0  0  0  0  0  0  0  0  0  0  0  0
   40.5810   34.0870   40.8300 H   0  0  0  0  0  0  0  0  0  0  0  0
   41.8790   33.0530   41.6600 H   0  0  0  0  0  0  0  0  0  0  0  0
   45.0590   33.1960   39.6530 C   0  0  0  0  0  0  0  0  0  0  0  0
   44.8560   33.6430   38.6820 H   0  0  0  0  0  0  0  0  0  0  0  0
   44.2190   32.4600   39.8210 H   0  0  0  0  0  0  0  0  0  0  0  0
   46.3630   32.4280   39.6100 C   0  0  0  0  0  0  0  0  0  0  0  0
   46.1570   31.3250   39.4620 H   0  0  0  0  0  0  0  0  0  0  0  0
   47.0130   32.5550   40.4620 H   0  0  0  0  0  0  0  0  0  0  0  0
   48.6900   34.2810   37.2850 C   0  0  0  0  0  0  0  0  0  0  0  0
   47.9700   33.9220   38.4500 C   0  0  0  0  0  0  0  0  0  0  0  0
   47.1220   32.8240   38.4010 C   0  0  0  0  0  0  0  0  0  0  0  0
   47.0310   32.1480   37.2150 N   0  0  0  0  0  0  0  0  0  0  0  0
   47.7150   32.5020   36.1280 C   0  0  0  0  0  0  0  0  0  0  0  0
   48.5440   33.5660   36.1580 N   0  0  0  0  0  0  0  0  0  0  0  0
   49.3540   35.1510   37.3450 H   0  0  0  0  0  0  0  0  0  0  0  0
   48.0790   34.4870   39.3560 H   0  0  0  0  0  0  0  0  0  0  0  0
   47.5170   31.6700   34.9000 C   0  0  0  0  0  0  0  0  0  0  0  0
   46.6830   30.5750   35.1450 F   0  0  0  0  0  0  0  0  0  0  0  0
   48.7130   31.1350   34.4510 F   0  0  0  0  0  0  0  0  0  0  0  0
   46.9180   32.3760   33.8740 F   0  0  0  0  0  0  0  0  0  0  0  0
  1  6  2  0  0  0  0
  1  2  1  0  0  0  0
  2  3  2  0  0  0  0
  3  4  1  0  0  0  0
  3  8  1  0  0  0  0
  4  9  1  0  0  0  0
  5 10  1  0  0  0  0
  5  4  2  0  0  0  0
  6  5  1  0  0  0  0
  7  2  1  0  0  0  0
 11 16  1  0  0  0  0
 11  6  1  0  0  0  0
 12 18  1  0  0  0  0
 12 11  1  0  0  0  0
 13 20  1  0  0  0  0
 13 12  1  0  0  0  0
 14 13  1  0  0  0  0
 14 15  1  0  0  0  0
 15 23  1  0  0  0  0
 15 22  1  0  0  0  0
 15 16  1  0  0  0  0
 16 24  1  0  0  0  0
 16 25  1  0  0  0  0
 17 12  1  0  0  0  0
 19 13  1  0  0  0  0
 21 14  1  0  0  0  0
 26 28  1  0  0  0  0
 26  1  1  0  0  0  0
 27 26  1  0  0  0  0
 29 26  1  0  0  0  0
 29 31  1  0  0  0  0
 30 29  1  0  0  0  0
 32 38  1  0  0  0  0
 32 33  1  0  0  0  0
 33 39  1  0  0  0  0
 34 33  2  0  0  0  0
 34 29  1  0  0  0  0
 35 34  1  0  0  0  0
 36 37  1  0  0  0  0
 36 35  2  0  0  0  0
 37 32  2  0  0  0  0
 40 41  1  0  0  0  0
 40 36  1  0  0  0  0
 42 40  1  0  0  0  0
 43 40  1  0  0  0  0
M  END
>  <minimizedAffinity>
-5.03135109

>  <minimizedRMSD>
7.3019557

$$$$
