
 OpenBabel03252508353D

 26 27  0  0  0  0  0  0  0  0999 V2000
   46.8950   33.7910   39.7310 C   0  0  0  0  0  0  0  0  0  0  0  0
   45.7030   33.4900   40.3560 C   0  0  0  0  0  0  0  0  0  0  0  0
   44.6970   32.9820   39.5720 C   0  0  0  0  0  0  0  0  0  0  0  0
   44.8380   32.7670   38.2100 C   0  0  0  0  0  0  0  0  0  0  0  0
   46.0430   33.0830   37.6280 C   0  0  0  0  0  0  0  0  0  0  0  0
   47.0820   33.5980   38.3840 C   0  0  0  0  0  0  0  0  0  0  0  0
   43.7700   32.7510   40.0810 H   0  0  0  0  0  0  0  0  0  0  0  0
   44.0070   32.3630   37.6430 H   0  0  0  0  0  0  0  0  0  0  0  0
   46.1390   32.9090   36.5610 H   0  0  0  0  0  0  0  0  0  0  0  0
   44.6600   34.9170   43.6820 C   0  0  0  0  0  0  0  0  0  0  0  0
   44.7320   34.6990   42.3040 C   0  0  0  0  0  0  0  0  0  0  0  0
   45.6100   33.7350   41.7890 C   0  0  0  0  0  0  0  0  0  0  0  0
   46.3530   33.0580   42.6890 N   0  0  0  0  0  0  0  0  0  0  0  0
   46.2720   33.2780   44.0090 C   0  0  0  0  0  0  0  0  0  0  0  0
   45.4310   34.2010   44.4970 N   0  0  0  0  0  0  0  0  0  0  0  0
   43.7680   35.8920   44.1660 N   0  0  0  0  0  0  0  0  0  0  0  0
   44.1240   35.2610   41.6350 H   0  0  0  0  0  0  0  0  0  0  0  0
   46.8580   32.7480   44.7570 H   0  0  0  0  0  0  0  0  0  0  0  0
   43.0320   36.3150   43.5560 H   0  0  0  0  0  0  0  0  0  0  0  0
   43.8130   36.2270   45.1570 H   0  0  0  0  0  0  0  0  0  0  0  0
   48.3860   33.9380   37.7570 C   0  0  0  0  0  0  0  0  0  0  0  0
   48.3910   33.7550   36.3890 F   0  0  0  0  0  0  0  0  0  0  0  0
   49.3660   33.0790   38.2490 F   0  0  0  0  0  0  0  0  0  0  0  0
   48.6800   35.2640   38.0640 F   0  0  0  0  0  0  0  0  0  0  0  0
   48.9040   34.7570   41.1070 N   0  0  0  0  0  0  0  0  0  0  0  0
   47.9940   34.3270   40.4870 C   0  0  0  0  0  0  0  0  0  0  0  0
  1  2  1  0  0  0  0
  1 26  1  0  0  0  0
  2 12  1  0  0  0  0
  3  7  1  0  0  0  0
  3  2  2  0  0  0  0
  4  3  1  0  0  0  0
  5  4  2  0  0  0  0
  5  6  1  0  0  0  0
  6  1  2  0  0  0  0
  8  4  1  0  0  0  0
  9  5  1  0  0  0  0
 10 16  1  0  0  0  0
 10 15  1  0  0  0  0
 11 10  2  0  0  0  0
 12 11  1  0  0  0  0
 12 13  2  0  0  0  0
 13 14  1  0  0  0  0
 14 15  2  0  0  0  0
 14 18  1  0  0  0  0
 16 20  1  0  0  0  0
 17 11  1  0  0  0  0
 19 16  1  0  0  0  0
 21 24  1  0  0  0  0
 21 23  1  0  0  0  0
 21  6  1  0  0  0  0
 22 21  1  0  0  0  0
 26 25  3  0  0  0  0
M  END
>  <minimizedAffinity>
-4.71233416

>  <minimizedRMSD>
1.47510731

$$$$
