
 OpenBabel03242514433D

 16 16  0  0  0  0  0  0  0  0999 V2000
   45.4660   35.1220   43.9350 C   0  0  0  0  0  0  0  0  0  0  0  0
   46.5280   34.3790   43.4240 C   0  0  0  0  0  0  0  0  0  0  0  0
   47.0470   33.3510   44.2270 C   0  0  0  0  0  0  0  0  0  0  0  0
   46.4900   33.1380   45.4510 N   0  0  0  0  0  0  0  0  0  0  0  0
   45.4590   33.8890   45.9010 C   0  0  0  0  0  0  0  0  0  0  0  0
   44.9410   34.8840   45.1480 N   0  0  0  0  0  0  0  0  0  0  0  0
   47.8670   32.7520   43.8740 H   0  0  0  0  0  0  0  0  0  0  0  0
   45.0750   33.6480   46.8960 H   0  0  0  0  0  0  0  0  0  0  0  0
   44.9130   36.2210   43.0770 C   0  0  0  0  0  0  0  0  0  0  0  0
   44.1160   36.7520   43.6500 H   0  0  0  0  0  0  0  0  0  0  0  0
   44.4110   35.7690   42.1790 H   0  0  0  0  0  0  0  0  0  0  0  0
   45.6670   36.9320   42.7460 H   0  0  0  0  0  0  0  0  0  0  0  0
   47.1040   34.6510   42.0800 C   0  0  0  0  0  0  0  0  0  0  0  0
   47.7460   35.8900   42.0420 F   0  0  0  0  0  0  0  0  0  0  0  0
   46.1020   34.7050   41.1350 F   0  0  0  0  0  0  0  0  0  0  0  0
   48.0750   33.7270   41.8270 F   0  0  0  0  0  0  0  0  0  0  0  0
  1  6  1  0  0  0  0
  2  1  2  0  0  0  0
  2  3  1  0  0  0  0
  3  4  2  0  0  0  0
  4  5  1  0  0  0  0
  5  8  1  0  0  0  0
  6  5  2  0  0  0  0
  7  3  1  0  0  0  0
  9 10  1  0  0  0  0
  9  1  1  0  0  0  0
 11  9  1  0  0  0  0
 12  9  1  0  0  0  0
 13  2  1  0  0  0  0
 14 13  1  0  0  0  0
 15 13  1  0  0  0  0
 16 13  1  0  0  0  0
M  END
>  <minimizedAffinity>
-3.83022118

>  <minimizedRMSD>
0.292596191

$$$$
