
 OpenBabel03242519163D

 37 39  0  0  1  0  0  0  0  0999 V2000
   48.2550   34.0350   40.8860 C   0  0  0  0  0  0  0  0  0  0  0  0
   48.1000   34.3270   39.5540 C   0  0  0  0  0  0  0  0  0  0  0  0
   48.3970   33.4150   38.5350 C   0  0  0  0  0  0  0  0  0  0  0  0
   48.8540   32.2130   38.9570 N   0  0  0  0  0  0  0  0  0  0  0  0
   49.0060   31.9310   40.2590 C   0  0  0  0  0  0  0  0  0  0  0  0
   48.7120   32.8280   41.2070 N   0  0  0  0  0  0  0  0  0  0  0  0
   47.7270   35.3150   39.2990 H   0  0  0  0  0  0  0  0  0  0  0  0
   48.2640   33.6740   37.5120 H   0  0  0  0  0  0  0  0  0  0  0  0
   49.4870   30.5910   40.7320 C   0  0  2  0  0  0  0  0  0  0  0  0
   50.1160   30.4990   42.0860 C   0  0  0  0  0  0  0  0  0  0  0  0
   50.9640   30.4120   40.8120 C   0  0  2  0  0  0  0  0  0  0  0  0
   48.8680   29.7610   40.3370 H   0  0  0  0  0  0  0  0  0  0  0  0
   50.2750   31.4030   42.6900 H   0  0  0  0  0  0  0  0  0  0  0  0
   49.9540   29.5630   42.6680 H   0  0  0  0  0  0  0  0  0  0  0  0
   51.3560   29.4060   40.6190 H   0  0  0  0  0  0  0  0  0  0  0  0
   51.8760   31.5370   40.4540 C   0  0  0  0  0  0  0  0  0  0  0  0
   51.5510   32.5990   41.3010 F   0  0  0  0  0  0  0  0  0  0  0  0
   53.2130   31.2750   40.5940 F   0  0  0  0  0  0  0  0  0  0  0  0
   51.6220   31.9580   39.1610 F   0  0  0  0  0  0  0  0  0  0  0  0
   47.9300   34.9890   41.9300 C   0  0  0  0  0  0  0  0  0  0  0  0
   48.5380   34.8180   42.8430 H   0  0  0  0  0  0  0  0  0  0  0  0
   48.1380   36.0500   41.6100 H   0  0  0  0  0  0  0  0  0  0  0  0
   46.5060   34.9160   42.2940 C   0  0  0  0  0  0  0  0  0  0  0  0
   45.9570   35.8780   42.2150 H   0  0  0  0  0  0  0  0  0  0  0  0
   45.9560   34.2250   41.5940 H   0  0  0  0  0  0  0  0  0  0  0  0
   44.5990   36.4190   43.9980 Cl  0  0  0  0  0  0  0  0  0  0  0  0
   45.3920   34.9750   44.5430 C   0  0  0  0  0  0  0  0  0  0  0  0
   46.2630   34.3740   43.6630 C   0  0  0  0  0  0  0  0  0  0  0  0
   46.9150   33.2250   44.0940 C   0  0  0  0  0  0  0  0  0  0  0  0
   46.6910   32.7130   45.3550 C   0  0  0  0  0  0  0  0  0  0  0  0
   45.7950   33.3500   46.2270 C   0  0  0  0  0  0  0  0  0  0  0  0
   45.1600   34.4810   45.7900 C   0  0  0  0  0  0  0  0  0  0  0  0
   47.6040   32.6990   43.4770 H   0  0  0  0  0  0  0  0  0  0  0  0
   47.1980   31.8140   45.6940 H   0  0  0  0  0  0  0  0  0  0  0  0
   45.6180   32.9600   47.2010 H   0  0  0  0  0  0  0  0  0  0  0  0
   44.2500   35.1780   46.5940 O   0  0  0  0  0  0  0  0  0  0  0  0
   43.6030   35.8310   46.2310 H   0  0  0  0  0  0  0  0  0  0  0  0
  1  6  1  0  0  0  0
  1 20  1  0  0  0  0
  2  1  2  0  0  0  0
  3  4  2  0  0  0  0
  3  2  1  0  0  0  0
  4  5  1  0  0  0  0
  5  9  1  0  0  0  0
  5  6  2  0  0  0  0
  7  2  1  0  0  0  0
  8  3  1  0  0  0  0
  9 12  1  6  0  0  0
  9 11  1  0  0  0  0
  9 10  1  0  0  0  0
 10 14  1  0  0  0  0
 10 13  1  0  0  0  0
 11 15  1  6  0  0  0
 11 10  1  0  0  0  0
 16 18  1  0  0  0  0
 16 11  1  0  0  0  0
 16 17  1  0  0  0  0
 19 16  1  0  0  0  0
 20 23  1  0  0  0  0
 20 21  1  0  0  0  0
 22 20  1  0  0  0  0
 23 28  1  0  0  0  0
 24 23  1  0  0  0  0
 25 23  1  0  0  0  0
 26 27  1  0  0  0  0
 27 32  1  0  0  0  0
 28 29  1  0  0  0  0
 28 27  2  0  0  0  0
 29 30  2  0  0  0  0
 30 34  1  0  0  0  0
 30 31  1  0  0  0  0
 31 35  1  0  0  0  0
 32 31  2  0  0  0  0
 32 36  1  0  0  0  0
 33 29  1  0  0  0  0
 37 36  1  0  0  0  0
M  END
>  <minimizedAffinity>
-5.76557589

>  <minimizedRMSD>
0.894785166

$$$$
