
 OpenBabel03252505253D

 38 40  0  0  1  0  0  0  0  0999 V2000
   46.8400   33.4900   44.6240 F   0  0  0  0  0  0  0  0  0  0  0  0
   47.4650   32.2930   44.3970 C   0  0  0  0  0  0  0  0  0  0  0  0
   48.2740   32.1950   43.2900 C   0  0  0  0  0  0  0  0  0  0  0  0
   48.8980   31.0040   43.0650 C   0  0  0  0  0  0  0  0  0  0  0  0
   48.6980   29.9430   43.9460 C   0  0  0  0  0  0  0  0  0  0  0  0
   47.8870   30.0460   45.0500 C   0  0  0  0  0  0  0  0  0  0  0  0
   47.2540   31.2850   45.2660 C   0  0  0  0  0  0  0  0  0  0  0  0
   49.5490   30.8660   42.2070 H   0  0  0  0  0  0  0  0  0  0  0  0
   49.2160   29.0070   43.7260 H   0  0  0  0  0  0  0  0  0  0  0  0
   47.7480   29.2080   45.7200 H   0  0  0  0  0  0  0  0  0  0  0  0
   46.4340   31.3230   46.4210 N   0  0  0  0  0  0  0  0  0  0  0  0
   45.4030   30.4640   46.9090 C   0  0  0  0  0  0  0  0  0  0  0  0
   45.7990   30.2330   48.3760 C   0  0  0  0  0  0  0  0  0  0  0  0
   46.6550   31.4170   48.7060 C   0  0  0  0  0  0  0  0  0  0  0  0
   46.4090   32.3140   47.5050 C   0  0  2  0  0  0  0  0  0  0  0  0
   45.5250   29.4800   46.3760 H   0  0  0  0  0  0  0  0  0  0  0  0
   44.3780   30.7840   46.7880 H   0  0  0  0  0  0  0  0  0  0  0  0
   46.3100   29.2560   48.4780 H   0  0  0  0  0  0  0  0  0  0  0  0
   44.8680   30.2670   48.9930 H   0  0  0  0  0  0  0  0  0  0  0  0
   47.7150   31.1630   48.7810 H   0  0  0  0  0  0  0  0  0  0  0  0
   46.2640   31.9280   49.6060 H   0  0  0  0  0  0  0  0  0  0  0  0
   47.3560   32.9130   47.3850 H   0  0  0  0  0  0  0  0  0  0  0  0
   45.1780   33.1200   47.5750 C   0  0  0  0  0  0  0  0  0  0  0  0
   45.4260   34.1650   47.2910 H   0  0  0  0  0  0  0  0  0  0  0  0
   44.3600   32.8210   46.8980 H   0  0  0  0  0  0  0  0  0  0  0  0
   44.8500   33.1970   48.6420 H   0  0  0  0  0  0  0  0  0  0  0  0
   49.0460   35.5590   42.0700 C   0  0  0  0  0  0  0  0  0  0  0  0
   48.7670   35.4650   40.6830 C   0  0  0  0  0  0  0  0  0  0  0  0
   48.3190   34.2290   40.2200 C   0  0  0  0  0  0  0  0  0  0  0  0
   48.1770   33.2090   41.1010 N   0  0  0  0  0  0  0  0  0  0  0  0
   48.4500   33.3330   42.4010 C   0  0  0  0  0  0  0  0  0  0  0  0
   48.8810   34.5000   42.8830 N   0  0  0  0  0  0  0  0  0  0  0  0
   49.3880   36.5290   42.3820 H   0  0  0  0  0  0  0  0  0  0  0  0
   48.8690   36.2490   39.9710 H   0  0  0  0  0  0  0  0  0  0  0  0
   47.9780   33.9350   38.8160 C   0  0  0  0  0  0  0  0  0  0  0  0
   48.7120   32.7900   38.4800 F   0  0  0  0  0  0  0  0  0  0  0  0
   48.4530   34.9760   38.0450 F   0  0  0  0  0  0  0  0  0  0  0  0
   46.6480   33.7650   38.5890 F   0  0  0  0  0  0  0  0  0  0  0  0
  2  1  1  0  0  0  0
  2  7  1  0  0  0  0
  3  2  2  0  0  0  0
  4  3  1  0  0  0  0
  4  5  2  0  0  0  0
  5  6  1  0  0  0  0
  6  7  2  0  0  0  0
  6 10  1  0  0  0  0
  7 11  1  0  0  0  0
  8  4  1  0  0  0  0
  9  5  1  0  0  0  0
 11 12  1  0  0  0  0
 11 15  1  0  0  0  0
 12 13  1  0  0  0  0
 13 18  1  0  0  0  0
 13 14  1  0  0  0  0
 13 19  1  0  0  0  0
 14 20  1  0  0  0  0
 14 21  1  0  0  0  0
 15 22  1  6  0  0  0
 15 23  1  0  0  0  0
 15 14  1  0  0  0  0
 16 12  1  0  0  0  0
 17 12  1  0  0  0  0
 23 26  1  0  0  0  0
 24 23  1  0  0  0  0
 25 23  1  0  0  0  0
 27 33  1  0  0  0  0
 27 32  1  0  0  0  0
 28 27  2  0  0  0  0
 29 28  1  0  0  0  0
 29 30  2  0  0  0  0
 30 31  1  0  0  0  0
 31 32  2  0  0  0  0
 31  3  1  0  0  0  0
 34 28  1  0  0  0  0
 35 29  1  0  0  0  0
 36 35  1  0  0  0  0
 37 35  1  0  0  0  0
 38 35  1  0  0  0  0
M  END
>  <minimizedAffinity>
-5.40642929

>  <minimizedRMSD>
0.92413342

$$$$
