
 OpenBabel03252509183D

 36 38  0  0  1  0  0  0  0  0999 V2000
   48.4930   29.1080   46.4110 C   0  0  1  0  0  0  0  0  0  0  0  0
   49.5590   29.5790   47.3410 C   0  0  0  0  0  0  0  0  0  0  0  0
   49.5360   28.9490   48.6980 C   0  0  0  0  0  0  0  0  0  0  0  0
   49.2920   27.4590   48.6460 C   0  0  0  0  0  0  0  0  0  0  0  0
   48.1760   27.0850   47.7080 C   0  0  0  0  0  0  0  0  0  0  0  0
   47.4380   28.3500   47.2440 C   0  0  2  0  0  0  0  0  0  0  0  0
   48.9170   28.3270   45.7510 H   0  0  0  0  0  0  0  0  0  0  0  0
   49.3900   30.6850   47.4940 H   0  0  0  0  0  0  0  0  0  0  0  0
   50.5710   29.5290   46.8680 H   0  0  0  0  0  0  0  0  0  0  0  0
   48.8130   29.4400   49.3760 H   0  0  0  0  0  0  0  0  0  0  0  0
   50.5510   29.0760   49.1510 H   0  0  0  0  0  0  0  0  0  0  0  0
   50.2210   26.9300   48.3090 H   0  0  0  0  0  0  0  0  0  0  0  0
   49.1130   27.1200   49.6850 H   0  0  0  0  0  0  0  0  0  0  0  0
   47.4580   26.4290   48.2490 H   0  0  0  0  0  0  0  0  0  0  0  0
   48.5330   26.5640   46.8180 H   0  0  0  0  0  0  0  0  0  0  0  0
   47.0670   28.9370   48.0830 H   0  0  0  0  0  0  0  0  0  0  0  0
   46.7360   32.4430   44.8130 C   0  0  0  0  0  0  0  0  0  0  0  0
   47.2200   31.5720   43.8230 C   0  0  0  0  0  0  0  0  0  0  0  0
   47.8160   30.4280   44.2290 C   0  0  0  0  0  0  0  0  0  0  0  0
   47.9370   30.1440   45.6040 C   0  0  0  0  0  0  0  0  0  0  0  0
   47.1520   31.5950   46.3740 S   0  0  0  0  0  0  0  0  0  0  0  0
   47.1310   31.7840   42.7690 H   0  0  0  0  0  0  0  0  0  0  0  0
   48.2450   29.6400   43.6320 H   0  0  0  0  0  0  0  0  0  0  0  0
   45.4500   35.5850   43.2880 C   0  0  0  0  0  0  0  0  0  0  0  0
   44.6670   36.0700   44.3660 C   0  0  0  0  0  0  0  0  0  0  0  0
   44.6140   35.3050   45.5590 C   0  0  0  0  0  0  0  0  0  0  0  0
   45.3330   34.1450   45.5770 N   0  0  0  0  0  0  0  0  0  0  0  0
   46.0660   33.7170   44.5310 C   0  0  0  0  0  0  0  0  0  0  0  0
   46.1150   34.4430   43.4000 N   0  0  0  0  0  0  0  0  0  0  0  0
   45.5110   36.1460   42.3630 H   0  0  0  0  0  0  0  0  0  0  0  0
   44.1250   36.9900   44.2900 H   0  0  0  0  0  0  0  0  0  0  0  0
   44.0310   35.6310   46.4110 H   0  0  0  0  0  0  0  0  0  0  0  0
   46.3210   27.8640   46.3340 C   0  0  0  0  0  0  0  0  0  0  0  0
   46.8030   27.5460   45.0780 F   0  0  0  0  0  0  0  0  0  0  0  0
   45.6890   26.7920   46.9180 F   0  0  0  0  0  0  0  0  0  0  0  0
   45.4220   28.8890   46.2090 F   0  0  0  0  0  0  0  0  0  0  0  0
  1  7  1  6  0  0  0
  1  6  1  0  0  0  0
  1  2  1  0  0  0  0
  2  8  1  0  0  0  0
  2  3  1  0  0  0  0
  3 11  1  0  0  0  0
  3 10  1  0  0  0  0
  4  3  1  0  0  0  0
  4 13  1  0  0  0  0
  5 14  1  0  0  0  0
  5  4  1  0  0  0  0
  6  5  1  0  0  0  0
  6 16  1  1  0  0  0
  9  2  1  0  0  0  0
 12  4  1  0  0  0  0
 15  5  1  0  0  0  0
 17 21  1  0  0  0  0
 18 19  1  0  0  0  0
 18 17  2  0  0  0  0
 19 20  2  0  0  0  0
 20 21  1  0  0  0  0
 20  1  1  0  0  0  0
 22 18  1  0  0  0  0
 23 19  1  0  0  0  0
 24 29  2  0  0  0  0
 24 25  1  0  0  0  0
 25 26  2  0  0  0  0
 26 27  1  0  0  0  0
 26 32  1  0  0  0  0
 28 17  1  0  0  0  0
 28 27  2  0  0  0  0
 29 28  1  0  0  0  0
 30 24  1  0  0  0  0
 31 25  1  0  0  0  0
 33 35  1  0  0  0  0
 33  6  1  0  0  0  0
 34 33  1  0  0  0  0
 36 33  1  0  0  0  0
M  END
>  <minimizedAffinity>
-4.07907963

>  <minimizedRMSD>
4.07500792

$$$$
