
 OpenBabel03252508323D

 27 28  0  0  1  0  0  0  0  0999 V2000
   46.2090   34.1010   41.6770 N   0  0  0  0  0  0  0  0  0  0  0  0
   47.5860   33.8200   41.4780 C   0  0  1  0  0  0  0  0  0  0  0  0
   47.9420   33.2320   40.1530 C   0  0  0  0  0  0  0  0  0  0  0  0
   46.9780   32.5100   39.4430 N   0  0  0  0  0  0  0  0  0  0  0  0
   45.6280   32.8030   39.6920 C   0  0  0  0  0  0  0  0  0  0  0  0
   45.4550   34.0750   40.4640 C   0  0  0  0  0  0  0  0  0  0  0  0
   47.9580   33.1410   42.2720 H   0  0  0  0  0  0  0  0  0  0  0  0
   48.2770   34.0830   39.4790 H   0  0  0  0  0  0  0  0  0  0  0  0
   48.8360   32.5710   40.2960 H   0  0  0  0  0  0  0  0  0  0  0  0
   47.1630   32.5470   38.4230 H   0  0  0  0  0  0  0  0  0  0  0  0
   45.2400   31.9920   40.3780 H   0  0  0  0  0  0  0  0  0  0  0  0
   44.9540   32.7810   38.8290 H   0  0  0  0  0  0  0  0  0  0  0  0
   44.4010   34.3910   40.5310 H   0  0  0  0  0  0  0  0  0  0  0  0
   45.9150   34.8770   39.8090 H   0  0  0  0  0  0  0  0  0  0  0  0
   44.8630   35.4770   43.0760 C   0  0  0  0  0  0  0  0  0  0  0  0
   45.7490   34.3820   42.9780 C   0  0  0  0  0  0  0  0  0  0  0  0
   46.1100   33.7190   44.1340 C   0  0  0  0  0  0  0  0  0  0  0  0
   45.6330   34.1040   45.3460 N   0  0  0  0  0  0  0  0  0  0  0  0
   44.7750   35.1720   45.4250 C   0  0  0  0  0  0  0  0  0  0  0  0
   44.4020   35.8370   44.3110 N   0  0  0  0  0  0  0  0  0  0  0  0
   44.4650   36.1140   42.3140 H   0  0  0  0  0  0  0  0  0  0  0  0
   46.7570   32.8840   44.0850 H   0  0  0  0  0  0  0  0  0  0  0  0
   44.3910   35.4820   46.3950 H   0  0  0  0  0  0  0  0  0  0  0  0
   48.4370   35.1090   41.5650 C   0  0  0  0  0  0  0  0  0  0  0  0
   47.8320   36.1300   42.2060 F   0  0  0  0  0  0  0  0  0  0  0  0
   48.6600   35.5650   40.2570 F   0  0  0  0  0  0  0  0  0  0  0  0
   49.6960   34.8020   42.0470 F   0  0  0  0  0  0  0  0  0  0  0  0
  1 16  1  0  0  0  0
  2 24  1  0  0  0  0
  2  1  1  0  0  0  0
  2  7  1  1  0  0  0
  3  9  1  0  0  0  0
  3  2  1  0  0  0  0
  4  5  1  0  0  0  0
  4  3  1  0  0  0  0
  5 11  1  0  0  0  0
  5  6  1  0  0  0  0
  6 13  1  0  0  0  0
  6  1  1  0  0  0  0
  8  3  1  0  0  0  0
 10  4  1  0  0  0  0
 12  5  1  0  0  0  0
 14  6  1  0  0  0  0
 15 20  1  0  0  0  0
 16 15  2  0  0  0  0
 16 17  1  0  0  0  0
 17 18  2  0  0  0  0
 18 19  1  0  0  0  0
 19 23  1  0  0  0  0
 20 19  2  0  0  0  0
 21 15  1  0  0  0  0
 22 17  1  0  0  0  0
 24 27  1  0  0  0  0
 24 25  1  0  0  0  0
 26 24  1  0  0  0  0
M  END
>  <minimizedAffinity>
-4.60515881

>  <minimizedRMSD>
2.91774178

$$$$
