
 OpenBabel03242521213D

 31 33  0  0  0  0  0  0  0  0999 V2000
   45.0770   33.1470   42.5860 C   0  0  0  0  0  0  0  0  0  0  0  0
   45.3910   34.4540   42.8050 C   0  0  0  0  0  0  0  0  0  0  0  0
   44.7020   35.5150   42.2500 C   0  0  0  0  0  0  0  0  0  0  0  0
   43.6630   35.1740   41.4510 N   0  0  0  0  0  0  0  0  0  0  0  0
   43.3540   33.8860   41.2360 C   0  0  0  0  0  0  0  0  0  0  0  0
   44.0310   32.8440   41.7810 N   0  0  0  0  0  0  0  0  0  0  0  0
   46.2230   34.7180   43.4450 H   0  0  0  0  0  0  0  0  0  0  0  0
   44.9390   36.5450   42.4130 H   0  0  0  0  0  0  0  0  0  0  0  0
   42.2070   33.5480   40.3540 C   0  0  0  0  0  0  0  0  0  0  0  0
   40.9210   33.7970   40.7920 C   0  0  0  0  0  0  0  0  0  0  0  0
   39.7890   33.5250   40.0580 C   0  0  0  0  0  0  0  0  0  0  0  0
   39.9800   32.9580   38.7890 C   0  0  0  0  0  0  0  0  0  0  0  0
   41.2520   32.7130   38.3610 C   0  0  0  0  0  0  0  0  0  0  0  0
   42.3710   32.9930   39.1090 C   0  0  0  0  0  0  0  0  0  0  0  0
   40.8020   34.2360   41.7750 H   0  0  0  0  0  0  0  0  0  0  0  0
   38.8060   33.7450   40.4600 H   0  0  0  0  0  0  0  0  0  0  0  0
   39.1040   32.7350   38.1970 H   0  0  0  0  0  0  0  0  0  0  0  0
   41.3590   32.2760   37.3770 H   0  0  0  0  0  0  0  0  0  0  0  0
   43.7460   32.7180   38.6200 C   0  0  0  0  0  0  0  0  0  0  0  0
   43.6440   32.4240   37.2540 F   0  0  0  0  0  0  0  0  0  0  0  0
   44.6070   33.7640   38.7440 F   0  0  0  0  0  0  0  0  0  0  0  0
   44.1980   31.5470   39.2190 F   0  0  0  0  0  0  0  0  0  0  0  0
   45.8680   30.0870   44.4440 C   0  0  0  0  0  0  0  0  0  0  0  0
   47.2530   30.0280   44.3430 C   0  0  0  0  0  0  0  0  0  0  0  0
   47.9150   31.0240   43.6460 C   0  0  0  0  0  0  0  0  0  0  0  0
   47.1740   32.0320   43.0810 N   0  0  0  0  0  0  0  0  0  0  0  0
   45.8360   32.0650   43.1950 C   0  0  0  0  0  0  0  0  0  0  0  0
   45.1930   31.1080   43.8650 N   0  0  0  0  0  0  0  0  0  0  0  0
   45.3960   29.2870   44.9970 H   0  0  0  0  0  0  0  0  0  0  0  0
   47.9040   29.2890   44.7440 H   0  0  0  0  0  0  0  0  0  0  0  0
   48.9710   31.1610   43.4540 H   0  0  0  0  0  0  0  0  0  0  0  0
  1  2  1  0  0  0  0
  1 27  1  0  0  0  0
  2  7  1  0  0  0  0
  3  8  1  0  0  0  0
  3  2  2  0  0  0  0
  4  3  1  0  0  0  0
  5  4  2  0  0  0  0
  5  6  1  0  0  0  0
  6  1  2  0  0  0  0
  9 10  1  0  0  0  0
  9  5  1  0  0  0  0
 10 15  1  0  0  0  0
 11 16  1  0  0  0  0
 11 10  2  0  0  0  0
 12 11  1  0  0  0  0
 13 12  2  0  0  0  0
 13 14  1  0  0  0  0
 14  9  2  0  0  0  0
 17 12  1  0  0  0  0
 18 13  1  0  0  0  0
 19 21  1  0  0  0  0
 19 14  1  0  0  0  0
 19 22  1  0  0  0  0
 20 19  1  0  0  0  0
 23 29  1  0  0  0  0
 24 23  1  0  0  0  0
 24 30  1  0  0  0  0
 25 24  2  0  0  0  0
 26 27  2  0  0  0  0
 26 25  1  0  0  0  0
 27 28  1  0  0  0  0
 28 23  2  0  0  0  0
 31 25  1  0  0  0  0
M  END
>  <minimizedAffinity>
-3.67456102

>  <minimizedRMSD>
5.63735771

$$$$
