
 OpenBabel03242516373D

 15 15  0  0  0  0  0  0  0  0999 V2000
   44.9330   35.1240   44.0310 C   0  0  0  0  0  0  0  0  0  0  0  0
   45.7910   35.3750   42.9350 C   0  0  0  0  0  0  0  0  0  0  0  0
   46.9950   34.6560   42.8680 C   0  0  0  0  0  0  0  0  0  0  0  0
   47.2740   33.7630   43.8520 N   0  0  0  0  0  0  0  0  0  0  0  0
   46.4260   33.5550   44.8810 C   0  0  0  0  0  0  0  0  0  0  0  0
   45.2720   34.2320   44.9600 N   0  0  0  0  0  0  0  0  0  0  0  0
   43.7110   35.8370   44.1200 N   0  0  0  0  0  0  0  0  0  0  0  0
   45.5040   36.1060   42.1820 H   0  0  0  0  0  0  0  0  0  0  0  0
   46.7180   32.8230   45.6280 H   0  0  0  0  0  0  0  0  0  0  0  0
   43.1400   35.7710   44.9730 H   0  0  0  0  0  0  0  0  0  0  0  0
   43.3520   36.4370   43.3550 H   0  0  0  0  0  0  0  0  0  0  0  0
   47.8970   34.9200   41.7170 C   0  0  0  0  0  0  0  0  0  0  0  0
   48.9120   33.9820   41.7690 F   0  0  0  0  0  0  0  0  0  0  0  0
   47.1360   34.8070   40.5750 F   0  0  0  0  0  0  0  0  0  0  0  0
   48.4530   36.1650   41.8020 F   0  0  0  0  0  0  0  0  0  0  0  0
  1  7  1  0  0  0  0
  1  6  1  0  0  0  0
  2  1  2  0  0  0  0
  3  2  1  0  0  0  0
  3  4  2  0  0  0  0
  4  5  1  0  0  0  0
  5  6  2  0  0  0  0
  5  9  1  0  0  0  0
  7 10  1  0  0  0  0
  8  2  1  0  0  0  0
 11  7  1  0  0  0  0
 12 13  1  0  0  0  0
 12 15  1  0  0  0  0
 12  3  1  0  0  0  0
 14 12  1  0  0  0  0
M  END
>  <minimizedAffinity>
-4.46697378

>  <minimizedRMSD>
1.81176913

$$$$
