
 OpenBabel03252509123D

 26 28  0  0  0  0  0  0  0  0999 V2000
   36.7220   30.8750   40.4420 C   0  0  0  0  0  0  0  0  0  0  0  0
   37.7130   30.2480   41.1970 C   0  0  0  0  0  0  0  0  0  0  0  0
   38.9260   30.8450   41.5160 C   0  0  0  0  0  0  0  0  0  0  0  0
   39.1720   32.1460   41.0570 C   0  0  0  0  0  0  0  0  0  0  0  0
   40.1850   33.0300   41.1390 N   0  0  0  0  0  0  0  0  0  0  0  0
   39.8580   34.1610   40.4720 C   0  0  0  0  0  0  0  0  0  0  0  0
   38.6240   33.9610   39.9770 N   0  0  0  0  0  0  0  0  0  0  0  0
   38.1660   32.7500   40.3060 C   0  0  0  0  0  0  0  0  0  0  0  0
   36.9500   32.1670   39.9800 C   0  0  0  0  0  0  0  0  0  0  0  0
   35.8020   30.3720   40.2230 H   0  0  0  0  0  0  0  0  0  0  0  0
   41.0810   32.9390   41.6040 H   0  0  0  0  0  0  0  0  0  0  0  0
   40.4670   35.0590   40.3570 H   0  0  0  0  0  0  0  0  0  0  0  0
   36.2310   32.7140   39.3930 H   0  0  0  0  0  0  0  0  0  0  0  0
   37.5630   26.5780   41.3500 C   0  0  0  0  0  0  0  0  0  0  0  0
   37.0210   26.3420   42.6090 C   0  0  0  0  0  0  0  0  0  0  0  0
   36.7090   27.4510   43.4000 C   0  0  0  0  0  0  0  0  0  0  0  0
   36.9470   28.7080   42.9080 N   0  0  0  0  0  0  0  0  0  0  0  0
   37.4730   28.9060   41.6870 C   0  0  0  0  0  0  0  0  0  0  0  0
   37.7620   27.8420   40.9510 N   0  0  0  0  0  0  0  0  0  0  0  0
   37.8450   25.8210   40.6470 H   0  0  0  0  0  0  0  0  0  0  0  0
   36.8660   25.3340   42.9170 H   0  0  0  0  0  0  0  0  0  0  0  0
   36.2870   27.3030   44.3800 H   0  0  0  0  0  0  0  0  0  0  0  0
   40.0290   30.2450   42.2680 C   0  0  0  0  0  0  0  0  0  0  0  0
   40.5100   31.1520   43.1830 F   0  0  0  0  0  0  0  0  0  0  0  0
   39.8120   29.0260   42.8060 F   0  0  0  0  0  0  0  0  0  0  0  0
   41.0420   30.0090   41.2940 F   0  0  0  0  0  0  0  0  0  0  0  0
  1  2  1  0  0  0  0
  2  3  2  0  0  0  0
  2 18  1  0  0  0  0
  3 23  1  0  0  0  0
  4  5  1  0  0  0  0
  4  3  1  0  0  0  0
  5 11  1  0  0  0  0
  6  5  1  0  0  0  0
  7  8  1  0  0  0  0
  7  6  2  0  0  0  0
  8  4  2  0  0  0  0
  9  8  1  0  0  0  0
  9  1  2  0  0  0  0
 10  1  1  0  0  0  0
 12  6  1  0  0  0  0
 13  9  1  0  0  0  0
 14 15  1  0  0  0  0
 15 21  1  0  0  0  0
 15 16  2  0  0  0  0
 16 22  1  0  0  0  0
 17 16  1  0  0  0  0
 18 17  2  0  0  0  0
 19 14  2  0  0  0  0
 19 18  1  0  0  0  0
 20 14  1  0  0  0  0
 23 25  1  0  0  0  0
 23 24  1  0  0  0  0
 26 23  1  0  0  0  0
M  END
>  <minimizedAffinity>
-5.34976673

$$$$

 OpenBabel03252509123D

 26 28  0  0  0  0  0  0  0  0999 V2000
   40.4080   30.6540   41.6480 C   0  0  0  0  0  0  0  0  0  0  0  0
   39.1630   30.0290   41.5590 C   0  0  0  0  0  0  0  0  0  0  0  0
   38.0190   30.6660   41.0970 C   0  0  0  0  0  0  0  0  0  0  0  0
   38.1130   32.0060   40.6980 C   0  0  0  0  0  0  0  0  0  0  0  0
   37.2680   32.9410   40.2230 N   0  0  0  0  0  0  0  0  0  0  0  0
   37.9360   34.0990   40.0200 C   0  0  0  0  0  0  0  0  0  0  0  0
   39.2110   33.8640   40.3780 N   0  0  0  0  0  0  0  0  0  0  0  0
   39.3670   32.6060   40.7970 C   0  0  0  0  0  0  0  0  0  0  0  0
   40.5190   31.9830   41.2550 C   0  0  0  0  0  0  0  0  0  0  0  0
   41.2620   30.1190   42.0110 H   0  0  0  0  0  0  0  0  0  0  0  0
   36.2760   32.8690   40.0250 H   0  0  0  0  0  0  0  0  0  0  0  0
   37.5290   35.0380   39.6420 H   0  0  0  0  0  0  0  0  0  0  0  0
   41.4460   32.5300   41.2950 H   0  0  0  0  0  0  0  0  0  0  0  0
   38.8430   27.0340   43.6660 C   0  0  0  0  0  0  0  0  0  0  0  0
   38.8280   26.0000   42.7350 C   0  0  0  0  0  0  0  0  0  0  0  0
   38.9300   26.3420   41.3830 C   0  0  0  0  0  0  0  0  0  0  0  0
   39.0380   27.6640   41.0370 N   0  0  0  0  0  0  0  0  0  0  0  0
   39.0490   28.6420   41.9590 C   0  0  0  0  0  0  0  0  0  0  0  0
   38.9520   28.2990   43.2350 N   0  0  0  0  0  0  0  0  0  0  0  0
   38.7720   26.9100   44.7270 H   0  0  0  0  0  0  0  0  0  0  0  0
   38.7420   24.9990   43.0860 H   0  0  0  0  0  0  0  0  0  0  0  0
   38.9230   25.5650   40.6370 H   0  0  0  0  0  0  0  0  0  0  0  0
   36.6730   30.0970   41.0070 C   0  0  0  0  0  0  0  0  0  0  0  0
   36.3700   29.8340   39.6920 F   0  0  0  0  0  0  0  0  0  0  0  0
   36.3910   29.0600   41.8250 F   0  0  0  0  0  0  0  0  0  0  0  0
   35.8130   31.1350   41.4680 F   0  0  0  0  0  0  0  0  0  0  0  0
  1 10  1  0  0  0  0
  2  1  1  0  0  0  0
  2 18  1  0  0  0  0
  3  2  2  0  0  0  0
  4  8  2  0  0  0  0
  4  3  1  0  0  0  0
  5  4  1  0  0  0  0
  6  5  1  0  0  0  0
  6  7  2  0  0  0  0
  7  8  1  0  0  0  0
  8  9  1  0  0  0  0
  9 13  1  0  0  0  0
  9  1  2  0  0  0  0
 11  5  1  0  0  0  0
 12  6  1  0  0  0  0
 14 20  1  0  0  0  0
 15 21  1  0  0  0  0
 15 14  2  0  0  0  0
 16 15  1  0  0  0  0
 17 16  2  0  0  0  0
 17 18  1  0  0  0  0
 18 19  2  0  0  0  0
 19 14  1  0  0  0  0
 22 16  1  0  0  0  0
 23  3  1  0  0  0  0
 23 26  1  0  0  0  0
 23 25  1  0  0  0  0
 24 23  1  0  0  0  0
M  END
>  <minimizedAffinity>
-5.15692043

$$$$

 OpenBabel03252509123D

 26 28  0  0  0  0  0  0  0  0999 V2000
   40.4650   30.2280   41.8870 C   0  0  0  0  0  0  0  0  0  0  0  0
   39.1110   30.2500   41.5510 C   0  0  0  0  0  0  0  0  0  0  0  0
   38.5200   31.2720   40.8200 C   0  0  0  0  0  0  0  0  0  0  0  0
   39.3210   32.3400   40.3950 C   0  0  0  0  0  0  0  0  0  0  0  0
   39.1330   33.4820   39.7050 N   0  0  0  0  0  0  0  0  0  0  0  0
   40.3030   34.1530   39.6070 C   0  0  0  0  0  0  0  0  0  0  0  0
   41.2190   33.4060   40.2480 N   0  0  0  0  0  0  0  0  0  0  0  0
   40.6690   32.2950   40.7440 C   0  0  0  0  0  0  0  0  0  0  0  0
   41.2730   31.2810   41.4730 C   0  0  0  0  0  0  0  0  0  0  0  0
   40.8740   29.4160   42.4540 H   0  0  0  0  0  0  0  0  0  0  0  0
   38.2830   33.8520   39.2950 H   0  0  0  0  0  0  0  0  0  0  0  0
   40.4760   35.1080   39.1080 H   0  0  0  0  0  0  0  0  0  0  0  0
   42.3270   31.3320   41.6950 H   0  0  0  0  0  0  0  0  0  0  0  0
   37.0460   28.0670   43.6690 C   0  0  0  0  0  0  0  0  0  0  0  0
   36.6630   27.0570   42.7930 C   0  0  0  0  0  0  0  0  0  0  0  0
   37.1210   27.1320   41.4750 C   0  0  0  0  0  0  0  0  0  0  0  0
   37.9160   28.1860   41.1050 N   0  0  0  0  0  0  0  0  0  0  0  0
   38.2690   29.1490   41.9740 C   0  0  0  0  0  0  0  0  0  0  0  0
   37.8260   29.0600   43.2200 N   0  0  0  0  0  0  0  0  0  0  0  0
   36.7660   28.1290   44.7010 H   0  0  0  0  0  0  0  0  0  0  0  0
   36.0430   26.2720   43.1590 H   0  0  0  0  0  0  0  0  0  0  0  0
   36.8430   26.3650   40.7710 H   0  0  0  0  0  0  0  0  0  0  0  0
   37.1060   31.3880   40.4580 C   0  0  0  0  0  0  0  0  0  0  0  0
   36.8750   30.7160   39.2810 F   0  0  0  0  0  0  0  0  0  0  0  0
   36.2020   31.0900   41.4150 F   0  0  0  0  0  0  0  0  0  0  0  0
   36.9080   32.7800   40.2270 F   0  0  0  0  0  0  0  0  0  0  0  0
  1 10  1  0  0  0  0
  2  1  1  0  0  0  0
  2 18  1  0  0  0  0
  3  2  2  0  0  0  0
  4  8  2  0  0  0  0
  4  3  1  0  0  0  0
  5  4  1  0  0  0  0
  6  5  1  0  0  0  0
  6  7  2  0  0  0  0
  7  8  1  0  0  0  0
  8  9  1  0  0  0  0
  9 13  1  0  0  0  0
  9  1  2  0  0  0  0
 11  5  1  0  0  0  0
 12  6  1  0  0  0  0
 14 20  1  0  0  0  0
 15 21  1  0  0  0  0
 15 14  2  0  0  0  0
 16 15  1  0  0  0  0
 17 16  2  0  0  0  0
 17 18  1  0  0  0  0
 18 19  2  0  0  0  0
 19 14  1  0  0  0  0
 22 16  1  0  0  0  0
 23  3  1  0  0  0  0
 23 25  1  0  0  0  0
 24 23  1  0  0  0  0
 26 23  1  0  0  0  0
M  END
>  <minimizedAffinity>
-5.14568377

$$$$

 OpenBabel03252509123D

 26 28  0  0  0  0  0  0  0  0999 V2000
   40.2720   29.7440   42.1900 C   0  0  0  0  0  0  0  0  0  0  0  0
   39.3290   30.4230   41.4200 C   0  0  0  0  0  0  0  0  0  0  0  0
   37.9780   30.1000   41.4020 C   0  0  0  0  0  0  0  0  0  0  0  0
   37.5350   29.0350   42.1990 C   0  0  0  0  0  0  0  0  0  0  0  0
   36.3580   28.4270   42.4410 N   0  0  0  0  0  0  0  0  0  0  0  0
   36.5400   27.4130   43.3180 C   0  0  0  0  0  0  0  0  0  0  0  0
   37.8520   27.4050   43.6140 N   0  0  0  0  0  0  0  0  0  0  0  0
   38.4970   28.3730   42.9570 C   0  0  0  0  0  0  0  0  0  0  0  0
   39.8490   28.6840   42.9860 C   0  0  0  0  0  0  0  0  0  0  0  0
   41.3040   30.0320   42.1690 H   0  0  0  0  0  0  0  0  0  0  0  0
   35.4380   28.6330   42.0650 H   0  0  0  0  0  0  0  0  0  0  0  0
   35.7800   26.7360   43.7110 H   0  0  0  0  0  0  0  0  0  0  0  0
   40.5190   28.1140   43.6070 H   0  0  0  0  0  0  0  0  0  0  0  0
   40.6700   32.3230   38.5720 C   0  0  0  0  0  0  0  0  0  0  0  0
   40.6060   33.6380   39.0190 C   0  0  0  0  0  0  0  0  0  0  0  0
   40.1000   33.8650   40.3020 C   0  0  0  0  0  0  0  0  0  0  0  0
   39.6940   32.7940   41.0560 N   0  0  0  0  0  0  0  0  0  0  0  0
   39.7670   31.5320   40.5980 C   0  0  0  0  0  0  0  0  0  0  0  0
   40.2490   31.3380   39.3790 N   0  0  0  0  0  0  0  0  0  0  0  0
   41.0340   32.0130   37.6140 H   0  0  0  0  0  0  0  0  0  0  0  0
   40.9420   34.4140   38.3720 H   0  0  0  0  0  0  0  0  0  0  0  0
   40.0380   34.8720   40.6790 H   0  0  0  0  0  0  0  0  0  0  0  0
   36.9330   30.7370   40.5990 C   0  0  0  0  0  0  0  0  0  0  0  0
   35.9390   31.2080   41.4240 F   0  0  0  0  0  0  0  0  0  0  0  0
   37.3320   31.6490   39.6880 F   0  0  0  0  0  0  0  0  0  0  0  0
   36.3960   29.6810   39.8070 F   0  0  0  0  0  0  0  0  0  0  0  0
  1  9  1  0  0  0  0
  2  1  2  0  0  0  0
  3  2  1  0  0  0  0
  3  4  2  0  0  0  0
  4  5  1  0  0  0  0
  4  8  1  0  0  0  0
  5  6  1  0  0  0  0
  6  7  2  0  0  0  0
  6 12  1  0  0  0  0
  8  9  2  0  0  0  0
  8  7  1  0  0  0  0
  9 13  1  0  0  0  0
 10  1  1  0  0  0  0
 11  5  1  0  0  0  0
 14 15  2  0  0  0  0
 14 19  1  0  0  0  0
 15 16  1  0  0  0  0
 16 22  1  0  0  0  0
 16 17  2  0  0  0  0
 18 17  1  0  0  0  0
 18  2  1  0  0  0  0
 19 18  2  0  0  0  0
 20 14  1  0  0  0  0
 21 15  1  0  0  0  0
 23  3  1  0  0  0  0
 23 24  1  0  0  0  0
 25 23  1  0  0  0  0
 26 23  1  0  0  0  0
M  END
>  <minimizedAffinity>
-5.1119523

$$$$

 OpenBabel03252509123D

 26 28  0  0  0  0  0  0  0  0999 V2000
   37.0630   27.2090   38.6550 C   0  0  0  0  0  0  0  0  0  0  0  0
   37.0690   26.6240   39.9220 C   0  0  0  0  0  0  0  0  0  0  0  0
   36.8620   27.3380   41.0950 C   0  0  0  0  0  0  0  0  0  0  0  0
   36.6370   28.7180   41.0080 C   0  0  0  0  0  0  0  0  0  0  0  0
   36.4160   29.7230   41.8770 N   0  0  0  0  0  0  0  0  0  0  0  0
   36.2780   30.8880   41.2010 C   0  0  0  0  0  0  0  0  0  0  0  0
   36.4160   30.5840   39.8990 N   0  0  0  0  0  0  0  0  0  0  0  0
   36.6370   29.2770   39.7320 C   0  0  0  0  0  0  0  0  0  0  0  0
   36.8400   28.5780   38.5510 C   0  0  0  0  0  0  0  0  0  0  0  0
   37.2270   26.6150   37.7790 H   0  0  0  0  0  0  0  0  0  0  0  0
   36.3520   29.6970   42.8880 H   0  0  0  0  0  0  0  0  0  0  0  0
   36.0890   31.8760   41.6220 H   0  0  0  0  0  0  0  0  0  0  0  0
   36.8210   29.0980   37.6080 H   0  0  0  0  0  0  0  0  0  0  0  0
   36.4510   23.0000   39.9280 C   0  0  0  0  0  0  0  0  0  0  0  0
   37.7010   22.4730   40.2340 C   0  0  0  0  0  0  0  0  0  0  0  0
   38.7530   23.3710   40.4370 C   0  0  0  0  0  0  0  0  0  0  0  0
   38.5100   24.7160   40.3280 N   0  0  0  0  0  0  0  0  0  0  0  0
   37.2910   25.1970   40.0300 C   0  0  0  0  0  0  0  0  0  0  0  0
   36.3060   24.3300   39.8420 N   0  0  0  0  0  0  0  0  0  0  0  0
   35.5650   22.4260   39.7500 H   0  0  0  0  0  0  0  0  0  0  0  0
   37.8070   21.4160   40.3010 H   0  0  0  0  0  0  0  0  0  0  0  0
   39.7340   22.9960   40.6760 H   0  0  0  0  0  0  0  0  0  0  0  0
   36.8880   26.8090   42.4600 C   0  0  0  0  0  0  0  0  0  0  0  0
   36.0610   27.5610   43.2620 F   0  0  0  0  0  0  0  0  0  0  0  0
   36.6910   25.4820   42.6070 F   0  0  0  0  0  0  0  0  0  0  0  0
   38.2310   27.0020   42.8940 F   0  0  0  0  0  0  0  0  0  0  0  0
  1  2  1  0  0  0  0
  2 18  1  0  0  0  0
  2  3  2  0  0  0  0
  3 23  1  0  0  0  0
  4  3  1  0  0  0  0
  4  5  1  0  0  0  0
  5 11  1  0  0  0  0
  6 12  1  0  0  0  0
  6  5  1  0  0  0  0
  7  6  2  0  0  0  0
  8  7  1  0  0  0  0
  8  4  2  0  0  0  0
  9  1  2  0  0  0  0
  9  8  1  0  0  0  0
 10  1  1  0  0  0  0
 13  9  1  0  0  0  0
 14 15  1  0  0  0  0
 15 21  1  0  0  0  0
 15 16  2  0  0  0  0
 16 22  1  0  0  0  0
 17 16  1  0  0  0  0
 18 17  2  0  0  0  0
 19 14  2  0  0  0  0
 19 18  1  0  0  0  0
 20 14  1  0  0  0  0
 23 25  1  0  0  0  0
 23 26  1  0  0  0  0
 23 24  1  0  0  0  0
M  END
>  <minimizedAffinity>
-5.05381918

$$$$

 OpenBabel03252509123D

 26 28  0  0  0  0  0  0  0  0999 V2000
   36.9470   30.2800   36.6830 C   0  0  0  0  0  0  0  0  0  0  0  0
   36.5930   30.2260   38.0310 C   0  0  0  0  0  0  0  0  0  0  0  0
   35.5740   29.4210   38.5240 C   0  0  0  0  0  0  0  0  0  0  0  0
   34.8600   28.6200   37.6230 C   0  0  0  0  0  0  0  0  0  0  0  0
   33.8370   27.7470   37.6990 N   0  0  0  0  0  0  0  0  0  0  0  0
   33.5510   27.2700   36.4660 C   0  0  0  0  0  0  0  0  0  0  0  0
   34.4170   27.8630   35.6250 N   0  0  0  0  0  0  0  0  0  0  0  0
   35.2320   28.6920   36.2830 C   0  0  0  0  0  0  0  0  0  0  0  0
   36.2470   29.4900   35.7760 C   0  0  0  0  0  0  0  0  0  0  0  0
   37.7410   30.9170   36.3510 H   0  0  0  0  0  0  0  0  0  0  0  0
   33.3090   27.4440   38.5110 H   0  0  0  0  0  0  0  0  0  0  0  0
   32.7770   26.5490   36.2000 H   0  0  0  0  0  0  0  0  0  0  0  0
   36.4650   29.4790   34.7210 H   0  0  0  0  0  0  0  0  0  0  0  0
   37.7020   33.1340   39.9880 C   0  0  0  0  0  0  0  0  0  0  0  0
   38.7170   32.6060   40.7800 C   0  0  0  0  0  0  0  0  0  0  0  0
   39.0150   31.2490   40.6340 C   0  0  0  0  0  0  0  0  0  0  0  0
   38.3030   30.5040   39.7290 N   0  0  0  0  0  0  0  0  0  0  0  0
   37.3260   31.0410   38.9780 C   0  0  0  0  0  0  0  0  0  0  0  0
   37.0590   32.3300   39.1290 N   0  0  0  0  0  0  0  0  0  0  0  0
   37.3760   34.1540   40.0000 H   0  0  0  0  0  0  0  0  0  0  0  0
   39.2220   33.2520   41.4590 H   0  0  0  0  0  0  0  0  0  0  0  0
   39.7950   30.8090   41.2320 H   0  0  0  0  0  0  0  0  0  0  0  0
   35.1180   29.3340   39.9130 C   0  0  0  0  0  0  0  0  0  0  0  0
   35.5760   28.1650   40.4750 F   0  0  0  0  0  0  0  0  0  0  0  0
   35.3350   30.4100   40.6970 F   0  0  0  0  0  0  0  0  0  0  0  0
   33.6990   29.2620   39.8200 F   0  0  0  0  0  0  0  0  0  0  0  0
  1  2  1  0  0  0  0
  2  3  2  0  0  0  0
  2 18  1  0  0  0  0
  3 23  1  0  0  0  0
  4  5  1  0  0  0  0
  4  3  1  0  0  0  0
  5 11  1  0  0  0  0
  6  5  1  0  0  0  0
  7  8  1  0  0  0  0
  7  6  2  0  0  0  0
  8  4  2  0  0  0  0
  9  8  1  0  0  0  0
  9  1  2  0  0  0  0
 10  1  1  0  0  0  0
 12  6  1  0  0  0  0
 13  9  1  0  0  0  0
 14 20  1  0  0  0  0
 14 15  1  0  0  0  0
 15 21  1  0  0  0  0
 16 15  2  0  0  0  0
 16 22  1  0  0  0  0
 17 16  1  0  0  0  0
 18 19  1  0  0  0  0
 18 17  2  0  0  0  0
 19 14  2  0  0  0  0
 23 24  1  0  0  0  0
 23 25  1  0  0  0  0
 26 23  1  0  0  0  0
M  END
>  <minimizedAffinity>
-4.8998394

$$$$

 OpenBabel03252509123D

 26 28  0  0  0  0  0  0  0  0999 V2000
   37.1310   26.7670   40.2570 C   0  0  0  0  0  0  0  0  0  0  0  0
   37.7700   27.8110   40.9250 C   0  0  0  0  0  0  0  0  0  0  0  0
   38.6860   27.6180   41.9510 C   0  0  0  0  0  0  0  0  0  0  0  0
   38.9860   26.3050   42.3400 C   0  0  0  0  0  0  0  0  0  0  0  0
   39.7770   25.7220   43.2620 N   0  0  0  0  0  0  0  0  0  0  0  0
   39.6490   24.3770   43.1870 C   0  0  0  0  0  0  0  0  0  0  0  0
   38.7650   24.1390   42.2020 N   0  0  0  0  0  0  0  0  0  0  0  0
   38.3340   25.2810   41.6580 C   0  0  0  0  0  0  0  0  0  0  0  0
   37.4180   25.4580   40.6320 C   0  0  0  0  0  0  0  0  0  0  0  0
   36.4320   26.9680   39.4710 H   0  0  0  0  0  0  0  0  0  0  0  0
   40.3960   26.1500   43.9410 H   0  0  0  0  0  0  0  0  0  0  0  0
   40.1580   23.6310   43.7980 H   0  0  0  0  0  0  0  0  0  0  0  0
   36.9640   24.6020   40.1610 H   0  0  0  0  0  0  0  0  0  0  0  0
   37.9000   31.0100   39.1180 C   0  0  0  0  0  0  0  0  0  0  0  0
   36.9330   31.7710   39.7640 C   0  0  0  0  0  0  0  0  0  0  0  0
   36.2390   31.1780   40.8230 C   0  0  0  0  0  0  0  0  0  0  0  0
   36.5380   29.8860   41.1730 N   0  0  0  0  0  0  0  0  0  0  0  0
   37.4790   29.1740   40.5290 C   0  0  0  0  0  0  0  0  0  0  0  0
   38.1260   29.7540   39.5290 N   0  0  0  0  0  0  0  0  0  0  0  0
   38.5010   31.3430   38.2960 H   0  0  0  0  0  0  0  0  0  0  0  0
   36.7600   32.7680   39.4310 H   0  0  0  0  0  0  0  0  0  0  0  0
   35.4840   31.7400   41.3450 H   0  0  0  0  0  0  0  0  0  0  0  0
   39.3710   28.6550   42.7240 C   0  0  0  0  0  0  0  0  0  0  0  0
   40.4310   28.1010   43.4020 F   0  0  0  0  0  0  0  0  0  0  0  0
   39.7060   29.7870   42.0680 F   0  0  0  0  0  0  0  0  0  0  0  0
   38.4050   29.0900   43.6760 F   0  0  0  0  0  0  0  0  0  0  0  0
  1  9  2  0  0  0  0
  1  2  1  0  0  0  0
  2  3  2  0  0  0  0
  3  4  1  0  0  0  0
  3 23  1  0  0  0  0
  4  5  1  0  0  0  0
  5 11  1  0  0  0  0
  6  5  1  0  0  0  0
  6 12  1  0  0  0  0
  7  6  2  0  0  0  0
  8  7  1  0  0  0  0
  8  4  2  0  0  0  0
  9  8  1  0  0  0  0
 10  1  1  0  0  0  0
 13  9  1  0  0  0  0
 14 19  2  0  0  0  0
 14 15  1  0  0  0  0
 15 16  2  0  0  0  0
 16 17  1  0  0  0  0
 16 22  1  0  0  0  0
 18  2  1  0  0  0  0
 18 17  2  0  0  0  0
 19 18  1  0  0  0  0
 20 14  1  0  0  0  0
 21 15  1  0  0  0  0
 23 24  1  0  0  0  0
 23 26  1  0  0  0  0
 25 23  1  0  0  0  0
M  END
>  <minimizedAffinity>
-4.89776993

$$$$

 OpenBabel03252509123D

 26 28  0  0  0  0  0  0  0  0999 V2000
   36.9860   26.0810   39.6580 C   0  0  0  0  0  0  0  0  0  0  0  0
   36.3390   27.2750   39.3380 C   0  0  0  0  0  0  0  0  0  0  0  0
   36.1400   28.3050   40.2480 C   0  0  0  0  0  0  0  0  0  0  0  0
   36.6120   28.1430   41.5570 C   0  0  0  0  0  0  0  0  0  0  0  0
   36.6060   28.8720   42.6900 N   0  0  0  0  0  0  0  0  0  0  0  0
   37.2160   28.1810   43.6800 C   0  0  0  0  0  0  0  0  0  0  0  0
   37.6000   27.0110   43.1390 N   0  0  0  0  0  0  0  0  0  0  0  0
   37.2540   26.9420   41.8510 C   0  0  0  0  0  0  0  0  0  0  0  0
   37.4610   25.9040   40.9540 C   0  0  0  0  0  0  0  0  0  0  0  0
   37.1150   25.3150   38.9210 H   0  0  0  0  0  0  0  0  0  0  0  0
   36.2250   29.7960   42.8570 H   0  0  0  0  0  0  0  0  0  0  0  0
   37.3710   28.5020   44.7110 H   0  0  0  0  0  0  0  0  0  0  0  0
   37.9700   25.0100   41.2730 H   0  0  0  0  0  0  0  0  0  0  0  0
   36.2560   28.1020   35.7570 C   0  0  0  0  0  0  0  0  0  0  0  0
   34.9380   27.8290   35.4060 C   0  0  0  0  0  0  0  0  0  0  0  0
   34.0830   27.3610   36.4080 C   0  0  0  0  0  0  0  0  0  0  0  0
   34.5730   27.1920   37.6770 N   0  0  0  0  0  0  0  0  0  0  0  0
   35.8520   27.4640   37.9870 C   0  0  0  0  0  0  0  0  0  0  0  0
   36.6480   27.9080   37.0240 N   0  0  0  0  0  0  0  0  0  0  0  0
   37.0110   28.4640   35.0900 H   0  0  0  0  0  0  0  0  0  0  0  0
   34.6350   27.9870   34.3980 H   0  0  0  0  0  0  0  0  0  0  0  0
   33.0560   27.1400   36.1690 H   0  0  0  0  0  0  0  0  0  0  0  0
   35.4420   29.5690   40.0030 C   0  0  0  0  0  0  0  0  0  0  0  0
   35.7530   30.4670   40.9970 F   0  0  0  0  0  0  0  0  0  0  0  0
   35.5510   30.1000   38.7670 F   0  0  0  0  0  0  0  0  0  0  0  0
   34.0590   29.2420   40.1100 F   0  0  0  0  0  0  0  0  0  0  0  0
  1  9  1  0  0  0  0
  2  1  2  0  0  0  0
  2  3  1  0  0  0  0
  3  4  2  0  0  0  0
  4  8  1  0  0  0  0
  4  5  1  0  0  0  0
  5 11  1  0  0  0  0
  5  6  1  0  0  0  0
  6 12  1  0  0  0  0
  7  6  2  0  0  0  0
  8  7  1  0  0  0  0
  9 13  1  0  0  0  0
  9  8  2  0  0  0  0
 10  1  1  0  0  0  0
 14 19  1  0  0  0  0
 15 14  2  0  0  0  0
 15 16  1  0  0  0  0
 16 17  2  0  0  0  0
 17 18  1  0  0  0  0
 18  2  1  0  0  0  0
 19 18  2  0  0  0  0
 20 14  1  0  0  0  0
 21 15  1  0  0  0  0
 22 16  1  0  0  0  0
 23 26  1  0  0  0  0
 23  3  1  0  0  0  0
 23 24  1  0  0  0  0
 25 23  1  0  0  0  0
M  END
>  <minimizedAffinity>
-4.86058521

$$$$

 OpenBabel03252509123D

 26 28  0  0  0  0  0  0  0  0999 V2000
   37.7940   27.8250   39.0880 C   0  0  0  0  0  0  0  0  0  0  0  0
   37.7630   28.3780   40.3680 C   0  0  0  0  0  0  0  0  0  0  0  0
   37.5070   27.6390   41.5150 C   0  0  0  0  0  0  0  0  0  0  0  0
   37.2650   26.2650   41.3850 C   0  0  0  0  0  0  0  0  0  0  0  0
   36.9770   25.2460   42.2180 N   0  0  0  0  0  0  0  0  0  0  0  0
   36.8310   24.1040   41.5070 C   0  0  0  0  0  0  0  0  0  0  0  0
   37.0340   24.4350   40.2200 N   0  0  0  0  0  0  0  0  0  0  0  0
   37.3010   25.7380   40.0960 C   0  0  0  0  0  0  0  0  0  0  0  0
   37.5560   26.4630   38.9420 C   0  0  0  0  0  0  0  0  0  0  0  0
   37.9960   28.4380   38.2330 H   0  0  0  0  0  0  0  0  0  0  0  0
   36.8680   25.2500   43.2260 H   0  0  0  0  0  0  0  0  0  0  0  0
   36.5980   23.1110   41.8940 H   0  0  0  0  0  0  0  0  0  0  0  0
   37.5640   25.9660   37.9850 H   0  0  0  0  0  0  0  0  0  0  0  0
   39.5140   31.5420   41.0310 C   0  0  0  0  0  0  0  0  0  0  0  0
   38.5240   32.4950   40.8200 C   0  0  0  0  0  0  0  0  0  0  0  0
   37.2540   32.0420   40.4500 C   0  0  0  0  0  0  0  0  0  0  0  0
   37.0420   30.6940   40.3120 N   0  0  0  0  0  0  0  0  0  0  0  0
   38.0200   29.7950   40.5220 C   0  0  0  0  0  0  0  0  0  0  0  0
   39.2170   30.2450   40.8730 N   0  0  0  0  0  0  0  0  0  0  0  0
   40.5240   31.7540   41.3170 H   0  0  0  0  0  0  0  0  0  0  0  0
   38.7690   33.5230   40.9480 H   0  0  0  0  0  0  0  0  0  0  0  0
   36.4640   32.7540   40.2790 H   0  0  0  0  0  0  0  0  0  0  0  0
   37.4210   28.1460   42.8860 C   0  0  0  0  0  0  0  0  0  0  0  0
   38.4820   27.6710   43.6210 F   0  0  0  0  0  0  0  0  0  0  0  0
   37.2360   29.4750   43.0370 F   0  0  0  0  0  0  0  0  0  0  0  0
   36.2230   27.5770   43.4050 F   0  0  0  0  0  0  0  0  0  0  0  0
  1  2  1  0  0  0  0
  2 18  1  0  0  0  0
  2  3  2  0  0  0  0
  3 23  1  0  0  0  0
  4  3  1  0  0  0  0
  4  5  1  0  0  0  0
  5 11  1  0  0  0  0
  6 12  1  0  0  0  0
  6  5  1  0  0  0  0
  7  6  2  0  0  0  0
  8  7  1  0  0  0  0
  8  4  2  0  0  0  0
  9  1  2  0  0  0  0
  9  8  1  0  0  0  0
 10  1  1  0  0  0  0
 13  9  1  0  0  0  0
 14 20  1  0  0  0  0
 15 21  1  0  0  0  0
 15 14  2  0  0  0  0
 16 15  1  0  0  0  0
 17 16  2  0  0  0  0
 17 18  1  0  0  0  0
 18 19  2  0  0  0  0
 19 14  1  0  0  0  0
 22 16  1  0  0  0  0
 23 25  1  0  0  0  0
 23 26  1  0  0  0  0
 23 24  1  0  0  0  0
M  END
>  <minimizedAffinity>
-4.80786085

$$$$
