
 OpenBabel03242522283D

 33 35  0  0  0  0  0  0  0  0999 V2000
   38.9960   28.4580   39.8690 F   0  0  0  0  0  0  0  0  0  0  0  0
   37.7360   28.7210   39.3670 C   0  0  0  0  0  0  0  0  0  0  0  0
   37.4780   29.9020   38.7540 C   0  0  0  0  0  0  0  0  0  0  0  0
   36.2250   30.0170   38.1730 C   0  0  0  0  0  0  0  0  0  0  0  0
   35.2910   28.9980   38.2030 C   0  0  0  0  0  0  0  0  0  0  0  0
   35.6690   27.8490   38.8520 C   0  0  0  0  0  0  0  0  0  0  0  0
   36.8690   27.6750   39.4460 C   0  0  0  0  0  0  0  0  0  0  0  0
   36.1530   31.0310   37.7180 H   0  0  0  0  0  0  0  0  0  0  0  0
   34.4390   29.3780   37.6770 H   0  0  0  0  0  0  0  0  0  0  0  0
   34.7850   27.3470   38.6050 H   0  0  0  0  0  0  0  0  0  0  0  0
   37.0880   26.4260   40.1160 C   0  0  0  0  0  0  0  0  0  0  0  0
   37.2880   25.2870   39.3310 C   0  0  0  0  0  0  0  0  0  0  0  0
   37.4220   24.0940   39.9990 C   0  0  0  0  0  0  0  0  0  0  0  0
   37.3620   24.0240   41.4040 C   0  0  0  0  0  0  0  0  0  0  0  0
   37.1640   25.2010   42.1320 C   0  0  0  0  0  0  0  0  0  0  0  0
   37.0260   26.4210   41.5000 C   0  0  0  0  0  0  0  0  0  0  0  0
   37.3450   25.1440   38.2910 H   0  0  0  0  0  0  0  0  0  0  0  0
   37.5830   23.1320   39.4900 H   0  0  0  0  0  0  0  0  0  0  0  0
   37.4750   23.0300   41.8680 H   0  0  0  0  0  0  0  0  0  0  0  0
   37.1400   24.9730   43.1820 H   0  0  0  0  0  0  0  0  0  0  0  0
   36.8380   27.4650   42.5100 C   0  0  0  0  0  0  0  0  0  0  0  0
   36.1300   26.9260   43.6540 F   0  0  0  0  0  0  0  0  0  0  0  0
   35.8170   28.3870   42.1780 F   0  0  0  0  0  0  0  0  0  0  0  0
   37.9200   27.9640   43.1370 F   0  0  0  0  0  0  0  0  0  0  0  0
   39.6900   32.8490   39.5600 C   0  0  0  0  0  0  0  0  0  0  0  0
   38.6620   31.8940   39.6660 C   0  0  0  0  0  0  0  0  0  0  0  0
   38.5190   30.9140   38.7190 C   0  0  0  0  0  0  0  0  0  0  0  0
   39.4200   30.9560   37.7260 N   0  0  0  0  0  0  0  0  0  0  0  0
   40.3970   31.8510   37.6110 C   0  0  0  0  0  0  0  0  0  0  0  0
   40.5300   32.8040   38.5380 N   0  0  0  0  0  0  0  0  0  0  0  0
   39.7170   33.5880   40.3680 H   0  0  0  0  0  0  0  0  0  0  0  0
   37.9810   31.9360   40.5030 H   0  0  0  0  0  0  0  0  0  0  0  0
   41.0900   31.8290   36.7850 H   0  0  0  0  0  0  0  0  0  0  0  0
  2  7  1  0  0  0  0
  2  1  1  0  0  0  0
  3  2  2  0  0  0  0
  4  5  2  0  0  0  0
  4  3  1  0  0  0  0
  5  6  1  0  0  0  0
  6  7  2  0  0  0  0
  7 11  1  0  0  0  0
  8  4  1  0  0  0  0
  9  5  1  0  0  0  0
 10  6  1  0  0  0  0
 11 16  1  0  0  0  0
 12 13  1  0  0  0  0
 12 11  2  0  0  0  0
 13 14  2  0  0  0  0
 14 19  1  0  0  0  0
 14 15  1  0  0  0  0
 15 20  1  0  0  0  0
 16 15  2  0  0  0  0
 16 21  1  0  0  0  0
 17 12  1  0  0  0  0
 18 13  1  0  0  0  0
 21 24  1  0  0  0  0
 21 22  1  0  0  0  0
 23 21  1  0  0  0  0
 25 26  1  0  0  0  0
 25 31  1  0  0  0  0
 26 32  1  0  0  0  0
 27  3  1  0  0  0  0
 27 26  2  0  0  0  0
 28 27  1  0  0  0  0
 29 28  2  0  0  0  0
 29 30  1  0  0  0  0
 30 25  2  0  0  0  0
 33 29  1  0  0  0  0
M  END
>  <minimizedAffinity>
-5.93291473

$$$$

 OpenBabel03242522283D

 33 35  0  0  0  0  0  0  0  0999 V2000
   39.4850   30.3000   39.7190 F   0  0  0  0  0  0  0  0  0  0  0  0
   38.9120   31.5480   39.8630 C   0  0  0  0  0  0  0  0  0  0  0  0
   39.5470   32.5140   40.5690 C   0  0  0  0  0  0  0  0  0  0  0  0
   38.9520   33.7660   40.5460 C   0  0  0  0  0  0  0  0  0  0  0  0
   37.7890   34.0270   39.8460 C   0  0  0  0  0  0  0  0  0  0  0  0
   37.2380   32.9680   39.1680 C   0  0  0  0  0  0  0  0  0  0  0  0
   37.7620   31.7230   39.1560 C   0  0  0  0  0  0  0  0  0  0  0  0
   39.5740   34.4500   41.1670 H   0  0  0  0  0  0  0  0  0  0  0  0
   37.5820   35.0650   40.0150 H   0  0  0  0  0  0  0  0  0  0  0  0
   36.4790   33.5530   38.7490 H   0  0  0  0  0  0  0  0  0  0  0  0
   37.0380   30.7210   38.4300 C   0  0  0  0  0  0  0  0  0  0  0  0
   37.2360   30.6420   37.0480 C   0  0  0  0  0  0  0  0  0  0  0  0
   36.4760   29.7220   36.3680 C   0  0  0  0  0  0  0  0  0  0  0  0
   35.5450   28.8990   37.0310 C   0  0  0  0  0  0  0  0  0  0  0  0
   35.3980   29.0230   38.4160 C   0  0  0  0  0  0  0  0  0  0  0  0
   36.1440   29.9340   39.1380 C   0  0  0  0  0  0  0  0  0  0  0  0
   37.8600   31.1730   36.3900 H   0  0  0  0  0  0  0  0  0  0  0  0
   36.5420   29.5690   35.2810 H   0  0  0  0  0  0  0  0  0  0  0  0
   34.9690   28.1860   36.4170 H   0  0  0  0  0  0  0  0  0  0  0  0
   34.6520   28.3300   38.7610 H   0  0  0  0  0  0  0  0  0  0  0  0
   35.7810   29.8360   40.5530 C   0  0  0  0  0  0  0  0  0  0  0  0
   36.8000   29.1050   41.2770 F   0  0  0  0  0  0  0  0  0  0  0  0
   34.7670   28.8810   40.8050 F   0  0  0  0  0  0  0  0  0  0  0  0
   35.7480   30.9600   41.2940 F   0  0  0  0  0  0  0  0  0  0  0  0
   43.1810   32.2870   41.5550 C   0  0  0  0  0  0  0  0  0  0  0  0
   42.0170   32.6580   40.8570 C   0  0  0  0  0  0  0  0  0  0  0  0
   40.7900   32.1860   41.2440 C   0  0  0  0  0  0  0  0  0  0  0  0
   40.8130   31.3710   42.3090 N   0  0  0  0  0  0  0  0  0  0  0  0
   41.9030   31.0100   42.9800 C   0  0  0  0  0  0  0  0  0  0  0  0
   43.0950   31.4750   42.5950 N   0  0  0  0  0  0  0  0  0  0  0  0
   44.1090   32.7200   41.1640 H   0  0  0  0  0  0  0  0  0  0  0  0
   42.0930   33.3220   40.0080 H   0  0  0  0  0  0  0  0  0  0  0  0
   41.8530   30.3500   43.8300 H   0  0  0  0  0  0  0  0  0  0  0  0
  1  2  1  0  0  0  0
  2  3  1  0  0  0  0
  3 27  1  0  0  0  0
  4  3  2  0  0  0  0
  4  8  1  0  0  0  0
  5  9  1  0  0  0  0
  5  4  1  0  0  0  0
  6  5  2  0  0  0  0
  7  6  1  0  0  0  0
  7  2  2  0  0  0  0
 10  6  1  0  0  0  0
 11 16  1  0  0  0  0
 11  7  1  0  0  0  0
 12 11  2  0  0  0  0
 13 14  2  0  0  0  0
 13 12  1  0  0  0  0
 14 15  1  0  0  0  0
 15 20  1  0  0  0  0
 15 16  2  0  0  0  0
 16 21  1  0  0  0  0
 17 12  1  0  0  0  0
 18 13  1  0  0  0  0
 19 14  1  0  0  0  0
 21 23  1  0  0  0  0
 21 22  1  0  0  0  0
 21 24  1  0  0  0  0
 25 30  1  0  0  0  0
 26 27  1  0  0  0  0
 26 25  2  0  0  0  0
 27 28  2  0  0  0  0
 28 29  1  0  0  0  0
 29 33  1  0  0  0  0
 30 29  2  0  0  0  0
 31 25  1  0  0  0  0
 32 26  1  0  0  0  0
M  END
>  <minimizedAffinity>
-5.80566931

$$$$

 OpenBabel03242522283D

 33 35  0  0  0  0  0  0  0  0999 V2000
   39.1170   28.5040   39.3810 F   0  0  0  0  0  0  0  0  0  0  0  0
   38.0460   29.2160   39.8870 C   0  0  0  0  0  0  0  0  0  0  0  0
   38.0110   30.5660   39.7770 C   0  0  0  0  0  0  0  0  0  0  0  0
   36.8380   31.1730   40.1990 C   0  0  0  0  0  0  0  0  0  0  0  0
   35.7640   30.4580   40.6970 C   0  0  0  0  0  0  0  0  0  0  0  0
   35.9190   29.0960   40.7580 C   0  0  0  0  0  0  0  0  0  0  0  0
   37.0370   28.4430   40.3720 C   0  0  0  0  0  0  0  0  0  0  0  0
   36.9540   32.2720   40.0580 H   0  0  0  0  0  0  0  0  0  0  0  0
   35.0190   31.1910   40.9310 H   0  0  0  0  0  0  0  0  0  0  0  0
   34.9410   28.9390   41.0930 H   0  0  0  0  0  0  0  0  0  0  0  0
   37.0490   27.0190   40.5410 C   0  0  0  0  0  0  0  0  0  0  0  0
   36.5470   26.2320   39.5010 C   0  0  0  0  0  0  0  0  0  0  0  0
   36.5040   24.8760   39.7200 C   0  0  0  0  0  0  0  0  0  0  0  0
   36.9440   24.3090   40.9320 C   0  0  0  0  0  0  0  0  0  0  0  0
   37.4400   25.1520   41.9310 C   0  0  0  0  0  0  0  0  0  0  0  0
   37.5030   26.5200   41.7510 C   0  0  0  0  0  0  0  0  0  0  0  0
   36.1650   26.4710   38.5510 H   0  0  0  0  0  0  0  0  0  0  0  0
   36.1300   24.1560   38.9770 H   0  0  0  0  0  0  0  0  0  0  0  0
   36.8760   23.2130   41.0350 H   0  0  0  0  0  0  0  0  0  0  0  0
   37.7280   24.5650   42.7840 H   0  0  0  0  0  0  0  0  0  0  0  0
   38.0650   27.1360   42.9550 C   0  0  0  0  0  0  0  0  0  0  0  0
   39.1250   28.0550   42.5930 F   0  0  0  0  0  0  0  0  0  0  0  0
   38.9180   26.2700   43.6800 F   0  0  0  0  0  0  0  0  0  0  0  0
   37.2920   27.9660   43.6800 F   0  0  0  0  0  0  0  0  0  0  0  0
   40.4500   32.1550   37.3790 C   0  0  0  0  0  0  0  0  0  0  0  0
   39.3070   31.4920   37.8630 C   0  0  0  0  0  0  0  0  0  0  0  0
   39.1540   31.2520   39.2040 C   0  0  0  0  0  0  0  0  0  0  0  0
   40.1610   31.6960   39.9720 N   0  0  0  0  0  0  0  0  0  0  0  0
   41.2470   32.3240   39.5300 C   0  0  0  0  0  0  0  0  0  0  0  0
   41.3890   32.5530   38.2220 N   0  0  0  0  0  0  0  0  0  0  0  0
   40.4740   32.2960   36.2920 H   0  0  0  0  0  0  0  0  0  0  0  0
   38.5440   31.1700   37.1700 H   0  0  0  0  0  0  0  0  0  0  0  0
   42.0220   32.6550   40.2030 H   0  0  0  0  0  0  0  0  0  0  0  0
  1  2  1  0  0  0  0
  2  7  1  0  0  0  0
  3  2  2  0  0  0  0
  3  4  1  0  0  0  0
  4  5  2  0  0  0  0
  5  6  1  0  0  0  0
  5  9  1  0  0  0  0
  6 10  1  0  0  0  0
  7 11  1  0  0  0  0
  7  6  2  0  0  0  0
  8  4  1  0  0  0  0
 11 16  1  0  0  0  0
 12 13  1  0  0  0  0
 12 11  2  0  0  0  0
 13 14  2  0  0  0  0
 14 19  1  0  0  0  0
 14 15  1  0  0  0  0
 15 20  1  0  0  0  0
 16 15  2  0  0  0  0
 16 21  1  0  0  0  0
 17 12  1  0  0  0  0
 18 13  1  0  0  0  0
 21 24  1  0  0  0  0
 21 23  1  0  0  0  0
 22 21  1  0  0  0  0
 25 26  2  0  0  0  0
 25 30  1  0  0  0  0
 26 27  1  0  0  0  0
 27  3  1  0  0  0  0
 27 28  2  0  0  0  0
 29 28  1  0  0  0  0
 29 33  1  0  0  0  0
 30 29  2  0  0  0  0
 31 25  1  0  0  0  0
 32 26  1  0  0  0  0
M  END
>  <minimizedAffinity>
-5.80108929

$$$$

 OpenBabel03242522283D

 33 35  0  0  0  0  0  0  0  0999 V2000
   38.8520   27.8780   40.0250 F   0  0  0  0  0  0  0  0  0  0  0  0
   38.1400   27.8710   41.2090 C   0  0  0  0  0  0  0  0  0  0  0  0
   37.4470   26.7690   41.5830 C   0  0  0  0  0  0  0  0  0  0  0  0
   36.8740   26.8180   42.8440 C   0  0  0  0  0  0  0  0  0  0  0  0
   36.9990   27.9130   43.6800 C   0  0  0  0  0  0  0  0  0  0  0  0
   37.7270   28.9680   43.1900 C   0  0  0  0  0  0  0  0  0  0  0  0
   38.3030   28.9890   41.9690 C   0  0  0  0  0  0  0  0  0  0  0  0
   36.3360   25.8570   43.0120 H   0  0  0  0  0  0  0  0  0  0  0  0
   36.4600   27.6550   44.5690 H   0  0  0  0  0  0  0  0  0  0  0  0
   37.6490   29.5130   44.0800 H   0  0  0  0  0  0  0  0  0  0  0  0
   38.9950   30.1880   41.5960 C   0  0  0  0  0  0  0  0  0  0  0  0
   40.3300   30.3230   41.9860 C   0  0  0  0  0  0  0  0  0  0  0  0
   40.9460   31.5120   41.6790 C   0  0  0  0  0  0  0  0  0  0  0  0
   40.2640   32.5440   41.0040 C   0  0  0  0  0  0  0  0  0  0  0  0
   38.9290   32.3450   40.6370 C   0  0  0  0  0  0  0  0  0  0  0  0
   38.2750   31.1630   40.9250 C   0  0  0  0  0  0  0  0  0  0  0  0
   40.9870   29.6830   42.5010 H   0  0  0  0  0  0  0  0  0  0  0  0
   41.9930   31.7340   41.9350 H   0  0  0  0  0  0  0  0  0  0  0  0
   40.8230   33.4710   40.7960 H   0  0  0  0  0  0  0  0  0  0  0  0
   38.5610   33.2210   40.1380 H   0  0  0  0  0  0  0  0  0  0  0  0
   36.9020   31.2410   40.4200 C   0  0  0  0  0  0  0  0  0  0  0  0
   36.6840   30.2210   39.4150 F   0  0  0  0  0  0  0  0  0  0  0  0
   36.6960   32.3180   39.5250 F   0  0  0  0  0  0  0  0  0  0  0  0
   35.8870   30.9480   41.2540 F   0  0  0  0  0  0  0  0  0  0  0  0
   36.5200   24.4100   38.7900 C   0  0  0  0  0  0  0  0  0  0  0  0
   36.5230   25.5460   39.6200 C   0  0  0  0  0  0  0  0  0  0  0  0
   37.3910   25.6360   40.6770 C   0  0  0  0  0  0  0  0  0  0  0  0
   38.2030   24.5790   40.8290 N   0  0  0  0  0  0  0  0  0  0  0  0
   38.2130   23.4980   40.0530 C   0  0  0  0  0  0  0  0  0  0  0  0
   37.3620   23.4180   39.0260 N   0  0  0  0  0  0  0  0  0  0  0  0
   35.7870   24.4380   37.9750 H   0  0  0  0  0  0  0  0  0  0  0  0
   35.8330   26.3530   39.4220 H   0  0  0  0  0  0  0  0  0  0  0  0
   38.8920   22.6800   40.2310 H   0  0  0  0  0  0  0  0  0  0  0  0
  1  2  1  0  0  0  0
  2  3  2  0  0  0  0
  2  7  1  0  0  0  0
  3  4  1  0  0  0  0
  4  8  1  0  0  0  0
  4  5  2  0  0  0  0
  5  9  1  0  0  0  0
  6  5  1  0  0  0  0
  6 10  1  0  0  0  0
  7  6  2  0  0  0  0
 11  7  1  0  0  0  0
 11 12  1  0  0  0  0
 12 17  1  0  0  0  0
 13 18  1  0  0  0  0
 13 12  2  0  0  0  0
 14 13  1  0  0  0  0
 15 16  1  0  0  0  0
 15 14  2  0  0  0  0
 16 11  2  0  0  0  0
 19 14  1  0  0  0  0
 20 15  1  0  0  0  0
 21 16  1  0  0  0  0
 21 24  1  0  0  0  0
 22 21  1  0  0  0  0
 23 21  1  0  0  0  0
 25 30  2  0  0  0  0
 25 26  1  0  0  0  0
 26 27  2  0  0  0  0
 27 28  1  0  0  0  0
 27  3  1  0  0  0  0
 29 33  1  0  0  0  0
 29 28  2  0  0  0  0
 30 29  1  0  0  0  0
 31 25  1  0  0  0  0
 32 26  1  0  0  0  0
M  END
>  <minimizedAffinity>
-5.69231129

$$$$

 OpenBabel03242522283D

 33 35  0  0  0  0  0  0  0  0999 V2000
   39.3510   27.7400   40.2550 F   0  0  0  0  0  0  0  0  0  0  0  0
   38.5720   27.6110   41.3880 C   0  0  0  0  0  0  0  0  0  0  0  0
   39.1440   27.3190   42.5810 C   0  0  0  0  0  0  0  0  0  0  0  0
   38.2950   27.3380   43.6760 C   0  0  0  0  0  0  0  0  0  0  0  0
   36.9500   27.6420   43.5730 C   0  0  0  0  0  0  0  0  0  0  0  0
   36.4860   27.9230   42.3120 C   0  0  0  0  0  0  0  0  0  0  0  0
   37.2570   27.9120   41.2030 C   0  0  0  0  0  0  0  0  0  0  0  0
   38.8950   27.0750   44.5770 H   0  0  0  0  0  0  0  0  0  0  0  0
   36.5670   27.5790   44.5720 H   0  0  0  0  0  0  0  0  0  0  0  0
   35.5240   28.1510   42.6510 H   0  0  0  0  0  0  0  0  0  0  0  0
   36.6060   28.1900   39.9560 C   0  0  0  0  0  0  0  0  0  0  0  0
   36.2040   27.1060   39.1710 C   0  0  0  0  0  0  0  0  0  0  0  0
   35.6490   27.4010   37.9500 C   0  0  0  0  0  0  0  0  0  0  0  0
   35.4920   28.7310   37.5120 C   0  0  0  0  0  0  0  0  0  0  0  0
   35.9110   29.7710   38.3470 C   0  0  0  0  0  0  0  0  0  0  0  0
   36.4720   29.5170   39.5840 C   0  0  0  0  0  0  0  0  0  0  0  0
   36.2530   26.0660   39.3190 H   0  0  0  0  0  0  0  0  0  0  0  0
   35.2960   26.6330   37.2450 H   0  0  0  0  0  0  0  0  0  0  0  0
   35.0410   28.8890   36.5180 H   0  0  0  0  0  0  0  0  0  0  0  0
   35.7240   30.7140   37.8660 H   0  0  0  0  0  0  0  0  0  0  0  0
   36.8050   30.7900   40.2280 C   0  0  0  0  0  0  0  0  0  0  0  0
   36.6750   31.8760   39.2780 F   0  0  0  0  0  0  0  0  0  0  0  0
   38.1960   30.9760   40.4120 F   0  0  0  0  0  0  0  0  0  0  0  0
   36.0010   31.2530   41.2030 F   0  0  0  0  0  0  0  0  0  0  0  0
   42.8840   27.6820   42.8970 C   0  0  0  0  0  0  0  0  0  0  0  0
   41.5170   28.0120   42.8790 C   0  0  0  0  0  0  0  0  0  0  0  0
   40.5700   27.0530   42.6270 C   0  0  0  0  0  0  0  0  0  0  0  0
   41.0610   25.8240   42.4100 N   0  0  0  0  0  0  0  0  0  0  0  0
   42.3500   25.4950   42.4230 C   0  0  0  0  0  0  0  0  0  0  0  0
   43.2660   26.4360   42.6690 N   0  0  0  0  0  0  0  0  0  0  0  0
   43.5580   28.5210   43.1090 H   0  0  0  0  0  0  0  0  0  0  0  0
   41.2120   29.0310   43.0660 H   0  0  0  0  0  0  0  0  0  0  0  0
   42.6780   24.4850   42.2400 H   0  0  0  0  0  0  0  0  0  0  0  0
  1  2  1  0  0  0  0
  2  3  1  0  0  0  0
  3 27  1  0  0  0  0
  3  4  2  0  0  0  0
  4  8  1  0  0  0  0
  5  4  1  0  0  0  0
  5  9  1  0  0  0  0
  6 10  1  0  0  0  0
  6  5  2  0  0  0  0
  7  2  2  0  0  0  0
  7  6  1  0  0  0  0
 11  7  1  0  0  0  0
 12 17  1  0  0  0  0
 12 11  2  0  0  0  0
 13 12  1  0  0  0  0
 14 13  2  0  0  0  0
 14 15  1  0  0  0  0
 15 16  2  0  0  0  0
 16 11  1  0  0  0  0
 16 21  1  0  0  0  0
 18 13  1  0  0  0  0
 19 14  1  0  0  0  0
 20 15  1  0  0  0  0
 21 23  1  0  0  0  0
 21 24  1  0  0  0  0
 22 21  1  0  0  0  0
 25 31  1  0  0  0  0
 26 25  1  0  0  0  0
 26 32  1  0  0  0  0
 27 26  2  0  0  0  0
 28 29  2  0  0  0  0
 28 27  1  0  0  0  0
 29 30  1  0  0  0  0
 30 25  2  0  0  0  0
 33 29  1  0  0  0  0
M  END
>  <minimizedAffinity>
-5.67511749

$$$$

 OpenBabel03242522283D

 33 35  0  0  0  0  0  0  0  0999 V2000
   38.5860   29.1540   40.4010 F   0  0  0  0  0  0  0  0  0  0  0  0
   39.6800   29.0470   41.2380 C   0  0  0  0  0  0  0  0  0  0  0  0
   40.4580   30.1270   41.4880 C   0  0  0  0  0  0  0  0  0  0  0  0
   41.4510   29.9470   42.4380 C   0  0  0  0  0  0  0  0  0  0  0  0
   41.6410   28.7490   43.1010 C   0  0  0  0  0  0  0  0  0  0  0  0
   40.7890   27.7270   42.7640 C   0  0  0  0  0  0  0  0  0  0  0  0
   39.8080   27.8330   41.8410 C   0  0  0  0  0  0  0  0  0  0  0  0
   42.0090   30.9060   42.5330 H   0  0  0  0  0  0  0  0  0  0  0  0
   42.4660   28.9180   43.7630 H   0  0  0  0  0  0  0  0  0  0  0  0
   41.1870   27.0770   43.4800 H   0  0  0  0  0  0  0  0  0  0  0  0
   39.0320   26.6560   41.5800 C   0  0  0  0  0  0  0  0  0  0  0  0
   39.6300   25.6260   40.8480 C   0  0  0  0  0  0  0  0  0  0  0  0
   38.8400   24.5420   40.5500 C   0  0  0  0  0  0  0  0  0  0  0  0
   37.4940   24.4740   40.9620 C   0  0  0  0  0  0  0  0  0  0  0  0
   36.9570   25.5360   41.6950 C   0  0  0  0  0  0  0  0  0  0  0  0
   37.7180   26.6430   42.0180 C   0  0  0  0  0  0  0  0  0  0  0  0
   40.5950   25.5080   40.4480 H   0  0  0  0  0  0  0  0  0  0  0  0
   39.1980   23.6720   39.9810 H   0  0  0  0  0  0  0  0  0  0  0  0
   36.9230   23.5740   40.6820 H   0  0  0  0  0  0  0  0  0  0  0  0
   35.9290   25.3280   41.9260 H   0  0  0  0  0  0  0  0  0  0  0  0
   36.8960   27.5810   42.7870 C   0  0  0  0  0  0  0  0  0  0  0  0
   36.0180   26.8540   43.6800 F   0  0  0  0  0  0  0  0  0  0  0  0
   35.8390   28.1450   42.0330 F   0  0  0  0  0  0  0  0  0  0  0  0
   37.4980   28.3890   43.6800 F   0  0  0  0  0  0  0  0  0  0  0  0
   40.4300   32.9440   38.9800 C   0  0  0  0  0  0  0  0  0  0  0  0
   40.7440   31.7170   39.5920 C   0  0  0  0  0  0  0  0  0  0  0  0
   40.1760   31.3680   40.7900 C   0  0  0  0  0  0  0  0  0  0  0  0
   39.3270   32.2770   41.2940 N   0  0  0  0  0  0  0  0  0  0  0  0
   39.0200   33.4410   40.7280 C   0  0  0  0  0  0  0  0  0  0  0  0
   39.5780   33.7730   39.5610 N   0  0  0  0  0  0  0  0  0  0  0  0
   40.9380   33.1250   38.0250 H   0  0  0  0  0  0  0  0  0  0  0  0
   41.4400   31.0440   39.1120 H   0  0  0  0  0  0  0  0  0  0  0  0
   38.3280   34.1280   41.1880 H   0  0  0  0  0  0  0  0  0  0  0  0
  1  2  1  0  0  0  0
  2  3  2  0  0  0  0
  2  7  1  0  0  0  0
  3  4  1  0  0  0  0
  4  8  1  0  0  0  0
  4  5  2  0  0  0  0
  5  9  1  0  0  0  0
  6  5  1  0  0  0  0
  6 10  1  0  0  0  0
  7  6  2  0  0  0  0
 11  7  1  0  0  0  0
 11 16  1  0  0  0  0
 12 11  2  0  0  0  0
 13 12  1  0  0  0  0
 13 14  2  0  0  0  0
 14 15  1  0  0  0  0
 15 20  1  0  0  0  0
 15 16  2  0  0  0  0
 16 21  1  0  0  0  0
 17 12  1  0  0  0  0
 18 13  1  0  0  0  0
 19 14  1  0  0  0  0
 21 22  1  0  0  0  0
 21 24  1  0  0  0  0
 23 21  1  0  0  0  0
 25 30  2  0  0  0  0
 25 26  1  0  0  0  0
 26 27  2  0  0  0  0
 27 28  1  0  0  0  0
 27  3  1  0  0  0  0
 29 33  1  0  0  0  0
 29 28  2  0  0  0  0
 30 29  1  0  0  0  0
 31 25  1  0  0  0  0
 32 26  1  0  0  0  0
M  END
>  <minimizedAffinity>
-5.57786512

$$$$

 OpenBabel03242522283D

 33 35  0  0  0  0  0  0  0  0999 V2000
   39.1920   30.1050   40.3980 F   0  0  0  0  0  0  0  0  0  0  0  0
   38.8430   31.4420   40.3840 C   0  0  0  0  0  0  0  0  0  0  0  0
   39.7450   32.3870   40.7420 C   0  0  0  0  0  0  0  0  0  0  0  0
   39.3400   33.7010   40.5720 C   0  0  0  0  0  0  0  0  0  0  0  0
   38.1000   34.0400   40.0630 C   0  0  0  0  0  0  0  0  0  0  0  0
   37.2730   32.9960   39.7350 C   0  0  0  0  0  0  0  0  0  0  0  0
   37.6020   31.6940   39.8840 C   0  0  0  0  0  0  0  0  0  0  0  0
   40.1720   34.3610   40.9100 H   0  0  0  0  0  0  0  0  0  0  0  0
   38.0820   35.1120   40.0480 H   0  0  0  0  0  0  0  0  0  0  0  0
   36.5300   33.6240   39.3530 H   0  0  0  0  0  0  0  0  0  0  0  0
   36.6050   30.7260   39.5290 C   0  0  0  0  0  0  0  0  0  0  0  0
   35.7540   30.2630   40.5360 C   0  0  0  0  0  0  0  0  0  0  0  0
   34.8580   29.2830   40.1830 C   0  0  0  0  0  0  0  0  0  0  0  0
   34.8000   28.7730   38.8710 C   0  0  0  0  0  0  0  0  0  0  0  0
   35.6760   29.2830   37.9090 C   0  0  0  0  0  0  0  0  0  0  0  0
   36.5910   30.2700   38.2220 C   0  0  0  0  0  0  0  0  0  0  0  0
   35.6620   30.5060   41.5550 H   0  0  0  0  0  0  0  0  0  0  0  0
   34.1380   28.8410   40.8880 H   0  0  0  0  0  0  0  0  0  0  0  0
   34.0560   27.9860   38.6650 H   0  0  0  0  0  0  0  0  0  0  0  0
   35.5040   28.7890   36.9700 H   0  0  0  0  0  0  0  0  0  0  0  0
   37.3630   30.6040   37.0220 C   0  0  0  0  0  0  0  0  0  0  0  0
   38.7710   30.3540   37.2530 F   0  0  0  0  0  0  0  0  0  0  0  0
   37.5310   31.9970   36.8360 F   0  0  0  0  0  0  0  0  0  0  0  0
   37.1880   29.8640   35.9120 F   0  0  0  0  0  0  0  0  0  0  0  0
   43.4240   31.6040   41.0210 C   0  0  0  0  0  0  0  0  0  0  0  0
   42.1990   32.0440   40.4880 C   0  0  0  0  0  0  0  0  0  0  0  0
   41.0470   31.9640   41.2260 C   0  0  0  0  0  0  0  0  0  0  0  0
   41.2020   31.4470   42.4550 N   0  0  0  0  0  0  0  0  0  0  0  0
   42.3530   31.0270   42.9740 C   0  0  0  0  0  0  0  0  0  0  0  0
   43.4710   31.1070   42.2470 N   0  0  0  0  0  0  0  0  0  0  0  0
   44.2840   31.7110   40.3480 H   0  0  0  0  0  0  0  0  0  0  0  0
   42.1680   32.4480   39.4870 H   0  0  0  0  0  0  0  0  0  0  0  0
   42.4090   30.6200   43.9700 H   0  0  0  0  0  0  0  0  0  0  0  0
  2  1  1  0  0  0  0
  2  3  1  0  0  0  0
  3 27  1  0  0  0  0
  4  3  2  0  0  0  0
  4  8  1  0  0  0  0
  5  4  1  0  0  0  0
  6  7  1  0  0  0  0
  6  5  2  0  0  0  0
  7  2  2  0  0  0  0
  9  5  1  0  0  0  0
 10  6  1  0  0  0  0
 11  7  1  0  0  0  0
 11 12  1  0  0  0  0
 12 17  1  0  0  0  0
 13 12  2  0  0  0  0
 13 18  1  0  0  0  0
 14 13  1  0  0  0  0
 15 16  1  0  0  0  0
 15 14  2  0  0  0  0
 16 11  2  0  0  0  0
 19 14  1  0  0  0  0
 20 15  1  0  0  0  0
 21 22  1  0  0  0  0
 21 16  1  0  0  0  0
 23 21  1  0  0  0  0
 24 21  1  0  0  0  0
 25 30  1  0  0  0  0
 26 25  2  0  0  0  0
 26 27  1  0  0  0  0
 27 28  2  0  0  0  0
 28 29  1  0  0  0  0
 29 33  1  0  0  0  0
 30 29  2  0  0  0  0
 31 25  1  0  0  0  0
 32 26  1  0  0  0  0
M  END
>  <minimizedAffinity>
-5.57243872

$$$$

 OpenBabel03242522283D

 33 35  0  0  0  0  0  0  0  0999 V2000
   39.9730   29.6260   40.2330 F   0  0  0  0  0  0  0  0  0  0  0  0
   39.0620   30.6630   40.1680 C   0  0  0  0  0  0  0  0  0  0  0  0
   39.3430   31.7740   39.4460 C   0  0  0  0  0  0  0  0  0  0  0  0
   38.3150   32.6980   39.3390 C   0  0  0  0  0  0  0  0  0  0  0  0
   37.0760   32.5070   39.9210 C   0  0  0  0  0  0  0  0  0  0  0  0
   36.9110   31.3410   40.6270 C   0  0  0  0  0  0  0  0  0  0  0  0
   37.8730   30.4050   40.7770 C   0  0  0  0  0  0  0  0  0  0  0  0
   38.6880   33.5530   38.7300 H   0  0  0  0  0  0  0  0  0  0  0  0
   36.5050   33.3760   39.6640 H   0  0  0  0  0  0  0  0  0  0  0  0
   35.9030   31.5340   40.8270 H   0  0  0  0  0  0  0  0  0  0  0  0
   37.5480   29.2620   41.5800 C   0  0  0  0  0  0  0  0  0  0  0  0
   37.8260   29.3230   42.9480 C   0  0  0  0  0  0  0  0  0  0  0  0
   37.5710   28.1880   43.6800 C   0  0  0  0  0  0  0  0  0  0  0  0
   37.0560   27.0220   43.0790 C   0  0  0  0  0  0  0  0  0  0  0  0
   36.7950   27.0280   41.7060 C   0  0  0  0  0  0  0  0  0  0  0  0
   37.0340   28.1490   40.9350 C   0  0  0  0  0  0  0  0  0  0  0  0
   38.2190   30.0820   43.5600 H   0  0  0  0  0  0  0  0  0  0  0  0
   37.7490   28.1150   44.7630 H   0  0  0  0  0  0  0  0  0  0  0  0
   36.8810   26.1500   43.7310 H   0  0  0  0  0  0  0  0  0  0  0  0
   36.4110   26.0690   41.4100 H   0  0  0  0  0  0  0  0  0  0  0  0
   36.6650   27.8630   39.5460 C   0  0  0  0  0  0  0  0  0  0  0  0
   35.5070   28.6470   39.1690 F   0  0  0  0  0  0  0  0  0  0  0  0
   36.0080   26.6190   39.3880 F   0  0  0  0  0  0  0  0  0  0  0  0
   37.5080   28.2280   38.5630 F   0  0  0  0  0  0  0  0  0  0  0  0
   42.9700   32.5490   38.7590 C   0  0  0  0  0  0  0  0  0  0  0  0
   41.7370   32.4610   39.4310 C   0  0  0  0  0  0  0  0  0  0  0  0
   40.6490   31.8920   38.8220 C   0  0  0  0  0  0  0  0  0  0  0  0
   40.8720   31.4470   37.5760 N   0  0  0  0  0  0  0  0  0  0  0  0
   42.0310   31.5230   36.9270 C   0  0  0  0  0  0  0  0  0  0  0  0
   43.0860   32.0800   37.5280 N   0  0  0  0  0  0  0  0  0  0  0  0
   43.7750   33.0210   39.3350 H   0  0  0  0  0  0  0  0  0  0  0  0
   41.6490   32.8450   40.4370 H   0  0  0  0  0  0  0  0  0  0  0  0
   42.1430   31.1460   35.9240 H   0  0  0  0  0  0  0  0  0  0  0  0
  2  1  1  0  0  0  0
  2  7  1  0  0  0  0
  3  2  2  0  0  0  0
  4  3  1  0  0  0  0
  4  5  2  0  0  0  0
  5  6  1  0  0  0  0
  6  7  2  0  0  0  0
  6 10  1  0  0  0  0
  7 11  1  0  0  0  0
  8  4  1  0  0  0  0
  9  5  1  0  0  0  0
 11 12  1  0  0  0  0
 12 17  1  0  0  0  0
 12 13  2  0  0  0  0
 13 18  1  0  0  0  0
 14 13  1  0  0  0  0
 14 19  1  0  0  0  0
 15 14  2  0  0  0  0
 16 11  2  0  0  0  0
 16 15  1  0  0  0  0
 20 15  1  0  0  0  0
 21 16  1  0  0  0  0
 22 21  1  0  0  0  0
 23 21  1  0  0  0  0
 24 21  1  0  0  0  0
 25 31  1  0  0  0  0
 25 26  1  0  0  0  0
 26 32  1  0  0  0  0
 27 26  2  0  0  0  0
 27  3  1  0  0  0  0
 28 27  1  0  0  0  0
 29 30  1  0  0  0  0
 29 28  2  0  0  0  0
 30 25  2  0  0  0  0
 33 29  1  0  0  0  0
M  END
>  <minimizedAffinity>
-5.52529335

$$$$

 OpenBabel03242522283D

 33 35  0  0  0  0  0  0  0  0999 V2000
   38.0940   27.8480   39.2870 F   0  0  0  0  0  0  0  0  0  0  0  0
   37.3210   26.7050   39.3630 C   0  0  0  0  0  0  0  0  0  0  0  0
   36.4400   26.4090   38.3770 C   0  0  0  0  0  0  0  0  0  0  0  0
   35.8080   25.1800   38.4840 C   0  0  0  0  0  0  0  0  0  0  0  0
   36.0560   24.3000   39.5210 C   0  0  0  0  0  0  0  0  0  0  0  0
   36.9700   24.7110   40.4590 C   0  0  0  0  0  0  0  0  0  0  0  0
   37.6140   25.8980   40.4200 C   0  0  0  0  0  0  0  0  0  0  0  0
   35.1160   25.0770   37.6170 H   0  0  0  0  0  0  0  0  0  0  0  0
   35.4310   23.4520   39.3290 H   0  0  0  0  0  0  0  0  0  0  0  0
   36.9260   23.8080   40.9850 H   0  0  0  0  0  0  0  0  0  0  0  0
   38.5080   26.1890   41.5020 C   0  0  0  0  0  0  0  0  0  0  0  0
   39.7810   25.6130   41.4730 C   0  0  0  0  0  0  0  0  0  0  0  0
   40.5900   25.8510   42.5580 C   0  0  0  0  0  0  0  0  0  0  0  0
   40.1560   26.6350   43.6450 C   0  0  0  0  0  0  0  0  0  0  0  0
   38.8720   27.1860   43.6110 C   0  0  0  0  0  0  0  0  0  0  0  0
   38.0280   26.9740   42.5370 C   0  0  0  0  0  0  0  0  0  0  0  0
   40.2660   24.9980   40.7710 H   0  0  0  0  0  0  0  0  0  0  0  0
   41.6110   25.4510   42.6490 H   0  0  0  0  0  0  0  0  0  0  0  0
   40.8600   26.7780   44.4810 H   0  0  0  0  0  0  0  0  0  0  0  0
   38.7000   27.7490   44.5090 H   0  0  0  0  0  0  0  0  0  0  0  0
   36.7630   27.6720   42.7780 C   0  0  0  0  0  0  0  0  0  0  0  0
   36.9770   28.7930   43.6700 F   0  0  0  0  0  0  0  0  0  0  0  0
   35.9080   26.9860   43.6730 F   0  0  0  0  0  0  0  0  0  0  0  0
   36.1730   28.3160   41.7540 F   0  0  0  0  0  0  0  0  0  0  0  0
   36.8560   28.3900   35.1950 C   0  0  0  0  0  0  0  0  0  0  0  0
   37.0880   27.4370   36.2030 C   0  0  0  0  0  0  0  0  0  0  0  0
   36.2600   27.3570   37.2930 C   0  0  0  0  0  0  0  0  0  0  0  0
   35.2510   28.2410   37.2960 N   0  0  0  0  0  0  0  0  0  0  0  0
   35.0170   29.1480   36.3510 C   0  0  0  0  0  0  0  0  0  0  0  0
   35.8300   29.2190   35.2930 N   0  0  0  0  0  0  0  0  0  0  0  0
   37.5760   28.3700   34.3680 H   0  0  0  0  0  0  0  0  0  0  0  0
   37.9270   26.7620   36.1160 H   0  0  0  0  0  0  0  0  0  0  0  0
   34.1860   29.8310   36.4160 H   0  0  0  0  0  0  0  0  0  0  0  0
  1  2  1  0  0  0  0
  2  7  1  0  0  0  0
  3  4  1  0  0  0  0
  3  2  2  0  0  0  0
  4  5  2  0  0  0  0
  5  6  1  0  0  0  0
  6 10  1  0  0  0  0
  7  6  2  0  0  0  0
  7 11  1  0  0  0  0
  8  4  1  0  0  0  0
  9  5  1  0  0  0  0
 11 16  1  0  0  0  0
 12 11  2  0  0  0  0
 12 13  1  0  0  0  0
 13 18  1  0  0  0  0
 13 14  2  0  0  0  0
 14 19  1  0  0  0  0
 15 14  1  0  0  0  0
 15 20  1  0  0  0  0
 16 21  1  0  0  0  0
 16 15  2  0  0  0  0
 17 12  1  0  0  0  0
 21 22  1  0  0  0  0
 21 23  1  0  0  0  0
 24 21  1  0  0  0  0
 25 30  2  0  0  0  0
 25 26  1  0  0  0  0
 26 27  2  0  0  0  0
 27 28  1  0  0  0  0
 27  3  1  0  0  0  0
 29 33  1  0  0  0  0
 29 28  2  0  0  0  0
 30 29  1  0  0  0  0
 31 25  1  0  0  0  0
 32 26  1  0  0  0  0
M  END
>  <minimizedAffinity>
-5.47426987

$$$$
