
 OpenBabel03252507573D

 22 23  0  0  1  0  0  0  0  0999 V2000
   46.0000   34.7040   43.5520 C   0  0  0  0  0  0  0  0  0  0  0  0
   45.0750   35.6850   43.9900 C   0  0  0  0  0  0  0  0  0  0  0  0
   44.5410   35.5130   45.2730 C   0  0  0  0  0  0  0  0  0  0  0  0
   44.9350   34.4360   46.0110 N   0  0  0  0  0  0  0  0  0  0  0  0
   45.8320   33.5330   45.5210 C   0  0  0  0  0  0  0  0  0  0  0  0
   46.3650   33.6460   44.3190 N   0  0  0  0  0  0  0  0  0  0  0  0
   44.8020   36.5180   43.3560 H   0  0  0  0  0  0  0  0  0  0  0  0
   43.8360   36.2290   45.6490 H   0  0  0  0  0  0  0  0  0  0  0  0
   46.2240   32.3880   46.3920 C   0  0  1  0  0  0  0  0  0  0  0  0
   47.1970   32.5900   47.5080 C   0  0  0  0  0  0  0  0  0  0  0  0
   45.7390   32.4890   47.8020 C   0  0  2  0  0  0  0  0  0  0  0  0
   46.1840   31.4250   45.8900 H   0  0  0  0  0  0  0  0  0  0  0  0
   47.8870   31.7310   47.6750 H   0  0  0  0  0  0  0  0  0  0  0  0
   47.7200   33.5690   47.4560 H   0  0  0  0  0  0  0  0  0  0  0  0
   45.2920   33.4640   48.1540 H   0  0  0  0  0  0  0  0  0  0  0  0
   45.3390   31.2680   48.5870 C   0  0  0  0  0  0  0  0  0  0  0  0
   46.4540   30.4620   48.8300 F   0  0  0  0  0  0  0  0  0  0  0  0
   44.7610   31.5540   49.8010 F   0  0  0  0  0  0  0  0  0  0  0  0
   44.4640   30.4760   47.8820 F   0  0  0  0  0  0  0  0  0  0  0  0
   46.5310   34.9250   42.2340 C   0  0  0  0  0  0  0  0  0  0  0  0
   47.7000   35.3570   41.9830 O   0  0  0  0  0  0  0  0  0  0  0  0
   46.1220   34.7960   41.2270 H   0  0  0  0  0  0  0  0  0  0  0  0
  1  2  2  0  0  0  0
  1  6  1  0  0  0  0
  2  3  1  0  0  0  0
  3  8  1  0  0  0  0
  3  4  2  0  0  0  0
  5  4  1  0  0  0  0
  5  9  1  0  0  0  0
  6  5  2  0  0  0  0
  7  2  1  0  0  0  0
  9 12  1  6  0  0  0
  9 10  1  0  0  0  0
  9 11  1  0  0  0  0
 10 13  1  0  0  0  0
 10 11  1  0  0  0  0
 11 15  1  1  0  0  0
 11 16  1  0  0  0  0
 14 10  1  0  0  0  0
 16 17  1  0  0  0  0
 16 18  1  0  0  0  0
 19 16  1  0  0  0  0
 20  1  1  0  0  0  0
 21 20  2  0  0  0  0
 22 20  1  0  0  0  0
M  END
>  <minimizedAffinity>
-4.99910212

>  <minimizedRMSD>
0.452178478

$$$$
