
 OpenBabel03242521213D

 31 33  0  0  0  0  0  0  0  0999 V2000
   45.8580   32.3440   40.9770 C   0  0  0  0  0  0  0  0  0  0  0  0
   45.3140   33.5460   41.3150 C   0  0  0  0  0  0  0  0  0  0  0  0
   44.4570   34.2590   40.5000 C   0  0  0  0  0  0  0  0  0  0  0  0
   44.1770   33.6800   39.3080 N   0  0  0  0  0  0  0  0  0  0  0  0
   44.7130   32.4950   38.9760 C   0  0  0  0  0  0  0  0  0  0  0  0
   45.5550   31.7940   39.7770 N   0  0  0  0  0  0  0  0  0  0  0  0
   45.5430   34.0020   42.2690 H   0  0  0  0  0  0  0  0  0  0  0  0
   44.0240   35.2030   40.7530 H   0  0  0  0  0  0  0  0  0  0  0  0
   44.3840   31.8890   37.6610 C   0  0  0  0  0  0  0  0  0  0  0  0
   43.1680   31.2540   37.4940 C   0  0  0  0  0  0  0  0  0  0  0  0
   42.7610   30.6600   36.3210 C   0  0  0  0  0  0  0  0  0  0  0  0
   43.6560   30.7150   35.2420 C   0  0  0  0  0  0  0  0  0  0  0  0
   44.8550   31.3430   35.4110 C   0  0  0  0  0  0  0  0  0  0  0  0
   45.2440   31.9310   36.5910 C   0  0  0  0  0  0  0  0  0  0  0  0
   42.4960   31.2260   38.3430 H   0  0  0  0  0  0  0  0  0  0  0  0
   41.7920   30.1770   36.2560 H   0  0  0  0  0  0  0  0  0  0  0  0
   43.3560   30.2540   34.3110 H   0  0  0  0  0  0  0  0  0  0  0  0
   45.5190   31.3660   34.5560 H   0  0  0  0  0  0  0  0  0  0  0  0
   46.5560   32.6090   36.7500 C   0  0  0  0  0  0  0  0  0  0  0  0
   46.2920   33.9390   37.1010 F   0  0  0  0  0  0  0  0  0  0  0  0
   47.3450   32.0830   37.7270 F   0  0  0  0  0  0  0  0  0  0  0  0
   47.1730   32.6660   35.5050 F   0  0  0  0  0  0  0  0  0  0  0  0
   47.0730   30.0360   43.5540 C   0  0  0  0  0  0  0  0  0  0  0  0
   48.4390   30.2880   43.5580 C   0  0  0  0  0  0  0  0  0  0  0  0
   48.9460   31.2390   42.6880 C   0  0  0  0  0  0  0  0  0  0  0  0
   48.0750   31.8940   41.8550 N   0  0  0  0  0  0  0  0  0  0  0  0
   46.7570   31.6310   41.8720 C   0  0  0  0  0  0  0  0  0  0  0  0
   46.2640   30.7160   42.7080 N   0  0  0  0  0  0  0  0  0  0  0  0
   46.7250   29.2850   44.2500 H   0  0  0  0  0  0  0  0  0  0  0  0
   49.1840   29.8300   44.1640 H   0  0  0  0  0  0  0  0  0  0  0  0
   49.9620   31.5770   42.5370 H   0  0  0  0  0  0  0  0  0  0  0  0
  1  2  1  0  0  0  0
  1 27  1  0  0  0  0
  2  7  1  0  0  0  0
  3  8  1  0  0  0  0
  3  2  2  0  0  0  0
  4  3  1  0  0  0  0
  5  4  2  0  0  0  0
  5  6  1  0  0  0  0
  6  1  2  0  0  0  0
  9  5  1  0  0  0  0
 10  9  1  0  0  0  0
 10 15  1  0  0  0  0
 11 10  2  0  0  0  0
 12 13  2  0  0  0  0
 12 11  1  0  0  0  0
 13 14  1  0  0  0  0
 14 19  1  0  0  0  0
 14  9  2  0  0  0  0
 16 11  1  0  0  0  0
 17 12  1  0  0  0  0
 18 13  1  0  0  0  0
 19 20  1  0  0  0  0
 19 21  1  0  0  0  0
 22 19  1  0  0  0  0
 23 24  1  0  0  0  0
 23 29  1  0  0  0  0
 24 30  1  0  0  0  0
 25 24  2  0  0  0  0
 26 27  2  0  0  0  0
 26 25  1  0  0  0  0
 27 28  1  0  0  0  0
 28 23  2  0  0  0  0
 31 25  1  0  0  0  0
M  END
>  <minimizedAffinity>
-2.99164176

>  <minimizedRMSD>
6.06388807

$$$$
