
 OpenBabel03252503483D

 39 41  0  0  1  0  0  0  0  0999 V2000
   38.2840   29.3230   39.0560 C   0  0  0  0  0  0  0  0  0  0  0  0
   37.2830   29.7250   39.9240 C   0  0  0  0  0  0  0  0  0  0  0  0
   37.4410   30.9610   40.5190 C   0  0  0  0  0  0  0  0  0  0  0  0
   38.5230   31.7540   40.2680 N   0  0  0  0  0  0  0  0  0  0  0  0
   39.4780   31.3150   39.4090 C   0  0  0  0  0  0  0  0  0  0  0  0
   39.3680   30.1130   38.8060 N   0  0  0  0  0  0  0  0  0  0  0  0
   38.2070   28.3620   38.5650 H   0  0  0  0  0  0  0  0  0  0  0  0
   36.8290   31.4460   41.2570 H   0  0  0  0  0  0  0  0  0  0  0  0
   41.0510   32.1310   37.6600 C   0  0  2  0  0  0  0  0  0  0  0  0
   40.6290   32.1800   39.1590 C   0  0  1  0  0  0  0  0  0  0  0  0
   40.4060   33.5100   39.2620 O   0  0  0  0  0  0  0  0  0  0  0  0
   41.4630   34.1590   38.6900 C   0  0  0  0  0  0  0  0  0  0  0  0
   42.1390   33.2130   37.7400 C   0  0  2  0  0  0  0  0  0  0  0  0
   41.4610   31.1420   37.4060 H   0  0  0  0  0  0  0  0  0  0  0  0
   41.4960   31.8390   39.7590 H   0  0  0  0  0  0  0  0  0  0  0  0
   42.1690   34.5950   39.4330 H   0  0  0  0  0  0  0  0  0  0  0  0
   41.0850   35.0250   38.1090 H   0  0  0  0  0  0  0  0  0  0  0  0
   43.0350   32.7980   38.2610 H   0  0  0  0  0  0  0  0  0  0  0  0
   40.0620   32.6170   36.8850 O   0  0  0  0  0  0  0  0  0  0  0  0
   39.1500   32.6240   37.2630 H   0  0  0  0  0  0  0  0  0  0  0  0
   42.4320   33.7670   36.5220 O   0  0  0  0  0  0  0  0  0  0  0  0
   43.4030   33.6390   36.3560 H   0  0  0  0  0  0  0  0  0  0  0  0
   36.1200   28.9170   40.2080 C   0  0  0  0  0  0  0  0  0  0  0  0
   35.2250   29.0950   39.5860 H   0  0  0  0  0  0  0  0  0  0  0  0
   35.7420   29.1490   41.2240 H   0  0  0  0  0  0  0  0  0  0  0  0
   36.5010   27.4790   40.2910 C   0  0  0  0  0  0  0  0  0  0  0  0
   36.3970   26.5940   39.2210 C   0  0  0  0  0  0  0  0  0  0  0  0
   36.7410   25.2760   39.3070 C   0  0  0  0  0  0  0  0  0  0  0  0
   37.2030   24.8470   40.5160 C   0  0  0  0  0  0  0  0  0  0  0  0
   37.3060   25.7280   41.5720 C   0  0  0  0  0  0  0  0  0  0  0  0
   36.9750   27.0840   41.5540 C   0  0  0  0  0  0  0  0  0  0  0  0
   36.0070   27.1000   38.3240 H   0  0  0  0  0  0  0  0  0  0  0  0
   36.5910   24.7750   38.3870 H   0  0  0  0  0  0  0  0  0  0  0  0
   37.4640   23.7930   40.5390 H   0  0  0  0  0  0  0  0  0  0  0  0
   37.6940   25.1790   42.4440 H   0  0  0  0  0  0  0  0  0  0  0  0
   37.1470   27.7100   42.8470 C   0  0  0  0  0  0  0  0  0  0  0  0
   38.1040   27.0850   43.6770 F   0  0  0  0  0  0  0  0  0  0  0  0
   37.1370   28.9950   43.0980 F   0  0  0  0  0  0  0  0  0  0  0  0
   35.9710   27.2720   43.6080 F   0  0  0  0  0  0  0  0  0  0  0  0
  1  2  1  0  0  0  0
  2 23  1  0  0  0  0
  2  3  2  0  0  0  0
  3  8  1  0  0  0  0
  4  3  1  0  0  0  0
  5  4  2  0  0  0  0
  6  1  2  0  0  0  0
  6  5  1  0  0  0  0
  7  1  1  0  0  0  0
  9 14  1  6  0  0  0
  9 13  1  0  0  0  0
  9 10  1  0  0  0  0
 10 11  1  0  0  0  0
 10  5  1  0  0  0  0
 10 15  1  1  0  0  0
 12 11  1  0  0  0  0
 12 16  1  0  0  0  0
 13 18  1  1  0  0  0
 13 12  1  0  0  0  0
 17 12  1  0  0  0  0
 19 20  1  0  0  0  0
 19  9  1  0  0  0  0
 21 13  1  0  0  0  0
 22 21  1  0  0  0  0
 23 26  1  0  0  0  0
 23 25  1  0  0  0  0
 24 23  1  0  0  0  0
 26 31  1  0  0  0  0
 27 28  1  0  0  0  0
 27 26  2  0  0  0  0
 28 29  2  0  0  0  0
 29 34  1  0  0  0  0
 29 30  1  0  0  0  0
 30 35  1  0  0  0  0
 31 30  2  0  0  0  0
 31 36  1  0  0  0  0
 32 27  1  0  0  0  0
 33 28  1  0  0  0  0
 36 38  1  0  0  0  0
 36 39  1  0  0  0  0
 36 37  1  0  0  0  0
M  END
>  <minimizedAffinity>
-6.77116346

$$$$

 OpenBabel03252503483D

 39 41  0  0  1  0  0  0  0  0999 V2000
   38.1510   29.4410   38.6380 C   0  0  0  0  0  0  0  0  0  0  0  0
   37.2820   29.6520   39.6950 C   0  0  0  0  0  0  0  0  0  0  0  0
   37.5690   30.7190   40.5250 C   0  0  0  0  0  0  0  0  0  0  0  0
   38.6480   31.5280   40.3210 N   0  0  0  0  0  0  0  0  0  0  0  0
   39.4700   31.2790   39.2700 C   0  0  0  0  0  0  0  0  0  0  0  0
   39.2330   30.2480   38.4330 N   0  0  0  0  0  0  0  0  0  0  0  0
   37.9710   28.6180   37.9590 H   0  0  0  0  0  0  0  0  0  0  0  0
   37.0740   31.0340   41.4260 H   0  0  0  0  0  0  0  0  0  0  0  0
   41.0950   32.1360   37.5890 C   0  0  2  0  0  0  0  0  0  0  0  0
   40.6210   32.1570   39.0730 C   0  0  1  0  0  0  0  0  0  0  0  0
   40.3830   33.4840   39.1890 O   0  0  0  0  0  0  0  0  0  0  0  0
   41.4530   34.1510   38.6650 C   0  0  0  0  0  0  0  0  0  0  0  0
   42.1700   33.2260   37.7240 C   0  0  2  0  0  0  0  0  0  0  0  0
   41.5220   31.1550   37.3340 H   0  0  0  0  0  0  0  0  0  0  0  0
   41.4700   31.8150   39.6970 H   0  0  0  0  0  0  0  0  0  0  0  0
   42.1290   34.5810   39.4380 H   0  0  0  0  0  0  0  0  0  0  0  0
   41.0880   35.0230   38.0840 H   0  0  0  0  0  0  0  0  0  0  0  0
   43.0510   32.8100   38.2690 H   0  0  0  0  0  0  0  0  0  0  0  0
   40.1290   32.6250   36.7880 O   0  0  0  0  0  0  0  0  0  0  0  0
   39.2050   32.6190   37.1350 H   0  0  0  0  0  0  0  0  0  0  0  0
   42.5000   33.8020   36.5250 O   0  0  0  0  0  0  0  0  0  0  0  0
   43.4770   33.6840   36.3910 H   0  0  0  0  0  0  0  0  0  0  0  0
   36.1260   28.8220   39.9390 C   0  0  0  0  0  0  0  0  0  0  0  0
   35.5050   28.5640   39.0630 H   0  0  0  0  0  0  0  0  0  0  0  0
   35.4040   29.3650   40.5800 H   0  0  0  0  0  0  0  0  0  0  0  0
   36.5080   27.6380   40.7580 C   0  0  0  0  0  0  0  0  0  0  0  0
   36.7440   27.6960   42.1290 C   0  0  0  0  0  0  0  0  0  0  0  0
   37.1020   26.6080   42.8710 C   0  0  0  0  0  0  0  0  0  0  0  0
   37.2230   25.4280   42.1990 C   0  0  0  0  0  0  0  0  0  0  0  0
   36.9860   25.3750   40.8420 C   0  0  0  0  0  0  0  0  0  0  0  0
   36.6170   26.4440   40.0230 C   0  0  0  0  0  0  0  0  0  0  0  0
   36.6040   28.7190   42.5120 H   0  0  0  0  0  0  0  0  0  0  0  0
   37.2320   26.8600   43.8910 H   0  0  0  0  0  0  0  0  0  0  0  0
   37.5090   24.5900   42.8280 H   0  0  0  0  0  0  0  0  0  0  0  0
   37.1410   24.3390   40.5040 H   0  0  0  0  0  0  0  0  0  0  0  0
   36.5030   26.0600   38.6330 C   0  0  0  0  0  0  0  0  0  0  0  0
   35.1920   26.1350   38.1110 F   0  0  0  0  0  0  0  0  0  0  0  0
   37.3600   26.3230   37.6790 F   0  0  0  0  0  0  0  0  0  0  0  0
   36.5730   24.5940   38.6670 F   0  0  0  0  0  0  0  0  0  0  0  0
  1  2  1  0  0  0  0
  2 23  1  0  0  0  0
  2  3  2  0  0  0  0
  3  8  1  0  0  0  0
  4  3  1  0  0  0  0
  5  4  2  0  0  0  0
  6  1  2  0  0  0  0
  6  5  1  0  0  0  0
  7  1  1  0  0  0  0
  9 14  1  6  0  0  0
  9 13  1  0  0  0  0
  9 10  1  0  0  0  0
 10 11  1  0  0  0  0
 10  5  1  0  0  0  0
 10 15  1  1  0  0  0
 12 11  1  0  0  0  0
 12 16  1  0  0  0  0
 13 18  1  1  0  0  0
 13 12  1  0  0  0  0
 17 12  1  0  0  0  0
 19 20  1  0  0  0  0
 19  9  1  0  0  0  0
 21 13  1  0  0  0  0
 22 21  1  0  0  0  0
 23 25  1  0  0  0  0
 23 26  1  0  0  0  0
 24 23  1  0  0  0  0
 26 27  1  0  0  0  0
 27 32  1  0  0  0  0
 27 28  2  0  0  0  0
 28 33  1  0  0  0  0
 29 34  1  0  0  0  0
 29 28  1  0  0  0  0
 30 29  2  0  0  0  0
 31 26  2  0  0  0  0
 31 30  1  0  0  0  0
 35 30  1  0  0  0  0
 36 39  1  0  0  0  0
 36 31  1  0  0  0  0
 37 36  1  0  0  0  0
 38 36  1  0  0  0  0
M  END
>  <minimizedAffinity>
-6.21279097

$$$$

 OpenBabel03252503483D

 39 41  0  0  1  0  0  0  0  0999 V2000
   34.1760   29.0160   36.0180 C   0  0  0  0  0  0  0  0  0  0  0  0
   33.1320   28.9240   36.9230 C   0  0  0  0  0  0  0  0  0  0  0  0
   33.4720   28.9660   38.2620 C   0  0  0  0  0  0  0  0  0  0  0  0
   34.7630   29.0940   38.6800 N   0  0  0  0  0  0  0  0  0  0  0  0
   35.7520   29.1800   37.7530 C   0  0  0  0  0  0  0  0  0  0  0  0
   35.4700   29.1420   36.4340 N   0  0  0  0  0  0  0  0  0  0  0  0
   33.9640   28.9880   34.9580 H   0  0  0  0  0  0  0  0  0  0  0  0
   32.8440   28.8580   39.1270 H   0  0  0  0  0  0  0  0  0  0  0  0
   38.0940   29.6450   37.0480 C   0  0  2  0  0  0  0  0  0  0  0  0
   37.1280   29.3130   38.2250 C   0  0  1  0  0  0  0  0  0  0  0  0
   37.3880   30.3850   39.0070 O   0  0  0  0  0  0  0  0  0  0  0  0
   38.7430   30.5350   39.0810 C   0  0  0  0  0  0  0  0  0  0  0  0
   39.3590   29.8430   37.8980 C   0  0  2  0  0  0  0  0  0  0  0  0
   38.1790   28.7880   36.3630 H   0  0  0  0  0  0  0  0  0  0  0  0
   37.4690   28.3590   38.6730 H   0  0  0  0  0  0  0  0  0  0  0  0
   39.1740   30.1900   40.0480 H   0  0  0  0  0  0  0  0  0  0  0  0
   38.9940   31.6130   39.0210 H   0  0  0  0  0  0  0  0  0  0  0  0
   39.7290   28.8490   38.2470 H   0  0  0  0  0  0  0  0  0  0  0  0
   37.7810   30.8420   36.5160 O   0  0  0  0  0  0  0  0  0  0  0  0
   36.8680   31.1840   36.6720 H   0  0  0  0  0  0  0  0  0  0  0  0
   40.3200   30.5830   37.2620 O   0  0  0  0  0  0  0  0  0  0  0  0
   41.1480   30.0360   37.2220 H   0  0  0  0  0  0  0  0  0  0  0  0
   31.7520   28.7970   36.5180 C   0  0  0  0  0  0  0  0  0  0  0  0
   31.1130   28.1350   37.1290 H   0  0  0  0  0  0  0  0  0  0  0  0
   31.6980   28.3120   35.5220 H   0  0  0  0  0  0  0  0  0  0  0  0
   31.1570   30.1430   36.2910 C   0  0  0  0  0  0  0  0  0  0  0  0
   31.4320   30.9250   35.1720 C   0  0  0  0  0  0  0  0  0  0  0  0
   30.8900   32.1620   34.9750 C   0  0  0  0  0  0  0  0  0  0  0  0
   30.0430   32.6150   35.9430 C   0  0  0  0  0  0  0  0  0  0  0  0
   29.7720   31.8350   37.0470 C   0  0  0  0  0  0  0  0  0  0  0  0
   30.2890   30.5660   37.3120 C   0  0  0  0  0  0  0  0  0  0  0  0
   32.1330   30.4140   34.4930 H   0  0  0  0  0  0  0  0  0  0  0  0
   31.2220   32.5900   34.0660 H   0  0  0  0  0  0  0  0  0  0  0  0
   29.6360   33.6020   35.7450 H   0  0  0  0  0  0  0  0  0  0  0  0
   29.0750   32.3870   37.6970 H   0  0  0  0  0  0  0  0  0  0  0  0
   29.8470   30.0460   38.5880 C   0  0  0  0  0  0  0  0  0  0  0  0
   28.8310   29.0670   38.5010 F   0  0  0  0  0  0  0  0  0  0  0  0
   30.6000   29.7900   39.6280 F   0  0  0  0  0  0  0  0  0  0  0  0
   28.9910   31.1110   39.1230 F   0  0  0  0  0  0  0  0  0  0  0  0
  1  6  2  0  0  0  0
  1  2  1  0  0  0  0
  2  3  2  0  0  0  0
  3  4  1  0  0  0  0
  3  8  1  0  0  0  0
  5 10  1  0  0  0  0
  5  4  2  0  0  0  0
  6  5  1  0  0  0  0
  7  1  1  0  0  0  0
  9 14  1  6  0  0  0
  9 13  1  0  0  0  0
  9 10  1  0  0  0  0
 10 15  1  1  0  0  0
 10 11  1  0  0  0  0
 11 12  1  0  0  0  0
 12 16  1  0  0  0  0
 13 18  1  1  0  0  0
 13 12  1  0  0  0  0
 17 12  1  0  0  0  0
 19 20  1  0  0  0  0
 19  9  1  0  0  0  0
 21 13  1  0  0  0  0
 22 21  1  0  0  0  0
 23  2  1  0  0  0  0
 23 24  1  0  0  0  0
 25 23  1  0  0  0  0
 26 23  1  0  0  0  0
 26 31  1  0  0  0  0
 27 26  2  0  0  0  0
 28 27  1  0  0  0  0
 28 29  2  0  0  0  0
 29 30  1  0  0  0  0
 30 31  2  0  0  0  0
 30 35  1  0  0  0  0
 31 36  1  0  0  0  0
 32 27  1  0  0  0  0
 33 28  1  0  0  0  0
 34 29  1  0  0  0  0
 36 39  1  0  0  0  0
 36 38  1  0  0  0  0
 37 36  1  0  0  0  0
M  END
>  <minimizedAffinity>
-5.90021467

$$$$

 OpenBabel03252503483D

 39 41  0  0  1  0  0  0  0  0999 V2000
   39.7710   30.1180   40.6440 C   0  0  0  0  0  0  0  0  0  0  0  0
   39.9110   30.1520   42.0220 C   0  0  0  0  0  0  0  0  0  0  0  0
   40.9590   30.9040   42.5160 C   0  0  0  0  0  0  0  0  0  0  0  0
   41.8150   31.5830   41.7000 N   0  0  0  0  0  0  0  0  0  0  0  0
   41.6350   31.5170   40.3550 C   0  0  0  0  0  0  0  0  0  0  0  0
   40.6280   30.7940   39.8250 N   0  0  0  0  0  0  0  0  0  0  0  0
   38.9660   29.5430   40.2070 H   0  0  0  0  0  0  0  0  0  0  0  0
   41.2880   31.0290   43.5320 H   0  0  0  0  0  0  0  0  0  0  0  0
   41.9620   32.4840   38.0840 C   0  0  2  0  0  0  0  0  0  0  0  0
   42.5670   32.2500   39.5010 C   0  0  1  0  0  0  0  0  0  0  0  0
   42.7950   33.5390   39.8370 O   0  0  0  0  0  0  0  0  0  0  0  0
   43.4060   34.1500   38.7790 C   0  0  0  0  0  0  0  0  0  0  0  0
   43.1010   33.3590   37.5390 C   0  0  2  0  0  0  0  0  0  0  0  0
   41.8690   31.5310   37.5410 H   0  0  0  0  0  0  0  0  0  0  0  0
   43.5000   31.6660   39.3700 H   0  0  0  0  0  0  0  0  0  0  0  0
   44.4980   34.3050   38.9290 H   0  0  0  0  0  0  0  0  0  0  0  0
   42.9840   35.1680   38.6540 H   0  0  0  0  0  0  0  0  0  0  0  0
   43.9900   32.7180   37.3240 H   0  0  0  0  0  0  0  0  0  0  0  0
   40.8670   33.2630   38.1710 O   0  0  0  0  0  0  0  0  0  0  0  0
   40.4120   33.3100   39.0460 H   0  0  0  0  0  0  0  0  0  0  0  0
   42.7200   34.1280   36.4720 O   0  0  0  0  0  0  0  0  0  0  0  0
   43.3190   33.9080   35.7100 H   0  0  0  0  0  0  0  0  0  0  0  0
   39.0200   29.4540   42.9180 C   0  0  0  0  0  0  0  0  0  0  0  0
   37.9370   29.6040   42.7620 H   0  0  0  0  0  0  0  0  0  0  0  0
   39.1570   29.8330   43.9510 H   0  0  0  0  0  0  0  0  0  0  0  0
   39.4070   28.0190   43.0120 C   0  0  0  0  0  0  0  0  0  0  0  0
   40.5950   27.5800   43.5910 C   0  0  0  0  0  0  0  0  0  0  0  0
   40.9470   26.2630   43.6650 C   0  0  0  0  0  0  0  0  0  0  0  0
   40.0650   25.3680   43.1350 C   0  0  0  0  0  0  0  0  0  0  0  0
   38.8900   25.8080   42.5650 C   0  0  0  0  0  0  0  0  0  0  0  0
   38.4660   27.1340   42.4560 C   0  0  0  0  0  0  0  0  0  0  0  0
   41.1900   28.4270   43.9670 H   0  0  0  0  0  0  0  0  0  0  0  0
   41.8830   26.1390   44.1430 H   0  0  0  0  0  0  0  0  0  0  0  0
   40.3860   24.3340   43.2160 H   0  0  0  0  0  0  0  0  0  0  0  0
   38.3330   24.9310   42.2010 H   0  0  0  0  0  0  0  0  0  0  0  0
   37.2090   27.2560   41.7510 C   0  0  0  0  0  0  0  0  0  0  0  0
   36.2510   28.0660   42.4000 F   0  0  0  0  0  0  0  0  0  0  0  0
   37.0490   27.3550   40.4560 F   0  0  0  0  0  0  0  0  0  0  0  0
   36.5350   25.9780   42.0130 F   0  0  0  0  0  0  0  0  0  0  0  0
  1  2  1  0  0  0  0
  2  3  2  0  0  0  0
  2 23  1  0  0  0  0
  3  8  1  0  0  0  0
  4  3  1  0  0  0  0
  5  4  2  0  0  0  0
  6  5  1  0  0  0  0
  6  1  2  0  0  0  0
  7  1  1  0  0  0  0
  9 14  1  6  0  0  0
  9 19  1  0  0  0  0
  9 10  1  0  0  0  0
 10 15  1  6  0  0  0
 10 11  1  0  0  0  0
 10  5  1  0  0  0  0
 12 16  1  0  0  0  0
 12 11  1  0  0  0  0
 13 18  1  6  0  0  0
 13  9  1  0  0  0  0
 13 12  1  0  0  0  0
 17 12  1  0  0  0  0
 19 20  1  0  0  0  0
 21 13  1  0  0  0  0
 22 21  1  0  0  0  0
 23 26  1  0  0  0  0
 23 25  1  0  0  0  0
 24 23  1  0  0  0  0
 26 27  1  0  0  0  0
 27 28  2  0  0  0  0
 27 32  1  0  0  0  0
 28 33  1  0  0  0  0
 29 34  1  0  0  0  0
 29 28  1  0  0  0  0
 30 29  2  0  0  0  0
 31 30  1  0  0  0  0
 31 26  2  0  0  0  0
 35 30  1  0  0  0  0
 36 39  1  0  0  0  0
 36 37  1  0  0  0  0
 36 31  1  0  0  0  0
 38 36  1  0  0  0  0
M  END
>  <minimizedAffinity>
-5.81800461

$$$$

 OpenBabel03252503483D

 39 41  0  0  1  0  0  0  0  0999 V2000
   37.2320   30.2650   39.3030 C   0  0  0  0  0  0  0  0  0  0  0  0
   36.3700   29.9040   40.3250 C   0  0  0  0  0  0  0  0  0  0  0  0
   35.1800   29.3120   39.9460 C   0  0  0  0  0  0  0  0  0  0  0  0
   34.8650   29.0880   38.6380 N   0  0  0  0  0  0  0  0  0  0  0  0
   35.7440   29.4610   37.6740 C   0  0  0  0  0  0  0  0  0  0  0  0
   36.9170   30.0450   37.9940 N   0  0  0  0  0  0  0  0  0  0  0  0
   38.1770   30.7320   39.5470 H   0  0  0  0  0  0  0  0  0  0  0  0
   34.3480   29.0050   40.5540 H   0  0  0  0  0  0  0  0  0  0  0  0
   36.5280   29.6500   35.3180 C   0  0  2  0  0  0  0  0  0  0  0  0
   35.3820   29.2150   36.2800 C   0  0  1  0  0  0  0  0  0  0  0  0
   35.2920   27.9170   35.9090 O   0  0  0  0  0  0  0  0  0  0  0  0
   35.2750   27.8690   34.5450 C   0  0  0  0  0  0  0  0  0  0  0  0
   35.8840   29.1370   34.0200 C   0  0  2  0  0  0  0  0  0  0  0  0
   36.6430   30.7450   35.3240 H   0  0  0  0  0  0  0  0  0  0  0  0
   34.4830   29.8040   36.0120 H   0  0  0  0  0  0  0  0  0  0  0  0
   34.2630   27.6760   34.1210 H   0  0  0  0  0  0  0  0  0  0  0  0
   35.8970   27.0170   34.2040 H   0  0  0  0  0  0  0  0  0  0  0  0
   35.0470   29.8160   33.7290 H   0  0  0  0  0  0  0  0  0  0  0  0
   37.6270   28.9050   35.5400 O   0  0  0  0  0  0  0  0  0  0  0  0
   37.7020   28.4560   36.4160 H   0  0  0  0  0  0  0  0  0  0  0  0
   36.7940   28.9400   33.0150 O   0  0  0  0  0  0  0  0  0  0  0  0
   36.5130   29.4920   32.2390 H   0  0  0  0  0  0  0  0  0  0  0  0
   36.6730   30.1170   41.7200 C   0  0  0  0  0  0  0  0  0  0  0  0
   35.8470   30.4720   42.3610 H   0  0  0  0  0  0  0  0  0  0  0  0
   37.4110   30.9390   41.8210 H   0  0  0  0  0  0  0  0  0  0  0  0
   37.3830   28.9320   42.2780 C   0  0  0  0  0  0  0  0  0  0  0  0
   36.7640   27.7090   42.5200 C   0  0  0  0  0  0  0  0  0  0  0  0
   37.4190   26.6310   43.0390 C   0  0  0  0  0  0  0  0  0  0  0  0
   38.7430   26.8020   43.3200 C   0  0  0  0  0  0  0  0  0  0  0  0
   39.3520   28.0150   43.0770 C   0  0  0  0  0  0  0  0  0  0  0  0
   38.7450   29.1560   42.5480 C   0  0  0  0  0  0  0  0  0  0  0  0
   35.6990   27.7420   42.2400 H   0  0  0  0  0  0  0  0  0  0  0  0
   36.7740   25.7990   43.1450 H   0  0  0  0  0  0  0  0  0  0  0  0
   39.2230   25.9200   43.7320 H   0  0  0  0  0  0  0  0  0  0  0  0
   40.4090   27.9370   43.3750 H   0  0  0  0  0  0  0  0  0  0  0  0
   39.6530   30.2790   42.4730 C   0  0  0  0  0  0  0  0  0  0  0  0
   40.0190   30.6490   41.1590 F   0  0  0  0  0  0  0  0  0  0  0  0
   39.6360   31.3470   43.2290 F   0  0  0  0  0  0  0  0  0  0  0  0
   40.9530   29.7040   42.8400 F   0  0  0  0  0  0  0  0  0  0  0  0
  1  7  1  0  0  0  0
  1  2  1  0  0  0  0
  2 23  1  0  0  0  0
  3  2  2  0  0  0  0
  3  8  1  0  0  0  0
  4  3  1  0  0  0  0
  5  6  1  0  0  0  0
  5  4  2  0  0  0  0
  6  1  2  0  0  0  0
  9 14  1  1  0  0  0
  9 19  1  0  0  0  0
  9 10  1  0  0  0  0
 10 15  1  6  0  0  0
 10  5  1  0  0  0  0
 11 10  1  0  0  0  0
 12 11  1  0  0  0  0
 13 18  1  6  0  0  0
 13 12  1  0  0  0  0
 13  9  1  0  0  0  0
 16 12  1  0  0  0  0
 17 12  1  0  0  0  0
 19 20  1  0  0  0  0
 21 13  1  0  0  0  0
 22 21  1  0  0  0  0
 23 25  1  0  0  0  0
 23 26  1  0  0  0  0
 23 24  1  0  0  0  0
 26 27  2  0  0  0  0
 26 31  1  0  0  0  0
 27 28  1  0  0  0  0
 28 33  1  0  0  0  0
 28 29  2  0  0  0  0
 29 34  1  0  0  0  0
 30 29  1  0  0  0  0
 30 35  1  0  0  0  0
 31 30  2  0  0  0  0
 32 27  1  0  0  0  0
 36 31  1  0  0  0  0
 36 39  1  0  0  0  0
 36 38  1  0  0  0  0
 37 36  1  0  0  0  0
M  END
>  <minimizedAffinity>
-5.76576471

$$$$

 OpenBabel03252503483D

 39 41  0  0  1  0  0  0  0  0999 V2000
   38.4550   31.3810   39.1240 C   0  0  0  0  0  0  0  0  0  0  0  0
   37.7350   31.8960   40.1900 C   0  0  0  0  0  0  0  0  0  0  0  0
   38.2320   33.0460   40.7710 C   0  0  0  0  0  0  0  0  0  0  0  0
   39.3690   33.6520   40.3250 N   0  0  0  0  0  0  0  0  0  0  0  0
   40.0390   33.1090   39.2770 C   0  0  0  0  0  0  0  0  0  0  0  0
   39.5950   31.9850   38.6770 N   0  0  0  0  0  0  0  0  0  0  0  0
   38.1080   30.4820   38.6340 H   0  0  0  0  0  0  0  0  0  0  0  0
   37.8770   33.5820   41.6330 H   0  0  0  0  0  0  0  0  0  0  0  0
   42.5180   33.1670   39.5030 C   0  0  2  0  0  0  0  0  0  0  0  0
   41.2570   33.7740   38.8190 C   0  0  1  0  0  0  0  0  0  0  0  0
   41.6040   33.5580   37.5300 O   0  0  0  0  0  0  0  0  0  0  0  0
   42.8970   33.9660   37.3670 C   0  0  0  0  0  0  0  0  0  0  0  0
   43.5620   33.9730   38.7140 C   0  0  2  0  0  0  0  0  0  0  0  0
   42.5280   33.4060   40.5770 H   0  0  0  0  0  0  0  0  0  0  0  0
   41.2230   34.8500   39.0830 H   0  0  0  0  0  0  0  0  0  0  0  0
   42.9900   34.9440   36.8420 H   0  0  0  0  0  0  0  0  0  0  0  0
   43.4290   33.2390   36.7210 H   0  0  0  0  0  0  0  0  0  0  0  0
   43.5680   35.0280   39.0800 H   0  0  0  0  0  0  0  0  0  0  0  0
   42.6600   31.8750   39.1490 O   0  0  0  0  0  0  0  0  0  0  0  0
   41.8590   31.4050   38.8160 H   0  0  0  0  0  0  0  0  0  0  0  0
   44.8020   33.3920   38.7220 O   0  0  0  0  0  0  0  0  0  0  0  0
   45.4440   34.0520   39.0970 H   0  0  0  0  0  0  0  0  0  0  0  0
   36.5230   31.2860   40.6840 C   0  0  0  0  0  0  0  0  0  0  0  0
   35.6410   31.3210   40.0210 H   0  0  0  0  0  0  0  0  0  0  0  0
   36.1620   31.8410   41.5740 H   0  0  0  0  0  0  0  0  0  0  0  0
   36.8110   29.9220   41.2080 C   0  0  0  0  0  0  0  0  0  0  0  0
   37.6320   29.6780   42.3060 C   0  0  0  0  0  0  0  0  0  0  0  0
   37.8980   28.4250   42.7750 C   0  0  0  0  0  0  0  0  0  0  0  0
   37.3130   27.3900   42.1080 C   0  0  0  0  0  0  0  0  0  0  0  0
   36.4990   27.6370   41.0220 C   0  0  0  0  0  0  0  0  0  0  0  0
   36.1830   28.8880   40.4910 C   0  0  0  0  0  0  0  0  0  0  0  0
   38.0230   30.6190   42.7260 H   0  0  0  0  0  0  0  0  0  0  0  0
   38.5400   28.4540   43.6170 H   0  0  0  0  0  0  0  0  0  0  0  0
   37.5520   26.4120   42.5150 H   0  0  0  0  0  0  0  0  0  0  0  0
   36.1370   26.6720   40.6350 H   0  0  0  0  0  0  0  0  0  0  0  0
   35.3490   28.7930   39.3130 C   0  0  0  0  0  0  0  0  0  0  0  0
   35.5360   29.8360   38.3780 F   0  0  0  0  0  0  0  0  0  0  0  0
   35.0240   27.6980   38.6750 F   0  0  0  0  0  0  0  0  0  0  0  0
   34.0310   29.2390   39.7810 F   0  0  0  0  0  0  0  0  0  0  0  0
  1  2  1  0  0  0  0
  2 23  1  0  0  0  0
  2  3  2  0  0  0  0
  3  8  1  0  0  0  0
  4  3  1  0  0  0  0
  5  4  2  0  0  0  0
  6  1  2  0  0  0  0
  6  5  1  0  0  0  0
  7  1  1  0  0  0  0
  9 14  1  1  0  0  0
 10 15  1  1  0  0  0
 10  5  1  0  0  0  0
 10  9  1  0  0  0  0
 11 10  1  0  0  0  0
 12 11  1  0  0  0  0
 12 13  1  0  0  0  0
 13 21  1  0  0  0  0
 13 18  1  1  0  0  0
 13  9  1  0  0  0  0
 16 12  1  0  0  0  0
 17 12  1  0  0  0  0
 19  9  1  0  0  0  0
 20 19  1  0  0  0  0
 21 22  1  0  0  0  0
 23 26  1  0  0  0  0
 23 25  1  0  0  0  0
 24 23  1  0  0  0  0
 26 27  1  0  0  0  0
 27 32  1  0  0  0  0
 27 28  2  0  0  0  0
 28 33  1  0  0  0  0
 29 34  1  0  0  0  0
 29 28  1  0  0  0  0
 30 29  2  0  0  0  0
 31 30  1  0  0  0  0
 31 26  2  0  0  0  0
 35 30  1  0  0  0  0
 36 39  1  0  0  0  0
 36 31  1  0  0  0  0
 37 36  1  0  0  0  0
 38 36  1  0  0  0  0
M  END
>  <minimizedAffinity>
-5.74227142

$$$$

 OpenBabel03252503483D

 39 41  0  0  1  0  0  0  0  0999 V2000
   38.8040   30.7630   40.0410 C   0  0  0  0  0  0  0  0  0  0  0  0
   37.6600   31.4080   40.4800 C   0  0  0  0  0  0  0  0  0  0  0  0
   37.6340   32.7820   40.3380 C   0  0  0  0  0  0  0  0  0  0  0  0
   38.6740   33.4750   39.7920 N   0  0  0  0  0  0  0  0  0  0  0  0
   39.7740   32.7960   39.3760 C   0  0  0  0  0  0  0  0  0  0  0  0
   39.8470   31.4550   39.4960 N   0  0  0  0  0  0  0  0  0  0  0  0
   38.8740   29.6870   40.1290 H   0  0  0  0  0  0  0  0  0  0  0  0
   36.8860   33.4850   40.6550 H   0  0  0  0  0  0  0  0  0  0  0  0
   42.1860   33.3660   39.6210 C   0  0  2  0  0  0  0  0  0  0  0  0
   40.8770   33.5610   38.7980 C   0  0  1  0  0  0  0  0  0  0  0  0
   41.3300   33.1360   37.5970 O   0  0  0  0  0  0  0  0  0  0  0  0
   42.5360   33.7330   37.3660 C   0  0  0  0  0  0  0  0  0  0  0  0
   43.1110   34.1600   38.6860 C   0  0  2  0  0  0  0  0  0  0  0  0
   42.0910   33.8330   40.6130 H   0  0  0  0  0  0  0  0  0  0  0  0
   40.6360   34.6430   38.8110 H   0  0  0  0  0  0  0  0  0  0  0  0
   42.4820   34.5710   36.6340 H   0  0  0  0  0  0  0  0  0  0  0  0
   43.2260   32.9940   36.9090 H   0  0  0  0  0  0  0  0  0  0  0  0
   42.9070   35.2520   38.8030 H   0  0  0  0  0  0  0  0  0  0  0  0
   42.5770   32.0790   39.5710 O   0  0  0  0  0  0  0  0  0  0  0  0
   41.8930   31.4050   39.3410 H   0  0  0  0  0  0  0  0  0  0  0  0
   44.4330   33.8390   38.8440 O   0  0  0  0  0  0  0  0  0  0  0  0
   44.9240   34.6730   39.0700 H   0  0  0  0  0  0  0  0  0  0  0  0
   36.5370   30.7070   41.0550 C   0  0  0  0  0  0  0  0  0  0  0  0
   35.5810   31.2570   41.1090 H   0  0  0  0  0  0  0  0  0  0  0  0
   36.7380   30.4930   42.1250 H   0  0  0  0  0  0  0  0  0  0  0  0
   36.4050   29.3560   40.4410 C   0  0  0  0  0  0  0  0  0  0  0  0
   35.8770   29.1380   39.1720 C   0  0  0  0  0  0  0  0  0  0  0  0
   35.7510   27.8970   38.6190 C   0  0  0  0  0  0  0  0  0  0  0  0
   36.1750   26.8480   39.3800 C   0  0  0  0  0  0  0  0  0  0  0  0
   36.6990   27.0690   40.6360 C   0  0  0  0  0  0  0  0  0  0  0  0
   36.8570   28.3080   41.2610 C   0  0  0  0  0  0  0  0  0  0  0  0
   35.5840   30.0870   38.6950 H   0  0  0  0  0  0  0  0  0  0  0  0
   35.3310   27.9450   37.6490 H   0  0  0  0  0  0  0  0  0  0  0  0
   36.0560   25.8800   38.9020 H   0  0  0  0  0  0  0  0  0  0  0  0
   36.9720   26.0970   41.0730 H   0  0  0  0  0  0  0  0  0  0  0  0
   37.3850   28.1850   42.6020 C   0  0  0  0  0  0  0  0  0  0  0  0
   38.6780   27.6170   42.6730 F   0  0  0  0  0  0  0  0  0  0  0  0
   37.2420   29.0450   43.5780 F   0  0  0  0  0  0  0  0  0  0  0  0
   36.6750   27.0240   43.1540 F   0  0  0  0  0  0  0  0  0  0  0  0
  1  7  1  0  0  0  0
  1  2  1  0  0  0  0
  2 23  1  0  0  0  0
  3  2  2  0  0  0  0
  3  8  1  0  0  0  0
  4  3  1  0  0  0  0
  5  6  1  0  0  0  0
  5  4  2  0  0  0  0
  6  1  2  0  0  0  0
  9 14  1  1  0  0  0
 10 15  1  6  0  0  0
 10  5  1  0  0  0  0
 10  9  1  0  0  0  0
 11 10  1  0  0  0  0
 12 11  1  0  0  0  0
 12 13  1  0  0  0  0
 13 18  1  1  0  0  0
 13 21  1  0  0  0  0
 13  9  1  0  0  0  0
 16 12  1  0  0  0  0
 17 12  1  0  0  0  0
 19  9  1  0  0  0  0
 20 19  1  0  0  0  0
 21 22  1  0  0  0  0
 23 24  1  0  0  0  0
 23 25  1  0  0  0  0
 26 23  1  0  0  0  0
 26 31  1  0  0  0  0
 27 26  2  0  0  0  0
 28 27  1  0  0  0  0
 28 29  2  0  0  0  0
 29 30  1  0  0  0  0
 30 35  1  0  0  0  0
 30 31  2  0  0  0  0
 31 36  1  0  0  0  0
 32 27  1  0  0  0  0
 33 28  1  0  0  0  0
 34 29  1  0  0  0  0
 36 37  1  0  0  0  0
 36 39  1  0  0  0  0
 36 38  1  0  0  0  0
M  END
>  <minimizedAffinity>
-5.68853903

$$$$

 OpenBabel03252503483D

 39 41  0  0  1  0  0  0  0  0999 V2000
   36.3090   29.1020   40.6490 C   0  0  0  0  0  0  0  0  0  0  0  0
   37.0060   30.1970   41.1340 C   0  0  0  0  0  0  0  0  0  0  0  0
   37.9710   29.9400   42.0880 C   0  0  0  0  0  0  0  0  0  0  0  0
   38.2340   28.6780   42.5340 N   0  0  0  0  0  0  0  0  0  0  0  0
   37.5230   27.6380   42.0270 C   0  0  0  0  0  0  0  0  0  0  0  0
   36.5690   27.8390   41.0960 N   0  0  0  0  0  0  0  0  0  0  0  0
   35.5430   29.2500   39.9000 H   0  0  0  0  0  0  0  0  0  0  0  0
   38.5870   30.6290   42.6370 H   0  0  0  0  0  0  0  0  0  0  0  0
   37.4500   25.2130   41.4650 C   0  0  2  0  0  0  0  0  0  0  0  0
   37.8190   26.2960   42.5230 C   0  0  1  0  0  0  0  0  0  0  0  0
   39.1290   25.9920   42.6720 O   0  0  0  0  0  0  0  0  0  0  0  0
   39.2340   24.6390   42.8180 C   0  0  0  0  0  0  0  0  0  0  0  0
   38.0030   24.0050   42.2370 C   0  0  2  0  0  0  0  0  0  0  0  0
   36.3590   25.1610   41.3300 H   0  0  0  0  0  0  0  0  0  0  0  0
   37.2210   26.0870   43.4330 H   0  0  0  0  0  0  0  0  0  0  0  0
   39.4220   24.3200   43.8680 H   0  0  0  0  0  0  0  0  0  0  0  0
   40.1130   24.2790   42.2460 H   0  0  0  0  0  0  0  0  0  0  0  0
   37.3180   23.7630   43.0850 H   0  0  0  0  0  0  0  0  0  0  0  0
   38.2100   25.3650   40.3630 O   0  0  0  0  0  0  0  0  0  0  0  0
   38.6240   26.2490   40.2150 H   0  0  0  0  0  0  0  0  0  0  0  0
   38.2620   22.9290   41.4300 O   0  0  0  0  0  0  0  0  0  0  0  0
   37.7370   22.1580   41.7720 H   0  0  0  0  0  0  0  0  0  0  0  0
   36.7620   31.5450   40.6800 C   0  0  0  0  0  0  0  0  0  0  0  0
   36.2010   32.2070   41.3630 H   0  0  0  0  0  0  0  0  0  0  0  0
   36.1030   31.5260   39.7880 H   0  0  0  0  0  0  0  0  0  0  0  0
   38.0240   32.1540   40.1750 C   0  0  0  0  0  0  0  0  0  0  0  0
   38.8240   33.0040   40.9340 C   0  0  0  0  0  0  0  0  0  0  0  0
   39.9750   33.5640   40.4610 C   0  0  0  0  0  0  0  0  0  0  0  0
   40.3220   33.2510   39.1800 C   0  0  0  0  0  0  0  0  0  0  0  0
   39.5270   32.4070   38.4340 C   0  0  0  0  0  0  0  0  0  0  0  0
   38.3420   31.7990   38.8520 C   0  0  0  0  0  0  0  0  0  0  0  0
   38.4020   33.1530   41.9400 H   0  0  0  0  0  0  0  0  0  0  0  0
   40.4370   34.1760   41.1910 H   0  0  0  0  0  0  0  0  0  0  0  0
   41.2430   33.7190   38.8460 H   0  0  0  0  0  0  0  0  0  0  0  0
   39.9840   32.2920   37.4390 H   0  0  0  0  0  0  0  0  0  0  0  0
   37.7230   31.0180   37.8040 C   0  0  0  0  0  0  0  0  0  0  0  0
   38.5270   29.9680   37.3040 F   0  0  0  0  0  0  0  0  0  0  0  0
   36.4650   30.6640   37.7360 F   0  0  0  0  0  0  0  0  0  0  0  0
   37.8320   31.8750   36.6170 F   0  0  0  0  0  0  0  0  0  0  0  0
  1  6  2  0  0  0  0
  1  2  1  0  0  0  0
  2  3  2  0  0  0  0
  3  4  1  0  0  0  0
  3  8  1  0  0  0  0
  5 10  1  0  0  0  0
  5  4  2  0  0  0  0
  6  5  1  0  0  0  0
  7  1  1  0  0  0  0
  9 14  1  6  0  0  0
  9 13  1  0  0  0  0
  9 10  1  0  0  0  0
 10 11  1  0  0  0  0
 10 15  1  1  0  0  0
 11 12  1  0  0  0  0
 12 16  1  0  0  0  0
 13 12  1  0  0  0  0
 13 18  1  1  0  0  0
 17 12  1  0  0  0  0
 19  9  1  0  0  0  0
 20 19  1  0  0  0  0
 21 22  1  0  0  0  0
 21 13  1  0  0  0  0
 23  2  1  0  0  0  0
 23 24  1  0  0  0  0
 25 23  1  0  0  0  0
 26 23  1  0  0  0  0
 26 27  1  0  0  0  0
 27 32  1  0  0  0  0
 28 27  2  0  0  0  0
 28 33  1  0  0  0  0
 29 28  1  0  0  0  0
 30 31  1  0  0  0  0
 30 29  2  0  0  0  0
 31 26  2  0  0  0  0
 34 29  1  0  0  0  0
 35 30  1  0  0  0  0
 36 31  1  0  0  0  0
 37 36  1  0  0  0  0
 38 36  1  0  0  0  0
 39 36  1  0  0  0  0
M  END
>  <minimizedAffinity>
-5.65978861

$$$$

 OpenBabel03252503483D

 39 41  0  0  1  0  0  0  0  0999 V2000
   39.8180   29.2920   40.7360 C   0  0  0  0  0  0  0  0  0  0  0  0
   38.7630   29.8950   41.3990 C   0  0  0  0  0  0  0  0  0  0  0  0
   38.7520   31.2770   41.4150 C   0  0  0  0  0  0  0  0  0  0  0  0
   39.7240   32.0170   40.8080 N   0  0  0  0  0  0  0  0  0  0  0  0
   40.7380   31.3780   40.1700 C   0  0  0  0  0  0  0  0  0  0  0  0
   40.7930   30.0310   40.1300 N   0  0  0  0  0  0  0  0  0  0  0  0
   39.8730   28.2130   40.6950 H   0  0  0  0  0  0  0  0  0  0  0  0
   38.0730   31.9470   41.9090 H   0  0  0  0  0  0  0  0  0  0  0  0
   41.4810   32.3710   38.0100 C   0  0  2  0  0  0  0  0  0  0  0  0
   41.7700   32.1920   39.5310 C   0  0  1  0  0  0  0  0  0  0  0  0
   41.8010   33.4980   39.8840 O   0  0  0  0  0  0  0  0  0  0  0  0
   42.5780   34.1610   38.9780 C   0  0  0  0  0  0  0  0  0  0  0  0
   42.6320   33.3460   37.7170 C   0  0  2  0  0  0  0  0  0  0  0  0
   41.5970   31.4130   37.4800 H   0  0  0  0  0  0  0  0  0  0  0  0
   42.7570   31.6960   39.6250 H   0  0  0  0  0  0  0  0  0  0  0  0
   43.5900   34.4150   39.3650 H   0  0  0  0  0  0  0  0  0  0  0  0
   42.1060   35.1370   38.7410 H   0  0  0  0  0  0  0  0  0  0  0  0
   43.5990   32.7880   37.7200 H   0  0  0  0  0  0  0  0  0  0  0  0
   40.3300   33.0470   37.8340 O   0  0  0  0  0  0  0  0  0  0  0  0
   39.6870   33.0520   38.5840 H   0  0  0  0  0  0  0  0  0  0  0  0
   42.4340   34.0780   36.5760 O   0  0  0  0  0  0  0  0  0  0  0  0
   43.2060   33.9130   35.9730 H   0  0  0  0  0  0  0  0  0  0  0  0
   37.7120   29.1450   42.0450 C   0  0  0  0  0  0  0  0  0  0  0  0
   36.8410   29.7180   42.4080 H   0  0  0  0  0  0  0  0  0  0  0  0
   38.0960   28.6950   42.9830 H   0  0  0  0  0  0  0  0  0  0  0  0
   37.3360   27.9670   41.2140 C   0  0  0  0  0  0  0  0  0  0  0  0
   37.7450   26.6670   41.4960 C   0  0  0  0  0  0  0  0  0  0  0  0
   37.4040   25.5940   40.7250 C   0  0  0  0  0  0  0  0  0  0  0  0
   36.6240   25.8520   39.6360 C   0  0  0  0  0  0  0  0  0  0  0  0
   36.2210   27.1420   39.3630 C   0  0  0  0  0  0  0  0  0  0  0  0
   36.5300   28.2820   40.1060 C   0  0  0  0  0  0  0  0  0  0  0  0
   38.3660   26.6340   42.4050 H   0  0  0  0  0  0  0  0  0  0  0  0
   37.8110   24.6950   41.1090 H   0  0  0  0  0  0  0  0  0  0  0  0
   36.3780   24.9700   39.0520 H   0  0  0  0  0  0  0  0  0  0  0  0
   35.6090   27.1250   38.4480 H   0  0  0  0  0  0  0  0  0  0  0  0
   35.9960   29.4890   39.5140 C   0  0  0  0  0  0  0  0  0  0  0  0
   35.0970   30.1980   40.3420 F   0  0  0  0  0  0  0  0  0  0  0  0
   36.6430   30.3380   38.7570 F   0  0  0  0  0  0  0  0  0  0  0  0
   34.9840   28.9970   38.5710 F   0  0  0  0  0  0  0  0  0  0  0  0
  1  2  1  0  0  0  0
  2  3  2  0  0  0  0
  2 23  1  0  0  0  0
  3  8  1  0  0  0  0
  4  3  1  0  0  0  0
  5  4  2  0  0  0  0
  6  5  1  0  0  0  0
  6  1  2  0  0  0  0
  7  1  1  0  0  0  0
  9 14  1  6  0  0  0
  9 10  1  0  0  0  0
 10 15  1  1  0  0  0
 10 11  1  0  0  0  0
 10  5  1  0  0  0  0
 12 16  1  0  0  0  0
 12 11  1  0  0  0  0
 13 18  1  6  0  0  0
 13  9  1  0  0  0  0
 13 12  1  0  0  0  0
 17 12  1  0  0  0  0
 19  9  1  0  0  0  0
 19 20  1  0  0  0  0
 21 13  1  0  0  0  0
 22 21  1  0  0  0  0
 23 24  1  0  0  0  0
 23 25  1  0  0  0  0
 26 27  1  0  0  0  0
 26 23  1  0  0  0  0
 27 32  1  0  0  0  0
 28 33  1  0  0  0  0
 28 27  2  0  0  0  0
 29 28  1  0  0  0  0
 30 29  2  0  0  0  0
 30 31  1  0  0  0  0
 31 26  2  0  0  0  0
 34 29  1  0  0  0  0
 35 30  1  0  0  0  0
 36 31  1  0  0  0  0
 36 37  1  0  0  0  0
 38 36  1  0  0  0  0
 39 36  1  0  0  0  0
M  END
>  <minimizedAffinity>
-5.56852484

$$$$
