
 OpenBabel03242521213D

 31 33  0  0  0  0  0  0  0  0999 V2000
   43.8140   34.4520   41.2010 C   0  0  0  0  0  0  0  0  0  0  0  0
   43.0910   35.6000   41.3220 C   0  0  0  0  0  0  0  0  0  0  0  0
   41.7110   35.6400   41.3610 C   0  0  0  0  0  0  0  0  0  0  0  0
   41.0950   34.4370   41.2700 N   0  0  0  0  0  0  0  0  0  0  0  0
   41.8080   33.3060   41.1520 C   0  0  0  0  0  0  0  0  0  0  0  0
   43.1630   33.2670   41.1140 N   0  0  0  0  0  0  0  0  0  0  0  0
   43.5910   36.5570   41.3930 H   0  0  0  0  0  0  0  0  0  0  0  0
   41.1320   36.5340   41.4550 H   0  0  0  0  0  0  0  0  0  0  0  0
   41.0990   32.0040   41.0550 C   0  0  0  0  0  0  0  0  0  0  0  0
   40.8410   31.2880   42.2080 C   0  0  0  0  0  0  0  0  0  0  0  0
   40.1930   30.0740   42.2340 C   0  0  0  0  0  0  0  0  0  0  0  0
   39.7790   29.5520   40.9990 C   0  0  0  0  0  0  0  0  0  0  0  0
   40.0360   30.2640   39.8640 C   0  0  0  0  0  0  0  0  0  0  0  0
   40.6850   31.4750   39.8580 C   0  0  0  0  0  0  0  0  0  0  0  0
   41.1710   31.7130   43.1480 H   0  0  0  0  0  0  0  0  0  0  0  0
   40.0210   29.5620   43.1750 H   0  0  0  0  0  0  0  0  0  0  0  0
   39.2680   28.6000   40.9970 H   0  0  0  0  0  0  0  0  0  0  0  0
   39.7010   29.8300   38.9300 H   0  0  0  0  0  0  0  0  0  0  0  0
   40.9530   32.2310   38.6070 C   0  0  0  0  0  0  0  0  0  0  0  0
   42.3360   32.4400   38.5420 F   0  0  0  0  0  0  0  0  0  0  0  0
   40.5900   31.5790   37.4680 F   0  0  0  0  0  0  0  0  0  0  0  0
   40.3890   33.4960   38.7300 F   0  0  0  0  0  0  0  0  0  0  0  0
   47.3000   35.0520   42.1630 C   0  0  0  0  0  0  0  0  0  0  0  0
   48.0010   34.4880   41.1050 C   0  0  0  0  0  0  0  0  0  0  0  0
   47.2930   33.9060   40.0680 C   0  0  0  0  0  0  0  0  0  0  0  0
   45.9220   33.9090   40.1290 N   0  0  0  0  0  0  0  0  0  0  0  0
   45.2690   34.4630   41.1650 C   0  0  0  0  0  0  0  0  0  0  0  0
   45.9470   35.0250   42.1660 N   0  0  0  0  0  0  0  0  0  0  0  0
   47.8970   35.4950   42.9480 H   0  0  0  0  0  0  0  0  0  0  0  0
   49.0560   34.4390   40.9750 H   0  0  0  0  0  0  0  0  0  0  0  0
   47.6420   33.4190   39.1670 H   0  0  0  0  0  0  0  0  0  0  0  0
  1  2  1  0  0  0  0
  2  3  2  0  0  0  0
  2  7  1  0  0  0  0
  3  8  1  0  0  0  0
  4  3  1  0  0  0  0
  5  4  2  0  0  0  0
  6  5  1  0  0  0  0
  6  1  2  0  0  0  0
  9  5  1  0  0  0  0
  9 10  1  0  0  0  0
 10 11  2  0  0  0  0
 10 15  1  0  0  0  0
 11 16  1  0  0  0  0
 12 11  1  0  0  0  0
 13 12  2  0  0  0  0
 14 13  1  0  0  0  0
 14  9  2  0  0  0  0
 17 12  1  0  0  0  0
 18 13  1  0  0  0  0
 19 22  1  0  0  0  0
 19 14  1  0  0  0  0
 20 19  1  0  0  0  0
 21 19  1  0  0  0  0
 23 28  1  0  0  0  0
 23 29  1  0  0  0  0
 24 23  2  0  0  0  0
 25 26  2  0  0  0  0
 25 24  1  0  0  0  0
 26 27  1  0  0  0  0
 27  1  1  0  0  0  0
 27 28  2  0  0  0  0
 30 24  1  0  0  0  0
 31 25  1  0  0  0  0
M  END
>  <minimizedAffinity>
-4.75321198

>  <minimizedRMSD>
7.67907333

$$$$
