
 OpenBabel03252503303D

 32 33  0  0  1  0  0  0  0  0999 V2000
   45.3260   34.8740   42.4910 C   0  0  0  0  0  0  0  0  0  0  0  0
   46.4400   35.3430   41.7620 C   0  0  0  0  0  0  0  0  0  0  0  0
   47.6950   34.9380   42.2310 C   0  0  0  0  0  0  0  0  0  0  0  0
   47.7430   34.1450   43.3230 N   0  0  0  0  0  0  0  0  0  0  0  0
   46.6510   33.7280   43.9790 C   0  0  0  0  0  0  0  0  0  0  0  0
   45.4310   34.0990   43.5540 N   0  0  0  0  0  0  0  0  0  0  0  0
   43.6010   34.5100   40.9460 C   0  0  0  0  0  0  0  0  0  0  0  0
   44.4070   33.6860   40.4190 O   0  0  0  0  0  0  0  0  0  0  0  0
   44.0010   35.2450   42.0750 N   0  0  0  0  0  0  0  0  0  0  0  0
   42.3200   34.6160   40.3180 N   0  0  0  0  0  0  0  0  0  0  0  0
   42.0810   34.0930   38.9900 C   0  0  0  0  0  0  0  0  0  0  0  0
   41.0760   35.0710   38.4390 C   0  0  0  0  0  0  0  0  0  0  0  0
   40.6720   35.9840   39.5710 C   0  0  0  0  0  0  0  0  0  0  0  0
   41.0810   35.1990   40.7830 C   0  0  1  0  0  0  0  0  0  0  0  0
   46.2200   35.9720   40.9100 H   0  0  0  0  0  0  0  0  0  0  0  0
   46.7450   33.0920   44.8490 H   0  0  0  0  0  0  0  0  0  0  0  0
   43.3240   35.9370   42.4600 H   0  0  0  0  0  0  0  0  0  0  0  0
   43.0170   34.0660   38.3770 H   0  0  0  0  0  0  0  0  0  0  0  0
   41.6780   33.0490   39.0190 H   0  0  0  0  0  0  0  0  0  0  0  0
   40.2060   34.5480   37.9970 H   0  0  0  0  0  0  0  0  0  0  0  0
   41.6170   35.7090   37.6970 H   0  0  0  0  0  0  0  0  0  0  0  0
   41.1260   36.9850   39.5280 H   0  0  0  0  0  0  0  0  0  0  0  0
   39.5760   36.0980   39.5070 H   0  0  0  0  0  0  0  0  0  0  0  0
   41.3010   35.8860   41.6130 H   0  0  0  0  0  0  0  0  0  0  0  0
   48.8390   35.4400   41.4550 C   0  0  0  0  0  0  0  0  0  0  0  0
   49.9530   34.6560   41.7350 F   0  0  0  0  0  0  0  0  0  0  0  0
   49.1430   36.7020   41.9400 F   0  0  0  0  0  0  0  0  0  0  0  0
   48.6470   35.4050   40.1030 F   0  0  0  0  0  0  0  0  0  0  0  0
   40.0520   34.1570   41.1640 C   0  0  0  0  0  0  0  0  0  0  0  0
   40.6360   32.9120   40.9460 F   0  0  0  0  0  0  0  0  0  0  0  0
   38.9250   34.2830   40.3780 F   0  0  0  0  0  0  0  0  0  0  0  0
   39.7590   34.2060   42.4970 F   0  0  0  0  0  0  0  0  0  0  0  0
  1  6  1  0  0  0  0
  2  3  1  0  0  0  0
  2  1  2  0  0  0  0
  3  4  2  0  0  0  0
  4  5  1  0  0  0  0
  5 16  1  0  0  0  0
  6  5  2  0  0  0  0
  7  9  1  0  0  0  0
  8  7  2  0  0  0  0
  9 17  1  0  0  0  0
  9  1  1  0  0  0  0
 10 14  1  0  0  0  0
 10  7  1  0  0  0  0
 11 19  1  0  0  0  0
 11 10  1  0  0  0  0
 12 11  1  0  0  0  0
 12 13  1  0  0  0  0
 13 14  1  0  0  0  0
 14 29  1  0  0  0  0
 14 24  1  1  0  0  0
 15  2  1  0  0  0  0
 18 11  1  0  0  0  0
 20 12  1  0  0  0  0
 21 12  1  0  0  0  0
 22 13  1  0  0  0  0
 23 13  1  0  0  0  0
 25 26  1  0  0  0  0
 25 27  1  0  0  0  0
 25  3  1  0  0  0  0
 28 25  1  0  0  0  0
 29 32  1  0  0  0  0
 30 29  1  0  0  0  0
 31 29  1  0  0  0  0
M  END
>  <minimizedAffinity>
-6.7868433

>  <minimizedRMSD>
0.982032537

$$$$
