
 OpenBabel03252509213D

 20 21  0  0  0  0  0  0  0  0999 V2000
   45.2310   34.6790   44.9360 C   0  0  0  0  0  0  0  0  0  0  0  0
   46.0410   34.5440   43.7610 C   0  0  0  0  0  0  0  0  0  0  0  0
   46.9770   33.5330   43.8450 C   0  0  0  0  0  0  0  0  0  0  0  0
   47.1060   32.7340   44.9670 N   0  0  0  0  0  0  0  0  0  0  0  0
   46.3060   32.9140   46.0460 C   0  0  0  0  0  0  0  0  0  0  0  0
   45.3790   33.8840   46.0160 N   0  0  0  0  0  0  0  0  0  0  0  0
   44.4730   35.4240   44.9960 H   0  0  0  0  0  0  0  0  0  0  0  0
   46.5790   32.1870   46.7950 H   0  0  0  0  0  0  0  0  0  0  0  0
   47.8010   33.2530   42.6160 C   0  0  0  0  0  0  0  0  0  0  0  0
   49.2390   33.7650   42.7930 C   0  0  0  0  0  0  0  0  0  0  0  0
   48.8360   32.2640   42.6960 C   0  0  0  0  0  0  0  0  0  0  0  0
   47.3710   33.6610   41.6940 H   0  0  0  0  0  0  0  0  0  0  0  0
   49.4970   34.1570   43.7790 H   0  0  0  0  0  0  0  0  0  0  0  0
   49.7850   34.1720   41.9410 H   0  0  0  0  0  0  0  0  0  0  0  0
   49.2360   31.7400   41.7770 H   0  0  0  0  0  0  0  0  0  0  0  0
   49.0990   31.7110   43.6390 H   0  0  0  0  0  0  0  0  0  0  0  0
   45.8030   35.4420   42.6360 C   0  0  0  0  0  0  0  0  0  0  0  0
   46.9880   35.9590   42.1520 F   0  0  0  0  0  0  0  0  0  0  0  0
   44.8990   36.4340   42.9460 F   0  0  0  0  0  0  0  0  0  0  0  0
   45.2470   34.7250   41.5930 F   0  0  0  0  0  0  0  0  0  0  0  0
  1  7  1  0  0  0  0
  1  6  1  0  0  0  0
  2  3  1  0  0  0  0
  2  1  2  0  0  0  0
  3  4  2  0  0  0  0
  4  5  1  0  0  0  0
  5  8  1  0  0  0  0
  6  5  2  0  0  0  0
  9 11  1  0  0  0  0
  9 10  1  0  0  0  0
  9  3  1  0  0  0  0
 10 13  1  0  0  0  0
 11 10  1  0  0  0  0
 11 16  1  0  0  0  0
 12  9  1  0  0  0  0
 14 10  1  0  0  0  0
 15 11  1  0  0  0  0
 17 19  1  0  0  0  0
 17  2  1  0  0  0  0
 18 17  1  0  0  0  0
 20 17  1  0  0  0  0
M  END
>  <minimizedAffinity>
-3.91349363

>  <minimizedRMSD>
1.7963028

$$$$
