
 OpenBabel03252509203D

 20 21  0  0  0  0  0  0  0  0999 V2000
   44.6570   35.1940   45.1990 C   0  0  0  0  0  0  0  0  0  0  0  0
   45.3990   34.9670   43.9940 C   0  0  0  0  0  0  0  0  0  0  0  0
   46.3230   33.9450   44.0940 C   0  0  0  0  0  0  0  0  0  0  0  0
   46.5000   33.2190   45.2580 N   0  0  0  0  0  0  0  0  0  0  0  0
   45.7630   33.4840   46.3650 C   0  0  0  0  0  0  0  0  0  0  0  0
   44.8520   34.4690   46.3200 N   0  0  0  0  0  0  0  0  0  0  0  0
   43.9160   35.9560   45.2510 H   0  0  0  0  0  0  0  0  0  0  0  0
   46.0650   32.8030   47.1440 H   0  0  0  0  0  0  0  0  0  0  0  0
   47.0730   33.5700   42.8450 C   0  0  0  0  0  0  0  0  0  0  0  0
   48.5570   33.9520   42.9620 C   0  0  0  0  0  0  0  0  0  0  0  0
   48.0170   32.4930   42.9100 C   0  0  0  0  0  0  0  0  0  0  0  0
   46.6480   33.9990   41.9290 H   0  0  0  0  0  0  0  0  0  0  0  0
   48.8840   34.3370   43.9300 H   0  0  0  0  0  0  0  0  0  0  0  0
   49.1060   34.2920   42.0830 H   0  0  0  0  0  0  0  0  0  0  0  0
   48.3350   31.9180   41.9890 H   0  0  0  0  0  0  0  0  0  0  0  0
   48.2630   31.9350   43.8550 H   0  0  0  0  0  0  0  0  0  0  0  0
   45.1140   35.7940   42.8270 C   0  0  0  0  0  0  0  0  0  0  0  0
   43.7750   35.7430   42.4940 F   0  0  0  0  0  0  0  0  0  0  0  0
   45.9200   35.4770   41.7570 F   0  0  0  0  0  0  0  0  0  0  0  0
   45.3790   37.1160   43.1320 F   0  0  0  0  0  0  0  0  0  0  0  0
  1  7  1  0  0  0  0
  1  6  1  0  0  0  0
  2  3  1  0  0  0  0
  2  1  2  0  0  0  0
  3  4  2  0  0  0  0
  4  5  1  0  0  0  0
  5  8  1  0  0  0  0
  6  5  2  0  0  0  0
  9 11  1  0  0  0  0
  9 10  1  0  0  0  0
  9  3  1  0  0  0  0
 10 13  1  0  0  0  0
 11 10  1  0  0  0  0
 11 16  1  0  0  0  0
 12  9  1  0  0  0  0
 14 10  1  0  0  0  0
 15 11  1  0  0  0  0
 17 20  1  0  0  0  0
 17  2  1  0  0  0  0
 18 17  1  0  0  0  0
 19 17  1  0  0  0  0
M  END
>  <minimizedAffinity>
-4.02195168

>  <minimizedRMSD>
1.45599866

$$$$
