
 OpenBabel03242521213D

 31 33  0  0  0  0  0  0  0  0999 V2000
   43.8720   30.3960   36.9520 C   0  0  0  0  0  0  0  0  0  0  0  0
   43.2310   29.7470   35.9400 C   0  0  0  0  0  0  0  0  0  0  0  0
   41.9130   29.3390   36.0010 C   0  0  0  0  0  0  0  0  0  0  0  0
   41.2710   29.6300   37.1580 N   0  0  0  0  0  0  0  0  0  0  0  0
   41.9030   30.2700   38.1540 C   0  0  0  0  0  0  0  0  0  0  0  0
   43.1980   30.6710   38.0940 N   0  0  0  0  0  0  0  0  0  0  0  0
   43.7510   29.5190   35.0200 H   0  0  0  0  0  0  0  0  0  0  0  0
   41.3980   28.8290   35.2150 H   0  0  0  0  0  0  0  0  0  0  0  0
   41.1680   30.5730   39.4090 C   0  0  0  0  0  0  0  0  0  0  0  0
   41.0370   29.5890   40.3710 C   0  0  0  0  0  0  0  0  0  0  0  0
   40.3790   29.7610   41.5670 C   0  0  0  0  0  0  0  0  0  0  0  0
   39.8120   31.0230   41.8000 C   0  0  0  0  0  0  0  0  0  0  0  0
   39.9430   31.9910   40.8460 C   0  0  0  0  0  0  0  0  0  0  0  0
   40.6050   31.8000   39.6580 C   0  0  0  0  0  0  0  0  0  0  0  0
   41.4850   28.6250   40.1660 H   0  0  0  0  0  0  0  0  0  0  0  0
   40.3120   28.9480   42.2810 H   0  0  0  0  0  0  0  0  0  0  0  0
   39.2890   31.1800   42.7320 H   0  0  0  0  0  0  0  0  0  0  0  0
   39.4920   32.9510   41.0620 H   0  0  0  0  0  0  0  0  0  0  0  0
   40.7350   32.8710   38.6360 C   0  0  0  0  0  0  0  0  0  0  0  0
   40.2670   32.3420   37.4260 F   0  0  0  0  0  0  0  0  0  0  0  0
   40.0020   33.9880   38.8980 F   0  0  0  0  0  0  0  0  0  0  0  0
   42.0860   33.1230   38.4340 F   0  0  0  0  0  0  0  0  0  0  0  0
   46.8380   32.4760   36.3890 C   0  0  0  0  0  0  0  0  0  0  0  0
   47.8760   31.5820   36.6230 C   0  0  0  0  0  0  0  0  0  0  0  0
   47.5690   30.2780   36.9720 C   0  0  0  0  0  0  0  0  0  0  0  0
   46.2480   29.9200   37.0720 N   0  0  0  0  0  0  0  0  0  0  0  0
   45.2640   30.8050   36.8390 C   0  0  0  0  0  0  0  0  0  0  0  0
   45.5540   32.0630   36.5030 N   0  0  0  0  0  0  0  0  0  0  0  0
   47.1280   33.4820   36.1200 H   0  0  0  0  0  0  0  0  0  0  0  0
   48.9220   31.7700   36.5700 H   0  0  0  0  0  0  0  0  0  0  0  0
   48.2180   29.4410   37.1930 H   0  0  0  0  0  0  0  0  0  0  0  0
  1  6  1  0  0  0  0
  2  3  1  0  0  0  0
  2  1  2  0  0  0  0
  3  4  2  0  0  0  0
  4  5  1  0  0  0  0
  5  9  1  0  0  0  0
  6  5  2  0  0  0  0
  7  2  1  0  0  0  0
  8  3  1  0  0  0  0
  9 14  2  0  0  0  0
  9 10  1  0  0  0  0
 10 11  2  0  0  0  0
 11 12  1  0  0  0  0
 11 16  1  0  0  0  0
 12 17  1  0  0  0  0
 13 18  1  0  0  0  0
 13 12  2  0  0  0  0
 14 13  1  0  0  0  0
 15 10  1  0  0  0  0
 19 21  1  0  0  0  0
 19 14  1  0  0  0  0
 20 19  1  0  0  0  0
 22 19  1  0  0  0  0
 23 28  2  0  0  0  0
 23 24  1  0  0  0  0
 24 25  2  0  0  0  0
 25 26  1  0  0  0  0
 25 31  1  0  0  0  0
 27  1  1  0  0  0  0
 27 26  2  0  0  0  0
 28 27  1  0  0  0  0
 29 23  1  0  0  0  0
 30 24  1  0  0  0  0
M  END
>  <minimizedAffinity>
-2.76792932

>  <minimizedRMSD>
9.78797054

$$$$
