
 OpenBabel03242520043D

 34 36  0  0  1  0  0  0  0  0999 V2000
   47.1660   33.3100   41.2730 N   0  0  0  0  0  0  0  0  0  0  0  0
   46.5260   32.4970   42.2390 C   0  0  1  0  0  0  0  0  0  0  0  0
   46.7960   33.0760   43.6060 C   0  0  0  0  0  0  0  0  0  0  0  0
   46.1410   34.3850   43.6140 N   0  0  0  0  0  0  0  0  0  0  0  0
   46.7530   35.2980   42.6960 C   0  0  0  0  0  0  0  0  0  0  0  0
   47.1270   34.7040   41.3750 C   0  0  1  0  0  0  0  0  0  0  0  0
   46.9210   32.9720   40.3150 H   0  0  0  0  0  0  0  0  0  0  0  0
   46.9470   31.4670   42.1650 H   0  0  0  0  0  0  0  0  0  0  0  0
   47.8960   33.2490   43.6800 H   0  0  0  0  0  0  0  0  0  0  0  0
   46.4170   32.4610   44.4220 H   0  0  0  0  0  0  0  0  0  0  0  0
   46.0990   34.8040   44.5480 H   0  0  0  0  0  0  0  0  0  0  0  0
   46.0000   36.1230   42.5390 H   0  0  0  0  0  0  0  0  0  0  0  0
   47.5930   35.7880   43.2360 H   0  0  0  0  0  0  0  0  0  0  0  0
   46.4810   35.1220   40.5750 H   0  0  0  0  0  0  0  0  0  0  0  0
   43.1180   33.0310   41.4460 C   0  0  0  0  0  0  0  0  0  0  0  0
   43.0070   31.8570   42.1710 C   0  0  0  0  0  0  0  0  0  0  0  0
   44.2480   31.4940   42.5670 C   0  0  0  0  0  0  0  0  0  0  0  0
   45.1010   32.4280   42.0920 N   0  0  0  0  0  0  0  0  0  0  0  0
   44.4100   33.3480   41.4180 N   0  0  0  0  0  0  0  0  0  0  0  0
   42.0890   31.3250   42.3850 H   0  0  0  0  0  0  0  0  0  0  0  0
   44.5850   30.6400   43.1510 H   0  0  0  0  0  0  0  0  0  0  0  0
   41.2170   35.3840   39.3520 C   0  0  0  0  0  0  0  0  0  0  0  0
   39.8850   35.1190   39.7090 C   0  0  0  0  0  0  0  0  0  0  0  0
   39.6600   34.1280   40.6710 C   0  0  0  0  0  0  0  0  0  0  0  0
   40.7330   33.4910   41.1940 N   0  0  0  0  0  0  0  0  0  0  0  0
   42.0000   33.7680   40.8310 C   0  0  0  0  0  0  0  0  0  0  0  0
   42.2490   34.7120   39.9120 N   0  0  0  0  0  0  0  0  0  0  0  0
   41.3190   36.1550   38.6100 H   0  0  0  0  0  0  0  0  0  0  0  0
   39.0290   35.6090   39.3090 H   0  0  0  0  0  0  0  0  0  0  0  0
   38.6870   33.8170   41.0440 H   0  0  0  0  0  0  0  0  0  0  0  0
   48.5400   35.2300   41.0760 C   0  0  0  0  0  0  0  0  0  0  0  0
   49.5080   34.2980   41.4010 F   0  0  0  0  0  0  0  0  0  0  0  0
   48.6740   35.5040   39.7310 F   0  0  0  0  0  0  0  0  0  0  0  0
   48.8180   36.3750   41.7980 F   0  0  0  0  0  0  0  0  0  0  0  0
  1  6  1  0  0  0  0
  1  2  1  0  0  0  0
  2  8  1  6  0  0  0
  2  3  1  0  0  0  0
  3  4  1  0  0  0  0
  3  9  1  0  0  0  0
  3 10  1  0  0  0  0
  4 11  1  0  0  0  0
  5 13  1  0  0  0  0
  5  4  1  0  0  0  0
  6 14  1  6  0  0  0
  6  5  1  0  0  0  0
  7  1  1  0  0  0  0
 12  5  1  0  0  0  0
 15 16  1  0  0  0  0
 16 20  1  0  0  0  0
 16 17  2  0  0  0  0
 17 21  1  0  0  0  0
 18  2  1  0  0  0  0
 18 17  1  0  0  0  0
 19 15  2  0  0  0  0
 19 18  1  0  0  0  0
 22 23  2  0  0  0  0
 22 27  1  0  0  0  0
 23 24  1  0  0  0  0
 24 30  1  0  0  0  0
 24 25  2  0  0  0  0
 26 25  1  0  0  0  0
 26 15  1  0  0  0  0
 27 26  2  0  0  0  0
 28 22  1  0  0  0  0
 29 23  1  0  0  0  0
 31  6  1  0  0  0  0
 31 32  1  0  0  0  0
 31 34  1  0  0  0  0
 33 31  1  0  0  0  0
M  END
>  <minimizedAffinity>
-5.34241581

>  <minimizedRMSD>
7.3981266

$$$$
