
 OpenBabel03242523203D

 32 34  0  0  0  0  0  0  0  0999 V2000
   47.3700   32.8080   44.0240 C   0  0  0  0  0  0  0  0  0  0  0  0
   48.2260   33.3070   43.1200 C   0  0  0  0  0  0  0  0  0  0  0  0
   49.0650   32.3780   42.5470 C   0  0  0  0  0  0  0  0  0  0  0  0
   48.9600   31.0330   42.9490 N   0  0  0  0  0  0  0  0  0  0  0  0
   48.0950   30.6200   43.8460 C   0  0  0  0  0  0  0  0  0  0  0  0
   47.2390   31.5190   44.4370 N   0  0  0  0  0  0  0  0  0  0  0  0
   49.8190   32.5700   41.8030 H   0  0  0  0  0  0  0  0  0  0  0  0
   48.1280   29.5540   44.0570 H   0  0  0  0  0  0  0  0  0  0  0  0
   48.4100   34.6800   42.8000 C   0  0  0  0  0  0  0  0  0  0  0  0
   49.4360   35.2620   42.1250 C   0  0  0  0  0  0  0  0  0  0  0  0
   48.2000   35.0920   41.2790 C   0  0  0  0  0  0  0  0  0  0  0  0
   47.9460   35.3700   43.5290 H   0  0  0  0  0  0  0  0  0  0  0  0
   49.7770   36.3230   42.1300 H   0  0  0  0  0  0  0  0  0  0  0  0
   50.3320   34.6330   41.8300 H   0  0  0  0  0  0  0  0  0  0  0  0
   48.2020   34.2300   40.6140 H   0  0  0  0  0  0  0  0  0  0  0  0
   47.5030   35.9300   41.1400 H   0  0  0  0  0  0  0  0  0  0  0  0
   46.3030   33.5440   44.7150 C   0  0  0  0  0  0  0  0  0  0  0  0
   45.7260   33.9250   45.7010 O   0  0  0  0  0  0  0  0  0  0  0  0
   44.5560   31.7780   42.8870 Cl  0  0  0  0  0  0  0  0  0  0  0  0
   44.5780   33.5320   42.7660 C   0  0  0  0  0  0  0  0  0  0  0  0
   45.4270   34.1880   43.6850 C   0  0  0  0  0  0  0  0  0  0  0  0
   45.3750   35.5630   43.5170 C   0  0  0  0  0  0  0  0  0  0  0  0
   44.6680   36.2920   42.6430 C   0  0  0  0  0  0  0  0  0  0  0  0
   43.8710   35.5840   41.7850 C   0  0  0  0  0  0  0  0  0  0  0  0
   43.8180   34.2370   41.8350 C   0  0  0  0  0  0  0  0  0  0  0  0
   45.9590   36.2310   44.1860 H   0  0  0  0  0  0  0  0  0  0  0  0
   44.6580   37.3600   42.5440 H   0  0  0  0  0  0  0  0  0  0  0  0
   43.2360   36.0050   41.0200 H   0  0  0  0  0  0  0  0  0  0  0  0
   42.9820   33.3400   40.9500 C   0  0  0  0  0  0  0  0  0  0  0  0
   42.2230   34.1090   40.1230 F   0  0  0  0  0  0  0  0  0  0  0  0
   42.0880   32.6380   41.7700 F   0  0  0  0  0  0  0  0  0  0  0  0
   43.7480   32.4030   40.3100 F   0  0  0  0  0  0  0  0  0  0  0  0
  1  6  1  0  0  0  0
  1 17  1  0  0  0  0
  2  1  2  0  0  0  0
  3  4  2  0  0  0  0
  3  2  1  0  0  0  0
  4  5  1  0  0  0  0
  5  8  1  0  0  0  0
  5  6  2  0  0  0  0
  7  3  1  0  0  0  0
  9  2  1  0  0  0  0
  9 12  1  0  0  0  0
 10 13  1  0  0  0  0
 10  9  1  0  0  0  0
 11 10  1  0  0  0  0
 11  9  1  0  0  0  0
 14 10  1  0  0  0  0
 15 11  1  0  0  0  0
 16 11  1  0  0  0  0
 17 18  2  0  0  0  0
 20 19  1  0  0  0  0
 20 21  1  0  0  0  0
 21 17  1  0  0  0  0
 22 21  2  0  0  0  0
 22 26  1  0  0  0  0
 23 22  1  0  0  0  0
 24 25  1  0  0  0  0
 24 23  2  0  0  0  0
 25 20  2  0  0  0  0
 27 23  1  0  0  0  0
 28 24  1  0  0  0  0
 29 31  1  0  0  0  0
 29 25  1  0  0  0  0
 30 29  1  0  0  0  0
 32 29  1  0  0  0  0
M  END
>  <minimizedAffinity>
-5.22519827

>  <minimizedRMSD>
0.427884459

$$$$
