
 OpenBabel03252502443D

 26 27  0  0  1  0  0  0  0  0999 V2000
   47.0530   35.1120   41.5970 C   0  0  0  0  0  0  0  0  0  0  0  0
   46.5320   35.2870   40.6320 H   0  0  0  0  0  0  0  0  0  0  0  0
   47.0540   36.0260   42.2270 H   0  0  0  0  0  0  0  0  0  0  0  0
   48.4800   34.7100   41.3840 C   0  0  1  0  0  0  0  0  0  0  0  0
   49.5300   35.5180   42.0780 C   0  0  0  0  0  0  0  0  0  0  0  0
   49.2040   34.1540   42.5370 C   0  0  2  0  0  0  0  0  0  0  0  0
   48.6500   34.3700   40.3280 H   0  0  0  0  0  0  0  0  0  0  0  0
   50.4280   35.6990   41.4480 H   0  0  0  0  0  0  0  0  0  0  0  0
   49.2930   36.4440   42.6380 H   0  0  0  0  0  0  0  0  0  0  0  0
   48.8470   33.7760   43.4660 H   0  0  0  0  0  0  0  0  0  0  0  0
   50.2430   33.1140   42.0720 C   0  0  0  0  0  0  0  0  0  0  0  0
   51.5150   33.6570   42.2890 F   0  0  0  0  0  0  0  0  0  0  0  0
   50.2080   31.9710   42.8440 F   0  0  0  0  0  0  0  0  0  0  0  0
   50.0610   32.7230   40.7800 F   0  0  0  0  0  0  0  0  0  0  0  0
   46.3800   33.9210   42.2340 C   0  0  0  0  0  0  0  0  0  0  0  0
   47.2080   33.3410   42.7540 H   0  0  0  0  0  0  0  0  0  0  0  0
   45.7610   33.3350   41.5730 H   0  0  0  0  0  0  0  0  0  0  0  0
   44.4650   35.9360   44.7410 C   0  0  0  0  0  0  0  0  0  0  0  0
   45.0220   35.5250   43.5170 C   0  0  0  0  0  0  0  0  0  0  0  0
   45.7250   34.3530   43.5040 C   0  0  0  0  0  0  0  0  0  0  0  0
   45.8550   33.6330   44.6540 N   0  0  0  0  0  0  0  0  0  0  0  0
   45.3230   34.0330   45.7970 C   0  0  0  0  0  0  0  0  0  0  0  0
   44.6280   35.1800   45.8550 N   0  0  0  0  0  0  0  0  0  0  0  0
   43.8920   36.8280   44.9120 H   0  0  0  0  0  0  0  0  0  0  0  0
   44.7720   36.2440   42.7600 H   0  0  0  0  0  0  0  0  0  0  0  0
   45.5060   33.3630   46.6350 H   0  0  0  0  0  0  0  0  0  0  0  0
  1  3  1  0  0  0  0
  1 15  1  0  0  0  0
  2  1  1  0  0  0  0
  4  7  1  6  0  0  0
  4  1  1  0  0  0  0
  4  5  1  0  0  0  0
  4  6  1  0  0  0  0
  5  6  1  0  0  0  0
  5  9  1  0  0  0  0
  6 10  1  1  0  0  0
  8  5  1  0  0  0  0
 11 12  1  0  0  0  0
 11  6  1  0  0  0  0
 11 13  1  0  0  0  0
 14 11  1  0  0  0  0
 15 16  1  0  0  0  0
 15 20  1  0  0  0  0
 17 15  1  0  0  0  0
 18 24  1  0  0  0  0
 18 23  1  0  0  0  0
 19 18  2  0  0  0  0
 20 19  1  0  0  0  0
 20 21  2  0  0  0  0
 21 22  1  0  0  0  0
 22 23  2  0  0  0  0
 22 26  1  0  0  0  0
 25 19  1  0  0  0  0
M  END
>  <minimizedAffinity>
-4.65568018

>  <minimizedRMSD>
0.920372486

$$$$
