
 OpenBabel03242523193D

 32 34  0  0  0  0  0  0  0  0999 V2000
   47.3690   32.8100   44.0250 C   0  0  0  0  0  0  0  0  0  0  0  0
   48.2260   33.3080   43.1200 C   0  0  0  0  0  0  0  0  0  0  0  0
   49.0650   32.3790   42.5480 C   0  0  0  0  0  0  0  0  0  0  0  0
   48.9600   31.0350   42.9500 N   0  0  0  0  0  0  0  0  0  0  0  0
   48.0950   30.6220   43.8470 C   0  0  0  0  0  0  0  0  0  0  0  0
   47.2390   31.5200   44.4380 N   0  0  0  0  0  0  0  0  0  0  0  0
   49.8190   32.5710   41.8040 H   0  0  0  0  0  0  0  0  0  0  0  0
   48.1280   29.5560   44.0580 H   0  0  0  0  0  0  0  0  0  0  0  0
   48.4090   34.6820   42.8000 C   0  0  0  0  0  0  0  0  0  0  0  0
   49.4350   35.2630   42.1240 C   0  0  0  0  0  0  0  0  0  0  0  0
   48.2000   35.0930   41.2790 C   0  0  0  0  0  0  0  0  0  0  0  0
   47.9450   35.3710   43.5280 H   0  0  0  0  0  0  0  0  0  0  0  0
   49.7760   36.3240   42.1290 H   0  0  0  0  0  0  0  0  0  0  0  0
   50.3310   34.6340   41.8300 H   0  0  0  0  0  0  0  0  0  0  0  0
   48.2020   34.2300   40.6140 H   0  0  0  0  0  0  0  0  0  0  0  0
   47.5030   35.9310   41.1390 H   0  0  0  0  0  0  0  0  0  0  0  0
   46.3020   33.5450   44.7150 C   0  0  0  0  0  0  0  0  0  0  0  0
   45.7250   33.9270   45.7000 O   0  0  0  0  0  0  0  0  0  0  0  0
   44.5560   31.7790   42.8870 Cl  0  0  0  0  0  0  0  0  0  0  0  0
   44.5780   33.5320   42.7660 C   0  0  0  0  0  0  0  0  0  0  0  0
   45.4260   34.1890   43.6850 C   0  0  0  0  0  0  0  0  0  0  0  0
   45.3740   35.5630   43.5160 C   0  0  0  0  0  0  0  0  0  0  0  0
   44.6670   36.2920   42.6410 C   0  0  0  0  0  0  0  0  0  0  0  0
   43.8710   35.5840   41.7840 C   0  0  0  0  0  0  0  0  0  0  0  0
   43.8170   34.2360   41.8340 C   0  0  0  0  0  0  0  0  0  0  0  0
   45.9580   36.2320   44.1840 H   0  0  0  0  0  0  0  0  0  0  0  0
   44.6570   37.3610   42.5420 H   0  0  0  0  0  0  0  0  0  0  0  0
   43.2350   36.0040   41.0190 H   0  0  0  0  0  0  0  0  0  0  0  0
   42.9820   33.3390   40.9500 C   0  0  0  0  0  0  0  0  0  0  0  0
   42.2210   34.1080   40.1220 F   0  0  0  0  0  0  0  0  0  0  0  0
   42.0870   32.6380   41.7690 F   0  0  0  0  0  0  0  0  0  0  0  0
   43.7480   32.4030   40.3100 F   0  0  0  0  0  0  0  0  0  0  0  0
  1  6  1  0  0  0  0
  1 17  1  0  0  0  0
  2  1  2  0  0  0  0
  3  4  2  0  0  0  0
  3  2  1  0  0  0  0
  4  5  1  0  0  0  0
  5  8  1  0  0  0  0
  5  6  2  0  0  0  0
  7  3  1  0  0  0  0
  9  2  1  0  0  0  0
  9 12  1  0  0  0  0
 10 13  1  0  0  0  0
 10  9  1  0  0  0  0
 11 10  1  0  0  0  0
 11  9  1  0  0  0  0
 14 10  1  0  0  0  0
 15 11  1  0  0  0  0
 16 11  1  0  0  0  0
 17 18  2  0  0  0  0
 20 19  1  0  0  0  0
 20 21  1  0  0  0  0
 21 17  1  0  0  0  0
 22 21  2  0  0  0  0
 22 26  1  0  0  0  0
 23 22  1  0  0  0  0
 24 25  1  0  0  0  0
 24 23  2  0  0  0  0
 25 20  2  0  0  0  0
 27 23  1  0  0  0  0
 28 24  1  0  0  0  0
 29 31  1  0  0  0  0
 29 25  1  0  0  0  0
 30 29  1  0  0  0  0
 32 29  1  0  0  0  0
M  END
>  <minimizedAffinity>
-5.22480392

>  <minimizedRMSD>
0.410117507

$$$$
