
 OpenBabel03242519593D

 23 24  0  0  0  0  0  0  0  0999 V2000
   37.9880   29.2890   42.7960 Br  0  0  0  0  0  0  0  0  0  0  0  0
   37.4560   28.3850   41.1910 C   0  0  0  0  0  0  0  0  0  0  0  0
   37.4450   28.9940   39.9430 C   0  0  0  0  0  0  0  0  0  0  0  0
   37.0460   28.2520   38.8650 C   0  0  0  0  0  0  0  0  0  0  0  0
   36.6580   26.9360   38.9760 C   0  0  0  0  0  0  0  0  0  0  0  0
   36.6600   26.3070   40.2030 C   0  0  0  0  0  0  0  0  0  0  0  0
   37.0650   27.0630   41.2940 C   0  0  0  0  0  0  0  0  0  0  0  0
   37.0510   28.7580   37.9100 H   0  0  0  0  0  0  0  0  0  0  0  0
   36.3540   26.4050   38.0840 H   0  0  0  0  0  0  0  0  0  0  0  0
   36.3600   25.2800   40.3000 H   0  0  0  0  0  0  0  0  0  0  0  0
   37.3990   32.7830   39.9010 C   0  0  0  0  0  0  0  0  0  0  0  0
   36.9690   31.4480   39.9510 C   0  0  0  0  0  0  0  0  0  0  0  0
   37.8680   30.3960   39.8930 C   0  0  0  0  0  0  0  0  0  0  0  0
   39.1850   30.7350   39.7860 N   0  0  0  0  0  0  0  0  0  0  0  0
   39.5980   32.0210   39.7380 C   0  0  0  0  0  0  0  0  0  0  0  0
   38.7180   33.0290   39.7940 N   0  0  0  0  0  0  0  0  0  0  0  0
   36.6770   33.5880   39.9470 H   0  0  0  0  0  0  0  0  0  0  0  0
   35.9140   31.2300   40.0360 H   0  0  0  0  0  0  0  0  0  0  0  0
   40.6630   32.1950   39.6520 H   0  0  0  0  0  0  0  0  0  0  0  0
   37.0730   26.3980   42.6310 C   0  0  0  0  0  0  0  0  0  0  0  0
   38.3330   26.3580   43.1650 F   0  0  0  0  0  0  0  0  0  0  0  0
   36.6510   25.0790   42.5300 F   0  0  0  0  0  0  0  0  0  0  0  0
   36.2030   27.0270   43.4960 F   0  0  0  0  0  0  0  0  0  0  0  0
  2  7  1  0  0  0  0
  2  1  1  0  0  0  0
  3  2  2  0  0  0  0
  4  5  2  0  0  0  0
  4  3  1  0  0  0  0
  5  6  1  0  0  0  0
  6 10  1  0  0  0  0
  6  7  2  0  0  0  0
  7 20  1  0  0  0  0
  8  4  1  0  0  0  0
  9  5  1  0  0  0  0
 11 17  1  0  0  0  0
 11 12  1  0  0  0  0
 12 18  1  0  0  0  0
 13  3  1  0  0  0  0
 13 12  2  0  0  0  0
 14 13  1  0  0  0  0
 15 14  2  0  0  0  0
 15 16  1  0  0  0  0
 16 11  2  0  0  0  0
 19 15  1  0  0  0  0
 20 21  1  0  0  0  0
 20 23  1  0  0  0  0
 22 20  1  0  0  0  0
M  END
>  <minimizedAffinity>
-4.88447857

$$$$

 OpenBabel03242519593D

 23 24  0  0  0  0  0  0  0  0999 V2000
   37.6910   28.1220   39.0460 Br  0  0  0  0  0  0  0  0  0  0  0  0
   37.4720   28.0570   40.9500 C   0  0  0  0  0  0  0  0  0  0  0  0
   37.6210   29.1670   41.7710 C   0  0  0  0  0  0  0  0  0  0  0  0
   37.4420   29.0040   43.1180 C   0  0  0  0  0  0  0  0  0  0  0  0
   37.1230   27.7880   43.6800 C   0  0  0  0  0  0  0  0  0  0  0  0
   36.9700   26.6700   42.8870 C   0  0  0  0  0  0  0  0  0  0  0  0
   37.1530   26.8400   41.5220 C   0  0  0  0  0  0  0  0  0  0  0  0
   37.5630   29.8900   43.7250 H   0  0  0  0  0  0  0  0  0  0  0  0
   36.9950   27.7260   44.7520 H   0  0  0  0  0  0  0  0  0  0  0  0
   36.7220   25.7170   43.3160 H   0  0  0  0  0  0  0  0  0  0  0  0
   37.3450   32.5280   40.0430 C   0  0  0  0  0  0  0  0  0  0  0  0
   36.9960   31.3230   40.6710 C   0  0  0  0  0  0  0  0  0  0  0  0
   37.9590   30.4310   41.1120 C   0  0  0  0  0  0  0  0  0  0  0  0
   39.2570   30.7930   40.9000 N   0  0  0  0  0  0  0  0  0  0  0  0
   39.5930   31.9540   40.2950 C   0  0  0  0  0  0  0  0  0  0  0  0
   38.6500   32.8080   39.8720 N   0  0  0  0  0  0  0  0  0  0  0  0
   36.5740   33.2080   39.7060 H   0  0  0  0  0  0  0  0  0  0  0  0
   35.9530   31.0800   40.8160 H   0  0  0  0  0  0  0  0  0  0  0  0
   40.6480   32.1590   40.1680 H   0  0  0  0  0  0  0  0  0  0  0  0
   36.9920   25.6390   40.6480 C   0  0  0  0  0  0  0  0  0  0  0  0
   36.0690   25.8560   39.6610 F   0  0  0  0  0  0  0  0  0  0  0  0
   36.5300   24.5530   41.3800 F   0  0  0  0  0  0  0  0  0  0  0  0
   38.2010   25.2630   40.1040 F   0  0  0  0  0  0  0  0  0  0  0  0
  1  2  1  0  0  0  0
  2  7  2  0  0  0  0
  2  3  1  0  0  0  0
  3  4  2  0  0  0  0
  4  5  1  0  0  0  0
  4  8  1  0  0  0  0
  5  9  1  0  0  0  0
  6 10  1  0  0  0  0
  6  5  2  0  0  0  0
  7  6  1  0  0  0  0
 11 12  1  0  0  0  0
 12 18  1  0  0  0  0
 12 13  2  0  0  0  0
 13  3  1  0  0  0  0
 14 13  1  0  0  0  0
 15 14  2  0  0  0  0
 16 11  2  0  0  0  0
 16 15  1  0  0  0  0
 17 11  1  0  0  0  0
 19 15  1  0  0  0  0
 20 22  1  0  0  0  0
 20  7  1  0  0  0  0
 21 20  1  0  0  0  0
 23 20  1  0  0  0  0
M  END
>  <minimizedAffinity>
-4.81655455

$$$$

 OpenBabel03242519593D

 23 24  0  0  0  0  0  0  0  0999 V2000
   36.4030   27.1120   39.2610 Br  0  0  0  0  0  0  0  0  0  0  0  0
   37.1390   27.4930   40.9900 C   0  0  0  0  0  0  0  0  0  0  0  0
   37.9150   26.5870   41.7020 C   0  0  0  0  0  0  0  0  0  0  0  0
   38.3890   26.9660   42.9290 C   0  0  0  0  0  0  0  0  0  0  0  0
   38.1240   28.2020   43.4750 C   0  0  0  0  0  0  0  0  0  0  0  0
   37.3560   29.1190   42.7890 C   0  0  0  0  0  0  0  0  0  0  0  0
   36.8770   28.7310   41.5460 C   0  0  0  0  0  0  0  0  0  0  0  0
   38.9900   26.2370   43.4540 H   0  0  0  0  0  0  0  0  0  0  0  0
   38.5290   28.4400   44.4490 H   0  0  0  0  0  0  0  0  0  0  0  0
   37.1440   30.0860   43.2060 H   0  0  0  0  0  0  0  0  0  0  0  0
   37.6220   22.9490   40.6850 C   0  0  0  0  0  0  0  0  0  0  0  0
   37.3660   24.1810   41.3060 C   0  0  0  0  0  0  0  0  0  0  0  0
   38.1610   25.2900   41.0670 C   0  0  0  0  0  0  0  0  0  0  0  0
   39.1970   25.1120   40.1970 N   0  0  0  0  0  0  0  0  0  0  0  0
   39.4420   23.9250   39.5990 C   0  0  0  0  0  0  0  0  0  0  0  0
   38.6660   22.8600   39.8410 N   0  0  0  0  0  0  0  0  0  0  0  0
   36.9870   22.0970   40.8880 H   0  0  0  0  0  0  0  0  0  0  0  0
   36.5320   24.2720   41.9880 H   0  0  0  0  0  0  0  0  0  0  0  0
   40.2870   23.8770   38.9250 H   0  0  0  0  0  0  0  0  0  0  0  0
   36.0440   29.7120   40.7890 C   0  0  0  0  0  0  0  0  0  0  0  0
   36.6000   30.0150   39.5750 F   0  0  0  0  0  0  0  0  0  0  0  0
   35.9420   30.9120   41.4800 F   0  0  0  0  0  0  0  0  0  0  0  0
   34.7590   29.2400   40.6250 F   0  0  0  0  0  0  0  0  0  0  0  0
  1  2  1  0  0  0  0
  2  7  2  0  0  0  0
  2  3  1  0  0  0  0
  3  4  2  0  0  0  0
  4  8  1  0  0  0  0
  4  5  1  0  0  0  0
  5  9  1  0  0  0  0
  6 10  1  0  0  0  0
  6  5  2  0  0  0  0
  7  6  1  0  0  0  0
 11 17  1  0  0  0  0
 11 12  1  0  0  0  0
 12 18  1  0  0  0  0
 13 12  2  0  0  0  0
 13  3  1  0  0  0  0
 14 13  1  0  0  0  0
 15 16  1  0  0  0  0
 15 14  2  0  0  0  0
 16 11  2  0  0  0  0
 19 15  1  0  0  0  0
 20 22  1  0  0  0  0
 20  7  1  0  0  0  0
 21 20  1  0  0  0  0
 23 20  1  0  0  0  0
M  END
>  <minimizedAffinity>
-4.80654001

$$$$

 OpenBabel03242519593D

 23 24  0  0  0  0  0  0  0  0999 V2000
   37.6970   27.1190   39.0850 Br  0  0  0  0  0  0  0  0  0  0  0  0
   37.5270   27.6940   40.9070 C   0  0  0  0  0  0  0  0  0  0  0  0
   37.6460   29.0200   41.2990 C   0  0  0  0  0  0  0  0  0  0  0  0
   37.5070   29.3170   42.6280 C   0  0  0  0  0  0  0  0  0  0  0  0
   37.2560   28.3530   43.5780 C   0  0  0  0  0  0  0  0  0  0  0  0
   37.1340   27.0280   43.2150 C   0  0  0  0  0  0  0  0  0  0  0  0
   37.2770   26.7320   41.8670 C   0  0  0  0  0  0  0  0  0  0  0  0
   37.6040   30.3590   42.8960 H   0  0  0  0  0  0  0  0  0  0  0  0
   37.1560   28.6530   44.6130 H   0  0  0  0  0  0  0  0  0  0  0  0
   36.9390   26.2680   43.9490 H   0  0  0  0  0  0  0  0  0  0  0  0
   37.1830   31.6280   38.5890 C   0  0  0  0  0  0  0  0  0  0  0  0
   36.9020   30.6960   39.6000 C   0  0  0  0  0  0  0  0  0  0  0  0
   37.9120   29.9980   40.2400 C   0  0  0  0  0  0  0  0  0  0  0  0
   39.1850   30.2700   39.8310 N   0  0  0  0  0  0  0  0  0  0  0  0
   39.4540   31.1670   38.8570 C   0  0  0  0  0  0  0  0  0  0  0  0
   38.4670   31.8360   38.2450 N   0  0  0  0  0  0  0  0  0  0  0  0
   36.3760   32.1610   38.1030 H   0  0  0  0  0  0  0  0  0  0  0  0
   35.8760   30.5160   39.8890 H   0  0  0  0  0  0  0  0  0  0  0  0
   40.4940   31.3180   38.5970 H   0  0  0  0  0  0  0  0  0  0  0  0
   37.1480   25.3020   41.4550 C   0  0  0  0  0  0  0  0  0  0  0  0
   38.3470   24.7870   41.0430 F   0  0  0  0  0  0  0  0  0  0  0  0
   36.2780   25.1730   40.3800 F   0  0  0  0  0  0  0  0  0  0  0  0
   36.6240   24.5430   42.4800 F   0  0  0  0  0  0  0  0  0  0  0  0
  1  2  1  0  0  0  0
  2  3  2  0  0  0  0
  2  7  1  0  0  0  0
  3  4  1  0  0  0  0
  4  8  1  0  0  0  0
  4  5  2  0  0  0  0
  5  9  1  0  0  0  0
  6  5  1  0  0  0  0
  6 10  1  0  0  0  0
  7  6  2  0  0  0  0
 11 12  1  0  0  0  0
 12 18  1  0  0  0  0
 12 13  2  0  0  0  0
 13  3  1  0  0  0  0
 14 13  1  0  0  0  0
 15 14  2  0  0  0  0
 16 11  2  0  0  0  0
 16 15  1  0  0  0  0
 17 11  1  0  0  0  0
 19 15  1  0  0  0  0
 20  7  1  0  0  0  0
 20 23  1  0  0  0  0
 21 20  1  0  0  0  0
 22 20  1  0  0  0  0
M  END
>  <minimizedAffinity>
-4.77795601

$$$$

 OpenBabel03242519593D

 23 24  0  0  0  0  0  0  0  0999 V2000
   36.8860   26.2600   40.3200 Br  0  0  0  0  0  0  0  0  0  0  0  0
   38.2300   26.0060   41.6650 C   0  0  0  0  0  0  0  0  0  0  0  0
   39.0770   24.9060   41.6940 C   0  0  0  0  0  0  0  0  0  0  0  0
   40.0000   24.8270   42.7020 C   0  0  0  0  0  0  0  0  0  0  0  0
   40.1140   25.7930   43.6760 C   0  0  0  0  0  0  0  0  0  0  0  0
   39.2860   26.8950   43.6700 C   0  0  0  0  0  0  0  0  0  0  0  0
   38.3510   26.9710   42.6470 C   0  0  0  0  0  0  0  0  0  0  0  0
   40.6430   23.9580   42.6920 H   0  0  0  0  0  0  0  0  0  0  0  0
   40.8660   25.6710   44.4450 H   0  0  0  0  0  0  0  0  0  0  0  0
   39.3670   27.6540   44.4260 H   0  0  0  0  0  0  0  0  0  0  0  0
   39.4210   23.0130   38.4300 C   0  0  0  0  0  0  0  0  0  0  0  0
   39.6040   23.9750   39.4350 C   0  0  0  0  0  0  0  0  0  0  0  0
   38.9040   23.9150   40.6290 C   0  0  0  0  0  0  0  0  0  0  0  0
   38.0360   22.8710   40.7660 N   0  0  0  0  0  0  0  0  0  0  0  0
   37.8610   21.9450   39.7980 C   0  0  0  0  0  0  0  0  0  0  0  0
   38.5440   22.0160   38.6470 N   0  0  0  0  0  0  0  0  0  0  0  0
   39.9790   23.0820   37.5050 H   0  0  0  0  0  0  0  0  0  0  0  0
   40.3040   24.7840   39.2790 H   0  0  0  0  0  0  0  0  0  0  0  0
   37.1510   21.1530   39.9940 H   0  0  0  0  0  0  0  0  0  0  0  0
   37.4450   28.1580   42.6250 C   0  0  0  0  0  0  0  0  0  0  0  0
   37.6060   28.8920   41.4800 F   0  0  0  0  0  0  0  0  0  0  0  0
   37.7270   29.0150   43.6800 F   0  0  0  0  0  0  0  0  0  0  0  0
   36.1290   27.7720   42.7700 F   0  0  0  0  0  0  0  0  0  0  0  0
  1  2  1  0  0  0  0
  2  3  2  0  0  0  0
  2  7  1  0  0  0  0
  3  4  1  0  0  0  0
  4  5  2  0  0  0  0
  5  9  1  0  0  0  0
  6  5  1  0  0  0  0
  6 10  1  0  0  0  0
  7  6  2  0  0  0  0
  8  4  1  0  0  0  0
 11 16  2  0  0  0  0
 11 12  1  0  0  0  0
 12 13  2  0  0  0  0
 13 14  1  0  0  0  0
 13  3  1  0  0  0  0
 15 19  1  0  0  0  0
 15 14  2  0  0  0  0
 16 15  1  0  0  0  0
 17 11  1  0  0  0  0
 18 12  1  0  0  0  0
 20  7  1  0  0  0  0
 20 23  1  0  0  0  0
 20 22  1  0  0  0  0
 21 20  1  0  0  0  0
M  END
>  <minimizedAffinity>
-4.69801283

$$$$

 OpenBabel03242519593D

 23 24  0  0  0  0  0  0  0  0999 V2000
   36.7000   26.8910   40.2930 Br  0  0  0  0  0  0  0  0  0  0  0  0
   38.0470   27.1820   41.6270 C   0  0  0  0  0  0  0  0  0  0  0  0
   38.5990   28.4290   41.8900 C   0  0  0  0  0  0  0  0  0  0  0  0
   39.5550   28.5200   42.8650 C   0  0  0  0  0  0  0  0  0  0  0  0
   39.9820   27.4280   43.5860 C   0  0  0  0  0  0  0  0  0  0  0  0
   39.4500   26.1780   43.3440 C   0  0  0  0  0  0  0  0  0  0  0  0
   38.4820   26.0900   42.3540 C   0  0  0  0  0  0  0  0  0  0  0  0
   39.9610   29.5050   43.0440 H   0  0  0  0  0  0  0  0  0  0  0  0
   40.7410   27.5670   44.3440 H   0  0  0  0  0  0  0  0  0  0  0  0
   39.7770   25.3190   43.9010 H   0  0  0  0  0  0  0  0  0  0  0  0
   38.2310   31.0490   39.1780 C   0  0  0  0  0  0  0  0  0  0  0  0
   38.7270   29.9720   39.9280 C   0  0  0  0  0  0  0  0  0  0  0  0
   38.1010   29.5500   41.0890 C   0  0  0  0  0  0  0  0  0  0  0  0
   36.9830   30.2400   41.4550 N   0  0  0  0  0  0  0  0  0  0  0  0
   36.5060   31.2780   40.7310 C   0  0  0  0  0  0  0  0  0  0  0  0
   37.1220   31.6760   39.6100 N   0  0  0  0  0  0  0  0  0  0  0  0
   38.7380   31.3600   38.2740 H   0  0  0  0  0  0  0  0  0  0  0  0
   39.6180   29.4560   39.5960 H   0  0  0  0  0  0  0  0  0  0  0  0
   35.6130   31.7670   41.0980 H   0  0  0  0  0  0  0  0  0  0  0  0
   37.8950   24.7450   42.0790 C   0  0  0  0  0  0  0  0  0  0  0  0
   36.5550   24.7140   42.3580 F   0  0  0  0  0  0  0  0  0  0  0  0
   38.4810   23.7760   42.8820 F   0  0  0  0  0  0  0  0  0  0  0  0
   38.1240   24.3680   40.7730 F   0  0  0  0  0  0  0  0  0  0  0  0
  1  2  1  0  0  0  0
  2  3  2  0  0  0  0
  2  7  1  0  0  0  0
  3  4  1  0  0  0  0
  4  8  1  0  0  0  0
  4  5  2  0  0  0  0
  5  9  1  0  0  0  0
  6  5  1  0  0  0  0
  6 10  1  0  0  0  0
  7  6  2  0  0  0  0
 11 16  2  0  0  0  0
 11 12  1  0  0  0  0
 12 13  2  0  0  0  0
 13 14  1  0  0  0  0
 13  3  1  0  0  0  0
 15 19  1  0  0  0  0
 15 14  2  0  0  0  0
 16 15  1  0  0  0  0
 17 11  1  0  0  0  0
 18 12  1  0  0  0  0
 20  7  1  0  0  0  0
 20 21  1  0  0  0  0
 20 22  1  0  0  0  0
 23 20  1  0  0  0  0
M  END
>  <minimizedAffinity>
-4.67080021

$$$$

 OpenBabel03242519593D

 23 24  0  0  0  0  0  0  0  0999 V2000
   37.9020   30.6250   39.3350 Br  0  0  0  0  0  0  0  0  0  0  0  0
   37.6130   29.6240   40.9450 C   0  0  0  0  0  0  0  0  0  0  0  0
   36.6410   28.6400   41.0640 C   0  0  0  0  0  0  0  0  0  0  0  0
   36.5220   27.9890   42.2620 C   0  0  0  0  0  0  0  0  0  0  0  0
   37.3280   28.2750   43.3410 C   0  0  0  0  0  0  0  0  0  0  0  0
   38.3010   29.2470   43.2500 C   0  0  0  0  0  0  0  0  0  0  0  0
   38.4170   29.9050   42.0330 C   0  0  0  0  0  0  0  0  0  0  0  0
   35.7560   27.2290   42.3180 H   0  0  0  0  0  0  0  0  0  0  0  0
   37.1840   27.7230   44.2610 H   0  0  0  0  0  0  0  0  0  0  0  0
   38.9350   29.4780   44.0860 H   0  0  0  0  0  0  0  0  0  0  0  0
   33.8960   28.8410   38.4590 C   0  0  0  0  0  0  0  0  0  0  0  0
   34.6680   29.1050   39.6010 C   0  0  0  0  0  0  0  0  0  0  0  0
   35.8170   28.3830   39.8800 C   0  0  0  0  0  0  0  0  0  0  0  0
   36.1480   27.4090   38.9850 N   0  0  0  0  0  0  0  0  0  0  0  0
   35.4040   27.1550   37.8850 C   0  0  0  0  0  0  0  0  0  0  0  0
   34.2940   27.8610   37.6280 N   0  0  0  0  0  0  0  0  0  0  0  0
   33.0020   29.4180   38.2630 H   0  0  0  0  0  0  0  0  0  0  0  0
   34.3650   29.8890   40.2810 H   0  0  0  0  0  0  0  0  0  0  0  0
   35.7420   26.3620   37.2310 H   0  0  0  0  0  0  0  0  0  0  0  0
   39.4660   30.9620   41.9160 C   0  0  0  0  0  0  0  0  0  0  0  0
   40.4530   30.5960   41.0410 F   0  0  0  0  0  0  0  0  0  0  0  0
   40.0900   31.1770   43.1380 F   0  0  0  0  0  0  0  0  0  0  0  0
   38.9090   32.1650   41.5390 F   0  0  0  0  0  0  0  0  0  0  0  0
  1  2  1  0  0  0  0
  2  3  2  0  0  0  0
  2  7  1  0  0  0  0
  3  4  1  0  0  0  0
  4  8  1  0  0  0  0
  4  5  2  0  0  0  0
  5  9  1  0  0  0  0
  6  5  1  0  0  0  0
  6 10  1  0  0  0  0
  7  6  2  0  0  0  0
 11 12  1  0  0  0  0
 12 13  2  0  0  0  0
 12 18  1  0  0  0  0
 13  3  1  0  0  0  0
 14 13  1  0  0  0  0
 15 14  2  0  0  0  0
 16 15  1  0  0  0  0
 16 11  2  0  0  0  0
 17 11  1  0  0  0  0
 19 15  1  0  0  0  0
 20  7  1  0  0  0  0
 20 22  1  0  0  0  0
 21 20  1  0  0  0  0
 23 20  1  0  0  0  0
M  END
>  <minimizedAffinity>
-4.64328671

$$$$

 OpenBabel03242519593D

 23 24  0  0  0  0  0  0  0  0999 V2000
   36.9600   25.3560   40.2130 Br  0  0  0  0  0  0  0  0  0  0  0  0
   37.8550   26.5320   41.4360 C   0  0  0  0  0  0  0  0  0  0  0  0
   37.7310   27.9140   41.3890 C   0  0  0  0  0  0  0  0  0  0  0  0
   38.4170   28.6570   42.3130 C   0  0  0  0  0  0  0  0  0  0  0  0
   39.2160   28.0840   43.2760 C   0  0  0  0  0  0  0  0  0  0  0  0
   39.3560   26.7130   43.3440 C   0  0  0  0  0  0  0  0  0  0  0  0
   38.6600   25.9650   42.4060 C   0  0  0  0  0  0  0  0  0  0  0  0
   38.2960   29.7290   42.2470 H   0  0  0  0  0  0  0  0  0  0  0  0
   39.7310   28.7270   43.9770 H   0  0  0  0  0  0  0  0  0  0  0  0
   39.9780   26.2560   44.0920 H   0  0  0  0  0  0  0  0  0  0  0  0
   34.7150   29.2590   39.5310 C   0  0  0  0  0  0  0  0  0  0  0  0
   35.5240   28.7340   40.5500 C   0  0  0  0  0  0  0  0  0  0  0  0
   36.8660   28.4620   40.3410 C   0  0  0  0  0  0  0  0  0  0  0  0
   37.3480   28.7340   39.0950 N   0  0  0  0  0  0  0  0  0  0  0  0
   36.5690   29.2390   38.1130 C   0  0  0  0  0  0  0  0  0  0  0  0
   35.2710   29.4970   38.3290 N   0  0  0  0  0  0  0  0  0  0  0  0
   33.6690   29.4630   39.7180 H   0  0  0  0  0  0  0  0  0  0  0  0
   35.0950   28.5360   41.5230 H   0  0  0  0  0  0  0  0  0  0  0  0
   37.0370   29.4220   37.1550 H   0  0  0  0  0  0  0  0  0  0  0  0
   38.8000   24.4790   42.4650 C   0  0  0  0  0  0  0  0  0  0  0  0
   37.5860   23.8650   42.6120 F   0  0  0  0  0  0  0  0  0  0  0  0
   39.5640   24.0970   43.5590 F   0  0  0  0  0  0  0  0  0  0  0  0
   39.4480   24.0030   41.3450 F   0  0  0  0  0  0  0  0  0  0  0  0
  1  2  1  0  0  0  0
  2  7  1  0  0  0  0
  3  2  2  0  0  0  0
  3  4  1  0  0  0  0
  4  5  2  0  0  0  0
  5  6  1  0  0  0  0
  5  9  1  0  0  0  0
  6 10  1  0  0  0  0
  7 20  1  0  0  0  0
  7  6  2  0  0  0  0
  8  4  1  0  0  0  0
 11 17  1  0  0  0  0
 11 12  1  0  0  0  0
 12 18  1  0  0  0  0
 13 12  2  0  0  0  0
 13  3  1  0  0  0  0
 14 13  1  0  0  0  0
 15 16  1  0  0  0  0
 15 14  2  0  0  0  0
 16 11  2  0  0  0  0
 19 15  1  0  0  0  0
 20 21  1  0  0  0  0
 20 22  1  0  0  0  0
 23 20  1  0  0  0  0
M  END
>  <minimizedAffinity>
-4.62539387

$$$$

 OpenBabel03242519593D

 23 24  0  0  0  0  0  0  0  0999 V2000
   37.8350   27.1380   42.3760 Br  0  0  0  0  0  0  0  0  0  0  0  0
   37.0640   26.6490   40.6890 C   0  0  0  0  0  0  0  0  0  0  0  0
   36.7060   27.5770   39.7200 C   0  0  0  0  0  0  0  0  0  0  0  0
   36.1630   27.1150   38.5510 C   0  0  0  0  0  0  0  0  0  0  0  0
   35.9620   25.7750   38.3090 C   0  0  0  0  0  0  0  0  0  0  0  0
   36.3080   24.8330   39.2550 C   0  0  0  0  0  0  0  0  0  0  0  0
   36.8580   25.3060   40.4380 C   0  0  0  0  0  0  0  0  0  0  0  0
   35.8980   27.8650   37.8200 H   0  0  0  0  0  0  0  0  0  0  0  0
   35.5290   25.4750   37.3640 H   0  0  0  0  0  0  0  0  0  0  0  0
   36.1560   23.7850   39.0750 H   0  0  0  0  0  0  0  0  0  0  0  0
   36.2480   31.1320   40.9490 C   0  0  0  0  0  0  0  0  0  0  0  0
   35.9940   29.7840   40.6530 C   0  0  0  0  0  0  0  0  0  0  0  0
   36.9460   28.9870   40.0390 C   0  0  0  0  0  0  0  0  0  0  0  0
   38.1350   29.5880   39.7440 N   0  0  0  0  0  0  0  0  0  0  0  0
   38.3780   30.8860   40.0300 C   0  0  0  0  0  0  0  0  0  0  0  0
   37.4470   31.6460   40.6230 N   0  0  0  0  0  0  0  0  0  0  0  0
   35.4870   31.7350   41.4280 H   0  0  0  0  0  0  0  0  0  0  0  0
   35.0360   29.3530   40.9070 H   0  0  0  0  0  0  0  0  0  0  0  0
   39.3490   31.2780   39.7580 H   0  0  0  0  0  0  0  0  0  0  0  0
   37.2390   24.3000   41.4740 C   0  0  0  0  0  0  0  0  0  0  0  0
   36.5350   24.4810   42.6340 F   0  0  0  0  0  0  0  0  0  0  0  0
   38.5810   24.4210   41.8110 F   0  0  0  0  0  0  0  0  0  0  0  0
   37.0650   23.0180   40.9990 F   0  0  0  0  0  0  0  0  0  0  0  0
  2  1  1  0  0  0  0
  3 13  1  0  0  0  0
  3  2  2  0  0  0  0
  4  3  1  0  0  0  0
  5  4  2  0  0  0  0
  5  6  1  0  0  0  0
  6  7  2  0  0  0  0
  7  2  1  0  0  0  0
  7 20  1  0  0  0  0
  8  4  1  0  0  0  0
  9  5  1  0  0  0  0
 10  6  1  0  0  0  0
 11 17  1  0  0  0  0
 12 18  1  0  0  0  0
 12 11  1  0  0  0  0
 13 12  2  0  0  0  0
 14 15  2  0  0  0  0
 14 13  1  0  0  0  0
 15 16  1  0  0  0  0
 16 11  2  0  0  0  0
 19 15  1  0  0  0  0
 20 22  1  0  0  0  0
 20 21  1  0  0  0  0
 23 20  1  0  0  0  0
M  END
>  <minimizedAffinity>
-4.54235792

$$$$
