
 OpenBabel03252508353D

 26 27  0  0  0  0  0  0  0  0999 V2000
   46.8740   33.7810   39.7300 C   0  0  0  0  0  0  0  0  0  0  0  0
   45.6840   33.4860   40.3620 C   0  0  0  0  0  0  0  0  0  0  0  0
   44.6710   32.9830   39.5830 C   0  0  0  0  0  0  0  0  0  0  0  0
   44.8040   32.7670   38.2200 C   0  0  0  0  0  0  0  0  0  0  0  0
   46.0080   33.0750   37.6320 C   0  0  0  0  0  0  0  0  0  0  0  0
   47.0540   33.5850   38.3820 C   0  0  0  0  0  0  0  0  0  0  0  0
   43.7460   32.7570   40.0960 H   0  0  0  0  0  0  0  0  0  0  0  0
   43.9680   32.3670   37.6580 H   0  0  0  0  0  0  0  0  0  0  0  0
   46.0980   32.9010   36.5640 H   0  0  0  0  0  0  0  0  0  0  0  0
   44.6640   34.9180   43.6910 C   0  0  0  0  0  0  0  0  0  0  0  0
   44.7280   34.7000   42.3140 C   0  0  0  0  0  0  0  0  0  0  0  0
   45.6000   33.7330   41.7940 C   0  0  0  0  0  0  0  0  0  0  0  0
   46.3450   33.0540   42.6910 N   0  0  0  0  0  0  0  0  0  0  0  0
   46.2720   33.2750   44.0110 C   0  0  0  0  0  0  0  0  0  0  0  0
   45.4370   34.2010   44.5030 N   0  0  0  0  0  0  0  0  0  0  0  0
   43.7780   35.8970   44.1800 N   0  0  0  0  0  0  0  0  0  0  0  0
   44.1180   35.2630   41.6470 H   0  0  0  0  0  0  0  0  0  0  0  0
   46.8610   32.7440   44.7570 H   0  0  0  0  0  0  0  0  0  0  0  0
   43.0390   36.3220   43.5740 H   0  0  0  0  0  0  0  0  0  0  0  0
   43.8290   36.2330   45.1710 H   0  0  0  0  0  0  0  0  0  0  0  0
   48.3560   33.9180   37.7480 C   0  0  0  0  0  0  0  0  0  0  0  0
   49.4020   33.1590   38.2290 F   0  0  0  0  0  0  0  0  0  0  0  0
   48.6860   35.2370   38.0500 F   0  0  0  0  0  0  0  0  0  0  0  0
   48.2260   33.7360   36.3740 F   0  0  0  0  0  0  0  0  0  0  0  0
   48.8960   34.7370   41.0950 N   0  0  0  0  0  0  0  0  0  0  0  0
   47.9800   34.3120   40.4800 C   0  0  0  0  0  0  0  0  0  0  0  0
  1  2  1  0  0  0  0
  1 26  1  0  0  0  0
  2 12  1  0  0  0  0
  3  7  1  0  0  0  0
  3  2  2  0  0  0  0
  4  3  1  0  0  0  0
  5  4  2  0  0  0  0
  5  6  1  0  0  0  0
  6  1  2  0  0  0  0
  8  4  1  0  0  0  0
  9  5  1  0  0  0  0
 10 16  1  0  0  0  0
 10 15  1  0  0  0  0
 11 10  2  0  0  0  0
 12 11  1  0  0  0  0
 12 13  2  0  0  0  0
 13 14  1  0  0  0  0
 14 15  2  0  0  0  0
 14 18  1  0  0  0  0
 16 20  1  0  0  0  0
 17 11  1  0  0  0  0
 19 16  1  0  0  0  0
 21 23  1  0  0  0  0
 21 22  1  0  0  0  0
 21  6  1  0  0  0  0
 24 21  1  0  0  0  0
 26 25  3  0  0  0  0
M  END
>  <minimizedAffinity>
-4.65935278

>  <minimizedRMSD>
1.52760172

$$$$
