
 OpenBabel03242518593D

 30 32  0  0  1  0  0  0  0  0999 V2000
   44.9590   35.5290   42.6910 C   0  0  1  0  0  0  0  0  0  0  0  0
   45.8450   34.6190   43.5410 C   0  0  0  0  0  0  0  0  0  0  0  0
   46.4050   35.2610   42.4620 C   0  0  1  0  0  0  0  0  0  0  0  0
   44.6260   36.4700   43.1560 H   0  0  0  0  0  0  0  0  0  0  0  0
   46.1300   35.1430   44.5720 H   0  0  0  0  0  0  0  0  0  0  0  0
   45.2730   33.7810   43.8790 H   0  0  0  0  0  0  0  0  0  0  0  0
   46.8890   36.2930   42.4650 H   0  0  0  0  0  0  0  0  0  0  0  0
   46.9480   34.5320   41.3220 C   0  0  0  0  0  0  0  0  0  0  0  0
   46.1470   33.9150   40.3460 C   0  0  0  0  0  0  0  0  0  0  0  0
   46.6000   33.1730   39.2740 C   0  0  0  0  0  0  0  0  0  0  0  0
   47.9410   33.0410   39.1810 C   0  0  0  0  0  0  0  0  0  0  0  0
   48.7740   33.6200   40.0980 C   0  0  0  0  0  0  0  0  0  0  0  0
   48.3010   34.3580   41.1540 C   0  0  0  0  0  0  0  0  0  0  0  0
   45.0680   34.0740   40.5040 H   0  0  0  0  0  0  0  0  0  0  0  0
   45.8440   32.7860   38.6400 H   0  0  0  0  0  0  0  0  0  0  0  0
   48.2600   32.4360   38.3170 H   0  0  0  0  0  0  0  0  0  0  0  0
   49.8130   33.3970   39.8460 H   0  0  0  0  0  0  0  0  0  0  0  0
   49.4330   34.8690   41.9770 C   0  0  0  0  0  0  0  0  0  0  0  0
   49.1420   34.7880   43.3860 F   0  0  0  0  0  0  0  0  0  0  0  0
   49.4940   36.2670   42.0010 F   0  0  0  0  0  0  0  0  0  0  0  0
   50.5700   34.1830   42.0260 F   0  0  0  0  0  0  0  0  0  0  0  0
   43.9050   34.8440   41.9190 C   0  0  0  0  0  0  0  0  0  0  0  0
   43.2950   35.6190   40.9210 C   0  0  0  0  0  0  0  0  0  0  0  0
   42.2880   34.9690   40.1670 C   0  0  0  0  0  0  0  0  0  0  0  0
   41.9930   33.6770   40.4530 N   0  0  0  0  0  0  0  0  0  0  0  0
   42.6230   32.9930   41.4290 C   0  0  0  0  0  0  0  0  0  0  0  0
   43.5900   33.5770   42.1740 N   0  0  0  0  0  0  0  0  0  0  0  0
   43.5840   36.6450   40.7520 H   0  0  0  0  0  0  0  0  0  0  0  0
   41.8240   35.5660   39.4060 H   0  0  0  0  0  0  0  0  0  0  0  0
   42.2460   31.9990   41.4900 H   0  0  0  0  0  0  0  0  0  0  0  0
  1  4  1  1  0  0  0
  1  2  1  0  0  0  0
  2  6  1  0  0  0  0
  2  5  1  0  0  0  0
  3  7  1  1  0  0  0
  3  1  1  0  0  0  0
  3  2  1  0  0  0  0
  8  3  1  0  0  0  0
  9 14  1  0  0  0  0
  9  8  2  0  0  0  0
 10  9  1  0  0  0  0
 11 10  2  0  0  0  0
 11 12  1  0  0  0  0
 12 13  2  0  0  0  0
 13  8  1  0  0  0  0
 13 18  1  0  0  0  0
 15 10  1  0  0  0  0
 16 11  1  0  0  0  0
 17 12  1  0  0  0  0
 18 20  1  0  0  0  0
 18 21  1  0  0  0  0
 18 19  1  0  0  0  0
 22 27  1  0  0  0  0
 22  1  1  0  0  0  0
 23 22  2  0  0  0  0
 24 25  2  0  0  0  0
 24 23  1  0  0  0  0
 25 26  1  0  0  0  0
 26 30  1  0  0  0  0
 26 27  2  0  0  0  0
 28 23  1  0  0  0  0
 29 24  1  0  0  0  0
M  END
>  <minimizedAffinity>
-5.2088685

>  <minimizedRMSD>
3.44733572

$$$$
