
 OpenBabel03252503053D

 15 15  0  0  0  0  0  0  0  0999 V2000
   45.3230   36.0050   43.2640 C   0  0  0  0  0  0  0  0  0  0  0  0
   46.1580   34.8970   43.1440 C   0  0  0  0  0  0  0  0  0  0  0  0
   46.1990   34.0010   44.1990 C   0  0  0  0  0  0  0  0  0  0  0  0
   45.4390   34.2260   45.2990 N   0  0  0  0  0  0  0  0  0  0  0  0
   44.6350   35.3110   45.3920 C   0  0  0  0  0  0  0  0  0  0  0  0
   44.5820   36.1950   44.3710 N   0  0  0  0  0  0  0  0  0  0  0  0
   45.2510   36.7420   42.4650 H   0  0  0  0  0  0  0  0  0  0  0  0
   44.0670   35.4030   46.3070 H   0  0  0  0  0  0  0  0  0  0  0  0
   47.1020   32.8290   44.0380 C   0  0  0  0  0  0  0  0  0  0  0  0
   46.6050   32.0670   43.0110 F   0  0  0  0  0  0  0  0  0  0  0  0
   48.3660   33.2620   43.6830 F   0  0  0  0  0  0  0  0  0  0  0  0
   47.1250   32.1330   45.2360 F   0  0  0  0  0  0  0  0  0  0  0  0
   46.9510   34.6910   41.9620 C   0  0  0  0  0  0  0  0  0  0  0  0
   47.8850   35.4910   41.7350 O   0  0  0  0  0  0  0  0  0  0  0  0
   46.5320   33.8160   41.4820 H   0  0  0  0  0  0  0  0  0  0  0  0
  1  6  1  0  0  0  0
  2  1  2  0  0  0  0
  2  3  1  0  0  0  0
  3  4  2  0  0  0  0
  4  5  1  0  0  0  0
  5  8  1  0  0  0  0
  6  5  2  0  0  0  0
  7  1  1  0  0  0  0
  9  3  1  0  0  0  0
  9 12  1  0  0  0  0
 10  9  1  0  0  0  0
 11  9  1  0  0  0  0
 13  2  1  0  0  0  0
 14 13  2  0  0  0  0
 15 13  1  0  0  0  0
M  END
>  <minimizedAffinity>
-3.69985533

>  <minimizedRMSD>
0.419843078

$$$$
