
 OpenBabel03252509203D

 20 21  0  0  0  0  0  0  0  0999 V2000
   45.4320   33.9760   44.7300 C   0  0  0  0  0  0  0  0  0  0  0  0
   45.7360   34.8100   43.6050 C   0  0  0  0  0  0  0  0  0  0  0  0
   46.9220   34.4850   42.9770 C   0  0  0  0  0  0  0  0  0  0  0  0
   47.7270   33.4460   43.4070 N   0  0  0  0  0  0  0  0  0  0  0  0
   47.3800   32.6930   44.4790 C   0  0  0  0  0  0  0  0  0  0  0  0
   46.2370   32.9680   45.1260 N   0  0  0  0  0  0  0  0  0  0  0  0
   44.5450   34.1250   45.2990 H   0  0  0  0  0  0  0  0  0  0  0  0
   48.1450   31.9480   44.6320 H   0  0  0  0  0  0  0  0  0  0  0  0
   47.2680   35.2440   41.7250 C   0  0  0  0  0  0  0  0  0  0  0  0
   48.7600   35.6120   41.7020 C   0  0  0  0  0  0  0  0  0  0  0  0
   48.0810   34.5990   40.7350 C   0  0  0  0  0  0  0  0  0  0  0  0
   46.6600   36.1440   41.5700 H   0  0  0  0  0  0  0  0  0  0  0  0
   49.3720   35.2080   42.5100 H   0  0  0  0  0  0  0  0  0  0  0  0
   49.0860   36.5540   41.2580 H   0  0  0  0  0  0  0  0  0  0  0  0
   48.0800   34.9270   39.6520 H   0  0  0  0  0  0  0  0  0  0  0  0
   48.5130   33.5680   40.8580 H   0  0  0  0  0  0  0  0  0  0  0  0
   44.8020   35.8700   43.2430 C   0  0  0  0  0  0  0  0  0  0  0  0
   43.7710   35.9600   44.1590 F   0  0  0  0  0  0  0  0  0  0  0  0
   44.3340   35.7330   41.9560 F   0  0  0  0  0  0  0  0  0  0  0  0
   45.4560   37.0870   43.2890 F   0  0  0  0  0  0  0  0  0  0  0  0
  1  6  1  0  0  0  0
  1  7  1  0  0  0  0
  2  1  2  0  0  0  0
  3  4  2  0  0  0  0
  3  2  1  0  0  0  0
  4  5  1  0  0  0  0
  5  8  1  0  0  0  0
  5  6  2  0  0  0  0
  9  3  1  0  0  0  0
 10  9  1  0  0  0  0
 10 13  1  0  0  0  0
 11 16  1  0  0  0  0
 11 10  1  0  0  0  0
 11  9  1  0  0  0  0
 12  9  1  0  0  0  0
 14 10  1  0  0  0  0
 15 11  1  0  0  0  0
 17 20  1  0  0  0  0
 17  2  1  0  0  0  0
 17 18  1  0  0  0  0
 19 17  1  0  0  0  0
M  END
>  <minimizedAffinity>
-4.56422472

>  <minimizedRMSD>
1.65910041

$$$$
