
 OpenBabel03242521213D

 31 33  0  0  0  0  0  0  0  0999 V2000
   45.8930   33.5670   44.9360 C   0  0  0  0  0  0  0  0  0  0  0  0
   45.1000   34.6390   45.2120 C   0  0  0  0  0  0  0  0  0  0  0  0
   44.7200   35.5780   44.2720 C   0  0  0  0  0  0  0  0  0  0  0  0
   45.1940   35.3670   43.0210 N   0  0  0  0  0  0  0  0  0  0  0  0
   45.9760   34.3100   42.7500 C   0  0  0  0  0  0  0  0  0  0  0  0
   46.3480   33.3880   43.6730 N   0  0  0  0  0  0  0  0  0  0  0  0
   44.7260   34.8000   46.2150 H   0  0  0  0  0  0  0  0  0  0  0  0
   44.0990   36.4240   44.4760 H   0  0  0  0  0  0  0  0  0  0  0  0
   46.4780   34.1100   41.3660 C   0  0  0  0  0  0  0  0  0  0  0  0
   45.7240   33.3710   40.4740 C   0  0  0  0  0  0  0  0  0  0  0  0
   46.0930   33.1240   39.1710 C   0  0  0  0  0  0  0  0  0  0  0  0
   47.3150   33.6670   38.7470 C   0  0  0  0  0  0  0  0  0  0  0  0
   48.0550   34.3950   39.6320 C   0  0  0  0  0  0  0  0  0  0  0  0
   47.6700   34.6320   40.9300 C   0  0  0  0  0  0  0  0  0  0  0  0
   44.7850   32.9640   40.8280 H   0  0  0  0  0  0  0  0  0  0  0  0
   45.4550   32.5360   38.5210 H   0  0  0  0  0  0  0  0  0  0  0  0
   47.6240   33.4840   37.7280 H   0  0  0  0  0  0  0  0  0  0  0  0
   48.9920   34.7980   39.2680 H   0  0  0  0  0  0  0  0  0  0  0  0
   48.4950   35.4290   41.8740 C   0  0  0  0  0  0  0  0  0  0  0  0
   47.6470   36.3790   42.4580 F   0  0  0  0  0  0  0  0  0  0  0  0
   49.0480   34.7050   42.8850 F   0  0  0  0  0  0  0  0  0  0  0  0
   49.4220   36.1580   41.1380 F   0  0  0  0  0  0  0  0  0  0  0  0
   46.2680   30.4020   46.7480 C   0  0  0  0  0  0  0  0  0  0  0  0
   46.9600   30.7930   47.8880 C   0  0  0  0  0  0  0  0  0  0  0  0
   47.2990   32.1260   48.0400 C   0  0  0  0  0  0  0  0  0  0  0  0
   46.9360   33.0100   47.0550 N   0  0  0  0  0  0  0  0  0  0  0  0
   46.2660   32.6060   45.9630 C   0  0  0  0  0  0  0  0  0  0  0  0
   45.9370   31.3220   45.8120 N   0  0  0  0  0  0  0  0  0  0  0  0
   46.0260   29.3510   46.6750 H   0  0  0  0  0  0  0  0  0  0  0  0
   47.2820   30.1810   48.6960 H   0  0  0  0  0  0  0  0  0  0  0  0
   47.8300   32.6270   48.8390 H   0  0  0  0  0  0  0  0  0  0  0  0
  1  2  1  0  0  0  0
  1 27  1  0  0  0  0
  2  7  1  0  0  0  0
  3  8  1  0  0  0  0
  3  2  2  0  0  0  0
  4  3  1  0  0  0  0
  5  4  2  0  0  0  0
  5  6  1  0  0  0  0
  6  1  2  0  0  0  0
  9  5  1  0  0  0  0
 10 15  1  0  0  0  0
 10  9  2  0  0  0  0
 11 10  1  0  0  0  0
 12 11  2  0  0  0  0
 12 13  1  0  0  0  0
 13 14  2  0  0  0  0
 14  9  1  0  0  0  0
 14 19  1  0  0  0  0
 16 11  1  0  0  0  0
 17 12  1  0  0  0  0
 18 13  1  0  0  0  0
 19 20  1  0  0  0  0
 19 21  1  0  0  0  0
 22 19  1  0  0  0  0
 23 24  1  0  0  0  0
 24 25  2  0  0  0  0
 24 30  1  0  0  0  0
 25 31  1  0  0  0  0
 26 25  1  0  0  0  0
 27 26  2  0  0  0  0
 28 27  1  0  0  0  0
 28 23  2  0  0  0  0
 29 23  1  0  0  0  0
M  END
>  <minimizedAffinity>
-6.0694232

>  <minimizedRMSD>
1.10541642

$$$$
