
 OpenBabel03242523203D

 32 34  0  0  0  0  0  0  0  0999 V2000
   47.3810   32.8110   44.0180 C   0  0  0  0  0  0  0  0  0  0  0  0
   48.2380   33.3110   43.1140 C   0  0  0  0  0  0  0  0  0  0  0  0
   49.0760   32.3830   42.5400 C   0  0  0  0  0  0  0  0  0  0  0  0
   48.9700   31.0380   42.9390 N   0  0  0  0  0  0  0  0  0  0  0  0
   48.1060   30.6230   43.8350 C   0  0  0  0  0  0  0  0  0  0  0  0
   47.2500   31.5200   44.4280 N   0  0  0  0  0  0  0  0  0  0  0  0
   49.8300   32.5760   41.7960 H   0  0  0  0  0  0  0  0  0  0  0  0
   48.1380   29.5560   44.0430 H   0  0  0  0  0  0  0  0  0  0  0  0
   48.4210   34.6850   42.7980 C   0  0  0  0  0  0  0  0  0  0  0  0
   49.4520   35.2690   42.1320 C   0  0  0  0  0  0  0  0  0  0  0  0
   48.2250   35.0980   41.2760 C   0  0  0  0  0  0  0  0  0  0  0  0
   47.9510   35.3730   43.5230 H   0  0  0  0  0  0  0  0  0  0  0  0
   49.7920   36.3300   42.1410 H   0  0  0  0  0  0  0  0  0  0  0  0
   50.3520   34.6420   41.8450 H   0  0  0  0  0  0  0  0  0  0  0  0
   48.2330   34.2370   40.6100 H   0  0  0  0  0  0  0  0  0  0  0  0
   47.5280   35.9350   41.1310 H   0  0  0  0  0  0  0  0  0  0  0  0
   46.3140   33.5450   44.7110 C   0  0  0  0  0  0  0  0  0  0  0  0
   45.7410   33.9300   45.6970 O   0  0  0  0  0  0  0  0  0  0  0  0
   44.5440   31.7610   42.9230 Cl  0  0  0  0  0  0  0  0  0  0  0  0
   44.5690   33.5130   42.7800 C   0  0  0  0  0  0  0  0  0  0  0  0
   45.4290   34.1780   43.6820 C   0  0  0  0  0  0  0  0  0  0  0  0
   45.3790   35.5510   43.4960 C   0  0  0  0  0  0  0  0  0  0  0  0
   44.6640   36.2710   42.6210 C   0  0  0  0  0  0  0  0  0  0  0  0
   43.8570   35.5540   41.7810 C   0  0  0  0  0  0  0  0  0  0  0  0
   43.8010   34.2080   41.8480 C   0  0  0  0  0  0  0  0  0  0  0  0
   45.9720   36.2270   44.1500 H   0  0  0  0  0  0  0  0  0  0  0  0
   44.6570   37.3380   42.5080 H   0  0  0  0  0  0  0  0  0  0  0  0
   43.2150   35.9670   41.0170 H   0  0  0  0  0  0  0  0  0  0  0  0
   42.9540   33.3020   40.9830 C   0  0  0  0  0  0  0  0  0  0  0  0
   43.7670   32.5280   40.2140 F   0  0  0  0  0  0  0  0  0  0  0  0
   42.2240   34.1080   40.1000 F   0  0  0  0  0  0  0  0  0  0  0  0
   42.0410   32.6020   41.7250 F   0  0  0  0  0  0  0  0  0  0  0  0
  1  6  1  0  0  0  0
  1 17  1  0  0  0  0
  2  1  2  0  0  0  0
  3  4  2  0  0  0  0
  3  2  1  0  0  0  0
  4  5  1  0  0  0  0
  5  8  1  0  0  0  0
  5  6  2  0  0  0  0
  7  3  1  0  0  0  0
  9  2  1  0  0  0  0
  9 12  1  0  0  0  0
 10 13  1  0  0  0  0
 10  9  1  0  0  0  0
 11 10  1  0  0  0  0
 11  9  1  0  0  0  0
 14 10  1  0  0  0  0
 15 11  1  0  0  0  0
 16 11  1  0  0  0  0
 17 18  2  0  0  0  0
 20 19  1  0  0  0  0
 20 21  1  0  0  0  0
 21 17  1  0  0  0  0
 22 21  2  0  0  0  0
 22 26  1  0  0  0  0
 23 22  1  0  0  0  0
 24 25  1  0  0  0  0
 24 23  2  0  0  0  0
 25 20  2  0  0  0  0
 27 23  1  0  0  0  0
 28 24  1  0  0  0  0
 29 32  1  0  0  0  0
 29 25  1  0  0  0  0
 30 29  1  0  0  0  0
 31 29  1  0  0  0  0
M  END
>  <minimizedAffinity>
-5.22830868

>  <minimizedRMSD>
0.488766462

$$$$
