
 OpenBabel03252508323D

 27 28  0  0  1  0  0  0  0  0999 V2000
   44.4480   34.4740   41.8850 N   0  0  0  0  0  0  0  0  0  0  0  0
   44.9440   33.5740   40.9070 C   0  0  1  0  0  0  0  0  0  0  0  0
   44.3250   33.6820   39.5530 C   0  0  0  0  0  0  0  0  0  0  0  0
   43.0270   34.1890   39.4340 N   0  0  0  0  0  0  0  0  0  0  0  0
   42.5690   35.0540   40.4380 C   0  0  0  0  0  0  0  0  0  0  0  0
   43.6770   35.5380   41.3230 C   0  0  0  0  0  0  0  0  0  0  0  0
   44.8350   32.5280   41.2580 H   0  0  0  0  0  0  0  0  0  0  0  0
   44.9960   34.3440   38.9210 H   0  0  0  0  0  0  0  0  0  0  0  0
   44.3460   32.6650   39.0810 H   0  0  0  0  0  0  0  0  0  0  0  0
   42.8840   34.6240   38.5020 H   0  0  0  0  0  0  0  0  0  0  0  0
   41.9020   34.4430   41.1160 H   0  0  0  0  0  0  0  0  0  0  0  0
   41.9400   35.8920   40.1150 H   0  0  0  0  0  0  0  0  0  0  0  0
   43.3530   36.3330   42.0140 H   0  0  0  0  0  0  0  0  0  0  0  0
   44.3860   36.0850   40.6280 H   0  0  0  0  0  0  0  0  0  0  0  0
   44.5140   35.3500   44.0970 C   0  0  0  0  0  0  0  0  0  0  0  0
   44.7620   34.2560   43.2410 C   0  0  0  0  0  0  0  0  0  0  0  0
   45.3120   33.1080   43.7770 C   0  0  0  0  0  0  0  0  0  0  0  0
   45.6140   33.0220   45.0980 N   0  0  0  0  0  0  0  0  0  0  0  0
   45.3680   34.0950   45.9170 C   0  0  0  0  0  0  0  0  0  0  0  0
   44.8290   35.2290   45.4220 N   0  0  0  0  0  0  0  0  0  0  0  0
   44.0990   36.3130   43.8850 H   0  0  0  0  0  0  0  0  0  0  0  0
   45.4910   32.2690   43.1600 H   0  0  0  0  0  0  0  0  0  0  0  0
   45.6090   34.0280   46.9770 H   0  0  0  0  0  0  0  0  0  0  0  0
   46.4540   33.8010   40.6550 C   0  0  0  0  0  0  0  0  0  0  0  0
   47.2550   32.8710   41.2140 F   0  0  0  0  0  0  0  0  0  0  0  0
   46.8110   35.0160   41.2560 F   0  0  0  0  0  0  0  0  0  0  0  0
   46.6730   34.0010   39.3060 F   0  0  0  0  0  0  0  0  0  0  0  0
  1 16  1  0  0  0  0
  2  7  1  1  0  0  0
  2  1  1  0  0  0  0
  3  2  1  0  0  0  0
  4  3  1  0  0  0  0
  4  5  1  0  0  0  0
  5 11  1  0  0  0  0
  5  6  1  0  0  0  0
  6  1  1  0  0  0  0
  6 13  1  0  0  0  0
  8  3  1  0  0  0  0
  9  3  1  0  0  0  0
 10  4  1  0  0  0  0
 12  5  1  0  0  0  0
 14  6  1  0  0  0  0
 15 20  1  0  0  0  0
 16 17  1  0  0  0  0
 16 15  2  0  0  0  0
 17 18  2  0  0  0  0
 18 19  1  0  0  0  0
 19 23  1  0  0  0  0
 20 19  2  0  0  0  0
 21 15  1  0  0  0  0
 22 17  1  0  0  0  0
 24  2  1  0  0  0  0
 24 25  1  0  0  0  0
 24 26  1  0  0  0  0
 27 24  1  0  0  0  0
M  END
>  <minimizedAffinity>
-4.04844761

>  <minimizedRMSD>
0.415106535

$$$$
