
 OpenBabel03252508223D

 29 30  0  0  0  0  0  0  0  0999 V2000
   38.2680   28.5960   43.3760 C   0  0  0  0  0  0  0  0  0  0  0  0
   37.3050   28.5050   42.8310 H   0  0  0  0  0  0  0  0  0  0  0  0
   38.1170   28.9510   44.4380 H   0  0  0  0  0  0  0  0  0  0  0  0
   39.0680   27.3790   43.2880 C   0  0  0  0  0  0  0  0  0  0  0  0
   40.4080   27.2990   43.6120 C   0  0  0  0  0  0  0  0  0  0  0  0
   41.1810   26.1680   43.5370 C   0  0  0  0  0  0  0  0  0  0  0  0
   40.5210   25.0090   43.0880 C   0  0  0  0  0  0  0  0  0  0  0  0
   39.1650   25.0440   42.7500 C   0  0  0  0  0  0  0  0  0  0  0  0
   38.4410   26.2220   42.8490 C   0  0  0  0  0  0  0  0  0  0  0  0
   40.8520   28.2280   43.9490 H   0  0  0  0  0  0  0  0  0  0  0  0
   42.2280   26.1650   43.8030 H   0  0  0  0  0  0  0  0  0  0  0  0
   41.0790   24.0940   43.0100 H   0  0  0  0  0  0  0  0  0  0  0  0
   38.7020   24.1270   42.4100 H   0  0  0  0  0  0  0  0  0  0  0  0
   36.9950   26.2590   42.4890 C   0  0  0  0  0  0  0  0  0  0  0  0
   36.8950   26.8140   41.2360 F   0  0  0  0  0  0  0  0  0  0  0  0
   36.2080   26.8630   43.4360 F   0  0  0  0  0  0  0  0  0  0  0  0
   36.5290   24.9600   42.3830 F   0  0  0  0  0  0  0  0  0  0  0  0
   38.9940   29.7860   42.7380 C   0  0  0  0  0  0  0  0  0  0  0  0
   39.9730   29.4490   42.3240 H   0  0  0  0  0  0  0  0  0  0  0  0
   39.0890   30.6180   43.4440 H   0  0  0  0  0  0  0  0  0  0  0  0
   36.0670   30.5100   40.4810 C   0  0  0  0  0  0  0  0  0  0  0  0
   36.8100   30.0620   41.5900 C   0  0  0  0  0  0  0  0  0  0  0  0
   38.1870   30.2510   41.5830 C   0  0  0  0  0  0  0  0  0  0  0  0
   38.7380   30.8660   40.4920 N   0  0  0  0  0  0  0  0  0  0  0  0
   38.0070   31.2850   39.4450 C   0  0  0  0  0  0  0  0  0  0  0  0
   36.6630   31.1070   39.4360 N   0  0  0  0  0  0  0  0  0  0  0  0
   35.0000   30.3470   40.5190 H   0  0  0  0  0  0  0  0  0  0  0  0
   36.3730   29.5760   42.4530 H   0  0  0  0  0  0  0  0  0  0  0  0
   38.4610   31.7690   38.5910 H   0  0  0  0  0  0  0  0  0  0  0  0
  1  3  1  0  0  0  0
  2  1  1  0  0  0  0
  4  1  1  0  0  0  0
  4  5  1  0  0  0  0
  5 10  1  0  0  0  0
  6  5  2  0  0  0  0
  6 11  1  0  0  0  0
  7  6  1  0  0  0  0
  8  9  1  0  0  0  0
  8  7  2  0  0  0  0
  9  4  2  0  0  0  0
 12  7  1  0  0  0  0
 13  8  1  0  0  0  0
 14  9  1  0  0  0  0
 14 16  1  0  0  0  0
 15 14  1  0  0  0  0
 17 14  1  0  0  0  0
 18  1  1  0  0  0  0
 18 20  1  0  0  0  0
 19 18  1  0  0  0  0
 21 27  1  0  0  0  0
 21 22  1  0  0  0  0
 22 28  1  0  0  0  0
 23 22  2  0  0  0  0
 23 18  1  0  0  0  0
 24 23  1  0  0  0  0
 25 24  2  0  0  0  0
 26 25  1  0  0  0  0
 26 21  2  0  0  0  0
 29 25  1  0  0  0  0
M  END
>  <minimizedAffinity>
-5.28350687

$$$$

 OpenBabel03252508223D

 29 30  0  0  0  0  0  0  0  0999 V2000
   37.1410   27.2820   43.0840 C   0  0  0  0  0  0  0  0  0  0  0  0
   36.5700   27.1370   42.1440 H   0  0  0  0  0  0  0  0  0  0  0  0
   36.5150   27.0520   43.9960 H   0  0  0  0  0  0  0  0  0  0  0  0
   38.4150   26.5690   43.0700 C   0  0  0  0  0  0  0  0  0  0  0  0
   39.5690   27.0200   43.6790 C   0  0  0  0  0  0  0  0  0  0  0  0
   40.7780   26.3700   43.6790 C   0  0  0  0  0  0  0  0  0  0  0  0
   40.8070   25.1420   42.9900 C   0  0  0  0  0  0  0  0  0  0  0  0
   39.6620   24.6480   42.3600 C   0  0  0  0  0  0  0  0  0  0  0  0
   38.4710   25.3570   42.3990 C   0  0  0  0  0  0  0  0  0  0  0  0
   39.4750   27.9710   44.1890 H   0  0  0  0  0  0  0  0  0  0  0  0
   41.6510   26.7710   44.1730 H   0  0  0  0  0  0  0  0  0  0  0  0
   41.7290   24.5910   42.9590 H   0  0  0  0  0  0  0  0  0  0  0  0
   39.7350   23.7000   41.8440 H   0  0  0  0  0  0  0  0  0  0  0  0
   37.2500   24.8290   41.7270 C   0  0  0  0  0  0  0  0  0  0  0  0
   37.5270   23.5490   41.3110 F   0  0  0  0  0  0  0  0  0  0  0  0
   36.7670   25.6490   40.7400 F   0  0  0  0  0  0  0  0  0  0  0  0
   36.2360   24.7270   42.6630 F   0  0  0  0  0  0  0  0  0  0  0  0
   37.3520   28.7960   43.2110 C   0  0  0  0  0  0  0  0  0  0  0  0
   38.4300   29.0090   43.4030 H   0  0  0  0  0  0  0  0  0  0  0  0
   36.6870   29.2270   43.9670 H   0  0  0  0  0  0  0  0  0  0  0  0
   37.5370   30.9660   40.1380 C   0  0  0  0  0  0  0  0  0  0  0  0
   37.8690   30.3910   41.3800 C   0  0  0  0  0  0  0  0  0  0  0  0
   37.0280   29.4160   41.9030 C   0  0  0  0  0  0  0  0  0  0  0  0
   35.9230   29.0720   41.1720 N   0  0  0  0  0  0  0  0  0  0  0  0
   35.6280   29.6350   39.9880 C   0  0  0  0  0  0  0  0  0  0  0  0
   36.4380   30.5880   39.4650 N   0  0  0  0  0  0  0  0  0  0  0  0
   38.2120   31.7190   39.7620 H   0  0  0  0  0  0  0  0  0  0  0  0
   38.7430   30.6630   41.9570 H   0  0  0  0  0  0  0  0  0  0  0  0
   34.7500   29.3500   39.4250 H   0  0  0  0  0  0  0  0  0  0  0  0
  1 18  1  0  0  0  0
  1  3  1  0  0  0  0
  2  1  1  0  0  0  0
  4  1  1  0  0  0  0
  4  5  1  0  0  0  0
  5 10  1  0  0  0  0
  6  5  2  0  0  0  0
  6 11  1  0  0  0  0
  7  6  1  0  0  0  0
  8  9  1  0  0  0  0
  8  7  2  0  0  0  0
  9  4  2  0  0  0  0
 12  7  1  0  0  0  0
 13  8  1  0  0  0  0
 14  9  1  0  0  0  0
 14 17  1  0  0  0  0
 15 14  1  0  0  0  0
 16 14  1  0  0  0  0
 18 19  1  0  0  0  0
 18 20  1  0  0  0  0
 21 22  1  0  0  0  0
 22 23  2  0  0  0  0
 22 28  1  0  0  0  0
 23 18  1  0  0  0  0
 24 23  1  0  0  0  0
 25 24  2  0  0  0  0
 26 25  1  0  0  0  0
 26 21  2  0  0  0  0
 27 21  1  0  0  0  0
 29 25  1  0  0  0  0
M  END
>  <minimizedAffinity>
-5.14543533

$$$$

 OpenBabel03252508223D

 29 30  0  0  0  0  0  0  0  0999 V2000
   35.6620   29.0290   39.9590 C   0  0  0  0  0  0  0  0  0  0  0  0
   35.7900   29.5000   40.9550 H   0  0  0  0  0  0  0  0  0  0  0  0
   34.5790   28.7950   39.7410 H   0  0  0  0  0  0  0  0  0  0  0  0
   36.3050   29.7990   38.8990 C   0  0  0  0  0  0  0  0  0  0  0  0
   36.2760   29.4610   37.5600 C   0  0  0  0  0  0  0  0  0  0  0  0
   36.8730   30.1670   36.5460 C   0  0  0  0  0  0  0  0  0  0  0  0
   37.5660   31.3280   36.9390 C   0  0  0  0  0  0  0  0  0  0  0  0
   37.6200   31.7070   38.2830 C   0  0  0  0  0  0  0  0  0  0  0  0
   36.9940   30.9470   39.2590 C   0  0  0  0  0  0  0  0  0  0  0  0
   35.7260   28.5570   37.3290 H   0  0  0  0  0  0  0  0  0  0  0  0
   36.8170   29.8550   35.5130 H   0  0  0  0  0  0  0  0  0  0  0  0
   38.0520   31.9190   36.1850 H   0  0  0  0  0  0  0  0  0  0  0  0
   38.1650   32.6070   38.5350 H   0  0  0  0  0  0  0  0  0  0  0  0
   37.0530   31.3520   40.6920 C   0  0  0  0  0  0  0  0  0  0  0  0
   38.0980   30.6740   41.2710 F   0  0  0  0  0  0  0  0  0  0  0  0
   35.8590   31.2140   41.3520 F   0  0  0  0  0  0  0  0  0  0  0  0
   37.3700   32.6970   40.7630 F   0  0  0  0  0  0  0  0  0  0  0  0
   36.2760   27.6290   40.0810 C   0  0  0  0  0  0  0  0  0  0  0  0
   36.9250   27.4270   39.1970 H   0  0  0  0  0  0  0  0  0  0  0  0
   35.5020   26.8680   40.2300 H   0  0  0  0  0  0  0  0  0  0  0  0
   37.4990   27.8440   43.6360 C   0  0  0  0  0  0  0  0  0  0  0  0
   36.6310   27.8550   42.5280 C   0  0  0  0  0  0  0  0  0  0  0  0
   37.1670   27.6210   41.2660 C   0  0  0  0  0  0  0  0  0  0  0  0
   38.5130   27.3910   41.1820 N   0  0  0  0  0  0  0  0  0  0  0  0
   39.3220   27.3840   42.2560 C   0  0  0  0  0  0  0  0  0  0  0  0
   38.8140   27.6130   43.4920 N   0  0  0  0  0  0  0  0  0  0  0  0
   37.0500   28.0300   44.6000 H   0  0  0  0  0  0  0  0  0  0  0  0
   35.5670   28.0370   42.5960 H   0  0  0  0  0  0  0  0  0  0  0  0
   40.3840   27.2010   42.1680 H   0  0  0  0  0  0  0  0  0  0  0  0
  1 18  1  0  0  0  0
  1  2  1  0  0  0  0
  3  1  1  0  0  0  0
  4  9  1  0  0  0  0
  4  1  1  0  0  0  0
  5  4  2  0  0  0  0
  6  7  2  0  0  0  0
  6  5  1  0  0  0  0
  7  8  1  0  0  0  0
  8 13  1  0  0  0  0
  8  9  2  0  0  0  0
  9 14  1  0  0  0  0
 10  5  1  0  0  0  0
 11  6  1  0  0  0  0
 12  7  1  0  0  0  0
 14 17  1  0  0  0  0
 14 15  1  0  0  0  0
 14 16  1  0  0  0  0
 18 20  1  0  0  0  0
 18 23  1  0  0  0  0
 19 18  1  0  0  0  0
 21 27  1  0  0  0  0
 22 28  1  0  0  0  0
 22 21  2  0  0  0  0
 23 22  1  0  0  0  0
 24 23  2  0  0  0  0
 24 25  1  0  0  0  0
 25 26  2  0  0  0  0
 26 21  1  0  0  0  0
 29 25  1  0  0  0  0
M  END
>  <minimizedAffinity>
-4.97598457

$$$$

 OpenBabel03252508223D

 29 30  0  0  0  0  0  0  0  0999 V2000
   36.4940   29.5450   41.4390 C   0  0  0  0  0  0  0  0  0  0  0  0
   35.7220   29.5680   42.2350 H   0  0  0  0  0  0  0  0  0  0  0  0
   37.5120   29.8360   41.8330 H   0  0  0  0  0  0  0  0  0  0  0  0
   36.5010   28.2780   40.7140 C   0  0  0  0  0  0  0  0  0  0  0  0
   36.0760   28.1220   39.4100 C   0  0  0  0  0  0  0  0  0  0  0  0
   36.0720   26.9420   38.7080 C   0  0  0  0  0  0  0  0  0  0  0  0
   36.5470   25.8170   39.4080 C   0  0  0  0  0  0  0  0  0  0  0  0
   36.9870   25.9300   40.7290 C   0  0  0  0  0  0  0  0  0  0  0  0
   36.9650   27.1540   41.3800 C   0  0  0  0  0  0  0  0  0  0  0  0
   35.7230   29.0280   38.9330 H   0  0  0  0  0  0  0  0  0  0  0  0
   35.7260   26.8790   37.6860 H   0  0  0  0  0  0  0  0  0  0  0  0
   36.5660   24.8670   38.9050 H   0  0  0  0  0  0  0  0  0  0  0  0
   37.3440   25.0370   41.2240 H   0  0  0  0  0  0  0  0  0  0  0  0
   37.4350   27.2740   42.7900 C   0  0  0  0  0  0  0  0  0  0  0  0
   36.3220   27.3300   43.5940 F   0  0  0  0  0  0  0  0  0  0  0  0
   38.3240   28.2990   42.9880 F   0  0  0  0  0  0  0  0  0  0  0  0
   38.1100   26.1170   43.1340 F   0  0  0  0  0  0  0  0  0  0  0  0
   36.1630   30.7170   40.5070 C   0  0  0  0  0  0  0  0  0  0  0  0
   35.2830   31.2750   40.9060 H   0  0  0  0  0  0  0  0  0  0  0  0
   36.0250   30.3770   39.4750 H   0  0  0  0  0  0  0  0  0  0  0  0
   39.5580   32.2040   41.1770 C   0  0  0  0  0  0  0  0  0  0  0  0
   38.4880   31.2890   41.1640 C   0  0  0  0  0  0  0  0  0  0  0  0
   37.3060   31.6620   40.5340 C   0  0  0  0  0  0  0  0  0  0  0  0
   37.2570   32.9030   39.9610 N   0  0  0  0  0  0  0  0  0  0  0  0
   38.2930   33.7600   39.9860 C   0  0  0  0  0  0  0  0  0  0  0  0
   39.4520   33.4110   40.5980 N   0  0  0  0  0  0  0  0  0  0  0  0
   40.4600   31.8810   41.6740 H   0  0  0  0  0  0  0  0  0  0  0  0
   38.5290   30.3060   41.6160 H   0  0  0  0  0  0  0  0  0  0  0  0
   38.2340   34.7380   39.5280 H   0  0  0  0  0  0  0  0  0  0  0  0
  1  3  1  0  0  0  0
  1  2  1  0  0  0  0
  4  9  1  0  0  0  0
  4  1  1  0  0  0  0
  5  4  2  0  0  0  0
  6  7  2  0  0  0  0
  6  5  1  0  0  0  0
  7  8  1  0  0  0  0
  8 13  1  0  0  0  0
  8  9  2  0  0  0  0
  9 14  1  0  0  0  0
 10  5  1  0  0  0  0
 11  6  1  0  0  0  0
 12  7  1  0  0  0  0
 14 16  1  0  0  0  0
 14 17  1  0  0  0  0
 14 15  1  0  0  0  0
 18 23  1  0  0  0  0
 18 19  1  0  0  0  0
 18  1  1  0  0  0  0
 20 18  1  0  0  0  0
 21 27  1  0  0  0  0
 22 21  1  0  0  0  0
 22 28  1  0  0  0  0
 23 22  2  0  0  0  0
 24 25  2  0  0  0  0
 24 23  1  0  0  0  0
 25 26  1  0  0  0  0
 26 21  2  0  0  0  0
 29 25  1  0  0  0  0
M  END
>  <minimizedAffinity>
-4.96243143

$$$$

 OpenBabel03252508223D

 29 30  0  0  0  0  0  0  0  0999 V2000
   35.8280   30.2100   40.3390 C   0  0  0  0  0  0  0  0  0  0  0  0
   36.6610   30.5930   40.9640 H   0  0  0  0  0  0  0  0  0  0  0  0
   34.8630   30.7620   40.5420 H   0  0  0  0  0  0  0  0  0  0  0  0
   36.1760   30.1690   38.9220 C   0  0  0  0  0  0  0  0  0  0  0  0
   35.5600   29.3560   37.9900 C   0  0  0  0  0  0  0  0  0  0  0  0
   35.8700   29.2980   36.6540 C   0  0  0  0  0  0  0  0  0  0  0  0
   36.9070   30.1510   36.2330 C   0  0  0  0  0  0  0  0  0  0  0  0
   37.5560   30.9900   37.1420 C   0  0  0  0  0  0  0  0  0  0  0  0
   37.1940   31.0000   38.4800 C   0  0  0  0  0  0  0  0  0  0  0  0
   34.7730   28.7260   38.3830 H   0  0  0  0  0  0  0  0  0  0  0  0
   35.3540   28.6410   35.9690 H   0  0  0  0  0  0  0  0  0  0  0  0
   37.1900   30.1470   35.1960 H   0  0  0  0  0  0  0  0  0  0  0  0
   38.3470   31.6280   36.7700 H   0  0  0  0  0  0  0  0  0  0  0  0
   37.8870   31.8960   39.4500 C   0  0  0  0  0  0  0  0  0  0  0  0
   38.6190   31.0990   40.2970 F   0  0  0  0  0  0  0  0  0  0  0  0
   37.0460   32.7710   40.0880 F   0  0  0  0  0  0  0  0  0  0  0  0
   38.7970   32.6780   38.7610 F   0  0  0  0  0  0  0  0  0  0  0  0
   35.5170   28.8090   40.8770 C   0  0  0  0  0  0  0  0  0  0  0  0
   35.4790   28.0830   40.0310 H   0  0  0  0  0  0  0  0  0  0  0  0
   34.6060   28.8100   41.4840 H   0  0  0  0  0  0  0  0  0  0  0  0
   38.1060   26.6790   42.5930 C   0  0  0  0  0  0  0  0  0  0  0  0
   37.0320   27.0520   41.7630 C   0  0  0  0  0  0  0  0  0  0  0  0
   36.6470   28.3880   41.7420 C   0  0  0  0  0  0  0  0  0  0  0  0
   37.3400   29.2610   42.5340 N   0  0  0  0  0  0  0  0  0  0  0  0
   38.3630   28.8800   43.3190 C   0  0  0  0  0  0  0  0  0  0  0  0
   38.7500   27.5810   43.3510 N   0  0  0  0  0  0  0  0  0  0  0  0
   38.3790   25.6340   42.5850 H   0  0  0  0  0  0  0  0  0  0  0  0
   36.4850   26.3610   41.1360 H   0  0  0  0  0  0  0  0  0  0  0  0
   38.8990   29.5860   43.9390 H   0  0  0  0  0  0  0  0  0  0  0  0
  1  3  1  0  0  0  0
  1 18  1  0  0  0  0
  1  2  1  0  0  0  0
  4  1  1  0  0  0  0
  5 10  1  0  0  0  0
  5  4  2  0  0  0  0
  6  5  1  0  0  0  0
  7  6  2  0  0  0  0
  7  8  1  0  0  0  0
  8  9  2  0  0  0  0
  9  4  1  0  0  0  0
  9 14  1  0  0  0  0
 11  6  1  0  0  0  0
 12  7  1  0  0  0  0
 13  8  1  0  0  0  0
 14 16  1  0  0  0  0
 14 15  1  0  0  0  0
 17 14  1  0  0  0  0
 18 20  1  0  0  0  0
 18 23  1  0  0  0  0
 19 18  1  0  0  0  0
 21 26  1  0  0  0  0
 22 21  2  0  0  0  0
 23 22  1  0  0  0  0
 23 24  2  0  0  0  0
 24 25  1  0  0  0  0
 25 26  2  0  0  0  0
 25 29  1  0  0  0  0
 27 21  1  0  0  0  0
 28 22  1  0  0  0  0
M  END
>  <minimizedAffinity>
-4.92427492

$$$$

 OpenBabel03252508223D

 29 30  0  0  0  0  0  0  0  0999 V2000
   36.3020   28.2520   41.6910 C   0  0  0  0  0  0  0  0  0  0  0  0
   35.2260   28.3230   41.9560 H   0  0  0  0  0  0  0  0  0  0  0  0
   36.5330   27.3030   41.1230 H   0  0  0  0  0  0  0  0  0  0  0  0
   36.7830   29.4540   41.0150 C   0  0  0  0  0  0  0  0  0  0  0  0
   37.7900   30.2680   41.4940 C   0  0  0  0  0  0  0  0  0  0  0  0
   38.2580   31.4030   40.8790 C   0  0  0  0  0  0  0  0  0  0  0  0
   37.6370   31.7340   39.6600 C   0  0  0  0  0  0  0  0  0  0  0  0
   36.6140   30.9370   39.1390 C   0  0  0  0  0  0  0  0  0  0  0  0
   36.1870   29.8030   39.8120 C   0  0  0  0  0  0  0  0  0  0  0  0
   38.2230   29.9540   42.4350 H   0  0  0  0  0  0  0  0  0  0  0  0
   39.0510   32.0030   41.3000 H   0  0  0  0  0  0  0  0  0  0  0  0
   37.9650   32.6130   39.1360 H   0  0  0  0  0  0  0  0  0  0  0  0
   36.1670   31.2340   38.1990 H   0  0  0  0  0  0  0  0  0  0  0  0
   35.0960   28.9530   39.2560 C   0  0  0  0  0  0  0  0  0  0  0  0
   33.9970   29.1080   40.0670 F   0  0  0  0  0  0  0  0  0  0  0  0
   35.4640   27.6480   39.0530 F   0  0  0  0  0  0  0  0  0  0  0  0
   34.7390   29.4430   38.0130 F   0  0  0  0  0  0  0  0  0  0  0  0
   37.0410   28.0240   43.0150 C   0  0  0  0  0  0  0  0  0  0  0  0
   36.3010   27.8760   43.8350 H   0  0  0  0  0  0  0  0  0  0  0  0
   37.7510   28.8330   43.2170 H   0  0  0  0  0  0  0  0  0  0  0  0
   37.9810   24.4820   42.1470 C   0  0  0  0  0  0  0  0  0  0  0  0
   37.2370   25.6740   42.2380 C   0  0  0  0  0  0  0  0  0  0  0  0
   37.8030   26.7570   42.9020 C   0  0  0  0  0  0  0  0  0  0  0  0
   39.0550   26.5940   43.4290 N   0  0  0  0  0  0  0  0  0  0  0  0
   39.7460   25.4450   43.3290 C   0  0  0  0  0  0  0  0  0  0  0  0
   39.2070   24.3800   42.6850 N   0  0  0  0  0  0  0  0  0  0  0  0
   37.5120   23.6620   41.6250 H   0  0  0  0  0  0  0  0  0  0  0  0
   36.2470   25.8020   41.8200 H   0  0  0  0  0  0  0  0  0  0  0  0
   40.7350   25.3360   43.7530 H   0  0  0  0  0  0  0  0  0  0  0  0
  1  2  1  0  0  0  0
  1 18  1  0  0  0  0
  3  1  1  0  0  0  0
  4  5  1  0  0  0  0
  4  1  1  0  0  0  0
  5 10  1  0  0  0  0
  6 11  1  0  0  0  0
  6  5  2  0  0  0  0
  7  6  1  0  0  0  0
  8  7  2  0  0  0  0
  8  9  1  0  0  0  0
  9  4  2  0  0  0  0
 12  7  1  0  0  0  0
 13  8  1  0  0  0  0
 14  9  1  0  0  0  0
 14 15  1  0  0  0  0
 16 14  1  0  0  0  0
 17 14  1  0  0  0  0
 18 20  1  0  0  0  0
 18 19  1  0  0  0  0
 21 22  2  0  0  0  0
 21 26  1  0  0  0  0
 22 23  1  0  0  0  0
 23 18  1  0  0  0  0
 23 24  2  0  0  0  0
 25 24  1  0  0  0  0
 25 29  1  0  0  0  0
 26 25  2  0  0  0  0
 27 21  1  0  0  0  0
 28 22  1  0  0  0  0
M  END
>  <minimizedAffinity>
-4.92319012

$$$$

 OpenBabel03252508223D

 29 30  0  0  0  0  0  0  0  0999 V2000
   38.8020   29.2180   42.9570 C   0  0  0  0  0  0  0  0  0  0  0  0
   39.6260   28.6200   42.5170 H   0  0  0  0  0  0  0  0  0  0  0  0
   39.1280   29.7560   43.8950 H   0  0  0  0  0  0  0  0  0  0  0  0
   38.1800   30.1030   41.9770 C   0  0  0  0  0  0  0  0  0  0  0  0
   36.8580   30.0270   41.5840 C   0  0  0  0  0  0  0  0  0  0  0  0
   36.2510   30.8450   40.6640 C   0  0  0  0  0  0  0  0  0  0  0  0
   37.0740   31.8350   40.0940 C   0  0  0  0  0  0  0  0  0  0  0  0
   38.4170   31.9470   40.4630 C   0  0  0  0  0  0  0  0  0  0  0  0
   38.9680   31.0870   41.4000 C   0  0  0  0  0  0  0  0  0  0  0  0
   36.2840   29.2440   42.0620 H   0  0  0  0  0  0  0  0  0  0  0  0
   35.2100   30.7390   40.3940 H   0  0  0  0  0  0  0  0  0  0  0  0
   36.6500   32.5030   39.3680 H   0  0  0  0  0  0  0  0  0  0  0  0
   39.0090   32.7240   39.9970 H   0  0  0  0  0  0  0  0  0  0  0  0
   40.4010   31.2080   41.7940 C   0  0  0  0  0  0  0  0  0  0  0  0
   40.8970   32.3460   41.2050 F   0  0  0  0  0  0  0  0  0  0  0  0
   41.1380   30.0790   41.5440 F   0  0  0  0  0  0  0  0  0  0  0  0
   40.4710   31.4100   43.1610 F   0  0  0  0  0  0  0  0  0  0  0  0
   37.7960   28.1980   43.5040 C   0  0  0  0  0  0  0  0  0  0  0  0
   36.8260   28.3010   42.9620 H   0  0  0  0  0  0  0  0  0  0  0  0
   37.6930   28.2850   44.5910 H   0  0  0  0  0  0  0  0  0  0  0  0
   40.0120   25.1560   43.3710 C   0  0  0  0  0  0  0  0  0  0  0  0
   39.5490   26.4490   43.6800 C   0  0  0  0  0  0  0  0  0  0  0  0
   38.3060   26.8400   43.1960 C   0  0  0  0  0  0  0  0  0  0  0  0
   37.6050   25.9360   42.4460 N   0  0  0  0  0  0  0  0  0  0  0  0
   38.0680   24.7050   42.1650 C   0  0  0  0  0  0  0  0  0  0  0  0
   39.2790   24.3100   42.6290 N   0  0  0  0  0  0  0  0  0  0  0  0
   40.9810   24.8850   43.7640 H   0  0  0  0  0  0  0  0  0  0  0  0
   40.1050   27.1630   44.2740 H   0  0  0  0  0  0  0  0  0  0  0  0
   37.4980   24.0050   41.5690 H   0  0  0  0  0  0  0  0  0  0  0  0
  1 18  1  0  0  0  0
  1  3  1  0  0  0  0
  2  1  1  0  0  0  0
  4  1  1  0  0  0  0
  5  4  1  0  0  0  0
  5 10  1  0  0  0  0
  6  5  2  0  0  0  0
  7  8  2  0  0  0  0
  7  6  1  0  0  0  0
  8  9  1  0  0  0  0
  9 14  1  0  0  0  0
  9  4  2  0  0  0  0
 11  6  1  0  0  0  0
 12  7  1  0  0  0  0
 13  8  1  0  0  0  0
 14 17  1  0  0  0  0
 15 14  1  0  0  0  0
 16 14  1  0  0  0  0
 18 20  1  0  0  0  0
 19 18  1  0  0  0  0
 21 22  1  0  0  0  0
 21 27  1  0  0  0  0
 22 28  1  0  0  0  0
 23 18  1  0  0  0  0
 23 22  2  0  0  0  0
 24 23  1  0  0  0  0
 25 24  2  0  0  0  0
 25 26  1  0  0  0  0
 26 21  2  0  0  0  0
 29 25  1  0  0  0  0
M  END
>  <minimizedAffinity>
-4.81643724

$$$$

 OpenBabel03252508223D

 29 30  0  0  0  0  0  0  0  0999 V2000
   38.4560   30.8780   41.1970 C   0  0  0  0  0  0  0  0  0  0  0  0
   38.5070   30.7330   40.0980 H   0  0  0  0  0  0  0  0  0  0  0  0
   37.7880   31.7450   41.4750 H   0  0  0  0  0  0  0  0  0  0  0  0
   38.1150   29.6450   41.9000 C   0  0  0  0  0  0  0  0  0  0  0  0
   38.9420   29.0060   42.8030 C   0  0  0  0  0  0  0  0  0  0  0  0
   38.6450   27.8470   43.4750 C   0  0  0  0  0  0  0  0  0  0  0  0
   37.3830   27.2890   43.1970 C   0  0  0  0  0  0  0  0  0  0  0  0
   36.5150   27.9020   42.2900 C   0  0  0  0  0  0  0  0  0  0  0  0
   36.8770   29.0740   41.6440 C   0  0  0  0  0  0  0  0  0  0  0  0
   39.8960   29.4900   42.9690 H   0  0  0  0  0  0  0  0  0  0  0  0
   39.3320   27.3910   44.1730 H   0  0  0  0  0  0  0  0  0  0  0  0
   37.0990   26.3810   43.6960 H   0  0  0  0  0  0  0  0  0  0  0  0
   35.5550   27.4350   42.1090 H   0  0  0  0  0  0  0  0  0  0  0  0
   35.9500   29.7280   40.6770 C   0  0  0  0  0  0  0  0  0  0  0  0
   34.7550   29.0520   40.7290 F   0  0  0  0  0  0  0  0  0  0  0  0
   36.4710   29.8540   39.4150 F   0  0  0  0  0  0  0  0  0  0  0  0
   35.6920   31.0170   41.1100 F   0  0  0  0  0  0  0  0  0  0  0  0
   39.8400   31.3900   41.6120 C   0  0  0  0  0  0  0  0  0  0  0  0
   40.5360   30.5290   41.7370 H   0  0  0  0  0  0  0  0  0  0  0  0
   39.7770   32.0260   42.5020 H   0  0  0  0  0  0  0  0  0  0  0  0
   40.6930   32.5940   38.1470 C   0  0  0  0  0  0  0  0  0  0  0  0
   40.1690   31.8010   39.1850 C   0  0  0  0  0  0  0  0  0  0  0  0
   40.3790   32.2080   40.4980 C   0  0  0  0  0  0  0  0  0  0  0  0
   41.0860   33.3620   40.6990 N   0  0  0  0  0  0  0  0  0  0  0  0
   41.5770   34.1030   39.6900 C   0  0  0  0  0  0  0  0  0  0  0  0
   41.3810   33.7190   38.4040 N   0  0  0  0  0  0  0  0  0  0  0  0
   40.5100   32.2490   37.1400 H   0  0  0  0  0  0  0  0  0  0  0  0
   39.6090   30.8890   39.0250 H   0  0  0  0  0  0  0  0  0  0  0  0
   42.1340   35.0120   39.8690 H   0  0  0  0  0  0  0  0  0  0  0  0
  1  3  1  0  0  0  0
  1 18  1  0  0  0  0
  1  4  1  0  0  0  0
  2  1  1  0  0  0  0
  4  5  1  0  0  0  0
  5 10  1  0  0  0  0
  5  6  2  0  0  0  0
  6 11  1  0  0  0  0
  7  6  1  0  0  0  0
  7 12  1  0  0  0  0
  8  7  2  0  0  0  0
  9  4  2  0  0  0  0
  9  8  1  0  0  0  0
 13  8  1  0  0  0  0
 14 15  1  0  0  0  0
 14 17  1  0  0  0  0
 14  9  1  0  0  0  0
 16 14  1  0  0  0  0
 18 19  1  0  0  0  0
 18 20  1  0  0  0  0
 21 26  2  0  0  0  0
 21 22  1  0  0  0  0
 22 23  2  0  0  0  0
 23 24  1  0  0  0  0
 23 18  1  0  0  0  0
 25 29  1  0  0  0  0
 25 24  2  0  0  0  0
 26 25  1  0  0  0  0
 27 21  1  0  0  0  0
 28 22  1  0  0  0  0
M  END
>  <minimizedAffinity>
-4.79665279

$$$$

 OpenBabel03252508223D

 29 30  0  0  0  0  0  0  0  0999 V2000
   36.8660   28.1730   40.2420 C   0  0  0  0  0  0  0  0  0  0  0  0
   37.3090   28.7690   41.0670 H   0  0  0  0  0  0  0  0  0  0  0  0
   37.3340   28.4230   39.2450 H   0  0  0  0  0  0  0  0  0  0  0  0
   36.8700   26.7420   40.5320 C   0  0  0  0  0  0  0  0  0  0  0  0
   36.5330   25.7600   39.6220 C   0  0  0  0  0  0  0  0  0  0  0  0
   36.5270   24.4100   39.8710 C   0  0  0  0  0  0  0  0  0  0  0  0
   36.9020   24.0300   41.1740 C   0  0  0  0  0  0  0  0  0  0  0  0
   37.2520   24.9920   42.1260 C   0  0  0  0  0  0  0  0  0  0  0  0
   37.2360   26.3410   41.8080 C   0  0  0  0  0  0  0  0  0  0  0  0
   36.2550   26.1220   38.6410 H   0  0  0  0  0  0  0  0  0  0  0  0
   36.2540   23.6840   39.1190 H   0  0  0  0  0  0  0  0  0  0  0  0
   36.9160   22.9850   41.4230 H   0  0  0  0  0  0  0  0  0  0  0  0
   37.5330   24.6500   43.1140 H   0  0  0  0  0  0  0  0  0  0  0  0
   37.6090   27.3660   42.8240 C   0  0  0  0  0  0  0  0  0  0  0  0
   36.4930   27.6180   43.5860 F   0  0  0  0  0  0  0  0  0  0  0  0
   38.1880   28.4870   42.2870 F   0  0  0  0  0  0  0  0  0  0  0  0
   38.5530   26.8250   43.6770 F   0  0  0  0  0  0  0  0  0  0  0  0
   35.4370   28.7010   40.0690 C   0  0  0  0  0  0  0  0  0  0  0  0
   35.3570   29.7180   40.5190 H   0  0  0  0  0  0  0  0  0  0  0  0
   34.7020   27.9950   40.4680 H   0  0  0  0  0  0  0  0  0  0  0  0
   33.6550   29.0380   36.7680 C   0  0  0  0  0  0  0  0  0  0  0  0
   33.8710   28.8850   38.1510 C   0  0  0  0  0  0  0  0  0  0  0  0
   35.1810   28.8640   38.6170 C   0  0  0  0  0  0  0  0  0  0  0  0
   36.1840   28.9960   37.6960 N   0  0  0  0  0  0  0  0  0  0  0  0
   35.9530   29.1420   36.3800 C   0  0  0  0  0  0  0  0  0  0  0  0
   34.6810   29.1630   35.9100 N   0  0  0  0  0  0  0  0  0  0  0  0
   32.6260   29.0510   36.4410 H   0  0  0  0  0  0  0  0  0  0  0  0
   33.0770   28.7810   38.8780 H   0  0  0  0  0  0  0  0  0  0  0  0
   36.7600   29.2440   35.6670 H   0  0  0  0  0  0  0  0  0  0  0  0
  1  4  1  0  0  0  0
  1  2  1  0  0  0  0
  3  1  1  0  0  0  0
  4  9  1  0  0  0  0
  5  6  1  0  0  0  0
  5  4  2  0  0  0  0
  6  7  2  0  0  0  0
  7 12  1  0  0  0  0
  7  8  1  0  0  0  0
  8 13  1  0  0  0  0
  9  8  2  0  0  0  0
  9 14  1  0  0  0  0
 10  5  1  0  0  0  0
 11  6  1  0  0  0  0
 14 15  1  0  0  0  0
 14 17  1  0  0  0  0
 16 14  1  0  0  0  0
 18  1  1  0  0  0  0
 18 20  1  0  0  0  0
 18 19  1  0  0  0  0
 21 22  1  0  0  0  0
 22 23  2  0  0  0  0
 22 28  1  0  0  0  0
 23 18  1  0  0  0  0
 24 23  1  0  0  0  0
 25 24  2  0  0  0  0
 26 25  1  0  0  0  0
 26 21  2  0  0  0  0
 27 21  1  0  0  0  0
 29 25  1  0  0  0  0
M  END
>  <minimizedAffinity>
-4.71062803

$$$$
