
 OpenBabel03242521213D

 31 33  0  0  0  0  0  0  0  0999 V2000
   44.7090   32.6370   38.1120 C   0  0  0  0  0  0  0  0  0  0  0  0
   44.3620   31.8540   37.0530 C   0  0  0  0  0  0  0  0  0  0  0  0
   43.1220   31.2620   36.9070 C   0  0  0  0  0  0  0  0  0  0  0  0
   42.2410   31.5130   37.9060 N   0  0  0  0  0  0  0  0  0  0  0  0
   42.5840   32.2860   38.9480 C   0  0  0  0  0  0  0  0  0  0  0  0
   43.8010   32.8670   39.0910 N   0  0  0  0  0  0  0  0  0  0  0  0
   45.0720   31.6580   36.2600 H   0  0  0  0  0  0  0  0  0  0  0  0
   42.8370   30.6450   36.0820 H   0  0  0  0  0  0  0  0  0  0  0  0
   41.5920   32.5400   40.0240 C   0  0  0  0  0  0  0  0  0  0  0  0
   41.3960   31.5840   41.0030 C   0  0  0  0  0  0  0  0  0  0  0  0
   40.5050   31.7160   42.0440 C   0  0  0  0  0  0  0  0  0  0  0  0
   39.7610   32.9050   42.0910 C   0  0  0  0  0  0  0  0  0  0  0  0
   39.9580   33.8450   41.1230 C   0  0  0  0  0  0  0  0  0  0  0  0
   40.8540   33.6950   40.0910 C   0  0  0  0  0  0  0  0  0  0  0  0
   41.9840   30.6760   40.9420 H   0  0  0  0  0  0  0  0  0  0  0  0
   40.3990   30.9270   42.7810 H   0  0  0  0  0  0  0  0  0  0  0  0
   39.0550   33.0280   42.9000 H   0  0  0  0  0  0  0  0  0  0  0  0
   39.3670   34.7490   41.1930 H   0  0  0  0  0  0  0  0  0  0  0  0
   41.0500   34.7350   39.0480 C   0  0  0  0  0  0  0  0  0  0  0  0
   42.3170   35.2950   39.2600 F   0  0  0  0  0  0  0  0  0  0  0  0
   41.0260   34.2620   37.7710 F   0  0  0  0  0  0  0  0  0  0  0  0
   40.1440   35.7640   39.2790 F   0  0  0  0  0  0  0  0  0  0  0  0
   47.7570   34.0700   39.5600 C   0  0  0  0  0  0  0  0  0  0  0  0
   48.5110   34.3650   38.4310 C   0  0  0  0  0  0  0  0  0  0  0  0
   47.9860   34.0790   37.1820 C   0  0  0  0  0  0  0  0  0  0  0  0
   46.7380   33.5130   37.1110 N   0  0  0  0  0  0  0  0  0  0  0  0
   46.0300   33.2380   38.2200 C   0  0  0  0  0  0  0  0  0  0  0  0
   46.5320   33.5110   39.4240 N   0  0  0  0  0  0  0  0  0  0  0  0
   48.2100   34.3110   40.5120 H   0  0  0  0  0  0  0  0  0  0  0  0
   49.4810   34.8010   38.3910 H   0  0  0  0  0  0  0  0  0  0  0  0
   48.4040   34.2290   36.1960 H   0  0  0  0  0  0  0  0  0  0  0  0
  1 27  1  0  0  0  0
  1  6  1  0  0  0  0
  2  1  2  0  0  0  0
  3  2  1  0  0  0  0
  3  4  2  0  0  0  0
  4  5  1  0  0  0  0
  5  6  2  0  0  0  0
  5  9  1  0  0  0  0
  7  2  1  0  0  0  0
  8  3  1  0  0  0  0
  9 14  2  0  0  0  0
  9 10  1  0  0  0  0
 10 11  2  0  0  0  0
 11 12  1  0  0  0  0
 11 16  1  0  0  0  0
 12 17  1  0  0  0  0
 13 18  1  0  0  0  0
 13 12  2  0  0  0  0
 14 13  1  0  0  0  0
 15 10  1  0  0  0  0
 19 20  1  0  0  0  0
 19 22  1  0  0  0  0
 19 14  1  0  0  0  0
 21 19  1  0  0  0  0
 23 29  1  0  0  0  0
 24 23  2  0  0  0  0
 25 24  1  0  0  0  0
 26 25  2  0  0  0  0
 26 27  1  0  0  0  0
 27 28  2  0  0  0  0
 28 23  1  0  0  0  0
 30 24  1  0  0  0  0
 31 25  1  0  0  0  0
M  END
>  <minimizedAffinity>
-4.64175081

>  <minimizedRMSD>
8.50363445

$$$$
