
 OpenBabel03242521153D

 23 24  0  0  0  0  0  0  0  0999 V2000
   37.5340   27.6730   43.6790 C   0  0  0  0  0  0  0  0  0  0  0  0
   37.6920   28.9930   43.1870 C   0  0  0  0  0  0  0  0  0  0  0  0
   37.6160   29.1720   41.8040 C   0  0  0  0  0  0  0  0  0  0  0  0
   37.3980   28.0800   41.0090 N   0  0  0  0  0  0  0  0  0  0  0  0
   37.2550   26.8490   41.5210 C   0  0  0  0  0  0  0  0  0  0  0  0
   37.3200   26.6280   42.8490 N   0  0  0  0  0  0  0  0  0  0  0  0
   37.5940   27.5380   44.7620 H   0  0  0  0  0  0  0  0  0  0  0  0
   37.8620   29.8290   43.8380 H   0  0  0  0  0  0  0  0  0  0  0  0
   37.7730   30.4910   41.2990 N   0  0  0  0  0  0  0  0  0  0  0  0
   38.9950   31.0540   41.3480 C   0  0  0  0  0  0  0  0  0  0  0  0
   39.1590   32.3500   40.8540 C   0  0  0  0  0  0  0  0  0  0  0  0
   38.0590   32.9790   40.3440 C   0  0  0  0  0  0  0  0  0  0  0  0
   38.2160   34.1610   39.8950 O   0  0  0  0  0  0  0  0  0  0  0  0
   36.8350   32.4370   40.2850 N   0  0  0  0  0  0  0  0  0  0  0  0
   36.7430   31.1740   40.7830 C   0  0  0  0  0  0  0  0  0  0  0  0
   35.6490   30.5840   40.7740 O   0  0  0  0  0  0  0  0  0  0  0  0
   39.8270   30.5010   41.7660 H   0  0  0  0  0  0  0  0  0  0  0  0
   40.1520   32.8090   40.8940 H   0  0  0  0  0  0  0  0  0  0  0  0
   36.0180   32.9510   39.8870 H   0  0  0  0  0  0  0  0  0  0  0  0
   37.0190   25.6970   40.5950 C   0  0  0  0  0  0  0  0  0  0  0  0
   38.1850   25.3280   39.9510 F   0  0  0  0  0  0  0  0  0  0  0  0
   36.5330   24.6020   41.2920 F   0  0  0  0  0  0  0  0  0  0  0  0
   36.0920   26.0220   39.6280 F   0  0  0  0  0  0  0  0  0  0  0  0
  1  7  1  0  0  0  0
  2  1  1  0  0  0  0
  2  8  1  0  0  0  0
  3  2  2  0  0  0  0
  4  5  2  0  0  0  0
  4  3  1  0  0  0  0
  5  6  1  0  0  0  0
  6  1  2  0  0  0  0
  9 10  1  0  0  0  0
  9  3  1  0  0  0  0
 10 17  1  0  0  0  0
 11 18  1  0  0  0  0
 11 10  2  0  0  0  0
 12 11  1  0  0  0  0
 13 12  2  0  0  0  0
 14 12  1  0  0  0  0
 14 15  1  0  0  0  0
 15  9  1  0  0  0  0
 16 15  2  0  0  0  0
 19 14  1  0  0  0  0
 20 22  1  0  0  0  0
 20  5  1  0  0  0  0
 21 20  1  0  0  0  0
 23 20  1  0  0  0  0
M  END
>  <minimizedAffinity>
-5.41396999

$$$$

 OpenBabel03242521153D

 23 24  0  0  0  0  0  0  0  0999 V2000
   36.5650   27.0000   39.0910 C   0  0  0  0  0  0  0  0  0  0  0  0
   36.9390   28.3640   39.0090 C   0  0  0  0  0  0  0  0  0  0  0  0
   37.3490   28.9860   40.1910 C   0  0  0  0  0  0  0  0  0  0  0  0
   37.3680   28.2540   41.3470 N   0  0  0  0  0  0  0  0  0  0  0  0
   37.0060   26.9640   41.3750 C   0  0  0  0  0  0  0  0  0  0  0  0
   36.6030   26.3230   40.2600 N   0  0  0  0  0  0  0  0  0  0  0  0
   36.2440   26.5180   38.1640 H   0  0  0  0  0  0  0  0  0  0  0  0
   36.9110   28.9100   38.0860 H   0  0  0  0  0  0  0  0  0  0  0  0
   37.7260   30.3540   40.1220 N   0  0  0  0  0  0  0  0  0  0  0  0
   38.9270   30.6620   39.5980 C   0  0  0  0  0  0  0  0  0  0  0  0
   39.3040   32.0040   39.5260 C   0  0  0  0  0  0  0  0  0  0  0  0
   38.4250   32.9380   39.9960 C   0  0  0  0  0  0  0  0  0  0  0  0
   38.7780   34.1610   39.9270 O   0  0  0  0  0  0  0  0  0  0  0  0
   37.2260   32.6530   40.5210 N   0  0  0  0  0  0  0  0  0  0  0  0
   36.9190   31.3290   40.5630 C   0  0  0  0  0  0  0  0  0  0  0  0
   35.8280   30.9610   41.0320 O   0  0  0  0  0  0  0  0  0  0  0  0
   39.5780   29.8730   39.2430 H   0  0  0  0  0  0  0  0  0  0  0  0
   40.2810   32.2560   39.1000 H   0  0  0  0  0  0  0  0  0  0  0  0
   36.5820   33.3970   40.8700 H   0  0  0  0  0  0  0  0  0  0  0  0
   37.0500   26.2220   42.6740 C   0  0  0  0  0  0  0  0  0  0  0  0
   38.3370   26.1700   43.1750 F   0  0  0  0  0  0  0  0  0  0  0  0
   36.2340   26.8310   43.6140 F   0  0  0  0  0  0  0  0  0  0  0  0
   36.6100   24.9240   42.5160 F   0  0  0  0  0  0  0  0  0  0  0  0
  1  6  1  0  0  0  0
  2  1  2  0  0  0  0
  2  3  1  0  0  0  0
  3  4  2  0  0  0  0
  4  5  1  0  0  0  0
  5 20  1  0  0  0  0
  6  5  2  0  0  0  0
  7  1  1  0  0  0  0
  8  2  1  0  0  0  0
  9  3  1  0  0  0  0
  9 15  1  0  0  0  0
 10  9  1  0  0  0  0
 11 10  2  0  0  0  0
 11 12  1  0  0  0  0
 12 14  1  0  0  0  0
 13 12  2  0  0  0  0
 14 15  1  0  0  0  0
 14 19  1  0  0  0  0
 15 16  2  0  0  0  0
 17 10  1  0  0  0  0
 18 11  1  0  0  0  0
 20 21  1  0  0  0  0
 20 22  1  0  0  0  0
 23 20  1  0  0  0  0
M  END
>  <minimizedAffinity>
-5.23480415

$$$$

 OpenBabel03242521153D

 23 24  0  0  0  0  0  0  0  0999 V2000
   39.6830   27.7690   43.2080 C   0  0  0  0  0  0  0  0  0  0  0  0
   39.3800   29.0150   42.6060 C   0  0  0  0  0  0  0  0  0  0  0  0
   38.3900   29.0230   41.6190 C   0  0  0  0  0  0  0  0  0  0  0  0
   37.7760   27.8450   41.2930 N   0  0  0  0  0  0  0  0  0  0  0  0
   38.0970   26.6890   41.8920 C   0  0  0  0  0  0  0  0  0  0  0  0
   39.0450   26.6330   42.8480 N   0  0  0  0  0  0  0  0  0  0  0  0
   40.4580   27.7670   43.9790 H   0  0  0  0  0  0  0  0  0  0  0  0
   39.8810   29.9220   42.8840 H   0  0  0  0  0  0  0  0  0  0  0  0
   38.0770   30.2670   41.0070 N   0  0  0  0  0  0  0  0  0  0  0  0
   39.0280   30.8760   40.2750 C   0  0  0  0  0  0  0  0  0  0  0  0
   38.7300   32.0990   39.6690 C   0  0  0  0  0  0  0  0  0  0  0  0
   37.4780   32.6120   39.8570 C   0  0  0  0  0  0  0  0  0  0  0  0
   37.2130   33.7280   39.3010 O   0  0  0  0  0  0  0  0  0  0  0  0
   36.5180   32.0220   40.5810 N   0  0  0  0  0  0  0  0  0  0  0  0
   36.8720   30.8350   41.1440 C   0  0  0  0  0  0  0  0  0  0  0  0
   36.0510   30.2090   41.8360 O   0  0  0  0  0  0  0  0  0  0  0  0
   40.0030   30.4160   40.1650 H   0  0  0  0  0  0  0  0  0  0  0  0
   39.5030   32.5950   39.0730 H   0  0  0  0  0  0  0  0  0  0  0  0
   35.5710   32.4470   40.7010 H   0  0  0  0  0  0  0  0  0  0  0  0
   37.3860   25.4360   41.4880 C   0  0  0  0  0  0  0  0  0  0  0  0
   36.5730   25.6550   40.3910 F   0  0  0  0  0  0  0  0  0  0  0  0
   38.2950   24.4380   41.1720 F   0  0  0  0  0  0  0  0  0  0  0  0
   36.5900   24.9670   42.5110 F   0  0  0  0  0  0  0  0  0  0  0  0
  1  7  1  0  0  0  0
  2  8  1  0  0  0  0
  2  1  2  0  0  0  0
  3  2  1  0  0  0  0
  4  3  2  0  0  0  0
  4  5  1  0  0  0  0
  5  6  2  0  0  0  0
  6  1  1  0  0  0  0
  9 15  1  0  0  0  0
  9  3  1  0  0  0  0
 10  9  1  0  0  0  0
 11 12  1  0  0  0  0
 11 10  2  0  0  0  0
 12 14  1  0  0  0  0
 13 12  2  0  0  0  0
 14 19  1  0  0  0  0
 14 15  1  0  0  0  0
 15 16  2  0  0  0  0
 17 10  1  0  0  0  0
 18 11  1  0  0  0  0
 20  5  1  0  0  0  0
 20 23  1  0  0  0  0
 21 20  1  0  0  0  0
 22 20  1  0  0  0  0
M  END
>  <minimizedAffinity>
-4.94905233

$$$$

 OpenBabel03242521153D

 23 24  0  0  0  0  0  0  0  0999 V2000
   35.5230   29.4800   39.9500 C   0  0  0  0  0  0  0  0  0  0  0  0
   36.4980   30.2970   39.3270 C   0  0  0  0  0  0  0  0  0  0  0  0
   37.7700   30.3280   39.9060 C   0  0  0  0  0  0  0  0  0  0  0  0
   38.0000   29.5790   41.0270 N   0  0  0  0  0  0  0  0  0  0  0  0
   37.0450   28.8200   41.5810 C   0  0  0  0  0  0  0  0  0  0  0  0
   35.8040   28.7580   41.0570 N   0  0  0  0  0  0  0  0  0  0  0  0
   34.5300   29.4590   39.4930 H   0  0  0  0  0  0  0  0  0  0  0  0
   36.2840   30.8740   38.4480 H   0  0  0  0  0  0  0  0  0  0  0  0
   38.7560   31.1450   39.2910 N   0  0  0  0  0  0  0  0  0  0  0  0
   39.5330   30.6010   38.3360 C   0  0  0  0  0  0  0  0  0  0  0  0
   40.5050   31.3970   37.7270 C   0  0  0  0  0  0  0  0  0  0  0  0
   40.6140   32.6950   38.1380 C   0  0  0  0  0  0  0  0  0  0  0  0
   41.5030   33.4150   37.5770 O   0  0  0  0  0  0  0  0  0  0  0  0
   39.8510   33.2560   39.0860 N   0  0  0  0  0  0  0  0  0  0  0  0
   38.9250   32.4270   39.6400 C   0  0  0  0  0  0  0  0  0  0  0  0
   38.1670   32.8540   40.5300 O   0  0  0  0  0  0  0  0  0  0  0  0
   39.3960   29.5640   38.0550 H   0  0  0  0  0  0  0  0  0  0  0  0
   41.1380   30.9550   36.9490 H   0  0  0  0  0  0  0  0  0  0  0  0
   39.9650   34.2530   39.3730 H   0  0  0  0  0  0  0  0  0  0  0  0
   37.3640   28.0230   42.8070 C   0  0  0  0  0  0  0  0  0  0  0  0
   38.1550   28.7470   43.6800 F   0  0  0  0  0  0  0  0  0  0  0  0
   36.2020   27.6540   43.4670 F   0  0  0  0  0  0  0  0  0  0  0  0
   38.0460   26.8690   42.4840 F   0  0  0  0  0  0  0  0  0  0  0  0
  1  6  1  0  0  0  0
  2  3  1  0  0  0  0
  2  1  2  0  0  0  0
  3  4  2  0  0  0  0
  4  5  1  0  0  0  0
  5 20  1  0  0  0  0
  6  5  2  0  0  0  0
  7  1  1  0  0  0  0
  8  2  1  0  0  0  0
  9 15  1  0  0  0  0
  9  3  1  0  0  0  0
 10  9  1  0  0  0  0
 11 12  1  0  0  0  0
 11 10  2  0  0  0  0
 12 14  1  0  0  0  0
 13 12  2  0  0  0  0
 14 19  1  0  0  0  0
 14 15  1  0  0  0  0
 15 16  2  0  0  0  0
 17 10  1  0  0  0  0
 18 11  1  0  0  0  0
 20 22  1  0  0  0  0
 20 21  1  0  0  0  0
 23 20  1  0  0  0  0
M  END
>  <minimizedAffinity>
-4.91636181

$$$$

 OpenBabel03242521153D

 23 24  0  0  0  0  0  0  0  0999 V2000
   39.7460   27.3120   43.1890 C   0  0  0  0  0  0  0  0  0  0  0  0
   39.4190   28.4910   42.4750 C   0  0  0  0  0  0  0  0  0  0  0  0
   38.3970   28.4000   41.5260 C   0  0  0  0  0  0  0  0  0  0  0  0
   37.7770   27.1950   41.3400 N   0  0  0  0  0  0  0  0  0  0  0  0
   38.1220   26.1050   42.0410 C   0  0  0  0  0  0  0  0  0  0  0  0
   39.1010   26.1460   42.9660 N   0  0  0  0  0  0  0  0  0  0  0  0
   40.5460   27.3880   43.9310 H   0  0  0  0  0  0  0  0  0  0  0  0
   39.9260   29.4210   42.6440 H   0  0  0  0  0  0  0  0  0  0  0  0
   38.0610   29.5760   40.8020 N   0  0  0  0  0  0  0  0  0  0  0  0
   37.1450   30.4110   41.3290 C   0  0  0  0  0  0  0  0  0  0  0  0
   36.8090   31.5690   40.6240 C   0  0  0  0  0  0  0  0  0  0  0  0
   37.4330   31.7900   39.4290 C   0  0  0  0  0  0  0  0  0  0  0  0
   37.1200   32.8490   38.7930 O   0  0  0  0  0  0  0  0  0  0  0  0
   38.3460   30.9720   38.8890 N   0  0  0  0  0  0  0  0  0  0  0  0
   38.6290   29.8630   39.6240 C   0  0  0  0  0  0  0  0  0  0  0  0
   39.4640   29.0410   39.2070 O   0  0  0  0  0  0  0  0  0  0  0  0
   36.6870   30.1770   42.2810 H   0  0  0  0  0  0  0  0  0  0  0  0
   36.0640   32.2490   41.0510 H   0  0  0  0  0  0  0  0  0  0  0  0
   38.8020   31.1770   37.9720 H   0  0  0  0  0  0  0  0  0  0  0  0
   37.4020   24.8170   41.7890 C   0  0  0  0  0  0  0  0  0  0  0  0
   36.3310   24.6680   42.6490 F   0  0  0  0  0  0  0  0  0  0  0  0
   36.9330   24.7660   40.4850 F   0  0  0  0  0  0  0  0  0  0  0  0
   38.2410   23.7380   41.9740 F   0  0  0  0  0  0  0  0  0  0  0  0
  1  7  1  0  0  0  0
  2  8  1  0  0  0  0
  2  1  2  0  0  0  0
  3  2  1  0  0  0  0
  4  3  2  0  0  0  0
  4  5  1  0  0  0  0
  5  6  2  0  0  0  0
  6  1  1  0  0  0  0
  9 10  1  0  0  0  0
  9  3  1  0  0  0  0
 10 17  1  0  0  0  0
 11 18  1  0  0  0  0
 11 10  2  0  0  0  0
 12 11  1  0  0  0  0
 13 12  2  0  0  0  0
 14 12  1  0  0  0  0
 14 15  1  0  0  0  0
 15  9  1  0  0  0  0
 16 15  2  0  0  0  0
 19 14  1  0  0  0  0
 20 23  1  0  0  0  0
 20  5  1  0  0  0  0
 20 21  1  0  0  0  0
 22 20  1  0  0  0  0
M  END
>  <minimizedAffinity>
-4.63327026

$$$$

 OpenBabel03242521153D

 23 24  0  0  0  0  0  0  0  0999 V2000
   37.6870   31.0490   37.1670 C   0  0  0  0  0  0  0  0  0  0  0  0
   37.2900   30.1580   38.1960 C   0  0  0  0  0  0  0  0  0  0  0  0
   38.0000   30.2150   39.3980 C   0  0  0  0  0  0  0  0  0  0  0  0
   39.0250   31.1140   39.5150 N   0  0  0  0  0  0  0  0  0  0  0  0
   39.3630   31.9370   38.5130 C   0  0  0  0  0  0  0  0  0  0  0  0
   38.7070   31.9180   37.3360 N   0  0  0  0  0  0  0  0  0  0  0  0
   37.1280   31.0000   36.2290 H   0  0  0  0  0  0  0  0  0  0  0  0
   36.4820   29.4640   38.0710 H   0  0  0  0  0  0  0  0  0  0  0  0
   37.6130   29.3270   40.4370 N   0  0  0  0  0  0  0  0  0  0  0  0
   38.1320   28.0850   40.4430 C   0  0  0  0  0  0  0  0  0  0  0  0
   37.7570   27.2050   41.4610 C   0  0  0  0  0  0  0  0  0  0  0  0
   36.8760   27.6590   42.4010 C   0  0  0  0  0  0  0  0  0  0  0  0
   36.5390   26.8500   43.3260 O   0  0  0  0  0  0  0  0  0  0  0  0
   36.3490   28.8910   42.4130 N   0  0  0  0  0  0  0  0  0  0  0  0
   36.7540   29.6970   41.3960 C   0  0  0  0  0  0  0  0  0  0  0  0
   36.3210   30.8610   41.3180 O   0  0  0  0  0  0  0  0  0  0  0  0
   38.8260   27.7860   39.6670 H   0  0  0  0  0  0  0  0  0  0  0  0
   38.1780   26.1940   41.4670 H   0  0  0  0  0  0  0  0  0  0  0  0
   35.6780   29.2010   43.1510 H   0  0  0  0  0  0  0  0  0  0  0  0
   40.4950   32.8980   38.7070 C   0  0  0  0  0  0  0  0  0  0  0  0
   40.0550   34.0790   39.2750 F   0  0  0  0  0  0  0  0  0  0  0  0
   41.4680   32.3480   39.5270 F   0  0  0  0  0  0  0  0  0  0  0  0
   41.0900   33.2100   37.5030 F   0  0  0  0  0  0  0  0  0  0  0  0
  1  6  2  0  0  0  0
  1  2  1  0  0  0  0
  2  3  2  0  0  0  0
  3  4  1  0  0  0  0
  3  9  1  0  0  0  0
  5 20  1  0  0  0  0
  5  4  2  0  0  0  0
  6  5  1  0  0  0  0
  7  1  1  0  0  0  0
  8  2  1  0  0  0  0
  9 10  1  0  0  0  0
  9 15  1  0  0  0  0
 10 11  2  0  0  0  0
 11 18  1  0  0  0  0
 11 12  1  0  0  0  0
 12 14  1  0  0  0  0
 12 13  2  0  0  0  0
 14 19  1  0  0  0  0
 15 14  1  0  0  0  0
 16 15  2  0  0  0  0
 17 10  1  0  0  0  0
 20 21  1  0  0  0  0
 20 22  1  0  0  0  0
 23 20  1  0  0  0  0
M  END
>  <minimizedAffinity>
-4.57543278

$$$$

 OpenBabel03242521153D

 23 24  0  0  0  0  0  0  0  0999 V2000
   37.2750   25.6920   38.4540 C   0  0  0  0  0  0  0  0  0  0  0  0
   37.2180   27.1070   38.5250 C   0  0  0  0  0  0  0  0  0  0  0  0
   37.2620   27.6840   39.7970 C   0  0  0  0  0  0  0  0  0  0  0  0
   37.3550   26.8650   40.8890 N   0  0  0  0  0  0  0  0  0  0  0  0
   37.4060   25.5310   40.7710 C   0  0  0  0  0  0  0  0  0  0  0  0
   37.3670   24.9300   39.5660 N   0  0  0  0  0  0  0  0  0  0  0  0
   37.2400   25.2460   37.4570 H   0  0  0  0  0  0  0  0  0  0  0  0
   37.1450   27.7210   37.6490 H   0  0  0  0  0  0  0  0  0  0  0  0
   37.2060   29.1020   39.8820 N   0  0  0  0  0  0  0  0  0  0  0  0
   38.2470   29.8120   39.4100 C   0  0  0  0  0  0  0  0  0  0  0  0
   38.2000   31.2060   39.4890 C   0  0  0  0  0  0  0  0  0  0  0  0
   37.0890   31.7740   40.0460 C   0  0  0  0  0  0  0  0  0  0  0  0
   37.0540   33.0460   40.1140 O   0  0  0  0  0  0  0  0  0  0  0  0
   36.0430   31.0850   40.5200 N   0  0  0  0  0  0  0  0  0  0  0  0
   36.1520   29.7330   40.4140 C   0  0  0  0  0  0  0  0  0  0  0  0
   35.2320   29.0040   40.8260 O   0  0  0  0  0  0  0  0  0  0  0  0
   39.1000   29.3010   38.9800 H   0  0  0  0  0  0  0  0  0  0  0  0
   39.0470   31.7850   39.1060 H   0  0  0  0  0  0  0  0  0  0  0  0
   35.2110   31.5570   40.9390 H   0  0  0  0  0  0  0  0  0  0  0  0
   37.5080   24.6930   42.0070 C   0  0  0  0  0  0  0  0  0  0  0  0
   37.7560   23.3700   41.6930 F   0  0  0  0  0  0  0  0  0  0  0  0
   38.5270   25.1510   42.8270 F   0  0  0  0  0  0  0  0  0  0  0  0
   36.3360   24.7370   42.7320 F   0  0  0  0  0  0  0  0  0  0  0  0
  1  2  2  0  0  0  0
  1  6  1  0  0  0  0
  2  3  1  0  0  0  0
  3  9  1  0  0  0  0
  3  4  2  0  0  0  0
  5  4  1  0  0  0  0
  5 20  1  0  0  0  0
  6  5  2  0  0  0  0
  7  1  1  0  0  0  0
  8  2  1  0  0  0  0
  9 15  1  0  0  0  0
 10 11  2  0  0  0  0
 10  9  1  0  0  0  0
 11 12  1  0  0  0  0
 12 13  2  0  0  0  0
 12 14  1  0  0  0  0
 14 19  1  0  0  0  0
 15 14  1  0  0  0  0
 15 16  2  0  0  0  0
 17 10  1  0  0  0  0
 18 11  1  0  0  0  0
 20 23  1  0  0  0  0
 20 22  1  0  0  0  0
 21 20  1  0  0  0  0
M  END
>  <minimizedAffinity>
-4.54973507

$$$$

 OpenBabel03242521153D

 23 24  0  0  0  0  0  0  0  0999 V2000
   36.4750   30.1860   38.9010 C   0  0  0  0  0  0  0  0  0  0  0  0
   37.0000   29.1390   39.6990 C   0  0  0  0  0  0  0  0  0  0  0  0
   37.9810   29.4810   40.6340 C   0  0  0  0  0  0  0  0  0  0  0  0
   38.3760   30.7870   40.7260 N   0  0  0  0  0  0  0  0  0  0  0  0
   37.8490   31.7430   39.9490 C   0  0  0  0  0  0  0  0  0  0  0  0
   36.9010   31.4620   39.0330 N   0  0  0  0  0  0  0  0  0  0  0  0
   35.7080   29.9140   38.1710 H   0  0  0  0  0  0  0  0  0  0  0  0
   36.6690   28.1240   39.6010 H   0  0  0  0  0  0  0  0  0  0  0  0
   38.5170   28.4400   41.4400 N   0  0  0  0  0  0  0  0  0  0  0  0
   39.3750   27.5700   40.8740 C   0  0  0  0  0  0  0  0  0  0  0  0
   39.9050   26.5440   41.6590 C   0  0  0  0  0  0  0  0  0  0  0  0
   39.5200   26.4810   42.9680 C   0  0  0  0  0  0  0  0  0  0  0  0
   40.0090   25.5420   43.6780 O   0  0  0  0  0  0  0  0  0  0  0  0
   38.6690   27.3360   43.5500 N   0  0  0  0  0  0  0  0  0  0  0  0
   38.1880   28.3110   42.7310 C   0  0  0  0  0  0  0  0  0  0  0  0
   37.3900   29.1540   43.1770 O   0  0  0  0  0  0  0  0  0  0  0  0
   39.6390   27.6750   39.8290 H   0  0  0  0  0  0  0  0  0  0  0  0
   40.6040   25.8360   41.2010 H   0  0  0  0  0  0  0  0  0  0  0  0
   38.3990   27.2540   44.5550 H   0  0  0  0  0  0  0  0  0  0  0  0
   38.3260   33.1540   40.1020 C   0  0  0  0  0  0  0  0  0  0  0  0
   39.3470   33.4340   39.2130 F   0  0  0  0  0  0  0  0  0  0  0  0
   37.2890   34.0470   39.8800 F   0  0  0  0  0  0  0  0  0  0  0  0
   38.8060   33.3780   41.3740 F   0  0  0  0  0  0  0  0  0  0  0  0
  1  6  2  0  0  0  0
  1  2  1  0  0  0  0
  2  3  2  0  0  0  0
  3  4  1  0  0  0  0
  3  9  1  0  0  0  0
  5 20  1  0  0  0  0
  5  4  2  0  0  0  0
  6  5  1  0  0  0  0
  7  1  1  0  0  0  0
  8  2  1  0  0  0  0
  9 15  1  0  0  0  0
 10  9  1  0  0  0  0
 10 11  2  0  0  0  0
 11 12  1  0  0  0  0
 12 14  1  0  0  0  0
 12 13  2  0  0  0  0
 14 19  1  0  0  0  0
 15 16  2  0  0  0  0
 15 14  1  0  0  0  0
 17 10  1  0  0  0  0
 18 11  1  0  0  0  0
 20 23  1  0  0  0  0
 21 20  1  0  0  0  0
 22 20  1  0  0  0  0
M  END
>  <minimizedAffinity>
-4.53249454

$$$$

 OpenBabel03242521153D

 23 24  0  0  0  0  0  0  0  0999 V2000
   40.5150   26.9700   43.5650 C   0  0  0  0  0  0  0  0  0  0  0  0
   40.9820   28.1320   42.9010 C   0  0  0  0  0  0  0  0  0  0  0  0
   40.0560   28.8450   42.1350 C   0  0  0  0  0  0  0  0  0  0  0  0
   38.7670   28.3900   42.0690 N   0  0  0  0  0  0  0  0  0  0  0  0
   38.3720   27.2850   42.7160 C   0  0  0  0  0  0  0  0  0  0  0  0
   39.2300   26.5650   43.4660 N   0  0  0  0  0  0  0  0  0  0  0  0
   41.2440   26.4160   44.1630 H   0  0  0  0  0  0  0  0  0  0  0  0
   42.0000   28.4620   42.9730 H   0  0  0  0  0  0  0  0  0  0  0  0
   40.5120   30.0110   41.4640 N   0  0  0  0  0  0  0  0  0  0  0  0
   41.0520   29.8730   40.2390 C   0  0  0  0  0  0  0  0  0  0  0  0
   41.5030   31.0150   39.5710 C   0  0  0  0  0  0  0  0  0  0  0  0
   41.3680   32.2170   40.2060 C   0  0  0  0  0  0  0  0  0  0  0  0
   41.7820   33.2530   39.5900 O   0  0  0  0  0  0  0  0  0  0  0  0
   40.8330   32.3750   41.4230 N   0  0  0  0  0  0  0  0  0  0  0  0
   40.4140   31.2260   42.0190 C   0  0  0  0  0  0  0  0  0  0  0  0
   39.9030   31.2670   43.1520 O   0  0  0  0  0  0  0  0  0  0  0  0
   41.1310   28.8910   39.7910 H   0  0  0  0  0  0  0  0  0  0  0  0
   41.9430   30.9040   38.5750 H   0  0  0  0  0  0  0  0  0  0  0  0
   40.7470   33.3130   41.8750 H   0  0  0  0  0  0  0  0  0  0  0  0
   36.9470   26.8420   42.6020 C   0  0  0  0  0  0  0  0  0  0  0  0
   36.3590   27.3440   41.4560 F   0  0  0  0  0  0  0  0  0  0  0  0
   36.8660   25.4580   42.5700 F   0  0  0  0  0  0  0  0  0  0  0  0
   36.2060   27.2790   43.6790 F   0  0  0  0  0  0  0  0  0  0  0  0
  1  7  1  0  0  0  0
  2  8  1  0  0  0  0
  2  1  2  0  0  0  0
  3  2  1  0  0  0  0
  4  3  2  0  0  0  0
  4  5  1  0  0  0  0
  5  6  2  0  0  0  0
  6  1  1  0  0  0  0
  9 15  1  0  0  0  0
  9  3  1  0  0  0  0
 10  9  1  0  0  0  0
 11 12  1  0  0  0  0
 11 10  2  0  0  0  0
 12 14  1  0  0  0  0
 13 12  2  0  0  0  0
 14 19  1  0  0  0  0
 14 15  1  0  0  0  0
 15 16  2  0  0  0  0
 17 10  1  0  0  0  0
 18 11  1  0  0  0  0
 20  5  1  0  0  0  0
 20 23  1  0  0  0  0
 21 20  1  0  0  0  0
 22 20  1  0  0  0  0
M  END
>  <minimizedAffinity>
-4.46218395

$$$$
