
 OpenBabel03252507273D

 22 23  0  0  0  0  0  0  0  0999 V2000
   36.9940   27.9270   41.6550 C   0  0  0  0  0  0  0  0  0  0  0  0
   36.5990   27.2210   40.4970 C   0  0  0  0  0  0  0  0  0  0  0  0
   36.5840   27.9180   39.2870 C   0  0  0  0  0  0  0  0  0  0  0  0
   36.9510   29.2400   39.2910 N   0  0  0  0  0  0  0  0  0  0  0  0
   37.3210   29.8710   40.4220 C   0  0  0  0  0  0  0  0  0  0  0  0
   37.3440   29.2320   41.5890 N   0  0  0  0  0  0  0  0  0  0  0  0
   36.3230   26.1870   40.5600 H   0  0  0  0  0  0  0  0  0  0  0  0
   36.2860   27.4060   38.3820 H   0  0  0  0  0  0  0  0  0  0  0  0
   37.6990   31.2750   40.3500 C   0  0  0  0  0  0  0  0  0  0  0  0
   36.9790   32.1620   39.5920 C   0  0  0  0  0  0  0  0  0  0  0  0
   37.2600   33.5050   39.4630 C   0  0  0  0  0  0  0  0  0  0  0  0
   38.3750   33.9270   40.1880 C   0  0  0  0  0  0  0  0  0  0  0  0
   39.1200   33.0510   40.9630 C   0  0  0  0  0  0  0  0  0  0  0  0
   38.7680   31.7380   41.0310 N   0  0  0  0  0  0  0  0  0  0  0  0
   36.1220   31.7510   39.0560 H   0  0  0  0  0  0  0  0  0  0  0  0
   36.6700   34.1780   38.8540 H   0  0  0  0  0  0  0  0  0  0  0  0
   38.6640   34.9560   40.1450 H   0  0  0  0  0  0  0  0  0  0  0  0
   39.9870   33.3960   41.5220 H   0  0  0  0  0  0  0  0  0  0  0  0
   37.0350   27.2480   42.9890 C   0  0  0  0  0  0  0  0  0  0  0  0
   35.8580   27.4190   43.6560 F   0  0  0  0  0  0  0  0  0  0  0  0
   38.1010   27.7990   43.6800 F   0  0  0  0  0  0  0  0  0  0  0  0
   37.3000   25.9100   42.8420 F   0  0  0  0  0  0  0  0  0  0  0  0
  1 19  1  0  0  0  0
  2  7  1  0  0  0  0
  2  1  2  0  0  0  0
  3  4  2  0  0  0  0
  3  2  1  0  0  0  0
  4  5  1  0  0  0  0
  5  6  2  0  0  0  0
  6  1  1  0  0  0  0
  8  3  1  0  0  0  0
  9  5  1  0  0  0  0
  9 14  1  0  0  0  0
 10  9  2  0  0  0  0
 11 10  1  0  0  0  0
 11 12  2  0  0  0  0
 12 13  1  0  0  0  0
 13 14  2  0  0  0  0
 13 18  1  0  0  0  0
 15 10  1  0  0  0  0
 16 11  1  0  0  0  0
 17 12  1  0  0  0  0
 19 20  1  0  0  0  0
 19 21  1  0  0  0  0
 22 19  1  0  0  0  0
M  END
>  <minimizedAffinity>
-4.98939419

$$$$

 OpenBabel03252507273D

 22 23  0  0  0  0  0  0  0  0999 V2000
   38.0560   28.1250   42.3970 C   0  0  0  0  0  0  0  0  0  0  0  0
   39.3360   27.8550   42.9280 C   0  0  0  0  0  0  0  0  0  0  0  0
   40.3120   28.8450   42.8010 C   0  0  0  0  0  0  0  0  0  0  0  0
   39.9740   30.0170   42.1710 N   0  0  0  0  0  0  0  0  0  0  0  0
   38.7380   30.2290   41.6800 C   0  0  0  0  0  0  0  0  0  0  0  0
   37.7890   29.3030   41.7870 N   0  0  0  0  0  0  0  0  0  0  0  0
   39.5370   26.9180   43.4100 H   0  0  0  0  0  0  0  0  0  0  0  0
   41.3040   28.6700   43.1970 H   0  0  0  0  0  0  0  0  0  0  0  0
   38.4520   31.4970   41.0260 C   0  0  0  0  0  0  0  0  0  0  0  0
   37.4220   31.6120   40.1280 C   0  0  0  0  0  0  0  0  0  0  0  0
   37.0770   32.7670   39.4610 C   0  0  0  0  0  0  0  0  0  0  0  0
   37.8780   33.8660   39.7720 C   0  0  0  0  0  0  0  0  0  0  0  0
   38.9260   33.7780   40.6760 C   0  0  0  0  0  0  0  0  0  0  0  0
   39.1950   32.5920   41.2890 N   0  0  0  0  0  0  0  0  0  0  0  0
   36.8440   30.7050   39.9410 H   0  0  0  0  0  0  0  0  0  0  0  0
   36.2560   32.8220   38.7570 H   0  0  0  0  0  0  0  0  0  0  0  0
   37.6790   34.8050   39.2980 H   0  0  0  0  0  0  0  0  0  0  0  0
   39.5410   34.6450   40.9070 H   0  0  0  0  0  0  0  0  0  0  0  0
   36.9560   27.1130   42.4950 C   0  0  0  0  0  0  0  0  0  0  0  0
   37.4630   25.8690   42.7310 F   0  0  0  0  0  0  0  0  0  0  0  0
   36.2610   27.1660   41.2990 F   0  0  0  0  0  0  0  0  0  0  0  0
   36.0720   27.4540   43.4880 F   0  0  0  0  0  0  0  0  0  0  0  0
  1 19  1  0  0  0  0
  1  2  1  0  0  0  0
  2  7  1  0  0  0  0
  3  2  2  0  0  0  0
  3  8  1  0  0  0  0
  4  3  1  0  0  0  0
  5  6  1  0  0  0  0
  5  4  2  0  0  0  0
  6  1  2  0  0  0  0
  9 14  1  0  0  0  0
  9  5  1  0  0  0  0
 10  9  2  0  0  0  0
 11 12  2  0  0  0  0
 11 10  1  0  0  0  0
 12 13  1  0  0  0  0
 13 18  1  0  0  0  0
 13 14  2  0  0  0  0
 15 10  1  0  0  0  0
 16 11  1  0  0  0  0
 17 12  1  0  0  0  0
 19 20  1  0  0  0  0
 19 22  1  0  0  0  0
 21 19  1  0  0  0  0
M  END
>  <minimizedAffinity>
-4.84499741

$$$$

 OpenBabel03252507273D

 22 23  0  0  0  0  0  0  0  0999 V2000
   37.2360   26.8690   41.9540 C   0  0  0  0  0  0  0  0  0  0  0  0
   37.3580   27.2090   43.3200 C   0  0  0  0  0  0  0  0  0  0  0  0
   37.4660   28.5630   43.6420 C   0  0  0  0  0  0  0  0  0  0  0  0
   37.4480   29.4800   42.6220 N   0  0  0  0  0  0  0  0  0  0  0  0
   37.3300   29.1070   41.3330 C   0  0  0  0  0  0  0  0  0  0  0  0
   37.2260   27.8250   40.9970 N   0  0  0  0  0  0  0  0  0  0  0  0
   37.3650   26.4440   44.0710 H   0  0  0  0  0  0  0  0  0  0  0  0
   37.5600   28.8570   44.6790 H   0  0  0  0  0  0  0  0  0  0  0  0
   37.3180   30.1360   40.3040 C   0  0  0  0  0  0  0  0  0  0  0  0
   37.2820   31.4660   40.6350 C   0  0  0  0  0  0  0  0  0  0  0  0
   37.2670   32.5080   39.7330 C   0  0  0  0  0  0  0  0  0  0  0  0
   37.2950   32.1060   38.3980 C   0  0  0  0  0  0  0  0  0  0  0  0
   37.3330   30.7680   38.0350 C   0  0  0  0  0  0  0  0  0  0  0  0
   37.3440   29.8050   38.9960 N   0  0  0  0  0  0  0  0  0  0  0  0
   37.2620   31.6960   41.7020 H   0  0  0  0  0  0  0  0  0  0  0  0
   37.2380   33.5490   40.0300 H   0  0  0  0  0  0  0  0  0  0  0  0
   37.2870   32.8520   37.6300 H   0  0  0  0  0  0  0  0  0  0  0  0
   37.3540   30.4720   36.9880 H   0  0  0  0  0  0  0  0  0  0  0  0
   37.1160   25.4380   41.5290 C   0  0  0  0  0  0  0  0  0  0  0  0
   36.4470   25.3390   40.3450 F   0  0  0  0  0  0  0  0  0  0  0  0
   36.4540   24.7760   42.5490 F   0  0  0  0  0  0  0  0  0  0  0  0
   38.3570   24.8620   41.4150 F   0  0  0  0  0  0  0  0  0  0  0  0
  1  2  1  0  0  0  0
  2  3  2  0  0  0  0
  2  7  1  0  0  0  0
  3  8  1  0  0  0  0
  4  3  1  0  0  0  0
  5  4  2  0  0  0  0
  6  5  1  0  0  0  0
  6  1  2  0  0  0  0
  9 10  1  0  0  0  0
  9  5  1  0  0  0  0
 10 15  1  0  0  0  0
 11 16  1  0  0  0  0
 11 10  2  0  0  0  0
 12 11  1  0  0  0  0
 13 12  2  0  0  0  0
 13 14  1  0  0  0  0
 14  9  2  0  0  0  0
 17 12  1  0  0  0  0
 18 13  1  0  0  0  0
 19  1  1  0  0  0  0
 19 21  1  0  0  0  0
 20 19  1  0  0  0  0
 22 19  1  0  0  0  0
M  END
>  <minimizedAffinity>
-4.8095088

$$$$

 OpenBabel03252507273D

 22 23  0  0  0  0  0  0  0  0999 V2000
   36.8140   28.3870   41.8530 C   0  0  0  0  0  0  0  0  0  0  0  0
   37.4260   29.6070   42.2160 C   0  0  0  0  0  0  0  0  0  0  0  0
   37.3310   30.6710   41.3170 C   0  0  0  0  0  0  0  0  0  0  0  0
   36.6540   30.4730   40.1410 N   0  0  0  0  0  0  0  0  0  0  0  0
   36.0860   29.2900   39.8380 C   0  0  0  0  0  0  0  0  0  0  0  0
   36.1610   28.2590   40.6750 N   0  0  0  0  0  0  0  0  0  0  0  0
   37.9410   29.6980   43.1520 H   0  0  0  0  0  0  0  0  0  0  0  0
   37.7890   31.6200   41.5650 H   0  0  0  0  0  0  0  0  0  0  0  0
   35.3830   29.1530   38.5710 C   0  0  0  0  0  0  0  0  0  0  0  0
   34.0310   28.9290   38.5340 C   0  0  0  0  0  0  0  0  0  0  0  0
   33.2820   28.7870   37.3860 C   0  0  0  0  0  0  0  0  0  0  0  0
   34.0190   28.8920   36.2080 C   0  0  0  0  0  0  0  0  0  0  0  0
   35.3870   29.1180   36.2160 C   0  0  0  0  0  0  0  0  0  0  0  0
   36.0460   29.2450   37.4000 N   0  0  0  0  0  0  0  0  0  0  0  0
   33.5290   28.8600   39.5010 H   0  0  0  0  0  0  0  0  0  0  0  0
   32.2130   28.6100   37.3940 H   0  0  0  0  0  0  0  0  0  0  0  0
   33.5150   28.7940   35.2680 H   0  0  0  0  0  0  0  0  0  0  0  0
   35.9480   29.1970   35.2870 H   0  0  0  0  0  0  0  0  0  0  0  0
   36.8730   27.1990   42.7640 C   0  0  0  0  0  0  0  0  0  0  0  0
   36.7520   26.0400   42.0570 F   0  0  0  0  0  0  0  0  0  0  0  0
   35.8450   27.3520   43.6800 F   0  0  0  0  0  0  0  0  0  0  0  0
   38.0470   27.1940   43.4760 F   0  0  0  0  0  0  0  0  0  0  0  0
  1  2  1  0  0  0  0
  1 19  1  0  0  0  0
  2  7  1  0  0  0  0
  3  8  1  0  0  0  0
  3  2  2  0  0  0  0
  4  3  1  0  0  0  0
  5  4  2  0  0  0  0
  5  6  1  0  0  0  0
  6  1  2  0  0  0  0
  9  5  1  0  0  0  0
 10  9  1  0  0  0  0
 10 15  1  0  0  0  0
 11 16  1  0  0  0  0
 11 10  2  0  0  0  0
 12 13  2  0  0  0  0
 12 11  1  0  0  0  0
 13 14  1  0  0  0  0
 14  9  2  0  0  0  0
 17 12  1  0  0  0  0
 18 13  1  0  0  0  0
 19 22  1  0  0  0  0
 19 21  1  0  0  0  0
 20 19  1  0  0  0  0
M  END
>  <minimizedAffinity>
-4.62916946

$$$$

 OpenBabel03252507273D

 22 23  0  0  0  0  0  0  0  0999 V2000
   38.2000   25.8870   42.1580 C   0  0  0  0  0  0  0  0  0  0  0  0
   39.1580   25.8020   43.1920 C   0  0  0  0  0  0  0  0  0  0  0  0
   39.7000   26.9950   43.6720 C   0  0  0  0  0  0  0  0  0  0  0  0
   39.2760   28.1760   43.1150 N   0  0  0  0  0  0  0  0  0  0  0  0
   38.3600   28.2070   42.1290 C   0  0  0  0  0  0  0  0  0  0  0  0
   37.8260   27.0860   41.6530 N   0  0  0  0  0  0  0  0  0  0  0  0
   39.4470   24.8470   43.5860 H   0  0  0  0  0  0  0  0  0  0  0  0
   40.4370   26.9650   44.4650 H   0  0  0  0  0  0  0  0  0  0  0  0
   37.9570   29.4960   41.5870 C   0  0  0  0  0  0  0  0  0  0  0  0
   36.6500   29.7480   41.2590 C   0  0  0  0  0  0  0  0  0  0  0  0
   36.1770   30.9340   40.7420 C   0  0  0  0  0  0  0  0  0  0  0  0
   37.1560   31.9110   40.5660 C   0  0  0  0  0  0  0  0  0  0  0  0
   38.4850   31.6840   40.8900 C   0  0  0  0  0  0  0  0  0  0  0  0
   38.8630   30.4780   41.3960 N   0  0  0  0  0  0  0  0  0  0  0  0
   35.9470   28.9310   41.4280 H   0  0  0  0  0  0  0  0  0  0  0  0
   35.1360   31.0980   40.4930 H   0  0  0  0  0  0  0  0  0  0  0  0
   36.8750   32.8640   40.1680 H   0  0  0  0  0  0  0  0  0  0  0  0
   39.2370   32.4560   40.7460 H   0  0  0  0  0  0  0  0  0  0  0  0
   37.5720   24.6520   41.5910 C   0  0  0  0  0  0  0  0  0  0  0  0
   38.4210   23.5900   41.6850 F   0  0  0  0  0  0  0  0  0  0  0  0
   37.2520   24.9390   40.2750 F   0  0  0  0  0  0  0  0  0  0  0  0
   36.3940   24.3680   42.2380 F   0  0  0  0  0  0  0  0  0  0  0  0
  1  2  1  0  0  0  0
  2  7  1  0  0  0  0
  2  3  2  0  0  0  0
  3  8  1  0  0  0  0
  4  3  1  0  0  0  0
  5  4  2  0  0  0  0
  6  5  1  0  0  0  0
  6  1  2  0  0  0  0
  9  5  1  0  0  0  0
 10 15  1  0  0  0  0
 10  9  2  0  0  0  0
 11 10  1  0  0  0  0
 12 11  2  0  0  0  0
 12 13  1  0  0  0  0
 13 14  2  0  0  0  0
 14  9  1  0  0  0  0
 16 11  1  0  0  0  0
 17 12  1  0  0  0  0
 18 13  1  0  0  0  0
 19 20  1  0  0  0  0
 19  1  1  0  0  0  0
 19 22  1  0  0  0  0
 21 19  1  0  0  0  0
M  END
>  <minimizedAffinity>
-4.52323627

$$$$

 OpenBabel03252507273D

 22 23  0  0  0  0  0  0  0  0999 V2000
   38.0250   30.2700   41.3090 C   0  0  0  0  0  0  0  0  0  0  0  0
   39.1930   30.7740   41.9220 C   0  0  0  0  0  0  0  0  0  0  0  0
   40.0870   29.8520   42.4680 C   0  0  0  0  0  0  0  0  0  0  0  0
   39.7830   28.5170   42.3780 N   0  0  0  0  0  0  0  0  0  0  0  0
   38.6560   28.0830   41.7830 C   0  0  0  0  0  0  0  0  0  0  0  0
   37.7860   28.9390   41.2550 N   0  0  0  0  0  0  0  0  0  0  0  0
   39.3730   31.8310   41.9590 H   0  0  0  0  0  0  0  0  0  0  0  0
   40.9910   30.2050   42.9450 H   0  0  0  0  0  0  0  0  0  0  0  0
   38.4000   26.6510   41.7250 C   0  0  0  0  0  0  0  0  0  0  0  0
   37.2160   26.1260   42.1730 C   0  0  0  0  0  0  0  0  0  0  0  0
   36.8860   24.7880   42.1590 C   0  0  0  0  0  0  0  0  0  0  0  0
   37.8780   23.9620   41.6310 C   0  0  0  0  0  0  0  0  0  0  0  0
   39.0840   24.4660   41.1690 C   0  0  0  0  0  0  0  0  0  0  0  0
   39.3250   25.8050   41.2240 N   0  0  0  0  0  0  0  0  0  0  0  0
   36.4940   26.8410   42.5710 H   0  0  0  0  0  0  0  0  0  0  0  0
   35.9400   24.4080   42.5220 H   0  0  0  0  0  0  0  0  0  0  0  0
   37.7040   22.9070   41.5820 H   0  0  0  0  0  0  0  0  0  0  0  0
   39.8470   23.8070   40.7610 H   0  0  0  0  0  0  0  0  0  0  0  0
   37.0170   31.1960   40.7000 C   0  0  0  0  0  0  0  0  0  0  0  0
   36.7780   30.8650   39.4000 F   0  0  0  0  0  0  0  0  0  0  0  0
   37.5340   32.4750   40.8180 F   0  0  0  0  0  0  0  0  0  0  0  0
   35.8440   31.1700   41.4130 F   0  0  0  0  0  0  0  0  0  0  0  0
  1  2  1  0  0  0  0
  2  7  1  0  0  0  0
  2  3  2  0  0  0  0
  3  8  1  0  0  0  0
  4  3  1  0  0  0  0
  5  4  2  0  0  0  0
  6  1  2  0  0  0  0
  6  5  1  0  0  0  0
  9  5  1  0  0  0  0
  9 10  1  0  0  0  0
 10 15  1  0  0  0  0
 11 10  2  0  0  0  0
 11 16  1  0  0  0  0
 12 11  1  0  0  0  0
 13 14  1  0  0  0  0
 13 12  2  0  0  0  0
 14  9  2  0  0  0  0
 17 12  1  0  0  0  0
 18 13  1  0  0  0  0
 19 21  1  0  0  0  0
 19  1  1  0  0  0  0
 19 22  1  0  0  0  0
 20 19  1  0  0  0  0
M  END
>  <minimizedAffinity>
-4.44957829

$$$$

 OpenBabel03252507273D

 22 23  0  0  0  0  0  0  0  0999 V2000
   36.6560   28.7280   41.3870 C   0  0  0  0  0  0  0  0  0  0  0  0
   37.3640   28.9850   42.5820 C   0  0  0  0  0  0  0  0  0  0  0  0
   38.0290   27.9160   43.1840 C   0  0  0  0  0  0  0  0  0  0  0  0
   37.9580   26.6830   42.5850 N   0  0  0  0  0  0  0  0  0  0  0  0
   37.2700   26.4870   41.4440 C   0  0  0  0  0  0  0  0  0  0  0  0
   36.6270   27.4870   40.8490 N   0  0  0  0  0  0  0  0  0  0  0  0
   37.3810   29.9730   43.0000 H   0  0  0  0  0  0  0  0  0  0  0  0
   38.5800   28.0790   44.1010 H   0  0  0  0  0  0  0  0  0  0  0  0
   37.2400   25.1510   40.8650 C   0  0  0  0  0  0  0  0  0  0  0  0
   36.3860   24.8460   39.8370 C   0  0  0  0  0  0  0  0  0  0  0  0
   36.2870   23.6140   39.2280 C   0  0  0  0  0  0  0  0  0  0  0  0
   37.1530   22.6510   39.7450 C   0  0  0  0  0  0  0  0  0  0  0  0
   38.0280   22.9320   40.7840 C   0  0  0  0  0  0  0  0  0  0  0  0
   38.0560   24.1810   41.3260 N   0  0  0  0  0  0  0  0  0  0  0  0
   35.7420   25.6560   39.4910 H   0  0  0  0  0  0  0  0  0  0  0  0
   35.5990   23.4070   38.4180 H   0  0  0  0  0  0  0  0  0  0  0  0
   37.1420   21.6640   39.3290 H   0  0  0  0  0  0  0  0  0  0  0  0
   38.6970   22.1690   41.1760 H   0  0  0  0  0  0  0  0  0  0  0  0
   35.9180   29.8240   40.6820 C   0  0  0  0  0  0  0  0  0  0  0  0
   34.6320   29.4540   40.4250 F   0  0  0  0  0  0  0  0  0  0  0  0
   36.6200   30.0890   39.5190 F   0  0  0  0  0  0  0  0  0  0  0  0
   35.9330   30.9750   41.4310 F   0  0  0  0  0  0  0  0  0  0  0  0
  1  2  1  0  0  0  0
  2  7  1  0  0  0  0
  2  3  2  0  0  0  0
  3  8  1  0  0  0  0
  4  3  1  0  0  0  0
  5  4  2  0  0  0  0
  6  1  2  0  0  0  0
  6  5  1  0  0  0  0
  9 14  1  0  0  0  0
  9  5  1  0  0  0  0
 10  9  2  0  0  0  0
 11 12  2  0  0  0  0
 11 10  1  0  0  0  0
 12 13  1  0  0  0  0
 13 18  1  0  0  0  0
 13 14  2  0  0  0  0
 15 10  1  0  0  0  0
 16 11  1  0  0  0  0
 17 12  1  0  0  0  0
 19  1  1  0  0  0  0
 19 22  1  0  0  0  0
 20 19  1  0  0  0  0
 21 19  1  0  0  0  0
M  END
>  <minimizedAffinity>
-4.33635473

$$$$

 OpenBabel03252507273D

 22 23  0  0  0  0  0  0  0  0999 V2000
   37.0640   30.3310   38.8750 C   0  0  0  0  0  0  0  0  0  0  0  0
   36.6650   31.2660   39.8550 C   0  0  0  0  0  0  0  0  0  0  0  0
   36.3130   30.7740   41.1130 C   0  0  0  0  0  0  0  0  0  0  0  0
   36.3730   29.4200   41.3250 N   0  0  0  0  0  0  0  0  0  0  0  0
   36.7600   28.5660   40.3570 C   0  0  0  0  0  0  0  0  0  0  0  0
   37.1010   29.0060   39.1500 N   0  0  0  0  0  0  0  0  0  0  0  0
   36.6400   32.3140   39.6270 H   0  0  0  0  0  0  0  0  0  0  0  0
   36.0030   31.4640   41.8870 H   0  0  0  0  0  0  0  0  0  0  0  0
   36.8000   27.1420   40.6540 C   0  0  0  0  0  0  0  0  0  0  0  0
   36.5460   26.2100   39.6810 C   0  0  0  0  0  0  0  0  0  0  0  0
   36.5610   24.8440   39.8680 C   0  0  0  0  0  0  0  0  0  0  0  0
   36.8670   24.4500   41.1700 C   0  0  0  0  0  0  0  0  0  0  0  0
   37.1290   25.3720   42.1730 C   0  0  0  0  0  0  0  0  0  0  0  0
   37.0910   26.7040   41.8970 N   0  0  0  0  0  0  0  0  0  0  0  0
   36.3150   26.6010   38.6890 H   0  0  0  0  0  0  0  0  0  0  0  0
   36.3550   24.1360   39.0760 H   0  0  0  0  0  0  0  0  0  0  0  0
   36.9010   23.4060   41.4030 H   0  0  0  0  0  0  0  0  0  0  0  0
   37.3660   25.0470   43.1840 H   0  0  0  0  0  0  0  0  0  0  0  0
   37.4580   30.7810   37.5010 C   0  0  0  0  0  0  0  0  0  0  0  0
   36.6270   30.2490   36.5610 F   0  0  0  0  0  0  0  0  0  0  0  0
   38.7700   30.3810   37.3150 F   0  0  0  0  0  0  0  0  0  0  0  0
   37.4410   32.1510   37.4190 F   0  0  0  0  0  0  0  0  0  0  0  0
  1  6  2  0  0  0  0
  1  2  1  0  0  0  0
  2  3  2  0  0  0  0
  3  4  1  0  0  0  0
  3  8  1  0  0  0  0
  5  9  1  0  0  0  0
  5  4  2  0  0  0  0
  6  5  1  0  0  0  0
  7  2  1  0  0  0  0
  9 14  1  0  0  0  0
 10 11  1  0  0  0  0
 10  9  2  0  0  0  0
 11 12  2  0  0  0  0
 12 17  1  0  0  0  0
 12 13  1  0  0  0  0
 13 18  1  0  0  0  0
 14 13  2  0  0  0  0
 15 10  1  0  0  0  0
 16 11  1  0  0  0  0
 19  1  1  0  0  0  0
 20 19  1  0  0  0  0
 21 19  1  0  0  0  0
 22 19  1  0  0  0  0
M  END
>  <minimizedAffinity>
-4.33288336

$$$$

 OpenBabel03252507273D

 22 23  0  0  0  0  0  0  0  0999 V2000
   39.2670   25.8170   42.6630 C   0  0  0  0  0  0  0  0  0  0  0  0
   40.4070   26.2350   43.3860 C   0  0  0  0  0  0  0  0  0  0  0  0
   40.6380   27.6070   43.4930 C   0  0  0  0  0  0  0  0  0  0  0  0
   39.7530   28.4670   42.8940 N   0  0  0  0  0  0  0  0  0  0  0  0
   38.6790   28.0220   42.2140 C   0  0  0  0  0  0  0  0  0  0  0  0
   38.4330   26.7200   42.0960 N   0  0  0  0  0  0  0  0  0  0  0  0
   41.0610   25.5110   43.8310 H   0  0  0  0  0  0  0  0  0  0  0  0
   41.5030   27.9600   44.0400 H   0  0  0  0  0  0  0  0  0  0  0  0
   37.7820   28.9930   41.6050 C   0  0  0  0  0  0  0  0  0  0  0  0
   38.1940   30.2770   41.3580 C   0  0  0  0  0  0  0  0  0  0  0  0
   37.4180   31.2630   40.7870 C   0  0  0  0  0  0  0  0  0  0  0  0
   36.1260   30.8530   40.4590 C   0  0  0  0  0  0  0  0  0  0  0  0
   35.6830   29.5610   40.6980 C   0  0  0  0  0  0  0  0  0  0  0  0
   36.5210   28.6510   41.2680 N   0  0  0  0  0  0  0  0  0  0  0  0
   39.2200   30.5160   41.6440 H   0  0  0  0  0  0  0  0  0  0  0  0
   37.7770   32.2680   40.6060 H   0  0  0  0  0  0  0  0  0  0  0  0
   35.4560   31.5570   40.0110 H   0  0  0  0  0  0  0  0  0  0  0  0
   34.6720   29.2580   40.4370 H   0  0  0  0  0  0  0  0  0  0  0  0
   38.9500   24.3620   42.5040 C   0  0  0  0  0  0  0  0  0  0  0  0
   37.6130   24.1400   42.6440 F   0  0  0  0  0  0  0  0  0  0  0  0
   39.6860   23.6900   43.4660 F   0  0  0  0  0  0  0  0  0  0  0  0
   39.3760   23.9060   41.2820 F   0  0  0  0  0  0  0  0  0  0  0  0
  1  2  1  0  0  0  0
  2  3  2  0  0  0  0
  2  7  1  0  0  0  0
  3  8  1  0  0  0  0
  4  3  1  0  0  0  0
  5  4  2  0  0  0  0
  6  5  1  0  0  0  0
  6  1  2  0  0  0  0
  9  5  1  0  0  0  0
 10  9  1  0  0  0  0
 10 15  1  0  0  0  0
 11 10  2  0  0  0  0
 12 13  2  0  0  0  0
 12 11  1  0  0  0  0
 13 14  1  0  0  0  0
 14  9  2  0  0  0  0
 16 11  1  0  0  0  0
 17 12  1  0  0  0  0
 18 13  1  0  0  0  0
 19 20  1  0  0  0  0
 19  1  1  0  0  0  0
 19 21  1  0  0  0  0
 22 19  1  0  0  0  0
M  END
>  <minimizedAffinity>
-4.32373857

$$$$
