
 OpenBabel03252508423D

 23 24  0  0  0  0  0  0  0  0999 V2000
   38.8880   28.4440   42.0340 C   0  0  0  0  0  0  0  0  0  0  0  0
   38.3640   27.2990   42.5640 C   0  0  0  0  0  0  0  0  0  0  0  0
   39.0910   26.4750   43.3890 C   0  0  0  0  0  0  0  0  0  0  0  0
   40.3860   26.8390   43.6730 C   0  0  0  0  0  0  0  0  0  0  0  0
   40.9890   27.9860   43.1710 C   0  0  0  0  0  0  0  0  0  0  0  0
   40.1860   28.7670   42.3440 C   0  0  0  0  0  0  0  0  0  0  0  0
   38.6330   25.5790   43.7860 H   0  0  0  0  0  0  0  0  0  0  0  0
   40.9520   26.1820   44.3250 H   0  0  0  0  0  0  0  0  0  0  0  0
   42.0100   28.2720   43.3950 H   0  0  0  0  0  0  0  0  0  0  0  0
   40.5960   29.6730   41.9220 H   0  0  0  0  0  0  0  0  0  0  0  0
   37.2300   30.0250   39.0350 C   0  0  0  0  0  0  0  0  0  0  0  0
   38.1140   29.1980   39.7730 C   0  0  0  0  0  0  0  0  0  0  0  0
   38.0340   29.2460   41.1720 C   0  0  0  0  0  0  0  0  0  0  0  0
   37.1280   30.0690   41.7340 N   0  0  0  0  0  0  0  0  0  0  0  0
   36.2920   30.8530   41.0180 C   0  0  0  0  0  0  0  0  0  0  0  0
   36.3440   30.8300   39.6620 N   0  0  0  0  0  0  0  0  0  0  0  0
   37.3760   29.9100   37.9690 H   0  0  0  0  0  0  0  0  0  0  0  0
   38.8330   28.5430   39.3350 H   0  0  0  0  0  0  0  0  0  0  0  0
   35.5610   31.5170   41.4590 H   0  0  0  0  0  0  0  0  0  0  0  0
   36.9410   26.9140   42.2440 C   0  0  0  0  0  0  0  0  0  0  0  0
   36.0390   27.7200   42.9330 F   0  0  0  0  0  0  0  0  0  0  0  0
   36.7020   26.9440   40.8780 F   0  0  0  0  0  0  0  0  0  0  0  0
   36.6880   25.6260   42.6720 F   0  0  0  0  0  0  0  0  0  0  0  0
  1  6  2  0  0  0  0
  1  2  1  0  0  0  0
  2  3  2  0  0  0  0
  3  4  1  0  0  0  0
  3  7  1  0  0  0  0
  4  8  1  0  0  0  0
  5  9  1  0  0  0  0
  5  4  2  0  0  0  0
  6  5  1  0  0  0  0
 10  6  1  0  0  0  0
 11 16  2  0  0  0  0
 11 12  1  0  0  0  0
 12 13  2  0  0  0  0
 13 14  1  0  0  0  0
 13  1  1  0  0  0  0
 15 19  1  0  0  0  0
 15 14  2  0  0  0  0
 16 15  1  0  0  0  0
 17 11  1  0  0  0  0
 18 12  1  0  0  0  0
 20  2  1  0  0  0  0
 20 23  1  0  0  0  0
 20 21  1  0  0  0  0
 22 20  1  0  0  0  0
M  END
>  <minimizedAffinity>
-4.82799053

$$$$

 OpenBabel03252508423D

 23 24  0  0  0  0  0  0  0  0999 V2000
   36.7040   30.7840   39.6370 C   0  0  0  0  0  0  0  0  0  0  0  0
   36.5890   30.3710   38.3400 C   0  0  0  0  0  0  0  0  0  0  0  0
   35.6660   29.4290   37.9520 C   0  0  0  0  0  0  0  0  0  0  0  0
   34.8460   28.9020   38.9210 C   0  0  0  0  0  0  0  0  0  0  0  0
   34.9040   29.2710   40.2590 C   0  0  0  0  0  0  0  0  0  0  0  0
   35.8650   30.2300   40.5710 C   0  0  0  0  0  0  0  0  0  0  0  0
   35.6120   29.1330   36.9130 H   0  0  0  0  0  0  0  0  0  0  0  0
   34.1220   28.1590   38.6050 H   0  0  0  0  0  0  0  0  0  0  0  0
   34.2570   28.8550   41.0230 H   0  0  0  0  0  0  0  0  0  0  0  0
   35.9590   30.5600   41.5960 H   0  0  0  0  0  0  0  0  0  0  0  0
   38.5210   34.0480   40.1800 C   0  0  0  0  0  0  0  0  0  0  0  0
   37.4600   33.1630   39.8570 C   0  0  0  0  0  0  0  0  0  0  0  0
   37.7130   31.7860   39.9430 C   0  0  0  0  0  0  0  0  0  0  0  0
   38.9400   31.3830   40.3240 N   0  0  0  0  0  0  0  0  0  0  0  0
   39.9420   32.2370   40.6290 C   0  0  0  0  0  0  0  0  0  0  0  0
   39.7300   33.5760   40.5560 N   0  0  0  0  0  0  0  0  0  0  0  0
   38.2190   35.0810   40.0800 H   0  0  0  0  0  0  0  0  0  0  0  0
   36.4860   33.4750   39.5550 H   0  0  0  0  0  0  0  0  0  0  0  0
   40.9300   31.9240   40.9360 H   0  0  0  0  0  0  0  0  0  0  0  0
   37.4960   30.9590   37.2880 C   0  0  0  0  0  0  0  0  0  0  0  0
   37.3340   32.3390   37.2050 F   0  0  0  0  0  0  0  0  0  0  0  0
   38.8210   30.6200   37.5130 F   0  0  0  0  0  0  0  0  0  0  0  0
   37.1580   30.4700   36.0410 F   0  0  0  0  0  0  0  0  0  0  0  0
  1 13  1  0  0  0  0
  1  6  1  0  0  0  0
  2  1  2  0  0  0  0
  3  2  1  0  0  0  0
  3  4  2  0  0  0  0
  4  5  1  0  0  0  0
  5  6  2  0  0  0  0
  5  9  1  0  0  0  0
  6 10  1  0  0  0  0
  7  3  1  0  0  0  0
  8  4  1  0  0  0  0
 11 16  1  0  0  0  0
 12 13  1  0  0  0  0
 12 11  2  0  0  0  0
 13 14  2  0  0  0  0
 14 15  1  0  0  0  0
 15 19  1  0  0  0  0
 16 15  2  0  0  0  0
 17 11  1  0  0  0  0
 18 12  1  0  0  0  0
 20 22  1  0  0  0  0
 20  2  1  0  0  0  0
 21 20  1  0  0  0  0
 23 20  1  0  0  0  0
M  END
>  <minimizedAffinity>
-4.78418064

$$$$

 OpenBabel03252508423D

 23 24  0  0  0  0  0  0  0  0999 V2000
   38.3390   29.3830   41.7320 C   0  0  0  0  0  0  0  0  0  0  0  0
   37.0310   28.9950   41.6580 C   0  0  0  0  0  0  0  0  0  0  0  0
   36.5310   27.9620   42.4140 C   0  0  0  0  0  0  0  0  0  0  0  0
   37.3970   27.3160   43.2640 C   0  0  0  0  0  0  0  0  0  0  0  0
   38.7390   27.6530   43.3940 C   0  0  0  0  0  0  0  0  0  0  0  0
   39.1670   28.7090   42.5940 C   0  0  0  0  0  0  0  0  0  0  0  0
   35.4880   27.6910   42.3210 H   0  0  0  0  0  0  0  0  0  0  0  0
   36.9930   26.5020   43.8560 H   0  0  0  0  0  0  0  0  0  0  0  0
   39.4220   27.1430   44.0640 H   0  0  0  0  0  0  0  0  0  0  0  0
   40.2010   29.0200   42.6490 H   0  0  0  0  0  0  0  0  0  0  0  0
   39.6900   31.4500   38.8760 C   0  0  0  0  0  0  0  0  0  0  0  0
   39.3060   30.2960   39.6080 C   0  0  0  0  0  0  0  0  0  0  0  0
   38.7680   30.4880   40.8880 C   0  0  0  0  0  0  0  0  0  0  0  0
   38.6450   31.7480   41.3500 N   0  0  0  0  0  0  0  0  0  0  0  0
   39.0150   32.8380   40.6420 C   0  0  0  0  0  0  0  0  0  0  0  0
   39.5390   32.6860   39.3990 N   0  0  0  0  0  0  0  0  0  0  0  0
   40.0910   31.1880   37.9060 H   0  0  0  0  0  0  0  0  0  0  0  0
   39.4000   29.2970   39.2490 H   0  0  0  0  0  0  0  0  0  0  0  0
   38.9200   33.8530   41.0020 H   0  0  0  0  0  0  0  0  0  0  0  0
   36.0940   29.7140   40.7200 C   0  0  0  0  0  0  0  0  0  0  0  0
   35.9020   31.0330   41.1210 F   0  0  0  0  0  0  0  0  0  0  0  0
   36.5350   29.6450   39.4080 F   0  0  0  0  0  0  0  0  0  0  0  0
   34.8420   29.1300   40.7580 F   0  0  0  0  0  0  0  0  0  0  0  0
  1  6  1  0  0  0  0
  2  1  2  0  0  0  0
  2  3  1  0  0  0  0
  3  4  2  0  0  0  0
  4  5  1  0  0  0  0
  4  8  1  0  0  0  0
  5  9  1  0  0  0  0
  6 10  1  0  0  0  0
  6  5  2  0  0  0  0
  7  3  1  0  0  0  0
 11 16  2  0  0  0  0
 11 12  1  0  0  0  0
 12 13  2  0  0  0  0
 13 14  1  0  0  0  0
 13  1  1  0  0  0  0
 15 19  1  0  0  0  0
 15 14  2  0  0  0  0
 16 15  1  0  0  0  0
 17 11  1  0  0  0  0
 18 12  1  0  0  0  0
 20 23  1  0  0  0  0
 20 21  1  0  0  0  0
 20  2  1  0  0  0  0
 22 20  1  0  0  0  0
M  END
>  <minimizedAffinity>
-4.69366264

$$$$

 OpenBabel03252508423D

 23 24  0  0  0  0  0  0  0  0999 V2000
   38.1780   29.7150   41.4000 C   0  0  0  0  0  0  0  0  0  0  0  0
   36.8780   29.8120   40.9920 C   0  0  0  0  0  0  0  0  0  0  0  0
   36.3550   30.9790   40.4880 C   0  0  0  0  0  0  0  0  0  0  0  0
   37.1910   32.0670   40.4030 C   0  0  0  0  0  0  0  0  0  0  0  0
   38.5220   32.0460   40.7970 C   0  0  0  0  0  0  0  0  0  0  0  0
   38.9750   30.8270   41.2970 C   0  0  0  0  0  0  0  0  0  0  0  0
   35.3190   31.0080   40.1780 H   0  0  0  0  0  0  0  0  0  0  0  0
   36.7680   32.9840   40.0040 H   0  0  0  0  0  0  0  0  0  0  0  0
   39.1810   32.9050   40.7300 H   0  0  0  0  0  0  0  0  0  0  0  0
   40.0030   30.7450   41.6210 H   0  0  0  0  0  0  0  0  0  0  0  0
   39.1350   26.8630   43.6800 C   0  0  0  0  0  0  0  0  0  0  0  0
   38.6730   28.1460   43.2900 C   0  0  0  0  0  0  0  0  0  0  0  0
   38.6320   28.4340   41.9190 C   0  0  0  0  0  0  0  0  0  0  0  0
   39.0310   27.4830   41.0530 N   0  0  0  0  0  0  0  0  0  0  0  0
   39.4680   26.2640   41.4370 C   0  0  0  0  0  0  0  0  0  0  0  0
   39.5200   25.9530   42.7570 N   0  0  0  0  0  0  0  0  0  0  0  0
   39.1250   26.7470   44.7550 H   0  0  0  0  0  0  0  0  0  0  0  0
   38.3560   28.9040   43.9700 H   0  0  0  0  0  0  0  0  0  0  0  0
   39.7900   25.4930   40.7510 H   0  0  0  0  0  0  0  0  0  0  0  0
   35.9740   28.6090   41.0920 C   0  0  0  0  0  0  0  0  0  0  0  0
   36.0350   28.0440   42.3630 F   0  0  0  0  0  0  0  0  0  0  0  0
   34.6700   28.9220   40.7420 F   0  0  0  0  0  0  0  0  0  0  0  0
   36.4010   27.6200   40.2270 F   0  0  0  0  0  0  0  0  0  0  0  0
  1 13  1  0  0  0  0
  2 20  1  0  0  0  0
  2  1  2  0  0  0  0
  3  2  1  0  0  0  0
  4  3  2  0  0  0  0
  4  5  1  0  0  0  0
  5  6  2  0  0  0  0
  6  1  1  0  0  0  0
  6 10  1  0  0  0  0
  7  3  1  0  0  0  0
  8  4  1  0  0  0  0
  9  5  1  0  0  0  0
 11 17  1  0  0  0  0
 12 11  1  0  0  0  0
 12 18  1  0  0  0  0
 13 12  2  0  0  0  0
 14 15  2  0  0  0  0
 14 13  1  0  0  0  0
 15 16  1  0  0  0  0
 16 11  2  0  0  0  0
 19 15  1  0  0  0  0
 20 21  1  0  0  0  0
 22 20  1  0  0  0  0
 23 20  1  0  0  0  0
M  END
>  <minimizedAffinity>
-4.63811111

$$$$

 OpenBabel03252508423D

 23 24  0  0  0  0  0  0  0  0999 V2000
   36.9170   27.8620   40.9170 C   0  0  0  0  0  0  0  0  0  0  0  0
   37.3680   28.8950   41.6890 C   0  0  0  0  0  0  0  0  0  0  0  0
   36.8640   30.1690   41.5730 C   0  0  0  0  0  0  0  0  0  0  0  0
   35.8760   30.3810   40.6410 C   0  0  0  0  0  0  0  0  0  0  0  0
   35.3680   29.3820   39.8200 C   0  0  0  0  0  0  0  0  0  0  0  0
   35.9300   28.1200   40.0000 C   0  0  0  0  0  0  0  0  0  0  0  0
   37.2530   30.9550   42.2060 H   0  0  0  0  0  0  0  0  0  0  0  0
   35.4860   31.3890   40.5560 H   0  0  0  0  0  0  0  0  0  0  0  0
   34.5890   29.5500   39.0850 H   0  0  0  0  0  0  0  0  0  0  0  0
   35.5770   27.3000   39.3910 H   0  0  0  0  0  0  0  0  0  0  0  0
   37.6640   24.3680   42.1350 C   0  0  0  0  0  0  0  0  0  0  0  0
   36.9950   25.6140   42.0210 C   0  0  0  0  0  0  0  0  0  0  0  0
   37.5170   26.5520   41.1200 C   0  0  0  0  0  0  0  0  0  0  0  0
   38.6170   26.2210   40.4160 N   0  0  0  0  0  0  0  0  0  0  0  0
   39.2450   25.0310   40.5350 C   0  0  0  0  0  0  0  0  0  0  0  0
   38.7650   24.1010   41.3990 N   0  0  0  0  0  0  0  0  0  0  0  0
   37.1800   23.7220   42.8550 H   0  0  0  0  0  0  0  0  0  0  0  0
   36.1240   25.8820   42.5740 H   0  0  0  0  0  0  0  0  0  0  0  0
   40.1280   24.7550   39.9750 H   0  0  0  0  0  0  0  0  0  0  0  0
   38.4520   28.6460   42.7070 C   0  0  0  0  0  0  0  0  0  0  0  0
   38.0270   27.7410   43.6770 F   0  0  0  0  0  0  0  0  0  0  0  0
   39.6280   28.2230   42.1050 F   0  0  0  0  0  0  0  0  0  0  0  0
   38.7420   29.8110   43.3900 F   0  0  0  0  0  0  0  0  0  0  0  0
  1 13  1  0  0  0  0
  1  2  1  0  0  0  0
  2 20  1  0  0  0  0
  3  2  2  0  0  0  0
  3  7  1  0  0  0  0
  4  3  1  0  0  0  0
  5  6  1  0  0  0  0
  5  4  2  0  0  0  0
  6  1  2  0  0  0  0
  8  4  1  0  0  0  0
  9  5  1  0  0  0  0
 10  6  1  0  0  0  0
 11 17  1  0  0  0  0
 12 11  1  0  0  0  0
 12 18  1  0  0  0  0
 13 12  2  0  0  0  0
 14 15  2  0  0  0  0
 14 13  1  0  0  0  0
 15 16  1  0  0  0  0
 16 11  2  0  0  0  0
 19 15  1  0  0  0  0
 20 23  1  0  0  0  0
 20 21  1  0  0  0  0
 22 20  1  0  0  0  0
M  END
>  <minimizedAffinity>
-4.63162565

$$$$

 OpenBabel03252508423D

 23 24  0  0  0  0  0  0  0  0999 V2000
   37.0320   30.6920   38.4420 C   0  0  0  0  0  0  0  0  0  0  0  0
   36.2260   29.8100   39.1050 C   0  0  0  0  0  0  0  0  0  0  0  0
   35.4950   28.8500   38.4460 C   0  0  0  0  0  0  0  0  0  0  0  0
   35.5980   28.7990   37.0760 C   0  0  0  0  0  0  0  0  0  0  0  0
   36.3950   29.6610   36.3330 C   0  0  0  0  0  0  0  0  0  0  0  0
   37.1030   30.6040   37.0750 C   0  0  0  0  0  0  0  0  0  0  0  0
   34.8710   28.1730   39.0140 H   0  0  0  0  0  0  0  0  0  0  0  0
   35.0170   28.0380   36.5660 H   0  0  0  0  0  0  0  0  0  0  0  0
   36.4750   29.6210   35.2530 H   0  0  0  0  0  0  0  0  0  0  0  0
   37.7420   31.3040   36.5550 H   0  0  0  0  0  0  0  0  0  0  0  0
   38.1210   33.8560   40.1890 C   0  0  0  0  0  0  0  0  0  0  0  0
   37.3250   32.9910   39.3950 C   0  0  0  0  0  0  0  0  0  0  0  0
   37.7630   31.6690   39.2340 C   0  0  0  0  0  0  0  0  0  0  0  0
   38.9070   31.2960   39.8390 N   0  0  0  0  0  0  0  0  0  0  0  0
   39.6560   32.1300   40.5930 C   0  0  0  0  0  0  0  0  0  0  0  0
   39.2590   33.4160   40.7690 N   0  0  0  0  0  0  0  0  0  0  0  0
   37.6920   34.8470   40.2470 H   0  0  0  0  0  0  0  0  0  0  0  0
   36.4190   33.2790   38.9130 H   0  0  0  0  0  0  0  0  0  0  0  0
   40.5750   31.8400   41.0840 H   0  0  0  0  0  0  0  0  0  0  0  0
   36.1250   29.8790   40.6080 C   0  0  0  0  0  0  0  0  0  0  0  0
   37.2870   29.4020   41.2090 F   0  0  0  0  0  0  0  0  0  0  0  0
   35.8250   31.1610   41.0390 F   0  0  0  0  0  0  0  0  0  0  0  0
   35.1120   29.0520   41.0550 F   0  0  0  0  0  0  0  0  0  0  0  0
  1  2  1  0  0  0  0
  1 13  1  0  0  0  0
  2 20  1  0  0  0  0
  3  7  1  0  0  0  0
  3  2  2  0  0  0  0
  4  3  1  0  0  0  0
  5  6  1  0  0  0  0
  5  4  2  0  0  0  0
  6  1  2  0  0  0  0
  8  4  1  0  0  0  0
  9  5  1  0  0  0  0
 10  6  1  0  0  0  0
 11 17  1  0  0  0  0
 11 16  1  0  0  0  0
 12 11  2  0  0  0  0
 13 12  1  0  0  0  0
 13 14  2  0  0  0  0
 14 15  1  0  0  0  0
 15 16  2  0  0  0  0
 15 19  1  0  0  0  0
 18 12  1  0  0  0  0
 20 22  1  0  0  0  0
 20 23  1  0  0  0  0
 20 21  1  0  0  0  0
M  END
>  <minimizedAffinity>
-4.6160779

$$$$

 OpenBabel03252508423D

 23 24  0  0  0  0  0  0  0  0999 V2000
   37.5060   29.3850   41.4090 C   0  0  0  0  0  0  0  0  0  0  0  0
   38.5900   29.3580   42.2400 C   0  0  0  0  0  0  0  0  0  0  0  0
   38.6730   28.4950   43.3060 C   0  0  0  0  0  0  0  0  0  0  0  0
   37.6160   27.6440   43.5210 C   0  0  0  0  0  0  0  0  0  0  0  0
   36.4800   27.6130   42.7210 C   0  0  0  0  0  0  0  0  0  0  0  0
   36.4730   28.5170   41.6620 C   0  0  0  0  0  0  0  0  0  0  0  0
   39.5520   28.5100   43.9360 H   0  0  0  0  0  0  0  0  0  0  0  0
   37.6910   26.9670   44.3650 H   0  0  0  0  0  0  0  0  0  0  0  0
   35.6460   26.9410   42.8910 H   0  0  0  0  0  0  0  0  0  0  0  0
   35.6170   28.5420   41.0020 H   0  0  0  0  0  0  0  0  0  0  0  0
   37.1020   32.4880   39.2980 C   0  0  0  0  0  0  0  0  0  0  0  0
   37.0410   31.6490   40.4400 C   0  0  0  0  0  0  0  0  0  0  0  0
   37.5170   30.3370   40.3090 C   0  0  0  0  0  0  0  0  0  0  0  0
   38.0040   29.9480   39.1140 N   0  0  0  0  0  0  0  0  0  0  0  0
   38.0560   30.7580   38.0340 C   0  0  0  0  0  0  0  0  0  0  0  0
   37.6030   32.0340   38.1280 N   0  0  0  0  0  0  0  0  0  0  0  0
   36.7100   33.4740   39.5090 H   0  0  0  0  0  0  0  0  0  0  0  0
   36.6570   31.9490   41.3880 H   0  0  0  0  0  0  0  0  0  0  0  0
   38.4450   30.4570   37.0710 H   0  0  0  0  0  0  0  0  0  0  0  0
   39.7420   30.2990   41.9900 C   0  0  0  0  0  0  0  0  0  0  0  0
   40.2790   30.1050   40.7200 F   0  0  0  0  0  0  0  0  0  0  0  0
   39.3700   31.6210   42.1840 F   0  0  0  0  0  0  0  0  0  0  0  0
   40.7720   30.0350   42.8720 F   0  0  0  0  0  0  0  0  0  0  0  0
  1  6  2  0  0  0  0
  1  2  1  0  0  0  0
  2  3  2  0  0  0  0
  3  4  1  0  0  0  0
  3  7  1  0  0  0  0
  4  8  1  0  0  0  0
  5  9  1  0  0  0  0
  5  4  2  0  0  0  0
  6  5  1  0  0  0  0
 10  6  1  0  0  0  0
 11 17  1  0  0  0  0
 11 12  1  0  0  0  0
 12 18  1  0  0  0  0
 13 12  2  0  0  0  0
 13  1  1  0  0  0  0
 14 13  1  0  0  0  0
 15 16  1  0  0  0  0
 15 14  2  0  0  0  0
 16 11  2  0  0  0  0
 19 15  1  0  0  0  0
 20 22  1  0  0  0  0
 20  2  1  0  0  0  0
 20 23  1  0  0  0  0
 21 20  1  0  0  0  0
M  END
>  <minimizedAffinity>
-4.55610132

$$$$

 OpenBabel03252508423D

 23 24  0  0  0  0  0  0  0  0999 V2000
   36.6000   26.9660   40.0790 C   0  0  0  0  0  0  0  0  0  0  0  0
   36.5170   27.7820   41.1720 C   0  0  0  0  0  0  0  0  0  0  0  0
   35.8840   29.0010   41.1290 C   0  0  0  0  0  0  0  0  0  0  0  0
   35.3240   29.3860   39.9340 C   0  0  0  0  0  0  0  0  0  0  0  0
   35.3670   28.6130   38.7810 C   0  0  0  0  0  0  0  0  0  0  0  0
   36.0270   27.3920   38.9080 C   0  0  0  0  0  0  0  0  0  0  0  0
   35.8440   29.6130   42.0200 H   0  0  0  0  0  0  0  0  0  0  0  0
   34.8260   30.3500   39.9100 H   0  0  0  0  0  0  0  0  0  0  0  0
   34.9250   28.9170   37.8390 H   0  0  0  0  0  0  0  0  0  0  0  0
   36.0940   26.7430   38.0450 H   0  0  0  0  0  0  0  0  0  0  0  0
   37.4060   23.3280   40.6760 C   0  0  0  0  0  0  0  0  0  0  0  0
   36.6260   24.5060   40.5530 C   0  0  0  0  0  0  0  0  0  0  0  0
   37.2930   25.6970   40.2310 C   0  0  0  0  0  0  0  0  0  0  0  0
   38.6280   25.6560   40.0570 N   0  0  0  0  0  0  0  0  0  0  0  0
   39.3590   24.5260   40.1770 C   0  0  0  0  0  0  0  0  0  0  0  0
   38.7430   23.3570   40.4880 N   0  0  0  0  0  0  0  0  0  0  0  0
   36.7940   22.4710   40.9250 H   0  0  0  0  0  0  0  0  0  0  0  0
   35.5690   24.5460   40.6890 H   0  0  0  0  0  0  0  0  0  0  0  0
   40.4300   24.4820   40.0390 H   0  0  0  0  0  0  0  0  0  0  0  0
   37.1370   27.3450   42.4760 C   0  0  0  0  0  0  0  0  0  0  0  0
   36.6000   26.1330   42.9010 F   0  0  0  0  0  0  0  0  0  0  0  0
   38.5190   27.2790   42.3850 F   0  0  0  0  0  0  0  0  0  0  0  0
   36.8380   28.2530   43.4730 F   0  0  0  0  0  0  0  0  0  0  0  0
  1 13  1  0  0  0  0
  1  2  1  0  0  0  0
  2 20  1  0  0  0  0
  3  2  2  0  0  0  0
  3  7  1  0  0  0  0
  4  3  1  0  0  0  0
  5  6  1  0  0  0  0
  5  4  2  0  0  0  0
  6  1  2  0  0  0  0
  8  4  1  0  0  0  0
  9  5  1  0  0  0  0
 10  6  1  0  0  0  0
 11 17  1  0  0  0  0
 12 11  1  0  0  0  0
 12 18  1  0  0  0  0
 13 12  2  0  0  0  0
 14 15  2  0  0  0  0
 14 13  1  0  0  0  0
 15 16  1  0  0  0  0
 16 11  2  0  0  0  0
 19 15  1  0  0  0  0
 20 21  1  0  0  0  0
 20 23  1  0  0  0  0
 22 20  1  0  0  0  0
M  END
>  <minimizedAffinity>
-4.55107975

$$$$

 OpenBabel03252508423D

 23 24  0  0  0  0  0  0  0  0999 V2000
   39.3020   26.8850   42.8130 C   0  0  0  0  0  0  0  0  0  0  0  0
   38.3130   25.9750   42.5650 C   0  0  0  0  0  0  0  0  0  0  0  0
   36.9810   26.2880   42.6990 C   0  0  0  0  0  0  0  0  0  0  0  0
   36.6640   27.5650   43.0970 C   0  0  0  0  0  0  0  0  0  0  0  0
   37.6120   28.5440   43.3680 C   0  0  0  0  0  0  0  0  0  0  0  0
   38.9380   28.1470   43.2080 C   0  0  0  0  0  0  0  0  0  0  0  0
   36.2340   25.5350   42.4920 H   0  0  0  0  0  0  0  0  0  0  0  0
   35.6100   27.8020   43.2010 H   0  0  0  0  0  0  0  0  0  0  0  0
   37.3610   29.5510   43.6820 H   0  0  0  0  0  0  0  0  0  0  0  0
   39.7240   28.8640   43.4030 H   0  0  0  0  0  0  0  0  0  0  0  0
   42.7590   25.4860   43.3920 C   0  0  0  0  0  0  0  0  0  0  0  0
   41.4240   25.8690   43.6760 C   0  0  0  0  0  0  0  0  0  0  0  0
   40.6800   26.4520   42.6400 C   0  0  0  0  0  0  0  0  0  0  0  0
   41.2710   26.6150   41.4410 N   0  0  0  0  0  0  0  0  0  0  0  0
   42.5450   26.2460   41.1840 C   0  0  0  0  0  0  0  0  0  0  0  0
   43.2920   25.6790   42.1650 N   0  0  0  0  0  0  0  0  0  0  0  0
   43.2390   25.0490   44.2570 H   0  0  0  0  0  0  0  0  0  0  0  0
   40.9490   25.7430   44.6220 H   0  0  0  0  0  0  0  0  0  0  0  0
   43.0290   26.3720   40.2250 H   0  0  0  0  0  0  0  0  0  0  0  0
   38.6780   24.5790   42.1290 C   0  0  0  0  0  0  0  0  0  0  0  0
   37.5430   23.7810   42.0090 F   0  0  0  0  0  0  0  0  0  0  0  0
   39.4130   24.5890   40.9530 F   0  0  0  0  0  0  0  0  0  0  0  0
   39.4590   23.9690   43.0910 F   0  0  0  0  0  0  0  0  0  0  0  0
  1  6  1  0  0  0  0
  2  3  1  0  0  0  0
  2  1  2  0  0  0  0
  3  4  2  0  0  0  0
  4  8  1  0  0  0  0
  4  5  1  0  0  0  0
  5  9  1  0  0  0  0
  6  5  2  0  0  0  0
  6 10  1  0  0  0  0
  7  3  1  0  0  0  0
 11 12  1  0  0  0  0
 11 17  1  0  0  0  0
 12 18  1  0  0  0  0
 13  1  1  0  0  0  0
 13 12  2  0  0  0  0
 14 13  1  0  0  0  0
 15 14  2  0  0  0  0
 15 16  1  0  0  0  0
 16 11  2  0  0  0  0
 19 15  1  0  0  0  0
 20  2  1  0  0  0  0
 20 23  1  0  0  0  0
 21 20  1  0  0  0  0
 22 20  1  0  0  0  0
M  END
>  <minimizedAffinity>
-4.54371357

$$$$
