
 OpenBabel03252508233D

 43 45  0  0  0  0  0  0  0  0999 V2000
   45.5470   34.4150   41.1480 C   0  0  0  0  0  0  0  0  0  0  0  0
   46.3850   34.8720   42.1420 C   0  0  0  0  0  0  0  0  0  0  0  0
   45.9620   35.5050   43.2860 C   0  0  0  0  0  0  0  0  0  0  0  0
   44.5770   35.6730   43.4080 C   0  0  0  0  0  0  0  0  0  0  0  0
   43.7040   35.2370   42.4520 C   0  0  0  0  0  0  0  0  0  0  0  0
   44.1700   34.6140   41.3320 C   0  0  0  0  0  0  0  0  0  0  0  0
   47.4580   34.7710   42.1270 H   0  0  0  0  0  0  0  0  0  0  0  0
   46.5830   35.8710   44.0750 H   0  0  0  0  0  0  0  0  0  0  0  0
   44.1790   36.1730   44.3020 H   0  0  0  0  0  0  0  0  0  0  0  0
   42.6400   35.4080   42.6260 H   0  0  0  0  0  0  0  0  0  0  0  0
   43.1870   34.1930   40.4090 N   0  0  0  0  0  0  0  0  0  0  0  0
   42.5970   35.0390   39.4120 C   0  0  0  0  0  0  0  0  0  0  0  0
   41.9700   34.2220   38.3040 C   0  0  0  0  0  0  0  0  0  0  0  0
   42.7110   33.0620   37.9480 N   0  0  0  0  0  0  0  0  0  0  0  0
   43.0050   32.1890   39.0160 C   0  0  0  0  0  0  0  0  0  0  0  0
   42.6250   32.8360   40.3320 C   0  0  0  0  0  0  0  0  0  0  0  0
   43.1880   35.8840   39.0640 H   0  0  0  0  0  0  0  0  0  0  0  0
   41.7190   35.5260   39.9350 H   0  0  0  0  0  0  0  0  0  0  0  0
   41.8910   34.8750   37.4180 H   0  0  0  0  0  0  0  0  0  0  0  0
   40.9520   33.8790   38.6000 H   0  0  0  0  0  0  0  0  0  0  0  0
   42.4560   32.6910   37.0440 H   0  0  0  0  0  0  0  0  0  0  0  0
   42.4040   31.2580   38.9250 H   0  0  0  0  0  0  0  0  0  0  0  0
   44.0620   31.8760   39.0490 H   0  0  0  0  0  0  0  0  0  0  0  0
   41.5150   32.8950   40.4310 H   0  0  0  0  0  0  0  0  0  0  0  0
   43.0950   32.2330   41.1430 H   0  0  0  0  0  0  0  0  0  0  0  0
   46.0050   33.7470   39.9300 C   0  0  0  0  0  0  0  0  0  0  0  0
   45.4260   33.9650   39.0350 H   0  0  0  0  0  0  0  0  0  0  0  0
   45.8590   32.6420   40.1150 H   0  0  0  0  0  0  0  0  0  0  0  0
   47.4760   33.9950   39.6710 C   0  0  0  0  0  0  0  0  0  0  0  0
   48.0990   33.5030   40.4780 H   0  0  0  0  0  0  0  0  0  0  0  0
   47.7700   35.0290   39.5790 H   0  0  0  0  0  0  0  0  0  0  0  0
   47.4190   32.6270   36.1530 C   0  0  0  0  0  0  0  0  0  0  0  0
   47.0160   33.2940   37.3350 C   0  0  0  0  0  0  0  0  0  0  0  0
   47.8760   33.3000   38.4260 C   0  0  0  0  0  0  0  0  0  0  0  0
   49.0730   32.6520   38.2910 N   0  0  0  0  0  0  0  0  0  0  0  0
   49.4330   32.0290   37.1700 C   0  0  0  0  0  0  0  0  0  0  0  0
   48.6120   32.0130   36.1010 N   0  0  0  0  0  0  0  0  0  0  0  0
   46.7260   32.6350   35.3030 H   0  0  0  0  0  0  0  0  0  0  0  0
   46.0650   33.7880   37.3880 H   0  0  0  0  0  0  0  0  0  0  0  0
   50.7740   31.3620   37.1650 C   0  0  0  0  0  0  0  0  0  0  0  0
   51.7660   32.1880   37.7010 F   0  0  0  0  0  0  0  0  0  0  0  0
   51.1900   31.0680   35.8760 F   0  0  0  0  0  0  0  0  0  0  0  0
   50.7950   30.2090   37.9270 F   0  0  0  0  0  0  0  0  0  0  0  0
  1  6  2  0  0  0  0
  1  2  1  0  0  0  0
  2  3  2  0  0  0  0
  3  4  1  0  0  0  0
  3  8  1  0  0  0  0
  4  9  1  0  0  0  0
  5 10  1  0  0  0  0
  5  4  2  0  0  0  0
  6  5  1  0  0  0  0
  7  2  1  0  0  0  0
 11  6  1  0  0  0  0
 12 18  1  0  0  0  0
 12 11  1  0  0  0  0
 13 20  1  0  0  0  0
 13 12  1  0  0  0  0
 14 13  1  0  0  0  0
 14 15  1  0  0  0  0
 15 23  1  0  0  0  0
 15 16  1  0  0  0  0
 16 11  1  0  0  0  0
 16 24  1  0  0  0  0
 16 25  1  0  0  0  0
 17 12  1  0  0  0  0
 19 13  1  0  0  0  0
 21 14  1  0  0  0  0
 22 15  1  0  0  0  0
 26 28  1  0  0  0  0
 26  1  1  0  0  0  0
 27 26  1  0  0  0  0
 29 26  1  0  0  0  0
 29 30  1  0  0  0  0
 31 29  1  0  0  0  0
 32 33  1  0  0  0  0
 33 39  1  0  0  0  0
 33 34  2  0  0  0  0
 34 29  1  0  0  0  0
 35 34  1  0  0  0  0
 36 35  2  0  0  0  0
 37 32  2  0  0  0  0
 37 36  1  0  0  0  0
 38 32  1  0  0  0  0
 40 36  1  0  0  0  0
 40 41  1  0  0  0  0
 40 43  1  0  0  0  0
 42 40  1  0  0  0  0
M  END
>  <minimizedAffinity>
-4.77196741

>  <minimizedRMSD>
7.87902927

$$$$
