
 OpenBabel03252506533D

 26 28  0  0  0  0  0  0  0  0999 V2000
   36.4490   26.6050   39.6910 C   0  0  0  0  0  0  0  0  0  0  0  0
   36.0760   27.8960   39.4180 C   0  0  0  0  0  0  0  0  0  0  0  0
   36.1900   28.9240   40.3490 C   0  0  0  0  0  0  0  0  0  0  0  0
   36.7010   28.6560   41.6180 C   0  0  0  0  0  0  0  0  0  0  0  0
   36.9560   29.3580   42.7450 N   0  0  0  0  0  0  0  0  0  0  0  0
   37.4680   28.5240   43.6800 C   0  0  0  0  0  0  0  0  0  0  0  0
   37.5270   27.3020   43.1170 N   0  0  0  0  0  0  0  0  0  0  0  0
   37.0680   27.3340   41.8530 C   0  0  0  0  0  0  0  0  0  0  0  0
   36.9600   26.3160   40.9470 C   0  0  0  0  0  0  0  0  0  0  0  0
   36.3450   25.8500   38.9510 H   0  0  0  0  0  0  0  0  0  0  0  0
   35.8980   29.9520   40.1430 H   0  0  0  0  0  0  0  0  0  0  0  0
   36.7660   30.3810   42.8210 H   0  0  0  0  0  0  0  0  0  0  0  0
   37.7620   28.8260   44.6830 H   0  0  0  0  0  0  0  0  0  0  0  0
   35.7850   28.6150   35.8120 C   0  0  0  0  0  0  0  0  0  0  0  0
   34.4310   28.9370   35.6820 C   0  0  0  0  0  0  0  0  0  0  0  0
   33.6330   28.9040   36.8340 C   0  0  0  0  0  0  0  0  0  0  0  0
   34.2140   28.5600   38.0250 N   0  0  0  0  0  0  0  0  0  0  0  0
   35.5330   28.2530   38.1110 C   0  0  0  0  0  0  0  0  0  0  0  0
   36.2910   28.2840   37.0180 N   0  0  0  0  0  0  0  0  0  0  0  0
   36.3790   28.6490   34.9080 H   0  0  0  0  0  0  0  0  0  0  0  0
   33.9260   29.2120   34.7810 H   0  0  0  0  0  0  0  0  0  0  0  0
   32.5750   29.1330   36.8560 H   0  0  0  0  0  0  0  0  0  0  0  0
   37.3870   24.9340   41.3200 C   0  0  0  0  0  0  0  0  0  0  0  0
   37.1560   24.0960   40.2520 F   0  0  0  0  0  0  0  0  0  0  0  0
   38.7220   24.9150   41.6540 F   0  0  0  0  0  0  0  0  0  0  0  0
   36.6510   24.4710   42.3910 F   0  0  0  0  0  0  0  0  0  0  0  0
  1  9  1  0  0  0  0
  2  1  2  0  0  0  0
  2  3  1  0  0  0  0
  3  4  2  0  0  0  0
  4  8  1  0  0  0  0
  4  5  1  0  0  0  0
  5 12  1  0  0  0  0
  5  6  1  0  0  0  0
  6 13  1  0  0  0  0
  7  6  2  0  0  0  0
  8  7  1  0  0  0  0
  9 23  1  0  0  0  0
  9  8  2  0  0  0  0
 10  1  1  0  0  0  0
 11  3  1  0  0  0  0
 14 19  1  0  0  0  0
 15 14  2  0  0  0  0
 15 16  1  0  0  0  0
 16 22  1  0  0  0  0
 16 17  2  0  0  0  0
 17 18  1  0  0  0  0
 18  2  1  0  0  0  0
 19 18  2  0  0  0  0
 20 14  1  0  0  0  0
 21 15  1  0  0  0  0
 23 25  1  0  0  0  0
 23 26  1  0  0  0  0
 24 23  1  0  0  0  0
M  END
>  <minimizedAffinity>
-5.11776257

$$$$

 OpenBabel03252506533D

 26 28  0  0  0  0  0  0  0  0999 V2000
   36.6850   30.6260   39.2100 C   0  0  0  0  0  0  0  0  0  0  0  0
   37.5860   31.3650   38.4870 C   0  0  0  0  0  0  0  0  0  0  0  0
   37.7350   31.2300   37.1100 C   0  0  0  0  0  0  0  0  0  0  0  0
   36.9480   30.3150   36.4130 C   0  0  0  0  0  0  0  0  0  0  0  0
   36.8060   29.9140   35.1300 N   0  0  0  0  0  0  0  0  0  0  0  0
   35.8490   28.9600   35.0670 C   0  0  0  0  0  0  0  0  0  0  0  0
   35.4010   28.7770   36.3250 N   0  0  0  0  0  0  0  0  0  0  0  0
   36.0460   29.5860   37.1850 C   0  0  0  0  0  0  0  0  0  0  0  0
   35.8910   29.7090   38.5380 C   0  0  0  0  0  0  0  0  0  0  0  0
   36.6020   30.7600   40.2600 H   0  0  0  0  0  0  0  0  0  0  0  0
   38.4470   31.8110   36.5270 H   0  0  0  0  0  0  0  0  0  0  0  0
   37.3760   30.3150   34.3530 H   0  0  0  0  0  0  0  0  0  0  0  0
   35.5320   28.4620   34.1540 H   0  0  0  0  0  0  0  0  0  0  0  0
   38.7650   34.1170   40.6410 C   0  0  0  0  0  0  0  0  0  0  0  0
   40.1310   34.1590   40.3470 C   0  0  0  0  0  0  0  0  0  0  0  0
   40.6330   33.2420   39.4140 C   0  0  0  0  0  0  0  0  0  0  0  0
   39.7650   32.3530   38.8360 N   0  0  0  0  0  0  0  0  0  0  0  0
   38.4450   32.3440   39.1470 C   0  0  0  0  0  0  0  0  0  0  0  0
   37.9680   33.2140   40.0330 N   0  0  0  0  0  0  0  0  0  0  0  0
   38.4030   34.8360   41.3640 H   0  0  0  0  0  0  0  0  0  0  0  0
   40.8520   34.8280   40.7660 H   0  0  0  0  0  0  0  0  0  0  0  0
   41.6690   33.1800   39.1080 H   0  0  0  0  0  0  0  0  0  0  0  0
   34.8870   28.8680   39.2540 C   0  0  0  0  0  0  0  0  0  0  0  0
   35.2270   27.5420   39.0950 F   0  0  0  0  0  0  0  0  0  0  0  0
   34.8540   29.1880   40.5920 F   0  0  0  0  0  0  0  0  0  0  0  0
   33.6290   29.0520   38.7190 F   0  0  0  0  0  0  0  0  0  0  0  0
  1 10  1  0  0  0  0
  2 18  1  0  0  0  0
  2  1  2  0  0  0  0
  3  2  1  0  0  0  0
  4  3  2  0  0  0  0
  4  8  1  0  0  0  0
  5  4  1  0  0  0  0
  6  5  1  0  0  0  0
  6  7  2  0  0  0  0
  7  8  1  0  0  0  0
  8  9  2  0  0  0  0
  9  1  1  0  0  0  0
  9 23  1  0  0  0  0
 11  3  1  0  0  0  0
 12  5  1  0  0  0  0
 13  6  1  0  0  0  0
 14 20  1  0  0  0  0
 15 14  1  0  0  0  0
 15 21  1  0  0  0  0
 16 15  2  0  0  0  0
 17 18  2  0  0  0  0
 17 16  1  0  0  0  0
 18 19  1  0  0  0  0
 19 14  2  0  0  0  0
 22 16  1  0  0  0  0
 23 25  1  0  0  0  0
 24 23  1  0  0  0  0
 26 23  1  0  0  0  0
M  END
>  <minimizedAffinity>
-5.08086014

$$$$

 OpenBabel03252506533D

 26 28  0  0  0  0  0  0  0  0999 V2000
   37.5620   30.5790   40.2500 C   0  0  0  0  0  0  0  0  0  0  0  0
   38.5690   30.9050   41.1210 C   0  0  0  0  0  0  0  0  0  0  0  0
   38.7840   30.2170   42.3120 C   0  0  0  0  0  0  0  0  0  0  0  0
   37.9570   29.1490   42.6550 C   0  0  0  0  0  0  0  0  0  0  0  0
   37.8540   28.2730   43.6790 N   0  0  0  0  0  0  0  0  0  0  0  0
   36.8160   27.4360   43.4440 C   0  0  0  0  0  0  0  0  0  0  0  0
   36.2820   27.8050   42.2630 N   0  0  0  0  0  0  0  0  0  0  0  0
   36.9480   28.8510   41.7420 C   0  0  0  0  0  0  0  0  0  0  0  0
   36.7270   29.5200   40.5700 C   0  0  0  0  0  0  0  0  0  0  0  0
   37.4320   31.1300   39.3510 H   0  0  0  0  0  0  0  0  0  0  0  0
   39.5800   30.4670   43.0110 H   0  0  0  0  0  0  0  0  0  0  0  0
   38.5020   28.2900   44.4970 H   0  0  0  0  0  0  0  0  0  0  0  0
   36.5070   26.6330   44.1080 H   0  0  0  0  0  0  0  0  0  0  0  0
   39.8920   34.1610   40.0040 C   0  0  0  0  0  0  0  0  0  0  0  0
   41.2510   34.0520   40.3150 C   0  0  0  0  0  0  0  0  0  0  0  0
   41.6980   32.8610   40.9040 C   0  0  0  0  0  0  0  0  0  0  0  0
   40.7870   31.8670   41.1460 N   0  0  0  0  0  0  0  0  0  0  0  0
   39.4760   32.0110   40.8310 C   0  0  0  0  0  0  0  0  0  0  0  0
   39.0510   33.1420   40.2720 N   0  0  0  0  0  0  0  0  0  0  0  0
   39.5730   35.0900   39.5500 H   0  0  0  0  0  0  0  0  0  0  0  0
   42.0030   34.7930   40.1480 H   0  0  0  0  0  0  0  0  0  0  0  0
   42.7230   32.6630   41.1870 H   0  0  0  0  0  0  0  0  0  0  0  0
   35.6080   29.1040   39.6730 C   0  0  0  0  0  0  0  0  0  0  0  0
   35.6170   29.9070   38.5530 F   0  0  0  0  0  0  0  0  0  0  0  0
   35.7460   27.7850   39.3070 F   0  0  0  0  0  0  0  0  0  0  0  0
   34.3920   29.2690   40.3040 F   0  0  0  0  0  0  0  0  0  0  0  0
  1  9  2  0  0  0  0
  1  2  1  0  0  0  0
  2  3  2  0  0  0  0
  3  4  1  0  0  0  0
  3 11  1  0  0  0  0
  4  5  1  0  0  0  0
  5 12  1  0  0  0  0
  6  5  1  0  0  0  0
  6 13  1  0  0  0  0
  7  6  2  0  0  0  0
  8  7  1  0  0  0  0
  8  4  2  0  0  0  0
  9  8  1  0  0  0  0
 10  1  1  0  0  0  0
 14 19  2  0  0  0  0
 14 15  1  0  0  0  0
 15 16  2  0  0  0  0
 16 17  1  0  0  0  0
 16 22  1  0  0  0  0
 18  2  1  0  0  0  0
 18 17  2  0  0  0  0
 19 18  1  0  0  0  0
 20 14  1  0  0  0  0
 21 15  1  0  0  0  0
 23 26  1  0  0  0  0
 23  9  1  0  0  0  0
 24 23  1  0  0  0  0
 25 23  1  0  0  0  0
M  END
>  <minimizedAffinity>
-5.06776857

$$$$

 OpenBabel03252506533D

 26 28  0  0  0  0  0  0  0  0999 V2000
   38.3090   30.2800   40.6490 C   0  0  0  0  0  0  0  0  0  0  0  0
   39.3040   30.0300   41.5580 C   0  0  0  0  0  0  0  0  0  0  0  0
   40.3230   30.9390   41.8250 C   0  0  0  0  0  0  0  0  0  0  0  0
   40.3560   32.1600   41.1550 C   0  0  0  0  0  0  0  0  0  0  0  0
   41.1490   33.2560   41.1420 N   0  0  0  0  0  0  0  0  0  0  0  0
   40.6550   34.1490   40.2520 C   0  0  0  0  0  0  0  0  0  0  0  0
   39.5510   33.5930   39.7180 N   0  0  0  0  0  0  0  0  0  0  0  0
   39.3270   32.3730   40.2410 C   0  0  0  0  0  0  0  0  0  0  0  0
   38.3210   31.4880   39.9700 C   0  0  0  0  0  0  0  0  0  0  0  0
   37.5490   29.5580   40.4760 H   0  0  0  0  0  0  0  0  0  0  0  0
   41.1180   30.7520   42.5450 H   0  0  0  0  0  0  0  0  0  0  0  0
   41.9950   33.3400   41.7460 H   0  0  0  0  0  0  0  0  0  0  0  0
   41.0990   35.1190   40.0400 H   0  0  0  0  0  0  0  0  0  0  0  0
   40.4520   27.2030   43.6310 C   0  0  0  0  0  0  0  0  0  0  0  0
   39.3170   26.3880   43.6770 C   0  0  0  0  0  0  0  0  0  0  0  0
   38.1700   26.8180   42.9960 C   0  0  0  0  0  0  0  0  0  0  0  0
   38.2150   28.0100   42.3210 N   0  0  0  0  0  0  0  0  0  0  0  0
   39.3370   28.7730   42.3000 C   0  0  0  0  0  0  0  0  0  0  0  0
   40.4260   28.3650   42.9470 N   0  0  0  0  0  0  0  0  0  0  0  0
   41.3240   26.8480   44.1640 H   0  0  0  0  0  0  0  0  0  0  0  0
   39.2250   25.4520   44.1850 H   0  0  0  0  0  0  0  0  0  0  0  0
   37.2350   26.2740   42.9610 H   0  0  0  0  0  0  0  0  0  0  0  0
   37.2730   31.8330   38.9650 C   0  0  0  0  0  0  0  0  0  0  0  0
   37.8710   31.9730   37.7320 F   0  0  0  0  0  0  0  0  0  0  0  0
   36.3100   30.8510   38.9130 F   0  0  0  0  0  0  0  0  0  0  0  0
   36.6700   33.0320   39.2840 F   0  0  0  0  0  0  0  0  0  0  0  0
  1  2  1  0  0  0  0
  2  3  2  0  0  0  0
  2 18  1  0  0  0  0
  3 11  1  0  0  0  0
  4  3  1  0  0  0  0
  5  4  1  0  0  0  0
  5 12  1  0  0  0  0
  6  5  1  0  0  0  0
  7  8  1  0  0  0  0
  7  6  2  0  0  0  0
  8  4  2  0  0  0  0
  9  8  1  0  0  0  0
  9  1  2  0  0  0  0
 10  1  1  0  0  0  0
 13  6  1  0  0  0  0
 14 15  1  0  0  0  0
 14 20  1  0  0  0  0
 15 21  1  0  0  0  0
 16 15  2  0  0  0  0
 17 16  1  0  0  0  0
 18 17  2  0  0  0  0
 18 19  1  0  0  0  0
 19 14  2  0  0  0  0
 22 16  1  0  0  0  0
 23 26  1  0  0  0  0
 23  9  1  0  0  0  0
 24 23  1  0  0  0  0
 25 23  1  0  0  0  0
M  END
>  <minimizedAffinity>
-4.98093081

$$$$

 OpenBabel03252506533D

 26 28  0  0  0  0  0  0  0  0999 V2000
   36.2530   27.8840   40.4960 C   0  0  0  0  0  0  0  0  0  0  0  0
   36.2600   28.9540   39.6390 C   0  0  0  0  0  0  0  0  0  0  0  0
   37.0550   30.0770   39.8460 C   0  0  0  0  0  0  0  0  0  0  0  0
   37.8870   30.1420   40.9630 C   0  0  0  0  0  0  0  0  0  0  0  0
   38.7690   31.0240   41.4850 N   0  0  0  0  0  0  0  0  0  0  0  0
   39.2850   30.5110   42.6260 C   0  0  0  0  0  0  0  0  0  0  0  0
   38.7140   29.3040   42.8010 N   0  0  0  0  0  0  0  0  0  0  0  0
   37.8490   29.0340   41.8060 C   0  0  0  0  0  0  0  0  0  0  0  0
   37.0720   27.9260   41.6130 C   0  0  0  0  0  0  0  0  0  0  0  0
   35.6300   27.0460   40.3000 H   0  0  0  0  0  0  0  0  0  0  0  0
   37.0690   30.9320   39.1730 H   0  0  0  0  0  0  0  0  0  0  0  0
   38.9750   31.9410   41.0320 H   0  0  0  0  0  0  0  0  0  0  0  0
   40.0200   31.0130   43.2520 H   0  0  0  0  0  0  0  0  0  0  0  0
   33.3130   28.8780   37.4220 C   0  0  0  0  0  0  0  0  0  0  0  0
   33.8930   28.9790   36.1540 C   0  0  0  0  0  0  0  0  0  0  0  0
   35.2890   29.0720   36.0740 C   0  0  0  0  0  0  0  0  0  0  0  0
   36.0150   29.0590   37.2360 N   0  0  0  0  0  0  0  0  0  0  0  0
   35.4150   28.9600   38.4480 C   0  0  0  0  0  0  0  0  0  0  0  0
   34.0900   28.8720   38.5240 N   0  0  0  0  0  0  0  0  0  0  0  0
   32.2340   28.8070   37.4560 H   0  0  0  0  0  0  0  0  0  0  0  0
   33.3770   28.9930   35.2170 H   0  0  0  0  0  0  0  0  0  0  0  0
   35.8480   29.1540   35.1510 H   0  0  0  0  0  0  0  0  0  0  0  0
   37.1200   26.8000   42.5930 C   0  0  0  0  0  0  0  0  0  0  0  0
   36.6460   25.6610   41.9810 F   0  0  0  0  0  0  0  0  0  0  0  0
   38.4080   26.5960   43.0330 F   0  0  0  0  0  0  0  0  0  0  0  0
   36.3130   27.0670   43.6790 F   0  0  0  0  0  0  0  0  0  0  0  0
  1  9  1  0  0  0  0
  2  3  1  0  0  0  0
  2  1  2  0  0  0  0
  3  4  2  0  0  0  0
  4  5  1  0  0  0  0
  4  8  1  0  0  0  0
  5  6  1  0  0  0  0
  6  7  2  0  0  0  0
  6 13  1  0  0  0  0
  8  7  1  0  0  0  0
  9  8  2  0  0  0  0
  9 23  1  0  0  0  0
 10  1  1  0  0  0  0
 11  3  1  0  0  0  0
 12  5  1  0  0  0  0
 14 20  1  0  0  0  0
 14 19  1  0  0  0  0
 15 14  2  0  0  0  0
 16 15  1  0  0  0  0
 16 17  2  0  0  0  0
 17 18  1  0  0  0  0
 18 19  2  0  0  0  0
 18  2  1  0  0  0  0
 21 15  1  0  0  0  0
 22 16  1  0  0  0  0
 23 25  1  0  0  0  0
 23 26  1  0  0  0  0
 24 23  1  0  0  0  0
M  END
>  <minimizedAffinity>
-4.98010826

$$$$

 OpenBabel03252506533D

 26 28  0  0  0  0  0  0  0  0999 V2000
   37.7390   29.1700   41.5070 C   0  0  0  0  0  0  0  0  0  0  0  0
   37.5420   29.8810   40.3510 C   0  0  0  0  0  0  0  0  0  0  0  0
   37.0540   29.2990   39.1850 C   0  0  0  0  0  0  0  0  0  0  0  0
   36.7450   27.9400   39.1650 C   0  0  0  0  0  0  0  0  0  0  0  0
   36.2690   27.0510   38.2640 N   0  0  0  0  0  0  0  0  0  0  0  0
   36.1780   25.8340   38.8480 C   0  0  0  0  0  0  0  0  0  0  0  0
   36.6010   25.9820   40.1190 N   0  0  0  0  0  0  0  0  0  0  0  0
   36.9590   27.2560   40.3590 C   0  0  0  0  0  0  0  0  0  0  0  0
   37.4380   27.8170   41.5100 C   0  0  0  0  0  0  0  0  0  0  0  0
   38.1130   29.6540   42.3750 H   0  0  0  0  0  0  0  0  0  0  0  0
   36.8940   29.8530   38.2620 H   0  0  0  0  0  0  0  0  0  0  0  0
   36.0290   27.3220   37.2850 H   0  0  0  0  0  0  0  0  0  0  0  0
   35.8240   24.9340   38.3500 H   0  0  0  0  0  0  0  0  0  0  0  0
   39.1700   33.1500   40.8650 C   0  0  0  0  0  0  0  0  0  0  0  0
   38.3410   34.0120   40.1390 C   0  0  0  0  0  0  0  0  0  0  0  0
   37.2320   33.4610   39.4820 C   0  0  0  0  0  0  0  0  0  0  0  0
   37.0150   32.1120   39.5810 N   0  0  0  0  0  0  0  0  0  0  0  0
   37.8430   31.3090   40.2950 C   0  0  0  0  0  0  0  0  0  0  0  0
   38.8950   31.8320   40.9190 N   0  0  0  0  0  0  0  0  0  0  0  0
   40.0180   33.6020   41.3630 H   0  0  0  0  0  0  0  0  0  0  0  0
   38.4620   35.0680   40.0280 H   0  0  0  0  0  0  0  0  0  0  0  0
   36.5230   34.0270   38.8920 H   0  0  0  0  0  0  0  0  0  0  0  0
   37.6260   26.9750   42.7290 C   0  0  0  0  0  0  0  0  0  0  0  0
   38.2930   27.7160   43.6800 F   0  0  0  0  0  0  0  0  0  0  0  0
   36.4100   26.5620   43.2230 F   0  0  0  0  0  0  0  0  0  0  0  0
   38.3910   25.8650   42.4400 F   0  0  0  0  0  0  0  0  0  0  0  0
  1  9  1  0  0  0  0
  1 10  1  0  0  0  0
  2  1  2  0  0  0  0
  3  2  1  0  0  0  0
  4  3  2  0  0  0  0
  4  8  1  0  0  0  0
  5  6  1  0  0  0  0
  5  4  1  0  0  0  0
  6  7  2  0  0  0  0
  7  8  1  0  0  0  0
  8  9  2  0  0  0  0
  9 23  1  0  0  0  0
 11  3  1  0  0  0  0
 12  5  1  0  0  0  0
 13  6  1  0  0  0  0
 14 19  1  0  0  0  0
 14 20  1  0  0  0  0
 15 14  2  0  0  0  0
 16 17  2  0  0  0  0
 16 15  1  0  0  0  0
 17 18  1  0  0  0  0
 18  2  1  0  0  0  0
 18 19  2  0  0  0  0
 21 15  1  0  0  0  0
 22 16  1  0  0  0  0
 23 25  1  0  0  0  0
 23 24  1  0  0  0  0
 26 23  1  0  0  0  0
M  END
>  <minimizedAffinity>
-4.95679808

$$$$

 OpenBabel03252506533D

 26 28  0  0  0  0  0  0  0  0999 V2000
   39.7150   30.1140   40.7840 C   0  0  0  0  0  0  0  0  0  0  0  0
   38.3960   29.8250   41.0190 C   0  0  0  0  0  0  0  0  0  0  0  0
   37.3810   30.7640   40.8610 C   0  0  0  0  0  0  0  0  0  0  0  0
   37.6920   32.0580   40.4480 C   0  0  0  0  0  0  0  0  0  0  0  0
   37.0150   33.2000   40.1920 N   0  0  0  0  0  0  0  0  0  0  0  0
   37.8910   34.1590   39.8130 C   0  0  0  0  0  0  0  0  0  0  0  0
   39.1150   33.5970   39.8370 N   0  0  0  0  0  0  0  0  0  0  0  0
   39.0430   32.3090   40.2200 C   0  0  0  0  0  0  0  0  0  0  0  0
   40.0480   31.3950   40.3720 C   0  0  0  0  0  0  0  0  0  0  0  0
   40.4590   29.3670   40.9160 H   0  0  0  0  0  0  0  0  0  0  0  0
   36.3310   30.5460   41.0450 H   0  0  0  0  0  0  0  0  0  0  0  0
   35.9790   33.2690   40.2910 H   0  0  0  0  0  0  0  0  0  0  0  0
   37.6160   35.1780   39.5480 H   0  0  0  0  0  0  0  0  0  0  0  0
   37.8740   26.1760   41.1320 C   0  0  0  0  0  0  0  0  0  0  0  0
   37.1970   26.0100   42.3440 C   0  0  0  0  0  0  0  0  0  0  0  0
   36.9270   27.1530   43.1090 C   0  0  0  0  0  0  0  0  0  0  0  0
   37.3370   28.3710   42.6350 N   0  0  0  0  0  0  0  0  0  0  0  0
   37.9920   28.4910   41.4540 C   0  0  0  0  0  0  0  0  0  0  0  0
   38.2490   27.4060   40.7280 N   0  0  0  0  0  0  0  0  0  0  0  0
   38.0700   25.2770   40.5610 H   0  0  0  0  0  0  0  0  0  0  0  0
   36.8550   25.0870   42.7610 H   0  0  0  0  0  0  0  0  0  0  0  0
   36.4110   27.1480   44.0600 H   0  0  0  0  0  0  0  0  0  0  0  0
   41.4630   31.7870   40.0970 C   0  0  0  0  0  0  0  0  0  0  0  0
   41.5610   32.1950   38.7850 F   0  0  0  0  0  0  0  0  0  0  0  0
   41.8540   32.8050   40.9360 F   0  0  0  0  0  0  0  0  0  0  0  0
   42.3080   30.7120   40.2730 F   0  0  0  0  0  0  0  0  0  0  0  0
  1 10  1  0  0  0  0
  1  2  1  0  0  0  0
  2 18  1  0  0  0  0
  3  2  2  0  0  0  0
  3 11  1  0  0  0  0
  4  3  1  0  0  0  0
  5 12  1  0  0  0  0
  5  4  1  0  0  0  0
  6  7  2  0  0  0  0
  6  5  1  0  0  0  0
  7  8  1  0  0  0  0
  8  9  1  0  0  0  0
  8  4  2  0  0  0  0
  9  1  2  0  0  0  0
 13  6  1  0  0  0  0
 14 15  1  0  0  0  0
 15 21  1  0  0  0  0
 15 16  2  0  0  0  0
 16 22  1  0  0  0  0
 17 16  1  0  0  0  0
 18 17  2  0  0  0  0
 19 14  2  0  0  0  0
 19 18  1  0  0  0  0
 20 14  1  0  0  0  0
 23 26  1  0  0  0  0
 23  9  1  0  0  0  0
 23 25  1  0  0  0  0
 24 23  1  0  0  0  0
M  END
>  <minimizedAffinity>
-4.81896925

$$$$

 OpenBabel03252506533D

 26 28  0  0  0  0  0  0  0  0999 V2000
   36.5790   30.4760   38.7890 C   0  0  0  0  0  0  0  0  0  0  0  0
   35.6650   29.4550   38.8130 C   0  0  0  0  0  0  0  0  0  0  0  0
   35.4880   28.6300   39.9190 C   0  0  0  0  0  0  0  0  0  0  0  0
   36.2600   28.8290   41.0630 C   0  0  0  0  0  0  0  0  0  0  0  0
   36.3750   28.2620   42.2850 N   0  0  0  0  0  0  0  0  0  0  0  0
   37.3310   28.9130   42.9870 C   0  0  0  0  0  0  0  0  0  0  0  0
   37.8020   29.8890   42.1870 N   0  0  0  0  0  0  0  0  0  0  0  0
   37.1760   29.8760   40.9960 C   0  0  0  0  0  0  0  0  0  0  0  0
   37.3580   30.6920   39.9150 C   0  0  0  0  0  0  0  0  0  0  0  0
   36.6820   31.0820   37.9230 H   0  0  0  0  0  0  0  0  0  0  0  0
   34.7660   27.8170   39.9500 H   0  0  0  0  0  0  0  0  0  0  0  0
   35.7910   27.4490   42.5810 H   0  0  0  0  0  0  0  0  0  0  0  0
   37.6300   28.6640   44.0030 H   0  0  0  0  0  0  0  0  0  0  0  0
   32.7440   28.6710   36.7010 C   0  0  0  0  0  0  0  0  0  0  0  0
   33.2950   28.6860   35.4150 C   0  0  0  0  0  0  0  0  0  0  0  0
   34.6620   28.9640   35.2880 C   0  0  0  0  0  0  0  0  0  0  0  0
   35.3910   29.2070   36.4230 N   0  0  0  0  0  0  0  0  0  0  0  0
   34.8200   29.1840   37.6530 C   0  0  0  0  0  0  0  0  0  0  0  0
   33.5210   28.9200   37.7740 N   0  0  0  0  0  0  0  0  0  0  0  0
   31.6860   28.4530   36.7710 H   0  0  0  0  0  0  0  0  0  0  0  0
   32.7760   28.5030   34.4990 H   0  0  0  0  0  0  0  0  0  0  0  0
   35.1970   29.0030   34.3480 H   0  0  0  0  0  0  0  0  0  0  0  0
   38.3760   31.7840   39.9660 C   0  0  0  0  0  0  0  0  0  0  0  0
   38.3930   32.4300   38.7490 F   0  0  0  0  0  0  0  0  0  0  0  0
   38.0770   32.6780   40.9690 F   0  0  0  0  0  0  0  0  0  0  0  0
   39.6340   31.2650   40.1900 F   0  0  0  0  0  0  0  0  0  0  0  0
  1  2  2  0  0  0  0
  1  9  1  0  0  0  0
  2  3  1  0  0  0  0
  3 11  1  0  0  0  0
  3  4  2  0  0  0  0
  4  5  1  0  0  0  0
  5 12  1  0  0  0  0
  5  6  1  0  0  0  0
  6 13  1  0  0  0  0
  7  6  2  0  0  0  0
  8  4  1  0  0  0  0
  8  7  1  0  0  0  0
  9 23  1  0  0  0  0
  9  8  2  0  0  0  0
 10  1  1  0  0  0  0
 14 20  1  0  0  0  0
 14 19  1  0  0  0  0
 15 14  2  0  0  0  0
 16 15  1  0  0  0  0
 16 17  2  0  0  0  0
 17 18  1  0  0  0  0
 18 19  2  0  0  0  0
 18  2  1  0  0  0  0
 21 15  1  0  0  0  0
 22 16  1  0  0  0  0
 23 26  1  0  0  0  0
 23 25  1  0  0  0  0
 24 23  1  0  0  0  0
M  END
>  <minimizedAffinity>
-4.75928545

$$$$

 OpenBabel03252506533D

 26 28  0  0  0  0  0  0  0  0999 V2000
   38.3700   29.3760   39.7100 C   0  0  0  0  0  0  0  0  0  0  0  0
   38.7020   30.4030   40.5540 C   0  0  0  0  0  0  0  0  0  0  0  0
   38.3890   30.3940   41.9100 C   0  0  0  0  0  0  0  0  0  0  0  0
   37.7100   29.3060   42.4570 C   0  0  0  0  0  0  0  0  0  0  0  0
   37.2500   28.9440   43.6750 N   0  0  0  0  0  0  0  0  0  0  0  0
   36.6540   27.7330   43.5810 C   0  0  0  0  0  0  0  0  0  0  0  0
   36.7520   27.3510   42.2930 N   0  0  0  0  0  0  0  0  0  0  0  0
   37.3930   28.2840   41.5650 C   0  0  0  0  0  0  0  0  0  0  0  0
   37.6950   28.2830   40.2320 C   0  0  0  0  0  0  0  0  0  0  0  0
   38.6280   29.4230   38.6810 H   0  0  0  0  0  0  0  0  0  0  0  0
   38.6480   31.2030   42.5890 H   0  0  0  0  0  0  0  0  0  0  0  0
   37.3660   29.5470   44.5180 H   0  0  0  0  0  0  0  0  0  0  0  0
   36.1950   27.2030   44.4140 H   0  0  0  0  0  0  0  0  0  0  0  0
   40.6280   32.6850   38.3890 C   0  0  0  0  0  0  0  0  0  0  0  0
   40.7380   33.8290   39.1860 C   0  0  0  0  0  0  0  0  0  0  0  0
   40.1500   33.8030   40.4580 C   0  0  0  0  0  0  0  0  0  0  0  0
   39.4990   32.6660   40.8580 N   0  0  0  0  0  0  0  0  0  0  0  0
   39.4140   31.5770   40.0540 C   0  0  0  0  0  0  0  0  0  0  0  0
   39.9720   31.6000   38.8470 N   0  0  0  0  0  0  0  0  0  0  0  0
   41.0910   32.7310   37.4120 H   0  0  0  0  0  0  0  0  0  0  0  0
   41.2330   34.7400   38.9260 H   0  0  0  0  0  0  0  0  0  0  0  0
   40.1700   34.6260   41.1610 H   0  0  0  0  0  0  0  0  0  0  0  0
   37.2980   27.1250   39.3770 C   0  0  0  0  0  0  0  0  0  0  0  0
   35.9260   27.0070   39.4000 F   0  0  0  0  0  0  0  0  0  0  0  0
   37.7330   27.3070   38.0840 F   0  0  0  0  0  0  0  0  0  0  0  0
   37.8340   25.9530   39.8680 F   0  0  0  0  0  0  0  0  0  0  0  0
  1  9  2  0  0  0  0
  1  2  1  0  0  0  0
  2  3  2  0  0  0  0
  3  4  1  0  0  0  0
  3 11  1  0  0  0  0
  4  5  1  0  0  0  0
  5 12  1  0  0  0  0
  6  5  1  0  0  0  0
  6 13  1  0  0  0  0
  7  6  2  0  0  0  0
  8  7  1  0  0  0  0
  8  4  2  0  0  0  0
  9  8  1  0  0  0  0
 10  1  1  0  0  0  0
 14 19  2  0  0  0  0
 14 15  1  0  0  0  0
 15 16  2  0  0  0  0
 16 17  1  0  0  0  0
 16 22  1  0  0  0  0
 18  2  1  0  0  0  0
 18 17  2  0  0  0  0
 19 18  1  0  0  0  0
 20 14  1  0  0  0  0
 21 15  1  0  0  0  0
 23 24  1  0  0  0  0
 23 26  1  0  0  0  0
 23  9  1  0  0  0  0
 25 23  1  0  0  0  0
M  END
>  <minimizedAffinity>
-4.72694159

$$$$
