
 OpenBabel03252509183D

 36 38  0  0  1  0  0  0  0  0999 V2000
   50.4020   29.0040   44.4740 C   0  0  1  0  0  0  0  0  0  0  0  0
   49.3330   29.2620   45.4810 C   0  0  0  0  0  0  0  0  0  0  0  0
   48.6310   28.0390   45.9830 C   0  0  0  0  0  0  0  0  0  0  0  0
   49.5790   26.9000   46.2760 C   0  0  0  0  0  0  0  0  0  0  0  0
   50.5980   26.6960   45.1870 C   0  0  0  0  0  0  0  0  0  0  0  0
   50.2370   27.5560   43.9670 C   0  0  2  0  0  0  0  0  0  0  0  0
   51.3810   28.9920   44.9890 H   0  0  0  0  0  0  0  0  0  0  0  0
   48.5530   29.8980   44.9700 H   0  0  0  0  0  0  0  0  0  0  0  0
   49.7000   29.9120   46.3140 H   0  0  0  0  0  0  0  0  0  0  0  0
   47.8240   27.7100   45.3010 H   0  0  0  0  0  0  0  0  0  0  0  0
   48.1520   28.2970   46.9600 H   0  0  0  0  0  0  0  0  0  0  0  0
   50.1290   27.0950   47.2330 H   0  0  0  0  0  0  0  0  0  0  0  0
   48.9620   26.0000   46.4620 H   0  0  0  0  0  0  0  0  0  0  0  0
   50.5900   25.6250   44.8860 H   0  0  0  0  0  0  0  0  0  0  0  0
   51.6070   26.9710   45.5000 H   0  0  0  0  0  0  0  0  0  0  0  0
   49.2290   27.3510   43.6070 H   0  0  0  0  0  0  0  0  0  0  0  0
   49.7260   31.6030   41.3830 C   0  0  0  0  0  0  0  0  0  0  0  0
   51.0500   31.6650   41.8480 C   0  0  0  0  0  0  0  0  0  0  0  0
   51.3970   30.8440   42.8650 C   0  0  0  0  0  0  0  0  0  0  0  0
   50.4450   29.9690   43.4240 C   0  0  0  0  0  0  0  0  0  0  0  0
   48.9560   30.3300   42.4400 S   0  0  0  0  0  0  0  0  0  0  0  0
   51.7840   32.3330   41.4250 H   0  0  0  0  0  0  0  0  0  0  0  0
   52.3520   30.7420   43.3560 H   0  0  0  0  0  0  0  0  0  0  0  0
   48.7050   33.0020   38.0890 C   0  0  0  0  0  0  0  0  0  0  0  0
   48.1080   34.2140   38.5190 C   0  0  0  0  0  0  0  0  0  0  0  0
   48.0810   34.4970   39.9090 C   0  0  0  0  0  0  0  0  0  0  0  0
   48.6420   33.5670   40.7350 N   0  0  0  0  0  0  0  0  0  0  0  0
   49.2000   32.4260   40.2880 C   0  0  0  0  0  0  0  0  0  0  0  0
   49.2250   32.1580   38.9700 N   0  0  0  0  0  0  0  0  0  0  0  0
   48.7410   32.7570   37.0340 H   0  0  0  0  0  0  0  0  0  0  0  0
   47.6850   34.9050   37.8200 H   0  0  0  0  0  0  0  0  0  0  0  0
   47.6380   35.4080   40.2900 H   0  0  0  0  0  0  0  0  0  0  0  0
   51.3010   27.2560   42.9230 C   0  0  0  0  0  0  0  0  0  0  0  0
   51.5310   25.8980   42.8210 F   0  0  0  0  0  0  0  0  0  0  0  0
   50.9210   27.7950   41.7150 F   0  0  0  0  0  0  0  0  0  0  0  0
   52.4570   27.8670   43.3300 F   0  0  0  0  0  0  0  0  0  0  0  0
  1  7  1  1  0  0  0
  1  2  1  0  0  0  0
  2  3  1  0  0  0  0
  2  9  1  0  0  0  0
  3  4  1  0  0  0  0
  3 11  1  0  0  0  0
  4 13  1  0  0  0  0
  4 12  1  0  0  0  0
  5 15  1  0  0  0  0
  5  4  1  0  0  0  0
  6 16  1  6  0  0  0
  6  1  1  0  0  0  0
  6  5  1  0  0  0  0
  8  2  1  0  0  0  0
 10  3  1  0  0  0  0
 14  5  1  0  0  0  0
 17 18  2  0  0  0  0
 17 21  1  0  0  0  0
 18 19  1  0  0  0  0
 19 23  1  0  0  0  0
 19 20  2  0  0  0  0
 20  1  1  0  0  0  0
 21 20  1  0  0  0  0
 22 18  1  0  0  0  0
 24 25  2  0  0  0  0
 24 29  1  0  0  0  0
 25 26  1  0  0  0  0
 26 32  1  0  0  0  0
 26 27  2  0  0  0  0
 28 27  1  0  0  0  0
 28 17  1  0  0  0  0
 29 28  2  0  0  0  0
 30 24  1  0  0  0  0
 31 25  1  0  0  0  0
 33 36  1  0  0  0  0
 33  6  1  0  0  0  0
 34 33  1  0  0  0  0
 35 33  1  0  0  0  0
M  END
>  <minimizedAffinity>
-2.54768395

>  <minimizedRMSD>
7.04303551

$$$$
