
 OpenBabel03252509183D

 36 38  0  0  1  0  0  0  0  0999 V2000
   51.3280   28.3020   43.6470 C   0  0  1  0  0  0  0  0  0  0  0  0
   50.9640   28.0800   45.0760 C   0  0  0  0  0  0  0  0  0  0  0  0
   50.4230   26.7190   45.3850 C   0  0  0  0  0  0  0  0  0  0  0  0
   51.1950   25.6140   44.7030 C   0  0  0  0  0  0  0  0  0  0  0  0
   51.4850   25.9140   43.2570 C   0  0  0  0  0  0  0  0  0  0  0  0
   50.7030   27.1620   42.8160 C   0  0  2  0  0  0  0  0  0  0  0  0
   52.4170   28.1460   43.5300 H   0  0  0  0  0  0  0  0  0  0  0  0
   50.1440   28.8180   45.3200 H   0  0  0  0  0  0  0  0  0  0  0  0
   51.7960   28.3710   45.7640 H   0  0  0  0  0  0  0  0  0  0  0  0
   49.3420   26.6360   45.1600 H   0  0  0  0  0  0  0  0  0  0  0  0
   50.5450   26.5440   46.4830 H   0  0  0  0  0  0  0  0  0  0  0  0
   52.1730   25.4510   45.2260 H   0  0  0  0  0  0  0  0  0  0  0  0
   50.6200   24.6790   44.8410 H   0  0  0  0  0  0  0  0  0  0  0  0
   51.1570   25.0490   42.6390 H   0  0  0  0  0  0  0  0  0  0  0  0
   52.5440   26.1040   43.0710 H   0  0  0  0  0  0  0  0  0  0  0  0
   49.6330   27.0550   42.9890 H   0  0  0  0  0  0  0  0  0  0  0  0
   49.6240   31.8670   42.5760 C   0  0  0  0  0  0  0  0  0  0  0  0
   50.9860   31.8070   42.2380 C   0  0  0  0  0  0  0  0  0  0  0  0
   51.6580   30.6720   42.5360 C   0  0  0  0  0  0  0  0  0  0  0  0
   50.9920   29.6020   43.1650 C   0  0  0  0  0  0  0  0  0  0  0  0
   49.2980   30.2450   43.3450 S   0  0  0  0  0  0  0  0  0  0  0  0
   51.5020   32.6240   41.7570 H   0  0  0  0  0  0  0  0  0  0  0  0
   52.6940   30.4330   42.3590 H   0  0  0  0  0  0  0  0  0  0  0  0
   47.9110   34.8400   41.1340 C   0  0  0  0  0  0  0  0  0  0  0  0
   46.9920   35.1150   42.1770 C   0  0  0  0  0  0  0  0  0  0  0  0
   46.9990   34.2760   43.3210 C   0  0  0  0  0  0  0  0  0  0  0  0
   47.9040   33.2550   43.3270 N   0  0  0  0  0  0  0  0  0  0  0  0
   48.7620   33.0260   42.3160 C   0  0  0  0  0  0  0  0  0  0  0  0
   48.7550   33.8210   41.2310 N   0  0  0  0  0  0  0  0  0  0  0  0
   47.9310   35.4620   40.2460 H   0  0  0  0  0  0  0  0  0  0  0  0
   46.3050   35.9340   42.1120 H   0  0  0  0  0  0  0  0  0  0  0  0
   46.3180   34.4430   44.1460 H   0  0  0  0  0  0  0  0  0  0  0  0
   51.0380   27.3590   41.3460 C   0  0  0  0  0  0  0  0  0  0  0  0
   50.1740   28.2600   40.7540 F   0  0  0  0  0  0  0  0  0  0  0  0
   52.3480   27.7640   41.2250 F   0  0  0  0  0  0  0  0  0  0  0  0
   50.8960   26.1460   40.7280 F   0  0  0  0  0  0  0  0  0  0  0  0
  1  7  1  6  0  0  0
  1  2  1  0  0  0  0
  2  8  1  0  0  0  0
  2  3  1  0  0  0  0
  2  9  1  0  0  0  0
  3 11  1  0  0  0  0
  4 13  1  0  0  0  0
  4 12  1  0  0  0  0
  4  3  1  0  0  0  0
  5  4  1  0  0  0  0
  6 16  1  1  0  0  0
  6  5  1  0  0  0  0
  6  1  1  0  0  0  0
 10  3  1  0  0  0  0
 14  5  1  0  0  0  0
 15  5  1  0  0  0  0
 17 21  1  0  0  0  0
 18 19  1  0  0  0  0
 18 17  2  0  0  0  0
 19 20  2  0  0  0  0
 20 21  1  0  0  0  0
 20  1  1  0  0  0  0
 22 18  1  0  0  0  0
 23 19  1  0  0  0  0
 24 29  2  0  0  0  0
 24 25  1  0  0  0  0
 25 26  2  0  0  0  0
 26 27  1  0  0  0  0
 26 32  1  0  0  0  0
 28 17  1  0  0  0  0
 28 27  2  0  0  0  0
 29 28  1  0  0  0  0
 30 24  1  0  0  0  0
 31 25  1  0  0  0  0
 33  6  1  0  0  0  0
 34 33  1  0  0  0  0
 35 33  1  0  0  0  0
 36 33  1  0  0  0  0
M  END
>  <minimizedAffinity>
-2.52559686

>  <minimizedRMSD>
7.19917917

$$$$
