
 OpenBabel03252500473D

 21 22  0  0  0  0  0  0  0  0999 V2000
   38.1960   28.5510   42.8080 C   0  0  0  0  0  0  0  0  0  0  0  0
   37.4230   27.6670   42.0500 C   0  0  0  0  0  0  0  0  0  0  0  0
   36.8520   28.0900   40.8540 C   0  0  0  0  0  0  0  0  0  0  0  0
   37.0750   29.3800   40.4610 N   0  0  0  0  0  0  0  0  0  0  0  0
   37.8260   30.2170   41.2100 C   0  0  0  0  0  0  0  0  0  0  0  0
   38.3740   29.8050   42.3630 N   0  0  0  0  0  0  0  0  0  0  0  0
   38.6280   28.2010   43.7320 H   0  0  0  0  0  0  0  0  0  0  0  0
   36.2540   27.4260   40.2530 H   0  0  0  0  0  0  0  0  0  0  0  0
   38.0420   31.5870   40.7570 C   0  0  0  0  0  0  0  0  0  0  0  0
   37.1450   32.2580   39.9930 C   0  0  0  0  0  0  0  0  0  0  0  0
   37.3320   33.5530   39.5570 C   0  0  0  0  0  0  0  0  0  0  0  0
   38.4910   34.1610   39.9290 N   0  0  0  0  0  0  0  0  0  0  0  0
   39.3870   33.4920   40.6910 C   0  0  0  0  0  0  0  0  0  0  0  0
   39.2020   32.2190   41.1200 N   0  0  0  0  0  0  0  0  0  0  0  0
   36.2290   31.7570   39.7080 H   0  0  0  0  0  0  0  0  0  0  0  0
   36.6230   34.0900   38.9510 H   0  0  0  0  0  0  0  0  0  0  0  0
   40.3260   33.9000   41.0280 H   0  0  0  0  0  0  0  0  0  0  0  0
   37.2020   26.2560   42.5170 C   0  0  0  0  0  0  0  0  0  0  0  0
   36.2170   26.2080   43.5000 F   0  0  0  0  0  0  0  0  0  0  0  0
   36.7250   25.4690   41.4590 F   0  0  0  0  0  0  0  0  0  0  0  0
   38.3940   25.7400   42.9650 F   0  0  0  0  0  0  0  0  0  0  0  0
  1  7  1  0  0  0  0
  2 18  1  0  0  0  0
  2  1  2  0  0  0  0
  3  2  1  0  0  0  0
  4  3  2  0  0  0  0
  4  5  1  0  0  0  0
  5  6  2  0  0  0  0
  6  1  1  0  0  0  0
  8  3  1  0  0  0  0
  9 14  1  0  0  0  0
  9  5  1  0  0  0  0
 10  9  2  0  0  0  0
 11 12  2  0  0  0  0
 11 10  1  0  0  0  0
 12 13  1  0  0  0  0
 13 17  1  0  0  0  0
 13 14  2  0  0  0  0
 15 10  1  0  0  0  0
 16 11  1  0  0  0  0
 18 21  1  0  0  0  0
 18 19  1  0  0  0  0
 20 18  1  0  0  0  0
M  END
>  <minimizedAffinity>
-4.61764383

$$$$

 OpenBabel03252500473D

 21 22  0  0  0  0  0  0  0  0999 V2000
   37.8210   27.7500   40.4880 C   0  0  0  0  0  0  0  0  0  0  0  0
   37.4450   27.4110   41.7900 C   0  0  0  0  0  0  0  0  0  0  0  0
   37.2240   28.4100   42.7330 C   0  0  0  0  0  0  0  0  0  0  0  0
   37.3870   29.7080   42.3390 N   0  0  0  0  0  0  0  0  0  0  0  0
   37.7510   30.0120   41.0720 C   0  0  0  0  0  0  0  0  0  0  0  0
   37.9630   29.0460   40.1670 N   0  0  0  0  0  0  0  0  0  0  0  0
   37.9880   26.9580   39.7740 H   0  0  0  0  0  0  0  0  0  0  0  0
   36.9330   28.1730   43.7430 H   0  0  0  0  0  0  0  0  0  0  0  0
   37.9150   31.4100   40.6890 C   0  0  0  0  0  0  0  0  0  0  0  0
   37.0760   32.0390   39.8300 C   0  0  0  0  0  0  0  0  0  0  0  0
   37.2160   33.3600   39.4570 C   0  0  0  0  0  0  0  0  0  0  0  0
   38.2620   34.0390   39.9990 N   0  0  0  0  0  0  0  0  0  0  0  0
   39.1000   33.4120   40.8560 C   0  0  0  0  0  0  0  0  0  0  0  0
   38.9620   32.1140   41.2220 N   0  0  0  0  0  0  0  0  0  0  0  0
   36.2490   31.4820   39.4100 H   0  0  0  0  0  0  0  0  0  0  0  0
   36.5520   33.8640   38.7760 H   0  0  0  0  0  0  0  0  0  0  0  0
   39.9510   33.8760   41.3280 H   0  0  0  0  0  0  0  0  0  0  0  0
   37.2760   25.9710   42.1850 C   0  0  0  0  0  0  0  0  0  0  0  0
   38.4450   25.4730   42.7540 F   0  0  0  0  0  0  0  0  0  0  0  0
   36.2900   25.8560   43.1740 F   0  0  0  0  0  0  0  0  0  0  0  0
   36.8990   25.2450   41.0810 F   0  0  0  0  0  0  0  0  0  0  0  0
  1  2  1  0  0  0  0
  2 18  1  0  0  0  0
  2  3  2  0  0  0  0
  3  8  1  0  0  0  0
  4  3  1  0  0  0  0
  5  4  2  0  0  0  0
  6  1  2  0  0  0  0
  6  5  1  0  0  0  0
  7  1  1  0  0  0  0
  9  5  1  0  0  0  0
  9 14  1  0  0  0  0
 10  9  2  0  0  0  0
 11 10  1  0  0  0  0
 11 12  2  0  0  0  0
 12 13  1  0  0  0  0
 13 14  2  0  0  0  0
 13 17  1  0  0  0  0
 15 10  1  0  0  0  0
 16 11  1  0  0  0  0
 18 19  1  0  0  0  0
 18 20  1  0  0  0  0
 21 18  1  0  0  0  0
M  END
>  <minimizedAffinity>
-4.57478333

$$$$

 OpenBabel03252500473D

 21 22  0  0  0  0  0  0  0  0999 V2000
   37.2890   28.4190   40.9540 C   0  0  0  0  0  0  0  0  0  0  0  0
   37.6400   27.9590   42.2260 C   0  0  0  0  0  0  0  0  0  0  0  0
   38.4160   28.7520   43.0640 C   0  0  0  0  0  0  0  0  0  0  0  0
   38.8130   29.9750   42.6000 N   0  0  0  0  0  0  0  0  0  0  0  0
   38.4620   30.3990   41.3650 C   0  0  0  0  0  0  0  0  0  0  0  0
   37.7140   29.6310   40.5600 N   0  0  0  0  0  0  0  0  0  0  0  0
   36.6870   27.7860   40.3210 H   0  0  0  0  0  0  0  0  0  0  0  0
   38.6980   28.4190   44.0490 H   0  0  0  0  0  0  0  0  0  0  0  0
   38.9050   31.7110   40.9050 C   0  0  0  0  0  0  0  0  0  0  0  0
   38.0450   32.6780   40.5020 C   0  0  0  0  0  0  0  0  0  0  0  0
   38.4470   33.9230   40.0650 C   0  0  0  0  0  0  0  0  0  0  0  0
   39.7860   34.1610   40.0480 N   0  0  0  0  0  0  0  0  0  0  0  0
   40.6450   33.1970   40.4490 C   0  0  0  0  0  0  0  0  0  0  0  0
   40.2500   31.9730   40.8790 N   0  0  0  0  0  0  0  0  0  0  0  0
   36.9830   32.4690   40.5240 H   0  0  0  0  0  0  0  0  0  0  0  0
   37.7670   34.6940   39.7450 H   0  0  0  0  0  0  0  0  0  0  0  0
   41.7180   33.3030   40.4670 H   0  0  0  0  0  0  0  0  0  0  0  0
   37.1830   26.6090   42.7000 C   0  0  0  0  0  0  0  0  0  0  0  0
   36.1620   26.7320   43.6390 F   0  0  0  0  0  0  0  0  0  0  0  0
   36.6340   25.8840   41.6320 F   0  0  0  0  0  0  0  0  0  0  0  0
   38.2600   25.9230   43.2070 F   0  0  0  0  0  0  0  0  0  0  0  0
  1  2  1  0  0  0  0
  2 18  1  0  0  0  0
  2  3  2  0  0  0  0
  3  8  1  0  0  0  0
  4  3  1  0  0  0  0
  5  4  2  0  0  0  0
  6  1  2  0  0  0  0
  6  5  1  0  0  0  0
  7  1  1  0  0  0  0
  9  5  1  0  0  0  0
 10 15  1  0  0  0  0
 10  9  2  0  0  0  0
 11 10  1  0  0  0  0
 12 11  2  0  0  0  0
 12 13  1  0  0  0  0
 13 17  1  0  0  0  0
 13 14  2  0  0  0  0
 14  9  1  0  0  0  0
 16 11  1  0  0  0  0
 18 21  1  0  0  0  0
 18 19  1  0  0  0  0
 20 18  1  0  0  0  0
M  END
>  <minimizedAffinity>
-4.55300665

$$$$

 OpenBabel03252500473D

 21 22  0  0  0  0  0  0  0  0999 V2000
   37.1650   27.1560   42.6420 C   0  0  0  0  0  0  0  0  0  0  0  0
   37.7610   26.2250   41.7880 C   0  0  0  0  0  0  0  0  0  0  0  0
   38.5040   26.6570   40.6940 C   0  0  0  0  0  0  0  0  0  0  0  0
   38.6210   28.0040   40.4940 N   0  0  0  0  0  0  0  0  0  0  0  0
   38.0350   28.8870   41.3340 C   0  0  0  0  0  0  0  0  0  0  0  0
   37.3210   28.4660   42.3870 N   0  0  0  0  0  0  0  0  0  0  0  0
   36.5940   26.7970   43.4840 H   0  0  0  0  0  0  0  0  0  0  0  0
   38.9730   25.9580   40.0230 H   0  0  0  0  0  0  0  0  0  0  0  0
   38.1830   30.3180   41.0870 C   0  0  0  0  0  0  0  0  0  0  0  0
   39.3260   30.9960   41.3580 C   0  0  0  0  0  0  0  0  0  0  0  0
   39.4830   32.3470   41.1310 C   0  0  0  0  0  0  0  0  0  0  0  0
   38.4150   33.0060   40.6070 N   0  0  0  0  0  0  0  0  0  0  0  0
   37.2740   32.3310   40.3370 C   0  0  0  0  0  0  0  0  0  0  0  0
   37.1200   31.0020   40.5600 N   0  0  0  0  0  0  0  0  0  0  0  0
   40.1640   30.4530   41.7740 H   0  0  0  0  0  0  0  0  0  0  0  0
   40.3880   32.8890   41.3430 H   0  0  0  0  0  0  0  0  0  0  0  0
   36.3850   32.7760   39.9220 H   0  0  0  0  0  0  0  0  0  0  0  0
   37.6090   24.7520   42.0420 C   0  0  0  0  0  0  0  0  0  0  0  0
   36.3390   24.4620   42.5350 F   0  0  0  0  0  0  0  0  0  0  0  0
   37.7230   24.0420   40.8390 F   0  0  0  0  0  0  0  0  0  0  0  0
   38.5950   24.3410   42.9060 F   0  0  0  0  0  0  0  0  0  0  0  0
  1  7  1  0  0  0  0
  2 18  1  0  0  0  0
  2  1  2  0  0  0  0
  3  2  1  0  0  0  0
  4  3  2  0  0  0  0
  4  5  1  0  0  0  0
  5  6  2  0  0  0  0
  6  1  1  0  0  0  0
  8  3  1  0  0  0  0
  9  5  1  0  0  0  0
  9 10  1  0  0  0  0
 10 15  1  0  0  0  0
 11 16  1  0  0  0  0
 11 10  2  0  0  0  0
 12 11  1  0  0  0  0
 13 14  1  0  0  0  0
 13 12  2  0  0  0  0
 14  9  2  0  0  0  0
 17 13  1  0  0  0  0
 18 19  1  0  0  0  0
 18 21  1  0  0  0  0
 20 18  1  0  0  0  0
M  END
>  <minimizedAffinity>
-4.2347703

$$$$

 OpenBabel03252500473D

 21 22  0  0  0  0  0  0  0  0999 V2000
   36.7620   27.1010   40.5290 C   0  0  0  0  0  0  0  0  0  0  0  0
   36.5370   28.0690   41.5120 C   0  0  0  0  0  0  0  0  0  0  0  0
   35.9060   29.2640   41.1810 C   0  0  0  0  0  0  0  0  0  0  0  0
   35.5250   29.4470   39.8820 N   0  0  0  0  0  0  0  0  0  0  0  0
   35.7530   28.4960   38.9480 C   0  0  0  0  0  0  0  0  0  0  0  0
   36.3620   27.3460   39.2710 N   0  0  0  0  0  0  0  0  0  0  0  0
   37.2540   26.1820   40.8090 H   0  0  0  0  0  0  0  0  0  0  0  0
   35.7220   30.0240   41.9220 H   0  0  0  0  0  0  0  0  0  0  0  0
   35.3310   28.7280   37.5700 C   0  0  0  0  0  0  0  0  0  0  0  0
   34.0280   28.8370   37.2100 C   0  0  0  0  0  0  0  0  0  0  0  0
   33.6120   29.0570   35.9130 C   0  0  0  0  0  0  0  0  0  0  0  0
   34.5860   29.1630   34.9700 N   0  0  0  0  0  0  0  0  0  0  0  0
   35.8860   29.0540   35.3280 C   0  0  0  0  0  0  0  0  0  0  0  0
   36.2950   28.8380   36.6030 N   0  0  0  0  0  0  0  0  0  0  0  0
   33.2690   28.7500   37.9760 H   0  0  0  0  0  0  0  0  0  0  0  0
   32.5800   29.1450   35.6230 H   0  0  0  0  0  0  0  0  0  0  0  0
   36.7160   29.1260   34.6450 H   0  0  0  0  0  0  0  0  0  0  0  0
   36.9720   27.8300   42.9300 C   0  0  0  0  0  0  0  0  0  0  0  0
   35.9380   27.2750   43.6790 F   0  0  0  0  0  0  0  0  0  0  0  0
   38.0130   26.8920   42.9630 F   0  0  0  0  0  0  0  0  0  0  0  0
   37.4110   29.0150   43.4700 F   0  0  0  0  0  0  0  0  0  0  0  0
  1  7  1  0  0  0  0
  1  2  1  0  0  0  0
  2 18  1  0  0  0  0
  3  2  2  0  0  0  0
  3  8  1  0  0  0  0
  4  3  1  0  0  0  0
  5  6  1  0  0  0  0
  5  4  2  0  0  0  0
  6  1  2  0  0  0  0
  9  5  1  0  0  0  0
 10  9  1  0  0  0  0
 10 15  1  0  0  0  0
 11 10  2  0  0  0  0
 12 13  2  0  0  0  0
 12 11  1  0  0  0  0
 13 14  1  0  0  0  0
 14  9  2  0  0  0  0
 16 11  1  0  0  0  0
 17 13  1  0  0  0  0
 18 20  1  0  0  0  0
 18 21  1  0  0  0  0
 18 19  1  0  0  0  0
M  END
>  <minimizedAffinity>
-4.14754248

$$$$

 OpenBabel03252500473D

 21 22  0  0  0  0  0  0  0  0999 V2000
   36.7660   31.1290   40.9840 C   0  0  0  0  0  0  0  0  0  0  0  0
   37.8530   31.5770   40.2290 C   0  0  0  0  0  0  0  0  0  0  0  0
   38.7390   30.6610   39.6710 C   0  0  0  0  0  0  0  0  0  0  0  0
   38.5040   29.3320   39.8880 N   0  0  0  0  0  0  0  0  0  0  0  0
   37.4450   28.9220   40.6220 C   0  0  0  0  0  0  0  0  0  0  0  0
   36.5940   29.8090   41.1580 N   0  0  0  0  0  0  0  0  0  0  0  0
   36.0930   31.8590   41.4080 H   0  0  0  0  0  0  0  0  0  0  0  0
   39.5830   30.9830   39.0850 H   0  0  0  0  0  0  0  0  0  0  0  0
   37.2270   27.4950   40.8320 C   0  0  0  0  0  0  0  0  0  0  0  0
   37.1870   26.9300   42.0640 C   0  0  0  0  0  0  0  0  0  0  0  0
   36.9820   25.5830   42.2790 C   0  0  0  0  0  0  0  0  0  0  0  0
   36.8150   24.8070   41.1750 N   0  0  0  0  0  0  0  0  0  0  0  0
   36.8550   25.3690   39.9450 C   0  0  0  0  0  0  0  0  0  0  0  0
   37.0570   26.6930   39.7330 N   0  0  0  0  0  0  0  0  0  0  0  0
   37.3220   27.5650   42.9290 H   0  0  0  0  0  0  0  0  0  0  0  0
   36.9490   25.1310   43.2550 H   0  0  0  0  0  0  0  0  0  0  0  0
   36.7320   24.8270   39.0220 H   0  0  0  0  0  0  0  0  0  0  0  0
   38.0770   33.0470   40.0130 C   0  0  0  0  0  0  0  0  0  0  0  0
   38.4870   33.6650   41.1920 F   0  0  0  0  0  0  0  0  0  0  0  0
   39.1190   33.2460   39.0960 F   0  0  0  0  0  0  0  0  0  0  0  0
   36.9240   33.6080   39.5190 F   0  0  0  0  0  0  0  0  0  0  0  0
  1  6  1  0  0  0  0
  1  7  1  0  0  0  0
  2  1  2  0  0  0  0
  3  4  2  0  0  0  0
  3  2  1  0  0  0  0
  4  5  1  0  0  0  0
  5  9  1  0  0  0  0
  5  6  2  0  0  0  0
  8  3  1  0  0  0  0
  9 10  1  0  0  0  0
 10 11  2  0  0  0  0
 10 15  1  0  0  0  0
 11 16  1  0  0  0  0
 12 11  1  0  0  0  0
 13 12  2  0  0  0  0
 14 13  1  0  0  0  0
 14  9  2  0  0  0  0
 17 13  1  0  0  0  0
 18  2  1  0  0  0  0
 18 19  1  0  0  0  0
 20 18  1  0  0  0  0
 21 18  1  0  0  0  0
M  END
>  <minimizedAffinity>
-4.08012915

$$$$

 OpenBabel03252500473D

 21 22  0  0  0  0  0  0  0  0999 V2000
   37.4580   29.9190   39.9730 C   0  0  0  0  0  0  0  0  0  0  0  0
   37.3140   29.2810   41.2080 C   0  0  0  0  0  0  0  0  0  0  0  0
   38.1520   29.6150   42.2670 C   0  0  0  0  0  0  0  0  0  0  0  0
   39.1030   30.5720   42.0520 N   0  0  0  0  0  0  0  0  0  0  0  0
   39.2240   31.1760   40.8480 C   0  0  0  0  0  0  0  0  0  0  0  0
   38.4140   30.8510   39.8300 N   0  0  0  0  0  0  0  0  0  0  0  0
   36.7970   29.6430   39.1670 H   0  0  0  0  0  0  0  0  0  0  0  0
   38.0590   29.1370   43.2280 H   0  0  0  0  0  0  0  0  0  0  0  0
   40.2520   32.1940   40.6570 C   0  0  0  0  0  0  0  0  0  0  0  0
   40.1380   33.1910   39.7440 C   0  0  0  0  0  0  0  0  0  0  0  0
   41.0990   34.1610   39.5510 C   0  0  0  0  0  0  0  0  0  0  0  0
   42.2090   34.0850   40.3340 N   0  0  0  0  0  0  0  0  0  0  0  0
   42.3230   33.0910   41.2440 C   0  0  0  0  0  0  0  0  0  0  0  0
   41.3780   32.1370   41.4340 N   0  0  0  0  0  0  0  0  0  0  0  0
   39.2470   33.2330   39.1310 H   0  0  0  0  0  0  0  0  0  0  0  0
   41.0130   34.9540   38.8280 H   0  0  0  0  0  0  0  0  0  0  0  0
   43.1670   32.9600   41.9020 H   0  0  0  0  0  0  0  0  0  0  0  0
   36.2550   28.2330   41.4050 C   0  0  0  0  0  0  0  0  0  0  0  0
   36.1510   27.8800   42.7480 F   0  0  0  0  0  0  0  0  0  0  0  0
   35.0000   28.7430   41.0460 F   0  0  0  0  0  0  0  0  0  0  0  0
   36.5470   27.1470   40.6150 F   0  0  0  0  0  0  0  0  0  0  0  0
  1  2  1  0  0  0  0
  2 18  1  0  0  0  0
  2  3  2  0  0  0  0
  3  8  1  0  0  0  0
  4  3  1  0  0  0  0
  5  4  2  0  0  0  0
  6  1  2  0  0  0  0
  6  5  1  0  0  0  0
  7  1  1  0  0  0  0
  9  5  1  0  0  0  0
  9 14  1  0  0  0  0
 10  9  2  0  0  0  0
 11 10  1  0  0  0  0
 11 12  2  0  0  0  0
 12 13  1  0  0  0  0
 13 14  2  0  0  0  0
 13 17  1  0  0  0  0
 15 10  1  0  0  0  0
 16 11  1  0  0  0  0
 18 19  1  0  0  0  0
 20 18  1  0  0  0  0
 21 18  1  0  0  0  0
M  END
>  <minimizedAffinity>
-4.0540266

$$$$

 OpenBabel03252500473D

 21 22  0  0  0  0  0  0  0  0999 V2000
   35.4000   27.5690   38.1880 C   0  0  0  0  0  0  0  0  0  0  0  0
   34.3530   28.4910   38.2720 C   0  0  0  0  0  0  0  0  0  0  0  0
   34.1800   29.2450   39.4280 C   0  0  0  0  0  0  0  0  0  0  0  0
   35.0600   29.0490   40.4560 N   0  0  0  0  0  0  0  0  0  0  0  0
   36.0650   28.1510   40.3520 C   0  0  0  0  0  0  0  0  0  0  0  0
   36.2280   27.4270   39.2350 N   0  0  0  0  0  0  0  0  0  0  0  0
   35.5140   26.9950   37.2810 H   0  0  0  0  0  0  0  0  0  0  0  0
   33.3810   29.9610   39.5160 H   0  0  0  0  0  0  0  0  0  0  0  0
   36.9850   27.9710   41.4700 C   0  0  0  0  0  0  0  0  0  0  0  0
   37.2950   28.9680   42.3350 C   0  0  0  0  0  0  0  0  0  0  0  0
   38.1610   28.8140   43.3980 C   0  0  0  0  0  0  0  0  0  0  0  0
   38.7170   27.5830   43.5580 N   0  0  0  0  0  0  0  0  0  0  0  0
   38.4090   26.5880   42.6950 C   0  0  0  0  0  0  0  0  0  0  0  0
   37.5570   26.7390   41.6510 N   0  0  0  0  0  0  0  0  0  0  0  0
   36.8410   29.9390   42.1900 H   0  0  0  0  0  0  0  0  0  0  0  0
   38.4090   29.6020   44.0870 H   0  0  0  0  0  0  0  0  0  0  0  0
   38.8040   25.5870   42.7520 H   0  0  0  0  0  0  0  0  0  0  0  0
   33.4070   28.6770   37.1200 C   0  0  0  0  0  0  0  0  0  0  0  0
   32.3280   29.4770   37.4880 F   0  0  0  0  0  0  0  0  0  0  0  0
   34.0490   29.3580   36.0760 F   0  0  0  0  0  0  0  0  0  0  0  0
   32.9970   27.4450   36.6730 F   0  0  0  0  0  0  0  0  0  0  0  0
  1  2  2  0  0  0  0
  1  6  1  0  0  0  0
  2  3  1  0  0  0  0
  3  8  1  0  0  0  0
  3  4  2  0  0  0  0
  5  4  1  0  0  0  0
  5  9  1  0  0  0  0
  6  5  2  0  0  0  0
  7  1  1  0  0  0  0
  9 14  2  0  0  0  0
  9 10  1  0  0  0  0
 10 11  2  0  0  0  0
 11 12  1  0  0  0  0
 11 16  1  0  0  0  0
 13 17  1  0  0  0  0
 13 12  2  0  0  0  0
 14 13  1  0  0  0  0
 15 10  1  0  0  0  0
 18 19  1  0  0  0  0
 18  2  1  0  0  0  0
 20 18  1  0  0  0  0
 21 18  1  0  0  0  0
M  END
>  <minimizedAffinity>
-3.99873042

$$$$

 OpenBabel03252500473D

 21 22  0  0  0  0  0  0  0  0999 V2000
   36.5300   27.8900   38.8300 C   0  0  0  0  0  0  0  0  0  0  0  0
   35.3730   28.5320   39.2770 C   0  0  0  0  0  0  0  0  0  0  0  0
   35.2880   28.9800   40.5910 C   0  0  0  0  0  0  0  0  0  0  0  0
   36.3630   28.7690   41.4080 N   0  0  0  0  0  0  0  0  0  0  0  0
   37.4730   28.1450   40.9530 C   0  0  0  0  0  0  0  0  0  0  0  0
   37.5500   27.7150   39.6860 N   0  0  0  0  0  0  0  0  0  0  0  0
   36.5730   27.5500   37.8060 H   0  0  0  0  0  0  0  0  0  0  0  0
   34.4060   29.4780   40.9580 H   0  0  0  0  0  0  0  0  0  0  0  0
   38.6000   27.9380   41.8560 C   0  0  0  0  0  0  0  0  0  0  0  0
   38.6100   26.9760   42.8120 C   0  0  0  0  0  0  0  0  0  0  0  0
   39.6670   26.7670   43.6720 C   0  0  0  0  0  0  0  0  0  0  0  0
   40.7420   27.5880   43.5290 N   0  0  0  0  0  0  0  0  0  0  0  0
   40.7330   28.5480   42.5770 C   0  0  0  0  0  0  0  0  0  0  0  0
   39.6940   28.7540   41.7310 N   0  0  0  0  0  0  0  0  0  0  0  0
   37.7450   26.3330   42.9090 H   0  0  0  0  0  0  0  0  0  0  0  0
   39.6800   26.0040   44.4320 H   0  0  0  0  0  0  0  0  0  0  0  0
   41.5420   29.2380   42.3980 H   0  0  0  0  0  0  0  0  0  0  0  0
   34.2120   28.7450   38.3470 C   0  0  0  0  0  0  0  0  0  0  0  0
   34.5600   29.6030   37.3080 F   0  0  0  0  0  0  0  0  0  0  0  0
   33.8540   27.5340   37.7380 F   0  0  0  0  0  0  0  0  0  0  0  0
   33.1440   29.2250   39.0660 F   0  0  0  0  0  0  0  0  0  0  0  0
  1  2  2  0  0  0  0
  1  6  1  0  0  0  0
  2  3  1  0  0  0  0
  3  8  1  0  0  0  0
  3  4  2  0  0  0  0
  5  4  1  0  0  0  0
  5  9  1  0  0  0  0
  6  5  2  0  0  0  0
  7  1  1  0  0  0  0
  9 10  1  0  0  0  0
 10 15  1  0  0  0  0
 10 11  2  0  0  0  0
 11 16  1  0  0  0  0
 12 11  1  0  0  0  0
 13 12  2  0  0  0  0
 14  9  2  0  0  0  0
 14 13  1  0  0  0  0
 17 13  1  0  0  0  0
 18 21  1  0  0  0  0
 18  2  1  0  0  0  0
 19 18  1  0  0  0  0
 20 18  1  0  0  0  0
M  END
>  <minimizedAffinity>
-3.99363708

$$$$
