
 OpenBabel03242522013D

 27 28  0  0  1  0  0  0  0  0999 V2000
   37.7950   31.1280   40.8700 N   0  0  0  0  0  0  0  0  0  0  0  0
   38.9850   31.9510   41.0340 C   0  0  0  0  0  0  0  0  0  0  0  0
   38.7600   33.3540   40.5510 C   0  0  0  0  0  0  0  0  0  0  0  0
   38.2130   33.4470   39.2480 N   0  0  0  0  0  0  0  0  0  0  0  0
   37.2680   32.4640   38.8760 C   0  0  2  0  0  0  0  0  0  0  0  0
   36.8050   31.5160   39.9140 C   0  0  0  0  0  0  0  0  0  0  0  0
   39.1320   32.0350   42.1520 H   0  0  0  0  0  0  0  0  0  0  0  0
   39.8980   31.4690   40.6560 H   0  0  0  0  0  0  0  0  0  0  0  0
   38.0480   33.8320   41.2690 H   0  0  0  0  0  0  0  0  0  0  0  0
   39.7240   33.8780   40.5890 H   0  0  0  0  0  0  0  0  0  0  0  0
   38.9990   33.5510   38.5560 H   0  0  0  0  0  0  0  0  0  0  0  0
   36.3640   32.9840   38.4560 H   0  0  0  0  0  0  0  0  0  0  0  0
   36.3560   30.6310   39.4170 H   0  0  0  0  0  0  0  0  0  0  0  0
   35.9640   31.9720   40.5140 H   0  0  0  0  0  0  0  0  0  0  0  0
   38.1170   28.4330   43.4510 C   0  0  0  0  0  0  0  0  0  0  0  0
   38.3950   29.6260   42.7640 C   0  0  0  0  0  0  0  0  0  0  0  0
   37.6160   29.9540   41.6490 C   0  0  0  0  0  0  0  0  0  0  0  0
   36.6320   29.0790   41.3090 N   0  0  0  0  0  0  0  0  0  0  0  0
   36.3900   27.9390   41.9920 C   0  0  0  0  0  0  0  0  0  0  0  0
   37.1380   27.6170   43.0670 N   0  0  0  0  0  0  0  0  0  0  0  0
   38.7610   28.2470   44.3020 H   0  0  0  0  0  0  0  0  0  0  0  0
   39.1690   30.3080   43.0350 H   0  0  0  0  0  0  0  0  0  0  0  0
   35.5710   27.3590   41.5870 H   0  0  0  0  0  0  0  0  0  0  0  0
   37.8430   31.6450   37.7320 C   0  0  0  0  0  0  0  0  0  0  0  0
   37.4920   32.2220   36.5140 F   0  0  0  0  0  0  0  0  0  0  0  0
   37.1950   30.4250   37.7720 F   0  0  0  0  0  0  0  0  0  0  0  0
   39.2040   31.5330   37.7820 F   0  0  0  0  0  0  0  0  0  0  0  0
  1  2  1  0  0  0  0
  1 17  1  0  0  0  0
  2  7  1  0  0  0  0
  3 10  1  0  0  0  0
  3  2  1  0  0  0  0
  3  9  1  0  0  0  0
  4  3  1  0  0  0  0
  5 12  1  6  0  0  0
  5  4  1  0  0  0  0
  5  6  1  0  0  0  0
  6 14  1  0  0  0  0
  6  1  1  0  0  0  0
  8  2  1  0  0  0  0
 11  4  1  0  0  0  0
 13  6  1  0  0  0  0
 15 21  1  0  0  0  0
 16 22  1  0  0  0  0
 16 15  2  0  0  0  0
 17 16  1  0  0  0  0
 18 17  2  0  0  0  0
 18 19  1  0  0  0  0
 19 20  2  0  0  0  0
 20 15  1  0  0  0  0
 23 19  1  0  0  0  0
 24 26  1  0  0  0  0
 24 27  1  0  0  0  0
 24  5  1  0  0  0  0
 25 24  1  0  0  0  0
M  END
>  <minimizedAffinity>
-4.68672228

$$$$

 OpenBabel03242522013D

 27 28  0  0  1  0  0  0  0  0999 V2000
   38.7220   30.0490   41.4140 N   0  0  0  0  0  0  0  0  0  0  0  0
   39.6360   29.8910   42.5360 C   0  0  0  0  0  0  0  0  0  0  0  0
   40.2040   28.5030   42.5960 C   0  0  0  0  0  0  0  0  0  0  0  0
   39.2380   27.4690   42.5340 N   0  0  0  0  0  0  0  0  0  0  0  0
   38.1180   27.6860   41.7010 C   0  0  2  0  0  0  0  0  0  0  0  0
   38.1120   28.8900   40.8410 C   0  0  0  0  0  0  0  0  0  0  0  0
   40.5120   30.5670   42.3000 H   0  0  0  0  0  0  0  0  0  0  0  0
   39.2260   30.2680   43.4830 H   0  0  0  0  0  0  0  0  0  0  0  0
   40.8920   28.3980   41.7200 H   0  0  0  0  0  0  0  0  0  0  0  0
   40.7810   28.4190   43.5260 H   0  0  0  0  0  0  0  0  0  0  0  0
   38.9800   27.1870   43.5140 H   0  0  0  0  0  0  0  0  0  0  0  0
   37.9920   26.7870   41.0360 H   0  0  0  0  0  0  0  0  0  0  0  0
   37.0700   29.0990   40.5220 H   0  0  0  0  0  0  0  0  0  0  0  0
   38.6760   28.6910   39.8840 H   0  0  0  0  0  0  0  0  0  0  0  0
   37.1580   32.9560   39.6410 C   0  0  0  0  0  0  0  0  0  0  0  0
   37.3270   31.6370   40.0950 C   0  0  0  0  0  0  0  0  0  0  0  0
   38.4380   31.3390   40.8920 C   0  0  0  0  0  0  0  0  0  0  0  0
   39.2840   32.3670   41.1720 N   0  0  0  0  0  0  0  0  0  0  0  0
   39.0930   33.6260   40.7200 C   0  0  0  0  0  0  0  0  0  0  0  0
   38.0240   33.9180   39.9500 N   0  0  0  0  0  0  0  0  0  0  0  0
   36.2770   33.1090   39.0310 H   0  0  0  0  0  0  0  0  0  0  0  0
   36.6590   30.8350   39.8720 H   0  0  0  0  0  0  0  0  0  0  0  0
   39.8610   34.3190   41.0360 H   0  0  0  0  0  0  0  0  0  0  0  0
   36.8700   27.7360   42.5670 C   0  0  0  0  0  0  0  0  0  0  0  0
   36.5230   26.4490   42.9720 F   0  0  0  0  0  0  0  0  0  0  0  0
   35.8470   28.1580   41.7400 F   0  0  0  0  0  0  0  0  0  0  0  0
   37.0190   28.5150   43.6790 F   0  0  0  0  0  0  0  0  0  0  0  0
  1  2  1  0  0  0  0
  2  3  1  0  0  0  0
  2  8  1  0  0  0  0
  3 10  1  0  0  0  0
  4  3  1  0  0  0  0
  4 11  1  0  0  0  0
  5 12  1  6  0  0  0
  5  4  1  0  0  0  0
  5 24  1  0  0  0  0
  6  1  1  0  0  0  0
  6  5  1  0  0  0  0
  7  2  1  0  0  0  0
  9  3  1  0  0  0  0
 13  6  1  0  0  0  0
 14  6  1  0  0  0  0
 15 20  2  0  0  0  0
 15 16  1  0  0  0  0
 16 17  2  0  0  0  0
 17 18  1  0  0  0  0
 17  1  1  0  0  0  0
 19 23  1  0  0  0  0
 19 18  2  0  0  0  0
 20 19  1  0  0  0  0
 21 15  1  0  0  0  0
 22 16  1  0  0  0  0
 24 25  1  0  0  0  0
 24 27  1  0  0  0  0
 26 24  1  0  0  0  0
M  END
>  <minimizedAffinity>
-4.6386466

$$$$

 OpenBabel03242522013D

 27 28  0  0  1  0  0  0  0  0999 V2000
   39.2220   30.7790   40.6800 N   0  0  0  0  0  0  0  0  0  0  0  0
   39.7980   30.4420   39.3860 C   0  0  0  0  0  0  0  0  0  0  0  0
   40.4120   31.6400   38.7240 C   0  0  0  0  0  0  0  0  0  0  0  0
   39.5680   32.7750   38.6610 N   0  0  0  0  0  0  0  0  0  0  0  0
   38.7110   32.9990   39.7620 C   0  0  2  0  0  0  0  0  0  0  0  0
   38.8680   32.1370   40.9540 C   0  0  0  0  0  0  0  0  0  0  0  0
   40.6600   29.7490   39.6200 H   0  0  0  0  0  0  0  0  0  0  0  0
   39.1190   29.8550   38.7510 H   0  0  0  0  0  0  0  0  0  0  0  0
   41.3210   31.9070   39.3190 H   0  0  0  0  0  0  0  0  0  0  0  0
   40.7140   31.3430   37.7110 H   0  0  0  0  0  0  0  0  0  0  0  0
   39.0660   32.7750   37.7360 H   0  0  0  0  0  0  0  0  0  0  0  0
   38.8310   34.0680   40.0920 H   0  0  0  0  0  0  0  0  0  0  0  0
   37.9430   32.1960   41.5650 H   0  0  0  0  0  0  0  0  0  0  0  0
   39.6860   32.5360   41.6220 H   0  0  0  0  0  0  0  0  0  0  0  0
   37.7460   28.5810   43.3310 C   0  0  0  0  0  0  0  0  0  0  0  0
   37.8270   29.6180   42.3870 C   0  0  0  0  0  0  0  0  0  0  0  0
   39.0130   29.7730   41.6600 C   0  0  0  0  0  0  0  0  0  0  0  0
   40.0140   28.8920   41.9280 N   0  0  0  0  0  0  0  0  0  0  0  0
   39.9040   27.9040   42.8420 C   0  0  0  0  0  0  0  0  0  0  0  0
   38.7640   27.7510   43.5460 N   0  0  0  0  0  0  0  0  0  0  0  0
   36.7980   28.5250   43.8530 H   0  0  0  0  0  0  0  0  0  0  0  0
   37.0380   30.3070   42.1820 H   0  0  0  0  0  0  0  0  0  0  0  0
   40.7940   27.2940   42.9280 H   0  0  0  0  0  0  0  0  0  0  0  0
   37.2710   32.8720   39.2910 C   0  0  0  0  0  0  0  0  0  0  0  0
   37.2410   32.3640   37.9940 F   0  0  0  0  0  0  0  0  0  0  0  0
   36.7820   34.1610   39.2010 F   0  0  0  0  0  0  0  0  0  0  0  0
   36.5140   32.0640   40.0910 F   0  0  0  0  0  0  0  0  0  0  0  0
  1  6  1  0  0  0  0
  1 17  1  0  0  0  0
  2  7  1  0  0  0  0
  2  1  1  0  0  0  0
  3  9  1  0  0  0  0
  3  2  1  0  0  0  0
  4  3  1  0  0  0  0
  4  5  1  0  0  0  0
  5 12  1  1  0  0  0
  5  6  1  0  0  0  0
  6 13  1  0  0  0  0
  6 14  1  0  0  0  0
  8  2  1  0  0  0  0
 10  3  1  0  0  0  0
 11  4  1  0  0  0  0
 15 20  1  0  0  0  0
 15 21  1  0  0  0  0
 16 15  2  0  0  0  0
 17 18  2  0  0  0  0
 17 16  1  0  0  0  0
 18 19  1  0  0  0  0
 19 23  1  0  0  0  0
 19 20  2  0  0  0  0
 22 16  1  0  0  0  0
 24  5  1  0  0  0  0
 24 27  1  0  0  0  0
 25 24  1  0  0  0  0
 26 24  1  0  0  0  0
M  END
>  <minimizedAffinity>
-4.56286716

$$$$

 OpenBabel03242522013D

 27 28  0  0  1  0  0  0  0  0999 V2000
   37.8210   29.7290   40.5700 N   0  0  0  0  0  0  0  0  0  0  0  0
   38.8780   28.7980   40.2020 C   0  0  0  0  0  0  0  0  0  0  0  0
   38.3310   27.4390   39.8780 C   0  0  0  0  0  0  0  0  0  0  0  0
   37.4580   26.9070   40.8580 N   0  0  0  0  0  0  0  0  0  0  0  0
   36.6050   27.8180   41.5200 C   0  0  2  0  0  0  0  0  0  0  0  0
   36.5710   29.2170   41.0390 C   0  0  0  0  0  0  0  0  0  0  0  0
   39.2960   29.1970   39.2300 H   0  0  0  0  0  0  0  0  0  0  0  0
   39.7230   28.8050   40.9050 H   0  0  0  0  0  0  0  0  0  0  0  0
   37.7670   27.5390   38.9170 H   0  0  0  0  0  0  0  0  0  0  0  0
   39.1830   26.7620   39.7320 H   0  0  0  0  0  0  0  0  0  0  0  0
   38.0130   26.3030   41.5160 H   0  0  0  0  0  0  0  0  0  0  0  0
   35.5560   27.4150   41.4800 H   0  0  0  0  0  0  0  0  0  0  0  0
   36.1450   29.8620   41.8350 H   0  0  0  0  0  0  0  0  0  0  0  0
   35.8570   29.3150   40.1700 H   0  0  0  0  0  0  0  0  0  0  0  0
   39.1780   33.2070   40.8860 C   0  0  0  0  0  0  0  0  0  0  0  0
   39.0870   31.8170   41.0660 C   0  0  0  0  0  0  0  0  0  0  0  0
   38.0260   31.1310   40.4650 C   0  0  0  0  0  0  0  0  0  0  0  0
   37.1490   31.8750   39.7390 N   0  0  0  0  0  0  0  0  0  0  0  0
   37.2650   33.2120   39.5850 C   0  0  0  0  0  0  0  0  0  0  0  0
   38.2850   33.8780   40.1630 N   0  0  0  0  0  0  0  0  0  0  0  0
   40.0250   33.6670   41.3810 H   0  0  0  0  0  0  0  0  0  0  0  0
   39.7780   31.2390   41.6370 H   0  0  0  0  0  0  0  0  0  0  0  0
   36.4820   33.6460   38.9760 H   0  0  0  0  0  0  0  0  0  0  0  0
   36.9790   27.8510   42.9940 C   0  0  0  0  0  0  0  0  0  0  0  0
   38.0090   26.9460   43.2410 F   0  0  0  0  0  0  0  0  0  0  0  0
   35.8800   27.3650   43.6770 F   0  0  0  0  0  0  0  0  0  0  0  0
   37.3740   29.0860   43.4200 F   0  0  0  0  0  0  0  0  0  0  0  0
  1  6  1  0  0  0  0
  2  1  1  0  0  0  0
  2  8  1  0  0  0  0
  3  2  1  0  0  0  0
  3  4  1  0  0  0  0
  4 11  1  0  0  0  0
  4  5  1  0  0  0  0
  5 12  1  6  0  0  0
  5 24  1  0  0  0  0
  6  5  1  0  0  0  0
  6 13  1  0  0  0  0
  7  2  1  0  0  0  0
  9  3  1  0  0  0  0
 10  3  1  0  0  0  0
 14  6  1  0  0  0  0
 15 16  1  0  0  0  0
 15 21  1  0  0  0  0
 16 22  1  0  0  0  0
 17  1  1  0  0  0  0
 17 16  2  0  0  0  0
 18 17  1  0  0  0  0
 19 18  2  0  0  0  0
 19 20  1  0  0  0  0
 20 15  2  0  0  0  0
 23 19  1  0  0  0  0
 24 25  1  0  0  0  0
 24 27  1  0  0  0  0
 24 26  1  0  0  0  0
M  END
>  <minimizedAffinity>
-4.55084562

$$$$

 OpenBabel03242522013D

 27 28  0  0  1  0  0  0  0  0999 V2000
   38.1420   27.6660   41.9190 N   0  0  0  0  0  0  0  0  0  0  0  0
   38.3840   27.4270   43.3350 C   0  0  0  0  0  0  0  0  0  0  0  0
   39.3880   26.3330   43.5490 C   0  0  0  0  0  0  0  0  0  0  0  0
   39.1180   25.1390   42.8380 N   0  0  0  0  0  0  0  0  0  0  0  0
   38.5570   25.2730   41.5480 C   0  0  2  0  0  0  0  0  0  0  0  0
   38.4420   26.6330   40.9760 C   0  0  0  0  0  0  0  0  0  0  0  0
   38.8790   28.3720   43.7120 H   0  0  0  0  0  0  0  0  0  0  0  0
   37.4580   27.3320   43.9200 H   0  0  0  0  0  0  0  0  0  0  0  0
   40.3770   26.7320   43.2100 H   0  0  0  0  0  0  0  0  0  0  0  0
   39.4280   26.1240   44.6270 H   0  0  0  0  0  0  0  0  0  0  0  0
   38.5770   24.4870   43.4620 H   0  0  0  0  0  0  0  0  0  0  0  0
   39.1600   24.6490   40.8330 H   0  0  0  0  0  0  0  0  0  0  0  0
   37.7000   26.6150   40.1510 H   0  0  0  0  0  0  0  0  0  0  0  0
   39.4140   26.9370   40.4900 H   0  0  0  0  0  0  0  0  0  0  0  0
   35.8920   30.3830   40.6600 C   0  0  0  0  0  0  0  0  0  0  0  0
   36.2890   29.1030   41.0790 C   0  0  0  0  0  0  0  0  0  0  0  0
   37.6160   28.9080   41.4760 C   0  0  0  0  0  0  0  0  0  0  0  0
   38.4350   29.9930   41.4270 N   0  0  0  0  0  0  0  0  0  0  0  0
   38.0220   31.2130   41.0200 C   0  0  0  0  0  0  0  0  0  0  0  0
   36.7440   31.4060   40.6350 N   0  0  0  0  0  0  0  0  0  0  0  0
   34.8520   30.4550   40.3680 H   0  0  0  0  0  0  0  0  0  0  0  0
   35.6420   28.2550   41.1150 H   0  0  0  0  0  0  0  0  0  0  0  0
   38.8020   31.9630   41.0430 H   0  0  0  0  0  0  0  0  0  0  0  0
   37.1650   24.6610   41.5570 C   0  0  0  0  0  0  0  0  0  0  0  0
   37.2470   23.2970   41.2870 F   0  0  0  0  0  0  0  0  0  0  0  0
   36.4960   25.2180   40.4850 F   0  0  0  0  0  0  0  0  0  0  0  0
   36.5120   24.8290   42.7450 F   0  0  0  0  0  0  0  0  0  0  0  0
  1  2  1  0  0  0  0
  2  3  1  0  0  0  0
  2  7  1  0  0  0  0
  2  8  1  0  0  0  0
  3 10  1  0  0  0  0
  4 11  1  0  0  0  0
  4  3  1  0  0  0  0
  5 12  1  6  0  0  0
  5 24  1  0  0  0  0
  5  4  1  0  0  0  0
  6  5  1  0  0  0  0
  6  1  1  0  0  0  0
  9  3  1  0  0  0  0
 13  6  1  0  0  0  0
 14  6  1  0  0  0  0
 15 16  1  0  0  0  0
 16 22  1  0  0  0  0
 16 17  2  0  0  0  0
 17  1  1  0  0  0  0
 18 17  1  0  0  0  0
 19 23  1  0  0  0  0
 19 18  2  0  0  0  0
 20 15  2  0  0  0  0
 20 19  1  0  0  0  0
 21 15  1  0  0  0  0
 24 27  1  0  0  0  0
 25 24  1  0  0  0  0
 26 24  1  0  0  0  0
M  END
>  <minimizedAffinity>
-4.40738058

$$$$

 OpenBabel03242522013D

 27 28  0  0  1  0  0  0  0  0999 V2000
   38.4160   28.0310   41.9800 N   0  0  0  0  0  0  0  0  0  0  0  0
   38.5630   27.7790   43.4060 C   0  0  0  0  0  0  0  0  0  0  0  0
   39.4680   26.6110   43.6720 C   0  0  0  0  0  0  0  0  0  0  0  0
   39.1450   25.4400   42.9460 N   0  0  0  0  0  0  0  0  0  0  0  0
   38.6640   25.6130   41.6290 C   0  0  2  0  0  0  0  0  0  0  0  0
   38.6840   26.9760   41.0530 C   0  0  0  0  0  0  0  0  0  0  0  0
   39.1090   28.6840   43.8100 H   0  0  0  0  0  0  0  0  0  0  0  0
   37.6040   27.7560   43.9420 H   0  0  0  0  0  0  0  0  0  0  0  0
   40.5010   26.9330   43.3860 H   0  0  0  0  0  0  0  0  0  0  0  0
   39.4360   26.4030   44.7500 H   0  0  0  0  0  0  0  0  0  0  0  0
   38.5230   24.8330   43.5390 H   0  0  0  0  0  0  0  0  0  0  0  0
   39.2550   24.9420   40.9450 H   0  0  0  0  0  0  0  0  0  0  0  0
   37.9880   27.0120   40.1900 H   0  0  0  0  0  0  0  0  0  0  0  0
   39.7010   27.2030   40.6190 H   0  0  0  0  0  0  0  0  0  0  0  0
   38.3680   31.5370   40.6600 C   0  0  0  0  0  0  0  0  0  0  0  0
   38.8950   30.3130   41.1040 C   0  0  0  0  0  0  0  0  0  0  0  0
   38.0110   29.3090   41.5120 C   0  0  0  0  0  0  0  0  0  0  0  0
   36.6830   29.5990   41.4460 N   0  0  0  0  0  0  0  0  0  0  0  0
   36.2070   30.7870   41.0130 C   0  0  0  0  0  0  0  0  0  0  0  0
   37.0560   31.7580   40.6200 N   0  0  0  0  0  0  0  0  0  0  0  0
   39.1130   32.2630   40.3610 H   0  0  0  0  0  0  0  0  0  0  0  0
   39.9380   30.0920   41.1530 H   0  0  0  0  0  0  0  0  0  0  0  0
   35.1260   30.8490   41.0250 H   0  0  0  0  0  0  0  0  0  0  0  0
   37.2310   25.1090   41.5640 C   0  0  0  0  0  0  0  0  0  0  0  0
   36.5740   25.3980   42.7570 F   0  0  0  0  0  0  0  0  0  0  0  0
   37.3120   23.7310   41.5030 F   0  0  0  0  0  0  0  0  0  0  0  0
   36.5180   25.6520   40.5330 F   0  0  0  0  0  0  0  0  0  0  0  0
  1  2  1  0  0  0  0
  2  3  1  0  0  0  0
  2  7  1  0  0  0  0
  2  8  1  0  0  0  0
  3 10  1  0  0  0  0
  4 11  1  0  0  0  0
  4  3  1  0  0  0  0
  5 12  1  6  0  0  0
  5  4  1  0  0  0  0
  6  5  1  0  0  0  0
  6  1  1  0  0  0  0
  9  3  1  0  0  0  0
 13  6  1  0  0  0  0
 14  6  1  0  0  0  0
 15 16  1  0  0  0  0
 16 22  1  0  0  0  0
 16 17  2  0  0  0  0
 17  1  1  0  0  0  0
 18 17  1  0  0  0  0
 19 23  1  0  0  0  0
 19 18  2  0  0  0  0
 20 15  2  0  0  0  0
 20 19  1  0  0  0  0
 21 15  1  0  0  0  0
 24  5  1  0  0  0  0
 24 25  1  0  0  0  0
 26 24  1  0  0  0  0
 27 24  1  0  0  0  0
M  END
>  <minimizedAffinity>
-4.39449215

$$$$

 OpenBabel03242522013D

 27 28  0  0  1  0  0  0  0  0999 V2000
   37.7210   30.0890   39.8880 N   0  0  0  0  0  0  0  0  0  0  0  0
   36.6650   30.3090   38.9100 C   0  0  0  0  0  0  0  0  0  0  0  0
   37.2070   30.8620   37.6240 C   0  0  0  0  0  0  0  0  0  0  0  0
   38.0470   31.9910   37.7770 N   0  0  0  0  0  0  0  0  0  0  0  0
   38.8900   32.0150   38.9100 C   0  0  2  0  0  0  0  0  0  0  0  0
   38.9520   30.8040   39.7590 C   0  0  0  0  0  0  0  0  0  0  0  0
   36.2780   29.2770   38.6580 H   0  0  0  0  0  0  0  0  0  0  0  0
   35.8010   30.8500   39.3220 H   0  0  0  0  0  0  0  0  0  0  0  0
   37.7980   30.0410   37.1450 H   0  0  0  0  0  0  0  0  0  0  0  0
   36.3520   31.1170   36.9840 H   0  0  0  0  0  0  0  0  0  0  0  0
   37.4680   32.8620   37.6710 H   0  0  0  0  0  0  0  0  0  0  0  0
   39.9360   32.2490   38.5680 H   0  0  0  0  0  0  0  0  0  0  0  0
   39.3620   31.0820   40.7520 H   0  0  0  0  0  0  0  0  0  0  0  0
   39.6900   30.0640   39.3330 H   0  0  0  0  0  0  0  0  0  0  0  0
   36.9410   27.0530   41.9400 C   0  0  0  0  0  0  0  0  0  0  0  0
   37.0860   27.8590   40.7990 C   0  0  0  0  0  0  0  0  0  0  0  0
   37.5330   29.1750   40.9580 C   0  0  0  0  0  0  0  0  0  0  0  0
   37.7970   29.5820   42.2290 N   0  0  0  0  0  0  0  0  0  0  0  0
   37.6480   28.7810   43.3070 C   0  0  0  0  0  0  0  0  0  0  0  0
   37.2170   27.5120   43.1590 N   0  0  0  0  0  0  0  0  0  0  0  0
   36.5920   26.0480   41.7370 H   0  0  0  0  0  0  0  0  0  0  0  0
   36.8770   27.5340   39.8040 H   0  0  0  0  0  0  0  0  0  0  0  0
   37.9030   29.2640   44.2420 H   0  0  0  0  0  0  0  0  0  0  0  0
   38.4770   33.1770   39.7990 C   0  0  0  0  0  0  0  0  0  0  0  0
   37.2770   33.7170   39.3440 F   0  0  0  0  0  0  0  0  0  0  0  0
   39.4280   34.1610   39.6090 F   0  0  0  0  0  0  0  0  0  0  0  0
   38.3240   32.8220   41.1090 F   0  0  0  0  0  0  0  0  0  0  0  0
  1 17  1  0  0  0  0
  2  8  1  0  0  0  0
  2  1  1  0  0  0  0
  3  4  1  0  0  0  0
  3  2  1  0  0  0  0
  4  5  1  0  0  0  0
  5 12  1  6  0  0  0
  5  6  1  0  0  0  0
  5 24  1  0  0  0  0
  6  1  1  0  0  0  0
  6 13  1  0  0  0  0
  7  2  1  0  0  0  0
  9  3  1  0  0  0  0
 10  3  1  0  0  0  0
 11  4  1  0  0  0  0
 14  6  1  0  0  0  0
 15 20  1  0  0  0  0
 16 17  1  0  0  0  0
 16 15  2  0  0  0  0
 17 18  2  0  0  0  0
 18 19  1  0  0  0  0
 19 23  1  0  0  0  0
 20 19  2  0  0  0  0
 21 15  1  0  0  0  0
 22 16  1  0  0  0  0
 24 27  1  0  0  0  0
 25 24  1  0  0  0  0
 26 24  1  0  0  0  0
M  END
>  <minimizedAffinity>
-4.33956242

$$$$

 OpenBabel03242522013D

 27 28  0  0  1  0  0  0  0  0999 V2000
   37.4310   30.1170   40.6120 N   0  0  0  0  0  0  0  0  0  0  0  0
   37.5180   29.1990   39.4860 C   0  0  0  0  0  0  0  0  0  0  0  0
   36.6080   28.0190   39.6600 C   0  0  0  0  0  0  0  0  0  0  0  0
   36.7320   27.3590   40.9060 N   0  0  0  0  0  0  0  0  0  0  0  0
   36.9850   28.1660   42.0370 C   0  0  2  0  0  0  0  0  0  0  0  0
   36.9450   29.6360   41.8680 C   0  0  0  0  0  0  0  0  0  0  0  0
   37.1050   29.7750   38.6050 H   0  0  0  0  0  0  0  0  0  0  0  0
   38.5540   28.9520   39.2100 H   0  0  0  0  0  0  0  0  0  0  0  0
   35.5610   28.4030   39.5640 H   0  0  0  0  0  0  0  0  0  0  0  0
   36.8150   27.3150   38.8430 H   0  0  0  0  0  0  0  0  0  0  0  0
   37.4110   26.5620   40.8020 H   0  0  0  0  0  0  0  0  0  0  0  0
   36.2470   27.8920   42.8410 H   0  0  0  0  0  0  0  0  0  0  0  0
   37.4810   30.1100   42.7160 H   0  0  0  0  0  0  0  0  0  0  0  0
   35.8830   30.0100   41.9480 H   0  0  0  0  0  0  0  0  0  0  0  0
   39.2530   33.3830   40.8180 C   0  0  0  0  0  0  0  0  0  0  0  0
   38.9780   32.0230   41.0340 C   0  0  0  0  0  0  0  0  0  0  0  0
   37.8210   31.4750   40.4690 C   0  0  0  0  0  0  0  0  0  0  0  0
   37.0380   32.3150   39.7410 N   0  0  0  0  0  0  0  0  0  0  0  0
   37.3310   33.6200   39.5500 C   0  0  0  0  0  0  0  0  0  0  0  0
   38.4440   34.1530   40.0940 N   0  0  0  0  0  0  0  0  0  0  0  0
   40.1650   33.7350   41.2850 H   0  0  0  0  0  0  0  0  0  0  0  0
   39.5970   31.3690   41.6060 H   0  0  0  0  0  0  0  0  0  0  0  0
   36.6010   34.1430   38.9460 H   0  0  0  0  0  0  0  0  0  0  0  0
   38.3540   27.8070   42.5940 C   0  0  0  0  0  0  0  0  0  0  0  0
   39.0350   28.9660   42.9580 F   0  0  0  0  0  0  0  0  0  0  0  0
   39.0660   27.2680   41.5400 F   0  0  0  0  0  0  0  0  0  0  0  0
   38.2920   26.9810   43.6800 F   0  0  0  0  0  0  0  0  0  0  0  0
  1  6  1  0  0  0  0
  2  3  1  0  0  0  0
  2  1  1  0  0  0  0
  3  4  1  0  0  0  0
  4  5  1  0  0  0  0
  5 24  1  0  0  0  0
  5 12  1  1  0  0  0
  6 14  1  0  0  0  0
  6  5  1  0  0  0  0
  6 13  1  0  0  0  0
  7  2  1  0  0  0  0
  8  2  1  0  0  0  0
  9  3  1  0  0  0  0
 10  3  1  0  0  0  0
 11  4  1  0  0  0  0
 15 16  1  0  0  0  0
 15 21  1  0  0  0  0
 16 22  1  0  0  0  0
 17  1  1  0  0  0  0
 17 16  2  0  0  0  0
 18 17  1  0  0  0  0
 19 18  2  0  0  0  0
 19 20  1  0  0  0  0
 20 15  2  0  0  0  0
 23 19  1  0  0  0  0
 24 25  1  0  0  0  0
 24 27  1  0  0  0  0
 26 24  1  0  0  0  0
M  END
>  <minimizedAffinity>
-4.28647518

$$$$

 OpenBabel03242522013D

 27 28  0  0  1  0  0  0  0  0999 V2000
   37.0650   29.3270   39.4700 N   0  0  0  0  0  0  0  0  0  0  0  0
   35.9510   30.0900   40.0150 C   0  0  0  0  0  0  0  0  0  0  0  0
   36.3040   30.7230   41.3300 C   0  0  0  0  0  0  0  0  0  0  0  0
   36.8670   29.8350   42.2780 N   0  0  0  0  0  0  0  0  0  0  0  0
   37.7240   28.8270   41.7830 C   0  0  2  0  0  0  0  0  0  0  0  0
   38.0930   28.8670   40.3500 C   0  0  0  0  0  0  0  0  0  0  0  0
   35.8020   30.9490   39.2950 H   0  0  0  0  0  0  0  0  0  0  0  0
   35.0020   29.5350   40.0050 H   0  0  0  0  0  0  0  0  0  0  0  0
   37.0490   31.5270   41.1100 H   0  0  0  0  0  0  0  0  0  0  0  0
   35.3900   31.1740   41.7380 H   0  0  0  0  0  0  0  0  0  0  0  0
   36.0990   29.4640   42.8940 H   0  0  0  0  0  0  0  0  0  0  0  0
   38.6750   28.8430   42.3840 H   0  0  0  0  0  0  0  0  0  0  0  0
   38.4660   27.8670   40.0460 H   0  0  0  0  0  0  0  0  0  0  0  0
   38.9660   29.5650   40.1900 H   0  0  0  0  0  0  0  0  0  0  0  0
   36.4140   29.1920   35.7830 C   0  0  0  0  0  0  0  0  0  0  0  0
   36.2400   29.5510   37.1300 C   0  0  0  0  0  0  0  0  0  0  0  0
   37.1320   29.0420   38.0800 C   0  0  0  0  0  0  0  0  0  0  0  0
   38.1170   28.2250   37.6200 N   0  0  0  0  0  0  0  0  0  0  0  0
   38.2580   27.8990   36.3160 C   0  0  0  0  0  0  0  0  0  0  0  0
   37.4010   28.3870   35.3960 N   0  0  0  0  0  0  0  0  0  0  0  0
   35.6860   29.6250   35.1080 H   0  0  0  0  0  0  0  0  0  0  0  0
   35.4650   30.1920   37.4850 H   0  0  0  0  0  0  0  0  0  0  0  0
   39.0950   27.2400   36.1240 H   0  0  0  0  0  0  0  0  0  0  0  0
   37.0880   27.4720   42.0530 C   0  0  0  0  0  0  0  0  0  0  0  0
   36.6100   26.9280   40.8640 F   0  0  0  0  0  0  0  0  0  0  0  0
   35.9720   27.7220   42.8280 F   0  0  0  0  0  0  0  0  0  0  0  0
   37.9500   26.5790   42.6240 F   0  0  0  0  0  0  0  0  0  0  0  0
  1  2  1  0  0  0  0
  1  6  1  0  0  0  0
  2  3  1  0  0  0  0
  3 10  1  0  0  0  0
  3  4  1  0  0  0  0
  4 11  1  0  0  0  0
  5 24  1  0  0  0  0
  5  4  1  0  0  0  0
  5 12  1  1  0  0  0
  6  5  1  0  0  0  0
  7  2  1  0  0  0  0
  8  2  1  0  0  0  0
  9  3  1  0  0  0  0
 13  6  1  0  0  0  0
 14  6  1  0  0  0  0
 15 16  1  0  0  0  0
 16 22  1  0  0  0  0
 16 17  2  0  0  0  0
 17  1  1  0  0  0  0
 18 17  1  0  0  0  0
 19 18  2  0  0  0  0
 20 15  2  0  0  0  0
 20 19  1  0  0  0  0
 21 15  1  0  0  0  0
 23 19  1  0  0  0  0
 24 27  1  0  0  0  0
 24 26  1  0  0  0  0
 25 24  1  0  0  0  0
M  END
>  <minimizedAffinity>
-4.27690601

$$$$
