
 OpenBabel03252506413D

 35 37  0  0  1  0  0  0  0  0999 V2000
   49.4500   33.3360   41.5110 N   0  0  1  0  0  0  0  0  0  0  0  0
   50.6800   33.1120   42.2290 C   0  0  0  0  0  0  0  0  0  0  0  0
   51.3210   31.7930   42.0430 C   0  0  0  0  0  0  0  0  0  0  0  0
   50.4070   30.6800   42.4670 C   0  0  0  0  0  0  0  0  0  0  0  0
   48.9720   31.0440   42.3390 C   0  0  0  0  0  0  0  0  0  0  0  0
   48.8060   32.0730   41.2640 C   0  0  2  0  0  0  0  0  0  0  0  0
   50.5270   33.2650   43.3240 H   0  0  0  0  0  0  0  0  0  0  0  0
   51.3850   33.9190   41.8760 H   0  0  0  0  0  0  0  0  0  0  0  0
   52.1440   31.7710   42.8400 H   0  0  0  0  0  0  0  0  0  0  0  0
   51.8870   31.6290   41.1230 H   0  0  0  0  0  0  0  0  0  0  0  0
   50.5790   30.2930   43.4780 H   0  0  0  0  0  0  0  0  0  0  0  0
   50.6580   29.8160   41.7830 H   0  0  0  0  0  0  0  0  0  0  0  0
   48.5790   31.4860   43.2920 H   0  0  0  0  0  0  0  0  0  0  0  0
   48.3350   30.1910   42.0670 H   0  0  0  0  0  0  0  0  0  0  0  0
   47.6950   32.3660   41.4140 H   0  0  0  0  0  0  0  0  0  0  0  0
   47.2400   34.5660   42.0010 C   0  0  1  0  0  0  0  0  0  0  0  0
   48.3120   35.5320   41.7030 C   0  0  0  0  0  0  0  0  0  0  0  0
   48.6630   34.2260   42.3110 C   0  0  2  0  0  0  0  0  0  0  0  0
   46.7800   34.1040   41.1160 H   0  0  0  0  0  0  0  0  0  0  0  0
   48.3920   36.4030   42.3630 H   0  0  0  0  0  0  0  0  0  0  0  0
   48.6160   35.7400   40.6530 H   0  0  0  0  0  0  0  0  0  0  0  0
   48.8880   34.1420   43.3970 H   0  0  0  0  0  0  0  0  0  0  0  0
   45.5270   36.0210   43.1570 C   0  0  0  0  0  0  0  0  0  0  0  0
   46.3160   34.8460   43.1370 C   0  0  0  0  0  0  0  0  0  0  0  0
   46.1940   33.9580   44.2170 C   0  0  0  0  0  0  0  0  0  0  0  0
   45.3300   34.2750   45.2130 N   0  0  0  0  0  0  0  0  0  0  0  0
   44.5890   35.4110   45.1990 C   0  0  0  0  0  0  0  0  0  0  0  0
   44.6820   36.2960   44.1660 N   0  0  0  0  0  0  0  0  0  0  0  0
   45.5990   36.7240   42.3400 H   0  0  0  0  0  0  0  0  0  0  0  0
   46.7870   33.0640   44.2130 H   0  0  0  0  0  0  0  0  0  0  0  0
   43.9350   35.5470   46.0600 H   0  0  0  0  0  0  0  0  0  0  0  0
   48.8200   31.5770   39.8630 C   0  0  0  0  0  0  0  0  0  0  0  0
   48.5780   30.1950   39.7960 F   0  0  0  0  0  0  0  0  0  0  0  0
   47.7300   32.0950   39.1290 F   0  0  0  0  0  0  0  0  0  0  0  0
   49.9130   31.9370   39.1110 F   0  0  0  0  0  0  0  0  0  0  0  0
  1  2  1  1  0  0  0
  1 18  1  0  0  0  0
  2  7  1  0  0  0  0
  3  2  1  0  0  0  0
  3  4  1  0  0  0  0
  3  9  1  0  0  0  0
  4 11  1  0  0  0  0
  5  4  1  0  0  0  0
  5 13  1  0  0  0  0
  6 15  1  1  0  0  0
  6  1  1  0  0  0  0
  6  5  1  0  0  0  0
  8  2  1  0  0  0  0
 10  3  1  0  0  0  0
 12  4  1  0  0  0  0
 14  5  1  0  0  0  0
 16 19  1  6  0  0  0
 16 18  1  0  0  0  0
 16 24  1  0  0  0  0
 17 16  1  0  0  0  0
 17 18  1  0  0  0  0
 17 20  1  0  0  0  0
 18 22  1  1  0  0  0
 21 17  1  0  0  0  0
 23 28  1  0  0  0  0
 24 23  2  0  0  0  0
 24 25  1  0  0  0  0
 25 26  2  0  0  0  0
 27 26  1  0  0  0  0
 27 31  1  0  0  0  0
 28 27  2  0  0  0  0
 29 23  1  0  0  0  0
 30 25  1  0  0  0  0
 32  6  1  0  0  0  0
 33 32  1  0  0  0  0
 34 32  1  0  0  0  0
 35 32  1  0  0  0  0
M  END
>  <minimizedAffinity>
-4.6541872

>  <minimizedRMSD>
0.33007285

$$$$
