
 OpenBabel03242510083D

 23 24  0  0  0  0  0  0  0  0999 V2000
   44.6100   33.1250   41.1930 Br  0  0  0  0  0  0  0  0  0  0  0  0
   46.3040   34.0010   40.9510 C   0  0  0  0  0  0  0  0  0  0  0  0
   46.8450   34.7480   41.9750 C   0  0  0  0  0  0  0  0  0  0  0  0
   48.0680   35.3870   41.8150 C   0  0  0  0  0  0  0  0  0  0  0  0
   48.7270   35.2610   40.6230 C   0  0  0  0  0  0  0  0  0  0  0  0
   48.1430   34.5010   39.6260 C   0  0  0  0  0  0  0  0  0  0  0  0
   46.9580   33.8690   39.7490 C   0  0  0  0  0  0  0  0  0  0  0  0
   48.4370   35.9580   42.6570 H   0  0  0  0  0  0  0  0  0  0  0  0
   49.6700   35.7460   40.4800 H   0  0  0  0  0  0  0  0  0  0  0  0
   48.6910   34.4220   38.6940 H   0  0  0  0  0  0  0  0  0  0  0  0
   45.6180   34.0140   45.3410 C   0  0  0  0  0  0  0  0  0  0  0  0
   44.7170   35.0550   45.5960 C   0  0  0  0  0  0  0  0  0  0  0  0
   44.5370   36.0110   44.5980 C   0  0  0  0  0  0  0  0  0  0  0  0
   45.2370   35.8860   43.4390 N   0  0  0  0  0  0  0  0  0  0  0  0
   46.1130   34.8540   43.2210 C   0  0  0  0  0  0  0  0  0  0  0  0
   46.2800   33.9390   44.1850 N   0  0  0  0  0  0  0  0  0  0  0  0
   45.7110   33.3050   46.1580 H   0  0  0  0  0  0  0  0  0  0  0  0
   44.1260   35.2330   46.4700 H   0  0  0  0  0  0  0  0  0  0  0  0
   43.8800   36.8710   44.6400 H   0  0  0  0  0  0  0  0  0  0  0  0
   46.3540   33.0540   38.6520 C   0  0  0  0  0  0  0  0  0  0  0  0
   47.0490   33.2300   37.4690 F   0  0  0  0  0  0  0  0  0  0  0  0
   46.3310   31.7040   38.9450 F   0  0  0  0  0  0  0  0  0  0  0  0
   45.0540   33.4230   38.3820 F   0  0  0  0  0  0  0  0  0  0  0  0
  2  1  1  0  0  0  0
  2  3  1  0  0  0  0
  3 15  1  0  0  0  0
  4  3  2  0  0  0  0
  4  8  1  0  0  0  0
  5  4  1  0  0  0  0
  6  7  1  0  0  0  0
  6  5  2  0  0  0  0
  7  2  2  0  0  0  0
  9  5  1  0  0  0  0
 10  6  1  0  0  0  0
 11 12  1  0  0  0  0
 11 17  1  0  0  0  0
 12 18  1  0  0  0  0
 13 19  1  0  0  0  0
 13 12  2  0  0  0  0
 14 13  1  0  0  0  0
 15 14  2  0  0  0  0
 15 16  1  0  0  0  0
 16 11  2  0  0  0  0
 20 22  1  0  0  0  0
 20  7  1  0  0  0  0
 21 20  1  0  0  0  0
 23 20  1  0  0  0  0
M  END
>  <minimizedAffinity>
-5.30083179

>  <minimizedRMSD>
0.0541018322

$$$$
