
 OpenBabel03252506413D

 35 37  0  0  1  0  0  0  0  0999 V2000
   49.5470   33.4080   41.4800 N   0  0  1  0  0  0  0  0  0  0  0  0
   50.7110   33.0830   42.2660 C   0  0  0  0  0  0  0  0  0  0  0  0
   51.3120   31.7530   42.0330 C   0  0  0  0  0  0  0  0  0  0  0  0
   50.3270   30.6550   42.3140 C   0  0  0  0  0  0  0  0  0  0  0  0
   48.9210   31.0890   42.1120 C   0  0  0  0  0  0  0  0  0  0  0  0
   48.8740   32.1930   41.1010 C   0  0  2  0  0  0  0  0  0  0  0  0
   50.4850   33.1690   43.3550 H   0  0  0  0  0  0  0  0  0  0  0  0
   51.4720   33.8800   42.0200 H   0  0  0  0  0  0  0  0  0  0  0  0
   52.0740   31.6410   42.8830 H   0  0  0  0  0  0  0  0  0  0  0  0
   51.9370   31.6260   41.1460 H   0  0  0  0  0  0  0  0  0  0  0  0
   50.4100   30.1950   43.3060 H   0  0  0  0  0  0  0  0  0  0  0  0
   50.5930   29.8290   41.5910 H   0  0  0  0  0  0  0  0  0  0  0  0
   48.4770   31.4830   43.0630 H   0  0  0  0  0  0  0  0  0  0  0  0
   48.2730   30.2850   41.7370 H   0  0  0  0  0  0  0  0  0  0  0  0
   47.7670   32.5250   41.1940 H   0  0  0  0  0  0  0  0  0  0  0  0
   47.3150   34.6010   41.9610 C   0  0  1  0  0  0  0  0  0  0  0  0
   48.3760   35.5850   41.6880 C   0  0  0  0  0  0  0  0  0  0  0  0
   48.7390   34.2760   42.2830 C   0  0  2  0  0  0  0  0  0  0  0  0
   46.8710   34.1440   41.0660 H   0  0  0  0  0  0  0  0  0  0  0  0
   48.4360   36.4480   42.3600 H   0  0  0  0  0  0  0  0  0  0  0  0
   48.6890   35.8110   40.6440 H   0  0  0  0  0  0  0  0  0  0  0  0
   48.9530   34.1820   43.3710 H   0  0  0  0  0  0  0  0  0  0  0  0
   45.5650   36.0150   43.1150 C   0  0  0  0  0  0  0  0  0  0  0  0
   46.3750   34.8530   43.0910 C   0  0  0  0  0  0  0  0  0  0  0  0
   46.2570   33.9520   44.1600 C   0  0  0  0  0  0  0  0  0  0  0  0
   45.3780   34.2440   45.1510 N   0  0  0  0  0  0  0  0  0  0  0  0
   44.6180   35.3670   45.1410 C   0  0  0  0  0  0  0  0  0  0  0  0
   44.7060   36.2650   44.1180 N   0  0  0  0  0  0  0  0  0  0  0  0
   45.6330   36.7270   42.3050 H   0  0  0  0  0  0  0  0  0  0  0  0
   46.8660   33.0680   44.1530 H   0  0  0  0  0  0  0  0  0  0  0  0
   43.9530   35.4830   45.9960 H   0  0  0  0  0  0  0  0  0  0  0  0
   48.9710   31.7920   39.6730 C   0  0  0  0  0  0  0  0  0  0  0  0
   48.6070   30.4470   39.4840 F   0  0  0  0  0  0  0  0  0  0  0  0
   48.0060   32.4630   38.8900 F   0  0  0  0  0  0  0  0  0  0  0  0
   50.1570   32.0890   39.0480 F   0  0  0  0  0  0  0  0  0  0  0  0
  1  2  1  1  0  0  0
  1 18  1  0  0  0  0
  2  7  1  0  0  0  0
  3  2  1  0  0  0  0
  3  4  1  0  0  0  0
  3  9  1  0  0  0  0
  4 11  1  0  0  0  0
  5  4  1  0  0  0  0
  5 13  1  0  0  0  0
  6 15  1  1  0  0  0
  6  1  1  0  0  0  0
  6  5  1  0  0  0  0
  8  2  1  0  0  0  0
 10  3  1  0  0  0  0
 12  4  1  0  0  0  0
 14  5  1  0  0  0  0
 16 19  1  6  0  0  0
 16 18  1  0  0  0  0
 16 24  1  0  0  0  0
 17 16  1  0  0  0  0
 17 18  1  0  0  0  0
 17 20  1  0  0  0  0
 18 22  1  1  0  0  0
 21 17  1  0  0  0  0
 23 28  1  0  0  0  0
 24 23  2  0  0  0  0
 24 25  1  0  0  0  0
 25 26  2  0  0  0  0
 27 26  1  0  0  0  0
 27 31  1  0  0  0  0
 28 27  2  0  0  0  0
 29 23  1  0  0  0  0
 30 25  1  0  0  0  0
 32  6  1  0  0  0  0
 33 32  1  0  0  0  0
 34 32  1  0  0  0  0
 35 32  1  0  0  0  0
M  END
>  <minimizedAffinity>
-4.72796059

>  <minimizedRMSD>
0.760173976

$$$$
