
 OpenBabel03252508323D

 27 28  0  0  1  0  0  0  0  0999 V2000
   46.5250   34.0380   41.8070 N   0  0  0  0  0  0  0  0  0  0  0  0
   47.7950   34.1380   41.1810 C   0  0  1  0  0  0  0  0  0  0  0  0
   47.7810   34.1670   39.6890 C   0  0  0  0  0  0  0  0  0  0  0  0
   46.7140   33.5780   39.0030 N   0  0  0  0  0  0  0  0  0  0  0  0
   45.4840   33.4760   39.6710 C   0  0  0  0  0  0  0  0  0  0  0  0
   45.4420   34.3090   40.9160 C   0  0  0  0  0  0  0  0  0  0  0  0
   48.4490   33.3040   41.5080 H   0  0  0  0  0  0  0  0  0  0  0  0
   47.8170   35.2550   39.3670 H   0  0  0  0  0  0  0  0  0  0  0  0
   48.7310   33.6960   39.3250 H   0  0  0  0  0  0  0  0  0  0  0  0
   46.5760   34.0260   38.0780 H   0  0  0  0  0  0  0  0  0  0  0  0
   45.3970   32.4090   40.0340 H   0  0  0  0  0  0  0  0  0  0  0  0
   44.5830   33.6380   39.0680 H   0  0  0  0  0  0  0  0  0  0  0  0
   44.4350   34.3570   41.3610 H   0  0  0  0  0  0  0  0  0  0  0  0
   45.6080   35.3720   40.5590 H   0  0  0  0  0  0  0  0  0  0  0  0
   45.4690   34.4110   43.9070 C   0  0  0  0  0  0  0  0  0  0  0  0
   46.4590   33.7190   43.1780 C   0  0  0  0  0  0  0  0  0  0  0  0
   47.2840   32.8400   43.8520 C   0  0  0  0  0  0  0  0  0  0  0  0
   47.1560   32.6390   45.1890 N   0  0  0  0  0  0  0  0  0  0  0  0
   46.1890   33.3210   45.8840 C   0  0  0  0  0  0  0  0  0  0  0  0
   45.3680   34.1840   45.2510 N   0  0  0  0  0  0  0  0  0  0  0  0
   44.7400   35.1220   43.5790 H   0  0  0  0  0  0  0  0  0  0  0  0
   48.0210   32.2960   43.3250 H   0  0  0  0  0  0  0  0  0  0  0  0
   46.0850   33.1610   46.9560 H   0  0  0  0  0  0  0  0  0  0  0  0
   48.5130   35.4470   41.5820 C   0  0  0  0  0  0  0  0  0  0  0  0
   49.0890   36.1010   40.5530 F   0  0  0  0  0  0  0  0  0  0  0  0
   49.5630   35.1130   42.4500 F   0  0  0  0  0  0  0  0  0  0  0  0
   47.6640   36.2270   42.3450 F   0  0  0  0  0  0  0  0  0  0  0  0
  1 16  1  0  0  0  0
  2  7  1  1  0  0  0
  2 24  1  0  0  0  0
  2  1  1  0  0  0  0
  3  2  1  0  0  0  0
  4  5  1  0  0  0  0
  4  3  1  0  0  0  0
  5 11  1  0  0  0  0
  5  6  1  0  0  0  0
  6 13  1  0  0  0  0
  6  1  1  0  0  0  0
  8  3  1  0  0  0  0
  9  3  1  0  0  0  0
 10  4  1  0  0  0  0
 12  5  1  0  0  0  0
 14  6  1  0  0  0  0
 15 20  1  0  0  0  0
 16 17  1  0  0  0  0
 16 15  2  0  0  0  0
 17 18  2  0  0  0  0
 18 19  1  0  0  0  0
 19 23  1  0  0  0  0
 20 19  2  0  0  0  0
 21 15  1  0  0  0  0
 22 17  1  0  0  0  0
 24 27  1  0  0  0  0
 24 26  1  0  0  0  0
 25 24  1  0  0  0  0
M  END
>  <minimizedAffinity>
-4.77237844

>  <minimizedRMSD>
2.88189888

$$$$
