
 OpenBabel03252501253D

 30 32  0  0  0  0  0  0  0  0999 V2000
   46.2510   33.1230   44.8060 C   0  0  0  0  0  0  0  0  0  0  0  0
   47.3110   33.6110   44.0420 C   0  0  0  0  0  0  0  0  0  0  0  0
   46.8250   34.0800   42.8630 C   0  0  0  0  0  0  0  0  0  0  0  0
   45.4900   33.8830   42.9010 N   0  0  0  0  0  0  0  0  0  0  0  0
   45.1690   33.3150   44.0610 N   0  0  0  0  0  0  0  0  0  0  0  0
   48.3640   33.6330   44.3050 H   0  0  0  0  0  0  0  0  0  0  0  0
   47.3290   34.5290   42.0190 H   0  0  0  0  0  0  0  0  0  0  0  0
   45.2240   32.5210   40.4450 F   0  0  0  0  0  0  0  0  0  0  0  0
   44.3900   33.5460   40.7270 C   0  0  0  0  0  0  0  0  0  0  0  0
   44.5360   34.1960   41.9270 C   0  0  0  0  0  0  0  0  0  0  0  0
   43.6810   35.2640   42.2430 C   0  0  0  0  0  0  0  0  0  0  0  0
   42.6990   35.6930   41.4000 C   0  0  0  0  0  0  0  0  0  0  0  0
   42.5800   35.0250   40.2140 C   0  0  0  0  0  0  0  0  0  0  0  0
   43.4010   33.9730   39.8710 C   0  0  0  0  0  0  0  0  0  0  0  0
   43.7780   35.8010   43.1990 H   0  0  0  0  0  0  0  0  0  0  0  0
   42.0400   36.5120   41.6360 H   0  0  0  0  0  0  0  0  0  0  0  0
   41.8360   35.2830   39.4740 H   0  0  0  0  0  0  0  0  0  0  0  0
   43.2600   33.2590   38.5800 C   0  0  0  0  0  0  0  0  0  0  0  0
   44.3410   33.4810   37.7260 F   0  0  0  0  0  0  0  0  0  0  0  0
   42.0940   33.6650   37.9170 F   0  0  0  0  0  0  0  0  0  0  0  0
   43.1740   31.8930   38.7530 F   0  0  0  0  0  0  0  0  0  0  0  0
   47.4310   31.0690   47.6000 C   0  0  0  0  0  0  0  0  0  0  0  0
   46.5720   31.4540   48.6350 C   0  0  0  0  0  0  0  0  0  0  0  0
   45.5940   32.4130   48.3780 C   0  0  0  0  0  0  0  0  0  0  0  0
   45.5570   32.9030   47.1120 N   0  0  0  0  0  0  0  0  0  0  0  0
   46.3700   32.5410   46.1280 C   0  0  0  0  0  0  0  0  0  0  0  0
   47.3240   31.6110   46.3610 N   0  0  0  0  0  0  0  0  0  0  0  0
   48.1770   30.3220   47.8410 H   0  0  0  0  0  0  0  0  0  0  0  0
   46.6520   31.0210   49.6370 H   0  0  0  0  0  0  0  0  0  0  0  0
   44.8950   32.7570   49.1350 H   0  0  0  0  0  0  0  0  0  0  0  0
  1 26  1  0  0  0  0
  2  6  1  0  0  0  0
  2  1  1  0  0  0  0
  3  4  1  0  0  0  0
  3  2  2  0  0  0  0
  4  5  1  0  0  0  0
  5  1  2  0  0  0  0
  7  3  1  0  0  0  0
  8  9  1  0  0  0  0
  9 10  1  0  0  0  0
 10 11  2  0  0  0  0
 10  4  1  0  0  0  0
 11 15  1  0  0  0  0
 12 16  1  0  0  0  0
 12 11  1  0  0  0  0
 13 12  2  0  0  0  0
 14 13  1  0  0  0  0
 14  9  2  0  0  0  0
 17 13  1  0  0  0  0
 18 21  1  0  0  0  0
 18 14  1  0  0  0  0
 19 18  1  0  0  0  0
 20 18  1  0  0  0  0
 22 28  1  0  0  0  0
 22 23  1  0  0  0  0
 23 29  1  0  0  0  0
 24 23  2  0  0  0  0
 24 30  1  0  0  0  0
 25 24  1  0  0  0  0
 26 27  1  0  0  0  0
 26 25  2  0  0  0  0
 27 22  2  0  0  0  0
M  END
>  <minimizedAffinity>
-4.90461159

>  <minimizedRMSD>
0.511348665

$$$$
