
 OpenBabel03252508323D

 27 28  0  0  1  0  0  0  0  0999 V2000
   45.4520   34.4040   42.1770 N   0  0  0  0  0  0  0  0  0  0  0  0
   46.6560   33.9860   41.5540 C   0  0  1  0  0  0  0  0  0  0  0  0
   46.5990   33.8370   40.0700 C   0  0  0  0  0  0  0  0  0  0  0  0
   45.3720   33.5700   39.4560 N   0  0  0  0  0  0  0  0  0  0  0  0
   44.2060   33.9760   40.1220 C   0  0  0  0  0  0  0  0  0  0  0  0
   44.4940   34.9180   41.2510 C   0  0  0  0  0  0  0  0  0  0  0  0
   47.0000   33.0260   41.9880 H   0  0  0  0  0  0  0  0  0  0  0  0
   46.9910   34.8000   39.6130 H   0  0  0  0  0  0  0  0  0  0  0  0
   47.3190   33.0300   39.7750 H   0  0  0  0  0  0  0  0  0  0  0  0
   45.3610   33.9220   38.4800 H   0  0  0  0  0  0  0  0  0  0  0  0
   43.7740   33.0550   40.6160 H   0  0  0  0  0  0  0  0  0  0  0  0
   43.3920   34.3610   39.4970 H   0  0  0  0  0  0  0  0  0  0  0  0
   43.5800   35.3610   41.6790 H   0  0  0  0  0  0  0  0  0  0  0  0
   44.9990   35.8090   40.7640 H   0  0  0  0  0  0  0  0  0  0  0  0
   44.6780   35.3760   44.2070 C   0  0  0  0  0  0  0  0  0  0  0  0
   45.3310   34.2950   43.5770 C   0  0  0  0  0  0  0  0  0  0  0  0
   45.8180   33.2680   44.3610 C   0  0  0  0  0  0  0  0  0  0  0  0
   45.6800   33.2870   45.7130 N   0  0  0  0  0  0  0  0  0  0  0  0
   45.0440   34.3460   46.3110 C   0  0  0  0  0  0  0  0  0  0  0  0
   44.5550   35.3620   45.5690 N   0  0  0  0  0  0  0  0  0  0  0  0
   44.2350   36.2540   43.7890 H   0  0  0  0  0  0  0  0  0  0  0  0
   46.2950   32.4390   43.9120 H   0  0  0  0  0  0  0  0  0  0  0  0
   44.9320   34.3630   47.3930 H   0  0  0  0  0  0  0  0  0  0  0  0
   47.7910   35.0100   41.7920 C   0  0  0  0  0  0  0  0  0  0  0  0
   48.5680   35.2360   40.7120 F   0  0  0  0  0  0  0  0  0  0  0  0
   48.6490   34.4820   42.7680 F   0  0  0  0  0  0  0  0  0  0  0  0
   47.2720   36.1550   42.3650 F   0  0  0  0  0  0  0  0  0  0  0  0
  1 16  1  0  0  0  0
  2 24  1  0  0  0  0
  2  7  1  1  0  0  0
  2  1  1  0  0  0  0
  3  2  1  0  0  0  0
  4  3  1  0  0  0  0
  4  5  1  0  0  0  0
  5 11  1  0  0  0  0
  5  6  1  0  0  0  0
  6 13  1  0  0  0  0
  6  1  1  0  0  0  0
  8  3  1  0  0  0  0
  9  3  1  0  0  0  0
 10  4  1  0  0  0  0
 12  5  1  0  0  0  0
 14  6  1  0  0  0  0
 15 20  1  0  0  0  0
 16 15  2  0  0  0  0
 16 17  1  0  0  0  0
 17 18  2  0  0  0  0
 18 19  1  0  0  0  0
 19 23  1  0  0  0  0
 20 19  2  0  0  0  0
 21 15  1  0  0  0  0
 22 17  1  0  0  0  0
 24 27  1  0  0  0  0
 24 26  1  0  0  0  0
 25 24  1  0  0  0  0
M  END
>  <minimizedAffinity>
-4.52452707

>  <minimizedRMSD>
2.03126526

$$$$
