
 OpenBabel03252504553D

 26 27  0  0  1  0  0  0  0  0999 V2000
   47.8070   34.0020   42.0170 N   0  0  0  0  0  0  0  0  0  0  0  0
   47.9540   34.7150   40.7950 C   0  0  0  0  0  0  0  0  0  0  0  0
   49.0390   35.6850   41.1060 C   0  0  0  0  0  0  0  0  0  0  0  0
   49.5250   35.4310   42.5110 C   0  0  0  0  0  0  0  0  0  0  0  0
   48.9880   33.9780   42.7400 C   0  0  2  0  0  0  0  0  0  0  0  0
   47.5120   34.7010   39.8420 H   0  0  0  0  0  0  0  0  0  0  0  0
   49.4520   36.4330   40.4150 H   0  0  0  0  0  0  0  0  0  0  0  0
   48.9870   36.1070   43.1690 H   0  0  0  0  0  0  0  0  0  0  0  0
   50.5940   35.4870   42.5980 H   0  0  0  0  0  0  0  0  0  0  0  0
   49.0080   33.8440   43.8110 H   0  0  0  0  0  0  0  0  0  0  0  0
   50.0680   33.1170   42.1210 C   0  0  0  0  0  0  0  0  0  0  0  0
   51.2940   33.7950   42.1610 F   0  0  0  0  0  0  0  0  0  0  0  0
   50.2780   31.9460   42.8040 F   0  0  0  0  0  0  0  0  0  0  0  0
   49.7070   32.8600   40.8090 F   0  0  0  0  0  0  0  0  0  0  0  0
   46.5850   33.5260   42.3990 C   0  0  0  0  0  0  0  0  0  0  0  0
   46.7350   32.4800   42.8280 H   0  0  0  0  0  0  0  0  0  0  0  0
   45.8200   33.3210   41.6050 H   0  0  0  0  0  0  0  0  0  0  0  0
   44.6120   36.0110   44.4490 C   0  0  0  0  0  0  0  0  0  0  0  0
   45.2720   35.4670   43.3150 C   0  0  0  0  0  0  0  0  0  0  0  0
   45.9070   34.2510   43.4580 C   0  0  0  0  0  0  0  0  0  0  0  0
   45.8570   33.6620   44.6670 N   0  0  0  0  0  0  0  0  0  0  0  0
   45.2130   34.2000   45.7590 C   0  0  0  0  0  0  0  0  0  0  0  0
   44.6000   35.3700   45.6270 N   0  0  0  0  0  0  0  0  0  0  0  0
   44.1370   36.9660   44.2580 H   0  0  0  0  0  0  0  0  0  0  0  0
   45.3030   35.9540   42.3560 H   0  0  0  0  0  0  0  0  0  0  0  0
   45.2490   33.6220   46.6760 H   0  0  0  0  0  0  0  0  0  0  0  0
  1 15  1  0  0  0  0
  1  5  1  0  0  0  0
  2  3  2  0  0  0  0
  2  1  1  0  0  0  0
  3  4  1  0  0  0  0
  4  9  1  0  0  0  0
  4  5  1  0  0  0  0
  4  8  1  0  0  0  0
  5 10  1  1  0  0  0
  6  2  1  0  0  0  0
  7  3  1  0  0  0  0
 11 12  1  0  0  0  0
 11  5  1  0  0  0  0
 11 13  1  0  0  0  0
 14 11  1  0  0  0  0
 15 16  1  0  0  0  0
 15 20  1  0  0  0  0
 17 15  1  0  0  0  0
 18 23  1  0  0  0  0
 19 20  1  0  0  0  0
 19 18  2  0  0  0  0
 20 21  2  0  0  0  0
 21 22  1  0  0  0  0
 22 26  1  0  0  0  0
 23 22  2  0  0  0  0
 24 18  1  0  0  0  0
 25 19  1  0  0  0  0
M  END
>  <minimizedAffinity>
-5.09542751

>  <minimizedRMSD>
1.30528176

$$$$
