
 OpenBabel03242516513D

 38 40  0  0  1  0  0  0  0  0999 V2000
   36.6560   30.3820   39.2750 C   0  0  1  0  0  0  0  0  0  0  0  0
   36.7690   29.4480   38.1360 C   0  0  0  0  0  0  0  0  0  0  0  0
   35.3650   29.3590   37.5280 C   0  0  0  0  0  0  0  0  0  0  0  0
   34.5170   28.6050   38.5360 C   0  0  0  0  0  0  0  0  0  0  0  0
   34.5230   29.2010   39.9080 C   0  0  0  0  0  0  0  0  0  0  0  0
   35.7670   29.8360   40.3740 C   0  0  1  0  0  0  0  0  0  0  0  0
   36.0950   31.3020   38.9250 H   0  0  0  0  0  0  0  0  0  0  0  0
   37.0990   28.4360   38.4060 H   0  0  0  0  0  0  0  0  0  0  0  0
   37.4110   29.8780   37.3490 H   0  0  0  0  0  0  0  0  0  0  0  0
   35.4280   28.7080   36.6270 H   0  0  0  0  0  0  0  0  0  0  0  0
   34.9640   30.3490   37.3210 H   0  0  0  0  0  0  0  0  0  0  0  0
   34.7990   27.5510   38.5680 H   0  0  0  0  0  0  0  0  0  0  0  0
   33.4770   28.6260   38.1110 H   0  0  0  0  0  0  0  0  0  0  0  0
   34.2560   28.3920   40.6230 H   0  0  0  0  0  0  0  0  0  0  0  0
   33.6520   29.9170   39.9550 H   0  0  0  0  0  0  0  0  0  0  0  0
   35.4850   30.7460   40.9880 H   0  0  0  0  0  0  0  0  0  0  0  0
   39.1500   32.6000   41.0370 C   0  0  0  0  0  0  0  0  0  0  0  0
   37.9770   32.0850   40.4900 C   0  0  0  0  0  0  0  0  0  0  0  0
   37.9130   30.8630   39.8350 C   0  0  0  0  0  0  0  0  0  0  0  0
   39.0640   30.1770   39.7470 N   0  0  0  0  0  0  0  0  0  0  0  0
   40.2160   30.6680   40.2760 C   0  0  0  0  0  0  0  0  0  0  0  0
   40.2750   31.8350   40.9010 N   0  0  0  0  0  0  0  0  0  0  0  0
   39.1160   33.5600   41.5310 H   0  0  0  0  0  0  0  0  0  0  0  0
   37.0760   32.6820   40.5900 H   0  0  0  0  0  0  0  0  0  0  0  0
   41.1470   30.1050   40.2000 H   0  0  0  0  0  0  0  0  0  0  0  0
   36.5280   29.0010   41.3150 C   0  0  0  0  0  0  0  0  0  0  0  0
   37.1680   29.4420   42.4850 C   0  0  0  0  0  0  0  0  0  0  0  0
   37.8070   28.4350   43.2250 C   0  0  0  0  0  0  0  0  0  0  0  0
   37.7580   27.1270   42.7580 C   0  0  0  0  0  0  0  0  0  0  0  0
   37.1250   26.7400   41.6140 C   0  0  0  0  0  0  0  0  0  0  0  0
   36.5010   27.7040   40.8860 N   0  0  0  0  0  0  0  0  0  0  0  0
   37.1040   30.4770   42.6870 H   0  0  0  0  0  0  0  0  0  0  0  0
   38.2950   28.7760   44.1200 H   0  0  0  0  0  0  0  0  0  0  0  0
   38.2730   26.3960   43.3790 H   0  0  0  0  0  0  0  0  0  0  0  0
   37.1590   25.3010   41.2420 C   0  0  0  0  0  0  0  0  0  0  0  0
   36.5270   24.6030   42.2500 F   0  0  0  0  0  0  0  0  0  0  0  0
   36.4340   25.1710   40.0520 F   0  0  0  0  0  0  0  0  0  0  0  0
   38.4640   24.9210   41.0570 F   0  0  0  0  0  0  0  0  0  0  0  0
  1  7  1  6  0  0  0
  1 19  1  0  0  0  0
  1  6  1  0  0  0  0
  2  8  1  0  0  0  0
  2  1  1  0  0  0  0
  3  2  1  0  0  0  0
  3  4  1  0  0  0  0
  4 12  1  0  0  0  0
  4  5  1  0  0  0  0
  5 15  1  0  0  0  0
  5  6  1  0  0  0  0
  5 14  1  0  0  0  0
  6 16  1  1  0  0  0
  6 26  1  0  0  0  0
  9  2  1  0  0  0  0
 10  3  1  0  0  0  0
 11  3  1  0  0  0  0
 13  4  1  0  0  0  0
 17 23  1  0  0  0  0
 18 24  1  0  0  0  0
 18 17  2  0  0  0  0
 19 18  1  0  0  0  0
 20 19  2  0  0  0  0
 20 21  1  0  0  0  0
 21 22  2  0  0  0  0
 22 17  1  0  0  0  0
 25 21  1  0  0  0  0
 26 27  1  0  0  0  0
 27 32  1  0  0  0  0
 27 28  2  0  0  0  0
 28 33  1  0  0  0  0
 29 28  1  0  0  0  0
 29 34  1  0  0  0  0
 30 29  2  0  0  0  0
 31 26  2  0  0  0  0
 31 30  1  0  0  0  0
 35 30  1  0  0  0  0
 35 36  1  0  0  0  0
 37 35  1  0  0  0  0
 38 35  1  0  0  0  0
M  END
>  <minimizedAffinity>
-5.9129982

$$$$

 OpenBabel03242516513D

 38 40  0  0  1  0  0  0  0  0999 V2000
   36.1620   29.9270   38.0060 C   0  0  1  0  0  0  0  0  0  0  0  0
   36.5690   29.4680   36.6610 C   0  0  0  0  0  0  0  0  0  0  0  0
   35.2680   29.2880   35.8700 C   0  0  0  0  0  0  0  0  0  0  0  0
   34.5730   28.0810   36.4730 C   0  0  0  0  0  0  0  0  0  0  0  0
   34.3500   28.1770   37.9490 C   0  0  0  0  0  0  0  0  0  0  0  0
   35.3700   28.8730   38.7520 C   0  0  1  0  0  0  0  0  0  0  0  0
   35.4140   30.7690   37.8810 H   0  0  0  0  0  0  0  0  0  0  0  0
   37.1210   28.5180   36.6510 H   0  0  0  0  0  0  0  0  0  0  0  0
   37.1320   30.2600   36.1390 H   0  0  0  0  0  0  0  0  0  0  0  0
   35.5440   29.0000   34.8300 H   0  0  0  0  0  0  0  0  0  0  0  0
   34.6500   30.1810   35.9240 H   0  0  0  0  0  0  0  0  0  0  0  0
   35.1030   27.1620   36.2190 H   0  0  0  0  0  0  0  0  0  0  0  0
   33.5870   28.0190   35.9380 H   0  0  0  0  0  0  0  0  0  0  0  0
   34.2480   27.1400   38.3380 H   0  0  0  0  0  0  0  0  0  0  0  0
   33.3290   28.6350   38.0940 H   0  0  0  0  0  0  0  0  0  0  0  0
   34.8370   29.4470   39.5710 H   0  0  0  0  0  0  0  0  0  0  0  0
   37.9260   31.9200   40.6810 C   0  0  0  0  0  0  0  0  0  0  0  0
   36.9490   31.3780   39.8480 C   0  0  0  0  0  0  0  0  0  0  0  0
   37.2260   30.4520   38.8510 C   0  0  0  0  0  0  0  0  0  0  0  0
   38.5130   30.0910   38.7190 N   0  0  0  0  0  0  0  0  0  0  0  0
   39.4750   30.6130   39.5240 C   0  0  0  0  0  0  0  0  0  0  0  0
   39.2100   31.4970   40.4750 N   0  0  0  0  0  0  0  0  0  0  0  0
   37.6290   32.6360   41.4330 H   0  0  0  0  0  0  0  0  0  0  0  0
   35.9260   31.7050   40.0000 H   0  0  0  0  0  0  0  0  0  0  0  0
   40.5180   30.3160   39.4100 H   0  0  0  0  0  0  0  0  0  0  0  0
   36.2550   27.9560   39.4860 C   0  0  0  0  0  0  0  0  0  0  0  0
   37.0330   26.9290   38.9260 C   0  0  0  0  0  0  0  0  0  0  0  0
   37.8140   26.2110   39.8450 C   0  0  0  0  0  0  0  0  0  0  0  0
   37.7580   26.5600   41.1890 C   0  0  0  0  0  0  0  0  0  0  0  0
   36.9870   27.5660   41.6930 C   0  0  0  0  0  0  0  0  0  0  0  0
   36.2250   28.2700   40.8150 N   0  0  0  0  0  0  0  0  0  0  0  0
   36.9520   26.8030   37.8800 H   0  0  0  0  0  0  0  0  0  0  0  0
   38.4090   25.4270   39.4130 H   0  0  0  0  0  0  0  0  0  0  0  0
   38.3880   25.9640   41.8470 H   0  0  0  0  0  0  0  0  0  0  0  0
   37.0310   27.8220   43.1570 C   0  0  0  0  0  0  0  0  0  0  0  0
   35.8220   27.4130   43.6800 F   0  0  0  0  0  0  0  0  0  0  0  0
   38.0610   27.0300   43.6760 F   0  0  0  0  0  0  0  0  0  0  0  0
   37.2900   29.1520   43.3670 F   0  0  0  0  0  0  0  0  0  0  0  0
  1  7  1  6  0  0  0
  1  6  1  0  0  0  0
  1 19  1  0  0  0  0
  2  1  1  0  0  0  0
  3 11  1  0  0  0  0
  3  4  1  0  0  0  0
  3  2  1  0  0  0  0
  4  5  1  0  0  0  0
  5 15  1  0  0  0  0
  5 14  1  0  0  0  0
  5  6  1  0  0  0  0
  6 26  1  0  0  0  0
  6 16  1  1  0  0  0
  8  2  1  0  0  0  0
  9  2  1  0  0  0  0
 10  3  1  0  0  0  0
 12  4  1  0  0  0  0
 13  4  1  0  0  0  0
 17 23  1  0  0  0  0
 18 24  1  0  0  0  0
 18 17  2  0  0  0  0
 19 18  1  0  0  0  0
 20 19  2  0  0  0  0
 20 21  1  0  0  0  0
 21 22  2  0  0  0  0
 22 17  1  0  0  0  0
 25 21  1  0  0  0  0
 26 31  1  0  0  0  0
 27 26  2  0  0  0  0
 27 28  1  0  0  0  0
 28 29  2  0  0  0  0
 29 30  1  0  0  0  0
 29 34  1  0  0  0  0
 30 35  1  0  0  0  0
 31 30  2  0  0  0  0
 32 27  1  0  0  0  0
 33 28  1  0  0  0  0
 35 38  1  0  0  0  0
 35 37  1  0  0  0  0
 35 36  1  0  0  0  0
M  END
>  <minimizedAffinity>
-5.61461687

$$$$

 OpenBabel03242516513D

 38 40  0  0  1  0  0  0  0  0999 V2000
   40.2660   30.2180   41.2600 C   0  0  1  0  0  0  0  0  0  0  0  0
   40.5930   31.1450   42.3630 C   0  0  0  0  0  0  0  0  0  0  0  0
   42.0800   30.9260   42.6660 C   0  0  0  0  0  0  0  0  0  0  0  0
   42.1820   29.5520   43.3010 C   0  0  0  0  0  0  0  0  0  0  0  0
   41.5850   28.4530   42.4810 C   0  0  0  0  0  0  0  0  0  0  0  0
   40.3910   28.7680   41.6790 C   0  0  1  0  0  0  0  0  0  0  0  0
   41.0620   30.3240   40.4610 H   0  0  0  0  0  0  0  0  0  0  0  0
   40.0190   30.9790   43.2850 H   0  0  0  0  0  0  0  0  0  0  0  0
   40.5060   32.1910   42.0240 H   0  0  0  0  0  0  0  0  0  0  0  0
   42.3740   31.6560   43.4540 H   0  0  0  0  0  0  0  0  0  0  0  0
   42.6790   31.0010   41.7610 H   0  0  0  0  0  0  0  0  0  0  0  0
   41.7620   29.5590   44.3080 H   0  0  0  0  0  0  0  0  0  0  0  0
   43.2840   29.3780   43.4350 H   0  0  0  0  0  0  0  0  0  0  0  0
   41.3300   27.6220   43.1750 H   0  0  0  0  0  0  0  0  0  0  0  0
   42.4150   28.0390   41.8390 H   0  0  0  0  0  0  0  0  0  0  0  0
   40.4660   28.1970   40.7030 H   0  0  0  0  0  0  0  0  0  0  0  0
   37.4620   29.9280   38.7510 C   0  0  0  0  0  0  0  0  0  0  0  0
   38.6620   29.7490   39.4360 C   0  0  0  0  0  0  0  0  0  0  0  0
   38.9910   30.4430   40.5930 C   0  0  0  0  0  0  0  0  0  0  0  0
   38.0760   31.3220   41.0350 N   0  0  0  0  0  0  0  0  0  0  0  0
   36.9030   31.5060   40.3760 C   0  0  0  0  0  0  0  0  0  0  0  0
   36.5900   30.8430   39.2720 N   0  0  0  0  0  0  0  0  0  0  0  0
   37.2820   29.3480   37.8570 H   0  0  0  0  0  0  0  0  0  0  0  0
   39.3640   29.0260   39.0330 H   0  0  0  0  0  0  0  0  0  0  0  0
   36.1660   32.2220   40.7420 H   0  0  0  0  0  0  0  0  0  0  0  0
   39.1420   28.2730   42.2780 C   0  0  0  0  0  0  0  0  0  0  0  0
   38.4080   28.8990   43.2990 C   0  0  0  0  0  0  0  0  0  0  0  0
   37.2330   28.2300   43.6770 C   0  0  0  0  0  0  0  0  0  0  0  0
   36.9010   27.0440   43.0350 C   0  0  0  0  0  0  0  0  0  0  0  0
   37.6440   26.4680   42.0460 C   0  0  0  0  0  0  0  0  0  0  0  0
   38.7850   27.1030   41.6690 N   0  0  0  0  0  0  0  0  0  0  0  0
   38.8110   29.8010   43.6740 H   0  0  0  0  0  0  0  0  0  0  0  0
   36.6730   28.7130   44.4570 H   0  0  0  0  0  0  0  0  0  0  0  0
   35.9780   26.5770   43.3750 H   0  0  0  0  0  0  0  0  0  0  0  0
   37.1610   25.1930   41.4530 C   0  0  0  0  0  0  0  0  0  0  0  0
   38.2720   24.4340   41.1540 F   0  0  0  0  0  0  0  0  0  0  0  0
   36.4010   24.5500   42.4360 F   0  0  0  0  0  0  0  0  0  0  0  0
   36.3890   25.4780   40.3550 F   0  0  0  0  0  0  0  0  0  0  0  0
  1  7  1  6  0  0  0
  1  6  1  0  0  0  0
  1  2  1  0  0  0  0
  2  3  1  0  0  0  0
  2  8  1  0  0  0  0
  3  4  1  0  0  0  0
  3 10  1  0  0  0  0
  4 13  1  0  0  0  0
  4 12  1  0  0  0  0
  5 14  1  0  0  0  0
  5  4  1  0  0  0  0
  6 16  1  6  0  0  0
  6 26  1  0  0  0  0
  6  5  1  0  0  0  0
  9  2  1  0  0  0  0
 11  3  1  0  0  0  0
 15  5  1  0  0  0  0
 17 22  2  0  0  0  0
 17 18  1  0  0  0  0
 18 19  2  0  0  0  0
 19 20  1  0  0  0  0
 19  1  1  0  0  0  0
 21 25  1  0  0  0  0
 21 20  2  0  0  0  0
 22 21  1  0  0  0  0
 23 17  1  0  0  0  0
 24 18  1  0  0  0  0
 26 27  1  0  0  0  0
 27 32  1  0  0  0  0
 27 28  2  0  0  0  0
 28 33  1  0  0  0  0
 29 34  1  0  0  0  0
 29 28  1  0  0  0  0
 30 29  2  0  0  0  0
 31 30  1  0  0  0  0
 31 26  2  0  0  0  0
 35 30  1  0  0  0  0
 35 37  1  0  0  0  0
 36 35  1  0  0  0  0
 38 35  1  0  0  0  0
M  END
>  <minimizedAffinity>
-5.52021694

$$$$

 OpenBabel03242516513D

 38 40  0  0  1  0  0  0  0  0999 V2000
   38.2210   30.4250   40.0220 C   0  0  1  0  0  0  0  0  0  0  0  0
   37.9730   31.6970   40.7310 C   0  0  0  0  0  0  0  0  0  0  0  0
   39.3340   32.3960   40.8240 C   0  0  0  0  0  0  0  0  0  0  0  0
   40.1570   31.5850   41.8060 C   0  0  0  0  0  0  0  0  0  0  0  0
   40.2680   30.1330   41.4600 C   0  0  0  0  0  0  0  0  0  0  0  0
   39.1080   29.4910   40.8190 C   0  0  1  0  0  0  0  0  0  0  0  0
   38.8440   30.6480   39.1020 H   0  0  0  0  0  0  0  0  0  0  0  0
   37.5670   31.5830   41.7460 H   0  0  0  0  0  0  0  0  0  0  0  0
   37.3350   32.3590   40.1210 H   0  0  0  0  0  0  0  0  0  0  0  0
   39.1710   33.3890   41.3010 H   0  0  0  0  0  0  0  0  0  0  0  0
   39.8100   32.4560   39.8480 H   0  0  0  0  0  0  0  0  0  0  0  0
   39.7850   31.7140   42.8240 H   0  0  0  0  0  0  0  0  0  0  0  0
   41.1740   32.0620   41.7940 H   0  0  0  0  0  0  0  0  0  0  0  0
   40.4960   29.5840   42.4010 H   0  0  0  0  0  0  0  0  0  0  0  0
   41.2000   30.0190   40.8350 H   0  0  0  0  0  0  0  0  0  0  0  0
   39.4980   28.7500   40.0560 H   0  0  0  0  0  0  0  0  0  0  0  0
   34.6440   29.2520   39.7520 C   0  0  0  0  0  0  0  0  0  0  0  0
   35.8050   29.9080   40.1560 C   0  0  0  0  0  0  0  0  0  0  0  0
   37.0390   29.7160   39.5480 C   0  0  0  0  0  0  0  0  0  0  0  0
   37.0660   28.8460   38.5260 N   0  0  0  0  0  0  0  0  0  0  0  0
   35.9410   28.1990   38.1230 C   0  0  0  0  0  0  0  0  0  0  0  0
   34.7640   28.3830   38.7040 N   0  0  0  0  0  0  0  0  0  0  0  0
   33.7220   29.4570   40.2780 H   0  0  0  0  0  0  0  0  0  0  0  0
   35.7250   30.6000   40.9870 H   0  0  0  0  0  0  0  0  0  0  0  0
   35.9720   27.4940   37.2920 H   0  0  0  0  0  0  0  0  0  0  0  0
   38.3210   28.6610   41.7440 C   0  0  0  0  0  0  0  0  0  0  0  0
   37.8220   29.0590   42.9950 C   0  0  0  0  0  0  0  0  0  0  0  0
   37.0760   28.0800   43.6720 C   0  0  0  0  0  0  0  0  0  0  0  0
   36.8970   26.8400   43.0720 C   0  0  0  0  0  0  0  0  0  0  0  0
   37.4000   26.4940   41.8520 C   0  0  0  0  0  0  0  0  0  0  0  0
   38.1250   27.4300   41.1850 N   0  0  0  0  0  0  0  0  0  0  0  0
   38.0570   30.0430   43.2960 H   0  0  0  0  0  0  0  0  0  0  0  0
   36.6950   28.3880   44.6280 H   0  0  0  0  0  0  0  0  0  0  0  0
   36.3090   26.1290   43.6490 H   0  0  0  0  0  0  0  0  0  0  0  0
   37.1250   25.1250   41.3390 C   0  0  0  0  0  0  0  0  0  0  0  0
   38.3430   24.5090   41.1450 F   0  0  0  0  0  0  0  0  0  0  0  0
   36.4110   24.4540   42.3370 F   0  0  0  0  0  0  0  0  0  0  0  0
   36.3790   25.2230   40.1920 F   0  0  0  0  0  0  0  0  0  0  0  0
  1  7  1  6  0  0  0
  1  2  1  0  0  0  0
  1  6  1  0  0  0  0
  2  3  1  0  0  0  0
  2  8  1  0  0  0  0
  3 10  1  0  0  0  0
  3  4  1  0  0  0  0
  4 12  1  0  0  0  0
  5  4  1  0  0  0  0
  5 14  1  0  0  0  0
  6 16  1  6  0  0  0
  6  5  1  0  0  0  0
  6 26  1  0  0  0  0
  9  2  1  0  0  0  0
 11  3  1  0  0  0  0
 13  4  1  0  0  0  0
 15  5  1  0  0  0  0
 17 18  1  0  0  0  0
 17 23  1  0  0  0  0
 18 24  1  0  0  0  0
 19  1  1  0  0  0  0
 19 18  2  0  0  0  0
 20 19  1  0  0  0  0
 21 20  2  0  0  0  0
 21 22  1  0  0  0  0
 22 17  2  0  0  0  0
 25 21  1  0  0  0  0
 26 27  1  0  0  0  0
 27 32  1  0  0  0  0
 27 28  2  0  0  0  0
 28 33  1  0  0  0  0
 29 34  1  0  0  0  0
 29 28  1  0  0  0  0
 30 29  2  0  0  0  0
 31 26  2  0  0  0  0
 31 30  1  0  0  0  0
 35 30  1  0  0  0  0
 35 37  1  0  0  0  0
 36 35  1  0  0  0  0
 38 35  1  0  0  0  0
M  END
>  <minimizedAffinity>
-5.50202751

$$$$

 OpenBabel03242516513D

 38 40  0  0  1  0  0  0  0  0999 V2000
   36.1180   29.6580   37.5370 C   0  0  1  0  0  0  0  0  0  0  0  0
   35.9380   28.9100   36.2760 C   0  0  0  0  0  0  0  0  0  0  0  0
   34.4930   29.1750   35.8360 C   0  0  0  0  0  0  0  0  0  0  0  0
   33.6100   28.4390   36.8260 C   0  0  0  0  0  0  0  0  0  0  0  0
   33.8610   28.8000   38.2560 C   0  0  0  0  0  0  0  0  0  0  0  0
   35.2440   29.1160   38.6500 C   0  0  1  0  0  0  0  0  0  0  0  0
   35.7210   30.7080   37.3870 H   0  0  0  0  0  0  0  0  0  0  0  0
   36.0840   27.8250   36.3630 H   0  0  0  0  0  0  0  0  0  0  0  0
   36.5770   29.3350   35.4830 H   0  0  0  0  0  0  0  0  0  0  0  0
   34.3430   28.6740   34.8530 H   0  0  0  0  0  0  0  0  0  0  0  0
   34.2790   30.2420   35.8160 H   0  0  0  0  0  0  0  0  0  0  0  0
   33.6790   27.3600   36.6790 H   0  0  0  0  0  0  0  0  0  0  0  0
   32.5600   28.7160   36.5370 H   0  0  0  0  0  0  0  0  0  0  0  0
   33.5060   27.9500   38.8800 H   0  0  0  0  0  0  0  0  0  0  0  0
   33.1570   29.6460   38.5060 H   0  0  0  0  0  0  0  0  0  0  0  0
   35.2060   29.9540   39.4130 H   0  0  0  0  0  0  0  0  0  0  0  0
   39.8520   29.1820   37.8170 C   0  0  0  0  0  0  0  0  0  0  0  0
   38.5220   29.0870   37.4110 C   0  0  0  0  0  0  0  0  0  0  0  0
   37.4910   29.8070   38.0010 C   0  0  0  0  0  0  0  0  0  0  0  0
   37.8400   30.6210   39.0100 N   0  0  0  0  0  0  0  0  0  0  0  0
   39.1330   30.7220   39.4160 C   0  0  0  0  0  0  0  0  0  0  0  0
   40.1160   30.0350   38.8520 N   0  0  0  0  0  0  0  0  0  0  0  0
   40.5950   28.5880   37.3060 H   0  0  0  0  0  0  0  0  0  0  0  0
   38.2980   28.4140   36.5910 H   0  0  0  0  0  0  0  0  0  0  0  0
   39.4080   31.3860   40.2370 H   0  0  0  0  0  0  0  0  0  0  0  0
   35.9080   28.0180   39.3690 C   0  0  0  0  0  0  0  0  0  0  0  0
   36.3020   26.7870   38.8190 C   0  0  0  0  0  0  0  0  0  0  0  0
   36.9420   25.9170   39.7160 C   0  0  0  0  0  0  0  0  0  0  0  0
   37.1290   26.3280   41.0300 C   0  0  0  0  0  0  0  0  0  0  0  0
   36.7300   27.5350   41.5250 C   0  0  0  0  0  0  0  0  0  0  0  0
   36.1080   28.3880   40.6680 N   0  0  0  0  0  0  0  0  0  0  0  0
   36.0790   26.6420   37.7970 H   0  0  0  0  0  0  0  0  0  0  0  0
   37.2430   24.9770   39.2920 H   0  0  0  0  0  0  0  0  0  0  0  0
   37.6310   25.6070   41.6730 H   0  0  0  0  0  0  0  0  0  0  0  0
   36.9980   27.8340   42.9560 C   0  0  0  0  0  0  0  0  0  0  0  0
   35.9180   27.3750   43.6800 F   0  0  0  0  0  0  0  0  0  0  0  0
   38.1440   27.1150   43.3130 F   0  0  0  0  0  0  0  0  0  0  0  0
   37.2100   29.1820   43.0970 F   0  0  0  0  0  0  0  0  0  0  0  0
  1  7  1  6  0  0  0
  1 19  1  0  0  0  0
  1  6  1  0  0  0  0
  2  8  1  0  0  0  0
  2  1  1  0  0  0  0
  3  2  1  0  0  0  0
  3  4  1  0  0  0  0
  4  5  1  0  0  0  0
  5 15  1  0  0  0  0
  5  6  1  0  0  0  0
  5 14  1  0  0  0  0
  6 26  1  0  0  0  0
  6 16  1  1  0  0  0
  9  2  1  0  0  0  0
 10  3  1  0  0  0  0
 11  3  1  0  0  0  0
 12  4  1  0  0  0  0
 13  4  1  0  0  0  0
 17 22  1  0  0  0  0
 18 17  2  0  0  0  0
 18 19  1  0  0  0  0
 19 20  2  0  0  0  0
 20 21  1  0  0  0  0
 21 25  1  0  0  0  0
 22 21  2  0  0  0  0
 23 17  1  0  0  0  0
 24 18  1  0  0  0  0
 26 31  1  0  0  0  0
 27 26  2  0  0  0  0
 27 28  1  0  0  0  0
 28 29  2  0  0  0  0
 29 30  1  0  0  0  0
 29 34  1  0  0  0  0
 30 35  1  0  0  0  0
 31 30  2  0  0  0  0
 32 27  1  0  0  0  0
 33 28  1  0  0  0  0
 35 38  1  0  0  0  0
 35 37  1  0  0  0  0
 35 36  1  0  0  0  0
M  END
>  <minimizedAffinity>
-5.49829054

$$$$

 OpenBabel03242516513D

 38 40  0  0  1  0  0  0  0  0999 V2000
   38.1530   30.6190   39.9440 C   0  0  1  0  0  0  0  0  0  0  0  0
   37.9750   31.8960   40.6640 C   0  0  0  0  0  0  0  0  0  0  0  0
   39.3430   32.5870   40.6350 C   0  0  0  0  0  0  0  0  0  0  0  0
   40.2430   31.7760   41.5480 C   0  0  0  0  0  0  0  0  0  0  0  0
   40.3160   30.3230   41.2030 C   0  0  0  0  0  0  0  0  0  0  0  0
   39.1010   29.6840   40.6680 C   0  0  1  0  0  0  0  0  0  0  0  0
   38.6960   30.8320   38.9730 H   0  0  0  0  0  0  0  0  0  0  0  0
   37.6570   31.7900   41.7110 H   0  0  0  0  0  0  0  0  0  0  0  0
   37.2910   32.5590   40.1070 H   0  0  0  0  0  0  0  0  0  0  0  0
   39.2270   33.5840   41.1180 H   0  0  0  0  0  0  0  0  0  0  0  0
   39.7340   32.6390   39.6210 H   0  0  0  0  0  0  0  0  0  0  0  0
   39.9600   31.9140   42.5930 H   0  0  0  0  0  0  0  0  0  0  0  0
   41.2580   32.2480   41.4450 H   0  0  0  0  0  0  0  0  0  0  0  0
   40.6200   29.7770   42.1230 H   0  0  0  0  0  0  0  0  0  0  0  0
   41.1900   30.1990   40.5000 H   0  0  0  0  0  0  0  0  0  0  0  0
   39.4190   28.9360   39.8780 H   0  0  0  0  0  0  0  0  0  0  0  0
   35.7370   28.4420   38.0290 C   0  0  0  0  0  0  0  0  0  0  0  0
   36.8790   29.1310   38.4330 C   0  0  0  0  0  0  0  0  0  0  0  0
   36.9310   29.9150   39.5780 C   0  0  0  0  0  0  0  0  0  0  0  0
   35.8010   29.9840   40.3000 N   0  0  0  0  0  0  0  0  0  0  0  0
   34.6810   29.3170   39.9160 C   0  0  0  0  0  0  0  0  0  0  0  0
   34.6320   28.5700   38.8240 N   0  0  0  0  0  0  0  0  0  0  0  0
   35.7790   27.8530   37.1240 H   0  0  0  0  0  0  0  0  0  0  0  0
   37.7630   29.0390   37.8120 H   0  0  0  0  0  0  0  0  0  0  0  0
   33.7670   29.3790   40.5080 H   0  0  0  0  0  0  0  0  0  0  0  0
   38.3910   28.8640   41.6610 C   0  0  0  0  0  0  0  0  0  0  0  0
   37.9650   29.2850   42.9310 C   0  0  0  0  0  0  0  0  0  0  0  0
   37.2840   28.3120   43.6790 C   0  0  0  0  0  0  0  0  0  0  0  0
   37.0930   27.0530   43.1240 C   0  0  0  0  0  0  0  0  0  0  0  0
   37.5240   26.6830   41.8840 C   0  0  0  0  0  0  0  0  0  0  0  0
   38.1850   27.6150   41.1470 N   0  0  0  0  0  0  0  0  0  0  0  0
   38.1980   30.2820   43.1920 H   0  0  0  0  0  0  0  0  0  0  0  0
   36.9590   28.6380   44.6500 H   0  0  0  0  0  0  0  0  0  0  0  0
   36.5580   26.3460   43.7560 H   0  0  0  0  0  0  0  0  0  0  0  0
   37.2450   25.2970   41.4250 C   0  0  0  0  0  0  0  0  0  0  0  0
   36.4870   24.6870   42.4020 F   0  0  0  0  0  0  0  0  0  0  0  0
   36.4990   25.4020   40.2460 F   0  0  0  0  0  0  0  0  0  0  0  0
   38.4370   24.6590   41.1880 F   0  0  0  0  0  0  0  0  0  0  0  0
  1  7  1  6  0  0  0
  1  2  1  0  0  0  0
  1  6  1  0  0  0  0
  2  8  1  0  0  0  0
  3  2  1  0  0  0  0
  3 10  1  0  0  0  0
  3  4  1  0  0  0  0
  4 12  1  0  0  0  0
  5  4  1  0  0  0  0
  5 14  1  0  0  0  0
  6 16  1  6  0  0  0
  6  5  1  0  0  0  0
  6 26  1  0  0  0  0
  9  2  1  0  0  0  0
 11  3  1  0  0  0  0
 13  4  1  0  0  0  0
 15  5  1  0  0  0  0
 17 18  2  0  0  0  0
 17 22  1  0  0  0  0
 18 19  1  0  0  0  0
 19  1  1  0  0  0  0
 19 20  2  0  0  0  0
 21 20  1  0  0  0  0
 21 25  1  0  0  0  0
 22 21  2  0  0  0  0
 23 17  1  0  0  0  0
 24 18  1  0  0  0  0
 26 27  1  0  0  0  0
 27 32  1  0  0  0  0
 27 28  2  0  0  0  0
 28 33  1  0  0  0  0
 29 28  1  0  0  0  0
 29 34  1  0  0  0  0
 30 29  2  0  0  0  0
 31 26  2  0  0  0  0
 31 30  1  0  0  0  0
 35 30  1  0  0  0  0
 35 36  1  0  0  0  0
 37 35  1  0  0  0  0
 38 35  1  0  0  0  0
M  END
>  <minimizedAffinity>
-5.41775894

$$$$

 OpenBabel03242516513D

 38 40  0  0  1  0  0  0  0  0999 V2000
   38.9130   24.8330   40.9150 C   0  0  1  0  0  0  0  0  0  0  0  0
   38.2640   23.6990   41.6050 C   0  0  0  0  0  0  0  0  0  0  0  0
   37.3490   23.0440   40.5640 C   0  0  0  0  0  0  0  0  0  0  0  0
   36.2150   24.0230   40.3250 C   0  0  0  0  0  0  0  0  0  0  0  0
   36.6630   25.3940   39.9290 C   0  0  0  0  0  0  0  0  0  0  0  0
   37.9160   25.9010   40.5140 C   0  0  1  0  0  0  0  0  0  0  0  0
   39.3060   24.4640   39.9190 H   0  0  0  0  0  0  0  0  0  0  0  0
   37.6580   23.9810   42.4770 H   0  0  0  0  0  0  0  0  0  0  0  0
   39.0120   22.9340   41.8720 H   0  0  0  0  0  0  0  0  0  0  0  0
   36.8900   22.1460   41.0350 H   0  0  0  0  0  0  0  0  0  0  0  0
   37.8940   22.8230   39.6480 H   0  0  0  0  0  0  0  0  0  0  0  0
   35.5510   24.0650   41.1910 H   0  0  0  0  0  0  0  0  0  0  0  0
   35.6060   23.5630   39.5000 H   0  0  0  0  0  0  0  0  0  0  0  0
   35.8440   26.1000   40.1920 H   0  0  0  0  0  0  0  0  0  0  0  0
   36.6980   25.4120   38.8020 H   0  0  0  0  0  0  0  0  0  0  0  0
   38.4520   26.5050   39.7200 H   0  0  0  0  0  0  0  0  0  0  0  0
   41.2880   25.8140   43.6790 C   0  0  0  0  0  0  0  0  0  0  0  0
   40.2270   25.2570   42.9680 C   0  0  0  0  0  0  0  0  0  0  0  0
   40.0480   25.4340   41.6020 C   0  0  0  0  0  0  0  0  0  0  0  0
   40.9680   26.1880   40.9780 N   0  0  0  0  0  0  0  0  0  0  0  0
   42.0070   26.7370   41.6600 C   0  0  0  0  0  0  0  0  0  0  0  0
   42.1760   26.5680   42.9630 N   0  0  0  0  0  0  0  0  0  0  0  0
   41.3550   25.6290   44.7410 H   0  0  0  0  0  0  0  0  0  0  0  0
   39.5130   24.6580   43.5230 H   0  0  0  0  0  0  0  0  0  0  0  0
   42.7490   27.3480   41.1460 H   0  0  0  0  0  0  0  0  0  0  0  0
   37.6990   26.8680   41.6020 C   0  0  0  0  0  0  0  0  0  0  0  0
   36.9860   26.6340   42.7880 C   0  0  0  0  0  0  0  0  0  0  0  0
   36.9470   27.7190   43.6790 C   0  0  0  0  0  0  0  0  0  0  0  0
   37.5940   28.8970   43.3280 C   0  0  0  0  0  0  0  0  0  0  0  0
   38.2770   29.0840   42.1620 C   0  0  0  0  0  0  0  0  0  0  0  0
   38.3230   28.0420   41.2890 N   0  0  0  0  0  0  0  0  0  0  0  0
   36.5550   25.6740   42.8900 H   0  0  0  0  0  0  0  0  0  0  0  0
   36.4020   27.5360   44.5870 H   0  0  0  0  0  0  0  0  0  0  0  0
   37.5260   29.6980   44.0620 H   0  0  0  0  0  0  0  0  0  0  0  0
   38.9200   30.4030   41.9250 C   0  0  0  0  0  0  0  0  0  0  0  0
   39.4660   30.8130   43.1230 F   0  0  0  0  0  0  0  0  0  0  0  0
   39.9380   30.1970   40.9890 F   0  0  0  0  0  0  0  0  0  0  0  0
   37.9790   31.2730   41.4330 F   0  0  0  0  0  0  0  0  0  0  0  0
  1  7  1  6  0  0  0
  1 19  1  0  0  0  0
  1  2  1  0  0  0  0
  2  9  1  0  0  0  0
  2  8  1  0  0  0  0
  3 10  1  0  0  0  0
  3  2  1  0  0  0  0
  4  3  1  0  0  0  0
  4 12  1  0  0  0  0
  5 14  1  0  0  0  0
  5  4  1  0  0  0  0
  5  6  1  0  0  0  0
  6 16  1  6  0  0  0
  6  1  1  0  0  0  0
  6 26  1  0  0  0  0
 11  3  1  0  0  0  0
 13  4  1  0  0  0  0
 15  5  1  0  0  0  0
 17 23  1  0  0  0  0
 18 24  1  0  0  0  0
 18 17  1  0  0  0  0
 19 18  2  0  0  0  0
 20 19  1  0  0  0  0
 20 21  2  0  0  0  0
 21 22  1  0  0  0  0
 22 17  2  0  0  0  0
 25 21  1  0  0  0  0
 26 27  1  0  0  0  0
 27 32  1  0  0  0  0
 27 28  2  0  0  0  0
 28 33  1  0  0  0  0
 29 28  1  0  0  0  0
 29 34  1  0  0  0  0
 30 29  2  0  0  0  0
 31 26  2  0  0  0  0
 31 30  1  0  0  0  0
 35 30  1  0  0  0  0
 35 36  1  0  0  0  0
 37 35  1  0  0  0  0
 38 35  1  0  0  0  0
M  END
>  <minimizedAffinity>
-5.39041996

$$$$

 OpenBabel03242516513D

 38 40  0  0  1  0  0  0  0  0999 V2000
   36.4360   27.4480   40.2020 C   0  0  1  0  0  0  0  0  0  0  0  0
   37.6690   26.6530   40.3820 C   0  0  0  0  0  0  0  0  0  0  0  0
   37.4210   25.7700   41.6100 C   0  0  0  0  0  0  0  0  0  0  0  0
   37.4120   26.7050   42.8050 C   0  0  0  0  0  0  0  0  0  0  0  0
   36.4380   27.8350   42.6920 C   0  0  0  0  0  0  0  0  0  0  0  0
   36.2020   28.4040   41.3540 C   0  0  1  0  0  0  0  0  0  0  0  0
   35.5500   26.7470   40.2670 H   0  0  0  0  0  0  0  0  0  0  0  0
   38.5760   27.2490   40.5550 H   0  0  0  0  0  0  0  0  0  0  0  0
   37.8050   25.9600   39.5350 H   0  0  0  0  0  0  0  0  0  0  0  0
   38.3100   25.1120   41.7380 H   0  0  0  0  0  0  0  0  0  0  0  0
   36.4860   25.2230   41.5170 H   0  0  0  0  0  0  0  0  0  0  0  0
   38.4160   27.0770   43.0140 H   0  0  0  0  0  0  0  0  0  0  0  0
   37.1450   26.0520   43.6800 H   0  0  0  0  0  0  0  0  0  0  0  0
   36.7940   28.6500   43.3600 H   0  0  0  0  0  0  0  0  0  0  0  0
   35.4760   27.4830   43.1650 H   0  0  0  0  0  0  0  0  0  0  0  0
   35.1040   28.6740   41.2790 H   0  0  0  0  0  0  0  0  0  0  0  0
   34.8710   29.1050   37.1940 C   0  0  0  0  0  0  0  0  0  0  0  0
   35.0560   28.4450   38.4080 C   0  0  0  0  0  0  0  0  0  0  0  0
   36.3070   28.1490   38.9310 C   0  0  0  0  0  0  0  0  0  0  0  0
   37.3630   28.5350   38.1960 N   0  0  0  0  0  0  0  0  0  0  0  0
   37.1960   29.1780   37.0100 C   0  0  0  0  0  0  0  0  0  0  0  0
   36.0010   29.4600   36.5120 N   0  0  0  0  0  0  0  0  0  0  0  0
   33.8630   29.2980   36.8560 H   0  0  0  0  0  0  0  0  0  0  0  0
   34.1680   28.1570   38.9590 H   0  0  0  0  0  0  0  0  0  0  0  0
   38.0580   29.4870   36.4190 H   0  0  0  0  0  0  0  0  0  0  0  0
   36.8930   29.6850   41.1390 C   0  0  0  0  0  0  0  0  0  0  0  0
   36.3220   30.8560   40.6150 C   0  0  0  0  0  0  0  0  0  0  0  0
   37.1940   31.9540   40.5350 C   0  0  0  0  0  0  0  0  0  0  0  0
   38.5060   31.8000   40.9650 C   0  0  0  0  0  0  0  0  0  0  0  0
   39.0220   30.6410   41.4680 C   0  0  0  0  0  0  0  0  0  0  0  0
   38.1900   29.5690   41.5510 N   0  0  0  0  0  0  0  0  0  0  0  0
   35.3050   30.7930   40.3380 H   0  0  0  0  0  0  0  0  0  0  0  0
   36.7540   32.8490   40.1350 H   0  0  0  0  0  0  0  0  0  0  0  0
   39.1290   32.6880   40.8760 H   0  0  0  0  0  0  0  0  0  0  0  0
   40.4490   30.6280   41.8870 C   0  0  0  0  0  0  0  0  0  0  0  0
   40.5210   31.2610   43.1100 F   0  0  0  0  0  0  0  0  0  0  0  0
   40.8180   29.2860   42.0270 F   0  0  0  0  0  0  0  0  0  0  0  0
   41.2020   31.2390   40.9170 F   0  0  0  0  0  0  0  0  0  0  0  0
  1  7  1  1  0  0  0
  1  2  1  0  0  0  0
  1  6  1  0  0  0  0
  2  8  1  0  0  0  0
  2  3  1  0  0  0  0
  3 10  1  0  0  0  0
  3  4  1  0  0  0  0
  4 12  1  0  0  0  0
  4 13  1  0  0  0  0
  5  4  1  0  0  0  0
  5 15  1  0  0  0  0
  5 14  1  0  0  0  0
  6 16  1  6  0  0  0
  6  5  1  0  0  0  0
  9  2  1  0  0  0  0
 11  3  1  0  0  0  0
 17 18  1  0  0  0  0
 18 19  2  0  0  0  0
 18 24  1  0  0  0  0
 19  1  1  0  0  0  0
 20 19  1  0  0  0  0
 21 20  2  0  0  0  0
 22 21  1  0  0  0  0
 22 17  2  0  0  0  0
 23 17  1  0  0  0  0
 25 21  1  0  0  0  0
 26  6  1  0  0  0  0
 26 31  1  0  0  0  0
 27 26  2  0  0  0  0
 28 27  1  0  0  0  0
 28 29  2  0  0  0  0
 29 30  1  0  0  0  0
 30 31  2  0  0  0  0
 30 35  1  0  0  0  0
 32 27  1  0  0  0  0
 33 28  1  0  0  0  0
 34 29  1  0  0  0  0
 35 37  1  0  0  0  0
 35 36  1  0  0  0  0
 38 35  1  0  0  0  0
M  END
>  <minimizedAffinity>
-5.33774424

$$$$

 OpenBabel03242516513D

 38 40  0  0  1  0  0  0  0  0999 V2000
   36.1460   28.0270   40.1360 C   0  0  1  0  0  0  0  0  0  0  0  0
   35.1420   29.1100   40.2020 C   0  0  0  0  0  0  0  0  0  0  0  0
   34.2670   28.9450   38.9540 C   0  0  0  0  0  0  0  0  0  0  0  0
   35.1400   29.3270   37.7740 C   0  0  0  0  0  0  0  0  0  0  0  0
   36.4250   28.5660   37.6910 C   0  0  0  0  0  0  0  0  0  0  0  0
   37.0800   28.1880   38.9550 C   0  0  1  0  0  0  0  0  0  0  0  0
   35.6060   27.0580   39.9070 H   0  0  0  0  0  0  0  0  0  0  0  0
   35.5640   30.1250   40.2030 H   0  0  0  0  0  0  0  0  0  0  0  0
   34.4700   28.9590   41.0630 H   0  0  0  0  0  0  0  0  0  0  0  0
   33.4600   29.7110   39.0040 H   0  0  0  0  0  0  0  0  0  0  0  0
   33.8940   27.9270   38.8700 H   0  0  0  0  0  0  0  0  0  0  0  0
   35.3240   30.4030   37.7610 H   0  0  0  0  0  0  0  0  0  0  0  0
   34.5090   29.1180   36.8690 H   0  0  0  0  0  0  0  0  0  0  0  0
   37.1390   29.1810   37.0990 H   0  0  0  0  0  0  0  0  0  0  0  0
   36.2270   27.6640   37.0430 H   0  0  0  0  0  0  0  0  0  0  0  0
   37.5390   27.1610   38.8160 H   0  0  0  0  0  0  0  0  0  0  0  0
   37.7400   28.6030   43.5080 C   0  0  0  0  0  0  0  0  0  0  0  0
   37.0180   28.7720   42.3280 C   0  0  0  0  0  0  0  0  0  0  0  0
   36.9080   27.7880   41.3540 C   0  0  0  0  0  0  0  0  0  0  0  0
   37.5470   26.6340   41.6050 N   0  0  0  0  0  0  0  0  0  0  0  0
   38.2550   26.4570   42.7510 C   0  0  0  0  0  0  0  0  0  0  0  0
   38.3590   27.3960   43.6800 N   0  0  0  0  0  0  0  0  0  0  0  0
   37.7760   29.4180   44.2160 H   0  0  0  0  0  0  0  0  0  0  0  0
   36.5220   29.7250   42.1790 H   0  0  0  0  0  0  0  0  0  0  0  0
   38.7710   25.5170   42.9460 H   0  0  0  0  0  0  0  0  0  0  0  0
   38.2290   29.0420   39.2910 C   0  0  0  0  0  0  0  0  0  0  0  0
   39.5460   28.6100   39.5150 C   0  0  0  0  0  0  0  0  0  0  0  0
   40.4650   29.6330   39.7960 C   0  0  0  0  0  0  0  0  0  0  0  0
   40.0150   30.9470   39.8290 C   0  0  0  0  0  0  0  0  0  0  0  0
   38.7240   31.3260   39.6050 C   0  0  0  0  0  0  0  0  0  0  0  0
   37.8220   30.3460   39.3320 N   0  0  0  0  0  0  0  0  0  0  0  0
   39.7100   27.5680   39.4510 H   0  0  0  0  0  0  0  0  0  0  0  0
   41.4720   29.2990   39.9660 H   0  0  0  0  0  0  0  0  0  0  0  0
   40.7780   31.6910   40.0510 H   0  0  0  0  0  0  0  0  0  0  0  0
   38.3910   32.7730   39.6740 C   0  0  0  0  0  0  0  0  0  0  0  0
   38.2380   33.0940   41.0070 F   0  0  0  0  0  0  0  0  0  0  0  0
   39.4850   33.4670   39.1460 F   0  0  0  0  0  0  0  0  0  0  0  0
   37.2640   33.0070   38.9280 F   0  0  0  0  0  0  0  0  0  0  0  0
  1  7  1  6  0  0  0
  1  2  1  0  0  0  0
  1 19  1  0  0  0  0
  2  8  1  0  0  0  0
  2  9  1  0  0  0  0
  3 10  1  0  0  0  0
  3  2  1  0  0  0  0
  4  3  1  0  0  0  0
  5  4  1  0  0  0  0
  5  6  1  0  0  0  0
  6 16  1  6  0  0  0
  6 26  1  0  0  0  0
  6  1  1  0  0  0  0
 11  3  1  0  0  0  0
 12  4  1  0  0  0  0
 13  4  1  0  0  0  0
 14  5  1  0  0  0  0
 15  5  1  0  0  0  0
 17 22  1  0  0  0  0
 17 23  1  0  0  0  0
 18 17  2  0  0  0  0
 19 20  2  0  0  0  0
 19 18  1  0  0  0  0
 20 21  1  0  0  0  0
 21 25  1  0  0  0  0
 21 22  2  0  0  0  0
 24 18  1  0  0  0  0
 26 31  2  0  0  0  0
 26 27  1  0  0  0  0
 27 28  2  0  0  0  0
 28 29  1  0  0  0  0
 28 33  1  0  0  0  0
 29 34  1  0  0  0  0
 30 35  1  0  0  0  0
 30 29  2  0  0  0  0
 31 30  1  0  0  0  0
 32 27  1  0  0  0  0
 35 36  1  0  0  0  0
 37 35  1  0  0  0  0
 38 35  1  0  0  0  0
M  END
>  <minimizedAffinity>
-5.30443048

$$$$
