
 OpenBabel03242516573D

 23 24  0  0  0  0  0  0  0  0999 V2000
   46.7300   34.8030   42.0130 C   0  0  0  0  0  0  0  0  0  0  0  0
   47.9940   35.3260   41.9620 C   0  0  0  0  0  0  0  0  0  0  0  0
   48.7760   35.2310   40.8380 C   0  0  0  0  0  0  0  0  0  0  0  0
   48.2370   34.5790   39.7410 C   0  0  0  0  0  0  0  0  0  0  0  0
   46.9780   34.0330   39.7240 C   0  0  0  0  0  0  0  0  0  0  0  0
   46.2430   34.1710   40.9060 C   0  0  0  0  0  0  0  0  0  0  0  0
   48.4270   35.8400   42.8200 H   0  0  0  0  0  0  0  0  0  0  0  0
   49.7800   35.6380   40.7780 H   0  0  0  0  0  0  0  0  0  0  0  0
   48.8380   34.4930   38.8440 H   0  0  0  0  0  0  0  0  0  0  0  0
   46.5440   33.5210   38.8750 H   0  0  0  0  0  0  0  0  0  0  0  0
   44.4580   36.0700   44.7460 C   0  0  0  0  0  0  0  0  0  0  0  0
   45.1210   36.0320   43.4960 C   0  0  0  0  0  0  0  0  0  0  0  0
   45.9890   34.9600   43.2550 C   0  0  0  0  0  0  0  0  0  0  0  0
   46.1360   34.0390   44.2240 N   0  0  0  0  0  0  0  0  0  0  0  0
   45.4980   34.0860   45.4120 C   0  0  0  0  0  0  0  0  0  0  0  0
   44.6460   35.1220   45.6720 N   0  0  0  0  0  0  0  0  0  0  0  0
   43.8080   36.9380   44.8370 H   0  0  0  0  0  0  0  0  0  0  0  0
   44.9910   36.7800   42.7280 H   0  0  0  0  0  0  0  0  0  0  0  0
   45.6670   33.3090   46.1440 H   0  0  0  0  0  0  0  0  0  0  0  0
   44.8680   33.6090   40.9830 C   0  0  0  0  0  0  0  0  0  0  0  0
   44.5420   32.9180   39.8250 F   0  0  0  0  0  0  0  0  0  0  0  0
   43.9790   34.6680   41.0970 F   0  0  0  0  0  0  0  0  0  0  0  0
   44.7320   32.8210   42.1050 F   0  0  0  0  0  0  0  0  0  0  0  0
  1 13  1  0  0  0  0
  2  1  1  0  0  0  0
  2  7  1  0  0  0  0
  3  2  2  0  0  0  0
  4  3  1  0  0  0  0
  5  4  2  0  0  0  0
  5  6  1  0  0  0  0
  6 20  1  0  0  0  0
  6  1  2  0  0  0  0
  8  3  1  0  0  0  0
  9  4  1  0  0  0  0
 10  5  1  0  0  0  0
 11 17  1  0  0  0  0
 11 16  1  0  0  0  0
 12 11  2  0  0  0  0
 13 12  1  0  0  0  0
 13 14  2  0  0  0  0
 14 15  1  0  0  0  0
 15 16  2  0  0  0  0
 15 19  1  0  0  0  0
 18 12  1  0  0  0  0
 20 22  1  0  0  0  0
 20 23  1  0  0  0  0
 21 20  1  0  0  0  0
M  END
>  <minimizedAffinity>
-5.29689693

>  <minimizedRMSD>
0.622442544

$$$$
