
 OpenBabel03242514413D

 27 28  0  0  1  0  0  0  0  0999 V2000
   46.0410   34.1920   41.6180 N   0  0  0  0  0  0  0  0  0  0  0  0
   45.0220   34.0260   40.5850 C   0  0  0  0  0  0  0  0  0  0  0  0
   45.5360   33.2580   39.3990 C   0  0  0  0  0  0  0  0  0  0  0  0
   46.7640   33.7340   38.8740 N   0  0  0  0  0  0  0  0  0  0  0  0
   47.7060   34.2040   39.8110 C   0  0  0  0  0  0  0  0  0  0  0  0
   47.4050   34.1110   41.2560 C   0  0  1  0  0  0  0  0  0  0  0  0
   44.2360   33.3840   41.0600 H   0  0  0  0  0  0  0  0  0  0  0  0
   44.6400   35.0320   40.3250 H   0  0  0  0  0  0  0  0  0  0  0  0
   45.5410   32.1790   39.6400 H   0  0  0  0  0  0  0  0  0  0  0  0
   44.7660   33.3890   38.5910 H   0  0  0  0  0  0  0  0  0  0  0  0
   46.6810   34.3000   38.0050 H   0  0  0  0  0  0  0  0  0  0  0  0
   48.6580   33.6470   39.6250 H   0  0  0  0  0  0  0  0  0  0  0  0
   47.9600   35.2610   39.5390 H   0  0  0  0  0  0  0  0  0  0  0  0
   47.8250   33.1570   41.6750 H   0  0  0  0  0  0  0  0  0  0  0  0
   44.5500   35.6230   44.7270 C   0  0  0  0  0  0  0  0  0  0  0  0
   44.8600   35.4880   43.3650 C   0  0  0  0  0  0  0  0  0  0  0  0
   45.6620   34.4240   42.9570 C   0  0  0  0  0  0  0  0  0  0  0  0
   46.0930   33.5760   43.9430 N   0  0  0  0  0  0  0  0  0  0  0  0
   45.7760   33.7340   45.2460 C   0  0  0  0  0  0  0  0  0  0  0  0
   45.0000   34.7650   45.6310 N   0  0  0  0  0  0  0  0  0  0  0  0
   43.9350   36.4610   44.9560 H   0  0  0  0  0  0  0  0  0  0  0  0
   44.4870   36.1900   42.6320 H   0  0  0  0  0  0  0  0  0  0  0  0
   46.1650   33.0080   45.9560 H   0  0  0  0  0  0  0  0  0  0  0  0
   48.1620   35.2210   41.9530 C   0  0  0  0  0  0  0  0  0  0  0  0
   48.8420   34.7040   43.0250 F   0  0  0  0  0  0  0  0  0  0  0  0
   47.2990   36.2450   42.3350 F   0  0  0  0  0  0  0  0  0  0  0  0
   49.1150   35.7420   41.0890 F   0  0  0  0  0  0  0  0  0  0  0  0
  1 17  1  0  0  0  0
  2  7  1  0  0  0  0
  2  1  1  0  0  0  0
  3  9  1  0  0  0  0
  3  2  1  0  0  0  0
  4  3  1  0  0  0  0
  4  5  1  0  0  0  0
  5  6  1  0  0  0  0
  6  1  1  0  0  0  0
  6 14  1  1  0  0  0
  6 24  1  0  0  0  0
  8  2  1  0  0  0  0
 10  3  1  0  0  0  0
 11  4  1  0  0  0  0
 12  5  1  0  0  0  0
 13  5  1  0  0  0  0
 15 21  1  0  0  0  0
 15 20  1  0  0  0  0
 16 15  2  0  0  0  0
 17 16  1  0  0  0  0
 17 18  2  0  0  0  0
 18 19  1  0  0  0  0
 19 20  2  0  0  0  0
 19 23  1  0  0  0  0
 22 16  1  0  0  0  0
 24 26  1  0  0  0  0
 24 25  1  0  0  0  0
 27 24  1  0  0  0  0
M  END
>  <minimizedAffinity>
-4.99352312

>  <minimizedRMSD>
1.39795601

$$$$
