
 OpenBabel03252505453D

 20 21  0  0  1  0  0  0  0  0999 V2000
   37.1130   27.3060   42.7270 C   0  0  1  0  0  0  0  0  0  0  0  0
   38.0600   26.3260   41.9800 C   0  0  1  0  0  0  0  0  0  0  0  0
   38.4230   27.0090   43.2590 C   0  0  0  0  0  0  0  0  0  0  0  0
   36.2000   26.8310   43.1560 H   0  0  0  0  0  0  0  0  0  0  0  0
   38.4780   26.6390   41.0250 H   0  0  0  0  0  0  0  0  0  0  0  0
   39.2040   27.8110   43.1170 H   0  0  0  0  0  0  0  0  0  0  0  0
   38.5880   26.4300   44.1640 H   0  0  0  0  0  0  0  0  0  0  0  0
   36.8200   28.5180   41.9310 C   0  0  0  0  0  0  0  0  0  0  0  0
   35.7120   28.4880   41.0250 C   0  0  0  0  0  0  0  0  0  0  0  0
   35.4120   29.6190   40.2730 C   0  0  0  0  0  0  0  0  0  0  0  0
   36.2200   30.7180   40.4550 N   0  0  0  0  0  0  0  0  0  0  0  0
   37.2610   30.7080   41.3240 C   0  0  0  0  0  0  0  0  0  0  0  0
   37.5520   29.6260   42.0440 N   0  0  0  0  0  0  0  0  0  0  0  0
   35.1200   27.5890   40.9330 H   0  0  0  0  0  0  0  0  0  0  0  0
   34.5860   29.6360   39.5800 H   0  0  0  0  0  0  0  0  0  0  0  0
   37.7940   31.6420   41.3510 H   0  0  0  0  0  0  0  0  0  0  0  0
   37.6510   24.8790   42.1040 C   0  0  0  0  0  0  0  0  0  0  0  0
   36.3550   24.7610   42.5920 F   0  0  0  0  0  0  0  0  0  0  0  0
   37.6470   24.3220   40.8200 F   0  0  0  0  0  0  0  0  0  0  0  0
   38.5550   24.1790   42.8520 F   0  0  0  0  0  0  0  0  0  0  0  0
  1  4  1  1  0  0  0
  1  3  1  0  0  0  0
  2  5  1  6  0  0  0
  2 17  1  0  0  0  0
  2  1  1  0  0  0  0
  2  3  1  0  0  0  0
  3  7  1  0  0  0  0
  6  3  1  0  0  0  0
  8 13  1  0  0  0  0
  8  1  1  0  0  0  0
  9  8  2  0  0  0  0
 10 11  2  0  0  0  0
 10  9  1  0  0  0  0
 11 12  1  0  0  0  0
 12 16  1  0  0  0  0
 12 13  2  0  0  0  0
 14  9  1  0  0  0  0
 15 10  1  0  0  0  0
 17 18  1  0  0  0  0
 17 20  1  0  0  0  0
 19 17  1  0  0  0  0
M  END
>  <minimizedAffinity>
-4.19531775

$$$$

 OpenBabel03252505453D

 20 21  0  0  1  0  0  0  0  0999 V2000
   37.4020   28.8720   40.6350 C   0  0  1  0  0  0  0  0  0  0  0  0
   36.4350   28.5880   41.8180 C   0  0  1  0  0  0  0  0  0  0  0  0
   36.1040   28.2850   40.3920 C   0  0  0  0  0  0  0  0  0  0  0  0
   38.3230   28.2450   40.6300 H   0  0  0  0  0  0  0  0  0  0  0  0
   35.9950   29.4350   42.3410 H   0  0  0  0  0  0  0  0  0  0  0  0
   35.3220   28.9810   39.9710 H   0  0  0  0  0  0  0  0  0  0  0  0
   35.9590   27.2590   40.0670 H   0  0  0  0  0  0  0  0  0  0  0  0
   37.6790   30.3170   40.4730 C   0  0  0  0  0  0  0  0  0  0  0  0
   36.8760   31.0660   39.5540 C   0  0  0  0  0  0  0  0  0  0  0  0
   37.1120   32.4270   39.3920 C   0  0  0  0  0  0  0  0  0  0  0  0
   38.1240   32.9760   40.1460 N   0  0  0  0  0  0  0  0  0  0  0  0
   38.8610   32.2320   41.0070 C   0  0  0  0  0  0  0  0  0  0  0  0
   38.6400   30.9290   41.1620 N   0  0  0  0  0  0  0  0  0  0  0  0
   36.0970   30.5680   38.9950 H   0  0  0  0  0  0  0  0  0  0  0  0
   36.5290   33.0250   38.7100 H   0  0  0  0  0  0  0  0  0  0  0  0
   39.6130   32.8080   41.5200 H   0  0  0  0  0  0  0  0  0  0  0  0
   36.8430   27.4040   42.6600 C   0  0  0  0  0  0  0  0  0  0  0  0
   38.0640   27.6270   43.2870 F   0  0  0  0  0  0  0  0  0  0  0  0
   35.8940   27.2520   43.6770 F   0  0  0  0  0  0  0  0  0  0  0  0
   36.8390   26.2550   41.9210 F   0  0  0  0  0  0  0  0  0  0  0  0
  1  4  1  6  0  0  0
  1  2  1  0  0  0  0
  2  5  1  1  0  0  0
  2 17  1  0  0  0  0
  3  1  1  0  0  0  0
  3  2  1  0  0  0  0
  6  3  1  0  0  0  0
  7  3  1  0  0  0  0
  8  1  1  0  0  0  0
  8 13  1  0  0  0  0
  9  8  2  0  0  0  0
 10  9  1  0  0  0  0
 10 11  2  0  0  0  0
 11 12  1  0  0  0  0
 12 13  2  0  0  0  0
 12 16  1  0  0  0  0
 14  9  1  0  0  0  0
 15 10  1  0  0  0  0
 17 18  1  0  0  0  0
 17 19  1  0  0  0  0
 20 17  1  0  0  0  0
M  END
>  <minimizedAffinity>
-4.07476616

$$$$

 OpenBabel03252505453D

 20 21  0  0  1  0  0  0  0  0999 V2000
   36.7200   30.9070   40.9750 C   0  0  1  0  0  0  0  0  0  0  0  0
   37.8160   31.3350   39.9600 C   0  0  1  0  0  0  0  0  0  0  0  0
   36.4480   30.8890   39.5560 C   0  0  0  0  0  0  0  0  0  0  0  0
   36.3390   31.7320   41.6200 H   0  0  0  0  0  0  0  0  0  0  0  0
   38.6870   30.6940   39.8380 H   0  0  0  0  0  0  0  0  0  0  0  0
   36.4490   29.8720   39.0690 H   0  0  0  0  0  0  0  0  0  0  0  0
   35.7670   31.5790   39.0650 H   0  0  0  0  0  0  0  0  0  0  0  0
   37.1050   29.7000   41.7390 C   0  0  0  0  0  0  0  0  0  0  0  0
   36.3890   28.4830   41.4990 C   0  0  0  0  0  0  0  0  0  0  0  0
   36.7400   27.3340   42.1980 C   0  0  0  0  0  0  0  0  0  0  0  0
   37.7780   27.4440   43.0940 N   0  0  0  0  0  0  0  0  0  0  0  0
   38.4330   28.6150   43.2930 C   0  0  0  0  0  0  0  0  0  0  0  0
   38.0980   29.7180   42.6270 N   0  0  0  0  0  0  0  0  0  0  0  0
   35.5830   28.4700   40.7790 H   0  0  0  0  0  0  0  0  0  0  0  0
   36.2250   26.3990   42.0460 H   0  0  0  0  0  0  0  0  0  0  0  0
   39.2180   28.5370   44.0250 H   0  0  0  0  0  0  0  0  0  0  0  0
   38.0560   32.8250   39.9230 C   0  0  0  0  0  0  0  0  0  0  0  0
   38.4640   33.3010   41.1640 F   0  0  0  0  0  0  0  0  0  0  0  0
   39.1090   33.0680   39.0350 F   0  0  0  0  0  0  0  0  0  0  0  0
   36.9580   33.4840   39.4470 F   0  0  0  0  0  0  0  0  0  0  0  0
  1  4  1  1  0  0  0
  1  8  1  0  0  0  0
  2  5  1  6  0  0  0
  2  1  1  0  0  0  0
  3  2  1  0  0  0  0
  3  1  1  0  0  0  0
  6  3  1  0  0  0  0
  7  3  1  0  0  0  0
  8 13  1  0  0  0  0
  9  8  2  0  0  0  0
  9 10  1  0  0  0  0
 10 11  2  0  0  0  0
 11 12  1  0  0  0  0
 12 16  1  0  0  0  0
 13 12  2  0  0  0  0
 14  9  1  0  0  0  0
 15 10  1  0  0  0  0
 17  2  1  0  0  0  0
 17 18  1  0  0  0  0
 19 17  1  0  0  0  0
 20 17  1  0  0  0  0
M  END
>  <minimizedAffinity>
-4.05740499

$$$$

 OpenBabel03252505453D

 20 21  0  0  1  0  0  0  0  0999 V2000
   37.1640   25.3560   42.2660 C   0  0  1  0  0  0  0  0  0  0  0  0
   37.8330   24.7720   40.9900 C   0  0  1  0  0  0  0  0  0  0  0  0
   38.3520   24.5400   42.3720 C   0  0  0  0  0  0  0  0  0  0  0  0
   36.1580   24.9350   42.4950 H   0  0  0  0  0  0  0  0  0  0  0  0
   38.3230   25.4580   40.3020 H   0  0  0  0  0  0  0  0  0  0  0  0
   39.3130   25.0960   42.5740 H   0  0  0  0  0  0  0  0  0  0  0  0
   38.3590   23.5410   42.7970 H   0  0  0  0  0  0  0  0  0  0  0  0
   37.1960   26.8360   42.2860 C   0  0  0  0  0  0  0  0  0  0  0  0
   37.9620   27.4870   43.3050 C   0  0  0  0  0  0  0  0  0  0  0  0
   38.0150   28.8760   43.3380 C   0  0  0  0  0  0  0  0  0  0  0  0
   37.3100   29.5480   42.3650 N   0  0  0  0  0  0  0  0  0  0  0  0
   36.5970   28.8940   41.4160 C   0  0  0  0  0  0  0  0  0  0  0  0
   36.5430   27.5640   41.3830 N   0  0  0  0  0  0  0  0  0  0  0  0
   38.4910   26.8950   44.0380 H   0  0  0  0  0  0  0  0  0  0  0  0
   38.5800   29.4040   44.0890 H   0  0  0  0  0  0  0  0  0  0  0  0
   36.1030   29.5600   40.7290 H   0  0  0  0  0  0  0  0  0  0  0  0
   37.0660   23.6240   40.3790 C   0  0  0  0  0  0  0  0  0  0  0  0
   35.7010   23.7510   40.6070 F   0  0  0  0  0  0  0  0  0  0  0  0
   37.2470   23.6780   38.9920 F   0  0  0  0  0  0  0  0  0  0  0  0
   37.5570   22.4240   40.8100 F   0  0  0  0  0  0  0  0  0  0  0  0
  1  8  1  0  0  0  0
  1  3  1  0  0  0  0
  1  4  1  1  0  0  0
  2  5  1  6  0  0  0
  2  1  1  0  0  0  0
  2  3  1  0  0  0  0
  3  6  1  0  0  0  0
  3  7  1  0  0  0  0
  8  9  1  0  0  0  0
  9 10  2  0  0  0  0
  9 14  1  0  0  0  0
 10 15  1  0  0  0  0
 11 10  1  0  0  0  0
 12 11  2  0  0  0  0
 13 12  1  0  0  0  0
 13  8  2  0  0  0  0
 16 12  1  0  0  0  0
 17 18  1  0  0  0  0
 17 20  1  0  0  0  0
 17  2  1  0  0  0  0
 19 17  1  0  0  0  0
M  END
>  <minimizedAffinity>
-3.94285393

$$$$

 OpenBabel03252505453D

 20 21  0  0  1  0  0  0  0  0999 V2000
   37.4130   28.4300   42.7760 C   0  0  1  0  0  0  0  0  0  0  0  0
   38.1630   27.1770   42.2450 C   0  0  1  0  0  0  0  0  0  0  0  0
   38.1740   27.5980   43.6790 C   0  0  0  0  0  0  0  0  0  0  0  0
   36.3020   28.3580   42.7300 H   0  0  0  0  0  0  0  0  0  0  0  0
   39.0260   27.3260   41.5980 H   0  0  0  0  0  0  0  0  0  0  0  0
   39.1720   28.0100   44.0040 H   0  0  0  0  0  0  0  0  0  0  0  0
   37.7230   26.9680   44.4400 H   0  0  0  0  0  0  0  0  0  0  0  0
   37.9400   29.6860   42.1960 C   0  0  0  0  0  0  0  0  0  0  0  0
   37.1450   30.3770   41.2280 C   0  0  0  0  0  0  0  0  0  0  0  0
   37.6160   31.5640   40.6770 C   0  0  0  0  0  0  0  0  0  0  0  0
   38.8450   32.0050   41.1110 N   0  0  0  0  0  0  0  0  0  0  0  0
   39.5680   31.3220   42.0310 C   0  0  0  0  0  0  0  0  0  0  0  0
   39.1210   30.1840   42.5590 N   0  0  0  0  0  0  0  0  0  0  0  0
   36.1870   29.9700   40.9330 H   0  0  0  0  0  0  0  0  0  0  0  0
   37.0460   32.1130   39.9440 H   0  0  0  0  0  0  0  0  0  0  0  0
   40.5050   31.7970   42.2650 H   0  0  0  0  0  0  0  0  0  0  0  0
   37.2490   26.0240   41.9080 C   0  0  0  0  0  0  0  0  0  0  0  0
   36.5650   26.2530   40.7200 F   0  0  0  0  0  0  0  0  0  0  0  0
   38.0450   24.8920   41.6990 F   0  0  0  0  0  0  0  0  0  0  0  0
   36.4090   25.7480   42.9490 F   0  0  0  0  0  0  0  0  0  0  0  0
  1  4  1  1  0  0  0
  1  3  1  0  0  0  0
  2  5  1  6  0  0  0
  2  1  1  0  0  0  0
  2  3  1  0  0  0  0
  3  6  1  0  0  0  0
  3  7  1  0  0  0  0
  8 13  1  0  0  0  0
  8  1  1  0  0  0  0
  9  8  2  0  0  0  0
 10 11  2  0  0  0  0
 10  9  1  0  0  0  0
 11 12  1  0  0  0  0
 12 16  1  0  0  0  0
 12 13  2  0  0  0  0
 14  9  1  0  0  0  0
 15 10  1  0  0  0  0
 17  2  1  0  0  0  0
 17 20  1  0  0  0  0
 18 17  1  0  0  0  0
 19 17  1  0  0  0  0
M  END
>  <minimizedAffinity>
-3.90131927

$$$$

 OpenBabel03252505453D

 20 21  0  0  1  0  0  0  0  0999 V2000
   38.3810   29.2590   42.9440 C   0  0  1  0  0  0  0  0  0  0  0  0
   38.1770   28.0250   42.0220 C   0  0  1  0  0  0  0  0  0  0  0  0
   38.9690   27.9860   43.2880 C   0  0  0  0  0  0  0  0  0  0  0  0
   37.4550   29.6170   43.4500 H   0  0  0  0  0  0  0  0  0  0  0  0
   38.6570   28.0250   41.0450 H   0  0  0  0  0  0  0  0  0  0  0  0
   40.0790   27.8910   43.1030 H   0  0  0  0  0  0  0  0  0  0  0  0
   38.6390   27.3770   44.1250 H   0  0  0  0  0  0  0  0  0  0  0  0
   39.1340   30.3420   42.2720 C   0  0  0  0  0  0  0  0  0  0  0  0
   40.5300   30.4790   42.5540 C   0  0  0  0  0  0  0  0  0  0  0  0
   41.2600   31.4820   41.9270 C   0  0  0  0  0  0  0  0  0  0  0  0
   40.5740   32.2960   41.0550 N   0  0  0  0  0  0  0  0  0  0  0  0
   39.2500   32.1340   40.8130 C   0  0  0  0  0  0  0  0  0  0  0  0
   38.5480   31.1750   41.4130 N   0  0  0  0  0  0  0  0  0  0  0  0
   41.0040   29.8020   43.2520 H   0  0  0  0  0  0  0  0  0  0  0  0
   42.3130   31.6180   42.1140 H   0  0  0  0  0  0  0  0  0  0  0  0
   38.8620   32.8490   40.1080 H   0  0  0  0  0  0  0  0  0  0  0  0
   36.7890   27.4370   42.1000 C   0  0  0  0  0  0  0  0  0  0  0  0
   35.8220   28.3790   41.7700 F   0  0  0  0  0  0  0  0  0  0  0  0
   36.7000   26.4200   41.1420 F   0  0  0  0  0  0  0  0  0  0  0  0
   36.5680   26.8690   43.3230 F   0  0  0  0  0  0  0  0  0  0  0  0
  1  3  1  0  0  0  0
  1  4  1  1  0  0  0
  2  5  1  6  0  0  0
  2 17  1  0  0  0  0
  2  1  1  0  0  0  0
  2  3  1  0  0  0  0
  3  7  1  0  0  0  0
  6  3  1  0  0  0  0
  8  9  1  0  0  0  0
  8  1  1  0  0  0  0
  9 14  1  0  0  0  0
 10 15  1  0  0  0  0
 10  9  2  0  0  0  0
 11 10  1  0  0  0  0
 12 11  2  0  0  0  0
 12 13  1  0  0  0  0
 13  8  2  0  0  0  0
 16 12  1  0  0  0  0
 17 20  1  0  0  0  0
 18 17  1  0  0  0  0
 19 17  1  0  0  0  0
M  END
>  <minimizedAffinity>
-3.89039397

$$$$

 OpenBabel03252505453D

 20 21  0  0  1  0  0  0  0  0999 V2000
   36.6040   29.1770   40.1080 C   0  0  1  0  0  0  0  0  0  0  0  0
   35.0580   29.3040   40.0080 C   0  0  1  0  0  0  0  0  0  0  0  0
   35.9810   30.4790   40.0400 C   0  0  0  0  0  0  0  0  0  0  0  0
   37.0910   28.7280   39.2120 H   0  0  0  0  0  0  0  0  0  0  0  0
   34.4590   29.0220   40.8710 H   0  0  0  0  0  0  0  0  0  0  0  0
   35.9250   31.0490   41.0120 H   0  0  0  0  0  0  0  0  0  0  0  0
   36.0600   31.1390   39.1810 H   0  0  0  0  0  0  0  0  0  0  0  0
   37.0330   28.5530   41.3800 C   0  0  0  0  0  0  0  0  0  0  0  0
   37.1080   27.1250   41.4480 C   0  0  0  0  0  0  0  0  0  0  0  0
   37.5170   26.5170   42.6290 C   0  0  0  0  0  0  0  0  0  0  0  0
   37.8320   27.3490   43.6790 N   0  0  0  0  0  0  0  0  0  0  0  0
   37.7490   28.6980   43.5750 C   0  0  0  0  0  0  0  0  0  0  0  0
   37.3550   29.2840   42.4460 N   0  0  0  0  0  0  0  0  0  0  0  0
   36.8450   26.5340   40.5820 H   0  0  0  0  0  0  0  0  0  0  0  0
   37.5860   25.4450   42.7200 H   0  0  0  0  0  0  0  0  0  0  0  0
   38.0280   29.2060   44.4820 H   0  0  0  0  0  0  0  0  0  0  0  0
   34.5100   28.9390   38.6490 C   0  0  0  0  0  0  0  0  0  0  0  0
   35.1210   29.6780   37.6430 F   0  0  0  0  0  0  0  0  0  0  0  0
   34.8250   27.5970   38.4070 F   0  0  0  0  0  0  0  0  0  0  0  0
   33.1490   29.0520   38.6260 F   0  0  0  0  0  0  0  0  0  0  0  0
  1  4  1  6  0  0  0
  1  8  1  0  0  0  0
  2  3  1  0  0  0  0
  2  1  1  0  0  0  0
  2  5  1  1  0  0  0
  3  1  1  0  0  0  0
  3  6  1  0  0  0  0
  7  3  1  0  0  0  0
  8  9  2  0  0  0  0
  8 13  1  0  0  0  0
  9 10  1  0  0  0  0
 10 15  1  0  0  0  0
 10 11  2  0  0  0  0
 12 11  1  0  0  0  0
 12 16  1  0  0  0  0
 13 12  2  0  0  0  0
 14  9  1  0  0  0  0
 17  2  1  0  0  0  0
 18 17  1  0  0  0  0
 19 17  1  0  0  0  0
 20 17  1  0  0  0  0
M  END
>  <minimizedAffinity>
-3.88758779

$$$$

 OpenBabel03252505453D

 20 21  0  0  1  0  0  0  0  0999 V2000
   37.2770   27.9470   42.6340 C   0  0  1  0  0  0  0  0  0  0  0  0
   37.5200   28.6750   41.2830 C   0  0  1  0  0  0  0  0  0  0  0  0
   36.1950   28.1190   41.6920 C   0  0  0  0  0  0  0  0  0  0  0  0
   37.3620   28.6000   43.5340 H   0  0  0  0  0  0  0  0  0  0  0  0
   38.1410   28.1840   40.5360 H   0  0  0  0  0  0  0  0  0  0  0  0
   35.9070   27.2020   41.1020 H   0  0  0  0  0  0  0  0  0  0  0  0
   35.3500   28.7800   41.8610 H   0  0  0  0  0  0  0  0  0  0  0  0
   38.0600   26.6960   42.7450 C   0  0  0  0  0  0  0  0  0  0  0  0
   39.2430   26.7020   43.5520 C   0  0  0  0  0  0  0  0  0  0  0  0
   39.9890   25.5350   43.6780 C   0  0  0  0  0  0  0  0  0  0  0  0
   39.5290   24.4270   43.0050 N   0  0  0  0  0  0  0  0  0  0  0  0
   38.4030   24.4620   42.2510 C   0  0  0  0  0  0  0  0  0  0  0  0
   37.6870   25.5780   42.1260 N   0  0  0  0  0  0  0  0  0  0  0  0
   39.5450   27.6100   44.0530 H   0  0  0  0  0  0  0  0  0  0  0  0
   40.8860   25.4990   44.2760 H   0  0  0  0  0  0  0  0  0  0  0  0
   38.1780   23.5160   41.7890 H   0  0  0  0  0  0  0  0  0  0  0  0
   37.6740   30.1700   41.4220 C   0  0  0  0  0  0  0  0  0  0  0  0
   38.0920   30.7480   40.2290 F   0  0  0  0  0  0  0  0  0  0  0  0
   36.4130   30.7070   41.7060 F   0  0  0  0  0  0  0  0  0  0  0  0
   38.4960   30.4800   42.4680 F   0  0  0  0  0  0  0  0  0  0  0  0
  1  8  1  0  0  0  0
  1  4  1  1  0  0  0
  2  5  1  6  0  0  0
  2 17  1  0  0  0  0
  2  3  1  0  0  0  0
  2  1  1  0  0  0  0
  3  7  1  0  0  0  0
  3  1  1  0  0  0  0
  6  3  1  0  0  0  0
  8  9  1  0  0  0  0
  9 10  2  0  0  0  0
  9 14  1  0  0  0  0
 10 15  1  0  0  0  0
 11 10  1  0  0  0  0
 12 11  2  0  0  0  0
 13 12  1  0  0  0  0
 13  8  2  0  0  0  0
 16 12  1  0  0  0  0
 17 19  1  0  0  0  0
 17 20  1  0  0  0  0
 18 17  1  0  0  0  0
M  END
>  <minimizedAffinity>
-3.88681245

$$$$

 OpenBabel03252505453D

 20 21  0  0  1  0  0  0  0  0999 V2000
   35.8110   30.1400   40.6010 C   0  0  1  0  0  0  0  0  0  0  0  0
   35.9700   29.0000   39.5570 C   0  0  1  0  0  0  0  0  0  0  0  0
   35.7720   28.7570   41.0180 C   0  0  0  0  0  0  0  0  0  0  0  0
   34.8730   30.7330   40.4980 H   0  0  0  0  0  0  0  0  0  0  0  0
   36.9390   28.8670   39.0800 H   0  0  0  0  0  0  0  0  0  0  0  0
   36.7030   28.3700   41.5240 H   0  0  0  0  0  0  0  0  0  0  0  0
   34.8740   28.2620   41.3760 H   0  0  0  0  0  0  0  0  0  0  0  0
   37.0250   30.9800   40.7010 C   0  0  0  0  0  0  0  0  0  0  0  0
   37.0380   32.2430   40.0270 C   0  0  0  0  0  0  0  0  0  0  0  0
   38.1640   33.0540   40.1150 C   0  0  0  0  0  0  0  0  0  0  0  0
   39.2150   32.5770   40.8650 N   0  0  0  0  0  0  0  0  0  0  0  0
   39.1640   31.3750   41.4900 C   0  0  0  0  0  0  0  0  0  0  0  0
   38.0880   30.5950   41.4050 N   0  0  0  0  0  0  0  0  0  0  0  0
   36.1750   32.5530   39.4550 H   0  0  0  0  0  0  0  0  0  0  0  0
   38.2130   34.0110   39.6220 H   0  0  0  0  0  0  0  0  0  0  0  0
   40.0640   31.1470   42.0340 H   0  0  0  0  0  0  0  0  0  0  0  0
   34.7510   28.8010   38.6890 C   0  0  0  0  0  0  0  0  0  0  0  0
   33.5880   29.1550   39.3630 F   0  0  0  0  0  0  0  0  0  0  0  0
   34.8580   29.6660   37.5940 F   0  0  0  0  0  0  0  0  0  0  0  0
   34.7020   27.5260   38.2000 F   0  0  0  0  0  0  0  0  0  0  0  0
  1  4  1  6  0  0  0
  1  8  1  0  0  0  0
  1  3  1  0  0  0  0
  2  5  1  6  0  0  0
  2  1  1  0  0  0  0
  2  3  1  0  0  0  0
  3  7  1  0  0  0  0
  3  6  1  0  0  0  0
  8 13  1  0  0  0  0
  9 10  1  0  0  0  0
  9  8  2  0  0  0  0
 10 11  2  0  0  0  0
 11 12  1  0  0  0  0
 12 16  1  0  0  0  0
 13 12  2  0  0  0  0
 14  9  1  0  0  0  0
 15 10  1  0  0  0  0
 17 18  1  0  0  0  0
 17  2  1  0  0  0  0
 19 17  1  0  0  0  0
 20 17  1  0  0  0  0
M  END
>  <minimizedAffinity>
-3.87069321

$$$$
