
 OpenBabel03252505423D

 31 33  0  0  1  0  0  0  0  0999 V2000
   35.5180   29.6880   38.7390 C   0  0  1  0  0  0  0  0  0  0  0  0
   36.1600   28.9470   37.5310 C   0  0  0  0  0  0  0  0  0  0  0  0
   34.8410   28.5530   38.1440 C   0  0  2  0  0  0  0  0  0  0  0  0
   35.2320   30.7350   38.4720 H   0  0  0  0  0  0  0  0  0  0  0  0
   37.0360   28.3090   37.7440 H   0  0  0  0  0  0  0  0  0  0  0  0
   36.2190   29.4670   36.5750 H   0  0  0  0  0  0  0  0  0  0  0  0
   34.8120   27.5420   38.5520 H   0  0  0  0  0  0  0  0  0  0  0  0
   36.3150   29.5720   39.9860 C   0  0  0  0  0  0  0  0  0  0  0  0
   37.2050   30.6240   40.3290 C   0  0  0  0  0  0  0  0  0  0  0  0
   37.9460   30.5150   41.4990 C   0  0  0  0  0  0  0  0  0  0  0  0
   37.7740   29.3950   42.2600 N   0  0  0  0  0  0  0  0  0  0  0  0
   36.9170   28.4120   41.9010 C   0  0  0  0  0  0  0  0  0  0  0  0
   36.2020   28.5270   40.7640 N   0  0  0  0  0  0  0  0  0  0  0  0
   37.3350   31.5090   39.7230 H   0  0  0  0  0  0  0  0  0  0  0  0
   38.6400   31.2860   41.8110 H   0  0  0  0  0  0  0  0  0  0  0  0
   36.8770   27.2790   42.8760 C   0  0  0  0  0  0  0  0  0  0  0  0
   38.0550   27.1740   43.5780 F   0  0  0  0  0  0  0  0  0  0  0  0
   36.7100   26.0700   42.1730 F   0  0  0  0  0  0  0  0  0  0  0  0
   35.7640   27.4060   43.6800 F   0  0  0  0  0  0  0  0  0  0  0  0
   33.5830   28.9030   37.3990 C   0  0  0  0  0  0  0  0  0  0  0  0
   33.4820   28.7670   36.0300 C   0  0  0  0  0  0  0  0  0  0  0  0
   32.3540   29.0690   35.3200 C   0  0  0  0  0  0  0  0  0  0  0  0
   31.2840   29.5270   36.0130 N   0  0  0  0  0  0  0  0  0  0  0  0
   31.3630   29.6680   37.3590 C   0  0  0  0  0  0  0  0  0  0  0  0
   32.4880   29.3640   38.0430 N   0  0  0  0  0  0  0  0  0  0  0  0
   34.3460   28.3980   35.4820 H   0  0  0  0  0  0  0  0  0  0  0  0
   32.2740   28.9630   34.2480 H   0  0  0  0  0  0  0  0  0  0  0  0
   30.2470   30.1630   38.2220 C   0  0  0  0  0  0  0  0  0  0  0  0
   29.0200   29.7540   37.7780 F   0  0  0  0  0  0  0  0  0  0  0  0
   30.2180   31.5620   38.2180 F   0  0  0  0  0  0  0  0  0  0  0  0
   30.4860   29.8100   39.5390 F   0  0  0  0  0  0  0  0  0  0  0  0
  1  4  1  6  0  0  0
  1  8  1  0  0  0  0
  2  5  1  0  0  0  0
  2  3  1  0  0  0  0
  2  1  1  0  0  0  0
  3  7  1  1  0  0  0
  3  1  1  0  0  0  0
  6  2  1  0  0  0  0
  8  9  2  0  0  0  0
  8 13  1  0  0  0  0
  9 10  1  0  0  0  0
 10 15  1  0  0  0  0
 10 11  2  0  0  0  0
 12 11  1  0  0  0  0
 12 16  1  0  0  0  0
 13 12  2  0  0  0  0
 14  9  1  0  0  0  0
 16 17  1  0  0  0  0
 16 19  1  0  0  0  0
 18 16  1  0  0  0  0
 20 25  1  0  0  0  0
 20  3  1  0  0  0  0
 21 20  2  0  0  0  0
 22 23  2  0  0  0  0
 22 21  1  0  0  0  0
 23 24  1  0  0  0  0
 24 25  2  0  0  0  0
 24 28  1  0  0  0  0
 26 21  1  0  0  0  0
 27 22  1  0  0  0  0
 28 31  1  0  0  0  0
 29 28  1  0  0  0  0
 30 28  1  0  0  0  0
M  END
>  <minimizedAffinity>
-5.53586292

$$$$

 OpenBabel03252505423D

 31 33  0  0  1  0  0  0  0  0999 V2000
   34.5780   28.4640   37.4800 C   0  0  1  0  0  0  0  0  0  0  0  0
   35.7650   29.4670   37.3790 C   0  0  0  0  0  0  0  0  0  0  0  0
   35.1730   29.0040   38.6860 C   0  0  2  0  0  0  0  0  0  0  0  0
   34.8630   27.4520   37.0980 H   0  0  0  0  0  0  0  0  0  0  0  0
   35.5260   30.4910   37.0420 H   0  0  0  0  0  0  0  0  0  0  0  0
   36.7250   29.0990   37.0180 H   0  0  0  0  0  0  0  0  0  0  0  0
   34.7540   29.7990   39.3030 H   0  0  0  0  0  0  0  0  0  0  0  0
   33.3140   28.9960   36.9110 C   0  0  0  0  0  0  0  0  0  0  0  0
   33.1410   28.9890   35.5030 C   0  0  0  0  0  0  0  0  0  0  0  0
   31.9550   29.4830   34.9740 C   0  0  0  0  0  0  0  0  0  0  0  0
   31.0150   29.9500   35.8460 N   0  0  0  0  0  0  0  0  0  0  0  0
   31.2150   29.9420   37.1840 C   0  0  0  0  0  0  0  0  0  0  0  0
   32.3690   29.4600   37.6870 N   0  0  0  0  0  0  0  0  0  0  0  0
   33.8880   28.6160   34.8170 H   0  0  0  0  0  0  0  0  0  0  0  0
   31.7680   29.5020   33.9080 H   0  0  0  0  0  0  0  0  0  0  0  0
   30.0600   30.4930   37.9570 C   0  0  0  0  0  0  0  0  0  0  0  0
   28.8640   30.2530   37.3210 F   0  0  0  0  0  0  0  0  0  0  0  0
   30.1960   31.8910   38.0590 F   0  0  0  0  0  0  0  0  0  0  0  0
   30.1040   30.0130   39.2490 F   0  0  0  0  0  0  0  0  0  0  0  0
   35.9480   28.0010   39.4960 C   0  0  0  0  0  0  0  0  0  0  0  0
   36.4540   26.8460   38.9390 C   0  0  0  0  0  0  0  0  0  0  0  0
   37.1680   25.9150   39.6420 C   0  0  0  0  0  0  0  0  0  0  0  0
   37.3810   26.1560   40.9580 N   0  0  0  0  0  0  0  0  0  0  0  0
   36.8920   27.2870   41.5240 C   0  0  0  0  0  0  0  0  0  0  0  0
   36.1880   28.1950   40.8120 N   0  0  0  0  0  0  0  0  0  0  0  0
   36.2790   26.6610   37.8820 H   0  0  0  0  0  0  0  0  0  0  0  0
   37.5640   25.0100   39.2080 H   0  0  0  0  0  0  0  0  0  0  0  0
   37.0660   27.6530   42.9630 C   0  0  0  0  0  0  0  0  0  0  0  0
   38.0700   26.9460   43.5660 F   0  0  0  0  0  0  0  0  0  0  0  0
   35.9000   27.3650   43.6800 F   0  0  0  0  0  0  0  0  0  0  0  0
   37.2330   29.0220   43.0770 F   0  0  0  0  0  0  0  0  0  0  0  0
  1  4  1  6  0  0  0
  1  3  1  0  0  0  0
  2  1  1  0  0  0  0
  2  3  1  0  0  0  0
  3  7  1  1  0  0  0
  3 20  1  0  0  0  0
  5  2  1  0  0  0  0
  6  2  1  0  0  0  0
  8  1  1  0  0  0  0
  8 13  1  0  0  0  0
  9  8  2  0  0  0  0
 10  9  1  0  0  0  0
 10 11  2  0  0  0  0
 11 12  1  0  0  0  0
 12 13  2  0  0  0  0
 12 16  1  0  0  0  0
 14  9  1  0  0  0  0
 15 10  1  0  0  0  0
 16 18  1  0  0  0  0
 16 19  1  0  0  0  0
 17 16  1  0  0  0  0
 20 25  1  0  0  0  0
 21 20  2  0  0  0  0
 21 22  1  0  0  0  0
 22 23  2  0  0  0  0
 23 24  1  0  0  0  0
 24 28  1  0  0  0  0
 25 24  2  0  0  0  0
 26 21  1  0  0  0  0
 27 22  1  0  0  0  0
 28 31  1  0  0  0  0
 28 29  1  0  0  0  0
 28 30  1  0  0  0  0
M  END
>  <minimizedAffinity>
-5.50547934

$$$$

 OpenBabel03252505423D

 31 33  0  0  1  0  0  0  0  0999 V2000
   36.7480   29.3670   38.6670 C   0  0  1  0  0  0  0  0  0  0  0  0
   36.6070   30.7250   39.4140 C   0  0  0  0  0  0  0  0  0  0  0  0
   36.0140   29.4330   39.9150 C   0  0  2  0  0  0  0  0  0  0  0  0
   37.8120   29.0230   38.6400 H   0  0  0  0  0  0  0  0  0  0  0  0
   35.9190   31.4680   38.9740 H   0  0  0  0  0  0  0  0  0  0  0  0
   37.4960   31.1640   39.8640 H   0  0  0  0  0  0  0  0  0  0  0  0
   34.9290   29.4380   40.0170 H   0  0  0  0  0  0  0  0  0  0  0  0
   36.0690   29.3530   37.3460 C   0  0  0  0  0  0  0  0  0  0  0  0
   34.9020   28.5610   37.1860 C   0  0  0  0  0  0  0  0  0  0  0  0
   34.2660   28.5530   35.9510 C   0  0  0  0  0  0  0  0  0  0  0  0
   34.8020   29.3150   34.9540 N   0  0  0  0  0  0  0  0  0  0  0  0
   35.9170   30.0580   35.1440 C   0  0  0  0  0  0  0  0  0  0  0  0
   36.5270   30.0590   36.3450 N   0  0  0  0  0  0  0  0  0  0  0  0
   34.4810   27.9600   37.9790 H   0  0  0  0  0  0  0  0  0  0  0  0
   33.3730   27.9680   35.7700 H   0  0  0  0  0  0  0  0  0  0  0  0
   36.3330   30.8200   33.9260 C   0  0  0  0  0  0  0  0  0  0  0  0
   37.1280   31.8950   34.2480 F   0  0  0  0  0  0  0  0  0  0  0  0
   35.1870   31.3350   33.2890 F   0  0  0  0  0  0  0  0  0  0  0  0
   36.9130   29.9560   33.0220 F   0  0  0  0  0  0  0  0  0  0  0  0
   36.6920   28.7460   41.0680 C   0  0  0  0  0  0  0  0  0  0  0  0
   37.1950   29.4470   42.1430 C   0  0  0  0  0  0  0  0  0  0  0  0
   37.8110   28.8570   43.2120 C   0  0  0  0  0  0  0  0  0  0  0  0
   37.9260   27.5070   43.1980 N   0  0  0  0  0  0  0  0  0  0  0  0
   37.4380   26.7990   42.1500 C   0  0  0  0  0  0  0  0  0  0  0  0
   36.8320   27.4020   41.1030 N   0  0  0  0  0  0  0  0  0  0  0  0
   37.0980   30.5300   42.1450 H   0  0  0  0  0  0  0  0  0  0  0  0
   38.2060   29.4050   44.0540 H   0  0  0  0  0  0  0  0  0  0  0  0
   37.5090   25.3110   42.0310 C   0  0  0  0  0  0  0  0  0  0  0  0
   37.5290   24.8900   40.7290 F   0  0  0  0  0  0  0  0  0  0  0  0
   36.3800   24.7260   42.6150 F   0  0  0  0  0  0  0  0  0  0  0  0
   38.5830   24.8370   42.7640 F   0  0  0  0  0  0  0  0  0  0  0  0
  1  4  1  1  0  0  0
  1  2  1  0  0  0  0
  1  3  1  0  0  0  0
  2  6  1  0  0  0  0
  2  3  1  0  0  0  0
  3  7  1  6  0  0  0
  3 20  1  0  0  0  0
  5  2  1  0  0  0  0
  8  1  1  0  0  0  0
  9  8  1  0  0  0  0
  9 14  1  0  0  0  0
 10  9  2  0  0  0  0
 11 12  2  0  0  0  0
 11 10  1  0  0  0  0
 12 13  1  0  0  0  0
 13  8  2  0  0  0  0
 15 10  1  0  0  0  0
 16 17  1  0  0  0  0
 16 12  1  0  0  0  0
 18 16  1  0  0  0  0
 19 16  1  0  0  0  0
 20 25  2  0  0  0  0
 20 21  1  0  0  0  0
 21 26  1  0  0  0  0
 21 22  2  0  0  0  0
 22 27  1  0  0  0  0
 23 22  1  0  0  0  0
 24 23  2  0  0  0  0
 25 24  1  0  0  0  0
 28 24  1  0  0  0  0
 28 30  1  0  0  0  0
 28 31  1  0  0  0  0
 29 28  1  0  0  0  0
M  END
>  <minimizedAffinity>
-5.46480751

$$$$

 OpenBabel03252505423D

 31 33  0  0  1  0  0  0  0  0999 V2000
   39.2880   29.1610   42.1240 C   0  0  1  0  0  0  0  0  0  0  0  0
   38.3330   29.1680   43.3530 C   0  0  0  0  0  0  0  0  0  0  0  0
   38.1370   28.2820   42.1490 C   0  0  2  0  0  0  0  0  0  0  0  0
   40.3060   28.7880   42.3990 H   0  0  0  0  0  0  0  0  0  0  0  0
   37.6650   30.0400   43.4610 H   0  0  0  0  0  0  0  0  0  0  0  0
   38.7040   28.7790   44.3000 H   0  0  0  0  0  0  0  0  0  0  0  0
   37.2000   28.4420   41.6130 H   0  0  0  0  0  0  0  0  0  0  0  0
   39.2910   30.4460   41.3790 C   0  0  0  0  0  0  0  0  0  0  0  0
   40.3150   31.3900   41.6480 C   0  0  0  0  0  0  0  0  0  0  0  0
   40.3180   32.5890   40.9460 C   0  0  0  0  0  0  0  0  0  0  0  0
   39.3280   32.7920   40.0290 N   0  0  0  0  0  0  0  0  0  0  0  0
   38.3670   31.8680   39.7990 C   0  0  0  0  0  0  0  0  0  0  0  0
   38.3730   30.7080   40.4850 N   0  0  0  0  0  0  0  0  0  0  0  0
   41.0970   31.2240   42.3750 H   0  0  0  0  0  0  0  0  0  0  0  0
   41.0740   33.3470   41.1100 H   0  0  0  0  0  0  0  0  0  0  0  0
   37.3840   32.2860   38.7520 C   0  0  0  0  0  0  0  0  0  0  0  0
   36.8580   33.5280   39.0200 F   0  0  0  0  0  0  0  0  0  0  0  0
   36.3070   31.3790   38.7400 F   0  0  0  0  0  0  0  0  0  0  0  0
   37.9730   32.1930   37.5090 F   0  0  0  0  0  0  0  0  0  0  0  0
   38.4740   26.8230   42.2830 C   0  0  0  0  0  0  0  0  0  0  0  0
   39.4280   26.3730   43.1710 C   0  0  0  0  0  0  0  0  0  0  0  0
   39.7570   25.0540   43.3250 C   0  0  0  0  0  0  0  0  0  0  0  0
   39.1010   24.1530   42.5550 N   0  0  0  0  0  0  0  0  0  0  0  0
   38.1600   24.5760   41.6760 C   0  0  0  0  0  0  0  0  0  0  0  0
   37.8490   25.8840   41.5390 N   0  0  0  0  0  0  0  0  0  0  0  0
   39.9490   27.1030   43.7850 H   0  0  0  0  0  0  0  0  0  0  0  0
   40.5050   24.7000   44.0200 H   0  0  0  0  0  0  0  0  0  0  0  0
   37.3760   23.6720   40.7800 C   0  0  0  0  0  0  0  0  0  0  0  0
   37.4980   24.0090   39.4600 F   0  0  0  0  0  0  0  0  0  0  0  0
   36.0120   23.7590   41.0810 F   0  0  0  0  0  0  0  0  0  0  0  0
   37.7200   22.3560   41.0310 F   0  0  0  0  0  0  0  0  0  0  0  0
  1  3  1  0  0  0  0
  1  4  1  1  0  0  0
  1  2  1  0  0  0  0
  2  5  1  0  0  0  0
  2  6  1  0  0  0  0
  3  7  1  6  0  0  0
  3 20  1  0  0  0  0
  3  2  1  0  0  0  0
  8  9  1  0  0  0  0
  8  1  1  0  0  0  0
  9 14  1  0  0  0  0
 10 15  1  0  0  0  0
 10  9  2  0  0  0  0
 11 10  1  0  0  0  0
 12 11  2  0  0  0  0
 12 13  1  0  0  0  0
 13  8  2  0  0  0  0
 16 17  1  0  0  0  0
 16 12  1  0  0  0  0
 18 16  1  0  0  0  0
 19 16  1  0  0  0  0
 20 21  1  0  0  0  0
 21 22  2  0  0  0  0
 21 26  1  0  0  0  0
 22 27  1  0  0  0  0
 23 22  1  0  0  0  0
 24 23  2  0  0  0  0
 25 24  1  0  0  0  0
 25 20  2  0  0  0  0
 28 31  1  0  0  0  0
 28 30  1  0  0  0  0
 28 24  1  0  0  0  0
 29 28  1  0  0  0  0
M  END
>  <minimizedAffinity>
-5.35684586

$$$$

 OpenBabel03252505423D

 31 33  0  0  1  0  0  0  0  0999 V2000
   35.3820   28.6520   38.5960 C   0  0  1  0  0  0  0  0  0  0  0  0
   36.2640   29.9350   38.6010 C   0  0  0  0  0  0  0  0  0  0  0  0
   35.5300   29.4220   39.8140 C   0  0  2  0  0  0  0  0  0  0  0  0
   35.9950   27.7340   38.4150 H   0  0  0  0  0  0  0  0  0  0  0  0
   35.8540   30.8240   38.0920 H   0  0  0  0  0  0  0  0  0  0  0  0
   37.3420   29.8230   38.4900 H   0  0  0  0  0  0  0  0  0  0  0  0
   34.7930   30.1120   40.2260 H   0  0  0  0  0  0  0  0  0  0  0  0
   34.1870   28.7680   37.7230 C   0  0  0  0  0  0  0  0  0  0  0  0
   34.2590   28.2710   36.3960 C   0  0  0  0  0  0  0  0  0  0  0  0
   33.1370   28.3770   35.5830 C   0  0  0  0  0  0  0  0  0  0  0  0
   32.0200   28.9560   36.1110 N   0  0  0  0  0  0  0  0  0  0  0  0
   31.9880   29.4190   37.3830 C   0  0  0  0  0  0  0  0  0  0  0  0
   33.0810   29.3120   38.1630 N   0  0  0  0  0  0  0  0  0  0  0  0
   35.1460   27.8130   35.9830 H   0  0  0  0  0  0  0  0  0  0  0  0
   33.1330   28.0160   34.5620 H   0  0  0  0  0  0  0  0  0  0  0  0
   30.6690   30.0100   37.7630 C   0  0  0  0  0  0  0  0  0  0  0  0
   30.6040   31.3480   37.4490 F   0  0  0  0  0  0  0  0  0  0  0  0
   30.5000   29.9080   39.1570 F   0  0  0  0  0  0  0  0  0  0  0  0
   29.6540   29.2620   37.2030 F   0  0  0  0  0  0  0  0  0  0  0  0
   36.3310   28.7370   40.8870 C   0  0  0  0  0  0  0  0  0  0  0  0
   36.9250   29.4380   41.9160 C   0  0  0  0  0  0  0  0  0  0  0  0
   37.6550   28.8490   42.9110 C   0  0  0  0  0  0  0  0  0  0  0  0
   37.7930   27.5020   42.8700 N   0  0  0  0  0  0  0  0  0  0  0  0
   37.2160   26.7950   41.8670 C   0  0  0  0  0  0  0  0  0  0  0  0
   36.4990   27.3960   40.8920 N   0  0  0  0  0  0  0  0  0  0  0  0
   36.8080   30.5180   41.9400 H   0  0  0  0  0  0  0  0  0  0  0  0
   38.1210   29.3960   43.7170 H   0  0  0  0  0  0  0  0  0  0  0  0
   37.3040   25.3100   41.7240 C   0  0  0  0  0  0  0  0  0  0  0  0
   36.9390   24.8810   40.4770 F   0  0  0  0  0  0  0  0  0  0  0  0
   36.4300   24.6870   42.6220 F   0  0  0  0  0  0  0  0  0  0  0  0
   38.5670   24.8810   42.0890 F   0  0  0  0  0  0  0  0  0  0  0  0
  1  4  1  6  0  0  0
  1  2  1  0  0  0  0
  1  3  1  0  0  0  0
  2  3  1  0  0  0  0
  3  7  1  1  0  0  0
  3 20  1  0  0  0  0
  5  2  1  0  0  0  0
  6  2  1  0  0  0  0
  8 13  1  0  0  0  0
  8  1  1  0  0  0  0
  9  8  2  0  0  0  0
 10 11  2  0  0  0  0
 10  9  1  0  0  0  0
 11 12  1  0  0  0  0
 12 16  1  0  0  0  0
 12 13  2  0  0  0  0
 14  9  1  0  0  0  0
 15 10  1  0  0  0  0
 16 18  1  0  0  0  0
 17 16  1  0  0  0  0
 19 16  1  0  0  0  0
 20 25  2  0  0  0  0
 20 21  1  0  0  0  0
 21 26  1  0  0  0  0
 21 22  2  0  0  0  0
 22 27  1  0  0  0  0
 23 22  1  0  0  0  0
 24 23  2  0  0  0  0
 25 24  1  0  0  0  0
 28 24  1  0  0  0  0
 28 31  1  0  0  0  0
 28 30  1  0  0  0  0
 29 28  1  0  0  0  0
M  END
>  <minimizedAffinity>
-5.28814459

$$$$

 OpenBabel03252505423D

 31 33  0  0  1  0  0  0  0  0999 V2000
   37.3860   27.4350   41.2770 C   0  0  1  0  0  0  0  0  0  0  0  0
   36.6200   27.8970   42.5510 C   0  0  0  0  0  0  0  0  0  0  0  0
   38.0970   28.1140   42.3410 C   0  0  2  0  0  0  0  0  0  0  0  0
   37.0410   27.9880   40.3680 H   0  0  0  0  0  0  0  0  0  0  0  0
   36.3140   27.1100   43.2620 H   0  0  0  0  0  0  0  0  0  0  0  0
   35.8990   28.7080   42.4560 H   0  0  0  0  0  0  0  0  0  0  0  0
   38.7380   27.6400   43.0840 H   0  0  0  0  0  0  0  0  0  0  0  0
   37.4170   25.9590   41.1170 C   0  0  0  0  0  0  0  0  0  0  0  0
   38.4450   25.2230   41.7640 C   0  0  0  0  0  0  0  0  0  0  0  0
   38.4690   23.8420   41.6170 C   0  0  0  0  0  0  0  0  0  0  0  0
   37.4950   23.2650   40.8540 N   0  0  0  0  0  0  0  0  0  0  0  0
   36.5310   24.0000   40.2520 C   0  0  0  0  0  0  0  0  0  0  0  0
   36.5160   25.3390   40.4000 N   0  0  0  0  0  0  0  0  0  0  0  0
   39.2130   25.6850   42.3680 H   0  0  0  0  0  0  0  0  0  0  0  0
   39.2280   23.2290   42.0860 H   0  0  0  0  0  0  0  0  0  0  0  0
   35.5620   23.1730   39.4690 C   0  0  0  0  0  0  0  0  0  0  0  0
   34.3610   23.0420   40.1260 F   0  0  0  0  0  0  0  0  0  0  0  0
   36.0850   21.8750   39.3090 F   0  0  0  0  0  0  0  0  0  0  0  0
   35.4420   23.6920   38.1970 F   0  0  0  0  0  0  0  0  0  0  0  0
   38.5640   29.5000   41.9870 C   0  0  0  0  0  0  0  0  0  0  0  0
   39.6610   30.0770   42.5900 C   0  0  0  0  0  0  0  0  0  0  0  0
   40.1180   31.3310   42.2900 C   0  0  0  0  0  0  0  0  0  0  0  0
   39.4440   32.0320   41.3470 N   0  0  0  0  0  0  0  0  0  0  0  0
   38.3620   31.4810   40.7430 C   0  0  0  0  0  0  0  0  0  0  0  0
   37.9260   30.2400   41.0530 N   0  0  0  0  0  0  0  0  0  0  0  0
   40.1960   29.5070   43.3450 H   0  0  0  0  0  0  0  0  0  0  0  0
   40.9770   31.7840   42.7620 H   0  0  0  0  0  0  0  0  0  0  0  0
   37.5460   32.1620   39.6920 C   0  0  0  0  0  0  0  0  0  0  0  0
   38.2170   32.2850   38.5060 F   0  0  0  0  0  0  0  0  0  0  0  0
   37.2260   33.4630   40.0970 F   0  0  0  0  0  0  0  0  0  0  0  0
   36.3300   31.5150   39.5550 F   0  0  0  0  0  0  0  0  0  0  0  0
  1  4  1  6  0  0  0
  1  3  1  0  0  0  0
  1  2  1  0  0  0  0
  2  5  1  0  0  0  0
  3  2  1  0  0  0  0
  3  7  1  1  0  0  0
  6  2  1  0  0  0  0
  8  1  1  0  0  0  0
  8  9  1  0  0  0  0
  9 14  1  0  0  0  0
 10  9  2  0  0  0  0
 10 15  1  0  0  0  0
 11 10  1  0  0  0  0
 12 13  1  0  0  0  0
 12 11  2  0  0  0  0
 13  8  2  0  0  0  0
 16 17  1  0  0  0  0
 16 12  1  0  0  0  0
 18 16  1  0  0  0  0
 19 16  1  0  0  0  0
 20  3  1  0  0  0  0
 20 21  1  0  0  0  0
 21 26  1  0  0  0  0
 22 21  2  0  0  0  0
 22 27  1  0  0  0  0
 23 22  1  0  0  0  0
 24 25  1  0  0  0  0
 24 23  2  0  0  0  0
 25 20  2  0  0  0  0
 28 30  1  0  0  0  0
 28 24  1  0  0  0  0
 29 28  1  0  0  0  0
 31 28  1  0  0  0  0
M  END
>  <minimizedAffinity>
-5.24878502

$$$$

 OpenBabel03252505423D

 31 33  0  0  1  0  0  0  0  0999 V2000
   37.9820   30.3820   39.9390 C   0  0  1  0  0  0  0  0  0  0  0  0
   37.0220   31.4050   40.6130 C   0  0  0  0  0  0  0  0  0  0  0  0
   38.4290   31.1450   41.0860 C   0  0  2  0  0  0  0  0  0  0  0  0
   38.2480   30.6940   38.8980 H   0  0  0  0  0  0  0  0  0  0  0  0
   36.1940   30.9910   41.2150 H   0  0  0  0  0  0  0  0  0  0  0  0
   36.7560   32.3070   40.0630 H   0  0  0  0  0  0  0  0  0  0  0  0
   38.5050   30.7740   42.1090 H   0  0  0  0  0  0  0  0  0  0  0  0
   37.5130   28.9770   40.0530 C   0  0  0  0  0  0  0  0  0  0  0  0
   37.0260   28.3230   38.8910 C   0  0  0  0  0  0  0  0  0  0  0  0
   36.5920   27.0070   39.0000 C   0  0  0  0  0  0  0  0  0  0  0  0
   36.6600   26.4140   40.2270 N   0  0  0  0  0  0  0  0  0  0  0  0
   37.1310   27.0700   41.3130 C   0  0  0  0  0  0  0  0  0  0  0  0
   37.5490   28.3460   41.1970 N   0  0  0  0  0  0  0  0  0  0  0  0
   36.9750   28.7970   37.9220 H   0  0  0  0  0  0  0  0  0  0  0  0
   36.2110   26.4580   38.1490 H   0  0  0  0  0  0  0  0  0  0  0  0
   37.1240   26.2370   42.5550 C   0  0  0  0  0  0  0  0  0  0  0  0
   36.5980   24.9870   42.3230 F   0  0  0  0  0  0  0  0  0  0  0  0
   36.3070   26.8530   43.5220 F   0  0  0  0  0  0  0  0  0  0  0  0
   38.3930   26.2100   43.0930 F   0  0  0  0  0  0  0  0  0  0  0  0
   39.4810   32.1740   40.7740 C   0  0  0  0  0  0  0  0  0  0  0  0
   39.2560   33.2010   39.8830 C   0  0  0  0  0  0  0  0  0  0  0  0
   40.1850   34.1570   39.5790 C   0  0  0  0  0  0  0  0  0  0  0  0
   41.3880   34.0770   40.1950 N   0  0  0  0  0  0  0  0  0  0  0  0
   41.6290   33.0740   41.0750 C   0  0  0  0  0  0  0  0  0  0  0  0
   40.6970   32.1380   41.3630 N   0  0  0  0  0  0  0  0  0  0  0  0
   38.2870   33.2580   39.3930 H   0  0  0  0  0  0  0  0  0  0  0  0
   40.0100   34.9620   38.8800 H   0  0  0  0  0  0  0  0  0  0  0  0
   42.9170   32.8890   41.8120 C   0  0  0  0  0  0  0  0  0  0  0  0
   43.9010   32.3630   41.0210 F   0  0  0  0  0  0  0  0  0  0  0  0
   42.7420   31.9890   42.8700 F   0  0  0  0  0  0  0  0  0  0  0  0
   43.2870   34.0810   42.4070 F   0  0  0  0  0  0  0  0  0  0  0  0
  1  4  1  6  0  0  0
  1  8  1  0  0  0  0
  1  2  1  0  0  0  0
  1  3  1  0  0  0  0
  2  3  1  0  0  0  0
  2  5  1  0  0  0  0
  3  7  1  1  0  0  0
  6  2  1  0  0  0  0
  8 13  1  0  0  0  0
  9 10  1  0  0  0  0
  9  8  2  0  0  0  0
 10 11  2  0  0  0  0
 11 12  1  0  0  0  0
 12 16  1  0  0  0  0
 13 12  2  0  0  0  0
 14  9  1  0  0  0  0
 15 10  1  0  0  0  0
 16 19  1  0  0  0  0
 16 18  1  0  0  0  0
 17 16  1  0  0  0  0
 20  3  1  0  0  0  0
 20 25  1  0  0  0  0
 21 20  2  0  0  0  0
 22 21  1  0  0  0  0
 22 23  2  0  0  0  0
 23 24  1  0  0  0  0
 24 25  2  0  0  0  0
 24 28  1  0  0  0  0
 26 21  1  0  0  0  0
 27 22  1  0  0  0  0
 28 31  1  0  0  0  0
 28 30  1  0  0  0  0
 29 28  1  0  0  0  0
M  END
>  <minimizedAffinity>
-5.111866

$$$$

 OpenBabel03252505423D

 31 33  0  0  1  0  0  0  0  0999 V2000
   36.7370   29.4030   38.7110 C   0  0  1  0  0  0  0  0  0  0  0  0
   36.6200   30.7550   39.4740 C   0  0  0  0  0  0  0  0  0  0  0  0
   35.9970   29.4700   39.9560 C   0  0  2  0  0  0  0  0  0  0  0  0
   37.7930   29.0370   38.6870 H   0  0  0  0  0  0  0  0  0  0  0  0
   35.9510   31.5180   39.0390 H   0  0  0  0  0  0  0  0  0  0  0  0
   37.5160   31.1690   39.9350 H   0  0  0  0  0  0  0  0  0  0  0  0
   34.9110   29.4980   40.0510 H   0  0  0  0  0  0  0  0  0  0  0  0
   36.0660   29.4200   37.3870 C   0  0  0  0  0  0  0  0  0  0  0  0
   36.8360   29.7250   36.2340 C   0  0  0  0  0  0  0  0  0  0  0  0
   36.2070   29.7360   34.9950 C   0  0  0  0  0  0  0  0  0  0  0  0
   34.8730   29.4490   34.9560 N   0  0  0  0  0  0  0  0  0  0  0  0
   34.1710   29.1630   36.0770 C   0  0  0  0  0  0  0  0  0  0  0  0
   34.7900   29.1550   37.2740 N   0  0  0  0  0  0  0  0  0  0  0  0
   37.8920   29.9510   36.2710 H   0  0  0  0  0  0  0  0  0  0  0  0
   36.7430   29.9620   34.0830 H   0  0  0  0  0  0  0  0  0  0  0  0
   32.7280   28.8730   35.8110 C   0  0  0  0  0  0  0  0  0  0  0  0
   32.3150   27.7270   36.4500 F   0  0  0  0  0  0  0  0  0  0  0  0
   32.5460   28.6610   34.4310 F   0  0  0  0  0  0  0  0  0  0  0  0
   31.9740   29.9830   36.1270 F   0  0  0  0  0  0  0  0  0  0  0  0
   36.6520   28.7540   41.1050 C   0  0  0  0  0  0  0  0  0  0  0  0
   37.1470   29.4300   42.2000 C   0  0  0  0  0  0  0  0  0  0  0  0
   37.7430   28.8130   43.2650 C   0  0  0  0  0  0  0  0  0  0  0  0
   37.8450   27.4630   43.2270 N   0  0  0  0  0  0  0  0  0  0  0  0
   37.3640   26.7800   42.1590 C   0  0  0  0  0  0  0  0  0  0  0  0
   36.7780   27.4090   41.1150 N   0  0  0  0  0  0  0  0  0  0  0  0
   37.0600   30.5130   42.2220 H   0  0  0  0  0  0  0  0  0  0  0  0
   38.1310   29.3410   44.1230 H   0  0  0  0  0  0  0  0  0  0  0  0
   37.4230   25.2940   42.0120 C   0  0  0  0  0  0  0  0  0  0  0  0
   37.2630   24.8890   40.7150 F   0  0  0  0  0  0  0  0  0  0  0  0
   36.3880   24.6960   42.7390 F   0  0  0  0  0  0  0  0  0  0  0  0
   38.5900   24.8160   42.5820 F   0  0  0  0  0  0  0  0  0  0  0  0
  1  4  1  1  0  0  0
  1  2  1  0  0  0  0
  1  3  1  0  0  0  0
  2  6  1  0  0  0  0
  2  3  1  0  0  0  0
  3  7  1  6  0  0  0
  3 20  1  0  0  0  0
  5  2  1  0  0  0  0
  8  1  1  0  0  0  0
  9 14  1  0  0  0  0
  9  8  2  0  0  0  0
 10  9  1  0  0  0  0
 11 10  2  0  0  0  0
 11 12  1  0  0  0  0
 12 13  2  0  0  0  0
 13  8  1  0  0  0  0
 15 10  1  0  0  0  0
 16 12  1  0  0  0  0
 16 19  1  0  0  0  0
 16 17  1  0  0  0  0
 18 16  1  0  0  0  0
 20 25  2  0  0  0  0
 20 21  1  0  0  0  0
 21 26  1  0  0  0  0
 21 22  2  0  0  0  0
 22 27  1  0  0  0  0
 23 22  1  0  0  0  0
 24 23  2  0  0  0  0
 25 24  1  0  0  0  0
 28 24  1  0  0  0  0
 28 31  1  0  0  0  0
 28 30  1  0  0  0  0
 29 28  1  0  0  0  0
M  END
>  <minimizedAffinity>
-5.10597086

$$$$

 OpenBabel03252505423D

 31 33  0  0  1  0  0  0  0  0999 V2000
   35.6510   29.6440   38.8410 C   0  0  1  0  0  0  0  0  0  0  0  0
   36.2210   28.7660   37.6890 C   0  0  0  0  0  0  0  0  0  0  0  0
   34.8790   28.5280   38.3320 C   0  0  2  0  0  0  0  0  0  0  0  0
   35.4490   30.6890   38.4980 H   0  0  0  0  0  0  0  0  0  0  0  0
   37.0440   28.0760   37.9470 H   0  0  0  0  0  0  0  0  0  0  0  0
   36.3150   29.2090   36.6980 H   0  0  0  0  0  0  0  0  0  0  0  0
   34.7710   27.5550   38.8130 H   0  0  0  0  0  0  0  0  0  0  0  0
   36.4460   29.5550   40.0920 C   0  0  0  0  0  0  0  0  0  0  0  0
   36.0940   28.5760   41.0570 C   0  0  0  0  0  0  0  0  0  0  0  0
   36.8430   28.4920   42.2250 C   0  0  0  0  0  0  0  0  0  0  0  0
   37.8840   29.3620   42.3770 N   0  0  0  0  0  0  0  0  0  0  0  0
   38.1900   30.2820   41.4340 C   0  0  0  0  0  0  0  0  0  0  0  0
   37.4580   30.3560   40.3060 N   0  0  0  0  0  0  0  0  0  0  0  0
   35.2700   27.8900   40.9310 H   0  0  0  0  0  0  0  0  0  0  0  0
   36.6210   27.7660   42.9960 H   0  0  0  0  0  0  0  0  0  0  0  0
   39.3670   31.1300   41.7970 C   0  0  0  0  0  0  0  0  0  0  0  0
   39.6630   31.0400   43.1370 F   0  0  0  0  0  0  0  0  0  0  0  0
   39.0640   32.4800   41.5350 F   0  0  0  0  0  0  0  0  0  0  0  0
   40.4290   30.8130   40.9760 F   0  0  0  0  0  0  0  0  0  0  0  0
   33.6480   28.9240   37.5660 C   0  0  0  0  0  0  0  0  0  0  0  0
   33.5870   28.8460   36.1900 C   0  0  0  0  0  0  0  0  0  0  0  0
   32.4830   29.1910   35.4600 C   0  0  0  0  0  0  0  0  0  0  0  0
   31.3980   29.6340   36.1410 N   0  0  0  0  0  0  0  0  0  0  0  0
   31.4390   29.7180   37.4930 C   0  0  0  0  0  0  0  0  0  0  0  0
   32.5400   29.3710   38.1970 N   0  0  0  0  0  0  0  0  0  0  0  0
   34.4610   28.4890   35.6530 H   0  0  0  0  0  0  0  0  0  0  0  0
   32.4340   29.1310   34.3840 H   0  0  0  0  0  0  0  0  0  0  0  0
   30.3040   30.1910   38.3430 C   0  0  0  0  0  0  0  0  0  0  0  0
   30.4150   29.7790   39.6430 F   0  0  0  0  0  0  0  0  0  0  0  0
   29.0960   29.6670   37.8690 F   0  0  0  0  0  0  0  0  0  0  0  0
   30.1750   31.5640   38.2250 F   0  0  0  0  0  0  0  0  0  0  0  0
  1  4  1  6  0  0  0
  1  8  1  0  0  0  0
  2  5  1  0  0  0  0
  2  3  1  0  0  0  0
  2  1  1  0  0  0  0
  3  7  1  1  0  0  0
  3  1  1  0  0  0  0
  6  2  1  0  0  0  0
  8 13  2  0  0  0  0
  8  9  1  0  0  0  0
  9 10  2  0  0  0  0
 10 11  1  0  0  0  0
 10 15  1  0  0  0  0
 12 16  1  0  0  0  0
 12 11  2  0  0  0  0
 13 12  1  0  0  0  0
 14  9  1  0  0  0  0
 16 17  1  0  0  0  0
 18 16  1  0  0  0  0
 19 16  1  0  0  0  0
 20 25  1  0  0  0  0
 20  3  1  0  0  0  0
 21 20  2  0  0  0  0
 22 23  2  0  0  0  0
 22 21  1  0  0  0  0
 23 24  1  0  0  0  0
 24 25  2  0  0  0  0
 24 28  1  0  0  0  0
 26 21  1  0  0  0  0
 27 22  1  0  0  0  0
 28 29  1  0  0  0  0
 30 28  1  0  0  0  0
 31 28  1  0  0  0  0
M  END
>  <minimizedAffinity>
-5.08445692

$$$$
