
 OpenBabel03252504433D

 40 42  0  0  0  0  0  0  0  0999 V2000
   37.4600   31.6480   40.3650 C   0  0  0  0  0  0  0  0  0  0  0  0
   37.1320   32.6430   39.4770 C   0  0  0  0  0  0  0  0  0  0  0  0
   38.2840   33.1720   39.0780 N   0  0  0  0  0  0  0  0  0  0  0  0
   39.3240   32.5780   39.6540 C   0  0  0  0  0  0  0  0  0  0  0  0
   38.8050   31.6200   40.4640 N   0  0  0  0  0  0  0  0  0  0  0  0
   40.7250   32.7980   39.5390 N   0  0  0  0  0  0  0  0  0  0  0  0
   41.4600   32.0510   38.4950 C   0  0  0  0  0  0  0  0  0  0  0  0
   41.7140   33.0820   37.3950 C   0  0  0  0  0  0  0  0  0  0  0  0
   42.2740   34.3450   37.9900 C   0  0  0  0  0  0  0  0  0  0  0  0
   42.7870   34.0690   39.3910 C   0  0  0  0  0  0  0  0  0  0  0  0
   41.6280   33.6420   40.2610 C   0  0  0  0  0  0  0  0  0  0  0  0
   36.1270   32.9220   39.1770 H   0  0  0  0  0  0  0  0  0  0  0  0
   38.3900   33.9650   38.3890 H   0  0  0  0  0  0  0  0  0  0  0  0
   40.8240   31.2470   38.0960 H   0  0  0  0  0  0  0  0  0  0  0  0
   42.3910   31.6210   38.8680 H   0  0  0  0  0  0  0  0  0  0  0  0
   42.3060   32.6670   36.5660 H   0  0  0  0  0  0  0  0  0  0  0  0
   40.7020   33.3480   36.9830 H   0  0  0  0  0  0  0  0  0  0  0  0
   43.1700   34.6430   37.3750 H   0  0  0  0  0  0  0  0  0  0  0  0
   41.5590   35.1710   38.0330 H   0  0  0  0  0  0  0  0  0  0  0  0
   43.5590   33.2830   39.3870 H   0  0  0  0  0  0  0  0  0  0  0  0
   43.1760   35.0250   39.7910 H   0  0  0  0  0  0  0  0  0  0  0  0
   42.0840   33.0020   41.0700 H   0  0  0  0  0  0  0  0  0  0  0  0
   41.1650   34.4860   40.7750 H   0  0  0  0  0  0  0  0  0  0  0  0
   36.5180   30.7510   41.0980 C   0  0  0  0  0  0  0  0  0  0  0  0
   35.6310   30.5970   40.4430 H   0  0  0  0  0  0  0  0  0  0  0  0
   36.1400   31.2420   42.0320 H   0  0  0  0  0  0  0  0  0  0  0  0
   37.5010   29.0470   42.5740 C   0  0  0  0  0  3  0  0  0  0  0  0
   37.1300   29.4440   41.3650 C   0  0  0  0  0  3  0  0  0  0  0  0
   38.0980   27.7220   42.7090 C   0  0  0  0  0  0  0  0  0  0  0  0
   39.2220   27.4650   43.5350 C   0  0  0  0  0  0  0  0  0  0  0  0
   39.7090   26.1720   43.5900 C   0  0  0  0  0  0  0  0  0  0  0  0
   39.1110   25.2070   42.8660 N   0  0  0  0  0  0  0  0  0  0  0  0
   38.0380   25.4610   42.0790 C   0  0  0  0  0  0  0  0  0  0  0  0
   37.5470   26.6950   42.0070 N   0  0  0  0  0  0  0  0  0  0  0  0
   39.6380   28.3030   44.0830 H   0  0  0  0  0  0  0  0  0  0  0  0
   40.5670   25.9730   44.2190 H   0  0  0  0  0  0  0  0  0  0  0  0
   37.4080   24.3590   41.2940 C   0  0  0  0  0  0  0  0  0  0  0  0
   38.1670   23.2270   41.5370 F   0  0  0  0  0  0  0  0  0  0  0  0
   36.0980   24.1420   41.6060 F   0  0  0  0  0  0  0  0  0  0  0  0
   37.4870   24.6570   39.9450 F   0  0  0  0  0  0  0  0  0  0  0  0
  1  5  1  0  0  0  0
  1 24  1  0  0  0  0
  2  1  2  0  0  0  0
  3  2  1  0  0  0  0
  3  4  1  0  0  0  0
  4  5  2  0  0  0  0
  6  4  1  0  0  0  0
  6 11  1  0  0  0  0
  7 15  1  0  0  0  0
  7  6  1  0  0  0  0
  8  9  1  0  0  0  0
  8  7  1  0  0  0  0
  9 19  1  0  0  0  0
  9 10  1  0  0  0  0
 10 21  1  0  0  0  0
 10 11  1  0  0  0  0
 11 23  1  0  0  0  0
 11 22  1  0  0  0  0
 12  2  1  0  0  0  0
 13  3  1  0  0  0  0
 14  7  1  0  0  0  0
 16  8  1  0  0  0  0
 17  8  1  0  0  0  0
 18  9  1  0  0  0  0
 20 10  1  0  0  0  0
 24 28  1  0  0  0  0
 24 26  1  0  0  0  0
 25 24  1  0  0  0  0
 27 29  1  0  0  0  0
 28 27  2  0  0  0  0
 29 30  1  0  0  0  0
 30 31  2  0  0  0  0
 30 35  1  0  0  0  0
 31 36  1  0  0  0  0
 32 31  1  0  0  0  0
 33 32  2  0  0  0  0
 34 33  1  0  0  0  0
 34 29  2  0  0  0  0
 37 38  1  0  0  0  0
 37 39  1  0  0  0  0
 37 33  1  0  0  0  0
 40 37  1  0  0  0  0
M  END
>  <minimizedAffinity>
-5.96684599

$$$$

 OpenBabel03252504433D

 40 42  0  0  0  0  0  0  0  0999 V2000
   38.4930   28.0730   42.9620 C   0  0  0  0  0  0  0  0  0  0  0  0
   37.3190   28.6830   43.3300 C   0  0  0  0  0  0  0  0  0  0  0  0
   37.2480   29.8020   42.6170 N   0  0  0  0  0  0  0  0  0  0  0  0
   38.3010   29.9440   41.8180 C   0  0  0  0  0  0  0  0  0  0  0  0
   39.0840   28.8580   42.0360 N   0  0  0  0  0  0  0  0  0  0  0  0
   38.6560   30.9620   40.8900 N   0  0  0  0  0  0  0  0  0  0  0  0
   38.1930   30.8180   39.4930 C   0  0  0  0  0  0  0  0  0  0  0  0
   37.0330   31.8080   39.3700 C   0  0  0  0  0  0  0  0  0  0  0  0
   37.4380   33.1470   39.9230 C   0  0  0  0  0  0  0  0  0  0  0  0
   38.9480   33.2180   40.0440 C   0  0  0  0  0  0  0  0  0  0  0  0
   39.4100   32.1700   41.0300 C   0  0  0  0  0  0  0  0  0  0  0  0
   36.6080   28.3070   44.0590 H   0  0  0  0  0  0  0  0  0  0  0  0
   36.4640   30.5080   42.6580 H   0  0  0  0  0  0  0  0  0  0  0  0
   37.8140   29.7980   39.3300 H   0  0  0  0  0  0  0  0  0  0  0  0
   38.9800   31.0280   38.7680 H   0  0  0  0  0  0  0  0  0  0  0  0
   36.6220   31.8400   38.3510 H   0  0  0  0  0  0  0  0  0  0  0  0
   36.2230   31.4180   40.0460 H   0  0  0  0  0  0  0  0  0  0  0  0
   37.1400   33.9300   39.1690 H   0  0  0  0  0  0  0  0  0  0  0  0
   36.9960   33.3780   40.8960 H   0  0  0  0  0  0  0  0  0  0  0  0
   39.4370   33.0520   39.0690 H   0  0  0  0  0  0  0  0  0  0  0  0
   39.1970   34.2110   40.4640 H   0  0  0  0  0  0  0  0  0  0  0  0
   40.4670   31.9230   40.7270 H   0  0  0  0  0  0  0  0  0  0  0  0
   39.4760   32.5620   42.0460 H   0  0  0  0  0  0  0  0  0  0  0  0
   39.0370   26.7820   43.4790 C   0  0  0  0  0  0  0  0  0  0  0  0
   38.5310   26.5770   44.4490 H   0  0  0  0  0  0  0  0  0  0  0  0
   40.1310   26.8690   43.7050 H   0  0  0  0  0  0  0  0  0  0  0  0
   37.5160   25.3400   42.1940 C   0  0  0  0  0  3  0  0  0  0  0  0
   38.7440   25.6770   42.5600 C   0  0  0  0  0  3  0  0  0  0  0  0
   37.3560   24.2190   41.2720 C   0  0  0  0  0  0  0  0  0  0  0  0
   38.3940   23.2900   41.0050 C   0  0  0  0  0  0  0  0  0  0  0  0
   38.1370   22.2650   40.1130 C   0  0  0  0  0  0  0  0  0  0  0  0
   36.9250   22.1800   39.5320 N   0  0  0  0  0  0  0  0  0  0  0  0
   35.9390   23.0720   39.7930 C   0  0  0  0  0  0  0  0  0  0  0  0
   36.1570   24.0680   40.6470 N   0  0  0  0  0  0  0  0  0  0  0  0
   39.3370   23.4360   41.5190 H   0  0  0  0  0  0  0  0  0  0  0  0
   38.9260   21.5540   39.9060 H   0  0  0  0  0  0  0  0  0  0  0  0
   34.6110   22.9380   39.1250 C   0  0  0  0  0  0  0  0  0  0  0  0
   33.6760   22.8280   40.1400 F   0  0  0  0  0  0  0  0  0  0  0  0
   34.3070   23.9760   38.2940 F   0  0  0  0  0  0  0  0  0  0  0  0
   34.5900   21.7700   38.3830 F   0  0  0  0  0  0  0  0  0  0  0  0
  1  2  2  0  0  0  0
  1 24  1  0  0  0  0
  2 12  1  0  0  0  0
  3 13  1  0  0  0  0
  3  2  1  0  0  0  0
  4  5  2  0  0  0  0
  4  3  1  0  0  0  0
  5  1  1  0  0  0  0
  6 11  1  0  0  0  0
  6  4  1  0  0  0  0
  7  6  1  0  0  0  0
  8  7  1  0  0  0  0
  8  9  1  0  0  0  0
  8 17  1  0  0  0  0
  9 10  1  0  0  0  0
  9 19  1  0  0  0  0
 10 21  1  0  0  0  0
 10 11  1  0  0  0  0
 11 23  1  0  0  0  0
 14  7  1  0  0  0  0
 15  7  1  0  0  0  0
 16  8  1  0  0  0  0
 18  9  1  0  0  0  0
 20 10  1  0  0  0  0
 22 11  1  0  0  0  0
 24 26  1  0  0  0  0
 24 25  1  0  0  0  0
 27 28  2  0  0  0  0
 28 24  1  0  0  0  0
 29 27  1  0  0  0  0
 30 29  1  0  0  0  0
 30 35  1  0  0  0  0
 31 30  2  0  0  0  0
 32 33  2  0  0  0  0
 32 31  1  0  0  0  0
 33 34  1  0  0  0  0
 34 29  2  0  0  0  0
 36 31  1  0  0  0  0
 37 33  1  0  0  0  0
 37 38  1  0  0  0  0
 39 37  1  0  0  0  0
 40 37  1  0  0  0  0
M  END
>  <minimizedAffinity>
-5.8494072

$$$$

 OpenBabel03252504433D

 40 42  0  0  0  0  0  0  0  0999 V2000
   37.3720   31.6900   40.2880 C   0  0  0  0  0  0  0  0  0  0  0  0
   37.0830   32.5750   39.2780 C   0  0  0  0  0  0  0  0  0  0  0  0
   38.2520   33.0390   38.8510 N   0  0  0  0  0  0  0  0  0  0  0  0
   39.2680   32.5070   39.5230 C   0  0  0  0  0  0  0  0  0  0  0  0
   38.7150   31.6590   40.4260 N   0  0  0  0  0  0  0  0  0  0  0  0
   40.6740   32.6960   39.4200 N   0  0  0  0  0  0  0  0  0  0  0  0
   41.4260   31.8210   38.4940 C   0  0  0  0  0  0  0  0  0  0  0  0
   41.7230   32.7090   37.2850 C   0  0  0  0  0  0  0  0  0  0  0  0
   42.2860   34.0280   37.7400 C   0  0  0  0  0  0  0  0  0  0  0  0
   42.7580   33.9160   39.1780 C   0  0  0  0  0  0  0  0  0  0  0  0
   41.5700   33.6090   40.0610 C   0  0  0  0  0  0  0  0  0  0  0  0
   36.0900   32.8270   38.9200 H   0  0  0  0  0  0  0  0  0  0  0  0
   38.3870   33.7430   38.0750 H   0  0  0  0  0  0  0  0  0  0  0  0
   40.7880   30.9820   38.1770 H   0  0  0  0  0  0  0  0  0  0  0  0
   42.3390   31.4270   38.9410 H   0  0  0  0  0  0  0  0  0  0  0  0
   42.3300   32.1900   36.5290 H   0  0  0  0  0  0  0  0  0  0  0  0
   40.7260   32.9350   36.8170 H   0  0  0  0  0  0  0  0  0  0  0  0
   43.2010   34.2390   37.1190 H   0  0  0  0  0  0  0  0  0  0  0  0
   41.5820   34.8600   37.6650 H   0  0  0  0  0  0  0  0  0  0  0  0
   43.5190   33.1260   39.2900 H   0  0  0  0  0  0  0  0  0  0  0  0
   43.1500   34.9090   39.4710 H   0  0  0  0  0  0  0  0  0  0  0  0
   41.9960   33.0660   40.9520 H   0  0  0  0  0  0  0  0  0  0  0  0
   41.1070   34.5150   40.4570 H   0  0  0  0  0  0  0  0  0  0  0  0
   36.3990   30.8980   41.0970 C   0  0  0  0  0  0  0  0  0  0  0  0
   35.3780   31.2320   40.8040 H   0  0  0  0  0  0  0  0  0  0  0  0
   36.5050   31.1260   42.1890 H   0  0  0  0  0  0  0  0  0  0  0  0
   36.1260   28.9120   39.6750 C   0  0  0  0  0  3  0  0  0  0  0  0
   36.5160   29.4630   40.8150 C   0  0  0  0  0  3  0  0  0  0  0  0
   36.2960   27.4710   39.5150 C   0  0  0  0  0  0  0  0  0  0  0  0
   36.0460   26.7980   38.2920 C   0  0  0  0  0  0  0  0  0  0  0  0
   36.2380   25.4290   38.2490 C   0  0  0  0  0  0  0  0  0  0  0  0
   36.6520   24.7830   39.3560 N   0  0  0  0  0  0  0  0  0  0  0  0
   36.8880   25.4340   40.5200 C   0  0  0  0  0  0  0  0  0  0  0  0
   36.7120   26.7500   40.5910 N   0  0  0  0  0  0  0  0  0  0  0  0
   35.7160   27.3990   37.4510 H   0  0  0  0  0  0  0  0  0  0  0  0
   36.0480   24.9120   37.3180 H   0  0  0  0  0  0  0  0  0  0  0  0
   37.3460   24.6750   41.7230 C   0  0  0  0  0  0  0  0  0  0  0  0
   37.3930   23.3440   41.3450 F   0  0  0  0  0  0  0  0  0  0  0  0
   38.5530   25.0870   42.2050 F   0  0  0  0  0  0  0  0  0  0  0  0
   36.4080   24.8110   42.7310 F   0  0  0  0  0  0  0  0  0  0  0  0
  1  5  1  0  0  0  0
  1 24  1  0  0  0  0
  2  1  2  0  0  0  0
  3  2  1  0  0  0  0
  3  4  1  0  0  0  0
  4  5  2  0  0  0  0
  6  4  1  0  0  0  0
  6 11  1  0  0  0  0
  7 15  1  0  0  0  0
  7  6  1  0  0  0  0
  8  9  1  0  0  0  0
  8  7  1  0  0  0  0
  9 10  1  0  0  0  0
 10 20  1  0  0  0  0
 10 21  1  0  0  0  0
 10 11  1  0  0  0  0
 11 23  1  0  0  0  0
 11 22  1  0  0  0  0
 12  2  1  0  0  0  0
 13  3  1  0  0  0  0
 14  7  1  0  0  0  0
 16  8  1  0  0  0  0
 17  8  1  0  0  0  0
 18  9  1  0  0  0  0
 19  9  1  0  0  0  0
 24 26  1  0  0  0  0
 25 24  1  0  0  0  0
 27 28  2  0  0  0  0
 28 24  1  0  0  0  0
 29 27  1  0  0  0  0
 29 34  1  0  0  0  0
 30 29  2  0  0  0  0
 31 30  1  0  0  0  0
 31 32  2  0  0  0  0
 32 33  1  0  0  0  0
 33 34  2  0  0  0  0
 33 37  1  0  0  0  0
 35 30  1  0  0  0  0
 36 31  1  0  0  0  0
 37 39  1  0  0  0  0
 37 40  1  0  0  0  0
 38 37  1  0  0  0  0
M  END
>  <minimizedAffinity>
-5.59090042

$$$$

 OpenBabel03252504433D

 40 42  0  0  0  0  0  0  0  0999 V2000
   36.1980   27.9650   37.8590 C   0  0  0  0  0  0  0  0  0  0  0  0
   37.4220   28.5860   37.9200 C   0  0  0  0  0  0  0  0  0  0  0  0
   37.8390   28.4500   39.1740 N   0  0  0  0  0  0  0  0  0  0  0  0
   36.9600   27.7830   39.9160 C   0  0  0  0  0  0  0  0  0  0  0  0
   35.9280   27.4790   39.0890 N   0  0  0  0  0  0  0  0  0  0  0  0
   36.9720   27.4030   41.2860 N   0  0  0  0  0  0  0  0  0  0  0  0
   37.5700   26.0960   41.6390 C   0  0  0  0  0  0  0  0  0  0  0  0
   38.9300   26.4480   42.2420 C   0  0  0  0  0  0  0  0  0  0  0  0
   38.7740   27.5350   43.2700 C   0  0  0  0  0  0  0  0  0  0  0  0
   37.3160   27.6510   43.6760 C   0  0  0  0  0  0  0  0  0  0  0  0
   36.5020   28.0570   42.4690 C   0  0  0  0  0  0  0  0  0  0  0  0
   37.9260   29.0800   37.0960 H   0  0  0  0  0  0  0  0  0  0  0  0
   38.7510   28.8150   39.5610 H   0  0  0  0  0  0  0  0  0  0  0  0
   37.7240   25.5000   40.7260 H   0  0  0  0  0  0  0  0  0  0  0  0
   36.9530   25.5290   42.3370 H   0  0  0  0  0  0  0  0  0  0  0  0
   39.4680   25.5580   42.5980 H   0  0  0  0  0  0  0  0  0  0  0  0
   39.5340   26.8910   41.4030 H   0  0  0  0  0  0  0  0  0  0  0  0
   39.3380   27.2160   44.1910 H   0  0  0  0  0  0  0  0  0  0  0  0
   39.1250   28.5150   42.9360 H   0  0  0  0  0  0  0  0  0  0  0  0
   36.9350   26.6970   44.0780 H   0  0  0  0  0  0  0  0  0  0  0  0
   37.2480   28.4670   44.4210 H   0  0  0  0  0  0  0  0  0  0  0  0
   35.4660   27.6580   42.6640 H   0  0  0  0  0  0  0  0  0  0  0  0
   36.3950   29.1400   42.3910 H   0  0  0  0  0  0  0  0  0  0  0  0
   35.3110   27.8410   36.6640 C   0  0  0  0  0  0  0  0  0  0  0  0
   34.9950   26.7750   36.5980 H   0  0  0  0  0  0  0  0  0  0  0  0
   35.8730   28.0640   35.7210 H   0  0  0  0  0  0  0  0  0  0  0  0
   33.2160   28.8300   35.8410 C   0  0  0  0  0  3  0  0  0  0  0  0
   34.1100   28.6720   36.8060 C   0  0  0  0  0  3  0  0  0  0  0  0
   32.0610   29.6840   36.1070 C   0  0  0  0  0  0  0  0  0  0  0  0
   31.6350   30.7000   35.2140 C   0  0  0  0  0  0  0  0  0  0  0  0
   30.5290   31.4530   35.5630 C   0  0  0  0  0  0  0  0  0  0  0  0
   29.8980   31.2030   36.7260 N   0  0  0  0  0  0  0  0  0  0  0  0
   30.3120   30.2300   37.5730 C   0  0  0  0  0  0  0  0  0  0  0  0
   31.3720   29.4900   37.2630 N   0  0  0  0  0  0  0  0  0  0  0  0
   32.2040   30.8310   34.3000 H   0  0  0  0  0  0  0  0  0  0  0  0
   30.2010   32.2290   34.8850 H   0  0  0  0  0  0  0  0  0  0  0  0
   29.5800   29.9890   38.8520 C   0  0  0  0  0  0  0  0  0  0  0  0
   28.9260   31.1720   39.1520 F   0  0  0  0  0  0  0  0  0  0  0  0
   28.7000   28.9480   38.7930 F   0  0  0  0  0  0  0  0  0  0  0  0
   30.4930   29.7260   39.8570 F   0  0  0  0  0  0  0  0  0  0  0  0
  1  2  2  0  0  0  0
  1  5  1  0  0  0  0
  2  3  1  0  0  0  0
  3 13  1  0  0  0  0
  3  4  1  0  0  0  0
  4  6  1  0  0  0  0
  5  4  2  0  0  0  0
  6  7  1  0  0  0  0
  6 11  1  0  0  0  0
  7  8  1  0  0  0  0
  7 15  1  0  0  0  0
  8 16  1  0  0  0  0
  8  9  1  0  0  0  0
  9 10  1  0  0  0  0
  9 18  1  0  0  0  0
 10 20  1  0  0  0  0
 10 21  1  0  0  0  0
 11 22  1  0  0  0  0
 11 10  1  0  0  0  0
 12  2  1  0  0  0  0
 14  7  1  0  0  0  0
 17  8  1  0  0  0  0
 19  9  1  0  0  0  0
 23 11  1  0  0  0  0
 24 28  1  0  0  0  0
 24  1  1  0  0  0  0
 25 24  1  0  0  0  0
 26 24  1  0  0  0  0
 27 29  1  0  0  0  0
 27 28  2  0  0  0  0
 29 34  1  0  0  0  0
 30 31  1  0  0  0  0
 30 29  2  0  0  0  0
 31 32  2  0  0  0  0
 32 33  1  0  0  0  0
 33 37  1  0  0  0  0
 34 33  2  0  0  0  0
 35 30  1  0  0  0  0
 36 31  1  0  0  0  0
 37 38  1  0  0  0  0
 37 40  1  0  0  0  0
 39 37  1  0  0  0  0
M  END
>  <minimizedAffinity>
-5.55208063

$$$$

 OpenBabel03252504433D

 40 42  0  0  0  0  0  0  0  0999 V2000
   39.0850   25.7150   42.8540 C   0  0  0  0  0  0  0  0  0  0  0  0
   39.5560   24.4310   42.9770 C   0  0  0  0  0  0  0  0  0  0  0  0
   38.9380   23.7220   42.0390 N   0  0  0  0  0  0  0  0  0  0  0  0
   38.1030   24.4710   41.3260 C   0  0  0  0  0  0  0  0  0  0  0  0
   38.1960   25.7240   41.8390 N   0  0  0  0  0  0  0  0  0  0  0  0
   37.2430   24.1580   40.2370 N   0  0  0  0  0  0  0  0  0  0  0  0
   37.7880   24.2700   38.8670 C   0  0  0  0  0  0  0  0  0  0  0  0
   38.0380   22.8250   38.4350 C   0  0  0  0  0  0  0  0  0  0  0  0
   36.8250   21.9830   38.7230 C   0  0  0  0  0  0  0  0  0  0  0  0
   35.6230   22.8790   38.9600 C   0  0  0  0  0  0  0  0  0  0  0  0
   35.8790   23.7280   40.1840 C   0  0  0  0  0  0  0  0  0  0  0  0
   40.2870   24.0890   43.7040 H   0  0  0  0  0  0  0  0  0  0  0  0
   39.0730   22.6900   41.8590 H   0  0  0  0  0  0  0  0  0  0  0  0
   38.7470   24.8090   38.8930 H   0  0  0  0  0  0  0  0  0  0  0  0
   37.1070   24.7830   38.1880 H   0  0  0  0  0  0  0  0  0  0  0  0
   38.4030   22.7590   37.4000 H   0  0  0  0  0  0  0  0  0  0  0  0
   38.8560   22.4400   39.1030 H   0  0  0  0  0  0  0  0  0  0  0  0
   36.5980   21.3830   37.7970 H   0  0  0  0  0  0  0  0  0  0  0  0
   36.9410   21.3170   39.5820 H   0  0  0  0  0  0  0  0  0  0  0  0
   35.4300   23.5290   38.0900 H   0  0  0  0  0  0  0  0  0  0  0  0
   34.7620   22.2190   39.1800 H   0  0  0  0  0  0  0  0  0  0  0  0
   35.2570   24.6570   40.0350 H   0  0  0  0  0  0  0  0  0  0  0  0
   35.5020   23.2600   41.0950 H   0  0  0  0  0  0  0  0  0  0  0  0
   39.4700   26.8980   43.6800 C   0  0  0  0  0  0  0  0  0  0  0  0
   40.4430   26.6580   44.1650 H   0  0  0  0  0  0  0  0  0  0  0  0
   38.7360   27.0650   44.5100 H   0  0  0  0  0  0  0  0  0  0  0  0
   38.8670   29.1590   42.9250 C   0  0  0  0  0  3  0  0  0  0  0  0
   39.6490   28.0920   42.8460 C   0  0  0  0  0  3  0  0  0  0  0  0
   39.1500   30.2850   42.0390 C   0  0  0  0  0  0  0  0  0  0  0  0
   40.4130   30.9280   41.9930 C   0  0  0  0  0  0  0  0  0  0  0  0
   40.5740   31.9870   41.1180 C   0  0  0  0  0  0  0  0  0  0  0  0
   39.5400   32.3710   40.3460 N   0  0  0  0  0  0  0  0  0  0  0  0
   38.3360   31.7520   40.3970 C   0  0  0  0  0  0  0  0  0  0  0  0
   38.1520   30.7300   41.2290 N   0  0  0  0  0  0  0  0  0  0  0  0
   41.1880   30.5510   42.6510 H   0  0  0  0  0  0  0  0  0  0  0  0
   41.5360   32.4810   41.0800 H   0  0  0  0  0  0  0  0  0  0  0  0
   37.2180   32.2130   39.5220 C   0  0  0  0  0  0  0  0  0  0  0  0
   36.1420   31.3890   39.8030 F   0  0  0  0  0  0  0  0  0  0  0  0
   36.8860   33.5240   39.7000 F   0  0  0  0  0  0  0  0  0  0  0  0
   37.5730   32.0330   38.1970 F   0  0  0  0  0  0  0  0  0  0  0  0
  1  2  2  0  0  0  0
  1 24  1  0  0  0  0
  2 12  1  0  0  0  0
  3  2  1  0  0  0  0
  4  5  2  0  0  0  0
  4  3  1  0  0  0  0
  5  1  1  0  0  0  0
  6  4  1  0  0  0  0
  7 14  1  0  0  0  0
  7  6  1  0  0  0  0
  8  9  1  0  0  0  0
  8  7  1  0  0  0  0
  8 17  1  0  0  0  0
  9 10  1  0  0  0  0
  9 19  1  0  0  0  0
 10 21  1  0  0  0  0
 10 11  1  0  0  0  0
 11  6  1  0  0  0  0
 11 23  1  0  0  0  0
 13  3  1  0  0  0  0
 15  7  1  0  0  0  0
 16  8  1  0  0  0  0
 18  9  1  0  0  0  0
 20 10  1  0  0  0  0
 22 11  1  0  0  0  0
 24 25  1  0  0  0  0
 24 26  1  0  0  0  0
 28 27  2  0  0  0  0
 28 24  1  0  0  0  0
 29 27  1  0  0  0  0
 30 29  1  0  0  0  0
 30 35  1  0  0  0  0
 31 30  2  0  0  0  0
 32 33  2  0  0  0  0
 32 31  1  0  0  0  0
 33 34  1  0  0  0  0
 34 29  2  0  0  0  0
 36 31  1  0  0  0  0
 37 39  1  0  0  0  0
 37 38  1  0  0  0  0
 37 33  1  0  0  0  0
 40 37  1  0  0  0  0
M  END
>  <minimizedAffinity>
-5.54173708

$$$$

 OpenBabel03252504433D

 40 42  0  0  0  0  0  0  0  0999 V2000
   36.9110   30.7450   39.8360 C   0  0  0  0  0  0  0  0  0  0  0  0
   36.2240   30.6750   41.0240 C   0  0  0  0  0  0  0  0  0  0  0  0
   36.2990   29.4090   41.4170 N   0  0  0  0  0  0  0  0  0  0  0  0
   36.9880   28.6660   40.5560 C   0  0  0  0  0  0  0  0  0  0  0  0
   37.3720   29.5060   39.5630 N   0  0  0  0  0  0  0  0  0  0  0  0
   37.3250   27.2840   40.5550 N   0  0  0  0  0  0  0  0  0  0  0  0
   38.5860   26.8760   41.2110 C   0  0  0  0  0  0  0  0  0  0  0  0
   38.1430   26.2540   42.5360 C   0  0  0  0  0  0  0  0  0  0  0  0
   37.0350   25.2650   42.2970 C   0  0  0  0  0  0  0  0  0  0  0  0
   36.9840   24.8960   40.8260 C   0  0  0  0  0  0  0  0  0  0  0  0
   36.6600   26.1340   40.0210 C   0  0  0  0  0  0  0  0  0  0  0  0
   35.7300   31.5040   41.5210 H   0  0  0  0  0  0  0  0  0  0  0  0
   35.8740   29.0130   42.2990 H   0  0  0  0  0  0  0  0  0  0  0  0
   39.2000   27.7650   41.4190 H   0  0  0  0  0  0  0  0  0  0  0  0
   39.1620   26.1740   40.6080 H   0  0  0  0  0  0  0  0  0  0  0  0
   38.9920   25.8570   43.1110 H   0  0  0  0  0  0  0  0  0  0  0  0
   37.6950   27.0920   43.1360 H   0  0  0  0  0  0  0  0  0  0  0  0
   37.2940   24.3210   42.8550 H   0  0  0  0  0  0  0  0  0  0  0  0
   36.0480   25.6220   42.6040 H   0  0  0  0  0  0  0  0  0  0  0  0
   37.9440   24.4720   40.4860 H   0  0  0  0  0  0  0  0  0  0  0  0
   36.1500   24.1800   40.6970 H   0  0  0  0  0  0  0  0  0  0  0  0
   37.1070   25.9500   39.0030 H   0  0  0  0  0  0  0  0  0  0  0  0
   35.5870   26.2500   39.8600 H   0  0  0  0  0  0  0  0  0  0  0  0
   37.1190   31.9550   38.9860 C   0  0  0  0  0  0  0  0  0  0  0  0
   36.6780   32.8200   39.5310 H   0  0  0  0  0  0  0  0  0  0  0  0
   36.5570   31.8700   38.0210 H   0  0  0  0  0  0  0  0  0  0  0  0
   39.2180   31.7920   37.7170 C   0  0  0  0  0  3  0  0  0  0  0  0
   38.5470   32.2170   38.7780 C   0  0  0  0  0  3  0  0  0  0  0  0
   40.6380   32.1200   37.6260 C   0  0  0  0  0  0  0  0  0  0  0  0
   41.1860   33.3180   38.1510 C   0  0  0  0  0  0  0  0  0  0  0  0
   42.5460   33.5300   38.0090 C   0  0  0  0  0  0  0  0  0  0  0  0
   43.2990   32.6060   37.3850 N   0  0  0  0  0  0  0  0  0  0  0  0
   42.7670   31.4640   36.8860 C   0  0  0  0  0  0  0  0  0  0  0  0
   41.4630   31.2330   37.0070 N   0  0  0  0  0  0  0  0  0  0  0  0
   40.5040   34.0060   38.6380 H   0  0  0  0  0  0  0  0  0  0  0  0
   42.9670   34.4430   38.4080 H   0  0  0  0  0  0  0  0  0  0  0  0
   43.6430   30.4670   36.2000 C   0  0  0  0  0  0  0  0  0  0  0  0
   44.7880   31.1490   35.8280 F   0  0  0  0  0  0  0  0  0  0  0  0
   43.9500   29.3850   36.9720 F   0  0  0  0  0  0  0  0  0  0  0  0
   43.0100   30.0160   35.0560 F   0  0  0  0  0  0  0  0  0  0  0  0
  1  2  2  0  0  0  0
  2  3  1  0  0  0  0
  2 12  1  0  0  0  0
  3 13  1  0  0  0  0
  4  3  1  0  0  0  0
  5  1  1  0  0  0  0
  5  4  2  0  0  0  0
  6  4  1  0  0  0  0
  6  7  1  0  0  0  0
  7 14  1  0  0  0  0
  7  8  1  0  0  0  0
  8 16  1  0  0  0  0
  8 17  1  0  0  0  0
  9  8  1  0  0  0  0
  9 19  1  0  0  0  0
  9 18  1  0  0  0  0
 10  9  1  0  0  0  0
 11  6  1  0  0  0  0
 11 10  1  0  0  0  0
 15  7  1  0  0  0  0
 20 10  1  0  0  0  0
 21 10  1  0  0  0  0
 22 11  1  0  0  0  0
 23 11  1  0  0  0  0
 24 25  1  0  0  0  0
 24  1  1  0  0  0  0
 26 24  1  0  0  0  0
 27 28  2  0  0  0  0
 28 24  1  0  0  0  0
 29 27  1  0  0  0  0
 29 30  1  0  0  0  0
 30 35  1  0  0  0  0
 31 30  2  0  0  0  0
 31 36  1  0  0  0  0
 32 31  1  0  0  0  0
 33 34  1  0  0  0  0
 33 32  2  0  0  0  0
 34 29  2  0  0  0  0
 37 33  1  0  0  0  0
 37 39  1  0  0  0  0
 38 37  1  0  0  0  0
 40 37  1  0  0  0  0
M  END
>  <minimizedAffinity>
-5.53690147

$$$$

 OpenBabel03252504433D

 40 42  0  0  0  0  0  0  0  0999 V2000
   35.6490   28.5530   37.9570 C   0  0  0  0  0  0  0  0  0  0  0  0
   36.2210   29.7780   38.2020 C   0  0  0  0  0  0  0  0  0  0  0  0
   36.8110   29.6760   39.3880 N   0  0  0  0  0  0  0  0  0  0  0  0
   36.6530   28.4660   39.9150 C   0  0  0  0  0  0  0  0  0  0  0  0
   35.9210   27.7600   39.0150 N   0  0  0  0  0  0  0  0  0  0  0  0
   37.0980   27.9010   41.1420 N   0  0  0  0  0  0  0  0  0  0  0  0
   38.4180   27.2340   41.1600 C   0  0  0  0  0  0  0  0  0  0  0  0
   39.3400   28.2310   41.8620 C   0  0  0  0  0  0  0  0  0  0  0  0
   38.6980   28.7230   43.1310 C   0  0  0  0  0  0  0  0  0  0  0  0
   37.5600   27.7990   43.5220 C   0  0  0  0  0  0  0  0  0  0  0  0
   36.5040   27.8390   42.4420 C   0  0  0  0  0  0  0  0  0  0  0  0
   36.1840   30.6390   37.5430 H   0  0  0  0  0  0  0  0  0  0  0  0
   37.3470   30.4440   39.8750 H   0  0  0  0  0  0  0  0  0  0  0  0
   38.7710   27.0820   40.1290 H   0  0  0  0  0  0  0  0  0  0  0  0
   38.3930   26.2740   41.6760 H   0  0  0  0  0  0  0  0  0  0  0  0
   40.3580   27.8360   41.9900 H   0  0  0  0  0  0  0  0  0  0  0  0
   39.4100   29.1210   41.1780 H   0  0  0  0  0  0  0  0  0  0  0  0
   39.4670   28.6490   43.9520 H   0  0  0  0  0  0  0  0  0  0  0  0
   38.3160   29.7450   43.0680 H   0  0  0  0  0  0  0  0  0  0  0  0
   37.9140   26.7630   43.6580 H   0  0  0  0  0  0  0  0  0  0  0  0
   37.1130   28.2050   44.4490 H   0  0  0  0  0  0  0  0  0  0  0  0
   35.9770   26.8440   42.5060 H   0  0  0  0  0  0  0  0  0  0  0  0
   35.7410   28.5930   42.6420 H   0  0  0  0  0  0  0  0  0  0  0  0
   34.8650   28.1500   36.7520 C   0  0  0  0  0  0  0  0  0  0  0  0
   34.4940   27.1160   36.9310 H   0  0  0  0  0  0  0  0  0  0  0  0
   35.5200   28.0980   35.8440 H   0  0  0  0  0  0  0  0  0  0  0  0
   32.6580   29.0460   37.3620 C   0  0  0  0  0  3  0  0  0  0  0  0
   33.7070   29.0300   36.5530 C   0  0  0  0  0  3  0  0  0  0  0  0
   31.5680   29.9680   37.0560 C   0  0  0  0  0  0  0  0  0  0  0  0
   30.5010   30.2220   37.9550 C   0  0  0  0  0  0  0  0  0  0  0  0
   29.5180   31.1140   37.5640 C   0  0  0  0  0  0  0  0  0  0  0  0
   29.6030   31.7070   36.3590 N   0  0  0  0  0  0  0  0  0  0  0  0
   30.6260   31.4580   35.5060 C   0  0  0  0  0  0  0  0  0  0  0  0
   31.5850   30.6050   35.8540 N   0  0  0  0  0  0  0  0  0  0  0  0
   30.5150   29.6990   38.9050 H   0  0  0  0  0  0  0  0  0  0  0  0
   28.7020   31.3100   38.2470 H   0  0  0  0  0  0  0  0  0  0  0  0
   30.6780   32.1400   34.1790 C   0  0  0  0  0  0  0  0  0  0  0  0
   30.8560   31.1400   33.2380 F   0  0  0  0  0  0  0  0  0  0  0  0
   29.5670   32.8800   33.8980 F   0  0  0  0  0  0  0  0  0  0  0  0
   31.7770   32.9780   34.1400 F   0  0  0  0  0  0  0  0  0  0  0  0
  1  2  2  0  0  0  0
  1  5  1  0  0  0  0
  2  3  1  0  0  0  0
  3 13  1  0  0  0  0
  3  4  1  0  0  0  0
  4  6  1  0  0  0  0
  5  4  2  0  0  0  0
  6  7  1  0  0  0  0
  6 11  1  0  0  0  0
  7 15  1  0  0  0  0
  7  8  1  0  0  0  0
  8 16  1  0  0  0  0
  8  9  1  0  0  0  0
  9 10  1  0  0  0  0
  9 18  1  0  0  0  0
 10 20  1  0  0  0  0
 10 21  1  0  0  0  0
 11 22  1  0  0  0  0
 11 23  1  0  0  0  0
 11 10  1  0  0  0  0
 12  2  1  0  0  0  0
 14  7  1  0  0  0  0
 17  8  1  0  0  0  0
 19  9  1  0  0  0  0
 24 25  1  0  0  0  0
 24  1  1  0  0  0  0
 26 24  1  0  0  0  0
 28 24  1  0  0  0  0
 28 27  2  0  0  0  0
 29 27  1  0  0  0  0
 29 30  1  0  0  0  0
 30 35  1  0  0  0  0
 31 30  2  0  0  0  0
 31 36  1  0  0  0  0
 32 31  1  0  0  0  0
 33 34  1  0  0  0  0
 33 32  2  0  0  0  0
 34 29  2  0  0  0  0
 37 33  1  0  0  0  0
 38 37  1  0  0  0  0
 39 37  1  0  0  0  0
 40 37  1  0  0  0  0
M  END
>  <minimizedAffinity>
-5.51661825

$$$$

 OpenBabel03252504433D

 40 42  0  0  0  0  0  0  0  0999 V2000
   32.9740   28.5290   35.5680 C   0  0  0  0  0  0  0  0  0  0  0  0
   32.1720   28.0250   34.5740 C   0  0  0  0  0  0  0  0  0  0  0  0
   31.2640   28.9610   34.3240 N   0  0  0  0  0  0  0  0  0  0  0  0
   31.4350   30.0310   35.0960 C   0  0  0  0  0  0  0  0  0  0  0  0
   32.5100   29.7580   35.8780 N   0  0  0  0  0  0  0  0  0  0  0  0
   30.7220   31.2580   35.1850 N   0  0  0  0  0  0  0  0  0  0  0  0
   31.1580   32.3780   34.3230 C   0  0  0  0  0  0  0  0  0  0  0  0
   30.1130   32.4310   33.2070 C   0  0  0  0  0  0  0  0  0  0  0  0
   28.7290   32.3930   33.7940 C   0  0  0  0  0  0  0  0  0  0  0  0
   28.7890   32.7230   35.2730 C   0  0  0  0  0  0  0  0  0  0  0  0
   29.6020   31.6630   35.9800 C   0  0  0  0  0  0  0  0  0  0  0  0
   32.2800   27.0530   34.1030 H   0  0  0  0  0  0  0  0  0  0  0  0
   30.4910   28.8930   33.6080 H   0  0  0  0  0  0  0  0  0  0  0  0
   32.1410   32.1490   33.8850 H   0  0  0  0  0  0  0  0  0  0  0  0
   31.2180   33.3230   34.8640 H   0  0  0  0  0  0  0  0  0  0  0  0
   30.2910   33.2640   32.5120 H   0  0  0  0  0  0  0  0  0  0  0  0
   30.2360   31.4760   32.6250 H   0  0  0  0  0  0  0  0  0  0  0  0
   28.1300   33.2140   33.3070 H   0  0  0  0  0  0  0  0  0  0  0  0
   28.2200   31.4340   33.6680 H   0  0  0  0  0  0  0  0  0  0  0  0
   29.2410   33.7150   35.4440 H   0  0  0  0  0  0  0  0  0  0  0  0
   27.7540   32.6720   35.6630 H   0  0  0  0  0  0  0  0  0  0  0  0
   30.0260   32.1730   36.8910 H   0  0  0  0  0  0  0  0  0  0  0  0
   28.9800   30.8500   36.3550 H   0  0  0  0  0  0  0  0  0  0  0  0
   34.1460   27.8600   36.2060 C   0  0  0  0  0  0  0  0  0  0  0  0
   34.9780   27.8780   35.4670 H   0  0  0  0  0  0  0  0  0  0  0  0
   33.9300   26.7800   36.4120 H   0  0  0  0  0  0  0  0  0  0  0  0
   35.7410   29.2110   37.5010 C   0  0  0  0  0  3  0  0  0  0  0  0
   34.5790   28.5800   37.4090 C   0  0  0  0  0  3  0  0  0  0  0  0
   36.0560   29.8920   38.7530 C   0  0  0  0  0  0  0  0  0  0  0  0
   35.7160   29.3610   40.0240 C   0  0  0  0  0  0  0  0  0  0  0  0
   36.0600   30.0890   41.1480 C   0  0  0  0  0  0  0  0  0  0  0  0
   36.6990   31.2660   41.0060 N   0  0  0  0  0  0  0  0  0  0  0  0
   37.0200   31.7660   39.7880 C   0  0  0  0  0  0  0  0  0  0  0  0
   36.7020   31.0880   38.6890 N   0  0  0  0  0  0  0  0  0  0  0  0
   35.2010   28.4070   40.0430 H   0  0  0  0  0  0  0  0  0  0  0  0
   35.8020   29.6880   42.1190 H   0  0  0  0  0  0  0  0  0  0  0  0
   37.7300   33.0750   39.6790 C   0  0  0  0  0  0  0  0  0  0  0  0
   38.7590   32.8830   38.7730 F   0  0  0  0  0  0  0  0  0  0  0  0
   36.9250   34.1050   39.2900 F   0  0  0  0  0  0  0  0  0  0  0  0
   38.2810   33.3980   40.9060 F   0  0  0  0  0  0  0  0  0  0  0  0
  1  5  1  0  0  0  0
  1 24  1  0  0  0  0
  2  1  2  0  0  0  0
  3  2  1  0  0  0  0
  3  4  1  0  0  0  0
  4  6  1  0  0  0  0
  4  5  2  0  0  0  0
  6 11  1  0  0  0  0
  7 15  1  0  0  0  0
  7  6  1  0  0  0  0
  8  9  1  0  0  0  0
  8  7  1  0  0  0  0
  9 10  1  0  0  0  0
 10 20  1  0  0  0  0
 10 21  1  0  0  0  0
 10 11  1  0  0  0  0
 11 23  1  0  0  0  0
 11 22  1  0  0  0  0
 12  2  1  0  0  0  0
 13  3  1  0  0  0  0
 14  7  1  0  0  0  0
 16  8  1  0  0  0  0
 17  8  1  0  0  0  0
 18  9  1  0  0  0  0
 19  9  1  0  0  0  0
 24 26  1  0  0  0  0
 24 28  1  0  0  0  0
 25 24  1  0  0  0  0
 27 29  1  0  0  0  0
 28 27  2  0  0  0  0
 29 30  1  0  0  0  0
 30 35  1  0  0  0  0
 30 31  2  0  0  0  0
 31 36  1  0  0  0  0
 32 31  1  0  0  0  0
 33 32  2  0  0  0  0
 34 29  2  0  0  0  0
 34 33  1  0  0  0  0
 37 33  1  0  0  0  0
 37 40  1  0  0  0  0
 38 37  1  0  0  0  0
 39 37  1  0  0  0  0
M  END
>  <minimizedAffinity>
-5.42623234

$$$$

 OpenBabel03252504433D

 40 42  0  0  0  0  0  0  0  0999 V2000
   35.9710   29.4380   37.0940 C   0  0  0  0  0  0  0  0  0  0  0  0
   36.9920   29.7910   36.2470 C   0  0  0  0  0  0  0  0  0  0  0  0
   37.7260   30.6800   36.9060 N   0  0  0  0  0  0  0  0  0  0  0  0
   37.2380   30.9170   38.1210 C   0  0  0  0  0  0  0  0  0  0  0  0
   36.1350   30.1370   38.2380 N   0  0  0  0  0  0  0  0  0  0  0  0
   37.6770   31.7750   39.1670 N   0  0  0  0  0  0  0  0  0  0  0  0
   38.6310   31.2290   40.1570 C   0  0  0  0  0  0  0  0  0  0  0  0
   39.9770   31.8420   39.7680 C   0  0  0  0  0  0  0  0  0  0  0  0
   39.8300   33.3250   39.5640 C   0  0  0  0  0  0  0  0  0  0  0  0
   38.5330   33.8030   40.1890 C   0  0  0  0  0  0  0  0  0  0  0  0
   37.3740   33.1370   39.4830 C   0  0  0  0  0  0  0  0  0  0  0  0
   37.1470   29.4060   35.2440 H   0  0  0  0  0  0  0  0  0  0  0  0
   38.5940   31.1550   36.5380 H   0  0  0  0  0  0  0  0  0  0  0  0
   38.6900   30.1360   40.0520 H   0  0  0  0  0  0  0  0  0  0  0  0
   38.3560   31.4770   41.1820 H   0  0  0  0  0  0  0  0  0  0  0  0
   40.7790   31.5550   40.4630 H   0  0  0  0  0  0  0  0  0  0  0  0
   40.2350   31.4080   38.7630 H   0  0  0  0  0  0  0  0  0  0  0  0
   40.6630   33.8310   40.1290 H   0  0  0  0  0  0  0  0  0  0  0  0
   39.8490   33.6320   38.5150 H   0  0  0  0  0  0  0  0  0  0  0  0
   38.4970   33.5680   41.2660 H   0  0  0  0  0  0  0  0  0  0  0  0
   38.4620   34.8920   40.0040 H   0  0  0  0  0  0  0  0  0  0  0  0
   36.5410   33.1110   40.2410 H   0  0  0  0  0  0  0  0  0  0  0  0
   37.0010   33.7360   38.6510 H   0  0  0  0  0  0  0  0  0  0  0  0
   34.8700   28.4660   36.8230 C   0  0  0  0  0  0  0  0  0  0  0  0
   34.7210   27.8700   37.7520 H   0  0  0  0  0  0  0  0  0  0  0  0
   35.1640   27.7380   36.0240 H   0  0  0  0  0  0  0  0  0  0  0  0
   32.5630   29.1570   37.3160 C   0  0  0  0  0  3  0  0  0  0  0  0
   33.6150   29.1590   36.5110 C   0  0  0  0  0  3  0  0  0  0  0  0
   31.3710   29.8850   36.8910 C   0  0  0  0  0  0  0  0  0  0  0  0
   30.1510   29.8520   37.6140 C   0  0  0  0  0  0  0  0  0  0  0  0
   29.0820   30.5790   37.1220 C   0  0  0  0  0  0  0  0  0  0  0  0
   29.2280   31.2860   35.9860 N   0  0  0  0  0  0  0  0  0  0  0  0
   30.3960   31.3110   35.3010 C   0  0  0  0  0  0  0  0  0  0  0  0
   31.4420   30.6230   35.7500 N   0  0  0  0  0  0  0  0  0  0  0  0
   30.1250   29.2560   38.5190 H   0  0  0  0  0  0  0  0  0  0  0  0
   28.1500   30.5560   37.6710 H   0  0  0  0  0  0  0  0  0  0  0  0
   30.5110   32.1100   34.0450 C   0  0  0  0  0  0  0  0  0  0  0  0
   29.3600   32.8740   33.9650 F   0  0  0  0  0  0  0  0  0  0  0  0
   31.6230   32.8990   33.9960 F   0  0  0  0  0  0  0  0  0  0  0  0
   30.5430   31.2510   32.9600 F   0  0  0  0  0  0  0  0  0  0  0  0
  1  5  1  0  0  0  0
  2  3  1  0  0  0  0
  2  1  2  0  0  0  0
  3  4  1  0  0  0  0
  4  5  2  0  0  0  0
  4  6  1  0  0  0  0
  6 11  1  0  0  0  0
  6  7  1  0  0  0  0
  7 15  1  0  0  0  0
  8  7  1  0  0  0  0
  8 16  1  0  0  0  0
  9  8  1  0  0  0  0
  9 18  1  0  0  0  0
  9 10  1  0  0  0  0
 10 20  1  0  0  0  0
 11 10  1  0  0  0  0
 11 22  1  0  0  0  0
 12  2  1  0  0  0  0
 13  3  1  0  0  0  0
 14  7  1  0  0  0  0
 17  8  1  0  0  0  0
 19  9  1  0  0  0  0
 21 10  1  0  0  0  0
 23 11  1  0  0  0  0
 24  1  1  0  0  0  0
 24 25  1  0  0  0  0
 26 24  1  0  0  0  0
 28 24  1  0  0  0  0
 28 27  2  0  0  0  0
 29 27  1  0  0  0  0
 29 30  1  0  0  0  0
 30 35  1  0  0  0  0
 31 30  2  0  0  0  0
 31 36  1  0  0  0  0
 32 31  1  0  0  0  0
 33 34  1  0  0  0  0
 33 32  2  0  0  0  0
 34 29  2  0  0  0  0
 37 33  1  0  0  0  0
 38 37  1  0  0  0  0
 39 37  1  0  0  0  0
 40 37  1  0  0  0  0
M  END
>  <minimizedAffinity>
-5.40964413

$$$$
