
 OpenBabel03252509073D

 36 38  0  0  0  0  0  0  0  0999 V2000
   45.2950   35.2720   43.1240 Cl  0  0  0  0  0  0  0  0  0  0  0  0
   45.1720   34.5340   41.5560 C   0  0  0  0  0  0  0  0  0  0  0  0
   46.2840   34.1570   40.8780 C   0  0  0  0  0  0  0  0  0  0  0  0
   46.0750   33.5660   39.6390 C   0  0  0  0  0  0  0  0  0  0  0  0
   44.8210   33.3710   39.1200 C   0  0  0  0  0  0  0  0  0  0  0  0
   43.7250   33.7570   39.8190 C   0  0  0  0  0  0  0  0  0  0  0  0
   43.9150   34.3460   41.0510 C   0  0  0  0  0  0  0  0  0  0  0  0
   44.6840   32.9020   38.1380 H   0  0  0  0  0  0  0  0  0  0  0  0
   42.7220   33.6150   39.4330 H   0  0  0  0  0  0  0  0  0  0  0  0
   43.0310   34.6470   41.5930 H   0  0  0  0  0  0  0  0  0  0  0  0
   47.7260   31.8590   38.8900 C   0  0  0  0  0  0  0  0  0  0  0  0
   47.2330   33.1290   38.8660 C   0  0  0  0  0  0  0  0  0  0  0  0
   47.8350   34.0860   38.0710 C   0  0  0  0  0  0  0  0  0  0  0  0
   48.9290   33.7440   37.3090 C   0  0  0  0  0  0  0  0  0  0  0  0
   49.4590   32.4610   37.3070 C   0  0  0  0  0  0  0  0  0  0  0  0
   48.8300   31.5240   38.1180 C   0  0  0  0  0  0  0  0  0  0  0  0
   47.4470   35.1070   38.0440 H   0  0  0  0  0  0  0  0  0  0  0  0
   49.3560   34.5300   36.7090 H   0  0  0  0  0  0  0  0  0  0  0  0
   50.3080   32.1950   36.7150 H   0  0  0  0  0  0  0  0  0  0  0  0
   49.2520   30.5330   38.1070 H   0  0  0  0  0  0  0  0  0  0  0  0
   47.0420   30.6440   39.8130 S   0  0  0  0  0  0  0  0  0  0  0  0
   47.6340   29.2960   39.3950 O   0  0  0  0  0  0  0  0  0  0  0  0
   47.5890   30.8580   41.2460 O   0  0  0  0  0  0  0  0  0  0  0  0
   45.4730   30.1510   40.0540 C   0  0  0  0  0  0  0  0  0  0  0  0
   44.4220   30.4270   39.2460 F   0  0  0  0  0  0  0  0  0  0  0  0
   44.9930   30.8770   41.1600 F   0  0  0  0  0  0  0  0  0  0  0  0
   45.3130   28.8620   40.6430 F   0  0  0  0  0  0  0  0  0  0  0  0
   49.5600   35.7330   41.8920 C   0  0  0  0  0  0  0  0  0  0  0  0
   48.2980   35.5430   41.3150 C   0  0  0  0  0  0  0  0  0  0  0  0
   47.5840   34.3690   41.4630 C   0  0  0  0  0  0  0  0  0  0  0  0
   48.1990   33.4160   42.2080 N   0  0  0  0  0  0  0  0  0  0  0  0
   49.4130   33.5960   42.7640 C   0  0  0  0  0  0  0  0  0  0  0  0
   50.0790   34.7440   42.6030 N   0  0  0  0  0  0  0  0  0  0  0  0
   49.9860   36.7050   41.6830 H   0  0  0  0  0  0  0  0  0  0  0  0
   47.8190   36.3130   40.7220 H   0  0  0  0  0  0  0  0  0  0  0  0
   49.8880   32.8280   43.3540 H   0  0  0  0  0  0  0  0  0  0  0  0
  2  1  1  0  0  0  0
  3 30  1  0  0  0  0
  3  2  2  0  0  0  0
  4  3  1  0  0  0  0
  5  4  2  0  0  0  0
  5  6  1  0  0  0  0
  6  7  2  0  0  0  0
  7  2  1  0  0  0  0
  7 10  1  0  0  0  0
  8  5  1  0  0  0  0
  9  6  1  0  0  0  0
 11 21  1  0  0  0  0
 12 11  1  0  0  0  0
 12  4  1  0  0  0  0
 13 12  2  0  0  0  0
 14 13  1  0  0  0  0
 15 14  2  0  0  0  0
 15 16  1  0  0  0  0
 16 11  2  0  0  0  0
 17 13  1  0  0  0  0
 18 14  1  0  0  0  0
 19 15  1  0  0  0  0
 20 16  1  0  0  0  0
 21 24  1  0  0  0  0
 21 23  2  0  0  0  0
 22 21  2  0  0  0  0
 24 27  1  0  0  0  0
 24 26  1  0  0  0  0
 25 24  1  0  0  0  0
 28 33  1  0  0  0  0
 29 30  1  0  0  0  0
 29 28  2  0  0  0  0
 30 31  2  0  0  0  0
 31 32  1  0  0  0  0
 32 36  1  0  0  0  0
 33 32  2  0  0  0  0
 34 28  1  0  0  0  0
 35 29  1  0  0  0  0
M  END
>  <minimizedAffinity>
-4.4723382

>  <minimizedRMSD>
0.718272805

$$$$
