
 OpenBabel03252509073D

 36 38  0  0  0  0  0  0  0  0999 V2000
   45.2790   35.2790   43.1070 Cl  0  0  0  0  0  0  0  0  0  0  0  0
   45.1660   34.5350   41.5410 C   0  0  0  0  0  0  0  0  0  0  0  0
   46.2820   34.1600   40.8690 C   0  0  0  0  0  0  0  0  0  0  0  0
   46.0800   33.5630   39.6320 C   0  0  0  0  0  0  0  0  0  0  0  0
   44.8290   33.3610   39.1080 C   0  0  0  0  0  0  0  0  0  0  0  0
   43.7290   33.7470   39.8010 C   0  0  0  0  0  0  0  0  0  0  0  0
   43.9110   34.3400   41.0310 C   0  0  0  0  0  0  0  0  0  0  0  0
   44.6980   32.8890   38.1270 H   0  0  0  0  0  0  0  0  0  0  0  0
   42.7270   33.5990   39.4110 H   0  0  0  0  0  0  0  0  0  0  0  0
   43.0230   34.6400   41.5690 H   0  0  0  0  0  0  0  0  0  0  0  0
   47.8020   31.8900   38.9730 C   0  0  0  0  0  0  0  0  0  0  0  0
   47.2430   33.1270   38.8660 C   0  0  0  0  0  0  0  0  0  0  0  0
   47.7770   34.0500   37.9850 C   0  0  0  0  0  0  0  0  0  0  0  0
   48.8710   33.7060   37.2240 C   0  0  0  0  0  0  0  0  0  0  0  0
   49.4680   32.4550   37.3060 C   0  0  0  0  0  0  0  0  0  0  0  0
   48.9060   31.5530   38.2010 C   0  0  0  0  0  0  0  0  0  0  0  0
   47.3360   35.0440   37.8910 H   0  0  0  0  0  0  0  0  0  0  0  0
   49.2440   34.4640   36.5560 H   0  0  0  0  0  0  0  0  0  0  0  0
   50.3170   32.1880   36.7150 H   0  0  0  0  0  0  0  0  0  0  0  0
   49.3780   30.5860   38.2550 H   0  0  0  0  0  0  0  0  0  0  0  0
   47.2020   30.7160   40.0020 S   0  0  0  0  0  0  0  0  0  0  0  0
   46.9680   29.4240   39.2160 O   0  0  0  0  0  0  0  0  0  0  0  0
   48.3740   30.3620   40.9510 O   0  0  0  0  0  0  0  0  0  0  0  0
   45.8600   30.6460   40.9810 C   0  0  0  0  0  0  0  0  0  0  0  0
   45.6810   31.3330   42.1330 F   0  0  0  0  0  0  0  0  0  0  0  0
   45.8700   29.3700   41.5770 F   0  0  0  0  0  0  0  0  0  0  0  0
   44.6140   30.4830   40.3080 F   0  0  0  0  0  0  0  0  0  0  0  0
   49.5530   35.7460   41.8810 C   0  0  0  0  0  0  0  0  0  0  0  0
   48.2940   35.5490   41.3000 C   0  0  0  0  0  0  0  0  0  0  0  0
   47.5790   34.3780   41.4590 C   0  0  0  0  0  0  0  0  0  0  0  0
   48.1880   33.4350   42.2200 N   0  0  0  0  0  0  0  0  0  0  0  0
   49.3990   33.6200   42.7810 C   0  0  0  0  0  0  0  0  0  0  0  0
   50.0670   34.7660   42.6090 N   0  0  0  0  0  0  0  0  0  0  0  0
   49.9800   36.7150   41.6630 H   0  0  0  0  0  0  0  0  0  0  0  0
   47.8190   36.3120   40.6940 H   0  0  0  0  0  0  0  0  0  0  0  0
   49.8700   32.8600   43.3830 H   0  0  0  0  0  0  0  0  0  0  0  0
  2  1  1  0  0  0  0
  3 30  1  0  0  0  0
  3  2  2  0  0  0  0
  4  3  1  0  0  0  0
  5  4  2  0  0  0  0
  5  6  1  0  0  0  0
  6  7  2  0  0  0  0
  7  2  1  0  0  0  0
  7 10  1  0  0  0  0
  8  5  1  0  0  0  0
  9  6  1  0  0  0  0
 11 21  1  0  0  0  0
 12 11  1  0  0  0  0
 12  4  1  0  0  0  0
 13 12  2  0  0  0  0
 14 15  2  0  0  0  0
 14 13  1  0  0  0  0
 15 16  1  0  0  0  0
 16 20  1  0  0  0  0
 16 11  2  0  0  0  0
 17 13  1  0  0  0  0
 18 14  1  0  0  0  0
 19 15  1  0  0  0  0
 21 23  2  0  0  0  0
 21 24  1  0  0  0  0
 22 21  2  0  0  0  0
 24 26  1  0  0  0  0
 24 25  1  0  0  0  0
 27 24  1  0  0  0  0
 28 33  1  0  0  0  0
 29 30  1  0  0  0  0
 29 28  2  0  0  0  0
 30 31  2  0  0  0  0
 31 32  1  0  0  0  0
 32 36  1  0  0  0  0
 33 32  2  0  0  0  0
 34 28  1  0  0  0  0
 35 29  1  0  0  0  0
M  END
>  <minimizedAffinity>
-4.51278448

>  <minimizedRMSD>
0.186019942

$$$$
