
 OpenBabel03242517553D

 38 39  0  0  0  0  0  0  0  0999 V2000
   45.3000   34.2420   43.7610 C   0  0  0  0  0  0  0  0  0  0  0  0
   46.4540   34.7520   43.1470 C   0  0  0  0  0  0  0  0  0  0  0  0
   47.6450   34.0890   43.2910 C   0  0  0  0  0  0  0  0  0  0  0  0
   47.6170   32.9690   44.0330 N   0  0  0  0  0  0  0  0  0  0  0  0
   46.5240   32.4900   44.6120 C   0  0  0  0  0  0  0  0  0  0  0  0
   45.3680   33.1280   44.4730 N   0  0  0  0  0  0  0  0  0  0  0  0
   44.3570   34.7610   43.6510 H   0  0  0  0  0  0  0  0  0  0  0  0
   46.3370   35.6430   42.5910 H   0  0  0  0  0  0  0  0  0  0  0  0
   48.9090   34.5070   42.6650 C   0  0  0  0  0  0  0  0  0  0  0  0
   49.5660   34.8510   43.4970 H   0  0  0  0  0  0  0  0  0  0  0  0
   49.4600   33.6700   42.1840 H   0  0  0  0  0  0  0  0  0  0  0  0
   48.7350   35.6490   41.7150 C   0  0  0  0  0  0  0  0  0  0  0  0
   49.7140   36.2290   41.7760 H   0  0  0  0  0  0  0  0  0  0  0  0
   47.9860   36.3550   42.0320 H   0  0  0  0  0  0  0  0  0  0  0  0
   48.6150   35.2710   40.3100 C   0  0  0  0  0  0  0  0  0  0  0  0
   48.0490   34.3530   39.5380 C   0  0  0  0  0  0  0  0  0  0  0  0
   48.2250   34.2070   38.0350 C   0  0  0  0  0  0  0  0  0  0  0  0
   48.9820   33.4610   37.8010 H   0  0  0  0  0  0  0  0  0  0  0  0
   48.5750   35.2060   37.6480 H   0  0  0  0  0  0  0  0  0  0  0  0
   47.2150   34.0330   37.6620 H   0  0  0  0  0  0  0  0  0  0  0  0
   46.5150   31.3430   45.3680 O   0  0  0  0  0  0  0  0  0  0  0  0
   45.4620   30.1460   47.2350 C   0  0  0  0  0  0  0  0  0  0  0  0
   46.0610   31.2230   46.6760 C   0  0  0  0  0  0  0  0  0  0  0  0
   46.2760   32.3520   47.4410 C   0  0  0  0  0  0  0  0  0  0  0  0
   45.9080   32.4370   48.7590 C   0  0  0  0  0  0  0  0  0  0  0  0
   45.2930   31.3380   49.3430 C   0  0  0  0  0  0  0  0  0  0  0  0
   45.0780   30.2070   48.5720 C   0  0  0  0  0  0  0  0  0  0  0  0
   46.7480   33.2480   47.0640 H   0  0  0  0  0  0  0  0  0  0  0  0
   46.0610   33.3060   49.3840 H   0  0  0  0  0  0  0  0  0  0  0  0
   44.9770   31.3340   50.3710 H   0  0  0  0  0  0  0  0  0  0  0  0
   44.6070   29.3490   49.0040 H   0  0  0  0  0  0  0  0  0  0  0  0
   45.1130   28.8080   46.2030 S   0  0  0  0  0  0  0  0  0  0  0  0
   44.2270   29.1340   45.0610 O   0  0  0  0  0  0  0  0  0  0  0  0
   44.2840   27.8360   47.0750 O   0  0  0  0  0  0  0  0  0  0  0  0
   46.4620   27.7400   45.8170 C   0  0  0  0  0  0  0  0  0  0  0  0
   46.5030   26.8510   46.9290 F   0  0  0  0  0  0  0  0  0  0  0  0
   47.6260   28.4150   45.8270 F   0  0  0  0  0  0  0  0  0  0  0  0
   46.2490   26.8800   44.7740 F   0  0  0  0  0  0  0  0  0  0  0  0
  1  6  1  0  0  0  0
  2  3  1  0  0  0  0
  2  1  2  0  0  0  0
  3  4  2  0  0  0  0
  4  5  1  0  0  0  0
  5 21  1  0  0  0  0
  6  5  2  0  0  0  0
  7  1  1  0  0  0  0
  8  2  1  0  0  0  0
  9  3  1  0  0  0  0
  9 10  1  0  0  0  0
 11  9  1  0  0  0  0
 12 13  1  0  0  0  0
 12 14  1  0  0  0  0
 12  9  1  0  0  0  0
 15 12  1  0  0  0  0
 16 15  2  0  0  0  0
 17 16  1  0  0  0  0
 18 17  1  0  0  0  0
 19 17  1  0  0  0  0
 20 17  1  0  0  0  0
 21 23  1  0  0  0  0
 22 27  1  0  0  0  0
 23 22  2  0  0  0  0
 23 24  1  0  0  0  0
 24 25  2  0  0  0  0
 25 26  1  0  0  0  0
 25 29  1  0  0  0  0
 26 30  1  0  0  0  0
 27 31  1  0  0  0  0
 27 26  2  0  0  0  0
 28 24  1  0  0  0  0
 32 34  2  0  0  0  0
 32 22  1  0  0  0  0
 33 32  2  0  0  0  0
 35 37  1  0  0  0  0
 35 32  1  0  0  0  0
 35 36  1  0  0  0  0
 38 35  1  0  0  0  0
M  END
>  <minimizedAffinity>
-5.52804422

>  <minimizedRMSD>
0.773504853

$$$$
