
 OpenBabel03252509073D

 36 38  0  0  0  0  0  0  0  0999 V2000
   45.3130   35.2930   43.1470 Cl  0  0  0  0  0  0  0  0  0  0  0  0
   45.1750   34.5480   41.5840 C   0  0  0  0  0  0  0  0  0  0  0  0
   46.2790   34.1610   40.9000 C   0  0  0  0  0  0  0  0  0  0  0  0
   46.0580   33.5640   39.6660 C   0  0  0  0  0  0  0  0  0  0  0  0
   44.7990   33.3740   39.1570 C   0  0  0  0  0  0  0  0  0  0  0  0
   43.7110   33.7710   39.8620 C   0  0  0  0  0  0  0  0  0  0  0  0
   43.9120   34.3640   41.0890 C   0  0  0  0  0  0  0  0  0  0  0  0
   44.6520   32.9010   38.1780 H   0  0  0  0  0  0  0  0  0  0  0  0
   42.7030   33.6320   39.4830 H   0  0  0  0  0  0  0  0  0  0  0  0
   43.0340   34.6740   41.6360 H   0  0  0  0  0  0  0  0  0  0  0  0
   47.6680   31.8340   38.8830 C   0  0  0  0  0  0  0  0  0  0  0  0
   47.2070   33.1160   38.8880 C   0  0  0  0  0  0  0  0  0  0  0  0
   47.8370   34.0760   38.1160 C   0  0  0  0  0  0  0  0  0  0  0  0
   48.9240   33.7230   37.3510 C   0  0  0  0  0  0  0  0  0  0  0  0
   49.4220   32.4270   37.3210 C   0  0  0  0  0  0  0  0  0  0  0  0
   48.7660   31.4890   38.1080 C   0  0  0  0  0  0  0  0  0  0  0  0
   47.4750   35.1060   38.1120 H   0  0  0  0  0  0  0  0  0  0  0  0
   49.3740   34.5120   36.7700 H   0  0  0  0  0  0  0  0  0  0  0  0
   50.2670   32.1540   36.7260 H   0  0  0  0  0  0  0  0  0  0  0  0
   49.1630   30.4870   38.0760 H   0  0  0  0  0  0  0  0  0  0  0  0
   46.9500   30.6150   39.7760 S   0  0  0  0  0  0  0  0  0  0  0  0
   47.6720   29.2940   39.5020 O   0  0  0  0  0  0  0  0  0  0  0  0
   47.2970   30.9260   41.2530 O   0  0  0  0  0  0  0  0  0  0  0  0
   45.3960   30.0270   39.8470 C   0  0  0  0  0  0  0  0  0  0  0  0
   45.0320   28.7290   39.7320 F   0  0  0  0  0  0  0  0  0  0  0  0
   44.7570   30.4570   38.6670 F   0  0  0  0  0  0  0  0  0  0  0  0
   44.5200   30.7070   40.7440 F   0  0  0  0  0  0  0  0  0  0  0  0
   49.5610   35.7300   41.9040 C   0  0  0  0  0  0  0  0  0  0  0  0
   48.2940   35.5450   41.3380 C   0  0  0  0  0  0  0  0  0  0  0  0
   47.5850   34.3670   41.4750 C   0  0  0  0  0  0  0  0  0  0  0  0
   48.2090   33.4050   42.1990 N   0  0  0  0  0  0  0  0  0  0  0  0
   49.4290   33.5790   42.7450 C   0  0  0  0  0  0  0  0  0  0  0  0
   50.0900   34.7320   42.5950 N   0  0  0  0  0  0  0  0  0  0  0  0
   49.9820   36.7060   41.7060 H   0  0  0  0  0  0  0  0  0  0  0  0
   47.8060   36.3230   40.7610 H   0  0  0  0  0  0  0  0  0  0  0  0
   49.9120   32.8040   43.3180 H   0  0  0  0  0  0  0  0  0  0  0  0
  2  1  1  0  0  0  0
  3 30  1  0  0  0  0
  3  2  2  0  0  0  0
  4  3  1  0  0  0  0
  5  4  2  0  0  0  0
  5  6  1  0  0  0  0
  6  7  2  0  0  0  0
  7  2  1  0  0  0  0
  7 10  1  0  0  0  0
  8  5  1  0  0  0  0
  9  6  1  0  0  0  0
 11 12  1  0  0  0  0
 11 21  1  0  0  0  0
 12  4  1  0  0  0  0
 13 12  2  0  0  0  0
 14 13  1  0  0  0  0
 15 14  2  0  0  0  0
 15 16  1  0  0  0  0
 16 11  2  0  0  0  0
 17 13  1  0  0  0  0
 18 14  1  0  0  0  0
 19 15  1  0  0  0  0
 20 16  1  0  0  0  0
 21 24  1  0  0  0  0
 21 23  2  0  0  0  0
 22 21  2  0  0  0  0
 24 27  1  0  0  0  0
 25 24  1  0  0  0  0
 26 24  1  0  0  0  0
 28 33  1  0  0  0  0
 29 30  1  0  0  0  0
 29 28  2  0  0  0  0
 30 31  2  0  0  0  0
 31 32  1  0  0  0  0
 32 36  1  0  0  0  0
 33 32  2  0  0  0  0
 34 28  1  0  0  0  0
 35 29  1  0  0  0  0
M  END
>  <minimizedAffinity>
-4.47380686

>  <minimizedRMSD>
0.818322718

$$$$
