
 OpenBabel03242519233D

 35 37  0  0  0  0  0  0  0  0999 V2000
   47.8930   33.7730   42.8790 C   0  0  0  0  0  0  0  0  0  0  0  0
   48.5880   34.9880   42.6670 C   0  0  0  0  0  0  0  0  0  0  0  0
   49.9560   34.9680   42.3550 C   0  0  0  0  0  0  0  0  0  0  0  0
   50.5430   33.7310   42.2730 N   0  0  0  0  0  0  0  0  0  0  0  0
   49.8450   32.5710   42.4850 C   0  0  0  0  0  0  0  0  0  0  0  0
   48.5380   32.6010   42.7820 N   0  0  0  0  0  0  0  0  0  0  0  0
   48.2010   35.9790   42.7130 H   0  0  0  0  0  0  0  0  0  0  0  0
   50.5370   35.8420   42.1830 H   0  0  0  0  0  0  0  0  0  0  0  0
   46.4630   33.9100   43.2080 C   0  0  0  0  0  0  0  0  0  0  0  0
   45.7730   34.9330   42.4240 C   0  0  0  0  0  0  0  0  0  0  0  0
   45.3350   36.1160   43.2090 C   0  0  0  0  0  0  0  0  0  0  0  0
   44.5200   35.7560   44.4360 C   0  0  0  0  0  0  0  0  0  0  0  0
   44.9810   34.5080   45.1280 C   0  0  0  0  0  0  0  0  0  0  0  0
   46.4070   34.1570   44.7250 C   0  0  0  0  0  0  0  0  0  0  0  0
   45.9880   32.9050   43.0860 H   0  0  0  0  0  0  0  0  0  0  0  0
   46.3700   35.3130   41.5710 H   0  0  0  0  0  0  0  0  0  0  0  0
   44.8460   34.5110   41.9360 H   0  0  0  0  0  0  0  0  0  0  0  0
   46.0900   36.8410   43.4910 H   0  0  0  0  0  0  0  0  0  0  0  0
   44.6140   36.6780   42.5440 H   0  0  0  0  0  0  0  0  0  0  0  0
   43.4610   35.5890   44.1460 H   0  0  0  0  0  0  0  0  0  0  0  0
   44.5380   36.6410   45.1140 H   0  0  0  0  0  0  0  0  0  0  0  0
   44.3520   33.6250   44.8970 H   0  0  0  0  0  0  0  0  0  0  0  0
   44.9890   34.6710   46.2190 H   0  0  0  0  0  0  0  0  0  0  0  0
   47.1370   34.8980   45.0540 H   0  0  0  0  0  0  0  0  0  0  0  0
   46.6750   33.1980   45.2150 H   0  0  0  0  0  0  0  0  0  0  0  0
   50.6180   31.3520   42.3760 C   0  0  0  0  0  0  0  0  0  0  0  0
   51.5510   31.2950   41.3860 N   0  0  0  0  0  0  0  0  0  0  0  0
   52.1870   30.1190   41.4170 C   0  0  0  0  0  0  0  0  0  0  0  0
   51.6370   29.4340   42.4480 N   0  0  0  0  0  0  0  0  0  0  0  0
   50.6790   30.1780   43.0370 N   0  0  0  0  0  0  0  0  0  0  0  0
   52.9790   29.7440   40.7790 H   0  0  0  0  0  0  0  0  0  0  0  0
   51.9510   28.1060   42.9280 C   0  0  0  0  0  0  0  0  0  0  0  0
   52.2270   27.2810   41.8720 F   0  0  0  0  0  0  0  0  0  0  0  0
   53.0000   28.2070   43.8300 F   0  0  0  0  0  0  0  0  0  0  0  0
   50.9040   27.5410   43.6260 F   0  0  0  0  0  0  0  0  0  0  0  0
  1  9  1  0  0  0  0
  2  7  1  0  0  0  0
  2  1  2  0  0  0  0
  3  2  1  0  0  0  0
  4  3  2  0  0  0  0
  4  5  1  0  0  0  0
  5  6  2  0  0  0  0
  6  1  1  0  0  0  0
  8  3  1  0  0  0  0
  9 14  1  0  0  0  0
 10  9  1  0  0  0  0
 10 11  1  0  0  0  0
 11 18  1  0  0  0  0
 11 12  1  0  0  0  0
 12 21  1  0  0  0  0
 12 13  1  0  0  0  0
 13 23  1  0  0  0  0
 14 24  1  0  0  0  0
 14 13  1  0  0  0  0
 14 25  1  0  0  0  0
 15  9  1  0  0  0  0
 16 10  1  0  0  0  0
 17 10  1  0  0  0  0
 19 11  1  0  0  0  0
 20 12  1  0  0  0  0
 22 13  1  0  0  0  0
 26  5  1  0  0  0  0
 26 30  2  0  0  0  0
 27 28  2  0  0  0  0
 27 26  1  0  0  0  0
 28 29  1  0  0  0  0
 29 32  1  0  0  0  0
 29 30  1  0  0  0  0
 31 28  1  0  0  0  0
 32 35  1  0  0  0  0
 32 34  1  0  0  0  0
 33 32  1  0  0  0  0
M  END
>  <minimizedAffinity>
-4.20454741

>  <minimizedRMSD>
0.284388006

$$$$
