
 OpenBabel03252509123D

 27 29  0  0  0  0  0  0  0  0999 V2000
   47.1800   32.2300   43.2120 C   0  0  0  0  0  0  0  0  0  0  0  0
   47.2070   33.2300   42.2420 C   0  0  0  0  0  0  0  0  0  0  0  0
   48.3070   33.4590   41.4310 C   0  0  0  0  0  0  0  0  0  0  0  0
   49.4450   32.6500   41.5880 C   0  0  0  0  0  0  0  0  0  0  0  0
   50.6640   32.5730   40.9970 N   0  0  0  0  0  0  0  0  0  0  0  0
   51.3660   31.5680   41.5720 C   0  0  0  0  0  0  0  0  0  0  0  0
   50.5700   31.0420   42.5070 N   0  0  0  0  0  0  0  0  0  0  0  0
   49.3820   31.6740   42.5520 C   0  0  0  0  0  0  0  0  0  0  0  0
   48.3040   31.4290   43.3670 C   0  0  0  0  0  0  0  0  0  0  0  0
   46.2750   32.1340   43.7910 H   0  0  0  0  0  0  0  0  0  0  0  0
   50.9650   33.2110   40.2250 H   0  0  0  0  0  0  0  0  0  0  0  0
   52.3710   31.3490   41.2340 H   0  0  0  0  0  0  0  0  0  0  0  0
   48.2540   30.6750   44.1140 H   0  0  0  0  0  0  0  0  0  0  0  0
   44.7630   35.9300   42.7090 C   0  0  0  0  0  0  0  0  0  0  0  0
   43.8340   35.6830   41.7150 C   0  0  0  0  0  0  0  0  0  0  0  0
   44.0480   34.5800   40.8780 C   0  0  0  0  0  0  0  0  0  0  0  0
   45.1580   33.8100   41.0890 N   0  0  0  0  0  0  0  0  0  0  0  0
   46.0430   34.0780   42.0660 C   0  0  0  0  0  0  0  0  0  0  0  0
   45.8450   35.1350   42.8730 N   0  0  0  0  0  0  0  0  0  0  0  0
   44.6540   36.7620   43.3840 H   0  0  0  0  0  0  0  0  0  0  0  0
   42.9970   36.3590   41.6410 H   0  0  0  0  0  0  0  0  0  0  0  0
   43.3320   34.3970   40.1180 H   0  0  0  0  0  0  0  0  0  0  0  0
   48.3570   34.7280   40.1890 S   0  0  0  0  0  0  0  0  0  0  0  0
   48.1520   34.1210   38.5210 C   0  0  0  0  0  0  0  0  0  0  0  0
   48.4220   35.0460   37.5390 F   0  0  0  0  0  0  0  0  0  0  0  0
   48.9240   32.9820   38.3900 F   0  0  0  0  0  0  0  0  0  0  0  0
   46.8200   33.7320   38.3450 F   0  0  0  0  0  0  0  0  0  0  0  0
  1  9  1  0  0  0  0
  1 10  1  0  0  0  0
  2  1  2  0  0  0  0
  3  4  2  0  0  0  0
  3  2  1  0  0  0  0
  4  8  1  0  0  0  0
  5  6  1  0  0  0  0
  5  4  1  0  0  0  0
  6  7  2  0  0  0  0
  7  8  1  0  0  0  0
  8  9  2  0  0  0  0
  9 13  1  0  0  0  0
 11  5  1  0  0  0  0
 12  6  1  0  0  0  0
 14 19  1  0  0  0  0
 14 20  1  0  0  0  0
 15 14  2  0  0  0  0
 16 17  2  0  0  0  0
 16 15  1  0  0  0  0
 17 18  1  0  0  0  0
 18  2  1  0  0  0  0
 18 19  2  0  0  0  0
 21 15  1  0  0  0  0
 22 16  1  0  0  0  0
 23  3  1  0  0  0  0
 24 23  1  0  0  0  0
 25 24  1  0  0  0  0
 26 24  1  0  0  0  0
 27 24  1  0  0  0  0
M  END
>  <minimizedAffinity>
-4.52397442

>  <minimizedRMSD>
5.96369314

$$$$
