
 OpenBabel03242522443D

 42 44  0  0  0  0  0  0  0  0999 V2000
   38.1220   28.9010   42.6970 C   0  0  0  0  0  0  0  0  0  0  0  0
   37.9730   28.9890   43.8070 H   0  0  0  0  0  0  0  0  0  0  0  0
   38.9860   28.1690   42.6730 H   0  0  0  0  0  0  0  0  0  0  0  0
   37.7720   30.8870   41.2730 C   0  0  0  0  0  0  0  0  0  0  0  0
   38.6470   30.1010   42.0610 C   0  0  0  0  0  0  0  0  0  0  0  0
   39.9480   30.5440   42.2110 C   0  0  0  0  0  0  0  0  0  0  0  0
   40.3060   31.6970   41.6020 N   0  0  0  0  0  0  0  0  0  0  0  0
   39.4620   32.4170   40.8700 C   0  0  0  0  0  0  0  0  0  0  0  0
   38.1810   32.0260   40.6920 N   0  0  0  0  0  0  0  0  0  0  0  0
   36.7390   30.7250   41.0240 H   0  0  0  0  0  0  0  0  0  0  0  0
   40.6240   29.9610   42.8040 H   0  0  0  0  0  0  0  0  0  0  0  0
   39.9670   33.6830   40.2460 C   0  0  0  0  0  0  0  0  0  0  0  0
   40.5390   34.2790   40.9810 H   0  0  0  0  0  0  0  0  0  0  0  0
   39.0700   34.2930   40.0040 H   0  0  0  0  0  0  0  0  0  0  0  0
   40.7030   33.4650   39.0040 C   0  0  0  0  0  0  0  0  0  0  0  0
   41.8430   34.1610   38.6210 C   0  0  0  0  0  0  0  0  0  0  0  0
   42.2500   33.6840   37.4020 C   0  0  0  0  0  0  0  0  0  0  0  0
   41.3430   32.7120   37.0790 N   0  0  0  0  0  0  0  0  0  0  0  0
   40.4210   32.5790   38.0320 N   0  0  0  0  0  0  0  0  0  0  0  0
   42.3870   34.9540   39.1280 H   0  0  0  0  0  0  0  0  0  0  0  0
   43.0610   33.9110   36.7320 H   0  0  0  0  0  0  0  0  0  0  0  0
   41.2810   32.0910   36.2300 H   0  0  0  0  0  0  0  0  0  0  0  0
   36.9150   28.4610   41.9380 C   0  0  0  0  0  0  0  0  0  0  0  0
   37.0440   28.9860   40.9830 H   0  0  0  0  0  0  0  0  0  0  0  0
   36.0080   28.6340   42.5040 H   0  0  0  0  0  0  0  0  0  0  0  0
   36.6850   26.7720   40.2130 C   0  0  0  0  0  0  0  0  0  0  0  0
   36.8790   27.0410   41.5530 C   0  0  0  0  0  0  0  0  0  0  0  0
   37.0450   26.1280   42.5200 C   0  0  0  0  0  0  0  0  0  0  0  0
   37.0210   24.8040   42.1660 C   0  0  0  0  0  0  0  0  0  0  0  0
   36.8380   24.4180   40.8760 C   0  0  0  0  0  0  0  0  0  0  0  0
   36.6760   25.4170   39.9330 C   0  0  0  0  0  0  0  0  0  0  0  0
   37.2120   26.2310   43.5550 H   0  0  0  0  0  0  0  0  0  0  0  0
   37.1410   23.9640   42.8480 H   0  0  0  0  0  0  0  0  0  0  0  0
   36.8120   23.3870   40.5430 H   0  0  0  0  0  0  0  0  0  0  0  0
   36.5280   25.0870   38.8880 H   0  0  0  0  0  0  0  0  0  0  0  0
   36.4010   27.8560   38.9240 S   0  0  0  0  0  0  0  0  0  0  0  0
   36.1170   27.1300   37.6260 O   0  0  0  0  0  0  0  0  0  0  0  0
   37.7620   28.5530   38.6570 O   0  0  0  0  0  0  0  0  0  0  0  0
   35.4250   29.2190   38.9740 C   0  0  0  0  0  0  0  0  0  0  0  0
   34.4810   29.4070   39.9430 F   0  0  0  0  0  0  0  0  0  0  0  0
   35.9730   30.4520   38.5480 F   0  0  0  0  0  0  0  0  0  0  0  0
   34.5520   29.1050   37.8620 F   0  0  0  0  0  0  0  0  0  0  0  0
  1  2  1  0  0  0  0
  3  1  1  0  0  0  0
  4  5  1  0  0  0  0
  5  6  2  0  0  0  0
  5  1  1  0  0  0  0
  6 11  1  0  0  0  0
  7  6  1  0  0  0  0
  8  7  2  0  0  0  0
  9  8  1  0  0  0  0
  9  4  2  0  0  0  0
 10  4  1  0  0  0  0
 12  8  1  0  0  0  0
 12 13  1  0  0  0  0
 14 12  1  0  0  0  0
 15 12  1  0  0  0  0
 16 15  1  0  0  0  0
 16 20  1  0  0  0  0
 17 16  2  0  0  0  0
 18 17  1  0  0  0  0
 18 19  1  0  0  0  0
 19 15  2  0  0  0  0
 21 17  1  0  0  0  0
 22 18  1  0  0  0  0
 23 25  1  0  0  0  0
 23  1  1  0  0  0  0
 24 23  1  0  0  0  0
 26 27  1  0  0  0  0
 27 23  1  0  0  0  0
 27 28  2  0  0  0  0
 28 32  1  0  0  0  0
 29 28  1  0  0  0  0
 29 33  1  0  0  0  0
 30 29  2  0  0  0  0
 31 26  2  0  0  0  0
 31 30  1  0  0  0  0
 34 30  1  0  0  0  0
 35 31  1  0  0  0  0
 36 39  1  0  0  0  0
 36 26  1  0  0  0  0
 37 36  2  0  0  0  0
 38 36  2  0  0  0  0
 39 40  1  0  0  0  0
 41 39  1  0  0  0  0
 42 39  1  0  0  0  0
M  END
>  <minimizedAffinity>
-5.97216654

$$$$

 OpenBabel03242522443D

 42 44  0  0  0  0  0  0  0  0999 V2000
   35.5110   27.9990   38.8160 C   0  0  0  0  0  0  0  0  0  0  0  0
   34.9580   27.9570   37.8390 H   0  0  0  0  0  0  0  0  0  0  0  0
   34.6520   27.8310   39.5350 H   0  0  0  0  0  0  0  0  0  0  0  0
   36.7330   30.0490   38.1820 C   0  0  0  0  0  0  0  0  0  0  0  0
   36.0230   29.3170   39.1640 C   0  0  0  0  0  0  0  0  0  0  0  0
   35.8240   29.9180   40.3940 C   0  0  0  0  0  0  0  0  0  0  0  0
   36.3150   31.1640   40.5840 N   0  0  0  0  0  0  0  0  0  0  0  0
   36.9750   31.8290   39.6420 C   0  0  0  0  0  0  0  0  0  0  0  0
   37.1960   31.2850   38.4250 N   0  0  0  0  0  0  0  0  0  0  0  0
   37.0000   29.7720   37.1790 H   0  0  0  0  0  0  0  0  0  0  0  0
   35.2900   29.3780   41.1490 H   0  0  0  0  0  0  0  0  0  0  0  0
   37.4680   33.2080   39.9620 C   0  0  0  0  0  0  0  0  0  0  0  0
   36.8020   33.7010   40.6940 H   0  0  0  0  0  0  0  0  0  0  0  0
   37.3720   33.8010   39.0260 H   0  0  0  0  0  0  0  0  0  0  0  0
   38.8710   33.2440   40.3660 C   0  0  0  0  0  0  0  0  0  0  0  0
   39.8090   34.1610   39.9070 C   0  0  0  0  0  0  0  0  0  0  0  0
   41.0110   33.8830   40.5040 C   0  0  0  0  0  0  0  0  0  0  0  0
   40.7680   32.8030   41.3090 N   0  0  0  0  0  0  0  0  0  0  0  0
   39.4940   32.4210   41.2280 N   0  0  0  0  0  0  0  0  0  0  0  0
   39.7040   34.9830   39.2040 H   0  0  0  0  0  0  0  0  0  0  0  0
   41.9970   34.3120   40.4590 H   0  0  0  0  0  0  0  0  0  0  0  0
   41.4150   32.2670   41.9460 H   0  0  0  0  0  0  0  0  0  0  0  0
   36.6280   27.0170   38.9430 C   0  0  0  0  0  0  0  0  0  0  0  0
   37.0640   27.2950   39.9110 H   0  0  0  0  0  0  0  0  0  0  0  0
   37.2650   27.0270   38.0670 H   0  0  0  0  0  0  0  0  0  0  0  0
   36.6970   24.9880   40.2690 C   0  0  0  0  0  0  0  0  0  0  0  0
   36.2310   25.6130   39.1300 C   0  0  0  0  0  0  0  0  0  0  0  0
   35.4480   25.0560   38.1950 C   0  0  0  0  0  0  0  0  0  0  0  0
   35.0680   23.7500   38.3690 C   0  0  0  0  0  0  0  0  0  0  0  0
   35.4660   23.0340   39.4540 C   0  0  0  0  0  0  0  0  0  0  0  0
   36.2720   23.6760   40.3760 C   0  0  0  0  0  0  0  0  0  0  0  0
   35.0320   25.4470   37.3110 H   0  0  0  0  0  0  0  0  0  0  0  0
   34.4390   23.1780   37.6890 H   0  0  0  0  0  0  0  0  0  0  0  0
   35.1940   22.0020   39.6380 H   0  0  0  0  0  0  0  0  0  0  0  0
   36.5860   23.0810   41.2530 H   0  0  0  0  0  0  0  0  0  0  0  0
   37.7450   25.5890   41.4780 S   0  0  0  0  0  0  0  0  0  0  0  0
   39.1720   25.7020   40.9840 O   0  0  0  0  0  0  0  0  0  0  0  0
   37.8240   24.4740   42.5540 O   0  0  0  0  0  0  0  0  0  0  0  0
   37.4460   26.8940   42.4870 C   0  0  0  0  0  0  0  0  0  0  0  0
   36.1980   27.4290   42.6410 F   0  0  0  0  0  0  0  0  0  0  0  0
   38.2000   27.0060   43.6800 F   0  0  0  0  0  0  0  0  0  0  0  0
   38.0680   28.0070   41.8670 F   0  0  0  0  0  0  0  0  0  0  0  0
  1 23  1  0  0  0  0
  1  5  1  0  0  0  0
  1  3  1  0  0  0  0
  2  1  1  0  0  0  0
  4  9  2  0  0  0  0
  4  5  1  0  0  0  0
  5  6  2  0  0  0  0
  6  7  1  0  0  0  0
  6 11  1  0  0  0  0
  8 12  1  0  0  0  0
  8  7  2  0  0  0  0
  9  8  1  0  0  0  0
 10  4  1  0  0  0  0
 12 15  1  0  0  0  0
 12 13  1  0  0  0  0
 14 12  1  0  0  0  0
 15 19  2  0  0  0  0
 16 15  1  0  0  0  0
 16 17  2  0  0  0  0
 17 18  1  0  0  0  0
 18 22  1  0  0  0  0
 19 18  1  0  0  0  0
 20 16  1  0  0  0  0
 21 17  1  0  0  0  0
 23 27  1  0  0  0  0
 23 24  1  0  0  0  0
 25 23  1  0  0  0  0
 26 31  1  0  0  0  0
 26 36  1  0  0  0  0
 27 26  2  0  0  0  0
 28 29  2  0  0  0  0
 28 27  1  0  0  0  0
 29 30  1  0  0  0  0
 30 34  1  0  0  0  0
 30 31  2  0  0  0  0
 31 35  1  0  0  0  0
 32 28  1  0  0  0  0
 33 29  1  0  0  0  0
 36 39  1  0  0  0  0
 36 38  2  0  0  0  0
 37 36  2  0  0  0  0
 39 40  1  0  0  0  0
 39 41  1  0  0  0  0
 42 39  1  0  0  0  0
M  END
>  <minimizedAffinity>
-5.88982773

$$$$

 OpenBabel03242522443D

 42 44  0  0  0  0  0  0  0  0999 V2000
   36.6160   28.9390   38.7530 C   0  0  0  0  0  0  0  0  0  0  0  0
   37.5850   29.2290   38.2620 H   0  0  0  0  0  0  0  0  0  0  0  0
   36.8120   27.8380   38.9370 H   0  0  0  0  0  0  0  0  0  0  0  0
   34.1690   28.8660   38.4370 C   0  0  0  0  0  0  0  0  0  0  0  0
   35.4610   28.9590   37.8670 C   0  0  0  0  0  0  0  0  0  0  0  0
   35.5480   29.1000   36.4940 C   0  0  0  0  0  0  0  0  0  0  0  0
   34.4000   29.1450   35.7810 N   0  0  0  0  0  0  0  0  0  0  0  0
   33.1990   29.0600   36.3440 C   0  0  0  0  0  0  0  0  0  0  0  0
   33.0610   28.9180   37.6810 N   0  0  0  0  0  0  0  0  0  0  0  0
   33.8780   28.7460   39.4660 H   0  0  0  0  0  0  0  0  0  0  0  0
   36.5190   29.1700   36.0460 H   0  0  0  0  0  0  0  0  0  0  0  0
   31.9940   29.1270   35.4560 C   0  0  0  0  0  0  0  0  0  0  0  0
   31.2110   28.4290   35.8070 H   0  0  0  0  0  0  0  0  0  0  0  0
   32.3130   28.7410   34.4630 H   0  0  0  0  0  0  0  0  0  0  0  0
   31.4900   30.4840   35.2620 C   0  0  0  0  0  0  0  0  0  0  0  0
   30.6820   31.1700   36.1610 C   0  0  0  0  0  0  0  0  0  0  0  0
   30.4130   32.4090   35.6390 C   0  0  0  0  0  0  0  0  0  0  0  0
   31.0660   32.4390   34.4370 N   0  0  0  0  0  0  0  0  0  0  0  0
   31.7080   31.2940   34.2100 N   0  0  0  0  0  0  0  0  0  0  0  0
   30.2860   30.8640   37.1250 H   0  0  0  0  0  0  0  0  0  0  0  0
   29.8470   33.2630   35.9690 H   0  0  0  0  0  0  0  0  0  0  0  0
   31.1250   33.2010   33.7120 H   0  0  0  0  0  0  0  0  0  0  0  0
   36.2790   29.7220   39.9780 C   0  0  0  0  0  0  0  0  0  0  0  0
   35.2020   29.5340   40.0770 H   0  0  0  0  0  0  0  0  0  0  0  0
   36.6180   30.7470   39.8980 H   0  0  0  0  0  0  0  0  0  0  0  0
   37.9630   29.8580   41.7170 C   0  0  0  0  0  0  0  0  0  0  0  0
   36.8390   29.2150   41.2410 C   0  0  0  0  0  0  0  0  0  0  0  0
   36.2160   28.1850   41.8300 C   0  0  0  0  0  0  0  0  0  0  0  0
   36.7280   27.7130   43.0110 C   0  0  0  0  0  0  0  0  0  0  0  0
   37.8320   28.2690   43.5770 C   0  0  0  0  0  0  0  0  0  0  0  0
   38.4190   29.3290   42.9110 C   0  0  0  0  0  0  0  0  0  0  0  0
   35.3550   27.6430   41.5580 H   0  0  0  0  0  0  0  0  0  0  0  0
   36.3230   26.8860   43.5910 H   0  0  0  0  0  0  0  0  0  0  0  0
   38.2760   27.9350   44.5070 H   0  0  0  0  0  0  0  0  0  0  0  0
   39.3160   29.7700   43.3840 H   0  0  0  0  0  0  0  0  0  0  0  0
   38.8620   31.1280   41.0110 S   0  0  0  0  0  0  0  0  0  0  0  0
   39.7190   30.6430   39.8610 O   0  0  0  0  0  0  0  0  0  0  0  0
   39.9010   31.5500   42.0830 O   0  0  0  0  0  0  0  0  0  0  0  0
   38.2790   32.6490   40.6110 C   0  0  0  0  0  0  0  0  0  0  0  0
   36.9830   32.8600   40.2350 F   0  0  0  0  0  0  0  0  0  0  0  0
   38.8000   33.7690   41.3020 F   0  0  0  0  0  0  0  0  0  0  0  0
   38.9030   32.9870   39.3840 F   0  0  0  0  0  0  0  0  0  0  0  0
  1  3  1  0  0  0  0
  1 23  1  0  0  0  0
  2  1  1  0  0  0  0
  4 10  1  0  0  0  0
  5  4  1  0  0  0  0
  5  1  1  0  0  0  0
  6  5  2  0  0  0  0
  7  8  2  0  0  0  0
  7  6  1  0  0  0  0
  8  9  1  0  0  0  0
  9  4  2  0  0  0  0
 11  6  1  0  0  0  0
 12 13  1  0  0  0  0
 12  8  1  0  0  0  0
 14 12  1  0  0  0  0
 15 12  1  0  0  0  0
 15 16  1  0  0  0  0
 16 20  1  0  0  0  0
 17 21  1  0  0  0  0
 17 16  2  0  0  0  0
 18 17  1  0  0  0  0
 19 18  1  0  0  0  0
 19 15  2  0  0  0  0
 22 18  1  0  0  0  0
 23 24  1  0  0  0  0
 23 27  1  0  0  0  0
 25 23  1  0  0  0  0
 26 31  1  0  0  0  0
 27 26  2  0  0  0  0
 27 28  1  0  0  0  0
 28 29  2  0  0  0  0
 29 30  1  0  0  0  0
 29 33  1  0  0  0  0
 30 34  1  0  0  0  0
 31 35  1  0  0  0  0
 31 30  2  0  0  0  0
 32 28  1  0  0  0  0
 36 26  1  0  0  0  0
 36 38  2  0  0  0  0
 37 36  2  0  0  0  0
 39 36  1  0  0  0  0
 39 41  1  0  0  0  0
 40 39  1  0  0  0  0
 42 39  1  0  0  0  0
M  END
>  <minimizedAffinity>
-5.81827545

$$$$

 OpenBabel03242522443D

 42 44  0  0  0  0  0  0  0  0999 V2000
   36.7760   29.0610   37.0360 C   0  0  0  0  0  0  0  0  0  0  0  0
   37.2910   29.8350   36.4040 H   0  0  0  0  0  0  0  0  0  0  0  0
   37.0810   28.1210   36.4810 H   0  0  0  0  0  0  0  0  0  0  0  0
   34.7220   29.1860   35.6720 C   0  0  0  0  0  0  0  0  0  0  0  0
   35.3230   29.0800   36.9490 C   0  0  0  0  0  0  0  0  0  0  0  0
   34.4870   28.9620   38.0450 C   0  0  0  0  0  0  0  0  0  0  0  0
   33.1510   28.9520   37.8320 N   0  0  0  0  0  0  0  0  0  0  0  0
   32.6140   29.0500   36.6200 C   0  0  0  0  0  0  0  0  0  0  0  0
   33.3880   29.1690   35.5190 N   0  0  0  0  0  0  0  0  0  0  0  0
   35.1780   29.2920   34.7050 H   0  0  0  0  0  0  0  0  0  0  0  0
   34.9250   28.8820   39.0190 H   0  0  0  0  0  0  0  0  0  0  0  0
   31.1200   29.0220   36.5030 C   0  0  0  0  0  0  0  0  0  0  0  0
   30.7330   28.0060   36.7030 H   0  0  0  0  0  0  0  0  0  0  0  0
   30.8850   29.2240   35.4350 H   0  0  0  0  0  0  0  0  0  0  0  0
   30.4550   30.0450   37.3040 C   0  0  0  0  0  0  0  0  0  0  0  0
   30.3640   31.3890   36.9630 C   0  0  0  0  0  0  0  0  0  0  0  0
   29.6720   32.0390   37.9520 C   0  0  0  0  0  0  0  0  0  0  0  0
   29.3630   31.0690   38.8660 N   0  0  0  0  0  0  0  0  0  0  0  0
   29.8280   29.8810   38.4830 N   0  0  0  0  0  0  0  0  0  0  0  0
   30.7400   31.9210   36.0930 H   0  0  0  0  0  0  0  0  0  0  0  0
   29.3640   33.0560   38.1180 H   0  0  0  0  0  0  0  0  0  0  0  0
   28.8380   31.1330   39.7780 H   0  0  0  0  0  0  0  0  0  0  0  0
   37.1580   29.0810   38.4790 C   0  0  0  0  0  0  0  0  0  0  0  0
   38.1640   28.6440   38.4530 H   0  0  0  0  0  0  0  0  0  0  0  0
   36.4040   28.6060   39.0940 H   0  0  0  0  0  0  0  0  0  0  0  0
   37.6510   30.4490   40.4200 C   0  0  0  0  0  0  0  0  0  0  0  0
   37.3720   30.4120   39.0690 C   0  0  0  0  0  0  0  0  0  0  0  0
   37.2890   31.4750   38.2560 C   0  0  0  0  0  0  0  0  0  0  0  0
   37.4960   32.7170   38.7990 C   0  0  0  0  0  0  0  0  0  0  0  0
   37.7790   32.8760   40.1190 C   0  0  0  0  0  0  0  0  0  0  0  0
   37.8500   31.7330   40.8940 C   0  0  0  0  0  0  0  0  0  0  0  0
   37.0990   31.5500   37.2230 H   0  0  0  0  0  0  0  0  0  0  0  0
   37.4580   33.6600   38.2550 H   0  0  0  0  0  0  0  0  0  0  0  0
   37.9520   33.8340   40.5960 H   0  0  0  0  0  0  0  0  0  0  0  0
   38.0810   31.8790   41.9650 H   0  0  0  0  0  0  0  0  0  0  0  0
   37.7130   29.1640   41.5450 S   0  0  0  0  0  0  0  0  0  0  0  0
   38.0960   29.6430   42.9300 O   0  0  0  0  0  0  0  0  0  0  0  0
   38.9240   28.2930   41.1180 O   0  0  0  0  0  0  0  0  0  0  0  0
   36.5740   27.9460   41.7190 C   0  0  0  0  0  0  0  0  0  0  0  0
   36.5560   26.8410   40.9160 F   0  0  0  0  0  0  0  0  0  0  0  0
   36.1140   27.6390   43.0220 F   0  0  0  0  0  0  0  0  0  0  0  0
   35.3420   28.5140   41.3070 F   0  0  0  0  0  0  0  0  0  0  0  0
  1 23  1  0  0  0  0
  2  1  1  0  0  0  0
  3  1  1  0  0  0  0
  4  5  1  0  0  0  0
  5  1  1  0  0  0  0
  5  6  2  0  0  0  0
  6 11  1  0  0  0  0
  7  6  1  0  0  0  0
  8  7  2  0  0  0  0
  9  4  2  0  0  0  0
  9  8  1  0  0  0  0
 10  4  1  0  0  0  0
 12  8  1  0  0  0  0
 12 13  1  0  0  0  0
 12 15  1  0  0  0  0
 14 12  1  0  0  0  0
 15 19  2  0  0  0  0
 16 15  1  0  0  0  0
 16 17  2  0  0  0  0
 17 21  1  0  0  0  0
 17 18  1  0  0  0  0
 18 22  1  0  0  0  0
 19 18  1  0  0  0  0
 20 16  1  0  0  0  0
 23 27  1  0  0  0  0
 23 25  1  0  0  0  0
 24 23  1  0  0  0  0
 26 31  1  0  0  0  0
 26 36  1  0  0  0  0
 27 26  2  0  0  0  0
 28 29  2  0  0  0  0
 28 27  1  0  0  0  0
 29 30  1  0  0  0  0
 30 34  1  0  0  0  0
 30 31  2  0  0  0  0
 31 35  1  0  0  0  0
 32 28  1  0  0  0  0
 33 29  1  0  0  0  0
 36 39  1  0  0  0  0
 36 37  2  0  0  0  0
 38 36  2  0  0  0  0
 39 41  1  0  0  0  0
 40 39  1  0  0  0  0
 42 39  1  0  0  0  0
M  END
>  <minimizedAffinity>
-5.81486559

$$$$

 OpenBabel03242522443D

 42 44  0  0  0  0  0  0  0  0999 V2000
   35.4880   26.2140   37.6650 C   0  0  0  0  0  0  0  0  0  0  0  0
   36.0950   25.7030   36.8690 H   0  0  0  0  0  0  0  0  0  0  0  0
   34.9280   25.3230   38.0850 H   0  0  0  0  0  0  0  0  0  0  0  0
   33.3490   26.5180   36.4700 C   0  0  0  0  0  0  0  0  0  0  0  0
   34.4450   27.0930   37.1570 C   0  0  0  0  0  0  0  0  0  0  0  0
   34.4400   28.4640   37.3380 C   0  0  0  0  0  0  0  0  0  0  0  0
   33.3940   29.1700   36.8540 N   0  0  0  0  0  0  0  0  0  0  0  0
   32.3760   28.6020   36.2150 C   0  0  0  0  0  0  0  0  0  0  0  0
   32.3340   27.2670   36.0110 N   0  0  0  0  0  0  0  0  0  0  0  0
   33.1590   25.4900   36.2180 H   0  0  0  0  0  0  0  0  0  0  0  0
   35.2620   28.9170   37.8550 H   0  0  0  0  0  0  0  0  0  0  0  0
   31.2660   29.4830   35.7260 C   0  0  0  0  0  0  0  0  0  0  0  0
   30.5100   28.8900   35.1780 H   0  0  0  0  0  0  0  0  0  0  0  0
   31.7150   30.1640   34.9710 H   0  0  0  0  0  0  0  0  0  0  0  0
   30.6770   30.3120   36.7750 C   0  0  0  0  0  0  0  0  0  0  0  0
   30.4650   31.6820   36.6830 C   0  0  0  0  0  0  0  0  0  0  0  0
   29.8980   32.1100   37.8550 C   0  0  0  0  0  0  0  0  0  0  0  0
   29.7820   30.9860   38.6260 N   0  0  0  0  0  0  0  0  0  0  0  0
   30.2450   29.9140   37.9850 N   0  0  0  0  0  0  0  0  0  0  0  0
   30.6780   32.3730   35.8720 H   0  0  0  0  0  0  0  0  0  0  0  0
   29.5660   33.0620   38.2320 H   0  0  0  0  0  0  0  0  0  0  0  0
   29.3980   30.8630   39.6000 H   0  0  0  0  0  0  0  0  0  0  0  0
   36.2900   26.9730   38.6690 C   0  0  0  0  0  0  0  0  0  0  0  0
   35.5860   27.7590   38.9730 H   0  0  0  0  0  0  0  0  0  0  0  0
   37.2510   27.2680   38.2670 H   0  0  0  0  0  0  0  0  0  0  0  0
   36.9030   27.0500   41.0140 C   0  0  0  0  0  0  0  0  0  0  0  0
   36.5850   26.2650   39.9250 C   0  0  0  0  0  0  0  0  0  0  0  0
   36.5140   24.9270   39.9170 C   0  0  0  0  0  0  0  0  0  0  0  0
   36.7800   24.2620   41.0870 C   0  0  0  0  0  0  0  0  0  0  0  0
   37.1040   24.9310   42.2250 C   0  0  0  0  0  0  0  0  0  0  0  0
   37.1560   26.3110   42.1560 C   0  0  0  0  0  0  0  0  0  0  0  0
   36.2680   24.2460   39.1530 H   0  0  0  0  0  0  0  0  0  0  0  0
   36.7590   23.1810   41.2200 H   0  0  0  0  0  0  0  0  0  0  0  0
   37.3210   24.4540   43.1740 H   0  0  0  0  0  0  0  0  0  0  0  0
   37.4200   26.8400   43.0890 H   0  0  0  0  0  0  0  0  0  0  0  0
   37.0820   28.7470   41.1060 S   0  0  0  0  0  0  0  0  0  0  0  0
   38.3890   29.2120   40.4990 O   0  0  0  0  0  0  0  0  0  0  0  0
   37.2520   29.0680   42.6150 O   0  0  0  0  0  0  0  0  0  0  0  0
   35.9090   29.8870   40.7370 C   0  0  0  0  0  0  0  0  0  0  0  0
   34.6210   29.5420   40.4400 F   0  0  0  0  0  0  0  0  0  0  0  0
   35.9650   31.1420   41.3880 F   0  0  0  0  0  0  0  0  0  0  0  0
   36.2730   30.4130   39.4710 F   0  0  0  0  0  0  0  0  0  0  0  0
  1  3  1  0  0  0  0
  1 23  1  0  0  0  0
  2  1  1  0  0  0  0
  4  5  1  0  0  0  0
  5  6  2  0  0  0  0
  5  1  1  0  0  0  0
  6 11  1  0  0  0  0
  7  6  1  0  0  0  0
  8  7  2  0  0  0  0
  9  8  1  0  0  0  0
  9  4  2  0  0  0  0
 10  4  1  0  0  0  0
 12  8  1  0  0  0  0
 12 15  1  0  0  0  0
 13 12  1  0  0  0  0
 14 12  1  0  0  0  0
 15 19  2  0  0  0  0
 16 15  1  0  0  0  0
 16 17  2  0  0  0  0
 17 21  1  0  0  0  0
 17 18  1  0  0  0  0
 18 22  1  0  0  0  0
 19 18  1  0  0  0  0
 20 16  1  0  0  0  0
 23 24  1  0  0  0  0
 23 27  1  0  0  0  0
 25 23  1  0  0  0  0
 26 36  1  0  0  0  0
 26 31  1  0  0  0  0
 27 26  2  0  0  0  0
 28 27  1  0  0  0  0
 28 29  2  0  0  0  0
 29 33  1  0  0  0  0
 29 30  1  0  0  0  0
 30 34  1  0  0  0  0
 31 30  2  0  0  0  0
 31 35  1  0  0  0  0
 32 28  1  0  0  0  0
 36 38  2  0  0  0  0
 37 36  2  0  0  0  0
 39 36  1  0  0  0  0
 39 41  1  0  0  0  0
 40 39  1  0  0  0  0
 42 39  1  0  0  0  0
M  END
>  <minimizedAffinity>
-5.78185463

$$$$

 OpenBabel03242522443D

 42 44  0  0  0  0  0  0  0  0999 V2000
   37.4370   28.3400   43.4580 C   0  0  0  0  0  0  0  0  0  0  0  0
   36.4340   27.8450   43.3530 H   0  0  0  0  0  0  0  0  0  0  0  0
   37.3010   28.8480   44.4620 H   0  0  0  0  0  0  0  0  0  0  0  0
   36.5950   29.8770   41.7190 C   0  0  0  0  0  0  0  0  0  0  0  0
   37.6700   29.4350   42.5260 C   0  0  0  0  0  0  0  0  0  0  0  0
   38.8780   30.0980   42.4070 C   0  0  0  0  0  0  0  0  0  0  0  0
   38.9590   31.1270   41.5330 N   0  0  0  0  0  0  0  0  0  0  0  0
   37.9310   31.5240   40.7900 C   0  0  0  0  0  0  0  0  0  0  0  0
   36.7310   30.9070   40.8680 N   0  0  0  0  0  0  0  0  0  0  0  0
   35.5890   29.5040   41.6490 H   0  0  0  0  0  0  0  0  0  0  0  0
   39.7030   29.7760   43.0100 H   0  0  0  0  0  0  0  0  0  0  0  0
   38.1340   32.6810   39.8590 C   0  0  0  0  0  0  0  0  0  0  0  0
   38.3530   33.6040   40.4270 H   0  0  0  0  0  0  0  0  0  0  0  0
   37.1550   32.8610   39.3640 H   0  0  0  0  0  0  0  0  0  0  0  0
   39.1180   32.4190   38.8120 C   0  0  0  0  0  0  0  0  0  0  0  0
   40.4070   32.9370   38.7830 C   0  0  0  0  0  0  0  0  0  0  0  0
   41.0320   32.4730   37.6550 C   0  0  0  0  0  0  0  0  0  0  0  0
   40.1030   31.6870   37.0300 N   0  0  0  0  0  0  0  0  0  0  0  0
   38.9630   31.6530   37.7180 N   0  0  0  0  0  0  0  0  0  0  0  0
   40.9160   33.5960   39.4810 H   0  0  0  0  0  0  0  0  0  0  0  0
   42.0100   32.6020   37.2230 H   0  0  0  0  0  0  0  0  0  0  0  0
   40.1660   31.1380   36.1330 H   0  0  0  0  0  0  0  0  0  0  0  0
   38.6020   27.4100   43.3850 C   0  0  0  0  0  0  0  0  0  0  0  0
   38.6930   27.0790   44.4280 H   0  0  0  0  0  0  0  0  0  0  0  0
   39.4570   27.8830   42.9180 H   0  0  0  0  0  0  0  0  0  0  0  0
   39.5080   25.5270   42.1550 C   0  0  0  0  0  0  0  0  0  0  0  0
   38.3820   26.1600   42.6410 C   0  0  0  0  0  0  0  0  0  0  0  0
   37.1200   25.7320   42.5020 C   0  0  0  0  0  0  0  0  0  0  0  0
   36.9090   24.5630   41.8170 C   0  0  0  0  0  0  0  0  0  0  0  0
   37.9420   23.8520   41.2930 C   0  0  0  0  0  0  0  0  0  0  0  0
   39.2160   24.3560   41.4780 C   0  0  0  0  0  0  0  0  0  0  0  0
   36.2070   26.1290   42.8450 H   0  0  0  0  0  0  0  0  0  0  0  0
   35.9390   24.1040   41.6310 H   0  0  0  0  0  0  0  0  0  0  0  0
   37.8300   22.9240   40.7450 H   0  0  0  0  0  0  0  0  0  0  0  0
   40.0460   23.7660   41.0470 H   0  0  0  0  0  0  0  0  0  0  0  0
   41.1410   26.0240   42.2230 S   0  0  0  0  0  0  0  0  0  0  0  0
   42.0250   25.1890   41.3210 O   0  0  0  0  0  0  0  0  0  0  0  0
   41.6300   25.6560   43.6490 O   0  0  0  0  0  0  0  0  0  0  0  0
   41.6970   27.6050   42.1660 C   0  0  0  0  0  0  0  0  0  0  0  0
   41.4340   28.4360   41.1140 F   0  0  0  0  0  0  0  0  0  0  0  0
   41.7840   28.3290   43.3800 F   0  0  0  0  0  0  0  0  0  0  0  0
   43.1020   27.5110   42.0030 F   0  0  0  0  0  0  0  0  0  0  0  0
  1  3  1  0  0  0  0
  2  1  1  0  0  0  0
  4  5  1  0  0  0  0
  5  1  1  0  0  0  0
  6  5  2  0  0  0  0
  6 11  1  0  0  0  0
  7  6  1  0  0  0  0
  8  9  1  0  0  0  0
  8  7  2  0  0  0  0
  9  4  2  0  0  0  0
 10  4  1  0  0  0  0
 12 13  1  0  0  0  0
 12  8  1  0  0  0  0
 14 12  1  0  0  0  0
 15 12  1  0  0  0  0
 16 15  1  0  0  0  0
 16 20  1  0  0  0  0
 17 16  2  0  0  0  0
 18 17  1  0  0  0  0
 18 19  1  0  0  0  0
 19 15  2  0  0  0  0
 21 17  1  0  0  0  0
 22 18  1  0  0  0  0
 23  1  1  0  0  0  0
 23 24  1  0  0  0  0
 25 23  1  0  0  0  0
 26 36  1  0  0  0  0
 26 27  1  0  0  0  0
 27 23  1  0  0  0  0
 28 27  2  0  0  0  0
 28 32  1  0  0  0  0
 29 28  1  0  0  0  0
 30 31  1  0  0  0  0
 30 29  2  0  0  0  0
 31 26  2  0  0  0  0
 33 29  1  0  0  0  0
 34 30  1  0  0  0  0
 35 31  1  0  0  0  0
 36 38  2  0  0  0  0
 37 36  2  0  0  0  0
 39 36  1  0  0  0  0
 39 41  1  0  0  0  0
 40 39  1  0  0  0  0
 42 39  1  0  0  0  0
M  END
>  <minimizedAffinity>
-5.74453211

$$$$

 OpenBabel03242522443D

 42 44  0  0  0  0  0  0  0  0999 V2000
   37.9210   28.6400   43.6780 C   0  0  0  0  0  0  0  0  0  0  0  0
   37.1860   28.8360   44.5050 H   0  0  0  0  0  0  0  0  0  0  0  0
   38.8930   28.7710   44.2440 H   0  0  0  0  0  0  0  0  0  0  0  0
   39.1500   30.4140   42.4780 C   0  0  0  0  0  0  0  0  0  0  0  0
   37.9580   29.6690   42.6480 C   0  0  0  0  0  0  0  0  0  0  0  0
   36.9040   29.9410   41.7950 C   0  0  0  0  0  0  0  0  0  0  0  0
   37.0740   30.8950   40.8520 N   0  0  0  0  0  0  0  0  0  0  0  0
   38.2060   31.5770   40.7130 C   0  0  0  0  0  0  0  0  0  0  0  0
   39.2650   31.3500   41.5230 N   0  0  0  0  0  0  0  0  0  0  0  0
   40.0720   30.3690   43.0290 H   0  0  0  0  0  0  0  0  0  0  0  0
   35.9940   29.3880   41.9110 H   0  0  0  0  0  0  0  0  0  0  0  0
   38.2840   32.6080   39.6270 C   0  0  0  0  0  0  0  0  0  0  0  0
   38.2830   33.6270   40.0570 H   0  0  0  0  0  0  0  0  0  0  0  0
   37.3380   32.5280   39.0500 H   0  0  0  0  0  0  0  0  0  0  0  0
   39.3900   32.3910   38.6980 C   0  0  0  0  0  0  0  0  0  0  0  0
   40.6070   33.0600   38.7380 C   0  0  0  0  0  0  0  0  0  0  0  0
   41.3890   32.5930   37.7140 C   0  0  0  0  0  0  0  0  0  0  0  0
   40.6220   31.6530   37.0800 N   0  0  0  0  0  0  0  0  0  0  0  0
   39.4320   31.5310   37.6650 N   0  0  0  0  0  0  0  0  0  0  0  0
   40.9660   33.8270   39.4190 H   0  0  0  0  0  0  0  0  0  0  0  0
   42.3820   32.8080   37.3610 H   0  0  0  0  0  0  0  0  0  0  0  0
   40.8360   31.0500   36.2430 H   0  0  0  0  0  0  0  0  0  0  0  0
   37.7670   27.3150   43.0070 C   0  0  0  0  0  0  0  0  0  0  0  0
   37.5640   27.6100   41.9690 H   0  0  0  0  0  0  0  0  0  0  0  0
   37.0420   26.6950   43.5190 H   0  0  0  0  0  0  0  0  0  0  0  0
   38.9540   25.4500   42.0110 C   0  0  0  0  0  0  0  0  0  0  0  0
   38.9870   26.5000   42.9060 C   0  0  0  0  0  0  0  0  0  0  0  0
   40.0310   26.8420   43.6750 C   0  0  0  0  0  0  0  0  0  0  0  0
   41.1740   26.0910   43.5790 C   0  0  0  0  0  0  0  0  0  0  0  0
   41.2570   25.0320   42.7310 C   0  0  0  0  0  0  0  0  0  0  0  0
   40.1410   24.7410   41.9680 C   0  0  0  0  0  0  0  0  0  0  0  0
   40.1600   27.6240   44.3680 H   0  0  0  0  0  0  0  0  0  0  0  0
   42.0900   26.2560   44.1440 H   0  0  0  0  0  0  0  0  0  0  0  0
   42.1360   24.4080   42.6160 H   0  0  0  0  0  0  0  0  0  0  0  0
   40.2250   23.8780   41.2830 H   0  0  0  0  0  0  0  0  0  0  0  0
   37.6590   24.8990   41.0420 S   0  0  0  0  0  0  0  0  0  0  0  0
   37.0540   26.0150   40.2170 O   0  0  0  0  0  0  0  0  0  0  0  0
   36.5240   24.5260   42.0320 O   0  0  0  0  0  0  0  0  0  0  0  0
   37.6460   23.5060   40.1080 C   0  0  0  0  0  0  0  0  0  0  0  0
   36.4940   22.9750   39.6030 F   0  0  0  0  0  0  0  0  0  0  0  0
   38.7410   23.2680   39.2430 F   0  0  0  0  0  0  0  0  0  0  0  0
   37.9840   22.4500   40.9920 F   0  0  0  0  0  0  0  0  0  0  0  0
  1  3  1  0  0  0  0
  1  2  1  0  0  0  0
  4  5  1  0  0  0  0
  4 10  1  0  0  0  0
  5  1  1  0  0  0  0
  6 11  1  0  0  0  0
  6  5  2  0  0  0  0
  7  6  1  0  0  0  0
  8  7  2  0  0  0  0
  8  9  1  0  0  0  0
  9  4  2  0  0  0  0
 12 13  1  0  0  0  0
 12  8  1  0  0  0  0
 14 12  1  0  0  0  0
 15 16  1  0  0  0  0
 15 12  1  0  0  0  0
 16 20  1  0  0  0  0
 17 16  2  0  0  0  0
 18 19  1  0  0  0  0
 18 17  1  0  0  0  0
 19 15  2  0  0  0  0
 21 17  1  0  0  0  0
 22 18  1  0  0  0  0
 23 25  1  0  0  0  0
 23  1  1  0  0  0  0
 24 23  1  0  0  0  0
 26 27  1  0  0  0  0
 27 23  1  0  0  0  0
 27 28  2  0  0  0  0
 28 32  1  0  0  0  0
 29 28  1  0  0  0  0
 29 33  1  0  0  0  0
 30 29  2  0  0  0  0
 31 26  2  0  0  0  0
 31 30  1  0  0  0  0
 34 30  1  0  0  0  0
 35 31  1  0  0  0  0
 36 26  1  0  0  0  0
 36 38  2  0  0  0  0
 37 36  2  0  0  0  0
 39 42  1  0  0  0  0
 39 36  1  0  0  0  0
 40 39  1  0  0  0  0
 41 39  1  0  0  0  0
M  END
>  <minimizedAffinity>
-5.66435051

$$$$

 OpenBabel03242522443D

 42 44  0  0  0  0  0  0  0  0999 V2000
   39.0270   30.1040   42.5260 C   0  0  0  0  0  0  0  0  0  0  0  0
   39.6390   30.5280   43.3680 H   0  0  0  0  0  0  0  0  0  0  0  0
   37.9980   30.4710   42.8280 H   0  0  0  0  0  0  0  0  0  0  0  0
   39.6380   27.9090   41.5760 C   0  0  0  0  0  0  0  0  0  0  0  0
   38.9110   28.6530   42.5360 C   0  0  0  0  0  0  0  0  0  0  0  0
   38.1570   27.9480   43.4570 C   0  0  0  0  0  0  0  0  0  0  0  0
   38.1610   26.5980   43.3880 N   0  0  0  0  0  0  0  0  0  0  0  0
   38.8570   25.9250   42.4770 C   0  0  0  0  0  0  0  0  0  0  0  0
   39.6080   26.5670   41.5540 N   0  0  0  0  0  0  0  0  0  0  0  0
   40.2720   28.2510   40.7770 H   0  0  0  0  0  0  0  0  0  0  0  0
   37.6000   28.4950   44.1900 H   0  0  0  0  0  0  0  0  0  0  0  0
   38.7920   24.4280   42.4990 C   0  0  0  0  0  0  0  0  0  0  0  0
   38.5300   24.0640   43.5100 H   0  0  0  0  0  0  0  0  0  0  0  0
   39.8270   24.0660   42.3110 H   0  0  0  0  0  0  0  0  0  0  0  0
   37.9320   23.8680   41.4600 C   0  0  0  0  0  0  0  0  0  0  0  0
   36.6530   24.3180   41.1570 C   0  0  0  0  0  0  0  0  0  0  0  0
   36.1590   23.5540   40.1310 C   0  0  0  0  0  0  0  0  0  0  0  0
   37.1540   22.6600   39.8420 N   0  0  0  0  0  0  0  0  0  0  0  0
   38.2110   22.8450   40.6310 N   0  0  0  0  0  0  0  0  0  0  0  0
   36.0680   25.1210   41.5960 H   0  0  0  0  0  0  0  0  0  0  0  0
   35.2370   23.5340   39.5780 H   0  0  0  0  0  0  0  0  0  0  0  0
   37.1940   21.8920   39.1210 H   0  0  0  0  0  0  0  0  0  0  0  0
   39.4620   30.5280   41.1630 C   0  0  0  0  0  0  0  0  0  0  0  0
   39.1080   29.6940   40.5430 H   0  0  0  0  0  0  0  0  0  0  0  0
   40.5160   30.7740   41.1430 H   0  0  0  0  0  0  0  0  0  0  0  0
   37.6850   31.4410   39.7880 C   0  0  0  0  0  0  0  0  0  0  0  0
   38.7700   31.6990   40.6010 C   0  0  0  0  0  0  0  0  0  0  0  0
   39.2340   32.9130   40.9270 C   0  0  0  0  0  0  0  0  0  0  0  0
   38.5880   34.0080   40.4130 C   0  0  0  0  0  0  0  0  0  0  0  0
   37.5060   33.8760   39.6000 C   0  0  0  0  0  0  0  0  0  0  0  0
   37.0840   32.5910   39.3110 C   0  0  0  0  0  0  0  0  0  0  0  0
   40.0340   33.2120   41.5430 H   0  0  0  0  0  0  0  0  0  0  0  0
   38.8590   35.0470   40.5950 H   0  0  0  0  0  0  0  0  0  0  0  0
   36.9600   34.7070   39.1700 H   0  0  0  0  0  0  0  0  0  0  0  0
   36.2040   32.5010   38.6490 H   0  0  0  0  0  0  0  0  0  0  0  0
   37.0610   29.9380   39.2650 S   0  0  0  0  0  0  0  0  0  0  0  0
   38.1380   29.0510   38.6780 O   0  0  0  0  0  0  0  0  0  0  0  0
   36.1570   30.2630   38.0470 O   0  0  0  0  0  0  0  0  0  0  0  0
   35.9970   28.9600   40.1160 C   0  0  0  0  0  0  0  0  0  0  0  0
   34.6580   28.9290   39.8470 F   0  0  0  0  0  0  0  0  0  0  0  0
   36.4580   27.6990   40.5650 F   0  0  0  0  0  0  0  0  0  0  0  0
   35.9280   29.5140   41.4200 F   0  0  0  0  0  0  0  0  0  0  0  0
  1  5  1  0  0  0  0
  1  3  1  0  0  0  0
  1  2  1  0  0  0  0
  4  5  1  0  0  0  0
  5  6  2  0  0  0  0
  6 11  1  0  0  0  0
  7  6  1  0  0  0  0
  8 12  1  0  0  0  0
  8  7  2  0  0  0  0
  9  4  2  0  0  0  0
  9  8  1  0  0  0  0
 10  4  1  0  0  0  0
 12 13  1  0  0  0  0
 14 12  1  0  0  0  0
 15 12  1  0  0  0  0
 16 15  1  0  0  0  0
 16 20  1  0  0  0  0
 17 16  2  0  0  0  0
 18 17  1  0  0  0  0
 18 19  1  0  0  0  0
 19 15  2  0  0  0  0
 21 17  1  0  0  0  0
 22 18  1  0  0  0  0
 23  1  1  0  0  0  0
 24 23  1  0  0  0  0
 25 23  1  0  0  0  0
 26 27  1  0  0  0  0
 27 28  2  0  0  0  0
 27 23  1  0  0  0  0
 28 32  1  0  0  0  0
 29 33  1  0  0  0  0
 29 28  1  0  0  0  0
 30 29  2  0  0  0  0
 31 30  1  0  0  0  0
 31 26  2  0  0  0  0
 34 30  1  0  0  0  0
 35 31  1  0  0  0  0
 36 26  1  0  0  0  0
 36 39  1  0  0  0  0
 37 36  2  0  0  0  0
 38 36  2  0  0  0  0
 39 41  1  0  0  0  0
 39 42  1  0  0  0  0
 40 39  1  0  0  0  0
M  END
>  <minimizedAffinity>
-5.64545202

$$$$

 OpenBabel03242522443D

 42 44  0  0  0  0  0  0  0  0999 V2000
   38.4180   27.2520   43.6250 C   0  0  0  0  0  0  0  0  0  0  0  0
   38.3310   27.2540   44.7450 H   0  0  0  0  0  0  0  0  0  0  0  0
   39.0530   26.3250   43.4790 H   0  0  0  0  0  0  0  0  0  0  0  0
   38.6800   29.6400   43.0550 C   0  0  0  0  0  0  0  0  0  0  0  0
   39.2250   28.3340   43.0800 C   0  0  0  0  0  0  0  0  0  0  0  0
   40.5180   28.1690   42.6150 C   0  0  0  0  0  0  0  0  0  0  0  0
   41.1810   29.2590   42.1690 N   0  0  0  0  0  0  0  0  0  0  0  0
   40.6450   30.4750   42.1610 C   0  0  0  0  0  0  0  0  0  0  0  0
   39.3850   30.6880   42.6030 N   0  0  0  0  0  0  0  0  0  0  0  0
   37.7070   29.9840   43.3570 H   0  0  0  0  0  0  0  0  0  0  0  0
   40.9460   27.1870   42.6240 H   0  0  0  0  0  0  0  0  0  0  0  0
   41.4760   31.6130   41.6490 C   0  0  0  0  0  0  0  0  0  0  0  0
   42.5330   31.3070   41.5440 H   0  0  0  0  0  0  0  0  0  0  0  0
   41.4690   32.3900   42.4460 H   0  0  0  0  0  0  0  0  0  0  0  0
   40.9430   32.2220   40.4330 C   0  0  0  0  0  0  0  0  0  0  0  0
   40.9940   31.6490   39.1680 C   0  0  0  0  0  0  0  0  0  0  0  0
   40.3970   32.5090   38.2820 C   0  0  0  0  0  0  0  0  0  0  0  0
   40.0020   33.5800   39.0370 N   0  0  0  0  0  0  0  0  0  0  0  0
   40.3260   33.4110   40.3180 N   0  0  0  0  0  0  0  0  0  0  0  0
   41.4090   30.7000   38.8420 H   0  0  0  0  0  0  0  0  0  0  0  0
   40.2060   32.4930   37.2240 H   0  0  0  0  0  0  0  0  0  0  0  0
   39.5050   34.4660   38.7560 H   0  0  0  0  0  0  0  0  0  0  0  0
   37.1140   27.2310   42.8980 C   0  0  0  0  0  0  0  0  0  0  0  0
   37.1480   28.1810   42.3470 H   0  0  0  0  0  0  0  0  0  0  0  0
   36.2870   27.0560   43.5750 H   0  0  0  0  0  0  0  0  0  0  0  0
   36.7880   26.6900   40.5570 C   0  0  0  0  0  0  0  0  0  0  0  0
   36.9830   26.2180   41.8390 C   0  0  0  0  0  0  0  0  0  0  0  0
   37.0710   24.9290   42.1960 C   0  0  0  0  0  0  0  0  0  0  0  0
   36.9580   23.9800   41.2120 C   0  0  0  0  0  0  0  0  0  0  0  0
   36.7650   24.3270   39.9120 C   0  0  0  0  0  0  0  0  0  0  0  0
   36.6870   25.6770   39.6210 C   0  0  0  0  0  0  0  0  0  0  0  0
   37.2320   24.4740   43.1310 H   0  0  0  0  0  0  0  0  0  0  0  0
   37.0090   22.9030   41.3620 H   0  0  0  0  0  0  0  0  0  0  0  0
   36.6710   23.6180   39.0980 H   0  0  0  0  0  0  0  0  0  0  0  0
   36.5300   25.9420   38.5590 H   0  0  0  0  0  0  0  0  0  0  0  0
   36.5990   28.2990   40.0160 S   0  0  0  0  0  0  0  0  0  0  0  0
   35.6030   29.0660   40.8600 O   0  0  0  0  0  0  0  0  0  0  0  0
   35.8980   28.1960   38.6350 O   0  0  0  0  0  0  0  0  0  0  0  0
   37.8330   29.3530   39.5940 C   0  0  0  0  0  0  0  0  0  0  0  0
   37.7820   30.6890   39.8730 F   0  0  0  0  0  0  0  0  0  0  0  0
   39.1650   28.8740   39.6280 F   0  0  0  0  0  0  0  0  0  0  0  0
   37.7930   29.4410   38.1790 F   0  0  0  0  0  0  0  0  0  0  0  0
  1  2  1  0  0  0  0
  3  1  1  0  0  0  0
  4  5  1  0  0  0  0
  4 10  1  0  0  0  0
  5  1  1  0  0  0  0
  6 11  1  0  0  0  0
  6  5  2  0  0  0  0
  7  6  1  0  0  0  0
  8  7  2  0  0  0  0
  8  9  1  0  0  0  0
  9  4  2  0  0  0  0
 12  8  1  0  0  0  0
 12 14  1  0  0  0  0
 13 12  1  0  0  0  0
 15 12  1  0  0  0  0
 16 15  1  0  0  0  0
 17 18  1  0  0  0  0
 17 16  2  0  0  0  0
 18 19  1  0  0  0  0
 19 15  2  0  0  0  0
 20 16  1  0  0  0  0
 21 17  1  0  0  0  0
 22 18  1  0  0  0  0
 23 25  1  0  0  0  0
 23  1  1  0  0  0  0
 24 23  1  0  0  0  0
 26 27  1  0  0  0  0
 27 28  2  0  0  0  0
 27 23  1  0  0  0  0
 28 32  1  0  0  0  0
 29 33  1  0  0  0  0
 29 28  1  0  0  0  0
 30 29  2  0  0  0  0
 31 30  1  0  0  0  0
 31 26  2  0  0  0  0
 34 30  1  0  0  0  0
 35 31  1  0  0  0  0
 36 26  1  0  0  0  0
 36 37  2  0  0  0  0
 38 36  2  0  0  0  0
 39 41  1  0  0  0  0
 39 40  1  0  0  0  0
 39 36  1  0  0  0  0
 42 39  1  0  0  0  0
M  END
>  <minimizedAffinity>
-5.49956656

$$$$
