
 OpenBabel03252509073D

 36 38  0  0  0  0  0  0  0  0999 V2000
   45.2990   35.2900   43.1310 Cl  0  0  0  0  0  0  0  0  0  0  0  0
   45.1680   34.5450   41.5670 C   0  0  0  0  0  0  0  0  0  0  0  0
   46.2760   34.1600   40.8870 C   0  0  0  0  0  0  0  0  0  0  0  0
   46.0590   33.5630   39.6520 C   0  0  0  0  0  0  0  0  0  0  0  0
   44.8030   33.3700   39.1380 C   0  0  0  0  0  0  0  0  0  0  0  0
   43.7110   33.7650   39.8400 C   0  0  0  0  0  0  0  0  0  0  0  0
   43.9070   34.3590   41.0680 C   0  0  0  0  0  0  0  0  0  0  0  0
   44.6600   32.8970   38.1590 H   0  0  0  0  0  0  0  0  0  0  0  0
   42.7050   33.6250   39.4570 H   0  0  0  0  0  0  0  0  0  0  0  0
   43.0270   34.6670   41.6110 H   0  0  0  0  0  0  0  0  0  0  0  0
   47.6780   31.8360   38.8770 C   0  0  0  0  0  0  0  0  0  0  0  0
   47.2120   33.1170   38.8770 C   0  0  0  0  0  0  0  0  0  0  0  0
   47.8410   34.0770   38.1060 C   0  0  0  0  0  0  0  0  0  0  0  0
   48.9320   33.7260   37.3440 C   0  0  0  0  0  0  0  0  0  0  0  0
   49.4340   32.4320   37.3180 C   0  0  0  0  0  0  0  0  0  0  0  0
   48.7790   31.4930   38.1050 C   0  0  0  0  0  0  0  0  0  0  0  0
   47.4760   35.1060   38.0990 H   0  0  0  0  0  0  0  0  0  0  0  0
   49.3800   34.5150   36.7630 H   0  0  0  0  0  0  0  0  0  0  0  0
   50.2810   32.1600   36.7260 H   0  0  0  0  0  0  0  0  0  0  0  0
   49.1790   30.4930   38.0760 H   0  0  0  0  0  0  0  0  0  0  0  0
   46.9610   30.6170   39.7710 S   0  0  0  0  0  0  0  0  0  0  0  0
   47.6830   29.2960   39.4960 O   0  0  0  0  0  0  0  0  0  0  0  0
   47.3110   30.9280   41.2470 O   0  0  0  0  0  0  0  0  0  0  0  0
   45.4070   30.0290   39.8430 C   0  0  0  0  0  0  0  0  0  0  0  0
   45.0440   28.7300   39.7330 F   0  0  0  0  0  0  0  0  0  0  0  0
   44.7670   30.4540   38.6630 F   0  0  0  0  0  0  0  0  0  0  0  0
   44.5300   30.7100   40.7390 F   0  0  0  0  0  0  0  0  0  0  0  0
   49.5530   35.7330   41.8970 C   0  0  0  0  0  0  0  0  0  0  0  0
   48.2880   35.5460   41.3270 C   0  0  0  0  0  0  0  0  0  0  0  0
   47.5790   34.3680   41.4660 C   0  0  0  0  0  0  0  0  0  0  0  0
   48.2000   33.4100   42.1970 N   0  0  0  0  0  0  0  0  0  0  0  0
   49.4170   33.5860   42.7480 C   0  0  0  0  0  0  0  0  0  0  0  0
   50.0800   34.7380   42.5960 N   0  0  0  0  0  0  0  0  0  0  0  0
   49.9750   36.7080   41.6960 H   0  0  0  0  0  0  0  0  0  0  0  0
   47.8040   36.3210   40.7440 H   0  0  0  0  0  0  0  0  0  0  0  0
   49.8970   32.8130   43.3270 H   0  0  0  0  0  0  0  0  0  0  0  0
  2  1  1  0  0  0  0
  3 30  1  0  0  0  0
  3  2  2  0  0  0  0
  4  3  1  0  0  0  0
  5  4  2  0  0  0  0
  5  6  1  0  0  0  0
  6  7  2  0  0  0  0
  7  2  1  0  0  0  0
  7 10  1  0  0  0  0
  8  5  1  0  0  0  0
  9  6  1  0  0  0  0
 11 12  1  0  0  0  0
 11 21  1  0  0  0  0
 12  4  1  0  0  0  0
 13 12  2  0  0  0  0
 14 13  1  0  0  0  0
 15 14  2  0  0  0  0
 15 16  1  0  0  0  0
 16 11  2  0  0  0  0
 17 13  1  0  0  0  0
 18 14  1  0  0  0  0
 19 15  1  0  0  0  0
 20 16  1  0  0  0  0
 21 24  1  0  0  0  0
 21 23  2  0  0  0  0
 22 21  2  0  0  0  0
 24 27  1  0  0  0  0
 25 24  1  0  0  0  0
 26 24  1  0  0  0  0
 28 33  1  0  0  0  0
 29 30  1  0  0  0  0
 29 28  2  0  0  0  0
 30 31  2  0  0  0  0
 31 32  1  0  0  0  0
 32 36  1  0  0  0  0
 33 32  2  0  0  0  0
 34 28  1  0  0  0  0
 35 29  1  0  0  0  0
M  END
>  <minimizedAffinity>
-4.47309065

>  <minimizedRMSD>
0.83626312

$$$$
