
 OpenBabel03252509073D

 36 38  0  0  0  0  0  0  0  0999 V2000
   45.2870   35.2730   43.1050 Cl  0  0  0  0  0  0  0  0  0  0  0  0
   45.1680   34.5380   41.5350 C   0  0  0  0  0  0  0  0  0  0  0  0
   46.2820   34.1590   40.8620 C   0  0  0  0  0  0  0  0  0  0  0  0
   46.0760   33.5710   39.6210 C   0  0  0  0  0  0  0  0  0  0  0  0
   44.8230   33.3790   39.0970 C   0  0  0  0  0  0  0  0  0  0  0  0
   43.7260   33.7680   39.7920 C   0  0  0  0  0  0  0  0  0  0  0  0
   43.9120   34.3530   41.0260 C   0  0  0  0  0  0  0  0  0  0  0  0
   44.6890   32.9130   38.1130 H   0  0  0  0  0  0  0  0  0  0  0  0
   42.7230   33.6280   39.4020 H   0  0  0  0  0  0  0  0  0  0  0  0
   43.0270   34.6560   41.5650 H   0  0  0  0  0  0  0  0  0  0  0  0
   47.7210   31.8590   38.8700 C   0  0  0  0  0  0  0  0  0  0  0  0
   47.2350   33.1320   38.8520 C   0  0  0  0  0  0  0  0  0  0  0  0
   47.8480   34.0900   38.0660 C   0  0  0  0  0  0  0  0  0  0  0  0
   48.9430   33.7470   37.3080 C   0  0  0  0  0  0  0  0  0  0  0  0
   49.4660   32.4600   37.3010 C   0  0  0  0  0  0  0  0  0  0  0  0
   48.8270   31.5220   38.1020 C   0  0  0  0  0  0  0  0  0  0  0  0
   47.4660   35.1130   38.0440 H   0  0  0  0  0  0  0  0  0  0  0  0
   49.3790   34.5340   36.7150 H   0  0  0  0  0  0  0  0  0  0  0  0
   50.3170   32.1930   36.7120 H   0  0  0  0  0  0  0  0  0  0  0  0
   49.2430   30.5280   38.0870 H   0  0  0  0  0  0  0  0  0  0  0  0
   47.0240   30.6420   39.7820 S   0  0  0  0  0  0  0  0  0  0  0  0
   47.6200   29.2950   39.3670 O   0  0  0  0  0  0  0  0  0  0  0  0
   47.5530   30.8510   41.2220 O   0  0  0  0  0  0  0  0  0  0  0  0
   45.4520   30.1490   40.0010 C   0  0  0  0  0  0  0  0  0  0  0  0
   44.4090   30.4350   39.1860 F   0  0  0  0  0  0  0  0  0  0  0  0
   44.9630   30.8650   41.1100 F   0  0  0  0  0  0  0  0  0  0  0  0
   45.2850   28.8550   40.5750 F   0  0  0  0  0  0  0  0  0  0  0  0
   49.5570   35.7250   41.8920 C   0  0  0  0  0  0  0  0  0  0  0  0
   48.2960   35.5390   41.3110 C   0  0  0  0  0  0  0  0  0  0  0  0
   47.5800   34.3660   41.4510 C   0  0  0  0  0  0  0  0  0  0  0  0
   48.1900   33.4100   42.1950 N   0  0  0  0  0  0  0  0  0  0  0  0
   49.4030   33.5850   42.7560 C   0  0  0  0  0  0  0  0  0  0  0  0
   50.0720   34.7330   42.6020 N   0  0  0  0  0  0  0  0  0  0  0  0
   49.9850   36.6970   41.6880 H   0  0  0  0  0  0  0  0  0  0  0  0
   47.8210   36.3120   40.7180 H   0  0  0  0  0  0  0  0  0  0  0  0
   49.8740   32.8140   43.3450 H   0  0  0  0  0  0  0  0  0  0  0  0
  2  1  1  0  0  0  0
  3 30  1  0  0  0  0
  3  2  2  0  0  0  0
  4  3  1  0  0  0  0
  5  4  2  0  0  0  0
  5  6  1  0  0  0  0
  6  7  2  0  0  0  0
  7  2  1  0  0  0  0
  7 10  1  0  0  0  0
  8  5  1  0  0  0  0
  9  6  1  0  0  0  0
 11 21  1  0  0  0  0
 12 11  1  0  0  0  0
 12  4  1  0  0  0  0
 13 12  2  0  0  0  0
 14 13  1  0  0  0  0
 15 14  2  0  0  0  0
 15 16  1  0  0  0  0
 16 11  2  0  0  0  0
 17 13  1  0  0  0  0
 18 14  1  0  0  0  0
 19 15  1  0  0  0  0
 20 16  1  0  0  0  0
 21 24  1  0  0  0  0
 21 23  2  0  0  0  0
 22 21  2  0  0  0  0
 24 27  1  0  0  0  0
 24 26  1  0  0  0  0
 25 24  1  0  0  0  0
 28 33  1  0  0  0  0
 29 30  1  0  0  0  0
 29 28  2  0  0  0  0
 30 31  2  0  0  0  0
 31 32  1  0  0  0  0
 32 36  1  0  0  0  0
 33 32  2  0  0  0  0
 34 28  1  0  0  0  0
 35 29  1  0  0  0  0
M  END
>  <minimizedAffinity>
-4.47822952

>  <minimizedRMSD>
0.717588544

$$$$
