
 OpenBabel03252509073D

 36 38  0  0  0  0  0  0  0  0999 V2000
   45.2810   35.2810   43.1090 Cl  0  0  0  0  0  0  0  0  0  0  0  0
   45.1670   34.5370   41.5430 C   0  0  0  0  0  0  0  0  0  0  0  0
   46.2820   34.1610   40.8720 C   0  0  0  0  0  0  0  0  0  0  0  0
   46.0800   33.5640   39.6340 C   0  0  0  0  0  0  0  0  0  0  0  0
   44.8280   33.3620   39.1110 C   0  0  0  0  0  0  0  0  0  0  0  0
   43.7290   33.7490   39.8050 C   0  0  0  0  0  0  0  0  0  0  0  0
   43.9110   34.3420   41.0350 C   0  0  0  0  0  0  0  0  0  0  0  0
   44.6970   32.8890   38.1310 H   0  0  0  0  0  0  0  0  0  0  0  0
   42.7270   33.6010   39.4150 H   0  0  0  0  0  0  0  0  0  0  0  0
   43.0240   34.6430   41.5730 H   0  0  0  0  0  0  0  0  0  0  0  0
   47.8010   31.8900   38.9740 C   0  0  0  0  0  0  0  0  0  0  0  0
   47.2410   33.1270   38.8680 C   0  0  0  0  0  0  0  0  0  0  0  0
   47.7760   34.0500   37.9870 C   0  0  0  0  0  0  0  0  0  0  0  0
   48.8690   33.7050   37.2250 C   0  0  0  0  0  0  0  0  0  0  0  0
   49.4650   32.4530   37.3070 C   0  0  0  0  0  0  0  0  0  0  0  0
   48.9040   31.5520   38.2020 C   0  0  0  0  0  0  0  0  0  0  0  0
   47.3350   35.0440   37.8930 H   0  0  0  0  0  0  0  0  0  0  0  0
   49.2420   34.4630   36.5560 H   0  0  0  0  0  0  0  0  0  0  0  0
   50.3140   32.1860   36.7160 H   0  0  0  0  0  0  0  0  0  0  0  0
   49.3760   30.5850   38.2560 H   0  0  0  0  0  0  0  0  0  0  0  0
   47.2000   30.7160   40.0050 S   0  0  0  0  0  0  0  0  0  0  0  0
   46.9690   29.4240   39.2190 O   0  0  0  0  0  0  0  0  0  0  0  0
   48.3710   30.3650   40.9550 O   0  0  0  0  0  0  0  0  0  0  0  0
   45.8570   30.6460   40.9820 C   0  0  0  0  0  0  0  0  0  0  0  0
   45.6760   31.3320   42.1340 F   0  0  0  0  0  0  0  0  0  0  0  0
   45.8660   29.3710   41.5780 F   0  0  0  0  0  0  0  0  0  0  0  0
   44.6110   30.4830   40.3060 F   0  0  0  0  0  0  0  0  0  0  0  0
   49.5530   35.7470   41.8830 C   0  0  0  0  0  0  0  0  0  0  0  0
   48.2940   35.5510   41.3020 C   0  0  0  0  0  0  0  0  0  0  0  0
   47.5790   34.3790   41.4600 C   0  0  0  0  0  0  0  0  0  0  0  0
   48.1900   33.4350   42.2190 N   0  0  0  0  0  0  0  0  0  0  0  0
   49.4010   33.6200   42.7790 C   0  0  0  0  0  0  0  0  0  0  0  0
   50.0690   34.7670   42.6090 N   0  0  0  0  0  0  0  0  0  0  0  0
   49.9800   36.7170   41.6650 H   0  0  0  0  0  0  0  0  0  0  0  0
   47.8180   36.3140   40.6970 H   0  0  0  0  0  0  0  0  0  0  0  0
   49.8730   32.8590   43.3800 H   0  0  0  0  0  0  0  0  0  0  0  0
  2  1  1  0  0  0  0
  3 30  1  0  0  0  0
  3  2  2  0  0  0  0
  4  3  1  0  0  0  0
  5  4  2  0  0  0  0
  5  6  1  0  0  0  0
  6  7  2  0  0  0  0
  7  2  1  0  0  0  0
  7 10  1  0  0  0  0
  8  5  1  0  0  0  0
  9  6  1  0  0  0  0
 11 21  1  0  0  0  0
 12 11  1  0  0  0  0
 12  4  1  0  0  0  0
 13 12  2  0  0  0  0
 14 15  2  0  0  0  0
 14 13  1  0  0  0  0
 15 16  1  0  0  0  0
 16 20  1  0  0  0  0
 16 11  2  0  0  0  0
 17 13  1  0  0  0  0
 18 14  1  0  0  0  0
 19 15  1  0  0  0  0
 21 23  2  0  0  0  0
 21 24  1  0  0  0  0
 22 21  2  0  0  0  0
 24 26  1  0  0  0  0
 24 25  1  0  0  0  0
 27 24  1  0  0  0  0
 28 33  1  0  0  0  0
 29 30  1  0  0  0  0
 29 28  2  0  0  0  0
 30 31  2  0  0  0  0
 31 32  1  0  0  0  0
 32 36  1  0  0  0  0
 33 32  2  0  0  0  0
 34 28  1  0  0  0  0
 35 29  1  0  0  0  0
M  END
>  <minimizedAffinity>
-4.51842403

>  <minimizedRMSD>
0.0999197289

$$$$
