
 OpenBabel03252509073D

 36 38  0  0  0  0  0  0  0  0999 V2000
   45.3020   35.2900   43.1340 Cl  0  0  0  0  0  0  0  0  0  0  0  0
   45.1700   34.5450   41.5700 C   0  0  0  0  0  0  0  0  0  0  0  0
   46.2770   34.1600   40.8900 C   0  0  0  0  0  0  0  0  0  0  0  0
   46.0590   33.5630   39.6550 C   0  0  0  0  0  0  0  0  0  0  0  0
   44.8020   33.3710   39.1420 C   0  0  0  0  0  0  0  0  0  0  0  0
   43.7110   33.7660   39.8440 C   0  0  0  0  0  0  0  0  0  0  0  0
   43.9090   34.3600   41.0720 C   0  0  0  0  0  0  0  0  0  0  0  0
   44.6590   32.8980   38.1630 H   0  0  0  0  0  0  0  0  0  0  0  0
   42.7050   33.6260   39.4620 H   0  0  0  0  0  0  0  0  0  0  0  0
   43.0280   34.6680   41.6160 H   0  0  0  0  0  0  0  0  0  0  0  0
   47.6760   31.8360   38.8780 C   0  0  0  0  0  0  0  0  0  0  0  0
   47.2120   33.1170   38.8790 C   0  0  0  0  0  0  0  0  0  0  0  0
   47.8410   34.0770   38.1080 C   0  0  0  0  0  0  0  0  0  0  0  0
   48.9300   33.7270   37.3450 C   0  0  0  0  0  0  0  0  0  0  0  0
   49.4320   32.4320   37.3180 C   0  0  0  0  0  0  0  0  0  0  0  0
   48.7770   31.4930   38.1050 C   0  0  0  0  0  0  0  0  0  0  0  0
   47.4760   35.1060   38.1010 H   0  0  0  0  0  0  0  0  0  0  0  0
   49.3790   34.5160   36.7640 H   0  0  0  0  0  0  0  0  0  0  0  0
   50.2790   32.1600   36.7260 H   0  0  0  0  0  0  0  0  0  0  0  0
   49.1760   30.4920   38.0760 H   0  0  0  0  0  0  0  0  0  0  0  0
   46.9590   30.6170   39.7710 S   0  0  0  0  0  0  0  0  0  0  0  0
   47.6810   29.2960   39.4960 O   0  0  0  0  0  0  0  0  0  0  0  0
   47.3090   30.9270   41.2470 O   0  0  0  0  0  0  0  0  0  0  0  0
   45.4060   30.0290   39.8440 C   0  0  0  0  0  0  0  0  0  0  0  0
   45.0430   28.7300   39.7330 F   0  0  0  0  0  0  0  0  0  0  0  0
   44.7670   30.4540   38.6630 F   0  0  0  0  0  0  0  0  0  0  0  0
   44.5290   30.7090   40.7390 F   0  0  0  0  0  0  0  0  0  0  0  0
   49.5550   35.7320   41.8990 C   0  0  0  0  0  0  0  0  0  0  0  0
   48.2900   35.5450   41.3290 C   0  0  0  0  0  0  0  0  0  0  0  0
   47.5800   34.3680   41.4680 C   0  0  0  0  0  0  0  0  0  0  0  0
   48.2020   33.4080   42.1970 N   0  0  0  0  0  0  0  0  0  0  0  0
   49.4200   33.5850   42.7470 C   0  0  0  0  0  0  0  0  0  0  0  0
   50.0820   34.7370   42.5950 N   0  0  0  0  0  0  0  0  0  0  0  0
   49.9770   36.7080   41.6980 H   0  0  0  0  0  0  0  0  0  0  0  0
   47.8040   36.3210   40.7470 H   0  0  0  0  0  0  0  0  0  0  0  0
   49.9010   32.8110   43.3250 H   0  0  0  0  0  0  0  0  0  0  0  0
  2  1  1  0  0  0  0
  3 30  1  0  0  0  0
  3  2  2  0  0  0  0
  4  3  1  0  0  0  0
  5  4  2  0  0  0  0
  5  6  1  0  0  0  0
  6  7  2  0  0  0  0
  7  2  1  0  0  0  0
  7 10  1  0  0  0  0
  8  5  1  0  0  0  0
  9  6  1  0  0  0  0
 11 12  1  0  0  0  0
 11 21  1  0  0  0  0
 12  4  1  0  0  0  0
 13 12  2  0  0  0  0
 14 13  1  0  0  0  0
 15 14  2  0  0  0  0
 15 16  1  0  0  0  0
 16 11  2  0  0  0  0
 17 13  1  0  0  0  0
 18 14  1  0  0  0  0
 19 15  1  0  0  0  0
 20 16  1  0  0  0  0
 21 24  1  0  0  0  0
 21 23  2  0  0  0  0
 22 21  2  0  0  0  0
 24 27  1  0  0  0  0
 25 24  1  0  0  0  0
 26 24  1  0  0  0  0
 28 33  1  0  0  0  0
 29 30  1  0  0  0  0
 29 28  2  0  0  0  0
 30 31  2  0  0  0  0
 31 32  1  0  0  0  0
 32 36  1  0  0  0  0
 33 32  2  0  0  0  0
 34 28  1  0  0  0  0
 35 29  1  0  0  0  0
M  END
>  <minimizedAffinity>
-4.47307777

>  <minimizedRMSD>
0.865769863

$$$$
