
 OpenBabel03252509073D

 36 38  0  0  0  0  0  0  0  0999 V2000
   45.2800   35.2800   43.1060 Cl  0  0  0  0  0  0  0  0  0  0  0  0
   45.1660   34.5360   41.5400 C   0  0  0  0  0  0  0  0  0  0  0  0
   46.2820   34.1600   40.8690 C   0  0  0  0  0  0  0  0  0  0  0  0
   46.0810   33.5630   39.6310 C   0  0  0  0  0  0  0  0  0  0  0  0
   44.8300   33.3610   39.1070 C   0  0  0  0  0  0  0  0  0  0  0  0
   43.7290   33.7470   39.8000 C   0  0  0  0  0  0  0  0  0  0  0  0
   43.9110   34.3410   41.0310 C   0  0  0  0  0  0  0  0  0  0  0  0
   44.6990   32.8880   38.1270 H   0  0  0  0  0  0  0  0  0  0  0  0
   42.7280   33.5990   39.4100 H   0  0  0  0  0  0  0  0  0  0  0  0
   43.0240   34.6410   41.5680 H   0  0  0  0  0  0  0  0  0  0  0  0
   47.8030   31.8890   38.9720 C   0  0  0  0  0  0  0  0  0  0  0  0
   47.2430   33.1270   38.8650 C   0  0  0  0  0  0  0  0  0  0  0  0
   47.7780   34.0490   37.9850 C   0  0  0  0  0  0  0  0  0  0  0  0
   48.8720   33.7050   37.2240 C   0  0  0  0  0  0  0  0  0  0  0  0
   49.4680   32.4540   37.3060 C   0  0  0  0  0  0  0  0  0  0  0  0
   48.9060   31.5520   38.2010 C   0  0  0  0  0  0  0  0  0  0  0  0
   47.3370   35.0440   37.8910 H   0  0  0  0  0  0  0  0  0  0  0  0
   49.2450   34.4640   36.5560 H   0  0  0  0  0  0  0  0  0  0  0  0
   50.3180   32.1870   36.7150 H   0  0  0  0  0  0  0  0  0  0  0  0
   49.3790   30.5850   38.2550 H   0  0  0  0  0  0  0  0  0  0  0  0
   47.2020   30.7160   40.0020 S   0  0  0  0  0  0  0  0  0  0  0  0
   46.9670   29.4240   39.2150 O   0  0  0  0  0  0  0  0  0  0  0  0
   48.3730   30.3610   40.9510 O   0  0  0  0  0  0  0  0  0  0  0  0
   45.8600   30.6460   40.9810 C   0  0  0  0  0  0  0  0  0  0  0  0
   45.6810   31.3340   42.1330 F   0  0  0  0  0  0  0  0  0  0  0  0
   45.8700   29.3710   41.5780 F   0  0  0  0  0  0  0  0  0  0  0  0
   44.6130   30.4840   40.3080 F   0  0  0  0  0  0  0  0  0  0  0  0
   49.5530   35.7460   41.8810 C   0  0  0  0  0  0  0  0  0  0  0  0
   48.2940   35.5500   41.3000 C   0  0  0  0  0  0  0  0  0  0  0  0
   47.5790   34.3780   41.4580 C   0  0  0  0  0  0  0  0  0  0  0  0
   48.1880   33.4350   42.2190 N   0  0  0  0  0  0  0  0  0  0  0  0
   49.3990   33.6210   42.7800 C   0  0  0  0  0  0  0  0  0  0  0  0
   50.0680   34.7660   42.6090 N   0  0  0  0  0  0  0  0  0  0  0  0
   49.9810   36.7150   41.6620 H   0  0  0  0  0  0  0  0  0  0  0  0
   47.8190   36.3120   40.6930 H   0  0  0  0  0  0  0  0  0  0  0  0
   49.8700   32.8600   43.3820 H   0  0  0  0  0  0  0  0  0  0  0  0
  2  1  1  0  0  0  0
  3 30  1  0  0  0  0
  3  2  2  0  0  0  0
  4  3  1  0  0  0  0
  5  4  2  0  0  0  0
  5  6  1  0  0  0  0
  6  7  2  0  0  0  0
  7  2  1  0  0  0  0
  7 10  1  0  0  0  0
  8  5  1  0  0  0  0
  9  6  1  0  0  0  0
 11 21  1  0  0  0  0
 12 11  1  0  0  0  0
 12  4  1  0  0  0  0
 13 12  2  0  0  0  0
 14 15  2  0  0  0  0
 14 13  1  0  0  0  0
 15 16  1  0  0  0  0
 16 20  1  0  0  0  0
 16 11  2  0  0  0  0
 17 13  1  0  0  0  0
 18 14  1  0  0  0  0
 19 15  1  0  0  0  0
 21 23  2  0  0  0  0
 21 24  1  0  0  0  0
 22 21  2  0  0  0  0
 24 26  1  0  0  0  0
 24 25  1  0  0  0  0
 27 24  1  0  0  0  0
 28 33  1  0  0  0  0
 29 30  1  0  0  0  0
 29 28  2  0  0  0  0
 30 31  2  0  0  0  0
 31 32  1  0  0  0  0
 32 36  1  0  0  0  0
 33 32  2  0  0  0  0
 34 28  1  0  0  0  0
 35 29  1  0  0  0  0
M  END
>  <minimizedAffinity>
-4.51303339

>  <minimizedRMSD>
0.284097493

$$$$
