
 OpenBabel03242517423D

 14 14  0  0  0  0  0  0  0  0999 V2000
   45.2620   35.8720   42.9270 C   0  0  0  0  0  0  0  0  0  0  0  0
   46.0690   34.7140   42.7960 C   0  0  0  0  0  0  0  0  0  0  0  0
   46.2200   33.8590   43.8780 C   0  0  0  0  0  0  0  0  0  0  0  0
   45.5770   34.1750   45.0340 N   0  0  0  0  0  0  0  0  0  0  0  0
   44.8120   35.2890   45.1240 C   0  0  0  0  0  0  0  0  0  0  0  0
   44.6520   36.1260   44.1010 N   0  0  0  0  0  0  0  0  0  0  0  0
   45.1630   36.5210   42.0690 H   0  0  0  0  0  0  0  0  0  0  0  0
   46.8340   32.9690   43.7950 H   0  0  0  0  0  0  0  0  0  0  0  0
   44.3820   35.3790   46.1060 H   0  0  0  0  0  0  0  0  0  0  0  0
   46.8820   34.3820   41.2270 S   0  0  0  0  0  0  0  0  0  0  0  0
   48.5140   35.2040   41.2260 C   0  0  0  0  0  0  0  0  0  0  0  0
   48.4770   36.2700   42.0950 F   0  0  0  0  0  0  0  0  0  0  0  0
   48.8000   35.7260   39.9820 F   0  0  0  0  0  0  0  0  0  0  0  0
   49.5170   34.3390   41.5750 F   0  0  0  0  0  0  0  0  0  0  0  0
  1  6  1  0  0  0  0
  2  1  2  0  0  0  0
  2  3  1  0  0  0  0
  3  4  2  0  0  0  0
  4  5  1  0  0  0  0
  5  9  1  0  0  0  0
  6  5  2  0  0  0  0
  7  1  1  0  0  0  0
  8  3  1  0  0  0  0
 10  2  1  0  0  0  0
 11 10  1  0  0  0  0
 11 14  1  0  0  0  0
 11 12  1  0  0  0  0
 13 11  1  0  0  0  0
M  END
>  <minimizedAffinity>
-4.03172445

>  <minimizedRMSD>
2.72716689

$$$$
