
 OpenBabel03242520263D

 33 34  0  0  0  0  0  0  0  0999 V2000
   45.0820   35.7030   43.4940 C   0  0  0  0  0  0  0  0  0  0  0  0
   46.0090   34.6230   43.5720 C   0  0  0  0  0  0  0  0  0  0  0  0
   46.1150   33.9460   44.7790 C   0  0  0  0  0  0  0  0  0  0  0  0
   45.3410   34.3340   45.8240 N   0  0  0  0  0  0  0  0  0  0  0  0
   44.4710   35.3590   45.7270 C   0  0  0  0  0  0  0  0  0  0  0  0
   44.3460   36.0330   44.5750 N   0  0  0  0  0  0  0  0  0  0  0  0
   44.9770   36.2490   42.5680 H   0  0  0  0  0  0  0  0  0  0  0  0
   43.8960   35.5940   46.6250 H   0  0  0  0  0  0  0  0  0  0  0  0
   46.7330   34.3530   42.3890 N   0  0  0  0  0  0  0  0  0  0  0  0
   47.9290   35.0830   42.0070 C   0  0  0  0  0  0  0  0  0  0  0  0
   48.5280   34.4710   40.7740 C   0  0  0  0  0  0  0  0  0  0  0  0
   47.5830   34.2970   39.7080 N   0  0  0  0  0  0  0  0  0  0  0  0
   46.3560   33.6620   40.0750 C   0  0  0  0  0  0  0  0  0  0  0  0
   46.2450   33.2870   41.5190 C   0  0  0  0  0  0  0  0  0  0  0  0
   48.7060   35.0470   42.8070 H   0  0  0  0  0  0  0  0  0  0  0  0
   47.6490   36.1500   41.8330 H   0  0  0  0  0  0  0  0  0  0  0  0
   49.0310   33.5210   41.0860 H   0  0  0  0  0  0  0  0  0  0  0  0
   49.3200   35.1600   40.4040 H   0  0  0  0  0  0  0  0  0  0  0  0
   48.0720   33.7510   38.9560 H   0  0  0  0  0  0  0  0  0  0  0  0
   46.2190   32.7160   39.4920 H   0  0  0  0  0  0  0  0  0  0  0  0
   45.5350   34.3380   39.8080 H   0  0  0  0  0  0  0  0  0  0  0  0
   46.8140   32.3660   41.7900 H   0  0  0  0  0  0  0  0  0  0  0  0
   45.1880   33.0540   41.7380 H   0  0  0  0  0  0  0  0  0  0  0  0
   47.0230   32.9070   44.8140 O   0  0  0  0  0  0  0  0  0  0  0  0
   45.5090   30.7390   44.5530 O   0  0  0  0  0  0  0  0  0  0  0  0
   46.5300   31.3880   45.4880 P   0  0  1  0  0  0  0  0  0  0  0  0
   47.8880   30.4480   45.6840 O   0  0  0  0  0  0  0  0  0  0  0  0
   48.5900   30.6100   45.0070 H   0  0  0  0  0  0  0  0  0  0  0  0
   45.7630   31.7420   46.9470 O   0  0  0  0  0  0  0  0  0  0  0  0
   46.6470   31.9000   47.9920 C   0  0  0  0  0  0  0  0  0  0  0  0
   47.7120   32.7250   47.6910 F   0  0  0  0  0  0  0  0  0  0  0  0
   47.1210   30.7340   48.5250 F   0  0  0  0  0  0  0  0  0  0  0  0
   45.9120   32.5270   49.0080 F   0  0  0  0  0  0  0  0  0  0  0  0
  1  2  2  0  0  0  0
  1  6  1  0  0  0  0
  2  3  1  0  0  0  0
  3 24  1  0  0  0  0
  3  4  2  0  0  0  0
  5  4  1  0  0  0  0
  5  8  1  0  0  0  0
  6  5  2  0  0  0  0
  7  1  1  0  0  0  0
  9  2  1  0  0  0  0
 10  9  1  0  0  0  0
 10 15  1  0  0  0  0
 11 17  1  0  0  0  0
 11 10  1  0  0  0  0
 12 13  1  0  0  0  0
 12 11  1  0  0  0  0
 13 14  1  0  0  0  0
 14 23  1  0  0  0  0
 14 22  1  0  0  0  0
 14  9  1  0  0  0  0
 16 10  1  0  0  0  0
 18 11  1  0  0  0  0
 19 12  1  0  0  0  0
 20 13  1  0  0  0  0
 21 13  1  0  0  0  0
 24 26  1  0  0  0  0
 26 25  2  6  0  0  0
 26 27  1  0  0  0  0
 26 29  1  0  0  0  0
 28 27  1  0  0  0  0
 29 30  1  0  0  0  0
 30 32  1  0  0  0  0
 30 33  1  0  0  0  0
 31 30  1  0  0  0  0
M  END
>  <minimizedAffinity>
-5.03641939

>  <minimizedRMSD>
1.37995696

$$$$
