
 OpenBabel03252508063D

 39 41  0  0  0  0  0  0  0  0999 V2000
   45.3080   36.1460   42.7660 C   0  0  0  0  0  0  0  0  0  0  0  0
   45.5040   34.7750   42.7540 C   0  0  0  0  0  0  0  0  0  0  0  0
   45.2350   34.0340   43.8780 C   0  0  0  0  0  0  0  0  0  0  0  0
   44.7720   34.7210   44.9840 N   0  0  0  0  0  0  0  0  0  0  0  0
   44.5860   36.0370   44.9890 C   0  0  0  0  0  0  0  0  0  0  0  0
   44.8590   36.7400   43.8690 N   0  0  0  0  0  0  0  0  0  0  0  0
   45.5220   36.7450   41.8700 H   0  0  0  0  0  0  0  0  0  0  0  0
   44.2220   36.5580   45.8660 H   0  0  0  0  0  0  0  0  0  0  0  0
   45.3820   32.6340   44.0280 C   0  0  0  0  0  0  0  0  0  0  0  0
   44.8610   31.6930   43.1350 C   0  0  0  0  0  0  0  0  0  0  0  0
   44.9420   30.3370   43.3110 C   0  0  0  0  0  0  0  0  0  0  0  0
   45.5690   29.8320   44.4270 C   0  0  0  0  0  0  0  0  0  0  0  0
   46.1050   30.7730   45.3480 C   0  0  0  0  0  0  0  0  0  0  0  0
   46.7270   30.2840   46.4670 C   0  0  0  0  0  0  0  0  0  0  0  0
   47.2700   31.1380   47.4040 C   0  0  0  0  0  0  0  0  0  0  0  0
   47.1830   32.5280   47.2010 C   0  0  0  0  0  0  0  0  0  0  0  0
   46.5350   32.9810   46.0380 C   0  0  0  0  0  0  0  0  0  0  0  0
   46.0030   32.1080   45.1300 C   0  0  0  0  0  0  0  0  0  0  0  0
   44.3610   32.0360   42.2450 H   0  0  0  0  0  0  0  0  0  0  0  0
   44.5300   29.6390   42.6010 H   0  0  0  0  0  0  0  0  0  0  0  0
   45.6690   28.7890   44.6350 H   0  0  0  0  0  0  0  0  0  0  0  0
   46.7900   29.2040   46.6140 H   0  0  0  0  0  0  0  0  0  0  0  0
   47.7520   30.6940   48.2750 H   0  0  0  0  0  0  0  0  0  0  0  0
   47.6320   33.0940   47.9770 H   0  0  0  0  0  0  0  0  0  0  0  0
   46.5900   34.0490   46.0520 H   0  0  0  0  0  0  0  0  0  0  0  0
   45.9620   34.2190   41.5930 O   0  0  0  0  0  0  0  0  0  0  0  0
   47.8320   32.4410   41.1490 O   0  0  0  0  0  0  0  0  0  0  0  0
   47.5920   33.9060   41.2520 P   0  0  1  0  0  0  0  0  0  0  0  0
   48.0410   34.5900   39.7710 O   0  0  0  0  0  0  0  0  0  0  0  0
   47.6750   33.7850   38.6990 C   0  0  0  0  0  0  0  0  0  0  0  0
   48.5940   32.7460   38.6390 F   0  0  0  0  0  0  0  0  0  0  0  0
   46.4060   33.2710   38.8420 F   0  0  0  0  0  0  0  0  0  0  0  0
   47.8300   34.5420   37.5520 F   0  0  0  0  0  0  0  0  0  0  0  0
   48.5240   34.5900   42.4670 O   0  0  0  0  0  0  0  0  0  0  0  0
   49.7260   35.2600   42.3110 C   0  0  0  0  0  0  0  0  0  0  0  0
   49.4100   36.3770   41.8640 O   0  0  0  0  0  0  0  0  0  0  0  0
   50.8350   34.4280   42.7160 N   0  0  0  0  0  0  0  0  0  0  0  0
   50.9400   34.2560   43.7510 H   0  0  0  0  0  0  0  0  0  0  0  0
   51.5690   33.9560   42.1180 H   0  0  0  0  0  0  0  0  0  0  0  0
  1  6  1  0  0  0  0
  2  1  2  0  0  0  0
  2  3  1  0  0  0  0
  3  9  1  0  0  0  0
  3  4  2  0  0  0  0
  4  5  1  0  0  0  0
  5  8  1  0  0  0  0
  6  5  2  0  0  0  0
  7  1  1  0  0  0  0
  9 18  1  0  0  0  0
 10 11  1  0  0  0  0
 10  9  2  0  0  0  0
 11 12  2  0  0  0  0
 12 21  1  0  0  0  0
 12 13  1  0  0  0  0
 13 14  1  0  0  0  0
 14 22  1  0  0  0  0
 14 15  2  0  0  0  0
 15 23  1  0  0  0  0
 16 15  1  0  0  0  0
 16 24  1  0  0  0  0
 17 25  1  0  0  0  0
 17 16  2  0  0  0  0
 18 13  2  0  0  0  0
 18 17  1  0  0  0  0
 19 10  1  0  0  0  0
 20 11  1  0  0  0  0
 26  2  1  0  0  0  0
 28 27  2  6  0  0  0
 28 26  1  0  0  0  0
 28 34  1  0  0  0  0
 29 28  1  0  0  0  0
 30 32  1  0  0  0  0
 30 29  1  0  0  0  0
 31 30  1  0  0  0  0
 33 30  1  0  0  0  0
 35 34  1  0  0  0  0
 35 37  1  0  0  0  0
 36 35  2  0  0  0  0
 37 38  1  0  0  0  0
 39 37  1  0  0  0  0
M  END
>  <minimizedAffinity>
-5.85982752

>  <minimizedRMSD>
0.327949792

$$$$
