
 OpenBabel03242515373D

 28 30  0  0  0  0  0  0  0  0999 V2000
   36.9920   32.3170   39.9440 C   0  0  0  0  0  0  0  0  0  0  0  0
   37.4750   31.3090   40.7700 C   0  0  0  0  0  0  0  0  0  0  0  0
   38.7890   31.2970   41.1660 C   0  0  0  0  0  0  0  0  0  0  0  0
   39.6790   32.2750   40.7670 C   0  0  0  0  0  0  0  0  0  0  0  0
   39.1920   33.2950   39.9310 C   0  0  0  0  0  0  0  0  0  0  0  0
   37.8650   33.3270   39.5180 C   0  0  0  0  0  0  0  0  0  0  0  0
   40.2730   34.1610   39.6640 O   0  0  0  0  0  0  0  0  0  0  0  0
   41.4340   33.4620   40.0320 C   0  0  0  0  0  0  0  0  0  0  0  0
   41.0320   32.5140   41.0030 O   0  0  0  0  0  0  0  0  0  0  0  0
   36.0080   32.4360   39.5730 H   0  0  0  0  0  0  0  0  0  0  0  0
   39.0900   30.4970   41.7970 H   0  0  0  0  0  0  0  0  0  0  0  0
   37.5510   34.1380   38.8750 H   0  0  0  0  0  0  0  0  0  0  0  0
   42.1150   34.1750   40.5800 H   0  0  0  0  0  0  0  0  0  0  0  0
   42.0160   33.0390   39.2140 H   0  0  0  0  0  0  0  0  0  0  0  0
   36.2720   30.0790   41.2490 S   0  0  0  0  0  0  0  0  0  0  0  0
   37.1040   28.5960   41.8820 C   0  0  0  0  0  0  0  0  0  0  0  0
   37.6130   28.6990   43.1590 C   0  0  0  0  0  0  0  0  0  0  0  0
   38.2620   27.5630   43.6720 C   0  0  0  0  0  0  0  0  0  0  0  0
   38.3510   26.4550   42.8990 N   0  0  0  0  0  0  0  0  0  0  0  0
   37.8390   26.4000   41.6590 C   0  0  0  0  0  0  0  0  0  0  0  0
   37.2250   27.4760   41.1760 N   0  0  0  0  0  0  0  0  0  0  0  0
   37.5690   29.5660   43.8210 H   0  0  0  0  0  0  0  0  0  0  0  0
   38.6840   27.5710   44.6620 H   0  0  0  0  0  0  0  0  0  0  0  0
   37.8930   25.3130   40.8250 O   0  0  0  0  0  0  0  0  0  0  0  0
   36.9760   24.2640   41.0200 C   0  0  0  0  0  0  0  0  0  0  0  0
   36.2900   24.3670   42.1970 F   0  0  0  0  0  0  0  0  0  0  0  0
   36.1400   24.2800   39.8970 F   0  0  0  0  0  0  0  0  0  0  0  0
   37.7080   23.0810   41.0530 F   0  0  0  0  0  0  0  0  0  0  0  0
  1  2  1  0  0  0  0
  2  3  2  0  0  0  0
  2 15  1  0  0  0  0
  3 11  1  0  0  0  0
  4  9  1  0  0  0  0
  4  3  1  0  0  0  0
  5  4  2  0  0  0  0
  6  5  1  0  0  0  0
  6  1  2  0  0  0  0
  7  5  1  0  0  0  0
  7  8  1  0  0  0  0
  8 13  1  0  0  0  0
  8  9  1  0  0  0  0
 10  1  1  0  0  0  0
 12  6  1  0  0  0  0
 14  8  1  0  0  0  0
 15 16  1  0  0  0  0
 16 17  1  0  0  0  0
 17 18  2  0  0  0  0
 17 22  1  0  0  0  0
 18 23  1  0  0  0  0
 19 18  1  0  0  0  0
 20 19  2  0  0  0  0
 21 20  1  0  0  0  0
 21 16  2  0  0  0  0
 24 25  1  0  0  0  0
 24 20  1  0  0  0  0
 25 28  1  0  0  0  0
 25 26  1  0  0  0  0
 27 25  1  0  0  0  0
M  END
>  <minimizedAffinity>
-5.29137039

$$$$

 OpenBabel03242515373D

 28 30  0  0  0  0  0  0  0  0999 V2000
   37.3660   31.2270   38.5830 C   0  0  0  0  0  0  0  0  0  0  0  0
   36.4740   30.3950   39.2480 C   0  0  0  0  0  0  0  0  0  0  0  0
   35.7310   29.4700   38.5570 C   0  0  0  0  0  0  0  0  0  0  0  0
   35.8350   29.3280   37.1870 C   0  0  0  0  0  0  0  0  0  0  0  0
   36.7370   30.1700   36.5140 C   0  0  0  0  0  0  0  0  0  0  0  0
   37.5000   31.1130   37.1930 C   0  0  0  0  0  0  0  0  0  0  0  0
   36.6660   29.8390   35.1440 O   0  0  0  0  0  0  0  0  0  0  0  0
   35.4920   29.0860   34.9850 C   0  0  0  0  0  0  0  0  0  0  0  0
   35.2240   28.5010   36.2460 O   0  0  0  0  0  0  0  0  0  0  0  0
   37.9910   31.9730   38.9990 H   0  0  0  0  0  0  0  0  0  0  0  0
   35.0680   28.8680   39.1290 H   0  0  0  0  0  0  0  0  0  0  0  0
   38.1770   31.7310   36.6180 H   0  0  0  0  0  0  0  0  0  0  0  0
   35.7210   28.2180   34.3000 H   0  0  0  0  0  0  0  0  0  0  0  0
   34.6430   29.6120   34.5500 H   0  0  0  0  0  0  0  0  0  0  0  0
   36.3890   30.6300   41.0160 S   0  0  0  0  0  0  0  0  0  0  0  0
   37.2270   29.2690   41.8750 C   0  0  0  0  0  0  0  0  0  0  0  0
   38.4500   29.5780   42.4300 C   0  0  0  0  0  0  0  0  0  0  0  0
   39.1180   28.5400   43.1010 C   0  0  0  0  0  0  0  0  0  0  0  0
   38.5350   27.3190   43.1630 N   0  0  0  0  0  0  0  0  0  0  0  0
   37.3400   27.0630   42.6060 C   0  0  0  0  0  0  0  0  0  0  0  0
   36.7100   28.0470   41.9720 N   0  0  0  0  0  0  0  0  0  0  0  0
   38.9610   30.5420   42.4090 H   0  0  0  0  0  0  0  0  0  0  0  0
   40.0760   28.7090   43.5590 H   0  0  0  0  0  0  0  0  0  0  0  0
   36.6950   25.8530   42.6310 O   0  0  0  0  0  0  0  0  0  0  0  0
   37.1920   24.8040   41.8370 C   0  0  0  0  0  0  0  0  0  0  0  0
   37.8130   25.2420   40.7010 F   0  0  0  0  0  0  0  0  0  0  0  0
   38.0400   24.0670   42.6730 F   0  0  0  0  0  0  0  0  0  0  0  0
   36.1030   24.0260   41.4560 F   0  0  0  0  0  0  0  0  0  0  0  0
  1 10  1  0  0  0  0
  1  2  1  0  0  0  0
  2 15  1  0  0  0  0
  3 11  1  0  0  0  0
  3  2  2  0  0  0  0
  4  3  1  0  0  0  0
  5  4  2  0  0  0  0
  5  6  1  0  0  0  0
  6  1  2  0  0  0  0
  7  5  1  0  0  0  0
  8  7  1  0  0  0  0
  8  9  1  0  0  0  0
  9  4  1  0  0  0  0
 12  6  1  0  0  0  0
 13  8  1  0  0  0  0
 14  8  1  0  0  0  0
 15 16  1  0  0  0  0
 16 21  2  0  0  0  0
 16 17  1  0  0  0  0
 17 18  2  0  0  0  0
 18 19  1  0  0  0  0
 18 23  1  0  0  0  0
 20 24  1  0  0  0  0
 20 19  2  0  0  0  0
 21 20  1  0  0  0  0
 22 17  1  0  0  0  0
 25 24  1  0  0  0  0
 25 27  1  0  0  0  0
 26 25  1  0  0  0  0
 28 25  1  0  0  0  0
M  END
>  <minimizedAffinity>
-5.2106514

$$$$

 OpenBabel03242515373D

 28 30  0  0  0  0  0  0  0  0999 V2000
   39.1960   26.1220   43.0180 C   0  0  0  0  0  0  0  0  0  0  0  0
   37.9280   26.6760   42.8890 C   0  0  0  0  0  0  0  0  0  0  0  0
   36.9430   26.0170   42.1950 C   0  0  0  0  0  0  0  0  0  0  0  0
   37.1660   24.7890   41.6020 C   0  0  0  0  0  0  0  0  0  0  0  0
   38.4490   24.2290   41.7330 C   0  0  0  0  0  0  0  0  0  0  0  0
   39.4610   24.8780   42.4310 C   0  0  0  0  0  0  0  0  0  0  0  0
   38.4300   22.9920   41.0530 O   0  0  0  0  0  0  0  0  0  0  0  0
   37.2830   23.0090   40.2440 C   0  0  0  0  0  0  0  0  0  0  0  0
   36.3810   23.9120   40.8570 O   0  0  0  0  0  0  0  0  0  0  0  0
   40.0320   26.5280   43.5240 H   0  0  0  0  0  0  0  0  0  0  0  0
   35.9980   26.4980   42.1350 H   0  0  0  0  0  0  0  0  0  0  0  0
   40.4260   24.3950   42.4960 H   0  0  0  0  0  0  0  0  0  0  0  0
   36.7850   21.9990   40.3180 H   0  0  0  0  0  0  0  0  0  0  0  0
   37.4490   23.1990   39.1840 H   0  0  0  0  0  0  0  0  0  0  0  0
   37.7080   28.2620   43.6790 S   0  0  0  0  0  0  0  0  0  0  0  0
   38.0500   29.6040   42.5060 C   0  0  0  0  0  0  0  0  0  0  0  0
   39.2390   30.2750   42.7000 C   0  0  0  0  0  0  0  0  0  0  0  0
   39.5260   31.3180   41.8040 C   0  0  0  0  0  0  0  0  0  0  0  0
   38.6390   31.6010   40.8210 N   0  0  0  0  0  0  0  0  0  0  0  0
   37.4920   30.9190   40.6700 C   0  0  0  0  0  0  0  0  0  0  0  0
   37.2220   29.9320   41.5190 N   0  0  0  0  0  0  0  0  0  0  0  0
   39.9850   30.0880   43.4730 H   0  0  0  0  0  0  0  0  0  0  0  0
   40.4360   31.8850   41.8950 H   0  0  0  0  0  0  0  0  0  0  0  0
   36.5520   31.1520   39.6990 O   0  0  0  0  0  0  0  0  0  0  0  0
   36.8110   30.7180   38.3870 C   0  0  0  0  0  0  0  0  0  0  0  0
   35.7470   30.0790   37.8150 F   0  0  0  0  0  0  0  0  0  0  0  0
   37.2030   31.8620   37.6810 F   0  0  0  0  0  0  0  0  0  0  0  0
   37.8670   29.8140   38.4550 F   0  0  0  0  0  0  0  0  0  0  0  0
  1 10  1  0  0  0  0
  2  1  1  0  0  0  0
  2 15  1  0  0  0  0
  3  2  2  0  0  0  0
  4  5  2  0  0  0  0
  4  3  1  0  0  0  0
  5  6  1  0  0  0  0
  6 12  1  0  0  0  0
  6  1  2  0  0  0  0
  7  5  1  0  0  0  0
  8 13  1  0  0  0  0
  8  9  1  0  0  0  0
  8  7  1  0  0  0  0
  9  4  1  0  0  0  0
 11  3  1  0  0  0  0
 14  8  1  0  0  0  0
 16 17  1  0  0  0  0
 16 15  1  0  0  0  0
 17 22  1  0  0  0  0
 18 23  1  0  0  0  0
 18 17  2  0  0  0  0
 19 18  1  0  0  0  0
 20 19  2  0  0  0  0
 20 21  1  0  0  0  0
 21 16  2  0  0  0  0
 24 20  1  0  0  0  0
 25 28  1  0  0  0  0
 25 24  1  0  0  0  0
 26 25  1  0  0  0  0
 27 25  1  0  0  0  0
M  END
>  <minimizedAffinity>
-5.20418882

$$$$

 OpenBabel03242515373D

 28 30  0  0  0  0  0  0  0  0999 V2000
   34.6780   29.2320   39.5330 C   0  0  0  0  0  0  0  0  0  0  0  0
   35.9100   29.8740   39.5190 C   0  0  0  0  0  0  0  0  0  0  0  0
   36.5860   30.0670   38.3400 C   0  0  0  0  0  0  0  0  0  0  0  0
   36.0780   29.6370   37.1300 C   0  0  0  0  0  0  0  0  0  0  0  0
   34.8310   28.9880   37.1430 C   0  0  0  0  0  0  0  0  0  0  0  0
   34.1290   28.7820   38.3250 C   0  0  0  0  0  0  0  0  0  0  0  0
   34.5280   28.6490   35.8070 O   0  0  0  0  0  0  0  0  0  0  0  0
   35.7300   28.7690   35.0920 C   0  0  0  0  0  0  0  0  0  0  0  0
   36.5260   29.6920   35.8120 O   0  0  0  0  0  0  0  0  0  0  0  0
   34.0640   29.0250   40.3700 H   0  0  0  0  0  0  0  0  0  0  0  0
   37.5230   30.5650   38.4030 H   0  0  0  0  0  0  0  0  0  0  0  0
   33.1750   28.2750   38.2700 H   0  0  0  0  0  0  0  0  0  0  0  0
   35.5050   29.2770   34.1090 H   0  0  0  0  0  0  0  0  0  0  0  0
   36.2390   27.8360   34.8530 H   0  0  0  0  0  0  0  0  0  0  0  0
   36.5090   30.4040   41.1160 S   0  0  0  0  0  0  0  0  0  0  0  0
   37.3530   29.0370   41.9590 C   0  0  0  0  0  0  0  0  0  0  0  0
   38.5830   29.3420   42.5020 C   0  0  0  0  0  0  0  0  0  0  0  0
   39.2570   28.2990   43.1600 C   0  0  0  0  0  0  0  0  0  0  0  0
   38.6730   27.0790   43.2220 N   0  0  0  0  0  0  0  0  0  0  0  0
   37.4720   26.8270   42.6780 C   0  0  0  0  0  0  0  0  0  0  0  0
   36.8360   27.8150   42.0560 N   0  0  0  0  0  0  0  0  0  0  0  0
   39.0960   30.3050   42.4790 H   0  0  0  0  0  0  0  0  0  0  0  0
   40.2200   28.4640   43.6080 H   0  0  0  0  0  0  0  0  0  0  0  0
   36.8250   25.6180   42.7040 O   0  0  0  0  0  0  0  0  0  0  0  0
   37.1720   24.6440   41.7510 C   0  0  0  0  0  0  0  0  0  0  0  0
   37.6570   25.1800   40.5920 F   0  0  0  0  0  0  0  0  0  0  0  0
   38.0910   23.8020   42.3900 F   0  0  0  0  0  0  0  0  0  0  0  0
   36.0120   23.9400   41.4440 F   0  0  0  0  0  0  0  0  0  0  0  0
  1 10  1  0  0  0  0
  2  1  1  0  0  0  0
  2 15  1  0  0  0  0
  3 11  1  0  0  0  0
  3  2  2  0  0  0  0
  4  5  2  0  0  0  0
  4  3  1  0  0  0  0
  5  6  1  0  0  0  0
  6  1  2  0  0  0  0
  7  5  1  0  0  0  0
  8  7  1  0  0  0  0
  8  9  1  0  0  0  0
  9  4  1  0  0  0  0
 12  6  1  0  0  0  0
 13  8  1  0  0  0  0
 14  8  1  0  0  0  0
 15 16  1  0  0  0  0
 16 21  2  0  0  0  0
 16 17  1  0  0  0  0
 17 18  2  0  0  0  0
 18 19  1  0  0  0  0
 18 23  1  0  0  0  0
 20 24  1  0  0  0  0
 20 19  2  0  0  0  0
 21 20  1  0  0  0  0
 22 17  1  0  0  0  0
 25 27  1  0  0  0  0
 25 24  1  0  0  0  0
 26 25  1  0  0  0  0
 28 25  1  0  0  0  0
M  END
>  <minimizedAffinity>
-5.15058279

$$$$

 OpenBabel03242515373D

 28 30  0  0  0  0  0  0  0  0999 V2000
   39.1820   30.2400   42.5920 C   0  0  0  0  0  0  0  0  0  0  0  0
   37.9340   29.6420   42.4720 C   0  0  0  0  0  0  0  0  0  0  0  0
   37.0650   30.0280   41.4820 C   0  0  0  0  0  0  0  0  0  0  0  0
   37.3880   31.0150   40.5720 C   0  0  0  0  0  0  0  0  0  0  0  0
   38.6510   31.6200   40.6920 C   0  0  0  0  0  0  0  0  0  0  0  0
   39.5470   31.2460   41.6870 C   0  0  0  0  0  0  0  0  0  0  0  0
   38.7470   32.5820   39.6650 O   0  0  0  0  0  0  0  0  0  0  0  0
   37.4400   32.7840   39.1950 C   0  0  0  0  0  0  0  0  0  0  0  0
   36.7270   31.5970   39.4920 O   0  0  0  0  0  0  0  0  0  0  0  0
   39.9350   30.0330   43.3070 H   0  0  0  0  0  0  0  0  0  0  0  0
   36.1270   29.5290   41.4490 H   0  0  0  0  0  0  0  0  0  0  0  0
   40.5040   31.7500   41.7280 H   0  0  0  0  0  0  0  0  0  0  0  0
   37.4750   32.8320   38.0680 H   0  0  0  0  0  0  0  0  0  0  0  0
   36.9460   33.6940   39.5320 H   0  0  0  0  0  0  0  0  0  0  0  0
   37.5800   28.3750   43.6800 S   0  0  0  0  0  0  0  0  0  0  0  0
   38.4790   26.8510   43.2770 C   0  0  0  0  0  0  0  0  0  0  0  0
   39.7990   26.8170   43.6750 C   0  0  0  0  0  0  0  0  0  0  0  0
   40.5170   25.6470   43.3740 C   0  0  0  0  0  0  0  0  0  0  0  0
   39.8860   24.6400   42.7240 N   0  0  0  0  0  0  0  0  0  0  0  0
   38.5970   24.7180   42.3550 C   0  0  0  0  0  0  0  0  0  0  0  0
   37.9200   25.8260   42.6410 N   0  0  0  0  0  0  0  0  0  0  0  0
   40.3520   27.5980   44.1990 H   0  0  0  0  0  0  0  0  0  0  0  0
   41.5500   25.5500   43.6550 H   0  0  0  0  0  0  0  0  0  0  0  0
   37.8990   23.7390   41.6960 O   0  0  0  0  0  0  0  0  0  0  0  0
   37.5240   23.9580   40.3590 C   0  0  0  0  0  0  0  0  0  0  0  0
   38.3200   24.8700   39.7240 F   0  0  0  0  0  0  0  0  0  0  0  0
   37.5450   22.6970   39.7500 F   0  0  0  0  0  0  0  0  0  0  0  0
   36.2270   24.4600   40.3730 F   0  0  0  0  0  0  0  0  0  0  0  0
  1 10  1  0  0  0  0
  2  1  1  0  0  0  0
  2 15  1  0  0  0  0
  3  2  2  0  0  0  0
  4  5  2  0  0  0  0
  4  3  1  0  0  0  0
  5  6  1  0  0  0  0
  6 12  1  0  0  0  0
  6  1  2  0  0  0  0
  7  5  1  0  0  0  0
  8  9  1  0  0  0  0
  8 14  1  0  0  0  0
  8  7  1  0  0  0  0
  9  4  1  0  0  0  0
 11  3  1  0  0  0  0
 13  8  1  0  0  0  0
 16 17  1  0  0  0  0
 16 15  1  0  0  0  0
 17 22  1  0  0  0  0
 18 23  1  0  0  0  0
 18 17  2  0  0  0  0
 19 18  1  0  0  0  0
 20 21  1  0  0  0  0
 20 19  2  0  0  0  0
 21 16  2  0  0  0  0
 24 20  1  0  0  0  0
 25 28  1  0  0  0  0
 25 24  1  0  0  0  0
 26 25  1  0  0  0  0
 27 25  1  0  0  0  0
M  END
>  <minimizedAffinity>
-5.04852533

$$$$

 OpenBabel03242515373D

 28 30  0  0  0  0  0  0  0  0999 V2000
   36.5860   27.9800   42.3070 C   0  0  0  0  0  0  0  0  0  0  0  0
   36.2740   27.9060   40.9550 C   0  0  0  0  0  0  0  0  0  0  0  0
   36.6640   26.8240   40.2040 C   0  0  0  0  0  0  0  0  0  0  0  0
   37.3740   25.7750   40.7530 C   0  0  0  0  0  0  0  0  0  0  0  0
   37.6900   25.8480   42.1200 C   0  0  0  0  0  0  0  0  0  0  0  0
   37.3060   26.9330   42.9000 C   0  0  0  0  0  0  0  0  0  0  0  0
   38.4070   24.6770   42.4420 O   0  0  0  0  0  0  0  0  0  0  0  0
   38.8120   24.1180   41.2190 C   0  0  0  0  0  0  0  0  0  0  0  0
   37.8890   24.5810   40.2500 O   0  0  0  0  0  0  0  0  0  0  0  0
   36.3450   28.7530   42.9870 H   0  0  0  0  0  0  0  0  0  0  0  0
   36.3920   26.8340   39.1770 H   0  0  0  0  0  0  0  0  0  0  0  0
   37.5790   26.9320   43.9470 H   0  0  0  0  0  0  0  0  0  0  0  0
   38.6500   23.0020   41.2720 H   0  0  0  0  0  0  0  0  0  0  0  0
   39.8550   24.2710   40.9470 H   0  0  0  0  0  0  0  0  0  0  0  0
   35.3550   29.2950   40.3110 S   0  0  0  0  0  0  0  0  0  0  0  0
   36.2550   30.0640   38.9360 C   0  0  0  0  0  0  0  0  0  0  0  0
   36.8610   31.2690   39.2220 C   0  0  0  0  0  0  0  0  0  0  0  0
   37.5650   31.8840   38.1730 C   0  0  0  0  0  0  0  0  0  0  0  0
   37.6070   31.2730   36.9650 N   0  0  0  0  0  0  0  0  0  0  0  0
   37.0010   30.0970   36.7330 C   0  0  0  0  0  0  0  0  0  0  0  0
   36.3360   29.5170   37.7260 N   0  0  0  0  0  0  0  0  0  0  0  0
   36.8570   31.8020   40.1740 H   0  0  0  0  0  0  0  0  0  0  0  0
   38.0620   32.8260   38.3230 H   0  0  0  0  0  0  0  0  0  0  0  0
   37.0040   29.4250   35.5370 O   0  0  0  0  0  0  0  0  0  0  0  0
   36.0780   29.7990   34.5480 C   0  0  0  0  0  0  0  0  0  0  0  0
   34.7830   29.7540   34.9840 F   0  0  0  0  0  0  0  0  0  0  0  0
   36.4690   31.0770   34.1280 F   0  0  0  0  0  0  0  0  0  0  0  0
   36.2080   28.8920   33.5000 F   0  0  0  0  0  0  0  0  0  0  0  0
  1  6  1  0  0  0  0
  1 10  1  0  0  0  0
  2  1  2  0  0  0  0
  3  4  2  0  0  0  0
  3  2  1  0  0  0  0
  4  5  1  0  0  0  0
  5  7  1  0  0  0  0
  5  6  2  0  0  0  0
  6 12  1  0  0  0  0
  8 13  1  0  0  0  0
  8  7  1  0  0  0  0
  9  4  1  0  0  0  0
  9  8  1  0  0  0  0
 11  3  1  0  0  0  0
 14  8  1  0  0  0  0
 15  2  1  0  0  0  0
 16 17  1  0  0  0  0
 16 15  1  0  0  0  0
 17 22  1  0  0  0  0
 18 23  1  0  0  0  0
 18 17  2  0  0  0  0
 19 18  1  0  0  0  0
 20 19  2  0  0  0  0
 20 21  1  0  0  0  0
 21 16  2  0  0  0  0
 24 20  1  0  0  0  0
 25 26  1  0  0  0  0
 25 24  1  0  0  0  0
 27 25  1  0  0  0  0
 28 25  1  0  0  0  0
M  END
>  <minimizedAffinity>
-4.9259429

$$$$

 OpenBabel03242515373D

 28 30  0  0  0  0  0  0  0  0999 V2000
   37.3110   30.5470   37.0230 C   0  0  0  0  0  0  0  0  0  0  0  0
   36.6490   30.5690   38.2450 C   0  0  0  0  0  0  0  0  0  0  0  0
   35.6400   29.6770   38.5110 C   0  0  0  0  0  0  0  0  0  0  0  0
   35.2420   28.7310   37.5880 C   0  0  0  0  0  0  0  0  0  0  0  0
   35.9100   28.7080   36.3510 C   0  0  0  0  0  0  0  0  0  0  0  0
   36.9350   29.6010   36.0600 C   0  0  0  0  0  0  0  0  0  0  0  0
   35.3330   27.6700   35.5890 O   0  0  0  0  0  0  0  0  0  0  0  0
   34.1240   27.3440   36.2250 C   0  0  0  0  0  0  0  0  0  0  0  0
   34.2760   27.7260   37.5800 O   0  0  0  0  0  0  0  0  0  0  0  0
   38.0980   31.1760   36.7000 H   0  0  0  0  0  0  0  0  0  0  0  0
   35.1780   29.7510   39.4650 H   0  0  0  0  0  0  0  0  0  0  0  0
   37.4100   29.5330   35.0910 H   0  0  0  0  0  0  0  0  0  0  0  0
   34.0280   26.2200   36.2430 H   0  0  0  0  0  0  0  0  0  0  0  0
   33.2200   27.7280   35.7540 H   0  0  0  0  0  0  0  0  0  0  0  0
   37.2140   31.8160   39.3920 S   0  0  0  0  0  0  0  0  0  0  0  0
   37.9930   31.0390   40.8350 C   0  0  0  0  0  0  0  0  0  0  0  0
   39.2640   31.4800   41.1350 C   0  0  0  0  0  0  0  0  0  0  0  0
   39.8880   30.8940   42.2490 C   0  0  0  0  0  0  0  0  0  0  0  0
   39.2200   29.9470   42.9500 N   0  0  0  0  0  0  0  0  0  0  0  0
   37.9810   29.5480   42.6210 C   0  0  0  0  0  0  0  0  0  0  0  0
   37.3930   30.1050   41.5670 N   0  0  0  0  0  0  0  0  0  0  0  0
   39.8440   32.2370   40.6040 H   0  0  0  0  0  0  0  0  0  0  0  0
   40.8790   31.1890   42.5420 H   0  0  0  0  0  0  0  0  0  0  0  0
   37.2490   28.5980   43.2870 O   0  0  0  0  0  0  0  0  0  0  0  0
   37.4420   27.2440   42.9590 C   0  0  0  0  0  0  0  0  0  0  0  0
   36.3770   26.4560   43.2970 F   0  0  0  0  0  0  0  0  0  0  0  0
   37.7220   27.2230   41.5880 F   0  0  0  0  0  0  0  0  0  0  0  0
   38.5470   26.8010   43.6800 F   0  0  0  0  0  0  0  0  0  0  0  0
  1  2  1  0  0  0  0
  2  3  2  0  0  0  0
  2 15  1  0  0  0  0
  3 11  1  0  0  0  0
  4  3  1  0  0  0  0
  5  4  2  0  0  0  0
  6  5  1  0  0  0  0
  6  1  2  0  0  0  0
  7  8  1  0  0  0  0
  7  5  1  0  0  0  0
  8 13  1  0  0  0  0
  8  9  1  0  0  0  0
  9  4  1  0  0  0  0
 10  1  1  0  0  0  0
 12  6  1  0  0  0  0
 14  8  1  0  0  0  0
 15 16  1  0  0  0  0
 16 17  2  0  0  0  0
 16 21  1  0  0  0  0
 17 18  1  0  0  0  0
 18 23  1  0  0  0  0
 18 19  2  0  0  0  0
 20 19  1  0  0  0  0
 20 24  1  0  0  0  0
 21 20  2  0  0  0  0
 22 17  1  0  0  0  0
 25 24  1  0  0  0  0
 25 26  1  0  0  0  0
 25 28  1  0  0  0  0
 27 25  1  0  0  0  0
M  END
>  <minimizedAffinity>
-4.80539322

$$$$

 OpenBabel03242515373D

 28 30  0  0  0  0  0  0  0  0999 V2000
   39.2560   26.2530   42.8830 C   0  0  0  0  0  0  0  0  0  0  0  0
   37.9790   26.7910   42.7820 C   0  0  0  0  0  0  0  0  0  0  0  0
   36.9790   26.1040   42.1380 C   0  0  0  0  0  0  0  0  0  0  0  0
   37.1950   24.8650   41.5700 C   0  0  0  0  0  0  0  0  0  0  0  0
   38.4870   24.3200   41.6720 C   0  0  0  0  0  0  0  0  0  0  0  0
   39.5150   24.9970   42.3190 C   0  0  0  0  0  0  0  0  0  0  0  0
   38.4590   23.0670   41.0250 O   0  0  0  0  0  0  0  0  0  0  0  0
   37.2860   23.0510   40.2540 C   0  0  0  0  0  0  0  0  0  0  0  0
   36.3950   23.9610   40.8740 O   0  0  0  0  0  0  0  0  0  0  0  0
   40.1040   26.6800   43.3500 H   0  0  0  0  0  0  0  0  0  0  0  0
   36.0270   26.5750   42.0980 H   0  0  0  0  0  0  0  0  0  0  0  0
   40.4870   24.5250   42.3640 H   0  0  0  0  0  0  0  0  0  0  0  0
   36.8020   22.0380   40.3700 H   0  0  0  0  0  0  0  0  0  0  0  0
   37.4150   23.2160   39.1850 H   0  0  0  0  0  0  0  0  0  0  0  0
   37.7680   28.3950   43.5380 S   0  0  0  0  0  0  0  0  0  0  0  0
   37.7050   29.6880   42.2670 C   0  0  0  0  0  0  0  0  0  0  0  0
   36.5070   29.8050   41.5950 C   0  0  0  0  0  0  0  0  0  0  0  0
   36.4340   30.8000   40.6060 C   0  0  0  0  0  0  0  0  0  0  0  0
   37.5220   31.5720   40.3720 N   0  0  0  0  0  0  0  0  0  0  0  0
   38.6690   31.4230   41.0530 C   0  0  0  0  0  0  0  0  0  0  0  0
   38.7360   30.4800   41.9880 N   0  0  0  0  0  0  0  0  0  0  0  0
   35.6050   29.2100   41.7440 H   0  0  0  0  0  0  0  0  0  0  0  0
   35.5310   30.9480   40.0420 H   0  0  0  0  0  0  0  0  0  0  0  0
   39.8060   32.1680   40.8670 O   0  0  0  0  0  0  0  0  0  0  0  0
   40.5000   32.0530   39.6500 C   0  0  0  0  0  0  0  0  0  0  0  0
   40.4040   30.8070   39.0960 F   0  0  0  0  0  0  0  0  0  0  0  0
   39.9820   33.0590   38.8240 F   0  0  0  0  0  0  0  0  0  0  0  0
   41.8430   32.3000   39.9180 F   0  0  0  0  0  0  0  0  0  0  0  0
  1 10  1  0  0  0  0
  2  1  1  0  0  0  0
  2 15  1  0  0  0  0
  3  2  2  0  0  0  0
  4  5  2  0  0  0  0
  4  3  1  0  0  0  0
  5  6  1  0  0  0  0
  6 12  1  0  0  0  0
  6  1  2  0  0  0  0
  7  5  1  0  0  0  0
  8 13  1  0  0  0  0
  8  9  1  0  0  0  0
  8  7  1  0  0  0  0
  9  4  1  0  0  0  0
 11  3  1  0  0  0  0
 14  8  1  0  0  0  0
 16 15  1  0  0  0  0
 17 22  1  0  0  0  0
 17 16  2  0  0  0  0
 18 17  1  0  0  0  0
 19 18  2  0  0  0  0
 19 20  1  0  0  0  0
 20 21  2  0  0  0  0
 21 16  1  0  0  0  0
 23 18  1  0  0  0  0
 24 20  1  0  0  0  0
 25 28  1  0  0  0  0
 25 24  1  0  0  0  0
 26 25  1  0  0  0  0
 27 25  1  0  0  0  0
M  END
>  <minimizedAffinity>
-4.78616524

$$$$

 OpenBabel03242515373D

 28 30  0  0  0  0  0  0  0  0999 V2000
   38.3600   30.4480   37.9110 C   0  0  0  0  0  0  0  0  0  0  0  0
   37.1670   30.6710   38.5880 C   0  0  0  0  0  0  0  0  0  0  0  0
   37.0140   31.7720   39.3930 C   0  0  0  0  0  0  0  0  0  0  0  0
   38.0260   32.6960   39.5630 C   0  0  0  0  0  0  0  0  0  0  0  0
   39.2330   32.4720   38.8780 C   0  0  0  0  0  0  0  0  0  0  0  0
   39.4100   31.3630   38.0580 C   0  0  0  0  0  0  0  0  0  0  0  0
   40.0990   33.5360   39.2070 O   0  0  0  0  0  0  0  0  0  0  0  0
   39.5400   34.1600   40.3340 C   0  0  0  0  0  0  0  0  0  0  0  0
   38.1540   33.8750   40.2960 O   0  0  0  0  0  0  0  0  0  0  0  0
   38.5990   29.6430   37.2660 H   0  0  0  0  0  0  0  0  0  0  0  0
   36.0770   31.8800   39.8810 H   0  0  0  0  0  0  0  0  0  0  0  0
   40.3630   31.2460   37.5580 H   0  0  0  0  0  0  0  0  0  0  0  0
   39.6160   35.2770   40.1920 H   0  0  0  0  0  0  0  0  0  0  0  0
   40.0130   33.9330   41.2890 H   0  0  0  0  0  0  0  0  0  0  0  0
   35.9020   29.4390   38.3230 S   0  0  0  0  0  0  0  0  0  0  0  0
   36.2660   27.9430   39.2850 C   0  0  0  0  0  0  0  0  0  0  0  0
   36.0970   26.7500   38.6160 C   0  0  0  0  0  0  0  0  0  0  0  0
   36.3730   25.5780   39.3400 C   0  0  0  0  0  0  0  0  0  0  0  0
   36.7800   25.6840   40.6270 N   0  0  0  0  0  0  0  0  0  0  0  0
   36.9310   26.8690   41.2380 C   0  0  0  0  0  0  0  0  0  0  0  0
   36.6700   27.9770   40.5520 N   0  0  0  0  0  0  0  0  0  0  0  0
   35.7720   26.6110   37.5840 H   0  0  0  0  0  0  0  0  0  0  0  0
   36.2630   24.6110   38.8820 H   0  0  0  0  0  0  0  0  0  0  0  0
   37.3400   27.0480   42.5360 O   0  0  0  0  0  0  0  0  0  0  0  0
   38.5470   27.7270   42.7780 C   0  0  0  0  0  0  0  0  0  0  0  0
   39.3040   27.8890   41.6520 F   0  0  0  0  0  0  0  0  0  0  0  0
   38.1830   28.9430   43.3710 F   0  0  0  0  0  0  0  0  0  0  0  0
   39.2770   26.9570   43.6780 F   0  0  0  0  0  0  0  0  0  0  0  0
  1  6  2  0  0  0  0
  1  2  1  0  0  0  0
  2  3  2  0  0  0  0
  3  4  1  0  0  0  0
  3 11  1  0  0  0  0
  4  9  1  0  0  0  0
  5  7  1  0  0  0  0
  5  4  2  0  0  0  0
  6  5  1  0  0  0  0
  7  8  1  0  0  0  0
  8 14  1  0  0  0  0
  9  8  1  0  0  0  0
 10  1  1  0  0  0  0
 12  6  1  0  0  0  0
 13  8  1  0  0  0  0
 15  2  1  0  0  0  0
 15 16  1  0  0  0  0
 16 21  1  0  0  0  0
 17 16  2  0  0  0  0
 17 18  1  0  0  0  0
 18 19  2  0  0  0  0
 19 20  1  0  0  0  0
 20 24  1  0  0  0  0
 21 20  2  0  0  0  0
 22 17  1  0  0  0  0
 23 18  1  0  0  0  0
 24 25  1  0  0  0  0
 25 27  1  0  0  0  0
 25 28  1  0  0  0  0
 26 25  1  0  0  0  0
M  END
>  <minimizedAffinity>
-4.69509745

$$$$
