
 OpenBabel03252508073D

 39 41  0  0  0  0  0  0  0  0999 V2000
   45.0460   35.4290   43.3930 C   0  0  0  0  0  0  0  0  0  0  0  0
   45.4940   34.1190   43.4340 C   0  0  0  0  0  0  0  0  0  0  0  0
   45.4960   33.4320   44.6230 C   0  0  0  0  0  0  0  0  0  0  0  0
   45.0380   34.1090   45.7370 N   0  0  0  0  0  0  0  0  0  0  0  0
   44.6110   35.3660   45.6920 C   0  0  0  0  0  0  0  0  0  0  0  0
   44.6200   36.0180   44.5090 N   0  0  0  0  0  0  0  0  0  0  0  0
   45.0430   35.9860   42.4460 H   0  0  0  0  0  0  0  0  0  0  0  0
   44.2550   35.8790   46.5770 H   0  0  0  0  0  0  0  0  0  0  0  0
   45.9190   32.0980   44.8320 C   0  0  0  0  0  0  0  0  0  0  0  0
   45.6400   31.0430   43.9570 C   0  0  0  0  0  0  0  0  0  0  0  0
   45.9880   29.7390   44.1880 C   0  0  0  0  0  0  0  0  0  0  0  0
   46.6560   29.4070   45.3440 C   0  0  0  0  0  0  0  0  0  0  0  0
   46.9500   30.4650   46.2470 C   0  0  0  0  0  0  0  0  0  0  0  0
   47.6100   30.1490   47.4050 C   0  0  0  0  0  0  0  0  0  0  0  0
   47.9270   31.1240   48.3270 C   0  0  0  0  0  0  0  0  0  0  0  0
   47.5670   32.4600   48.0680 C   0  0  0  0  0  0  0  0  0  0  0  0
   46.8900   32.7350   46.8660 C   0  0  0  0  0  0  0  0  0  0  0  0
   46.5870   31.7430   45.9750 C   0  0  0  0  0  0  0  0  0  0  0  0
   45.1190   31.2490   43.0370 H   0  0  0  0  0  0  0  0  0  0  0  0
   45.7580   28.9490   43.4910 H   0  0  0  0  0  0  0  0  0  0  0  0
   46.9590   28.4130   45.5950 H   0  0  0  0  0  0  0  0  0  0  0  0
   47.8860   29.1100   47.5950 H   0  0  0  0  0  0  0  0  0  0  0  0
   48.4520   30.8150   49.2310 H   0  0  0  0  0  0  0  0  0  0  0  0
   47.8570   33.1290   48.8370 H   0  0  0  0  0  0  0  0  0  0  0  0
   46.7250   33.7910   46.8420 H   0  0  0  0  0  0  0  0  0  0  0  0
   45.9150   33.5660   42.2590 O   0  0  0  0  0  0  0  0  0  0  0  0
   48.3020   32.5860   41.8120 O   0  0  0  0  0  0  0  0  0  0  0  0
   47.4550   33.7880   41.5870 P   0  0  1  0  0  0  0  0  0  0  0  0
   47.3560   34.0210   39.9140 O   0  0  0  0  0  0  0  0  0  0  0  0
   46.2980   33.3140   39.3560 C   0  0  0  0  0  0  0  0  0  0  0  0
   46.4060   33.4460   37.9770 F   0  0  0  0  0  0  0  0  0  0  0  0
   46.3230   31.9810   39.6950 F   0  0  0  0  0  0  0  0  0  0  0  0
   45.1350   33.9530   39.7420 F   0  0  0  0  0  0  0  0  0  0  0  0
   48.1400   35.1520   42.2820 O   0  0  0  0  0  0  0  0  0  0  0  0
   49.4480   35.5860   42.1400 C   0  0  0  0  0  0  0  0  0  0  0  0
   49.3840   36.5200   41.3220 O   0  0  0  0  0  0  0  0  0  0  0  0
   50.3400   34.8100   42.9700 N   0  0  0  0  0  0  0  0  0  0  0  0
   50.2820   34.9800   44.0100 H   0  0  0  0  0  0  0  0  0  0  0  0
   51.0540   34.0840   42.6860 H   0  0  0  0  0  0  0  0  0  0  0  0
  1  2  2  0  0  0  0
  1  6  1  0  0  0  0
  2  3  1  0  0  0  0
  3  9  1  0  0  0  0
  3  4  2  0  0  0  0
  5  4  1  0  0  0  0
  5  8  1  0  0  0  0
  6  5  2  0  0  0  0
  7  1  1  0  0  0  0
  9 18  1  0  0  0  0
 10 11  1  0  0  0  0
 10  9  2  0  0  0  0
 11 12  2  0  0  0  0
 12 21  1  0  0  0  0
 12 13  1  0  0  0  0
 13 14  1  0  0  0  0
 14 22  1  0  0  0  0
 14 15  2  0  0  0  0
 15 23  1  0  0  0  0
 16 15  1  0  0  0  0
 16 24  1  0  0  0  0
 17 16  2  0  0  0  0
 18 13  2  0  0  0  0
 18 17  1  0  0  0  0
 19 10  1  0  0  0  0
 20 11  1  0  0  0  0
 25 17  1  0  0  0  0
 26  2  1  0  0  0  0
 28 27  2  1  0  0  0
 28 26  1  0  0  0  0
 28 34  1  0  0  0  0
 29 28  1  0  0  0  0
 30 32  1  0  0  0  0
 30 33  1  0  0  0  0
 30 29  1  0  0  0  0
 31 30  1  0  0  0  0
 35 34  1  0  0  0  0
 35 37  1  0  0  0  0
 36 35  2  0  0  0  0
 37 38  1  0  0  0  0
 39 37  1  0  0  0  0
M  END
>  <minimizedAffinity>
-5.92533827

>  <minimizedRMSD>
1.11867964

$$$$
