
 OpenBabel03252508063D

 39 41  0  0  0  0  0  0  0  0999 V2000
   45.3090   36.1520   42.7640 C   0  0  0  0  0  0  0  0  0  0  0  0
   45.5050   34.7810   42.7480 C   0  0  0  0  0  0  0  0  0  0  0  0
   45.2390   34.0370   43.8710 C   0  0  0  0  0  0  0  0  0  0  0  0
   44.7780   34.7210   44.9800 N   0  0  0  0  0  0  0  0  0  0  0  0
   44.5930   36.0370   44.9890 C   0  0  0  0  0  0  0  0  0  0  0  0
   44.8630   36.7440   43.8710 N   0  0  0  0  0  0  0  0  0  0  0  0
   45.5220   36.7540   41.8700 H   0  0  0  0  0  0  0  0  0  0  0  0
   44.2300   36.5560   45.8680 H   0  0  0  0  0  0  0  0  0  0  0  0
   45.3850   32.6370   44.0180 C   0  0  0  0  0  0  0  0  0  0  0  0
   44.8660   31.6990   43.1200 C   0  0  0  0  0  0  0  0  0  0  0  0
   44.9480   30.3420   43.2930 C   0  0  0  0  0  0  0  0  0  0  0  0
   45.5720   29.8340   44.4080 C   0  0  0  0  0  0  0  0  0  0  0  0
   46.1070   30.7720   45.3330 C   0  0  0  0  0  0  0  0  0  0  0  0
   46.7270   30.2800   46.4510 C   0  0  0  0  0  0  0  0  0  0  0  0
   47.2690   31.1310   47.3910 C   0  0  0  0  0  0  0  0  0  0  0  0
   47.1820   32.5220   47.1930 C   0  0  0  0  0  0  0  0  0  0  0  0
   46.5350   32.9780   46.0300 C   0  0  0  0  0  0  0  0  0  0  0  0
   46.0050   32.1070   45.1190 C   0  0  0  0  0  0  0  0  0  0  0  0
   44.3680   32.0440   42.2300 H   0  0  0  0  0  0  0  0  0  0  0  0
   44.5370   29.6460   42.5790 H   0  0  0  0  0  0  0  0  0  0  0  0
   45.6730   28.7900   44.6130 H   0  0  0  0  0  0  0  0  0  0  0  0
   46.7910   29.2000   46.5940 H   0  0  0  0  0  0  0  0  0  0  0  0
   47.7490   30.6840   48.2620 H   0  0  0  0  0  0  0  0  0  0  0  0
   47.6290   33.0850   47.9710 H   0  0  0  0  0  0  0  0  0  0  0  0
   46.5900   34.0460   46.0480 H   0  0  0  0  0  0  0  0  0  0  0  0
   45.9600   34.2280   41.5850 O   0  0  0  0  0  0  0  0  0  0  0  0
   47.8440   32.4790   41.0840 O   0  0  0  0  0  0  0  0  0  0  0  0
   47.5920   33.9390   41.2300 P   0  0  1  0  0  0  0  0  0  0  0  0
   48.0300   34.6680   39.7680 O   0  0  0  0  0  0  0  0  0  0  0  0
   47.7640   33.8450   38.6800 C   0  0  0  0  0  0  0  0  0  0  0  0
   46.4880   33.3270   38.8670 F   0  0  0  0  0  0  0  0  0  0  0  0
   47.8140   34.5260   37.4860 F   0  0  0  0  0  0  0  0  0  0  0  0
   48.6530   32.7890   38.7430 F   0  0  0  0  0  0  0  0  0  0  0  0
   48.5230   34.5940   42.4610 O   0  0  0  0  0  0  0  0  0  0  0  0
   49.7270   35.2650   42.3220 C   0  0  0  0  0  0  0  0  0  0  0  0
   49.4140   36.3890   41.8900 O   0  0  0  0  0  0  0  0  0  0  0  0
   50.8320   34.4250   42.7190 N   0  0  0  0  0  0  0  0  0  0  0  0
   50.9320   34.2370   43.7530 H   0  0  0  0  0  0  0  0  0  0  0  0
   51.5690   33.9610   42.1190 H   0  0  0  0  0  0  0  0  0  0  0  0
  1  6  1  0  0  0  0
  2  1  2  0  0  0  0
  2  3  1  0  0  0  0
  3  9  1  0  0  0  0
  3  4  2  0  0  0  0
  4  5  1  0  0  0  0
  5  8  1  0  0  0  0
  6  5  2  0  0  0  0
  7  1  1  0  0  0  0
  9 18  1  0  0  0  0
 10 11  1  0  0  0  0
 10  9  2  0  0  0  0
 11 12  2  0  0  0  0
 12 21  1  0  0  0  0
 12 13  1  0  0  0  0
 13 14  1  0  0  0  0
 14 22  1  0  0  0  0
 14 15  2  0  0  0  0
 15 23  1  0  0  0  0
 16 15  1  0  0  0  0
 16 24  1  0  0  0  0
 17 25  1  0  0  0  0
 17 16  2  0  0  0  0
 18 13  2  0  0  0  0
 18 17  1  0  0  0  0
 19 10  1  0  0  0  0
 20 11  1  0  0  0  0
 26  2  1  0  0  0  0
 28 27  2  6  0  0  0
 28 26  1  0  0  0  0
 28 34  1  0  0  0  0
 29 28  1  0  0  0  0
 30 33  1  0  0  0  0
 30 31  1  0  0  0  0
 30 29  1  0  0  0  0
 32 30  1  0  0  0  0
 35 34  1  0  0  0  0
 35 37  1  0  0  0  0
 36 35  2  0  0  0  0
 37 38  1  0  0  0  0
 39 37  1  0  0  0  0
M  END
>  <minimizedAffinity>
-5.87272215

>  <minimizedRMSD>
0.340128541

$$$$
