
 OpenBabel03242515363D

 28 30  0  0  0  0  0  0  0  0999 V2000
   39.9710   34.8770   40.2400 C   0  0  0  0  0  0  0  0  0  0  0  0
   40.9830   34.3920   41.0590 C   0  0  0  0  0  0  0  0  0  0  0  0
   40.9140   33.1240   41.5820 C   0  0  0  0  0  0  0  0  0  0  0  0
   39.8490   32.2850   41.3190 C   0  0  0  0  0  0  0  0  0  0  0  0
   38.8250   32.7750   40.4900 C   0  0  0  0  0  0  0  0  0  0  0  0
   38.8740   34.0550   39.9500 C   0  0  0  0  0  0  0  0  0  0  0  0
   37.8630   31.7490   40.3720 O   0  0  0  0  0  0  0  0  0  0  0  0
   38.1430   30.8310   41.3970 C   0  0  0  0  0  0  0  0  0  0  0  0
   39.5180   30.9860   41.6990 O   0  0  0  0  0  0  0  0  0  0  0  0
   39.9080   35.8280   39.7800 H   0  0  0  0  0  0  0  0  0  0  0  0
   41.7220   32.8190   42.2000 H   0  0  0  0  0  0  0  0  0  0  0  0
   38.0550   34.3740   39.3200 H   0  0  0  0  0  0  0  0  0  0  0  0
   38.0500   29.7900   40.9710 H   0  0  0  0  0  0  0  0  0  0  0  0
   37.4900   30.8740   42.2670 H   0  0  0  0  0  0  0  0  0  0  0  0
   42.3290   35.5270   41.3580 S   0  0  0  0  0  0  0  0  0  0  0  0
   43.9140   34.7520   40.9350 C   0  0  0  0  0  0  0  0  0  0  0  0
   43.8640   33.8020   39.9370 C   0  0  0  0  0  0  0  0  0  0  0  0
   45.0790   33.1870   39.5910 C   0  0  0  0  0  0  0  0  0  0  0  0
   46.2070   33.5530   40.2440 N   0  0  0  0  0  0  0  0  0  0  0  0
   46.2080   34.4840   41.2110 C   0  0  0  0  0  0  0  0  0  0  0  0
   45.0570   35.0650   41.5360 N   0  0  0  0  0  0  0  0  0  0  0  0
   42.9840   33.4720   39.3810 H   0  0  0  0  0  0  0  0  0  0  0  0
   45.1150   32.4370   38.8210 H   0  0  0  0  0  0  0  0  0  0  0  0
   47.3110   34.9020   41.9110 O   0  0  0  0  0  0  0  0  0  0  0  0
   48.5310   35.0480   41.2270 C   0  0  0  0  0  0  0  0  0  0  0  0
   49.3590   33.9710   41.3740 F   0  0  0  0  0  0  0  0  0  0  0  0
   48.1880   35.2940   39.8920 F   0  0  0  0  0  0  0  0  0  0  0  0
   49.1740   36.1580   41.7670 F   0  0  0  0  0  0  0  0  0  0  0  0
  1  2  1  0  0  0  0
  2 15  1  0  0  0  0
  2  3  2  0  0  0  0
  3 11  1  0  0  0  0
  4  3  1  0  0  0  0
  4  9  1  0  0  0  0
  5  4  2  0  0  0  0
  6  1  2  0  0  0  0
  6  5  1  0  0  0  0
  7  5  1  0  0  0  0
  7  8  1  0  0  0  0
  8  9  1  0  0  0  0
  8 14  1  0  0  0  0
 10  1  1  0  0  0  0
 12  6  1  0  0  0  0
 13  8  1  0  0  0  0
 16 15  1  0  0  0  0
 16 21  1  0  0  0  0
 17 16  2  0  0  0  0
 18 17  1  0  0  0  0
 18 19  2  0  0  0  0
 19 20  1  0  0  0  0
 20 21  2  0  0  0  0
 20 24  1  0  0  0  0
 22 17  1  0  0  0  0
 23 18  1  0  0  0  0
 25 26  1  0  0  0  0
 25 28  1  0  0  0  0
 25 24  1  0  0  0  0
 27 25  1  0  0  0  0
M  END
>  <minimizedAffinity>
-5.54854345

>  <minimizedRMSD>
5.11952496

$$$$
