
 OpenBabel03252508063D

 39 41  0  0  0  0  0  0  0  0999 V2000
   45.3140   36.1440   42.7530 C   0  0  0  0  0  0  0  0  0  0  0  0
   45.5070   34.7730   42.7400 C   0  0  0  0  0  0  0  0  0  0  0  0
   45.2410   34.0320   43.8650 C   0  0  0  0  0  0  0  0  0  0  0  0
   44.7840   34.7200   44.9730 N   0  0  0  0  0  0  0  0  0  0  0  0
   44.6010   36.0360   44.9790 C   0  0  0  0  0  0  0  0  0  0  0  0
   44.8710   36.7390   43.8590 N   0  0  0  0  0  0  0  0  0  0  0  0
   45.5250   36.7440   41.8570 H   0  0  0  0  0  0  0  0  0  0  0  0
   44.2410   36.5570   45.8580 H   0  0  0  0  0  0  0  0  0  0  0  0
   45.3860   32.6320   44.0150 C   0  0  0  0  0  0  0  0  0  0  0  0
   44.8660   31.6930   43.1190 C   0  0  0  0  0  0  0  0  0  0  0  0
   44.9460   30.3370   43.2940 C   0  0  0  0  0  0  0  0  0  0  0  0
   45.5690   29.8300   44.4110 C   0  0  0  0  0  0  0  0  0  0  0  0
   46.1050   30.7690   45.3340 C   0  0  0  0  0  0  0  0  0  0  0  0
   46.7240   30.2780   46.4540 C   0  0  0  0  0  0  0  0  0  0  0  0
   47.2660   31.1300   47.3920 C   0  0  0  0  0  0  0  0  0  0  0  0
   47.1810   32.5210   47.1910 C   0  0  0  0  0  0  0  0  0  0  0  0
   46.5360   32.9760   46.0260 C   0  0  0  0  0  0  0  0  0  0  0  0
   46.0050   32.1040   45.1170 C   0  0  0  0  0  0  0  0  0  0  0  0
   44.3680   32.0370   42.2280 H   0  0  0  0  0  0  0  0  0  0  0  0
   44.5340   29.6390   42.5820 H   0  0  0  0  0  0  0  0  0  0  0  0
   45.6680   28.7860   44.6180 H   0  0  0  0  0  0  0  0  0  0  0  0
   46.7860   29.1980   46.5990 H   0  0  0  0  0  0  0  0  0  0  0  0
   47.7450   30.6850   48.2640 H   0  0  0  0  0  0  0  0  0  0  0  0
   47.6290   33.0850   47.9680 H   0  0  0  0  0  0  0  0  0  0  0  0
   46.5920   34.0430   46.0420 H   0  0  0  0  0  0  0  0  0  0  0  0
   45.9590   34.2160   41.5770 O   0  0  0  0  0  0  0  0  0  0  0  0
   47.8490   32.4900   41.0280 O   0  0  0  0  0  0  0  0  0  0  0  0
   47.5910   33.9440   41.2110 P   0  0  1  0  0  0  0  0  0  0  0  0
   48.0220   34.7110   39.7660 O   0  0  0  0  0  0  0  0  0  0  0  0
   47.8310   33.8850   38.6650 C   0  0  0  0  0  0  0  0  0  0  0  0
   47.9940   34.6730   37.5330 F   0  0  0  0  0  0  0  0  0  0  0  0
   48.7270   32.8410   38.6350 F   0  0  0  0  0  0  0  0  0  0  0  0
   46.5120   33.4690   38.6950 F   0  0  0  0  0  0  0  0  0  0  0  0
   48.5230   34.5740   42.4550 O   0  0  0  0  0  0  0  0  0  0  0  0
   49.7220   35.2560   42.3290 C   0  0  0  0  0  0  0  0  0  0  0  0
   49.4020   36.3820   41.9100 O   0  0  0  0  0  0  0  0  0  0  0  0
   50.8320   34.4190   42.7210 N   0  0  0  0  0  0  0  0  0  0  0  0
   50.9290   34.2200   43.7530 H   0  0  0  0  0  0  0  0  0  0  0  0
   51.5750   33.9690   42.1180 H   0  0  0  0  0  0  0  0  0  0  0  0
  1  6  1  0  0  0  0
  2  1  2  0  0  0  0
  2  3  1  0  0  0  0
  3  9  1  0  0  0  0
  3  4  2  0  0  0  0
  4  5  1  0  0  0  0
  5  8  1  0  0  0  0
  6  5  2  0  0  0  0
  7  1  1  0  0  0  0
  9 18  1  0  0  0  0
 10 11  1  0  0  0  0
 10  9  2  0  0  0  0
 11 12  2  0  0  0  0
 12 21  1  0  0  0  0
 12 13  1  0  0  0  0
 13 14  1  0  0  0  0
 14 22  1  0  0  0  0
 14 15  2  0  0  0  0
 15 23  1  0  0  0  0
 16 15  1  0  0  0  0
 16 24  1  0  0  0  0
 17 25  1  0  0  0  0
 17 16  2  0  0  0  0
 18 13  2  0  0  0  0
 18 17  1  0  0  0  0
 19 10  1  0  0  0  0
 20 11  1  0  0  0  0
 26  2  1  0  0  0  0
 28 27  2  6  0  0  0
 28 26  1  0  0  0  0
 28 34  1  0  0  0  0
 29 28  1  0  0  0  0
 30 33  1  0  0  0  0
 30 29  1  0  0  0  0
 31 30  1  0  0  0  0
 32 30  1  0  0  0  0
 35 34  1  0  0  0  0
 35 37  1  0  0  0  0
 36 35  2  0  0  0  0
 37 38  1  0  0  0  0
 39 37  1  0  0  0  0
M  END
>  <minimizedAffinity>
-5.9147954

>  <minimizedRMSD>
0.358633548

$$$$
