
 OpenBabel03252508063D

 39 41  0  0  0  0  0  0  0  0999 V2000
   45.3100   36.1470   42.7670 C   0  0  0  0  0  0  0  0  0  0  0  0
   45.5050   34.7750   42.7540 C   0  0  0  0  0  0  0  0  0  0  0  0
   45.2350   34.0340   43.8780 C   0  0  0  0  0  0  0  0  0  0  0  0
   44.7710   34.7210   44.9840 N   0  0  0  0  0  0  0  0  0  0  0  0
   44.5870   36.0370   44.9900 C   0  0  0  0  0  0  0  0  0  0  0  0
   44.8610   36.7410   43.8710 N   0  0  0  0  0  0  0  0  0  0  0  0
   45.5250   36.7460   41.8720 H   0  0  0  0  0  0  0  0  0  0  0  0
   44.2220   36.5570   45.8670 H   0  0  0  0  0  0  0  0  0  0  0  0
   45.3810   32.6340   44.0270 C   0  0  0  0  0  0  0  0  0  0  0  0
   44.8590   31.6940   43.1330 C   0  0  0  0  0  0  0  0  0  0  0  0
   44.9390   30.3380   43.3090 C   0  0  0  0  0  0  0  0  0  0  0  0
   45.5660   29.8320   44.4250 C   0  0  0  0  0  0  0  0  0  0  0  0
   46.1030   30.7710   45.3460 C   0  0  0  0  0  0  0  0  0  0  0  0
   46.7250   30.2820   46.4640 C   0  0  0  0  0  0  0  0  0  0  0  0
   47.2690   31.1350   47.4010 C   0  0  0  0  0  0  0  0  0  0  0  0
   47.1830   32.5250   47.1990 C   0  0  0  0  0  0  0  0  0  0  0  0
   46.5350   32.9790   46.0360 C   0  0  0  0  0  0  0  0  0  0  0  0
   46.0020   32.1060   45.1290 C   0  0  0  0  0  0  0  0  0  0  0  0
   44.3590   32.0380   42.2440 H   0  0  0  0  0  0  0  0  0  0  0  0
   44.5260   29.6400   42.5990 H   0  0  0  0  0  0  0  0  0  0  0  0
   45.6660   28.7880   44.6320 H   0  0  0  0  0  0  0  0  0  0  0  0
   46.7880   29.2020   46.6100 H   0  0  0  0  0  0  0  0  0  0  0  0
   47.7510   30.6890   48.2720 H   0  0  0  0  0  0  0  0  0  0  0  0
   47.6330   33.0900   47.9750 H   0  0  0  0  0  0  0  0  0  0  0  0
   46.5910   34.0470   46.0520 H   0  0  0  0  0  0  0  0  0  0  0  0
   45.9630   34.2200   41.5940 O   0  0  0  0  0  0  0  0  0  0  0  0
   47.8330   32.4400   41.1520 O   0  0  0  0  0  0  0  0  0  0  0  0
   47.5930   33.9060   41.2540 P   0  0  1  0  0  0  0  0  0  0  0  0
   48.0440   34.5870   39.7720 O   0  0  0  0  0  0  0  0  0  0  0  0
   47.6740   33.7840   38.7000 C   0  0  0  0  0  0  0  0  0  0  0  0
   48.5910   32.7420   38.6390 F   0  0  0  0  0  0  0  0  0  0  0  0
   46.4040   33.2730   38.8460 F   0  0  0  0  0  0  0  0  0  0  0  0
   47.8280   34.5410   37.5540 F   0  0  0  0  0  0  0  0  0  0  0  0
   48.5260   34.5900   42.4680 O   0  0  0  0  0  0  0  0  0  0  0  0
   49.7280   35.2600   42.3120 C   0  0  0  0  0  0  0  0  0  0  0  0
   49.4110   36.3770   41.8660 O   0  0  0  0  0  0  0  0  0  0  0  0
   50.8360   34.4270   42.7150 N   0  0  0  0  0  0  0  0  0  0  0  0
   50.9430   34.2540   43.7510 H   0  0  0  0  0  0  0  0  0  0  0  0
   51.5700   33.9550   42.1170 H   0  0  0  0  0  0  0  0  0  0  0  0
  1  6  1  0  0  0  0
  2  1  2  0  0  0  0
  2  3  1  0  0  0  0
  3  9  1  0  0  0  0
  3  4  2  0  0  0  0
  4  5  1  0  0  0  0
  5  8  1  0  0  0  0
  6  5  2  0  0  0  0
  7  1  1  0  0  0  0
  9 18  1  0  0  0  0
 10 11  1  0  0  0  0
 10  9  2  0  0  0  0
 11 12  2  0  0  0  0
 12 21  1  0  0  0  0
 12 13  1  0  0  0  0
 13 14  1  0  0  0  0
 14 22  1  0  0  0  0
 14 15  2  0  0  0  0
 15 23  1  0  0  0  0
 16 15  1  0  0  0  0
 16 24  1  0  0  0  0
 17 25  1  0  0  0  0
 17 16  2  0  0  0  0
 18 13  2  0  0  0  0
 18 17  1  0  0  0  0
 19 10  1  0  0  0  0
 20 11  1  0  0  0  0
 26  2  1  0  0  0  0
 28 27  2  6  0  0  0
 28 26  1  0  0  0  0
 28 34  1  0  0  0  0
 29 28  1  0  0  0  0
 30 32  1  0  0  0  0
 30 29  1  0  0  0  0
 31 30  1  0  0  0  0
 33 30  1  0  0  0  0
 35 34  1  0  0  0  0
 35 37  1  0  0  0  0
 36 35  2  0  0  0  0
 37 38  1  0  0  0  0
 39 37  1  0  0  0  0
M  END
>  <minimizedAffinity>
-5.85864305

>  <minimizedRMSD>
0.308689922

$$$$
