
 OpenBabel03242520273D

 33 34  0  0  0  0  0  0  0  0999 V2000
   37.2140   30.6820   37.3280 C   0  0  0  0  0  0  0  0  0  0  0  0
   37.1890   30.8240   38.7460 C   0  0  0  0  0  0  0  0  0  0  0  0
   36.4270   29.9210   39.4740 C   0  0  0  0  0  0  0  0  0  0  0  0
   35.7450   28.9510   38.8150 N   0  0  0  0  0  0  0  0  0  0  0  0
   35.7830   28.8370   37.4720 C   0  0  0  0  0  0  0  0  0  0  0  0
   36.5100   29.6930   36.7400 N   0  0  0  0  0  0  0  0  0  0  0  0
   37.7980   31.3700   36.7340 H   0  0  0  0  0  0  0  0  0  0  0  0
   35.1990   28.0230   37.0370 H   0  0  0  0  0  0  0  0  0  0  0  0
   37.9590   31.8880   39.2670 N   0  0  0  0  0  0  0  0  0  0  0  0
   37.3860   33.1690   39.6450 C   0  0  0  0  0  0  0  0  0  0  0  0
   38.4400   34.0300   40.2810 C   0  0  0  0  0  0  0  0  0  0  0  0
   39.6390   34.1320   39.4990 N   0  0  0  0  0  0  0  0  0  0  0  0
   40.1750   32.8910   39.0350 C   0  0  0  0  0  0  0  0  0  0  0  0
   39.3930   31.6770   39.4280 C   0  0  0  0  0  0  0  0  0  0  0  0
   36.5630   33.0480   40.3890 H   0  0  0  0  0  0  0  0  0  0  0  0
   36.9690   33.6520   38.7300 H   0  0  0  0  0  0  0  0  0  0  0  0
   38.6110   33.6360   41.3140 H   0  0  0  0  0  0  0  0  0  0  0  0
   38.0220   35.0570   40.3810 H   0  0  0  0  0  0  0  0  0  0  0  0
   40.3430   34.6420   40.0890 H   0  0  0  0  0  0  0  0  0  0  0  0
   41.2110   32.7430   39.4330 H   0  0  0  0  0  0  0  0  0  0  0  0
   40.2450   32.9430   37.9410 H   0  0  0  0  0  0  0  0  0  0  0  0
   39.5540   31.3630   40.4860 H   0  0  0  0  0  0  0  0  0  0  0  0
   39.7380   30.8270   38.8130 H   0  0  0  0  0  0  0  0  0  0  0  0
   36.4290   30.0920   40.8430 O   0  0  0  0  0  0  0  0  0  0  0  0
   38.7970   28.9670   41.2740 O   0  0  0  0  0  0  0  0  0  0  0  0
   37.3690   29.0110   41.8190 P   0  0  1  0  0  0  0  0  0  0  0  0
   37.3140   29.5560   43.3900 O   0  0  0  0  0  0  0  0  0  0  0  0
   37.2430   30.5390   43.4710 H   0  0  0  0  0  0  0  0  0  0  0  0
   36.6830   27.4820   41.6330 O   0  0  0  0  0  0  0  0  0  0  0  0
   36.9000   26.6630   42.7180 C   0  0  0  0  0  0  0  0  0  0  0  0
   38.1490   26.8180   43.2830 F   0  0  0  0  0  0  0  0  0  0  0  0
   36.6750   25.3330   42.4890 F   0  0  0  0  0  0  0  0  0  0  0  0
   35.9590   27.0610   43.6780 F   0  0  0  0  0  0  0  0  0  0  0  0
  1  2  1  0  0  0  0
  2  9  1  0  0  0  0
  2  3  2  0  0  0  0
  3 24  1  0  0  0  0
  4  3  1  0  0  0  0
  5  4  2  0  0  0  0
  6  1  2  0  0  0  0
  6  5  1  0  0  0  0
  7  1  1  0  0  0  0
  8  5  1  0  0  0  0
  9 14  1  0  0  0  0
  9 10  1  0  0  0  0
 10 11  1  0  0  0  0
 10 15  1  0  0  0  0
 11 18  1  0  0  0  0
 11 17  1  0  0  0  0
 12 19  1  0  0  0  0
 12 11  1  0  0  0  0
 13 14  1  0  0  0  0
 13 20  1  0  0  0  0
 13 12  1  0  0  0  0
 14 22  1  0  0  0  0
 16 10  1  0  0  0  0
 21 13  1  0  0  0  0
 23 14  1  0  0  0  0
 24 26  1  0  0  0  0
 26 25  2  6  0  0  0
 26 27  1  0  0  0  0
 27 28  1  0  0  0  0
 29 26  1  0  0  0  0
 29 30  1  0  0  0  0
 30 31  1  0  0  0  0
 30 33  1  0  0  0  0
 32 30  1  0  0  0  0
M  END
>  <minimizedAffinity>
-5.35752773

$$$$

 OpenBabel03242520273D

 33 34  0  0  0  0  0  0  0  0999 V2000
   36.7740   30.2140   37.5030 C   0  0  0  0  0  0  0  0  0  0  0  0
   36.9870   30.4990   38.8830 C   0  0  0  0  0  0  0  0  0  0  0  0
   36.1880   29.8450   39.8110 C   0  0  0  0  0  0  0  0  0  0  0  0
   35.2470   28.9710   39.3720 N   0  0  0  0  0  0  0  0  0  0  0  0
   35.0630   28.7180   38.0600 C   0  0  0  0  0  0  0  0  0  0  0  0
   35.8180   29.3330   37.1400 N   0  0  0  0  0  0  0  0  0  0  0  0
   37.3800   30.7080   36.7570 H   0  0  0  0  0  0  0  0  0  0  0  0
   34.2800   27.9990   37.8100 H   0  0  0  0  0  0  0  0  0  0  0  0
   38.0090   31.4330   39.1630 N   0  0  0  0  0  0  0  0  0  0  0  0
   37.7520   32.7370   39.7490 C   0  0  0  0  0  0  0  0  0  0  0  0
   39.0520   33.4310   40.0390 C   0  0  0  0  0  0  0  0  0  0  0  0
   39.9450   33.4590   38.9160 N   0  0  0  0  0  0  0  0  0  0  0  0
   40.1450   32.2040   38.2610 C   0  0  0  0  0  0  0  0  0  0  0  0
   39.3830   31.0570   38.8450 C   0  0  0  0  0  0  0  0  0  0  0  0
   37.1980   32.6530   40.7140 H   0  0  0  0  0  0  0  0  0  0  0  0
   37.1300   33.3280   39.0340 H   0  0  0  0  0  0  0  0  0  0  0  0
   39.4910   32.9470   40.9470 H   0  0  0  0  0  0  0  0  0  0  0  0
   38.8200   34.4880   40.3030 H   0  0  0  0  0  0  0  0  0  0  0  0
   40.8570   33.8450   39.2630 H   0  0  0  0  0  0  0  0  0  0  0  0
   41.2270   31.9160   38.2980 H   0  0  0  0  0  0  0  0  0  0  0  0
   39.8710   32.3270   37.2060 H   0  0  0  0  0  0  0  0  0  0  0  0
   39.8300   30.6510   39.7830 H   0  0  0  0  0  0  0  0  0  0  0  0
   39.4050   30.2210   38.1230 H   0  0  0  0  0  0  0  0  0  0  0  0
   36.4250   30.1470   41.1360 O   0  0  0  0  0  0  0  0  0  0  0  0
   38.8830   29.3630   41.7730 O   0  0  0  0  0  0  0  0  0  0  0  0
   37.4120   29.0740   42.0750 P   0  0  1  0  0  0  0  0  0  0  0  0
   37.0430   29.3080   43.6800 O   0  0  0  0  0  0  0  0  0  0  0  0
   36.7780   30.2350   43.8990 H   0  0  0  0  0  0  0  0  0  0  0  0
   37.0570   27.5150   41.5430 O   0  0  0  0  0  0  0  0  0  0  0  0
   37.1430   26.5750   42.5460 C   0  0  0  0  0  0  0  0  0  0  0  0
   36.1540   26.6980   43.5010 F   0  0  0  0  0  0  0  0  0  0  0  0
   38.3590   26.5070   43.1680 F   0  0  0  0  0  0  0  0  0  0  0  0
   36.9550   25.3380   41.9140 F   0  0  0  0  0  0  0  0  0  0  0  0
  1  2  1  0  0  0  0
  2  9  1  0  0  0  0
  2  3  2  0  0  0  0
  3 24  1  0  0  0  0
  4  3  1  0  0  0  0
  5  4  2  0  0  0  0
  6  1  2  0  0  0  0
  6  5  1  0  0  0  0
  7  1  1  0  0  0  0
  8  5  1  0  0  0  0
  9 10  1  0  0  0  0
 10 11  1  0  0  0  0
 10 15  1  0  0  0  0
 11 18  1  0  0  0  0
 11 17  1  0  0  0  0
 12 19  1  0  0  0  0
 12 11  1  0  0  0  0
 13 20  1  0  0  0  0
 13 14  1  0  0  0  0
 13 12  1  0  0  0  0
 14  9  1  0  0  0  0
 14 22  1  0  0  0  0
 16 10  1  0  0  0  0
 21 13  1  0  0  0  0
 23 14  1  0  0  0  0
 24 26  1  0  0  0  0
 26 25  2  6  0  0  0
 26 27  1  0  0  0  0
 27 28  1  0  0  0  0
 29 26  1  0  0  0  0
 29 30  1  0  0  0  0
 30 32  1  0  0  0  0
 30 31  1  0  0  0  0
 33 30  1  0  0  0  0
M  END
>  <minimizedAffinity>
-5.17825174

$$$$

 OpenBabel03242520273D

 33 34  0  0  0  0  0  0  0  0999 V2000
   37.6610   31.3990   36.9950 C   0  0  0  0  0  0  0  0  0  0  0  0
   38.0550   31.1940   38.3500 C   0  0  0  0  0  0  0  0  0  0  0  0
   37.7100   29.9910   38.9490 C   0  0  0  0  0  0  0  0  0  0  0  0
   37.0210   29.0690   38.2310 N   0  0  0  0  0  0  0  0  0  0  0  0
   36.6590   29.2850   36.9500 C   0  0  0  0  0  0  0  0  0  0  0  0
   36.9760   30.4370   36.3430 N   0  0  0  0  0  0  0  0  0  0  0  0
   37.9150   32.3260   36.5010 H   0  0  0  0  0  0  0  0  0  0  0  0
   36.1050   28.4810   36.4600 H   0  0  0  0  0  0  0  0  0  0  0  0
   38.7680   32.2580   38.9460 N   0  0  0  0  0  0  0  0  0  0  0  0
   40.2090   32.4060   38.8360 C   0  0  0  0  0  0  0  0  0  0  0  0
   40.6380   33.7010   39.4660 C   0  0  0  0  0  0  0  0  0  0  0  0
   40.1290   33.8830   40.7950 N   0  0  0  0  0  0  0  0  0  0  0  0
   38.7270   33.6530   40.9520 C   0  0  0  0  0  0  0  0  0  0  0  0
   38.0090   33.2480   39.7030 C   0  0  0  0  0  0  0  0  0  0  0  0
   40.5410   32.4290   37.7710 H   0  0  0  0  0  0  0  0  0  0  0  0
   40.6910   31.5340   39.3390 H   0  0  0  0  0  0  0  0  0  0  0  0
   40.3530   34.5220   38.7610 H   0  0  0  0  0  0  0  0  0  0  0  0
   41.7490   33.6920   39.5350 H   0  0  0  0  0  0  0  0  0  0  0  0
   40.3790   34.8610   41.0840 H   0  0  0  0  0  0  0  0  0  0  0  0
   38.2210   34.5810   41.3200 H   0  0  0  0  0  0  0  0  0  0  0  0
   38.5960   32.8790   41.7170 H   0  0  0  0  0  0  0  0  0  0  0  0
   37.8030   34.0950   39.0080 H   0  0  0  0  0  0  0  0  0  0  0  0
   37.0170   32.8520   39.9850 H   0  0  0  0  0  0  0  0  0  0  0  0
   38.1090   29.8310   40.2610 O   0  0  0  0  0  0  0  0  0  0  0  0
   37.5760   29.6130   42.8550 O   0  0  0  0  0  0  0  0  0  0  0  0
   36.8970   29.6350   41.4850 P   0  0  1  0  0  0  0  0  0  0  0  0
   35.8150   30.8900   41.3420 O   0  0  0  0  0  0  0  0  0  0  0  0
   36.2180   31.7330   41.0180 H   0  0  0  0  0  0  0  0  0  0  0  0
   36.1900   28.1280   41.2180 O   0  0  0  0  0  0  0  0  0  0  0  0
   36.9460   27.0880   41.7120 C   0  0  0  0  0  0  0  0  0  0  0  0
   36.6400   26.7580   43.0170 F   0  0  0  0  0  0  0  0  0  0  0  0
   38.2980   27.2550   41.5980 F   0  0  0  0  0  0  0  0  0  0  0  0
   36.6170   25.9800   40.9180 F   0  0  0  0  0  0  0  0  0  0  0  0
  1  2  1  0  0  0  0
  2  9  1  0  0  0  0
  2  3  2  0  0  0  0
  3 24  1  0  0  0  0
  4  3  1  0  0  0  0
  5  4  2  0  0  0  0
  6  5  1  0  0  0  0
  6  1  2  0  0  0  0
  7  1  1  0  0  0  0
  8  5  1  0  0  0  0
  9 14  1  0  0  0  0
 10  9  1  0  0  0  0
 10 16  1  0  0  0  0
 10 11  1  0  0  0  0
 11 18  1  0  0  0  0
 11 12  1  0  0  0  0
 12 13  1  0  0  0  0
 12 19  1  0  0  0  0
 13 20  1  0  0  0  0
 13 21  1  0  0  0  0
 14 23  1  0  0  0  0
 14 13  1  0  0  0  0
 15 10  1  0  0  0  0
 17 11  1  0  0  0  0
 22 14  1  0  0  0  0
 24 26  1  0  0  0  0
 26 25  2  1  0  0  0
 27 26  1  0  0  0  0
 28 27  1  0  0  0  0
 29 26  1  0  0  0  0
 29 30  1  0  0  0  0
 30 31  1  0  0  0  0
 32 30  1  0  0  0  0
 33 30  1  0  0  0  0
M  END
>  <minimizedAffinity>
-5.08740091

$$$$

 OpenBabel03242520273D

 33 34  0  0  0  0  0  0  0  0999 V2000
   41.1810   30.3080   38.7850 C   0  0  0  0  0  0  0  0  0  0  0  0
   39.9600   30.2360   39.5150 C   0  0  0  0  0  0  0  0  0  0  0  0
   39.5580   28.9920   39.9830 C   0  0  0  0  0  0  0  0  0  0  0  0
   40.3340   27.9090   39.7300 N   0  0  0  0  0  0  0  0  0  0  0  0
   41.4870   28.0020   39.0360 C   0  0  0  0  0  0  0  0  0  0  0  0
   41.9020   29.1880   38.5710 N   0  0  0  0  0  0  0  0  0  0  0  0
   41.5210   31.2620   38.4080 H   0  0  0  0  0  0  0  0  0  0  0  0
   42.0390   27.0710   38.8850 H   0  0  0  0  0  0  0  0  0  0  0  0
   39.2780   31.4610   39.6880 N   0  0  0  0  0  0  0  0  0  0  0  0
   39.4480   32.3040   40.8590 C   0  0  0  0  0  0  0  0  0  0  0  0
   38.6890   33.5870   40.6760 C   0  0  0  0  0  0  0  0  0  0  0  0
   37.3210   33.3900   40.2900 N   0  0  0  0  0  0  0  0  0  0  0  0
   37.1170   32.4910   39.1980 C   0  0  0  0  0  0  0  0  0  0  0  0
   38.3640   31.8870   38.6340 C   0  0  0  0  0  0  0  0  0  0  0  0
   40.5190   32.5720   41.0210 H   0  0  0  0  0  0  0  0  0  0  0  0
   39.0840   31.7440   41.7520 H   0  0  0  0  0  0  0  0  0  0  0  0
   39.2710   34.2170   39.9570 H   0  0  0  0  0  0  0  0  0  0  0  0
   38.6830   34.1190   41.6550 H   0  0  0  0  0  0  0  0  0  0  0  0
   36.9290   34.3380   40.0680 H   0  0  0  0  0  0  0  0  0  0  0  0
   36.6100   33.0190   38.3510 H   0  0  0  0  0  0  0  0  0  0  0  0
   36.4460   31.6930   39.5390 H   0  0  0  0  0  0  0  0  0  0  0  0
   38.9380   32.5780   37.9710 H   0  0  0  0  0  0  0  0  0  0  0  0
   38.0780   31.0340   37.9920 H   0  0  0  0  0  0  0  0  0  0  0  0
   38.3700   28.9630   40.6850 O   0  0  0  0  0  0  0  0  0  0  0  0
   39.7930   29.2010   42.9170 O   0  0  0  0  0  0  0  0  0  0  0  0
   38.4210   28.7590   42.4060 P   0  0  1  0  0  0  0  0  0  0  0  0
   37.1860   29.6580   43.0670 O   0  0  0  0  0  0  0  0  0  0  0  0
   36.9720   30.4800   42.5610 H   0  0  0  0  0  0  0  0  0  0  0  0
   38.2540   27.1070   42.6940 O   0  0  0  0  0  0  0  0  0  0  0  0
   36.9490   26.6760   42.6000 C   0  0  0  0  0  0  0  0  0  0  0  0
   36.3140   27.0940   41.4490 F   0  0  0  0  0  0  0  0  0  0  0  0
   36.1650   26.9790   43.6790 F   0  0  0  0  0  0  0  0  0  0  0  0
   37.0230   25.2770   42.5480 F   0  0  0  0  0  0  0  0  0  0  0  0
  1  2  1  0  0  0  0
  2  9  1  0  0  0  0
  2  3  2  0  0  0  0
  3 24  1  0  0  0  0
  4  3  1  0  0  0  0
  5  4  2  0  0  0  0
  6  1  2  0  0  0  0
  6  5  1  0  0  0  0
  7  1  1  0  0  0  0
  8  5  1  0  0  0  0
  9 10  1  0  0  0  0
 10 15  1  0  0  0  0
 10 16  1  0  0  0  0
 11 10  1  0  0  0  0
 11 18  1  0  0  0  0
 12 11  1  0  0  0  0
 13 21  1  0  0  0  0
 13 12  1  0  0  0  0
 14 13  1  0  0  0  0
 14  9  1  0  0  0  0
 17 11  1  0  0  0  0
 19 12  1  0  0  0  0
 20 13  1  0  0  0  0
 22 14  1  0  0  0  0
 23 14  1  0  0  0  0
 24 26  1  0  0  0  0
 26 29  1  0  0  0  0
 26 25  2  1  0  0  0
 26 27  1  0  0  0  0
 28 27  1  0  0  0  0
 30 29  1  0  0  0  0
 30 32  1  0  0  0  0
 31 30  1  0  0  0  0
 33 30  1  0  0  0  0
M  END
>  <minimizedAffinity>
-5.01852894

$$$$

 OpenBabel03242520273D

 33 34  0  0  0  0  0  0  0  0999 V2000
   37.9390   32.0020   38.4380 C   0  0  0  0  0  0  0  0  0  0  0  0
   38.0970   30.6550   38.8740 C   0  0  0  0  0  0  0  0  0  0  0  0
   38.3280   30.4340   40.2250 C   0  0  0  0  0  0  0  0  0  0  0  0
   38.3930   31.4970   41.0660 N   0  0  0  0  0  0  0  0  0  0  0  0
   38.2410   32.7640   40.6300 C   0  0  0  0  0  0  0  0  0  0  0  0
   38.0170   33.0100   39.3320 N   0  0  0  0  0  0  0  0  0  0  0  0
   37.7590   32.2060   37.3920 H   0  0  0  0  0  0  0  0  0  0  0  0
   38.3120   33.5490   41.3850 H   0  0  0  0  0  0  0  0  0  0  0  0
   37.9990   29.6710   37.8660 N   0  0  0  0  0  0  0  0  0  0  0  0
   39.1500   28.9610   37.3360 C   0  0  0  0  0  0  0  0  0  0  0  0
   38.6970   27.8970   36.3780 C   0  0  0  0  0  0  0  0  0  0  0  0
   37.7950   28.3830   35.3730 N   0  0  0  0  0  0  0  0  0  0  0  0
   36.7000   29.1640   35.8590 C   0  0  0  0  0  0  0  0  0  0  0  0
   36.6730   29.3620   37.3410 C   0  0  0  0  0  0  0  0  0  0  0  0
   39.7300   28.4550   38.1440 H   0  0  0  0  0  0  0  0  0  0  0  0
   39.8170   29.7000   36.8310 H   0  0  0  0  0  0  0  0  0  0  0  0
   38.2770   27.0580   36.9890 H   0  0  0  0  0  0  0  0  0  0  0  0
   39.5980   27.5080   35.8530 H   0  0  0  0  0  0  0  0  0  0  0  0
   37.4460   27.5430   34.8480 H   0  0  0  0  0  0  0  0  0  0  0  0
   35.7280   28.6800   35.5860 H   0  0  0  0  0  0  0  0  0  0  0  0
   36.7360   30.1400   35.3600 H   0  0  0  0  0  0  0  0  0  0  0  0
   36.3030   28.4740   37.9070 H   0  0  0  0  0  0  0  0  0  0  0  0
   35.9600   30.1740   37.5710 H   0  0  0  0  0  0  0  0  0  0  0  0
   38.4760   29.1170   40.6080 O   0  0  0  0  0  0  0  0  0  0  0  0
   39.8440   29.0950   42.8860 O   0  0  0  0  0  0  0  0  0  0  0  0
   38.4800   28.7330   42.2980 P   0  0  1  0  0  0  0  0  0  0  0  0
   37.2420   29.5780   43.0200 O   0  0  0  0  0  0  0  0  0  0  0  0
   37.0530   30.4520   42.5980 H   0  0  0  0  0  0  0  0  0  0  0  0
   38.2810   27.0630   42.4080 O   0  0  0  0  0  0  0  0  0  0  0  0
   36.9620   26.6740   42.3340 C   0  0  0  0  0  0  0  0  0  0  0  0
   36.2820   27.2360   41.2720 F   0  0  0  0  0  0  0  0  0  0  0  0
   36.2400   26.8680   43.4790 F   0  0  0  0  0  0  0  0  0  0  0  0
   36.9940   25.2890   42.1180 F   0  0  0  0  0  0  0  0  0  0  0  0
  1  2  2  0  0  0  0
  1  6  1  0  0  0  0
  2  3  1  0  0  0  0
  3 24  1  0  0  0  0
  3  4  2  0  0  0  0
  5  4  1  0  0  0  0
  5  8  1  0  0  0  0
  6  5  2  0  0  0  0
  7  1  1  0  0  0  0
  9  2  1  0  0  0  0
 10  9  1  0  0  0  0
 10 15  1  0  0  0  0
 11 17  1  0  0  0  0
 11 10  1  0  0  0  0
 12 13  1  0  0  0  0
 12 11  1  0  0  0  0
 13 14  1  0  0  0  0
 14 23  1  0  0  0  0
 14  9  1  0  0  0  0
 14 22  1  0  0  0  0
 16 10  1  0  0  0  0
 18 11  1  0  0  0  0
 19 12  1  0  0  0  0
 20 13  1  0  0  0  0
 21 13  1  0  0  0  0
 24 26  1  0  0  0  0
 26 29  1  0  0  0  0
 26 25  2  1  0  0  0
 26 27  1  0  0  0  0
 28 27  1  0  0  0  0
 30 29  1  0  0  0  0
 30 32  1  0  0  0  0
 31 30  1  0  0  0  0
 33 30  1  0  0  0  0
M  END
>  <minimizedAffinity>
-5.0101099

$$$$

 OpenBabel03242520273D

 33 34  0  0  0  0  0  0  0  0999 V2000
   38.5230   31.4830   38.1230 C   0  0  0  0  0  0  0  0  0  0  0  0
   39.0150   30.7240   39.2240 C   0  0  0  0  0  0  0  0  0  0  0  0
   38.2080   29.7110   39.7250 C   0  0  0  0  0  0  0  0  0  0  0  0
   36.9980   29.4880   39.1530 N   0  0  0  0  0  0  0  0  0  0  0  0
   36.5530   30.2200   38.1110 C   0  0  0  0  0  0  0  0  0  0  0  0
   37.3080   31.2040   37.6050 N   0  0  0  0  0  0  0  0  0  0  0  0
   39.1280   32.2780   37.7110 H   0  0  0  0  0  0  0  0  0  0  0  0
   35.5660   29.9620   37.7230 H   0  0  0  0  0  0  0  0  0  0  0  0
   40.2950   31.0900   39.6950 N   0  0  0  0  0  0  0  0  0  0  0  0
   40.5110   32.1580   40.6550 C   0  0  0  0  0  0  0  0  0  0  0  0
   41.9610   32.2080   41.0450 C   0  0  0  0  0  0  0  0  0  0  0  0
   42.8510   32.2430   39.9210 N   0  0  0  0  0  0  0  0  0  0  0  0
   42.6040   31.2600   38.9130 C   0  0  0  0  0  0  0  0  0  0  0  0
   41.4460   30.3530   39.1840 C   0  0  0  0  0  0  0  0  0  0  0  0
   39.9210   31.9970   41.5890 H   0  0  0  0  0  0  0  0  0  0  0  0
   40.1840   33.1190   40.1920 H   0  0  0  0  0  0  0  0  0  0  0  0
   42.1470   31.3490   41.7380 H   0  0  0  0  0  0  0  0  0  0  0  0
   42.1230   33.1450   41.6250 H   0  0  0  0  0  0  0  0  0  0  0  0
   43.8240   32.1470   40.3020 H   0  0  0  0  0  0  0  0  0  0  0  0
   43.5000   30.6000   38.7870 H   0  0  0  0  0  0  0  0  0  0  0  0
   42.4440   31.7840   37.9630 H   0  0  0  0  0  0  0  0  0  0  0  0
   41.6680   29.5500   39.9280 H   0  0  0  0  0  0  0  0  0  0  0  0
   41.1920   29.8240   38.2490 H   0  0  0  0  0  0  0  0  0  0  0  0
   38.7200   29.0000   40.7900 O   0  0  0  0  0  0  0  0  0  0  0  0
   39.0810   30.1700   43.1490 O   0  0  0  0  0  0  0  0  0  0  0  0
   38.0880   29.3010   42.3760 P   0  0  1  0  0  0  0  0  0  0  0  0
   36.6070   30.0400   42.2080 O   0  0  0  0  0  0  0  0  0  0  0  0
   36.5350   30.6170   41.4080 H   0  0  0  0  0  0  0  0  0  0  0  0
   37.9880   27.8030   43.1420 O   0  0  0  0  0  0  0  0  0  0  0  0
   36.9000   27.0630   42.7300 C   0  0  0  0  0  0  0  0  0  0  0  0
   37.1250   25.7020   42.7420 F   0  0  0  0  0  0  0  0  0  0  0  0
   36.3880   27.4220   41.5140 F   0  0  0  0  0  0  0  0  0  0  0  0
   35.8960   27.3250   43.6730 F   0  0  0  0  0  0  0  0  0  0  0  0
  1  2  1  0  0  0  0
  2  9  1  0  0  0  0
  2  3  2  0  0  0  0
  3 24  1  0  0  0  0
  4  3  1  0  0  0  0
  5  4  2  0  0  0  0
  6  5  1  0  0  0  0
  6  1  2  0  0  0  0
  7  1  1  0  0  0  0
  8  5  1  0  0  0  0
  9 10  1  0  0  0  0
 10 11  1  0  0  0  0
 10 15  1  0  0  0  0
 11 18  1  0  0  0  0
 11 17  1  0  0  0  0
 12 19  1  0  0  0  0
 12 11  1  0  0  0  0
 13 14  1  0  0  0  0
 13 12  1  0  0  0  0
 14  9  1  0  0  0  0
 14 22  1  0  0  0  0
 16 10  1  0  0  0  0
 20 13  1  0  0  0  0
 21 13  1  0  0  0  0
 23 14  1  0  0  0  0
 24 26  1  0  0  0  0
 26 29  1  0  0  0  0
 26 25  2  1  0  0  0
 27 26  1  0  0  0  0
 28 27  1  0  0  0  0
 30 31  1  0  0  0  0
 30 29  1  0  0  0  0
 30 33  1  0  0  0  0
 32 30  1  0  0  0  0
M  END
>  <minimizedAffinity>
-4.6452117

$$$$

 OpenBabel03242520273D

 33 34  0  0  0  0  0  0  0  0999 V2000
   36.7080   30.7300   38.2580 C   0  0  0  0  0  0  0  0  0  0  0  0
   36.2000   29.6700   39.0650 C   0  0  0  0  0  0  0  0  0  0  0  0
   36.1250   29.8780   40.4350 C   0  0  0  0  0  0  0  0  0  0  0  0
   36.5320   31.0670   40.9460 N   0  0  0  0  0  0  0  0  0  0  0  0
   37.0100   32.0550   40.1630 C   0  0  0  0  0  0  0  0  0  0  0  0
   37.0950   31.8860   38.8370 N   0  0  0  0  0  0  0  0  0  0  0  0
   36.7790   30.5990   37.1890 H   0  0  0  0  0  0  0  0  0  0  0  0
   37.3120   32.9730   40.6710 H   0  0  0  0  0  0  0  0  0  0  0  0
   35.8210   28.5010   38.3680 N   0  0  0  0  0  0  0  0  0  0  0  0
   36.7560   27.4440   38.0240 C   0  0  0  0  0  0  0  0  0  0  0  0
   36.0180   26.2910   37.4080 C   0  0  0  0  0  0  0  0  0  0  0  0
   35.1520   26.6790   36.3320 N   0  0  0  0  0  0  0  0  0  0  0  0
   34.2830   27.7790   36.6120 C   0  0  0  0  0  0  0  0  0  0  0  0
   34.4200   28.3610   37.9830 C   0  0  0  0  0  0  0  0  0  0  0  0
   37.2870   27.0550   38.9260 H   0  0  0  0  0  0  0  0  0  0  0  0
   37.5140   27.8610   37.3190 H   0  0  0  0  0  0  0  0  0  0  0  0
   35.4900   25.7540   38.2370 H   0  0  0  0  0  0  0  0  0  0  0  0
   36.7750   25.5910   36.9870 H   0  0  0  0  0  0  0  0  0  0  0  0
   34.5980   25.8280   36.0670 H   0  0  0  0  0  0  0  0  0  0  0  0
   33.2130   27.4640   36.5080 H   0  0  0  0  0  0  0  0  0  0  0  0
   34.4730   28.5570   35.8630 H   0  0  0  0  0  0  0  0  0  0  0  0
   33.9270   27.7550   38.7810 H   0  0  0  0  0  0  0  0  0  0  0  0
   33.9080   29.3390   37.9990 H   0  0  0  0  0  0  0  0  0  0  0  0
   35.6290   28.8280   41.1810 O   0  0  0  0  0  0  0  0  0  0  0  0
   38.0930   28.5600   42.1370 O   0  0  0  0  0  0  0  0  0  0  0  0
   36.7350   27.8590   42.0990 P   0  0  1  0  0  0  0  0  0  0  0  0
   36.0950   27.6490   43.6200 O   0  0  0  0  0  0  0  0  0  0  0  0
   35.5520   28.4140   43.9360 H   0  0  0  0  0  0  0  0  0  0  0  0
   36.9090   26.4090   41.2570 O   0  0  0  0  0  0  0  0  0  0  0  0
   37.4700   25.4100   42.0220 C   0  0  0  0  0  0  0  0  0  0  0  0
   38.3330   25.8800   42.9920 F   0  0  0  0  0  0  0  0  0  0  0  0
   38.0930   24.4220   41.3110 F   0  0  0  0  0  0  0  0  0  0  0  0
   36.3950   24.8010   42.6840 F   0  0  0  0  0  0  0  0  0  0  0  0
  1  6  2  0  0  0  0
  1  2  1  0  0  0  0
  2  3  2  0  0  0  0
  3  4  1  0  0  0  0
  3 24  1  0  0  0  0
  5  8  1  0  0  0  0
  5  4  2  0  0  0  0
  6  5  1  0  0  0  0
  7  1  1  0  0  0  0
  9  2  1  0  0  0  0
 10  9  1  0  0  0  0
 10 15  1  0  0  0  0
 11 10  1  0  0  0  0
 11 17  1  0  0  0  0
 12 13  1  0  0  0  0
 12 11  1  0  0  0  0
 13 14  1  0  0  0  0
 14 23  1  0  0  0  0
 14  9  1  0  0  0  0
 14 22  1  0  0  0  0
 16 10  1  0  0  0  0
 18 11  1  0  0  0  0
 19 12  1  0  0  0  0
 20 13  1  0  0  0  0
 21 13  1  0  0  0  0
 24 26  1  0  0  0  0
 26 25  2  1  0  0  0
 26 27  1  0  0  0  0
 27 28  1  0  0  0  0
 29 30  1  0  0  0  0
 29 26  1  0  0  0  0
 30 33  1  0  0  0  0
 30 31  1  0  0  0  0
 32 30  1  0  0  0  0
M  END
>  <minimizedAffinity>
-4.64190435

$$$$

 OpenBabel03242520273D

 33 34  0  0  0  0  0  0  0  0999 V2000
   36.9680   29.7610   36.5790 C   0  0  0  0  0  0  0  0  0  0  0  0
   37.6840   29.6900   37.8090 C   0  0  0  0  0  0  0  0  0  0  0  0
   36.9860   29.2980   38.9430 C   0  0  0  0  0  0  0  0  0  0  0  0
   35.6660   29.0020   38.8360 N   0  0  0  0  0  0  0  0  0  0  0  0
   35.0090   29.0770   37.6610 C   0  0  0  0  0  0  0  0  0  0  0  0
   35.6550   29.4520   36.5480 N   0  0  0  0  0  0  0  0  0  0  0  0
   37.4840   30.0630   35.6790 H   0  0  0  0  0  0  0  0  0  0  0  0
   33.9480   28.8200   37.6810 H   0  0  0  0  0  0  0  0  0  0  0  0
   39.0530   30.0310   37.7390 N   0  0  0  0  0  0  0  0  0  0  0  0
   39.5240   31.4010   37.6330 C   0  0  0  0  0  0  0  0  0  0  0  0
   41.0240   31.4320   37.7120 C   0  0  0  0  0  0  0  0  0  0  0  0
   41.6600   30.5220   36.8030 N   0  0  0  0  0  0  0  0  0  0  0  0
   41.1530   29.1850   36.8200 C   0  0  0  0  0  0  0  0  0  0  0  0
   40.0290   28.9470   37.7780 C   0  0  0  0  0  0  0  0  0  0  0  0
   39.1350   32.0360   38.4650 H   0  0  0  0  0  0  0  0  0  0  0  0
   39.1620   31.8240   36.6660 H   0  0  0  0  0  0  0  0  0  0  0  0
   41.3030   31.2640   38.7830 H   0  0  0  0  0  0  0  0  0  0  0  0
   41.3560   32.4590   37.4380 H   0  0  0  0  0  0  0  0  0  0  0  0
   42.6840   30.5320   37.0320 H   0  0  0  0  0  0  0  0  0  0  0  0
   41.9650   28.4660   37.1000 H   0  0  0  0  0  0  0  0  0  0  0  0
   40.8270   28.9360   35.8030 H   0  0  0  0  0  0  0  0  0  0  0  0
   40.3560   28.8470   38.8400 H   0  0  0  0  0  0  0  0  0  0  0  0
   39.5550   27.9820   37.5250 H   0  0  0  0  0  0  0  0  0  0  0  0
   37.7140   29.2420   40.1140 O   0  0  0  0  0  0  0  0  0  0  0  0
   37.9580   29.9890   42.6520 O   0  0  0  0  0  0  0  0  0  0  0  0
   36.9130   29.5820   41.6130 P   0  0  1  0  0  0  0  0  0  0  0  0
   35.7990   30.7870   41.3390 O   0  0  0  0  0  0  0  0  0  0  0  0
   36.0670   31.4290   40.6360 H   0  0  0  0  0  0  0  0  0  0  0  0
   36.2030   28.1370   42.1120 O   0  0  0  0  0  0  0  0  0  0  0  0
   37.0270   27.0470   41.9360 C   0  0  0  0  0  0  0  0  0  0  0  0
   38.3540   27.3120   42.2070 F   0  0  0  0  0  0  0  0  0  0  0  0
   36.9320   26.4470   40.7110 F   0  0  0  0  0  0  0  0  0  0  0  0
   36.5940   26.0990   42.8740 F   0  0  0  0  0  0  0  0  0  0  0  0
  1  2  1  0  0  0  0
  2  3  2  0  0  0  0
  3 24  1  0  0  0  0
  4  3  1  0  0  0  0
  5  8  1  0  0  0  0
  5  4  2  0  0  0  0
  6  1  2  0  0  0  0
  6  5  1  0  0  0  0
  7  1  1  0  0  0  0
  9 14  1  0  0  0  0
  9  2  1  0  0  0  0
 10 11  1  0  0  0  0
 10  9  1  0  0  0  0
 10 15  1  0  0  0  0
 11 17  1  0  0  0  0
 12 13  1  0  0  0  0
 12 19  1  0  0  0  0
 12 11  1  0  0  0  0
 13 20  1  0  0  0  0
 13 14  1  0  0  0  0
 14 22  1  0  0  0  0
 16 10  1  0  0  0  0
 18 11  1  0  0  0  0
 21 13  1  0  0  0  0
 23 14  1  0  0  0  0
 24 26  1  0  0  0  0
 26 29  1  0  0  0  0
 26 25  2  1  0  0  0
 27 26  1  0  0  0  0
 28 27  1  0  0  0  0
 30 29  1  0  0  0  0
 30 31  1  0  0  0  0
 30 33  1  0  0  0  0
 32 30  1  0  0  0  0
M  END
>  <minimizedAffinity>
-4.55693674

$$$$

 OpenBabel03242520273D

 33 34  0  0  0  0  0  0  0  0999 V2000
   36.4400   27.9080   37.2570 C   0  0  0  0  0  0  0  0  0  0  0  0
   36.8740   28.9660   38.1090 C   0  0  0  0  0  0  0  0  0  0  0  0
   37.1220   30.2030   37.5300 C   0  0  0  0  0  0  0  0  0  0  0  0
   36.9440   30.3540   36.1930 N   0  0  0  0  0  0  0  0  0  0  0  0
   36.5320   29.3380   35.4080 C   0  0  0  0  0  0  0  0  0  0  0  0
   36.2850   28.1320   35.9360 N   0  0  0  0  0  0  0  0  0  0  0  0
   36.2390   26.9340   37.6780 H   0  0  0  0  0  0  0  0  0  0  0  0
   36.4200   29.5620   34.3440 H   0  0  0  0  0  0  0  0  0  0  0  0
   37.0070   28.6340   39.4750 N   0  0  0  0  0  0  0  0  0  0  0  0
   35.9590   28.8720   40.4530 C   0  0  0  0  0  0  0  0  0  0  0  0
   36.3600   28.2920   41.7800 C   0  0  0  0  0  0  0  0  0  0  0  0
   37.6660   28.7020   42.2090 N   0  0  0  0  0  0  0  0  0  0  0  0
   38.7020   28.5650   41.2340 C   0  0  0  0  0  0  0  0  0  0  0  0
   38.2590   28.0250   39.9110 C   0  0  0  0  0  0  0  0  0  0  0  0
   35.0000   28.3870   40.1550 H   0  0  0  0  0  0  0  0  0  0  0  0
   35.7910   29.9720   40.5290 H   0  0  0  0  0  0  0  0  0  0  0  0
   36.2410   27.1810   41.7050 H   0  0  0  0  0  0  0  0  0  0  0  0
   35.6330   28.6540   42.5410 H   0  0  0  0  0  0  0  0  0  0  0  0
   37.8910   28.1440   43.0690 H   0  0  0  0  0  0  0  0  0  0  0  0
   39.4980   27.8720   41.6080 H   0  0  0  0  0  0  0  0  0  0  0  0
   39.1620   29.5510   41.0910 H   0  0  0  0  0  0  0  0  0  0  0  0
   38.0970   26.9210   39.9080 H   0  0  0  0  0  0  0  0  0  0  0  0
   39.0620   28.2060   39.1750 H   0  0  0  0  0  0  0  0  0  0  0  0
   37.5410   31.2000   38.3860 O   0  0  0  0  0  0  0  0  0  0  0  0
   40.1360   30.7120   38.6890 O   0  0  0  0  0  0  0  0  0  0  0  0
   39.1600   31.8010   38.2410 P   0  0  1  0  0  0  0  0  0  0  0  0
   39.4030   32.2470   36.6560 O   0  0  0  0  0  0  0  0  0  0  0  0
   38.8990   31.7000   36.0040 H   0  0  0  0  0  0  0  0  0  0  0  0
   39.2850   33.0980   39.3110 O   0  0  0  0  0  0  0  0  0  0  0  0
   38.3310   33.0660   40.3040 C   0  0  0  0  0  0  0  0  0  0  0  0
   38.2380   31.8430   40.9360 F   0  0  0  0  0  0  0  0  0  0  0  0
   37.0820   33.4650   39.9150 F   0  0  0  0  0  0  0  0  0  0  0  0
   38.7610   33.9950   41.2620 F   0  0  0  0  0  0  0  0  0  0  0  0
  1  7  1  0  0  0  0
  1  2  1  0  0  0  0
  2  9  1  0  0  0  0
  3  2  2  0  0  0  0
  3 24  1  0  0  0  0
  4  3  1  0  0  0  0
  5  6  1  0  0  0  0
  5  4  2  0  0  0  0
  6  1  2  0  0  0  0
  8  5  1  0  0  0  0
  9 14  1  0  0  0  0
  9 10  1  0  0  0  0
 10 16  1  0  0  0  0
 10 11  1  0  0  0  0
 11 12  1  0  0  0  0
 11 18  1  0  0  0  0
 12 19  1  0  0  0  0
 13 20  1  0  0  0  0
 13 12  1  0  0  0  0
 14 13  1  0  0  0  0
 15 10  1  0  0  0  0
 17 11  1  0  0  0  0
 21 13  1  0  0  0  0
 22 14  1  0  0  0  0
 23 14  1  0  0  0  0
 26 24  1  0  0  0  0
 26 25  2  1  0  0  0
 26 29  1  0  0  0  0
 27 26  1  0  0  0  0
 28 27  1  0  0  0  0
 29 30  1  0  0  0  0
 30 31  1  0  0  0  0
 30 33  1  0  0  0  0
 32 30  1  0  0  0  0
M  END
>  <minimizedAffinity>
-4.55587626

$$$$
