
 OpenBabel03242515113D

 31 32  0  0  0  0  0  0  0  0999 V2000
   37.3390   31.6040   39.8800 C   0  0  0  0  0  0  0  0  0  0  0  0
   37.2180   32.9240   39.5730 C   0  0  0  0  0  0  0  0  0  0  0  0
   38.0810   33.9190   39.9920 C   0  0  0  0  0  0  0  0  0  0  0  0
   39.1450   33.5650   40.7760 C   0  0  0  0  0  0  0  0  0  0  0  0
   39.3040   32.2460   41.1080 C   0  0  0  0  0  0  0  0  0  0  0  0
   38.4190   31.2750   40.6710 C   0  0  0  0  0  0  0  0  0  0  0  0
   36.3630   33.2070   38.9440 H   0  0  0  0  0  0  0  0  0  0  0  0
   37.8620   34.9350   39.6700 H   0  0  0  0  0  0  0  0  0  0  0  0
   39.8040   34.3670   41.0880 H   0  0  0  0  0  0  0  0  0  0  0  0
   40.1650   32.0260   41.7320 H   0  0  0  0  0  0  0  0  0  0  0  0
   35.5690   29.3600   37.5950 C   0  0  0  0  0  0  0  0  0  0  0  0
   34.6390   28.7320   38.4220 C   0  0  0  0  0  0  0  0  0  0  0  0
   34.6200   29.0800   39.7630 C   0  0  0  0  0  0  0  0  0  0  0  0
   35.4940   30.0120   40.2420 N   0  0  0  0  0  0  0  0  0  0  0  0
   36.3980   30.6130   39.4090 C   0  0  0  0  0  0  0  0  0  0  0  0
   36.4100   30.2690   38.1060 N   0  0  0  0  0  0  0  0  0  0  0  0
   35.6880   29.1780   36.5290 H   0  0  0  0  0  0  0  0  0  0  0  0
   34.0250   28.0300   37.9100 H   0  0  0  0  0  0  0  0  0  0  0  0
   33.8920   28.5780   40.3640 H   0  0  0  0  0  0  0  0  0  0  0  0
   38.7260   29.9700   41.1020 N   0  0  0  0  0  0  0  0  0  0  0  0
   39.5500   29.5780   40.5700 H   0  0  0  0  0  0  0  0  0  0  0  0
   38.0380   28.9400   42.2840 S   0  0  0  0  0  0  0  0  0  0  0  0
   39.1330   28.5920   43.2940 O   0  0  0  0  0  0  0  0  0  0  0  0
   39.1970   29.0830   44.1500 H   0  0  0  0  0  0  0  0  0  0  0  0
   36.8940   29.5170   43.0170 O   0  0  0  0  0  0  0  0  0  0  0  0
   36.7390   29.4010   43.9660 H   0  0  0  0  0  0  0  0  0  0  0  0
   37.6860   27.4890   41.5060 O   0  0  0  0  0  0  0  0  0  0  0  0
   37.2580   26.5200   42.3940 C   0  0  0  0  0  0  0  0  0  0  0  0
   38.4120   25.9710   42.9630 F   0  0  0  0  0  0  0  0  0  0  0  0
   36.6650   25.4580   41.7000 F   0  0  0  0  0  0  0  0  0  0  0  0
   36.4780   26.9780   43.4130 F   0  0  0  0  0  0  0  0  0  0  0  0
  1  6  1  0  0  0  0
  2  1  2  0  0  0  0
  2  3  1  0  0  0  0
  3  4  2  0  0  0  0
  4  9  1  0  0  0  0
  4  5  1  0  0  0  0
  5 10  1  0  0  0  0
  6 20  1  0  0  0  0
  6  5  2  0  0  0  0
  7  2  1  0  0  0  0
  8  3  1  0  0  0  0
 11 16  2  0  0  0  0
 11 12  1  0  0  0  0
 12 13  2  0  0  0  0
 13 14  1  0  0  0  0
 13 19  1  0  0  0  0
 15  1  1  0  0  0  0
 15 14  2  0  0  0  0
 16 15  1  0  0  0  0
 17 11  1  0  0  0  0
 18 12  1  0  0  0  0
 20 22  1  0  0  0  0
 21 20  1  0  0  0  0
 22 25  1  0  0  0  0
 22 23  1  0  0  0  0
 23 24  1  0  0  0  0
 25 26  1  0  0  0  0
 27 22  1  0  0  0  0
 27 28  1  0  0  0  0
 28 29  1  0  0  0  0
 28 31  1  0  0  0  0
 30 28  1  0  0  0  0
M  END
>  <minimizedAffinity>
-5.67444849

$$$$

 OpenBabel03242515113D

 31 32  0  0  0  0  0  0  0  0999 V2000
   36.6870   30.5250   39.2910 C   0  0  0  0  0  0  0  0  0  0  0  0
   36.4930   30.3600   37.9540 C   0  0  0  0  0  0  0  0  0  0  0  0
   35.7330   29.3580   37.3800 C   0  0  0  0  0  0  0  0  0  0  0  0
   35.1220   28.4560   38.2060 C   0  0  0  0  0  0  0  0  0  0  0  0
   35.2910   28.5860   39.5590 C   0  0  0  0  0  0  0  0  0  0  0  0
   36.0600   29.6010   40.1010 C   0  0  0  0  0  0  0  0  0  0  0  0
   36.9860   31.0860   37.2920 H   0  0  0  0  0  0  0  0  0  0  0  0
   35.6650   29.3480   36.2940 H   0  0  0  0  0  0  0  0  0  0  0  0
   34.5320   27.6830   37.7260 H   0  0  0  0  0  0  0  0  0  0  0  0
   34.7820   27.8400   40.1630 H   0  0  0  0  0  0  0  0  0  0  0  0
   37.9200   33.9100   39.9300 C   0  0  0  0  0  0  0  0  0  0  0  0
   38.9890   33.7010   40.8000 C   0  0  0  0  0  0  0  0  0  0  0  0
   39.2850   32.3980   41.1660 C   0  0  0  0  0  0  0  0  0  0  0  0
   38.5420   31.3630   40.6790 N   0  0  0  0  0  0  0  0  0  0  0  0
   37.4970   31.5960   39.8270 C   0  0  0  0  0  0  0  0  0  0  0  0
   37.2150   32.8660   39.4760 N   0  0  0  0  0  0  0  0  0  0  0  0
   37.5840   34.8790   39.5670 H   0  0  0  0  0  0  0  0  0  0  0  0
   39.4750   34.6000   41.0950 H   0  0  0  0  0  0  0  0  0  0  0  0
   40.1130   32.2790   41.8340 H   0  0  0  0  0  0  0  0  0  0  0  0
   36.1320   29.5920   41.5070 N   0  0  0  0  0  0  0  0  0  0  0  0
   35.4840   30.3140   41.9240 H   0  0  0  0  0  0  0  0  0  0  0  0
   37.0390   28.6630   42.6220 S   0  0  0  0  0  0  0  0  0  0  0  0
   38.0560   29.5930   43.2860 O   0  0  0  0  0  0  0  0  0  0  0  0
   37.8700   29.9810   44.1760 H   0  0  0  0  0  0  0  0  0  0  0  0
   36.2410   28.0130   43.6800 O   0  0  0  0  0  0  0  0  0  0  0  0
   36.5160   27.9420   44.6060 H   0  0  0  0  0  0  0  0  0  0  0  0
   37.9620   27.5900   41.7090 O   0  0  0  0  0  0  0  0  0  0  0  0
   38.2510   26.4350   42.4110 C   0  0  0  0  0  0  0  0  0  0  0  0
   39.1990   25.7410   41.6520 F   0  0  0  0  0  0  0  0  0  0  0  0
   37.1320   25.5930   42.4370 F   0  0  0  0  0  0  0  0  0  0  0  0
   38.7840   26.6320   43.6490 F   0  0  0  0  0  0  0  0  0  0  0  0
  1 15  1  0  0  0  0
  1  6  1  0  0  0  0
  2  1  2  0  0  0  0
  3  2  1  0  0  0  0
  3  4  2  0  0  0  0
  4  5  1  0  0  0  0
  5  6  2  0  0  0  0
  5 10  1  0  0  0  0
  6 20  1  0  0  0  0
  7  2  1  0  0  0  0
  8  3  1  0  0  0  0
  9  4  1  0  0  0  0
 11 12  1  0  0  0  0
 12 18  1  0  0  0  0
 12 13  2  0  0  0  0
 13 19  1  0  0  0  0
 14 13  1  0  0  0  0
 15 14  2  0  0  0  0
 16 15  1  0  0  0  0
 16 11  2  0  0  0  0
 17 11  1  0  0  0  0
 20 21  1  0  0  0  0
 20 22  1  0  0  0  0
 22 23  1  0  0  0  0
 22 25  1  0  0  0  0
 23 24  1  0  0  0  0
 25 26  1  0  0  0  0
 27 28  1  0  0  0  0
 27 22  1  0  0  0  0
 28 30  1  0  0  0  0
 28 31  1  0  0  0  0
 29 28  1  0  0  0  0
M  END
>  <minimizedAffinity>
-5.6162262

$$$$

 OpenBabel03242515113D

 31 32  0  0  0  0  0  0  0  0999 V2000
   37.3500   28.8490   40.8830 C   0  0  0  0  0  0  0  0  0  0  0  0
   36.7400   27.7880   41.4770 C   0  0  0  0  0  0  0  0  0  0  0  0
   36.7870   27.4990   42.8290 C   0  0  0  0  0  0  0  0  0  0  0  0
   37.4960   28.3360   43.6450 C   0  0  0  0  0  0  0  0  0  0  0  0
   38.1260   29.4170   43.0870 C   0  0  0  0  0  0  0  0  0  0  0  0
   38.0600   29.6760   41.7290 C   0  0  0  0  0  0  0  0  0  0  0  0
   36.1700   27.1160   40.8200 H   0  0  0  0  0  0  0  0  0  0  0  0
   36.2500   26.6150   43.1660 H   0  0  0  0  0  0  0  0  0  0  0  0
   37.5140   28.0840   44.6990 H   0  0  0  0  0  0  0  0  0  0  0  0
   38.6740   30.0440   43.7840 H   0  0  0  0  0  0  0  0  0  0  0  0
   35.9480   29.8070   37.6420 C   0  0  0  0  0  0  0  0  0  0  0  0
   37.0050   29.5850   36.7600 C   0  0  0  0  0  0  0  0  0  0  0  0
   38.1970   29.1080   37.2790 C   0  0  0  0  0  0  0  0  0  0  0  0
   38.3150   28.8660   38.6170 N   0  0  0  0  0  0  0  0  0  0  0  0
   37.2630   29.0920   39.4610 C   0  0  0  0  0  0  0  0  0  0  0  0
   36.1060   29.5570   38.9490 N   0  0  0  0  0  0  0  0  0  0  0  0
   34.9640   30.1790   37.3660 H   0  0  0  0  0  0  0  0  0  0  0  0
   36.7660   29.8170   35.7490 H   0  0  0  0  0  0  0  0  0  0  0  0
   38.9830   28.9500   36.5710 H   0  0  0  0  0  0  0  0  0  0  0  0
   38.7630   30.8250   41.3180 N   0  0  0  0  0  0  0  0  0  0  0  0
   39.8010   30.7070   41.4660 H   0  0  0  0  0  0  0  0  0  0  0  0
   38.2640   32.3200   40.6510 S   0  0  0  0  0  0  0  0  0  0  0  0
   36.7340   32.3420   40.6470 O   0  0  0  0  0  0  0  0  0  0  0  0
   36.2400   32.8070   41.3650 H   0  0  0  0  0  0  0  0  0  0  0  0
   38.7450   33.5130   41.3750 O   0  0  0  0  0  0  0  0  0  0  0  0
   38.2140   34.3080   41.5330 H   0  0  0  0  0  0  0  0  0  0  0  0
   38.7030   32.2870   39.0260 O   0  0  0  0  0  0  0  0  0  0  0  0
   40.0600   32.4850   38.8550 C   0  0  0  0  0  0  0  0  0  0  0  0
   40.2700   33.8650   38.9340 F   0  0  0  0  0  0  0  0  0  0  0  0
   40.4370   32.1420   37.5500 F   0  0  0  0  0  0  0  0  0  0  0  0
   40.8500   31.8970   39.7970 F   0  0  0  0  0  0  0  0  0  0  0  0
  1  2  2  0  0  0  0
  1  6  1  0  0  0  0
  2  3  1  0  0  0  0
  3  8  1  0  0  0  0
  3  4  2  0  0  0  0
  4  9  1  0  0  0  0
  5  4  1  0  0  0  0
  5 10  1  0  0  0  0
  6  5  2  0  0  0  0
  7  2  1  0  0  0  0
 11 16  1  0  0  0  0
 12 13  1  0  0  0  0
 12 11  2  0  0  0  0
 13 14  2  0  0  0  0
 14 15  1  0  0  0  0
 15  1  1  0  0  0  0
 16 15  2  0  0  0  0
 17 11  1  0  0  0  0
 18 12  1  0  0  0  0
 19 13  1  0  0  0  0
 20 21  1  0  0  0  0
 20  6  1  0  0  0  0
 22 20  1  0  0  0  0
 22 25  1  0  0  0  0
 23 22  1  0  0  0  0
 23 24  1  0  0  0  0
 25 26  1  0  0  0  0
 27 22  1  0  0  0  0
 28 29  1  0  0  0  0
 28 27  1  0  0  0  0
 28 31  1  0  0  0  0
 30 28  1  0  0  0  0
M  END
>  <minimizedAffinity>
-5.34506178

$$$$

 OpenBabel03242515113D

 31 32  0  0  0  0  0  0  0  0999 V2000
   36.5700   28.2710   41.1350 C   0  0  0  0  0  0  0  0  0  0  0  0
   36.9810   27.1170   41.7270 C   0  0  0  0  0  0  0  0  0  0  0  0
   37.8010   27.0420   42.8380 C   0  0  0  0  0  0  0  0  0  0  0  0
   38.2400   28.2100   43.3970 C   0  0  0  0  0  0  0  0  0  0  0  0
   37.8490   29.3950   42.8310 C   0  0  0  0  0  0  0  0  0  0  0  0
   37.0280   29.4330   41.7180 C   0  0  0  0  0  0  0  0  0  0  0  0
   36.6270   26.1790   41.2760 H   0  0  0  0  0  0  0  0  0  0  0  0
   38.0490   26.0490   43.2050 H   0  0  0  0  0  0  0  0  0  0  0  0
   38.8800   28.1200   44.2670 H   0  0  0  0  0  0  0  0  0  0  0  0
   38.2300   30.2880   43.3190 H   0  0  0  0  0  0  0  0  0  0  0  0
   35.2370   27.3850   37.8450 C   0  0  0  0  0  0  0  0  0  0  0  0
   34.1310   28.2240   37.7130 C   0  0  0  0  0  0  0  0  0  0  0  0
   33.8440   29.0920   38.7530 C   0  0  0  0  0  0  0  0  0  0  0  0
   34.6330   29.1120   39.8670 N   0  0  0  0  0  0  0  0  0  0  0  0
   35.7120   28.2780   39.9710 C   0  0  0  0  0  0  0  0  0  0  0  0
   35.9840   27.4360   38.9550 N   0  0  0  0  0  0  0  0  0  0  0  0
   35.5690   26.6600   37.1050 H   0  0  0  0  0  0  0  0  0  0  0  0
   33.6130   28.0970   36.7920 H   0  0  0  0  0  0  0  0  0  0  0  0
   32.9890   29.7200   38.6140 H   0  0  0  0  0  0  0  0  0  0  0  0
   36.7220   30.7300   41.2630 N   0  0  0  0  0  0  0  0  0  0  0  0
   35.8680   31.1120   41.7510 H   0  0  0  0  0  0  0  0  0  0  0  0
   37.4520   31.7630   40.1090 S   0  0  0  0  0  0  0  0  0  0  0  0
   37.0000   33.1930   40.4120 O   0  0  0  0  0  0  0  0  0  0  0  0
   37.5840   33.8030   40.9260 H   0  0  0  0  0  0  0  0  0  0  0  0
   38.9270   31.7330   40.0960 O   0  0  0  0  0  0  0  0  0  0  0  0
   39.4890   32.5150   39.9830 H   0  0  0  0  0  0  0  0  0  0  0  0
   36.7510   31.3900   38.6240 O   0  0  0  0  0  0  0  0  0  0  0  0
   37.6310   30.7250   37.7920 C   0  0  0  0  0  0  0  0  0  0  0  0
   36.8550   30.1280   36.7940 F   0  0  0  0  0  0  0  0  0  0  0  0
   38.2220   29.6520   38.4730 F   0  0  0  0  0  0  0  0  0  0  0  0
   38.5500   31.5190   37.1740 F   0  0  0  0  0  0  0  0  0  0  0  0
  1  6  2  0  0  0  0
  1  2  1  0  0  0  0
  2  3  2  0  0  0  0
  3  8  1  0  0  0  0
  3  4  1  0  0  0  0
  4  9  1  0  0  0  0
  5 10  1  0  0  0  0
  5  4  2  0  0  0  0
  6  5  1  0  0  0  0
  7  2  1  0  0  0  0
 11 16  1  0  0  0  0
 12 11  2  0  0  0  0
 12 13  1  0  0  0  0
 13 14  2  0  0  0  0
 14 15  1  0  0  0  0
 15  1  1  0  0  0  0
 16 15  2  0  0  0  0
 17 11  1  0  0  0  0
 18 12  1  0  0  0  0
 19 13  1  0  0  0  0
 20  6  1  0  0  0  0
 20 21  1  0  0  0  0
 22 23  1  0  0  0  0
 22 20  1  0  0  0  0
 23 24  1  0  0  0  0
 25 22  1  0  0  0  0
 26 25  1  0  0  0  0
 27 22  1  0  0  0  0
 28 30  1  0  0  0  0
 28 27  1  0  0  0  0
 29 28  1  0  0  0  0
 31 28  1  0  0  0  0
M  END
>  <minimizedAffinity>
-5.31037712

$$$$

 OpenBabel03242515113D

 31 32  0  0  0  0  0  0  0  0999 V2000
   40.0350   30.2330   41.7240 C   0  0  0  0  0  0  0  0  0  0  0  0
   41.2520   30.6520   42.1650 C   0  0  0  0  0  0  0  0  0  0  0  0
   42.1400   29.8830   42.8930 C   0  0  0  0  0  0  0  0  0  0  0  0
   41.7820   28.6000   43.2020 C   0  0  0  0  0  0  0  0  0  0  0  0
   40.5650   28.1380   42.7770 C   0  0  0  0  0  0  0  0  0  0  0  0
   39.6990   28.9360   42.0500 C   0  0  0  0  0  0  0  0  0  0  0  0
   41.5370   31.6840   41.9150 H   0  0  0  0  0  0  0  0  0  0  0  0
   43.0810   30.3490   43.1800 H   0  0  0  0  0  0  0  0  0  0  0  0
   42.4990   28.0220   43.7740 H   0  0  0  0  0  0  0  0  0  0  0  0
   40.3360   27.1130   43.0540 H   0  0  0  0  0  0  0  0  0  0  0  0
   38.9250   32.7360   39.2960 C   0  0  0  0  0  0  0  0  0  0  0  0
   37.5430   32.7620   39.4740 C   0  0  0  0  0  0  0  0  0  0  0  0
   36.9930   31.9210   40.4270 C   0  0  0  0  0  0  0  0  0  0  0  0
   37.7970   31.0970   41.1610 N   0  0  0  0  0  0  0  0  0  0  0  0
   39.1510   31.0910   40.9660 C   0  0  0  0  0  0  0  0  0  0  0  0
   39.6780   31.9130   40.0370 N   0  0  0  0  0  0  0  0  0  0  0  0
   39.4810   33.3430   38.5840 H   0  0  0  0  0  0  0  0  0  0  0  0
   37.0480   33.4520   38.8330 H   0  0  0  0  0  0  0  0  0  0  0  0
   35.9300   31.9700   40.5340 H   0  0  0  0  0  0  0  0  0  0  0  0
   38.4890   28.3100   41.6920 N   0  0  0  0  0  0  0  0  0  0  0  0
   38.5900   27.7820   40.7830 H   0  0  0  0  0  0  0  0  0  0  0  0
   36.9460   28.2470   42.4310 S   0  0  0  0  0  0  0  0  0  0  0  0
   36.9720   29.1780   43.6450 O   0  0  0  0  0  0  0  0  0  0  0  0
   36.6040   30.0930   43.5800 H   0  0  0  0  0  0  0  0  0  0  0  0
   35.8260   28.6490   41.5590 O   0  0  0  0  0  0  0  0  0  0  0  0
   35.0700   29.1810   41.8500 H   0  0  0  0  0  0  0  0  0  0  0  0
   36.7880   26.6990   43.0730 O   0  0  0  0  0  0  0  0  0  0  0  0
   37.1250   25.7230   42.1540 C   0  0  0  0  0  0  0  0  0  0  0  0
   36.4360   24.5680   42.5360 F   0  0  0  0  0  0  0  0  0  0  0  0
   38.4790   25.3880   42.2830 F   0  0  0  0  0  0  0  0  0  0  0  0
   36.7770   26.0000   40.8670 F   0  0  0  0  0  0  0  0  0  0  0  0
  1  6  2  0  0  0  0
  1  2  1  0  0  0  0
  2  3  2  0  0  0  0
  3  8  1  0  0  0  0
  3  4  1  0  0  0  0
  4  9  1  0  0  0  0
  5 10  1  0  0  0  0
  5  4  2  0  0  0  0
  6  5  1  0  0  0  0
  7  2  1  0  0  0  0
 11 12  2  0  0  0  0
 11 16  1  0  0  0  0
 12 13  1  0  0  0  0
 13 19  1  0  0  0  0
 13 14  2  0  0  0  0
 15 14  1  0  0  0  0
 15  1  1  0  0  0  0
 16 15  2  0  0  0  0
 17 11  1  0  0  0  0
 18 12  1  0  0  0  0
 20  6  1  0  0  0  0
 20 22  1  0  0  0  0
 21 20  1  0  0  0  0
 22 27  1  0  0  0  0
 22 23  1  0  0  0  0
 24 23  1  0  0  0  0
 25 26  1  0  0  0  0
 25 22  1  0  0  0  0
 28 30  1  0  0  0  0
 28 29  1  0  0  0  0
 28 27  1  0  0  0  0
 31 28  1  0  0  0  0
M  END
>  <minimizedAffinity>
-5.30864573

$$$$

 OpenBabel03242515113D

 31 32  0  0  0  0  0  0  0  0999 V2000
   36.4700   30.0120   39.0280 C   0  0  0  0  0  0  0  0  0  0  0  0
   36.9230   30.9950   38.2040 C   0  0  0  0  0  0  0  0  0  0  0  0
   37.4100   32.2200   38.6220 C   0  0  0  0  0  0  0  0  0  0  0  0
   37.4460   32.4780   39.9650 C   0  0  0  0  0  0  0  0  0  0  0  0
   36.9990   31.5140   40.8290 C   0  0  0  0  0  0  0  0  0  0  0  0
   36.5160   30.2980   40.3760 C   0  0  0  0  0  0  0  0  0  0  0  0
   36.8930   30.7860   37.1260 H   0  0  0  0  0  0  0  0  0  0  0  0
   37.7400   32.9120   37.8500 H   0  0  0  0  0  0  0  0  0  0  0  0
   37.8330   33.4460   40.2610 H   0  0  0  0  0  0  0  0  0  0  0  0
   37.0510   31.7770   41.8820 H   0  0  0  0  0  0  0  0  0  0  0  0
   36.2460   26.4180   38.3830 C   0  0  0  0  0  0  0  0  0  0  0  0
   35.0930   26.3050   37.6070 C   0  0  0  0  0  0  0  0  0  0  0  0
   34.3940   27.4620   37.3060 C   0  0  0  0  0  0  0  0  0  0  0  0
   34.8360   28.6690   37.7650 N   0  0  0  0  0  0  0  0  0  0  0  0
   35.9710   28.7520   38.5250 C   0  0  0  0  0  0  0  0  0  0  0  0
   36.6450   27.6220   38.8130 N   0  0  0  0  0  0  0  0  0  0  0  0
   36.8830   25.5900   38.6890 H   0  0  0  0  0  0  0  0  0  0  0  0
   34.8730   25.3030   37.3220 H   0  0  0  0  0  0  0  0  0  0  0  0
   33.5160   27.3340   36.7090 H   0  0  0  0  0  0  0  0  0  0  0  0
   36.0960   29.4210   41.3950 N   0  0  0  0  0  0  0  0  0  0  0  0
   35.0430   29.3570   41.4290 H   0  0  0  0  0  0  0  0  0  0  0  0
   36.9440   28.4770   42.5430 S   0  0  0  0  0  0  0  0  0  0  0  0
   37.7300   29.4320   43.4440 O   0  0  0  0  0  0  0  0  0  0  0  0
   37.3710   29.6940   44.3270 H   0  0  0  0  0  0  0  0  0  0  0  0
   36.0920   27.6260   43.3960 O   0  0  0  0  0  0  0  0  0  0  0  0
   36.2380   27.4810   44.3430 H   0  0  0  0  0  0  0  0  0  0  0  0
   38.1170   27.6240   41.6870 O   0  0  0  0  0  0  0  0  0  0  0  0
   38.5810   26.5330   42.3970 C   0  0  0  0  0  0  0  0  0  0  0  0
   39.7060   26.0660   41.7100 F   0  0  0  0  0  0  0  0  0  0  0  0
   37.6580   25.4820   42.3240 F   0  0  0  0  0  0  0  0  0  0  0  0
   38.9660   26.8010   43.6760 F   0  0  0  0  0  0  0  0  0  0  0  0
  1  6  1  0  0  0  0
  2  3  1  0  0  0  0
  2  1  2  0  0  0  0
  3  4  2  0  0  0  0
  4  9  1  0  0  0  0
  4  5  1  0  0  0  0
  5 10  1  0  0  0  0
  6  5  2  0  0  0  0
  6 20  1  0  0  0  0
  7  2  1  0  0  0  0
  8  3  1  0  0  0  0
 11 17  1  0  0  0  0
 11 16  1  0  0  0  0
 12 11  2  0  0  0  0
 13 12  1  0  0  0  0
 13 14  2  0  0  0  0
 14 15  1  0  0  0  0
 15 16  2  0  0  0  0
 15  1  1  0  0  0  0
 18 12  1  0  0  0  0
 19 13  1  0  0  0  0
 20 21  1  0  0  0  0
 20 22  1  0  0  0  0
 22 25  1  0  0  0  0
 22 23  1  0  0  0  0
 23 24  1  0  0  0  0
 25 26  1  0  0  0  0
 27 28  1  0  0  0  0
 27 22  1  0  0  0  0
 28 31  1  0  0  0  0
 29 28  1  0  0  0  0
 30 28  1  0  0  0  0
M  END
>  <minimizedAffinity>
-5.25676775

$$$$

 OpenBabel03242515113D

 31 32  0  0  0  0  0  0  0  0999 V2000
   36.5600   28.1180   41.1730 C   0  0  0  0  0  0  0  0  0  0  0  0
   36.9810   26.9480   41.7250 C   0  0  0  0  0  0  0  0  0  0  0  0
   37.7500   26.8410   42.8690 C   0  0  0  0  0  0  0  0  0  0  0  0
   38.1240   27.9920   43.5070 C   0  0  0  0  0  0  0  0  0  0  0  0
   37.7200   29.1920   42.9840 C   0  0  0  0  0  0  0  0  0  0  0  0
   36.9500   29.2620   41.8350 C   0  0  0  0  0  0  0  0  0  0  0  0
   36.6800   26.0240   41.2110 H   0  0  0  0  0  0  0  0  0  0  0  0
   38.0150   25.8380   43.1970 H   0  0  0  0  0  0  0  0  0  0  0  0
   38.7260   27.8760   44.4010 H   0  0  0  0  0  0  0  0  0  0  0  0
   38.0480   30.0700   43.5330 H   0  0  0  0  0  0  0  0  0  0  0  0
   35.3760   27.3210   37.8040 C   0  0  0  0  0  0  0  0  0  0  0  0
   34.2820   28.1700   37.6410 C   0  0  0  0  0  0  0  0  0  0  0  0
   33.9520   29.0140   38.6880 C   0  0  0  0  0  0  0  0  0  0  0  0
   34.6880   29.0020   39.8380 N   0  0  0  0  0  0  0  0  0  0  0  0
   35.7570   28.1590   39.9710 C   0  0  0  0  0  0  0  0  0  0  0  0
   36.0720   27.3400   38.9480 N   0  0  0  0  0  0  0  0  0  0  0  0
   35.7390   26.6120   37.0620 H   0  0  0  0  0  0  0  0  0  0  0  0
   33.8070   28.0690   36.6940 H   0  0  0  0  0  0  0  0  0  0  0  0
   33.1070   29.6500   38.5260 H   0  0  0  0  0  0  0  0  0  0  0  0
   36.6230   30.5710   41.4320 N   0  0  0  0  0  0  0  0  0  0  0  0
   35.8030   30.9430   41.9840 H   0  0  0  0  0  0  0  0  0  0  0  0
   37.2820   31.6290   40.2590 S   0  0  0  0  0  0  0  0  0  0  0  0
   36.6020   31.3250   38.9220 O   0  0  0  0  0  0  0  0  0  0  0  0
   35.8490   31.8820   38.6070 H   0  0  0  0  0  0  0  0  0  0  0  0
   37.1100   33.0650   40.5540 O   0  0  0  0  0  0  0  0  0  0  0  0
   36.8940   33.7370   39.8900 H   0  0  0  0  0  0  0  0  0  0  0  0
   38.8870   31.1650   40.0470 O   0  0  0  0  0  0  0  0  0  0  0  0
   39.7500   31.9390   40.8000 C   0  0  0  0  0  0  0  0  0  0  0  0
   40.9920   31.2980   40.7560 F   0  0  0  0  0  0  0  0  0  0  0  0
   39.3780   31.9010   42.1500 F   0  0  0  0  0  0  0  0  0  0  0  0
   39.9290   33.2100   40.3440 F   0  0  0  0  0  0  0  0  0  0  0  0
  1  2  2  0  0  0  0
  1  6  1  0  0  0  0
  2  3  1  0  0  0  0
  3  8  1  0  0  0  0
  3  4  2  0  0  0  0
  4  9  1  0  0  0  0
  5  4  1  0  0  0  0
  5 10  1  0  0  0  0
  6  5  2  0  0  0  0
  7  2  1  0  0  0  0
 11 16  1  0  0  0  0
 12 11  2  0  0  0  0
 12 13  1  0  0  0  0
 13 14  2  0  0  0  0
 14 15  1  0  0  0  0
 15  1  1  0  0  0  0
 16 15  2  0  0  0  0
 17 11  1  0  0  0  0
 18 12  1  0  0  0  0
 19 13  1  0  0  0  0
 20  6  1  0  0  0  0
 20 21  1  0  0  0  0
 22 25  1  0  0  0  0
 22 20  1  0  0  0  0
 23 22  1  0  0  0  0
 24 23  1  0  0  0  0
 26 25  1  0  0  0  0
 27 22  1  0  0  0  0
 27 28  1  0  0  0  0
 28 30  1  0  0  0  0
 29 28  1  0  0  0  0
 31 28  1  0  0  0  0
M  END
>  <minimizedAffinity>
-5.25045061

$$$$

 OpenBabel03242515113D

 31 32  0  0  0  0  0  0  0  0999 V2000
   36.3020   26.9290   38.9910 C   0  0  0  0  0  0  0  0  0  0  0  0
   36.3970   26.5290   37.6940 C   0  0  0  0  0  0  0  0  0  0  0  0
   35.9920   27.2750   36.6020 C   0  0  0  0  0  0  0  0  0  0  0  0
   35.4530   28.5110   36.8270 C   0  0  0  0  0  0  0  0  0  0  0  0
   35.3390   28.9520   38.1190 C   0  0  0  0  0  0  0  0  0  0  0  0
   35.7540   28.1790   39.1900 C   0  0  0  0  0  0  0  0  0  0  0  0
   36.8300   25.5350   37.5150 H   0  0  0  0  0  0  0  0  0  0  0  0
   36.1280   26.8290   35.6190 H   0  0  0  0  0  0  0  0  0  0  0  0
   35.1450   29.0720   35.9520 H   0  0  0  0  0  0  0  0  0  0  0  0
   34.9040   29.9400   38.2350 H   0  0  0  0  0  0  0  0  0  0  0  0
   36.7930   23.9570   41.0680 C   0  0  0  0  0  0  0  0  0  0  0  0
   37.5430   24.4380   42.1400 C   0  0  0  0  0  0  0  0  0  0  0  0
   37.8800   25.7810   42.1490 C   0  0  0  0  0  0  0  0  0  0  0  0
   37.4790   26.5950   41.1290 N   0  0  0  0  0  0  0  0  0  0  0  0
   36.7440   26.0970   40.0890 C   0  0  0  0  0  0  0  0  0  0  0  0
   36.4200   24.7890   40.0870 N   0  0  0  0  0  0  0  0  0  0  0  0
   36.4640   22.9270   40.9410 H   0  0  0  0  0  0  0  0  0  0  0  0
   37.7810   23.6890   42.8580 H   0  0  0  0  0  0  0  0  0  0  0  0
   38.4550   26.1120   42.9880 H   0  0  0  0  0  0  0  0  0  0  0  0
   35.5670   28.7780   40.4500 N   0  0  0  0  0  0  0  0  0  0  0  0
   34.6860   28.4240   40.9110 H   0  0  0  0  0  0  0  0  0  0  0  0
   36.4690   29.9300   41.3380 S   0  0  0  0  0  0  0  0  0  0  0  0
   35.6200   31.1970   41.4570 O   0  0  0  0  0  0  0  0  0  0  0  0
   35.0980   31.3740   42.2780 H   0  0  0  0  0  0  0  0  0  0  0  0
   36.8560   29.5000   42.6960 O   0  0  0  0  0  0  0  0  0  0  0  0
   36.8470   30.0760   43.4750 H   0  0  0  0  0  0  0  0  0  0  0  0
   37.7720   30.3680   40.3670 O   0  0  0  0  0  0  0  0  0  0  0  0
   38.7020   31.1190   41.0610 C   0  0  0  0  0  0  0  0  0  0  0  0
   38.2280   32.4340   41.0570 F   0  0  0  0  0  0  0  0  0  0  0  0
   39.9070   31.1730   40.3490 F   0  0  0  0  0  0  0  0  0  0  0  0
   38.8810   30.7530   42.3610 F   0  0  0  0  0  0  0  0  0  0  0  0
  1  6  1  0  0  0  0
  1 15  1  0  0  0  0
  2  1  2  0  0  0  0
  3  4  2  0  0  0  0
  3  2  1  0  0  0  0
  4  5  1  0  0  0  0
  5 10  1  0  0  0  0
  5  6  2  0  0  0  0
  6 20  1  0  0  0  0
  7  2  1  0  0  0  0
  8  3  1  0  0  0  0
  9  4  1  0  0  0  0
 11 12  1  0  0  0  0
 12 13  2  0  0  0  0
 12 18  1  0  0  0  0
 13 19  1  0  0  0  0
 14 13  1  0  0  0  0
 15 14  2  0  0  0  0
 16 15  1  0  0  0  0
 16 11  2  0  0  0  0
 17 11  1  0  0  0  0
 20 21  1  0  0  0  0
 20 22  1  0  0  0  0
 22 23  1  0  0  0  0
 22 25  1  0  0  0  0
 23 24  1  0  0  0  0
 25 26  1  0  0  0  0
 27 28  1  0  0  0  0
 27 22  1  0  0  0  0
 28 31  1  0  0  0  0
 29 28  1  0  0  0  0
 30 28  1  0  0  0  0
M  END
>  <minimizedAffinity>
-5.15131569

$$$$

 OpenBabel03242515113D

 31 32  0  0  0  0  0  0  0  0999 V2000
   39.0400   29.4190   41.9790 C   0  0  0  0  0  0  0  0  0  0  0  0
   40.0590   28.7280   42.5580 C   0  0  0  0  0  0  0  0  0  0  0  0
   39.9050   27.6420   43.3990 C   0  0  0  0  0  0  0  0  0  0  0  0
   38.6360   27.2150   43.6790 C   0  0  0  0  0  0  0  0  0  0  0  0
   37.5810   27.8830   43.1150 C   0  0  0  0  0  0  0  0  0  0  0  0
   37.7720   28.9690   42.2780 C   0  0  0  0  0  0  0  0  0  0  0  0
   41.0780   29.0720   42.3330 H   0  0  0  0  0  0  0  0  0  0  0  0
   40.8110   27.1850   43.7920 H   0  0  0  0  0  0  0  0  0  0  0  0
   38.5470   26.3610   44.3410 H   0  0  0  0  0  0  0  0  0  0  0  0
   36.5990   27.4990   43.3750 H   0  0  0  0  0  0  0  0  0  0  0  0
   38.9790   32.8540   40.7210 C   0  0  0  0  0  0  0  0  0  0  0  0
   39.6650   32.7620   39.5100 C   0  0  0  0  0  0  0  0  0  0  0  0
   40.1480   31.5220   39.1280 C   0  0  0  0  0  0  0  0  0  0  0  0
   39.9480   30.4320   39.9250 N   0  0  0  0  0  0  0  0  0  0  0  0
   39.2720   30.5500   41.1080 C   0  0  0  0  0  0  0  0  0  0  0  0
   38.8040   31.7600   41.4730 N   0  0  0  0  0  0  0  0  0  0  0  0
   38.5500   33.7640   41.1350 H   0  0  0  0  0  0  0  0  0  0  0  0
   39.7420   33.6920   38.9980 H   0  0  0  0  0  0  0  0  0  0  0  0
   40.6690   31.4930   38.1940 H   0  0  0  0  0  0  0  0  0  0  0  0
   36.5830   29.5400   41.7840 N   0  0  0  0  0  0  0  0  0  0  0  0
   36.1220   30.1460   42.5150 H   0  0  0  0  0  0  0  0  0  0  0  0
   35.7800   29.4400   40.2760 S   0  0  0  0  0  0  0  0  0  0  0  0
   36.2300   28.1460   39.5940 O   0  0  0  0  0  0  0  0  0  0  0  0
   35.6670   27.3350   39.6410 H   0  0  0  0  0  0  0  0  0  0  0  0
   34.3070   29.4360   40.3580 O   0  0  0  0  0  0  0  0  0  0  0  0
   33.7300   28.8840   39.8080 H   0  0  0  0  0  0  0  0  0  0  0  0
   36.4050   30.6760   39.3190 O   0  0  0  0  0  0  0  0  0  0  0  0
   36.7000   30.2380   38.0410 C   0  0  0  0  0  0  0  0  0  0  0  0
   37.0810   31.3720   37.3160 F   0  0  0  0  0  0  0  0  0  0  0  0
   35.5370   29.7850   37.4060 F   0  0  0  0  0  0  0  0  0  0  0  0
   37.7210   29.3400   37.9620 F   0  0  0  0  0  0  0  0  0  0  0  0
  1  6  2  0  0  0  0
  1  2  1  0  0  0  0
  2  3  2  0  0  0  0
  3  4  1  0  0  0  0
  3  8  1  0  0  0  0
  4  9  1  0  0  0  0
  5 10  1  0  0  0  0
  5  4  2  0  0  0  0
  6  5  1  0  0  0  0
  7  2  1  0  0  0  0
 11 17  1  0  0  0  0
 11 16  1  0  0  0  0
 12 11  2  0  0  0  0
 13 12  1  0  0  0  0
 13 14  2  0  0  0  0
 14 15  1  0  0  0  0
 15 16  2  0  0  0  0
 15  1  1  0  0  0  0
 18 12  1  0  0  0  0
 19 13  1  0  0  0  0
 20  6  1  0  0  0  0
 20 21  1  0  0  0  0
 22 25  1  0  0  0  0
 22 20  1  0  0  0  0
 23 24  1  0  0  0  0
 23 22  1  0  0  0  0
 26 25  1  0  0  0  0
 27 22  1  0  0  0  0
 28 27  1  0  0  0  0
 29 28  1  0  0  0  0
 30 28  1  0  0  0  0
 31 28  1  0  0  0  0
M  END
>  <minimizedAffinity>
-5.14244604

$$$$
