
 OpenBabel03252508063D

 39 41  0  0  0  0  0  0  0  0999 V2000
   45.3150   36.1400   42.7520 C   0  0  0  0  0  0  0  0  0  0  0  0
   45.5080   34.7680   42.7400 C   0  0  0  0  0  0  0  0  0  0  0  0
   45.2420   34.0290   43.8660 C   0  0  0  0  0  0  0  0  0  0  0  0
   44.7840   34.7170   44.9730 N   0  0  0  0  0  0  0  0  0  0  0  0
   44.6010   36.0340   44.9770 C   0  0  0  0  0  0  0  0  0  0  0  0
   44.8710   36.7360   43.8570 N   0  0  0  0  0  0  0  0  0  0  0  0
   45.5270   36.7380   41.8550 H   0  0  0  0  0  0  0  0  0  0  0  0
   44.2400   36.5560   45.8560 H   0  0  0  0  0  0  0  0  0  0  0  0
   45.3870   32.6290   44.0160 C   0  0  0  0  0  0  0  0  0  0  0  0
   44.8670   31.6880   43.1220 C   0  0  0  0  0  0  0  0  0  0  0  0
   44.9460   30.3320   43.2990 C   0  0  0  0  0  0  0  0  0  0  0  0
   45.5690   29.8270   44.4160 C   0  0  0  0  0  0  0  0  0  0  0  0
   46.1050   30.7670   45.3380 C   0  0  0  0  0  0  0  0  0  0  0  0
   46.7240   30.2770   46.4580 C   0  0  0  0  0  0  0  0  0  0  0  0
   47.2660   31.1300   47.3960 C   0  0  0  0  0  0  0  0  0  0  0  0
   47.1810   32.5210   47.1930 C   0  0  0  0  0  0  0  0  0  0  0  0
   46.5360   32.9750   46.0280 C   0  0  0  0  0  0  0  0  0  0  0  0
   46.0050   32.1020   45.1200 C   0  0  0  0  0  0  0  0  0  0  0  0
   44.3690   32.0320   42.2310 H   0  0  0  0  0  0  0  0  0  0  0  0
   44.5340   29.6340   42.5870 H   0  0  0  0  0  0  0  0  0  0  0  0
   45.6680   28.7830   44.6240 H   0  0  0  0  0  0  0  0  0  0  0  0
   46.7860   29.1970   46.6050 H   0  0  0  0  0  0  0  0  0  0  0  0
   47.7450   30.6860   48.2680 H   0  0  0  0  0  0  0  0  0  0  0  0
   47.6290   33.0860   47.9690 H   0  0  0  0  0  0  0  0  0  0  0  0
   46.5930   34.0420   46.0430 H   0  0  0  0  0  0  0  0  0  0  0  0
   45.9610   34.2100   41.5780 O   0  0  0  0  0  0  0  0  0  0  0  0
   47.8560   32.4890   41.0260 O   0  0  0  0  0  0  0  0  0  0  0  0
   47.5930   33.9430   41.2100 P   0  0  1  0  0  0  0  0  0  0  0  0
   48.0210   34.7120   39.7660 O   0  0  0  0  0  0  0  0  0  0  0  0
   47.8320   33.8860   38.6650 C   0  0  0  0  0  0  0  0  0  0  0  0
   47.9980   34.6740   37.5330 F   0  0  0  0  0  0  0  0  0  0  0  0
   48.7270   32.8420   38.6350 F   0  0  0  0  0  0  0  0  0  0  0  0
   46.5130   33.4710   38.6910 F   0  0  0  0  0  0  0  0  0  0  0  0
   48.5240   34.5740   42.4540 O   0  0  0  0  0  0  0  0  0  0  0  0
   49.7240   35.2550   42.3280 C   0  0  0  0  0  0  0  0  0  0  0  0
   49.4050   36.3820   41.9090 O   0  0  0  0  0  0  0  0  0  0  0  0
   50.8330   34.4180   42.7210 N   0  0  0  0  0  0  0  0  0  0  0  0
   50.9300   34.2190   43.7520 H   0  0  0  0  0  0  0  0  0  0  0  0
   51.5760   33.9670   42.1180 H   0  0  0  0  0  0  0  0  0  0  0  0
  1  6  1  0  0  0  0
  2  1  2  0  0  0  0
  2  3  1  0  0  0  0
  3  9  1  0  0  0  0
  3  4  2  0  0  0  0
  4  5  1  0  0  0  0
  5  8  1  0  0  0  0
  6  5  2  0  0  0  0
  7  1  1  0  0  0  0
  9 18  1  0  0  0  0
 10 11  1  0  0  0  0
 10  9  2  0  0  0  0
 11 12  2  0  0  0  0
 12 21  1  0  0  0  0
 12 13  1  0  0  0  0
 13 14  1  0  0  0  0
 14 22  1  0  0  0  0
 14 15  2  0  0  0  0
 15 23  1  0  0  0  0
 16 15  1  0  0  0  0
 16 24  1  0  0  0  0
 17 25  1  0  0  0  0
 17 16  2  0  0  0  0
 18 13  2  0  0  0  0
 18 17  1  0  0  0  0
 19 10  1  0  0  0  0
 20 11  1  0  0  0  0
 26  2  1  0  0  0  0
 28 27  2  6  0  0  0
 28 26  1  0  0  0  0
 28 34  1  0  0  0  0
 29 28  1  0  0  0  0
 30 33  1  0  0  0  0
 30 29  1  0  0  0  0
 31 30  1  0  0  0  0
 32 30  1  0  0  0  0
 35 34  1  0  0  0  0
 35 37  1  0  0  0  0
 36 35  2  0  0  0  0
 37 38  1  0  0  0  0
 39 37  1  0  0  0  0
M  END
>  <minimizedAffinity>
-5.91499901

>  <minimizedRMSD>
0.391359121

$$$$
