
 OpenBabel03252508073D

 39 41  0  0  0  0  0  0  0  0999 V2000
   45.1590   35.6260   43.1610 C   0  0  0  0  0  0  0  0  0  0  0  0
   45.5220   34.2900   43.2110 C   0  0  0  0  0  0  0  0  0  0  0  0
   45.4260   33.5970   44.3920 C   0  0  0  0  0  0  0  0  0  0  0  0
   44.9580   34.2930   45.4900 N   0  0  0  0  0  0  0  0  0  0  0  0
   44.6120   35.5750   45.4360 C   0  0  0  0  0  0  0  0  0  0  0  0
   44.7180   36.2330   44.2610 N   0  0  0  0  0  0  0  0  0  0  0  0
   45.2350   36.1880   42.2200 H   0  0  0  0  0  0  0  0  0  0  0  0
   44.2470   36.1040   46.3080 H   0  0  0  0  0  0  0  0  0  0  0  0
   45.7550   32.2380   44.6080 C   0  0  0  0  0  0  0  0  0  0  0  0
   45.4030   31.2000   43.7390 C   0  0  0  0  0  0  0  0  0  0  0  0
   45.6610   29.8760   43.9770 C   0  0  0  0  0  0  0  0  0  0  0  0
   46.3050   29.5050   45.1350 C   0  0  0  0  0  0  0  0  0  0  0  0
   46.6710   30.5450   46.0320 C   0  0  0  0  0  0  0  0  0  0  0  0
   47.3080   30.1900   47.1920 C   0  0  0  0  0  0  0  0  0  0  0  0
   47.6930   31.1460   48.1080 C   0  0  0  0  0  0  0  0  0  0  0  0
   47.4260   32.5020   47.8420 C   0  0  0  0  0  0  0  0  0  0  0  0
   46.7690   32.8170   46.6390 C   0  0  0  0  0  0  0  0  0  0  0  0
   46.3970   31.8440   45.7520 C   0  0  0  0  0  0  0  0  0  0  0  0
   44.8970   31.4370   42.8180 H   0  0  0  0  0  0  0  0  0  0  0  0
   45.3760   29.1010   43.2840 H   0  0  0  0  0  0  0  0  0  0  0  0
   46.5380   28.4940   45.3910 H   0  0  0  0  0  0  0  0  0  0  0  0
   47.5120   29.1360   47.3870 H   0  0  0  0  0  0  0  0  0  0  0  0
   48.1950   30.8060   49.0140 H   0  0  0  0  0  0  0  0  0  0  0  0
   47.7620   33.1530   48.6070 H   0  0  0  0  0  0  0  0  0  0  0  0
   46.6780   33.8810   46.6080 H   0  0  0  0  0  0  0  0  0  0  0  0
   45.9650   33.7190   42.0510 O   0  0  0  0  0  0  0  0  0  0  0  0
   48.1410   32.3720   41.5000 O   0  0  0  0  0  0  0  0  0  0  0  0
   47.5720   33.7470   41.5160 P   0  0  1  0  0  0  0  0  0  0  0  0
   47.6720   34.3450   39.9360 O   0  0  0  0  0  0  0  0  0  0  0  0
   47.4390   33.3520   38.9920 C   0  0  0  0  0  0  0  0  0  0  0  0
   48.6070   32.6080   38.8880 F   0  0  0  0  0  0  0  0  0  0  0  0
   46.3970   32.5280   39.3500 F   0  0  0  0  0  0  0  0  0  0  0  0
   47.2400   33.9850   37.7790 F   0  0  0  0  0  0  0  0  0  0  0  0
   48.4480   34.7550   42.5300 O   0  0  0  0  0  0  0  0  0  0  0  0
   49.6650   35.3550   42.2530 C   0  0  0  0  0  0  0  0  0  0  0  0
   49.3690   36.4200   41.6830 O   0  0  0  0  0  0  0  0  0  0  0  0
   50.7590   34.5370   42.7200 N   0  0  0  0  0  0  0  0  0  0  0  0
   50.8980   34.4880   43.7650 H   0  0  0  0  0  0  0  0  0  0  0  0
   51.4550   33.9690   42.1600 H   0  0  0  0  0  0  0  0  0  0  0  0
  1  2  2  0  0  0  0
  1  6  1  0  0  0  0
  2  3  1  0  0  0  0
  3  9  1  0  0  0  0
  3  4  2  0  0  0  0
  5  4  1  0  0  0  0
  5  8  1  0  0  0  0
  6  5  2  0  0  0  0
  7  1  1  0  0  0  0
  9 18  1  0  0  0  0
 10 11  1  0  0  0  0
 10  9  2  0  0  0  0
 11 12  2  0  0  0  0
 12 21  1  0  0  0  0
 12 13  1  0  0  0  0
 13 14  1  0  0  0  0
 14 22  1  0  0  0  0
 14 15  2  0  0  0  0
 15 23  1  0  0  0  0
 16 15  1  0  0  0  0
 16 24  1  0  0  0  0
 17 16  2  0  0  0  0
 18 13  2  0  0  0  0
 18 17  1  0  0  0  0
 19 10  1  0  0  0  0
 20 11  1  0  0  0  0
 25 17  1  0  0  0  0
 26  2  1  0  0  0  0
 28 27  2  1  0  0  0
 28 26  1  0  0  0  0
 28 34  1  0  0  0  0
 29 28  1  0  0  0  0
 30 32  1  0  0  0  0
 30 29  1  0  0  0  0
 31 30  1  0  0  0  0
 33 30  1  0  0  0  0
 35 34  1  0  0  0  0
 35 37  1  0  0  0  0
 36 35  2  0  0  0  0
 37 38  1  0  0  0  0
 39 37  1  0  0  0  0
M  END
>  <minimizedAffinity>
-5.90698862

>  <minimizedRMSD>
0.653739691

$$$$
