
 OpenBabel03252502253D

 29 30  0  0  1  0  0  0  0  0999 V2000
   36.7050   28.2560   41.0210 N   0  0  0  0  0  0  0  0  0  0  0  0
   37.0170   26.9510   41.6190 C   0  0  0  0  0  0  0  0  0  0  0  0
   36.7260   27.1680   43.1130 C   0  0  0  0  0  0  0  0  0  0  0  0
   37.7010   28.1500   43.6780 C   0  0  0  0  0  0  0  0  0  0  0  0
   37.9690   29.3260   42.8130 C   0  0  0  0  0  0  0  0  0  0  0  0
   37.0500   29.4910   41.6200 C   0  0  1  0  0  0  0  0  0  0  0  0
   38.0900   26.7280   41.5390 H   0  0  0  0  0  0  0  0  0  0  0  0
   36.3750   26.1540   41.2150 H   0  0  0  0  0  0  0  0  0  0  0  0
   36.8780   26.2040   43.6530 H   0  0  0  0  0  0  0  0  0  0  0  0
   35.6690   27.5160   43.2030 H   0  0  0  0  0  0  0  0  0  0  0  0
   37.3610   28.4270   44.7050 H   0  0  0  0  0  0  0  0  0  0  0  0
   38.6630   27.6120   43.8290 H   0  0  0  0  0  0  0  0  0  0  0  0
   37.8270   30.2410   43.4290 H   0  0  0  0  0  0  0  0  0  0  0  0
   39.0190   29.3620   42.4490 H   0  0  0  0  0  0  0  0  0  0  0  0
   36.1430   30.0470   41.9330 H   0  0  0  0  0  0  0  0  0  0  0  0
   34.1790   28.8620   38.3420 C   0  0  0  0  0  0  0  0  0  0  0  0
   34.7450   28.8600   39.6330 C   0  0  0  0  0  0  0  0  0  0  0  0
   36.0250   28.3040   39.7650 C   0  0  0  0  0  0  0  0  0  0  0  0
   36.6190   27.8080   38.6290 N   0  0  0  0  0  0  0  0  0  0  0  0
   36.0410   27.8320   37.4160 C   0  0  0  0  0  0  0  0  0  0  0  0
   34.8120   28.3640   37.2820 N   0  0  0  0  0  0  0  0  0  0  0  0
   33.1770   29.2950   38.2220 H   0  0  0  0  0  0  0  0  0  0  0  0
   34.2440   29.2620   40.5060 H   0  0  0  0  0  0  0  0  0  0  0  0
   36.6010   27.4120   36.5850 H   0  0  0  0  0  0  0  0  0  0  0  0
   37.7310   30.2930   40.7080 O   0  0  0  0  0  0  0  0  0  0  0  0
   37.2350   31.5430   40.5070 C   0  0  0  0  0  0  0  0  0  0  0  0
   36.0130   31.5980   41.2040 F   0  0  0  0  0  0  0  0  0  0  0  0
   36.8590   31.7320   39.1700 F   0  0  0  0  0  0  0  0  0  0  0  0
   38.0330   32.5380   40.9520 F   0  0  0  0  0  0  0  0  0  0  0  0
  1  2  1  0  0  0  0
  1  6  1  0  0  0  0
  2  3  1  0  0  0  0
  3 10  1  0  0  0  0
  3  9  1  0  0  0  0
  3  4  1  0  0  0  0
  4 12  1  0  0  0  0
  4 11  1  0  0  0  0
  5 13  1  0  0  0  0
  5  4  1  0  0  0  0
  6 15  1  1  0  0  0
  6  5  1  0  0  0  0
  7  2  1  0  0  0  0
  8  2  1  0  0  0  0
 14  5  1  0  0  0  0
 16 17  1  0  0  0  0
 17 18  2  0  0  0  0
 17 23  1  0  0  0  0
 18  1  1  0  0  0  0
 19 18  1  0  0  0  0
 20 19  2  0  0  0  0
 21 20  1  0  0  0  0
 21 16  2  0  0  0  0
 22 16  1  0  0  0  0
 24 20  1  0  0  0  0
 25  6  1  0  0  0  0
 26 25  1  0  0  0  0
 26 29  1  0  0  0  0
 26 27  1  0  0  0  0
 28 26  1  0  0  0  0
M  END
>  <minimizedAffinity>
-4.55595875

$$$$

 OpenBabel03252502253D

 29 30  0  0  1  0  0  0  0  0999 V2000
   38.0040   29.5670   41.6840 N   0  0  0  0  0  0  0  0  0  0  0  0
   38.7730   29.5430   42.9360 C   0  0  0  0  0  0  0  0  0  0  0  0
   38.9470   28.0410   43.2150 C   0  0  0  0  0  0  0  0  0  0  0  0
   37.6160   27.4270   43.5090 C   0  0  0  0  0  0  0  0  0  0  0  0
   36.5160   27.8770   42.6210 C   0  0  0  0  0  0  0  0  0  0  0  0
   36.9330   28.6840   41.4090 C   0  0  1  0  0  0  0  0  0  0  0  0
   38.1820   29.9490   43.7680 H   0  0  0  0  0  0  0  0  0  0  0  0
   39.7530   30.0280   42.8200 H   0  0  0  0  0  0  0  0  0  0  0  0
   39.5760   27.9160   44.1270 H   0  0  0  0  0  0  0  0  0  0  0  0
   39.4380   27.5870   42.3220 H   0  0  0  0  0  0  0  0  0  0  0  0
   37.7410   26.3170   43.5290 H   0  0  0  0  0  0  0  0  0  0  0  0
   37.3470   27.7040   44.5530 H   0  0  0  0  0  0  0  0  0  0  0  0
   36.0110   26.9700   42.2180 H   0  0  0  0  0  0  0  0  0  0  0  0
   35.7300   28.4470   43.1640 H   0  0  0  0  0  0  0  0  0  0  0  0
   37.1900   27.9930   40.5820 H   0  0  0  0  0  0  0  0  0  0  0  0
   39.1870   31.1960   38.5420 C   0  0  0  0  0  0  0  0  0  0  0  0
   38.9180   30.1610   39.4600 C   0  0  0  0  0  0  0  0  0  0  0  0
   38.3340   30.5290   40.6800 C   0  0  0  0  0  0  0  0  0  0  0  0
   38.0740   31.8640   40.8790 N   0  0  0  0  0  0  0  0  0  0  0  0
   38.3480   32.8180   39.9740 C   0  0  0  0  0  0  0  0  0  0  0  0
   38.9090   32.4720   38.8000 N   0  0  0  0  0  0  0  0  0  0  0  0
   39.6450   30.9240   37.5820 H   0  0  0  0  0  0  0  0  0  0  0  0
   39.1380   29.1180   39.2660 H   0  0  0  0  0  0  0  0  0  0  0  0
   38.1010   33.8440   40.2350 H   0  0  0  0  0  0  0  0  0  0  0  0
   35.8080   29.4030   41.0110 O   0  0  0  0  0  0  0  0  0  0  0  0
   35.2160   29.0120   39.8510 C   0  0  0  0  0  0  0  0  0  0  0  0
   35.6000   29.9520   38.8770 F   0  0  0  0  0  0  0  0  0  0  0  0
   33.8230   29.1580   39.9180 F   0  0  0  0  0  0  0  0  0  0  0  0
   35.5740   27.7790   39.4300 F   0  0  0  0  0  0  0  0  0  0  0  0
  1  2  1  0  0  0  0
  2  3  1  0  0  0  0
  2  7  1  0  0  0  0
  3  4  1  0  0  0  0
  3  9  1  0  0  0  0
  4 11  1  0  0  0  0
  4 12  1  0  0  0  0
  5 14  1  0  0  0  0
  5  4  1  0  0  0  0
  6 15  1  6  0  0  0
  6  1  1  0  0  0  0
  6  5  1  0  0  0  0
  8  2  1  0  0  0  0
 10  3  1  0  0  0  0
 13  5  1  0  0  0  0
 16 21  2  0  0  0  0
 16 17  1  0  0  0  0
 17 18  2  0  0  0  0
 18 19  1  0  0  0  0
 18  1  1  0  0  0  0
 20 24  1  0  0  0  0
 20 19  2  0  0  0  0
 21 20  1  0  0  0  0
 22 16  1  0  0  0  0
 23 17  1  0  0  0  0
 25  6  1  0  0  0  0
 26 28  1  0  0  0  0
 26 25  1  0  0  0  0
 27 26  1  0  0  0  0
 29 26  1  0  0  0  0
M  END
>  <minimizedAffinity>
-4.53919458

$$$$

 OpenBabel03252502253D

 29 30  0  0  1  0  0  0  0  0999 V2000
   38.2170   30.6620   40.9560 N   0  0  0  0  0  0  0  0  0  0  0  0
   39.2460   31.7050   40.8410 C   0  0  0  0  0  0  0  0  0  0  0  0
   38.4260   33.0030   40.7710 C   0  0  0  0  0  0  0  0  0  0  0  0
   37.6340   33.0310   39.5030 C   0  0  0  0  0  0  0  0  0  0  0  0
   36.9860   31.7440   39.1490 C   0  0  0  0  0  0  0  0  0  0  0  0
   37.0070   30.6760   40.2230 C   0  0  1  0  0  0  0  0  0  0  0  0
   39.7840   31.6240   39.8860 H   0  0  0  0  0  0  0  0  0  0  0  0
   39.9110   31.7180   41.7160 H   0  0  0  0  0  0  0  0  0  0  0  0
   39.1270   33.8700   40.7410 H   0  0  0  0  0  0  0  0  0  0  0  0
   37.7780   33.0420   41.6800 H   0  0  0  0  0  0  0  0  0  0  0  0
   36.9170   33.8850   39.5590 H   0  0  0  0  0  0  0  0  0  0  0  0
   38.3350   33.2970   38.6810 H   0  0  0  0  0  0  0  0  0  0  0  0
   35.9100   31.9480   38.9500 H   0  0  0  0  0  0  0  0  0  0  0  0
   37.3910   31.3010   38.2120 H   0  0  0  0  0  0  0  0  0  0  0  0
   36.1380   30.8200   40.8960 H   0  0  0  0  0  0  0  0  0  0  0  0
   37.8220   28.0970   43.6370 C   0  0  0  0  0  0  0  0  0  0  0  0
   37.5050   29.2080   42.8290 C   0  0  0  0  0  0  0  0  0  0  0  0
   38.4340   29.5620   41.8420 C   0  0  0  0  0  0  0  0  0  0  0  0
   39.5730   28.7990   41.7430 N   0  0  0  0  0  0  0  0  0  0  0  0
   39.8340   27.7460   42.5370 C   0  0  0  0  0  0  0  0  0  0  0  0
   38.9460   27.4000   43.4870 N   0  0  0  0  0  0  0  0  0  0  0  0
   37.1040   27.8070   44.4150 H   0  0  0  0  0  0  0  0  0  0  0  0
   36.5940   29.7850   42.9380 H   0  0  0  0  0  0  0  0  0  0  0  0
   40.7670   27.2120   42.3720 H   0  0  0  0  0  0  0  0  0  0  0  0
   36.8260   29.4600   39.5700 O   0  0  0  0  0  0  0  0  0  0  0  0
   35.5700   28.9390   39.5890 C   0  0  0  0  0  0  0  0  0  0  0  0
   35.7210   27.5440   39.4880 F   0  0  0  0  0  0  0  0  0  0  0  0
   34.8610   29.2790   38.4280 F   0  0  0  0  0  0  0  0  0  0  0  0
   34.8680   29.2200   40.7090 F   0  0  0  0  0  0  0  0  0  0  0  0
  1 18  1  0  0  0  0
  2  1  1  0  0  0  0
  2  8  1  0  0  0  0
  3  2  1  0  0  0  0
  3 10  1  0  0  0  0
  4 11  1  0  0  0  0
  4  3  1  0  0  0  0
  5  4  1  0  0  0  0
  5  6  1  0  0  0  0
  6 15  1  1  0  0  0
  6  1  1  0  0  0  0
  7  2  1  0  0  0  0
  9  3  1  0  0  0  0
 12  4  1  0  0  0  0
 13  5  1  0  0  0  0
 14  5  1  0  0  0  0
 16 22  1  0  0  0  0
 17 23  1  0  0  0  0
 17 16  2  0  0  0  0
 18 17  1  0  0  0  0
 19 18  2  0  0  0  0
 19 20  1  0  0  0  0
 20 21  2  0  0  0  0
 21 16  1  0  0  0  0
 24 20  1  0  0  0  0
 25 26  1  0  0  0  0
 25  6  1  0  0  0  0
 26 29  1  0  0  0  0
 27 26  1  0  0  0  0
 28 26  1  0  0  0  0
M  END
>  <minimizedAffinity>
-4.43451881

$$$$

 OpenBabel03252502253D

 29 30  0  0  1  0  0  0  0  0999 V2000
   39.8040   28.9630   42.1600 N   0  0  0  0  0  0  0  0  0  0  0  0
   41.1700   29.1190   42.6770 C   0  0  0  0  0  0  0  0  0  0  0  0
   41.7140   27.6810   42.6770 C   0  0  0  0  0  0  0  0  0  0  0  0
   40.9630   26.8590   43.6740 C   0  0  0  0  0  0  0  0  0  0  0  0
   39.4960   27.0790   43.6790 C   0  0  0  0  0  0  0  0  0  0  0  0
   38.9470   27.9000   42.5300 C   0  0  1  0  0  0  0  0  0  0  0  0
   41.1590   29.4490   43.7250 H   0  0  0  0  0  0  0  0  0  0  0  0
   41.7810   29.7600   42.0240 H   0  0  0  0  0  0  0  0  0  0  0  0
   42.7800   27.7010   43.0030 H   0  0  0  0  0  0  0  0  0  0  0  0
   41.6190   27.2840   41.6380 H   0  0  0  0  0  0  0  0  0  0  0  0
   41.2480   25.7890   43.5300 H   0  0  0  0  0  0  0  0  0  0  0  0
   41.3510   27.1260   44.6830 H   0  0  0  0  0  0  0  0  0  0  0  0
   39.0020   26.0850   43.6000 H   0  0  0  0  0  0  0  0  0  0  0  0
   39.1300   27.5270   44.6300 H   0  0  0  0  0  0  0  0  0  0  0  0
   38.7480   27.2310   41.6690 H   0  0  0  0  0  0  0  0  0  0  0  0
   38.4170   30.6210   39.1180 C   0  0  0  0  0  0  0  0  0  0  0  0
   38.9220   29.5860   39.9320 C   0  0  0  0  0  0  0  0  0  0  0  0
   39.2900   29.9280   41.2400 C   0  0  0  0  0  0  0  0  0  0  0  0
   39.1300   31.2390   41.6200 N   0  0  0  0  0  0  0  0  0  0  0  0
   38.6430   32.1940   40.8090 C   0  0  0  0  0  0  0  0  0  0  0  0
   38.2870   31.8730   39.5510 N   0  0  0  0  0  0  0  0  0  0  0  0
   38.1230   30.3690   38.0910 H   0  0  0  0  0  0  0  0  0  0  0  0
   39.0330   28.5620   39.5950 H   0  0  0  0  0  0  0  0  0  0  0  0
   38.5580   33.2000   41.2130 H   0  0  0  0  0  0  0  0  0  0  0  0
   37.7180   28.3990   42.9560 O   0  0  0  0  0  0  0  0  0  0  0  0
   36.6170   27.6820   42.6100 C   0  0  0  0  0  0  0  0  0  0  0  0
   37.0680   26.6490   41.7680 F   0  0  0  0  0  0  0  0  0  0  0  0
   35.7630   28.4280   41.7850 F   0  0  0  0  0  0  0  0  0  0  0  0
   35.9570   27.1340   43.6540 F   0  0  0  0  0  0  0  0  0  0  0  0
  1  6  1  0  0  0  0
  1  2  1  0  0  0  0
  2  3  1  0  0  0  0
  2  7  1  0  0  0  0
  3  9  1  0  0  0  0
  3  4  1  0  0  0  0
  4  5  1  0  0  0  0
  4 12  1  0  0  0  0
  5 14  1  0  0  0  0
  6 15  1  6  0  0  0
  6 25  1  0  0  0  0
  6  5  1  0  0  0  0
  8  2  1  0  0  0  0
 10  3  1  0  0  0  0
 11  4  1  0  0  0  0
 13  5  1  0  0  0  0
 16 21  2  0  0  0  0
 16 17  1  0  0  0  0
 17 18  2  0  0  0  0
 18 19  1  0  0  0  0
 18  1  1  0  0  0  0
 20 24  1  0  0  0  0
 20 19  2  0  0  0  0
 21 20  1  0  0  0  0
 22 16  1  0  0  0  0
 23 17  1  0  0  0  0
 26 25  1  0  0  0  0
 26 29  1  0  0  0  0
 27 26  1  0  0  0  0
 28 26  1  0  0  0  0
M  END
>  <minimizedAffinity>
-4.35816813

$$$$

 OpenBabel03252502253D

 29 30  0  0  1  0  0  0  0  0999 V2000
   37.7720   29.2050   41.3030 N   0  0  0  0  0  0  0  0  0  0  0  0
   36.9500   27.9900   41.2250 C   0  0  0  0  0  0  0  0  0  0  0  0
   36.5520   27.7390   42.6890 C   0  0  0  0  0  0  0  0  0  0  0  0
   37.7660   27.3920   43.4880 C   0  0  0  0  0  0  0  0  0  0  0  0
   38.9610   28.2220   43.1930 C   0  0  0  0  0  0  0  0  0  0  0  0
   38.7200   29.4410   42.3260 C   0  0  1  0  0  0  0  0  0  0  0  0
   37.5520   27.1260   40.9130 H   0  0  0  0  0  0  0  0  0  0  0  0
   36.0550   28.1440   40.6050 H   0  0  0  0  0  0  0  0  0  0  0  0
   35.8680   26.8590   42.7290 H   0  0  0  0  0  0  0  0  0  0  0  0
   36.0440   28.6600   43.0630 H   0  0  0  0  0  0  0  0  0  0  0  0
   37.4850   27.3930   44.5690 H   0  0  0  0  0  0  0  0  0  0  0  0
   38.0230   26.3330   43.2590 H   0  0  0  0  0  0  0  0  0  0  0  0
   39.3500   28.6140   44.1590 H   0  0  0  0  0  0  0  0  0  0  0  0
   39.7930   27.6360   42.7430 H   0  0  0  0  0  0  0  0  0  0  0  0
   38.4070   30.2880   42.9690 H   0  0  0  0  0  0  0  0  0  0  0  0
   37.1040   32.4170   39.5250 C   0  0  0  0  0  0  0  0  0  0  0  0
   37.1940   31.5070   40.5980 C   0  0  0  0  0  0  0  0  0  0  0  0
   37.6300   30.2100   40.2970 C   0  0  0  0  0  0  0  0  0  0  0  0
   37.9320   29.9330   38.9850 N   0  0  0  0  0  0  0  0  0  0  0  0
   37.8310   30.8340   37.9920 C   0  0  0  0  0  0  0  0  0  0  0  0
   37.4130   32.0810   38.2740 N   0  0  0  0  0  0  0  0  0  0  0  0
   36.7640   33.4370   39.7450 H   0  0  0  0  0  0  0  0  0  0  0  0
   36.9470   31.7640   41.6220 H   0  0  0  0  0  0  0  0  0  0  0  0
   38.0960   30.5070   36.9890 H   0  0  0  0  0  0  0  0  0  0  0  0
   39.9520   29.7780   41.7720 O   0  0  0  0  0  0  0  0  0  0  0  0
   40.6080   30.8260   42.3370 C   0  0  0  0  0  0  0  0  0  0  0  0
   39.7260   31.3770   43.2850 F   0  0  0  0  0  0  0  0  0  0  0  0
   40.7920   31.8670   41.4160 F   0  0  0  0  0  0  0  0  0  0  0  0
   41.7610   30.4930   42.9590 F   0  0  0  0  0  0  0  0  0  0  0  0
  1  6  1  0  0  0  0
  2  1  1  0  0  0  0
  2  3  1  0  0  0  0
  3  9  1  0  0  0  0
  3 10  1  0  0  0  0
  3  4  1  0  0  0  0
  4 11  1  0  0  0  0
  5  4  1  0  0  0  0
  5 13  1  0  0  0  0
  6 15  1  1  0  0  0
  6  5  1  0  0  0  0
  7  2  1  0  0  0  0
  8  2  1  0  0  0  0
 12  4  1  0  0  0  0
 14  5  1  0  0  0  0
 16 22  1  0  0  0  0
 16 17  1  0  0  0  0
 17 23  1  0  0  0  0
 18 17  2  0  0  0  0
 18  1  1  0  0  0  0
 19 18  1  0  0  0  0
 20 21  1  0  0  0  0
 20 19  2  0  0  0  0
 21 16  2  0  0  0  0
 24 20  1  0  0  0  0
 25  6  1  0  0  0  0
 25 26  1  0  0  0  0
 26 29  1  0  0  0  0
 26 27  1  0  0  0  0
 28 26  1  0  0  0  0
M  END
>  <minimizedAffinity>
-4.33803368

$$$$

 OpenBabel03252502253D

 29 30  0  0  1  0  0  0  0  0999 V2000
   39.1900   25.6470   41.7720 N   0  0  0  0  0  0  0  0  0  0  0  0
   40.5800   25.1870   41.6450 C   0  0  0  0  0  0  0  0  0  0  0  0
   41.0650   25.1220   43.1020 C   0  0  0  0  0  0  0  0  0  0  0  0
   41.1130   26.5000   43.6790 C   0  0  0  0  0  0  0  0  0  0  0  0
   39.9480   27.3550   43.3400 C   0  0  0  0  0  0  0  0  0  0  0  0
   38.7800   26.6490   42.6820 C   0  0  1  0  0  0  0  0  0  0  0  0
   41.2000   25.9430   41.1430 H   0  0  0  0  0  0  0  0  0  0  0  0
   40.6380   24.1950   41.1750 H   0  0  0  0  0  0  0  0  0  0  0  0
   42.1060   24.7220   43.1160 H   0  0  0  0  0  0  0  0  0  0  0  0
   40.3690   24.4500   43.6590 H   0  0  0  0  0  0  0  0  0  0  0  0
   41.2900   26.4120   44.7780 H   0  0  0  0  0  0  0  0  0  0  0  0
   42.0260   26.9950   43.2790 H   0  0  0  0  0  0  0  0  0  0  0  0
   39.5470   27.7760   44.2890 H   0  0  0  0  0  0  0  0  0  0  0  0
   40.2240   28.2290   42.7100 H   0  0  0  0  0  0  0  0  0  0  0  0
   38.1210   26.2270   43.4670 H   0  0  0  0  0  0  0  0  0  0  0  0
   36.1650   23.8420   40.5410 C   0  0  0  0  0  0  0  0  0  0  0  0
   37.1000   24.3550   41.4620 C   0  0  0  0  0  0  0  0  0  0  0  0
   38.1850   25.0700   40.9360 C   0  0  0  0  0  0  0  0  0  0  0  0
   38.2470   25.2110   39.5700 N   0  0  0  0  0  0  0  0  0  0  0  0
   37.3300   24.7030   38.7280 C   0  0  0  0  0  0  0  0  0  0  0  0
   36.2850   24.0160   39.2260 N   0  0  0  0  0  0  0  0  0  0  0  0
   35.3090   23.2800   40.9370 H   0  0  0  0  0  0  0  0  0  0  0  0
   37.0160   24.2240   42.5350 H   0  0  0  0  0  0  0  0  0  0  0  0
   37.4770   24.8740   37.6640 H   0  0  0  0  0  0  0  0  0  0  0  0
   38.0510   27.6320   42.0180 O   0  0  0  0  0  0  0  0  0  0  0  0
   36.9810   28.1470   42.6790 C   0  0  0  0  0  0  0  0  0  0  0  0
   36.5810   27.1660   43.6060 F   0  0  0  0  0  0  0  0  0  0  0  0
   35.8710   28.2700   41.8320 F   0  0  0  0  0  0  0  0  0  0  0  0
   37.2360   29.2950   43.3450 F   0  0  0  0  0  0  0  0  0  0  0  0
  1  6  1  0  0  0  0
  2  1  1  0  0  0  0
  2  3  1  0  0  0  0
  3  9  1  0  0  0  0
  3 10  1  0  0  0  0
  3  4  1  0  0  0  0
  4 11  1  0  0  0  0
  5  4  1  0  0  0  0
  5 13  1  0  0  0  0
  6  5  1  0  0  0  0
  6 15  1  1  0  0  0
  7  2  1  0  0  0  0
  8  2  1  0  0  0  0
 12  4  1  0  0  0  0
 14  5  1  0  0  0  0
 16 22  1  0  0  0  0
 16 17  1  0  0  0  0
 17 23  1  0  0  0  0
 18 17  2  0  0  0  0
 18  1  1  0  0  0  0
 19 18  1  0  0  0  0
 20 21  1  0  0  0  0
 20 19  2  0  0  0  0
 21 16  2  0  0  0  0
 24 20  1  0  0  0  0
 25 26  1  0  0  0  0
 25  6  1  0  0  0  0
 26 29  1  0  0  0  0
 26 27  1  0  0  0  0
 28 26  1  0  0  0  0
M  END
>  <minimizedAffinity>
-4.33373308

$$$$

 OpenBabel03252502253D

 29 30  0  0  1  0  0  0  0  0999 V2000
   37.8770   30.4720   41.2810 N   0  0  0  0  0  0  0  0  0  0  0  0
   36.4940   30.8050   40.9140 C   0  0  0  0  0  0  0  0  0  0  0  0
   36.6460   31.4890   39.5460 C   0  0  0  0  0  0  0  0  0  0  0  0
   37.3760   32.7830   39.7080 C   0  0  0  0  0  0  0  0  0  0  0  0
   38.5430   32.7250   40.6240 C   0  0  0  0  0  0  0  0  0  0  0  0
   38.9730   31.3390   41.0590 C   0  0  1  0  0  0  0  0  0  0  0  0
   36.0770   31.5590   41.5960 H   0  0  0  0  0  0  0  0  0  0  0  0
   35.8690   29.9040   40.8260 H   0  0  0  0  0  0  0  0  0  0  0  0
   35.6320   31.7300   39.1500 H   0  0  0  0  0  0  0  0  0  0  0  0
   37.1810   30.7780   38.8710 H   0  0  0  0  0  0  0  0  0  0  0  0
   37.6330   33.1690   38.6920 H   0  0  0  0  0  0  0  0  0  0  0  0
   36.6540   33.5210   40.1220 H   0  0  0  0  0  0  0  0  0  0  0  0
   39.4180   33.1550   40.0870 H   0  0  0  0  0  0  0  0  0  0  0  0
   38.4060   33.3480   41.5350 H   0  0  0  0  0  0  0  0  0  0  0  0
   39.6660   30.9190   40.3040 H   0  0  0  0  0  0  0  0  0  0  0  0
   37.9860   27.6150   43.6780 C   0  0  0  0  0  0  0  0  0  0  0  0
   37.6590   28.8900   43.1730 C   0  0  0  0  0  0  0  0  0  0  0  0
   38.1520   29.2150   41.9020 C   0  0  0  0  0  0  0  0  0  0  0  0
   38.9100   28.2680   41.2560 N   0  0  0  0  0  0  0  0  0  0  0  0
   39.1970   27.0620   41.7780 C   0  0  0  0  0  0  0  0  0  0  0  0
   38.7270   26.7430   42.9980 N   0  0  0  0  0  0  0  0  0  0  0  0
   37.6070   27.3450   44.6730 H   0  0  0  0  0  0  0  0  0  0  0  0
   37.0570   29.6100   43.7130 H   0  0  0  0  0  0  0  0  0  0  0  0
   39.8060   26.3890   41.1800 H   0  0  0  0  0  0  0  0  0  0  0  0
   39.6990   31.5060   42.2360 O   0  0  0  0  0  0  0  0  0  0  0  0
   41.0420   31.3170   42.1540 C   0  0  0  0  0  0  0  0  0  0  0  0
   41.5750   32.5000   41.6110 F   0  0  0  0  0  0  0  0  0  0  0  0
   41.3610   30.3430   41.1970 F   0  0  0  0  0  0  0  0  0  0  0  0
   41.6440   31.0740   43.3400 F   0  0  0  0  0  0  0  0  0  0  0  0
  1 18  1  0  0  0  0
  2  1  1  0  0  0  0
  2  7  1  0  0  0  0
  3  4  1  0  0  0  0
  3  2  1  0  0  0  0
  4 12  1  0  0  0  0
  4  5  1  0  0  0  0
  5  6  1  0  0  0  0
  5 14  1  0  0  0  0
  6 15  1  6  0  0  0
  6  1  1  0  0  0  0
  6 25  1  0  0  0  0
  8  2  1  0  0  0  0
  9  3  1  0  0  0  0
 10  3  1  0  0  0  0
 11  4  1  0  0  0  0
 13  5  1  0  0  0  0
 16 22  1  0  0  0  0
 17 16  1  0  0  0  0
 17 23  1  0  0  0  0
 18 17  2  0  0  0  0
 19 20  2  0  0  0  0
 19 18  1  0  0  0  0
 20 21  1  0  0  0  0
 21 16  2  0  0  0  0
 24 20  1  0  0  0  0
 26 25  1  0  0  0  0
 26 29  1  0  0  0  0
 27 26  1  0  0  0  0
 28 26  1  0  0  0  0
M  END
>  <minimizedAffinity>
-4.28027821

$$$$

 OpenBabel03252502253D

 29 30  0  0  1  0  0  0  0  0999 V2000
   38.1610   29.0400   40.9070 N   0  0  0  0  0  0  0  0  0  0  0  0
   38.0190   30.0640   39.8620 C   0  0  0  0  0  0  0  0  0  0  0  0
   36.8280   30.9050   40.3500 C   0  0  0  0  0  0  0  0  0  0  0  0
   35.5830   30.0780   40.3210 C   0  0  0  0  0  0  0  0  0  0  0  0
   35.7480   28.6920   40.8250 C   0  0  0  0  0  0  0  0  0  0  0  0
   37.0610   28.3920   41.5170 C   0  0  1  0  0  0  0  0  0  0  0  0
   37.7130   29.6130   38.9080 H   0  0  0  0  0  0  0  0  0  0  0  0
   38.9210   30.6880   39.7800 H   0  0  0  0  0  0  0  0  0  0  0  0
   36.6760   31.7550   39.6460 H   0  0  0  0  0  0  0  0  0  0  0  0
   37.0730   31.2720   41.3760 H   0  0  0  0  0  0  0  0  0  0  0  0
   34.7760   30.6450   40.8450 H   0  0  0  0  0  0  0  0  0  0  0  0
   35.2510   30.0180   39.2610 H   0  0  0  0  0  0  0  0  0  0  0  0
   34.9590   28.5110   41.5890 H   0  0  0  0  0  0  0  0  0  0  0  0
   35.5890   27.9250   40.0350 H   0  0  0  0  0  0  0  0  0  0  0  0
   36.9810   28.6700   42.5870 H   0  0  0  0  0  0  0  0  0  0  0  0
   41.2560   28.5410   42.9300 C   0  0  0  0  0  0  0  0  0  0  0  0
   39.9550   28.9820   42.6120 C   0  0  0  0  0  0  0  0  0  0  0  0
   39.4680   28.6590   41.3380 C   0  0  0  0  0  0  0  0  0  0  0  0
   40.2970   27.9430   40.5070 N   0  0  0  0  0  0  0  0  0  0  0  0
   41.5330   27.5430   40.8540 C   0  0  0  0  0  0  0  0  0  0  0  0
   42.0070   27.8490   42.0760 N   0  0  0  0  0  0  0  0  0  0  0  0
   41.6520   28.7860   43.9240 H   0  0  0  0  0  0  0  0  0  0  0  0
   39.3310   29.5450   43.2960 H   0  0  0  0  0  0  0  0  0  0  0  0
   42.1030   26.9810   40.1180 H   0  0  0  0  0  0  0  0  0  0  0  0
   37.2270   27.0100   41.4620 O   0  0  0  0  0  0  0  0  0  0  0  0
   37.0560   26.3300   42.6270 C   0  0  0  0  0  0  0  0  0  0  0  0
   38.3430   26.1290   43.1580 F   0  0  0  0  0  0  0  0  0  0  0  0
   36.5900   25.0290   42.3910 F   0  0  0  0  0  0  0  0  0  0  0  0
   36.3030   26.9760   43.5440 F   0  0  0  0  0  0  0  0  0  0  0  0
  1 18  1  0  0  0  0
  1  6  1  0  0  0  0
  2  3  1  0  0  0  0
  2  1  1  0  0  0  0
  3 10  1  0  0  0  0
  4  3  1  0  0  0  0
  4  5  1  0  0  0  0
  4 11  1  0  0  0  0
  5  6  1  0  0  0  0
  5 13  1  0  0  0  0
  6 15  1  1  0  0  0
  7  2  1  0  0  0  0
  8  2  1  0  0  0  0
  9  3  1  0  0  0  0
 12  4  1  0  0  0  0
 14  5  1  0  0  0  0
 16 22  1  0  0  0  0
 17 16  1  0  0  0  0
 17 23  1  0  0  0  0
 18 17  2  0  0  0  0
 19 20  2  0  0  0  0
 19 18  1  0  0  0  0
 20 21  1  0  0  0  0
 21 16  2  0  0  0  0
 24 20  1  0  0  0  0
 25  6  1  0  0  0  0
 25 26  1  0  0  0  0
 26 27  1  0  0  0  0
 26 29  1  0  0  0  0
 28 26  1  0  0  0  0
M  END
>  <minimizedAffinity>
-4.26115179

$$$$

 OpenBabel03252502253D

 29 30  0  0  1  0  0  0  0  0999 V2000
   37.0550   26.5720   40.0560 N   0  0  0  0  0  0  0  0  0  0  0  0
   37.2600   25.3050   39.3420 C   0  0  0  0  0  0  0  0  0  0  0  0
   36.3880   24.3110   40.1260 C   0  0  0  0  0  0  0  0  0  0  0  0
   36.9440   24.1300   41.5020 C   0  0  0  0  0  0  0  0  0  0  0  0
   37.3870   25.3840   42.1610 C   0  0  0  0  0  0  0  0  0  0  0  0
   36.9920   26.6710   41.4660 C   0  0  1  0  0  0  0  0  0  0  0  0
   38.2980   24.9580   39.4450 H   0  0  0  0  0  0  0  0  0  0  0  0
   36.9240   25.3680   38.2960 H   0  0  0  0  0  0  0  0  0  0  0  0
   36.4300   23.3180   39.6200 H   0  0  0  0  0  0  0  0  0  0  0  0
   35.3460   24.7130   40.1360 H   0  0  0  0  0  0  0  0  0  0  0  0
   36.2020   23.5540   42.1050 H   0  0  0  0  0  0  0  0  0  0  0  0
   37.8280   23.4590   41.4160 H   0  0  0  0  0  0  0  0  0  0  0  0
   36.9110   25.4270   43.1660 H   0  0  0  0  0  0  0  0  0  0  0  0
   38.4850   25.4100   42.3420 H   0  0  0  0  0  0  0  0  0  0  0  0
   35.9780   26.9670   41.7990 H   0  0  0  0  0  0  0  0  0  0  0  0
   35.6890   29.6660   38.4790 C   0  0  0  0  0  0  0  0  0  0  0  0
   35.7020   28.4780   39.2380 C   0  0  0  0  0  0  0  0  0  0  0  0
   36.9160   27.7810   39.3080 C   0  0  0  0  0  0  0  0  0  0  0  0
   37.9890   28.3110   38.6320 N   0  0  0  0  0  0  0  0  0  0  0  0
   37.9310   29.4490   37.9190 C   0  0  0  0  0  0  0  0  0  0  0  0
   36.7680   30.1240   37.8480 N   0  0  0  0  0  0  0  0  0  0  0  0
   34.7460   30.2230   38.4150 H   0  0  0  0  0  0  0  0  0  0  0  0
   34.8330   28.0920   39.7580 H   0  0  0  0  0  0  0  0  0  0  0  0
   38.8410   29.7790   37.4240 H   0  0  0  0  0  0  0  0  0  0  0  0
   37.8760   27.6480   41.9190 O   0  0  0  0  0  0  0  0  0  0  0  0
   37.4090   28.4940   42.8750 C   0  0  0  0  0  0  0  0  0  0  0  0
   36.8530   29.5910   42.1920 F   0  0  0  0  0  0  0  0  0  0  0  0
   38.4600   29.0620   43.6090 F   0  0  0  0  0  0  0  0  0  0  0  0
   36.4640   27.9600   43.6800 F   0  0  0  0  0  0  0  0  0  0  0  0
  1  6  1  0  0  0  0
  2  7  1  0  0  0  0
  2  1  1  0  0  0  0
  2  3  1  0  0  0  0
  3 10  1  0  0  0  0
  3  4  1  0  0  0  0
  4 11  1  0  0  0  0
  4  5  1  0  0  0  0
  5 14  1  0  0  0  0
  5 13  1  0  0  0  0
  6 15  1  1  0  0  0
  6 25  1  0  0  0  0
  6  5  1  0  0  0  0
  8  2  1  0  0  0  0
  9  3  1  0  0  0  0
 12  4  1  0  0  0  0
 16 17  1  0  0  0  0
 17 18  2  0  0  0  0
 17 23  1  0  0  0  0
 18  1  1  0  0  0  0
 19 18  1  0  0  0  0
 20 19  2  0  0  0  0
 21 20  1  0  0  0  0
 21 16  2  0  0  0  0
 22 16  1  0  0  0  0
 24 20  1  0  0  0  0
 25 26  1  0  0  0  0
 26 28  1  0  0  0  0
 26 29  1  0  0  0  0
 27 26  1  0  0  0  0
M  END
>  <minimizedAffinity>
-4.25946951

$$$$
