
 OpenBabel03252504473D

 22 22  0  0  0  0  0  0  0  0999 V2000
   39.7270   27.8340   42.9250 C   0  0  0  0  0  0  0  0  0  0  0  0
   38.6420   27.3800   43.6790 C   0  0  0  0  0  0  0  0  0  0  0  0
   37.3740   27.8790   43.3210 C   0  0  0  0  0  0  0  0  0  0  0  0
   37.2760   28.7440   42.2960 N   0  0  0  0  0  0  0  0  0  0  0  0
   38.3700   29.1490   41.5980 C   0  0  0  0  0  0  0  0  0  0  0  0
   39.6130   28.6830   41.9220 N   0  0  0  0  0  0  0  0  0  0  0  0
   38.7560   26.6930   44.4870 H   0  0  0  0  0  0  0  0  0  0  0  0
   36.5130   27.5370   43.8970 H   0  0  0  0  0  0  0  0  0  0  0  0
   41.0770   27.3080   43.3010 C   0  0  0  0  0  0  0  0  0  0  0  0
   41.5330   26.7960   42.4060 H   0  0  0  0  0  0  0  0  0  0  0  0
   41.7090   28.2150   43.4800 H   0  0  0  0  0  0  0  0  0  0  0  0
   41.0650   26.6990   44.2040 H   0  0  0  0  0  0  0  0  0  0  0  0
   38.1150   30.0400   40.5720 O   0  0  0  0  0  0  0  0  0  0  0  0
   35.9050   29.4100   39.4090 O   0  0  0  0  0  0  0  0  0  0  0  0
   36.5890   30.5910   40.1150 P   0  0  1  0  0  0  0  0  0  0  0  0
   35.6080   31.0100   41.4250 O   0  0  0  0  0  0  0  0  0  0  0  0
   36.1570   31.0120   42.2510 H   0  0  0  0  0  0  0  0  0  0  0  0
   36.7270   31.9170   39.0910 O   0  0  0  0  0  0  0  0  0  0  0  0
   37.6690   32.8060   39.6470 C   0  0  0  0  0  0  0  0  0  0  0  0
   38.9000   32.7170   39.0510 F   0  0  0  0  0  0  0  0  0  0  0  0
   37.2540   34.1190   39.4890 F   0  0  0  0  0  0  0  0  0  0  0  0
   37.8370   32.6110   41.0030 F   0  0  0  0  0  0  0  0  0  0  0  0
  1  9  1  0  0  0  0
  1  2  1  0  0  0  0
  2  7  1  0  0  0  0
  3  2  2  0  0  0  0
  3  8  1  0  0  0  0
  4  3  1  0  0  0  0
  5  6  1  0  0  0  0
  5  4  2  0  0  0  0
  6  1  2  0  0  0  0
  9 11  1  0  0  0  0
  9 12  1  0  0  0  0
 10  9  1  0  0  0  0
 13  5  1  0  0  0  0
 15 14  2  6  0  0  0
 15 13  1  0  0  0  0
 15 16  1  0  0  0  0
 16 17  1  0  0  0  0
 18 19  1  0  0  0  0
 18 15  1  0  0  0  0
 19 22  1  0  0  0  0
 20 19  1  0  0  0  0
 21 19  1  0  0  0  0
M  END
>  <minimizedAffinity>
-4.60745478

$$$$

 OpenBabel03252504473D

 22 22  0  0  0  0  0  0  0  0999 V2000
   37.3920   26.8450   42.2820 C   0  0  0  0  0  0  0  0  0  0  0  0
   37.4110   27.4010   43.5640 C   0  0  0  0  0  0  0  0  0  0  0  0
   37.6430   28.7890   43.6440 C   0  0  0  0  0  0  0  0  0  0  0  0
   37.8290   29.4890   42.5110 N   0  0  0  0  0  0  0  0  0  0  0  0
   37.7970   28.8900   41.2910 C   0  0  0  0  0  0  0  0  0  0  0  0
   37.5750   27.5470   41.1810 N   0  0  0  0  0  0  0  0  0  0  0  0
   37.2610   26.8160   44.4430 H   0  0  0  0  0  0  0  0  0  0  0  0
   37.6620   29.2430   44.6360 H   0  0  0  0  0  0  0  0  0  0  0  0
   37.1470   25.3710   42.1910 C   0  0  0  0  0  0  0  0  0  0  0  0
   36.2350   25.1910   41.5510 H   0  0  0  0  0  0  0  0  0  0  0  0
   38.0090   24.9630   41.6040 H   0  0  0  0  0  0  0  0  0  0  0  0
   37.1130   24.8800   43.1620 H   0  0  0  0  0  0  0  0  0  0  0  0
   38.0040   29.7360   40.2170 O   0  0  0  0  0  0  0  0  0  0  0  0
   35.9590   30.0730   38.6870 O   0  0  0  0  0  0  0  0  0  0  0  0
   36.8890   30.8550   39.6270 P   0  0  1  0  0  0  0  0  0  0  0  0
   35.9120   31.5240   40.8320 O   0  0  0  0  0  0  0  0  0  0  0  0
   36.2690   31.2620   41.7190 H   0  0  0  0  0  0  0  0  0  0  0  0
   37.6780   32.0950   38.8130 O   0  0  0  0  0  0  0  0  0  0  0  0
   38.1090   33.0420   39.7640 C   0  0  0  0  0  0  0  0  0  0  0  0
   38.3200   32.4930   41.0030 F   0  0  0  0  0  0  0  0  0  0  0  0
   39.3140   33.6070   39.3800 F   0  0  0  0  0  0  0  0  0  0  0  0
   37.2170   34.0860   39.9080 F   0  0  0  0  0  0  0  0  0  0  0  0
  1  2  1  0  0  0  0
  2  3  2  0  0  0  0
  2  7  1  0  0  0  0
  3  8  1  0  0  0  0
  4  3  1  0  0  0  0
  5  4  2  0  0  0  0
  6  5  1  0  0  0  0
  6  1  2  0  0  0  0
  9  1  1  0  0  0  0
  9 12  1  0  0  0  0
 10  9  1  0  0  0  0
 11  9  1  0  0  0  0
 13  5  1  0  0  0  0
 15 14  2  6  0  0  0
 15 13  1  0  0  0  0
 15 16  1  0  0  0  0
 16 17  1  0  0  0  0
 18 15  1  0  0  0  0
 18 19  1  0  0  0  0
 19 22  1  0  0  0  0
 19 20  1  0  0  0  0
 21 19  1  0  0  0  0
M  END
>  <minimizedAffinity>
-4.55029917

$$$$

 OpenBabel03252504473D

 22 22  0  0  0  0  0  0  0  0999 V2000
   40.1640   32.9420   39.0800 C   0  0  0  0  0  0  0  0  0  0  0  0
   39.6460   34.0070   39.8220 C   0  0  0  0  0  0  0  0  0  0  0  0
   38.5230   33.7260   40.6250 C   0  0  0  0  0  0  0  0  0  0  0  0
   38.0200   32.4790   40.6360 N   0  0  0  0  0  0  0  0  0  0  0  0
   38.5700   31.4830   39.8930 C   0  0  0  0  0  0  0  0  0  0  0  0
   39.6590   31.7240   39.1030 N   0  0  0  0  0  0  0  0  0  0  0  0
   40.0690   34.9850   39.7890 H   0  0  0  0  0  0  0  0  0  0  0  0
   38.1030   34.5440   41.2130 H   0  0  0  0  0  0  0  0  0  0  0  0
   41.3580   33.2340   38.2240 C   0  0  0  0  0  0  0  0  0  0  0  0
   42.2020   32.5530   38.5300 H   0  0  0  0  0  0  0  0  0  0  0  0
   41.0690   32.9090   37.1920 H   0  0  0  0  0  0  0  0  0  0  0  0
   41.6230   34.2910   38.2030 H   0  0  0  0  0  0  0  0  0  0  0  0
   37.9480   30.2530   40.0050 O   0  0  0  0  0  0  0  0  0  0  0  0
   37.5530   29.7030   42.4900 O   0  0  0  0  0  0  0  0  0  0  0  0
   36.7920   29.8480   41.1630 P   0  0  1  0  0  0  0  0  0  0  0  0
   35.6280   31.0510   41.3980 O   0  0  0  0  0  0  0  0  0  0  0  0
   35.7290   31.7380   40.6910 H   0  0  0  0  0  0  0  0  0  0  0  0
   36.0190   28.4160   40.7440 O   0  0  0  0  0  0  0  0  0  0  0  0
   36.8280   27.3400   41.1620 C   0  0  0  0  0  0  0  0  0  0  0  0
   36.6890   27.0570   42.4960 F   0  0  0  0  0  0  0  0  0  0  0  0
   36.4900   26.1810   40.4820 F   0  0  0  0  0  0  0  0  0  0  0  0
   38.1680   27.5620   40.9120 F   0  0  0  0  0  0  0  0  0  0  0  0
  1  6  2  0  0  0  0
  1  2  1  0  0  0  0
  2  3  2  0  0  0  0
  3  4  1  0  0  0  0
  3  8  1  0  0  0  0
  5 13  1  0  0  0  0
  5  4  2  0  0  0  0
  6  5  1  0  0  0  0
  7  2  1  0  0  0  0
  9 10  1  0  0  0  0
  9  1  1  0  0  0  0
 11  9  1  0  0  0  0
 12  9  1  0  0  0  0
 13 15  1  0  0  0  0
 15 16  1  0  0  0  0
 15 14  2  1  0  0  0
 17 16  1  0  0  0  0
 18 19  1  0  0  0  0
 18 15  1  0  0  0  0
 19 20  1  0  0  0  0
 21 19  1  0  0  0  0
 22 19  1  0  0  0  0
M  END
>  <minimizedAffinity>
-4.47978926

$$$$

 OpenBabel03252504473D

 22 22  0  0  0  0  0  0  0  0999 V2000
   39.9050   28.7000   42.6290 C   0  0  0  0  0  0  0  0  0  0  0  0
   40.1210   27.5860   43.4450 C   0  0  0  0  0  0  0  0  0  0  0  0
   39.0090   26.7510   43.6760 C   0  0  0  0  0  0  0  0  0  0  0  0
   37.8280   27.0620   43.1140 N   0  0  0  0  0  0  0  0  0  0  0  0
   37.6810   28.1610   42.3270 C   0  0  0  0  0  0  0  0  0  0  0  0
   38.7390   28.9900   42.0850 N   0  0  0  0  0  0  0  0  0  0  0  0
   41.0710   27.3700   43.8760 H   0  0  0  0  0  0  0  0  0  0  0  0
   39.1560   25.8760   44.3110 H   0  0  0  0  0  0  0  0  0  0  0  0
   41.0820   29.5920   42.3810 C   0  0  0  0  0  0  0  0  0  0  0  0
   41.2640   29.6550   41.2700 H   0  0  0  0  0  0  0  0  0  0  0  0
   40.7490   30.6160   42.6880 H   0  0  0  0  0  0  0  0  0  0  0  0
   41.9610   29.3140   42.9610 H   0  0  0  0  0  0  0  0  0  0  0  0
   36.4090   28.3520   41.8180 O   0  0  0  0  0  0  0  0  0  0  0  0
   34.5990   29.1030   40.1470 O   0  0  0  0  0  0  0  0  0  0  0  0
   35.9830   29.5130   40.6720 P   0  0  1  0  0  0  0  0  0  0  0  0
   35.8180   31.0650   41.3200 O   0  0  0  0  0  0  0  0  0  0  0  0
   36.1590   31.0630   42.2510 H   0  0  0  0  0  0  0  0  0  0  0  0
   37.1170   29.5570   39.4320 O   0  0  0  0  0  0  0  0  0  0  0  0
   36.6320   30.4150   38.4230 C   0  0  0  0  0  0  0  0  0  0  0  0
   36.4410   31.6990   38.8630 F   0  0  0  0  0  0  0  0  0  0  0  0
   37.5350   30.4940   37.3750 F   0  0  0  0  0  0  0  0  0  0  0  0
   35.4430   29.9690   37.8810 F   0  0  0  0  0  0  0  0  0  0  0  0
  1  2  1  0  0  0  0
  2  3  2  0  0  0  0
  2  7  1  0  0  0  0
  3  8  1  0  0  0  0
  4  3  1  0  0  0  0
  5  4  2  0  0  0  0
  6  5  1  0  0  0  0
  6  1  2  0  0  0  0
  9  1  1  0  0  0  0
  9 11  1  0  0  0  0
  9 12  1  0  0  0  0
 10  9  1  0  0  0  0
 13  5  1  0  0  0  0
 15 14  2  6  0  0  0
 15 16  1  0  0  0  0
 15 13  1  0  0  0  0
 16 17  1  0  0  0  0
 18 15  1  0  0  0  0
 19 20  1  0  0  0  0
 19 18  1  0  0  0  0
 21 19  1  0  0  0  0
 22 19  1  0  0  0  0
M  END
>  <minimizedAffinity>
-4.47090816

$$$$

 OpenBabel03252504473D

 22 22  0  0  0  0  0  0  0  0999 V2000
   37.1670   30.3170   38.5760 C   0  0  0  0  0  0  0  0  0  0  0  0
   36.9560   31.5450   39.2080 C   0  0  0  0  0  0  0  0  0  0  0  0
   37.2130   31.5930   40.5930 C   0  0  0  0  0  0  0  0  0  0  0  0
   37.6380   30.4810   41.2190 N   0  0  0  0  0  0  0  0  0  0  0  0
   37.8270   29.3140   40.5480 C   0  0  0  0  0  0  0  0  0  0  0  0
   37.5850   29.2360   39.2050 N   0  0  0  0  0  0  0  0  0  0  0  0
   36.6160   32.4080   38.6810 H   0  0  0  0  0  0  0  0  0  0  0  0
   37.0540   32.5420   41.1060 H   0  0  0  0  0  0  0  0  0  0  0  0
   36.8950   30.2600   37.1050 C   0  0  0  0  0  0  0  0  0  0  0  0
   37.8330   29.9330   36.5720 H   0  0  0  0  0  0  0  0  0  0  0  0
   36.1660   29.4200   36.9700 H   0  0  0  0  0  0  0  0  0  0  0  0
   36.4570   31.1770   36.7130 H   0  0  0  0  0  0  0  0  0  0  0  0
   38.2670   28.2560   41.3220 O   0  0  0  0  0  0  0  0  0  0  0  0
   39.0580   27.5780   43.6770 O   0  0  0  0  0  0  0  0  0  0  0  0
   37.7810   27.9370   42.9040 P   0  0  1  0  0  0  0  0  0  0  0  0
   37.1030   29.2770   43.6790 O   0  0  0  0  0  0  0  0  0  0  0  0
   36.9570   29.9950   43.0120 H   0  0  0  0  0  0  0  0  0  0  0  0
   36.6740   26.6720   42.9340 O   0  0  0  0  0  0  0  0  0  0  0  0
   37.0860   25.7050   41.9950 C   0  0  0  0  0  0  0  0  0  0  0  0
   36.5080   24.4800   42.2040 F   0  0  0  0  0  0  0  0  0  0  0  0
   36.7310   26.0890   40.7110 F   0  0  0  0  0  0  0  0  0  0  0  0
   38.4560   25.5340   41.9840 F   0  0  0  0  0  0  0  0  0  0  0  0
  1  6  2  0  0  0  0
  1  2  1  0  0  0  0
  2  3  2  0  0  0  0
  3  8  1  0  0  0  0
  3  4  1  0  0  0  0
  5  4  2  0  0  0  0
  5 13  1  0  0  0  0
  6  5  1  0  0  0  0
  7  2  1  0  0  0  0
  9  1  1  0  0  0  0
 10  9  1  0  0  0  0
 11  9  1  0  0  0  0
 12  9  1  0  0  0  0
 13 15  1  0  0  0  0
 15 18  1  0  0  0  0
 15 14  2  1  0  0  0
 15 16  1  0  0  0  0
 17 16  1  0  0  0  0
 19 20  1  0  0  0  0
 19 18  1  0  0  0  0
 21 19  1  0  0  0  0
 22 19  1  0  0  0  0
M  END
>  <minimizedAffinity>
-4.42651987

$$$$

 OpenBabel03252504473D

 22 22  0  0  0  0  0  0  0  0999 V2000
   34.7800   29.0870   37.3700 C   0  0  0  0  0  0  0  0  0  0  0  0
   35.4640   29.2180   36.1590 C   0  0  0  0  0  0  0  0  0  0  0  0
   36.8580   29.4070   36.2410 C   0  0  0  0  0  0  0  0  0  0  0  0
   37.4440   29.4500   37.4510 N   0  0  0  0  0  0  0  0  0  0  0  0
   36.7230   29.3150   38.5960 C   0  0  0  0  0  0  0  0  0  0  0  0
   35.3700   29.1320   38.5480 N   0  0  0  0  0  0  0  0  0  0  0  0
   34.9680   29.1800   35.2160 H   0  0  0  0  0  0  0  0  0  0  0  0
   37.4120   29.5110   35.3060 H   0  0  0  0  0  0  0  0  0  0  0  0
   33.2980   28.8880   37.2900 C   0  0  0  0  0  0  0  0  0  0  0  0
   33.0310   27.9230   37.8080 H   0  0  0  0  0  0  0  0  0  0  0  0
   32.8550   29.6990   37.9210 H   0  0  0  0  0  0  0  0  0  0  0  0
   32.9080   28.9710   36.2760 H   0  0  0  0  0  0  0  0  0  0  0  0
   37.4600   29.3800   39.7640 O   0  0  0  0  0  0  0  0  0  0  0  0
   37.9150   31.6110   40.9680 O   0  0  0  0  0  0  0  0  0  0  0  0
   37.0800   30.3290   41.1050 P   0  0  1  0  0  0  0  0  0  0  0  0
   35.4590   30.8060   41.1490 O   0  0  0  0  0  0  0  0  0  0  0  0
   34.9580   30.3090   40.4530 H   0  0  0  0  0  0  0  0  0  0  0  0
   37.4470   29.5100   42.5260 O   0  0  0  0  0  0  0  0  0  0  0  0
   36.9080   28.2110   42.4360 C   0  0  0  0  0  0  0  0  0  0  0  0
   37.8180   27.2860   41.9960 F   0  0  0  0  0  0  0  0  0  0  0  0
   36.4800   27.7730   43.6800 F   0  0  0  0  0  0  0  0  0  0  0  0
   35.8070   28.1550   41.6040 F   0  0  0  0  0  0  0  0  0  0  0  0
  1  6  1  0  0  0  0
  2  3  1  0  0  0  0
  2  1  2  0  0  0  0
  3  4  2  0  0  0  0
  4  5  1  0  0  0  0
  5 13  1  0  0  0  0
  6  5  2  0  0  0  0
  7  2  1  0  0  0  0
  8  3  1  0  0  0  0
  9  1  1  0  0  0  0
  9 10  1  0  0  0  0
  9 11  1  0  0  0  0
 12  9  1  0  0  0  0
 13 15  1  0  0  0  0
 15 14  2  6  0  0  0
 15 16  1  0  0  0  0
 15 18  1  0  0  0  0
 17 16  1  0  0  0  0
 19 18  1  0  0  0  0
 19 21  1  0  0  0  0
 20 19  1  0  0  0  0
 22 19  1  0  0  0  0
M  END
>  <minimizedAffinity>
-4.37892866

$$$$

 OpenBabel03252504473D

 22 22  0  0  0  0  0  0  0  0999 V2000
   37.4520   31.4480   39.7120 C   0  0  0  0  0  0  0  0  0  0  0  0
   36.9750   31.1310   38.4370 C   0  0  0  0  0  0  0  0  0  0  0  0
   36.9150   29.7610   38.1100 C   0  0  0  0  0  0  0  0  0  0  0  0
   37.3100   28.8530   39.0200 N   0  0  0  0  0  0  0  0  0  0  0  0
   37.7640   29.2240   40.2460 C   0  0  0  0  0  0  0  0  0  0  0  0
   37.8350   30.5440   40.5920 N   0  0  0  0  0  0  0  0  0  0  0  0
   36.6700   31.8780   37.7390 H   0  0  0  0  0  0  0  0  0  0  0  0
   36.5460   29.4920   37.1200 H   0  0  0  0  0  0  0  0  0  0  0  0
   37.5180   32.9020   40.0650 C   0  0  0  0  0  0  0  0  0  0  0  0
   36.8960   33.0820   40.9870 H   0  0  0  0  0  0  0  0  0  0  0  0
   38.5780   33.0830   40.3780 H   0  0  0  0  0  0  0  0  0  0  0  0
   37.2770   33.5580   39.2290 H   0  0  0  0  0  0  0  0  0  0  0  0
   38.1350   28.1810   41.0750 O   0  0  0  0  0  0  0  0  0  0  0  0
   39.0980   27.8720   43.4440 O   0  0  0  0  0  0  0  0  0  0  0  0
   37.7590   28.0570   42.7140 P   0  0  1  0  0  0  0  0  0  0  0  0
   37.0490   29.4550   43.3450 O   0  0  0  0  0  0  0  0  0  0  0  0
   36.8240   30.0670   42.5990 H   0  0  0  0  0  0  0  0  0  0  0  0
   36.7320   26.7540   42.9830 O   0  0  0  0  0  0  0  0  0  0  0  0
   37.0810   25.7260   42.0840 C   0  0  0  0  0  0  0  0  0  0  0  0
   38.4320   25.4980   42.0350 F   0  0  0  0  0  0  0  0  0  0  0  0
   36.4990   24.5270   42.4640 F   0  0  0  0  0  0  0  0  0  0  0  0
   36.6450   25.9810   40.7990 F   0  0  0  0  0  0  0  0  0  0  0  0
  1  9  1  0  0  0  0
  1  6  1  0  0  0  0
  2  1  2  0  0  0  0
  3  2  1  0  0  0  0
  3  4  2  0  0  0  0
  4  5  1  0  0  0  0
  5  6  2  0  0  0  0
  5 13  1  0  0  0  0
  7  2  1  0  0  0  0
  8  3  1  0  0  0  0
  9 11  1  0  0  0  0
  9 10  1  0  0  0  0
 12  9  1  0  0  0  0
 13 15  1  0  0  0  0
 15 18  1  0  0  0  0
 15 16  1  0  0  0  0
 15 14  2  1  0  0  0
 17 16  1  0  0  0  0
 19 21  1  0  0  0  0
 19 18  1  0  0  0  0
 20 19  1  0  0  0  0
 22 19  1  0  0  0  0
M  END
>  <minimizedAffinity>
-4.37496185

$$$$

 OpenBabel03252504473D

 22 22  0  0  0  0  0  0  0  0999 V2000
   35.8620   29.2970   36.4290 C   0  0  0  0  0  0  0  0  0  0  0  0
   34.5330   28.9880   36.7270 C   0  0  0  0  0  0  0  0  0  0  0  0
   34.2130   28.8340   38.0920 C   0  0  0  0  0  0  0  0  0  0  0  0
   35.1800   28.9900   39.0130 N   0  0  0  0  0  0  0  0  0  0  0  0
   36.4580   29.2930   38.6600 C   0  0  0  0  0  0  0  0  0  0  0  0
   36.7980   29.4470   37.3450 N   0  0  0  0  0  0  0  0  0  0  0  0
   33.7900   28.8700   35.9710 H   0  0  0  0  0  0  0  0  0  0  0  0
   33.1800   28.5920   38.3460 H   0  0  0  0  0  0  0  0  0  0  0  0
   36.2080   29.4600   34.9810 C   0  0  0  0  0  0  0  0  0  0  0  0
   36.6370   30.4910   34.8230 H   0  0  0  0  0  0  0  0  0  0  0  0
   37.0550   28.7520   34.7970 H   0  0  0  0  0  0  0  0  0  0  0  0
   35.3840   29.2130   34.3130 H   0  0  0  0  0  0  0  0  0  0  0  0
   37.3430   29.4220   39.7140 O   0  0  0  0  0  0  0  0  0  0  0  0
   37.9240   31.6750   40.8200 O   0  0  0  0  0  0  0  0  0  0  0  0
   37.1100   30.3970   41.0700 P   0  0  1  0  0  0  0  0  0  0  0  0
   35.5030   30.8760   41.2800 O   0  0  0  0  0  0  0  0  0  0  0  0
   34.9300   30.3670   40.6520 H   0  0  0  0  0  0  0  0  0  0  0  0
   37.6290   29.6040   42.4580 O   0  0  0  0  0  0  0  0  0  0  0  0
   37.1490   28.2790   42.4130 C   0  0  0  0  0  0  0  0  0  0  0  0
   37.9150   27.4630   41.6200 F   0  0  0  0  0  0  0  0  0  0  0  0
   37.1600   27.7120   43.6770 F   0  0  0  0  0  0  0  0  0  0  0  0
   35.8450   28.2070   41.9650 F   0  0  0  0  0  0  0  0  0  0  0  0
  1  2  2  0  0  0  0
  1  6  1  0  0  0  0
  2  3  1  0  0  0  0
  3  8  1  0  0  0  0
  3  4  2  0  0  0  0
  5  4  1  0  0  0  0
  5 13  1  0  0  0  0
  6  5  2  0  0  0  0
  7  2  1  0  0  0  0
  9  1  1  0  0  0  0
 10  9  1  0  0  0  0
 11  9  1  0  0  0  0
 12  9  1  0  0  0  0
 13 15  1  0  0  0  0
 15 14  2  6  0  0  0
 15 16  1  0  0  0  0
 15 18  1  0  0  0  0
 17 16  1  0  0  0  0
 19 18  1  0  0  0  0
 19 21  1  0  0  0  0
 20 19  1  0  0  0  0
 22 19  1  0  0  0  0
M  END
>  <minimizedAffinity>
-4.32491732

$$$$

 OpenBabel03252504473D

 22 22  0  0  0  0  0  0  0  0999 V2000
   37.2410   30.1260   37.6130 C   0  0  0  0  0  0  0  0  0  0  0  0
   37.3660   31.5070   37.7820 C   0  0  0  0  0  0  0  0  0  0  0  0
   37.9430   31.9440   38.9910 C   0  0  0  0  0  0  0  0  0  0  0  0
   38.3340   31.0310   39.8980 N   0  0  0  0  0  0  0  0  0  0  0  0
   38.1870   29.6980   39.6750 C   0  0  0  0  0  0  0  0  0  0  0  0
   37.6310   29.2440   38.5130 N   0  0  0  0  0  0  0  0  0  0  0  0
   37.0450   32.2050   37.0420 H   0  0  0  0  0  0  0  0  0  0  0  0
   38.0500   33.0190   39.1430 H   0  0  0  0  0  0  0  0  0  0  0  0
   36.6290   29.6560   36.3300 C   0  0  0  0  0  0  0  0  0  0  0  0
   37.3580   28.9760   35.8050 H   0  0  0  0  0  0  0  0  0  0  0  0
   35.7730   29.0000   36.6330 H   0  0  0  0  0  0  0  0  0  0  0  0
   36.2520   30.4700   35.7110 H   0  0  0  0  0  0  0  0  0  0  0  0
   38.6340   28.8790   40.6960 O   0  0  0  0  0  0  0  0  0  0  0  0
   39.3680   29.8770   42.9540 O   0  0  0  0  0  0  0  0  0  0  0  0
   38.2380   29.0480   42.3260 P   0  0  1  0  0  0  0  0  0  0  0  0
   36.8040   29.9050   42.5810 O   0  0  0  0  0  0  0  0  0  0  0  0
   36.3450   30.0310   41.7110 H   0  0  0  0  0  0  0  0  0  0  0  0
   38.1090   27.5400   43.0570 O   0  0  0  0  0  0  0  0  0  0  0  0
   36.8460   27.0030   42.7360 C   0  0  0  0  0  0  0  0  0  0  0  0
   36.3940   27.4040   41.5060 F   0  0  0  0  0  0  0  0  0  0  0  0
   36.8990   25.6180   42.6980 F   0  0  0  0  0  0  0  0  0  0  0  0
   35.8840   27.3290   43.6710 F   0  0  0  0  0  0  0  0  0  0  0  0
  1  2  2  0  0  0  0
  1  6  1  0  0  0  0
  2  3  1  0  0  0  0
  3  8  1  0  0  0  0
  3  4  2  0  0  0  0
  5  4  1  0  0  0  0
  5 13  1  0  0  0  0
  6  5  2  0  0  0  0
  7  2  1  0  0  0  0
  9 11  1  0  0  0  0
  9  1  1  0  0  0  0
 10  9  1  0  0  0  0
 12  9  1  0  0  0  0
 13 15  1  0  0  0  0
 15 16  1  0  0  0  0
 15 14  2  1  0  0  0
 15 18  1  0  0  0  0
 17 16  1  0  0  0  0
 19 18  1  0  0  0  0
 19 22  1  0  0  0  0
 20 19  1  0  0  0  0
 21 19  1  0  0  0  0
M  END
>  <minimizedAffinity>
-4.31599331

$$$$
