
 OpenBabel03252504453D

 22 22  0  0  0  0  0  0  0  0999 V2000
   45.3830   34.7160   44.3960 C   0  0  0  0  0  0  0  0  0  0  0  0
   46.3620   34.1320   43.5890 C   0  0  0  0  0  0  0  0  0  0  0  0
   47.1320   33.1070   44.1750 C   0  0  0  0  0  0  0  0  0  0  0  0
   46.8890   32.7530   45.4500 N   0  0  0  0  0  0  0  0  0  0  0  0
   45.9200   33.3590   46.1850 C   0  0  0  0  0  0  0  0  0  0  0  0
   45.1580   34.3560   45.6440 N   0  0  0  0  0  0  0  0  0  0  0  0
   46.5290   34.4370   42.5810 H   0  0  0  0  0  0  0  0  0  0  0  0
   47.9030   32.6370   43.5620 H   0  0  0  0  0  0  0  0  0  0  0  0
   44.5620   35.8050   43.7780 C   0  0  0  0  0  0  0  0  0  0  0  0
   43.4740   35.5160   43.8280 H   0  0  0  0  0  0  0  0  0  0  0  0
   44.6690   36.6830   44.4650 H   0  0  0  0  0  0  0  0  0  0  0  0
   44.9030   36.0880   42.7830 H   0  0  0  0  0  0  0  0  0  0  0  0
   45.7850   32.8910   47.4790 O   0  0  0  0  0  0  0  0  0  0  0  0
   45.3240   31.2580   49.4170 O   0  0  0  0  0  0  0  0  0  0  0  0
   45.6850   31.2680   47.9240 P   0  0  1  0  0  0  0  0  0  0  0  0
   44.4580   30.4280   47.1200 O   0  0  0  0  0  0  0  0  0  0  0  0
   44.0990   31.0000   46.3940 H   0  0  0  0  0  0  0  0  0  0  0  0
   47.1490   30.4920   47.6440 O   0  0  0  0  0  0  0  0  0  0  0  0
   48.1040   31.0220   48.5360 C   0  0  0  0  0  0  0  0  0  0  0  0
   47.8860   30.6450   49.8350 F   0  0  0  0  0  0  0  0  0  0  0  0
   49.3760   30.5760   48.2110 F   0  0  0  0  0  0  0  0  0  0  0  0
   48.1530   32.4010   48.4950 F   0  0  0  0  0  0  0  0  0  0  0  0
  1  6  1  0  0  0  0
  2  3  1  0  0  0  0
  2  1  2  0  0  0  0
  3  4  2  0  0  0  0
  4  5  1  0  0  0  0
  5 13  1  0  0  0  0
  6  5  2  0  0  0  0
  7  2  1  0  0  0  0
  8  3  1  0  0  0  0
  9 10  1  0  0  0  0
  9  1  1  0  0  0  0
  9 11  1  0  0  0  0
 12  9  1  0  0  0  0
 13 15  1  0  0  0  0
 15 14  2  1  0  0  0
 16 15  1  0  0  0  0
 17 16  1  0  0  0  0
 18 15  1  0  0  0  0
 18 19  1  0  0  0  0
 19 20  1  0  0  0  0
 21 19  1  0  0  0  0
 22 19  1  0  0  0  0
M  END
>  <minimizedAffinity>
-4.58552361

>  <minimizedRMSD>
0.675695181

$$$$
