
 OpenBabel03252509313D

 22 22  0  0  0  0  0  0  0  0999 V2000
   46.8580   34.8020   41.9930 C   0  0  0  0  0  0  0  0  0  0  0  0
   46.1810   34.3200   41.2550 H   0  0  0  0  0  0  0  0  0  0  0  0
   47.0320   35.8300   41.6390 H   0  0  0  0  0  0  0  0  0  0  0  0
   45.5790   33.9700   45.4000 C   0  0  0  0  0  0  0  0  0  0  0  0
   46.3010   33.8880   44.1950 C   0  0  0  0  0  0  0  0  0  0  0  0
   46.1110   34.8760   43.2560 C   0  0  0  0  0  0  0  0  0  0  0  0
   45.2300   35.9030   43.5190 N   0  0  0  0  0  0  0  0  0  0  0  0
   44.5470   35.9500   44.7010 C   0  0  0  0  0  0  0  0  0  0  0  0
   44.7290   34.9960   45.6110 N   0  0  0  0  0  0  0  0  0  0  0  0
   45.6720   33.2410   46.1810 H   0  0  0  0  0  0  0  0  0  0  0  0
   46.9560   33.0540   44.0890 H   0  0  0  0  0  0  0  0  0  0  0  0
   43.8910   36.8110   44.7730 H   0  0  0  0  0  0  0  0  0  0  0  0
   48.0200   34.0450   42.1340 O   0  0  0  0  0  0  0  0  0  0  0  0
   47.4000   32.3020   40.2880 O   0  0  0  0  0  0  0  0  0  0  0  0
   48.3710   33.4080   40.6060 P   0  0  2  0  0  0  0  0  0  0  0  0
   49.9790   32.8730   40.6620 O   0  0  0  0  0  0  0  0  0  0  0  0
   50.0700   31.9200   40.3850 H   0  0  0  0  0  0  0  0  0  0  0  0
   48.2030   34.6250   39.4620 O   0  0  0  0  0  0  0  0  0  0  0  0
   48.1290   34.0880   38.1690 C   0  0  0  0  0  0  0  0  0  0  0  0
   49.0530   33.0660   38.0670 F   0  0  0  0  0  0  0  0  0  0  0  0
   48.4450   35.0860   37.2400 F   0  0  0  0  0  0  0  0  0  0  0  0
   46.8660   33.6410   37.9100 F   0  0  0  0  0  0  0  0  0  0  0  0
  1 13  1  0  0  0  0
  1  6  1  0  0  0  0
  2  1  1  0  0  0  0
  3  1  1  0  0  0  0
  4  9  1  0  0  0  0
  4 10  1  0  0  0  0
  5  4  2  0  0  0  0
  6  7  2  0  0  0  0
  6  5  1  0  0  0  0
  7  8  1  0  0  0  0
  8 12  1  0  0  0  0
  8  9  2  0  0  0  0
 11  5  1  0  0  0  0
 15 14  2  6  0  0  0
 15 16  1  0  0  0  0
 15 13  1  0  0  0  0
 17 16  1  0  0  0  0
 18 15  1  0  0  0  0
 19 18  1  0  0  0  0
 20 19  1  0  0  0  0
 21 19  1  0  0  0  0
 22 19  1  0  0  0  0
M  END
>  <minimizedAffinity>
-4.3470726

>  <minimizedRMSD>
2.15443563

$$$$
