
 OpenBabel03242517093D

 42 44  0  0  1  0  0  0  0  0999 V2000
   46.0570   33.8130   43.1880 C   0  0  2  0  0  0  0  0  0  0  0  0
   45.2690   34.8870   42.5250 C   0  0  2  0  0  0  0  0  0  0  0  0
   45.1100   36.0990   43.3620 C   0  0  0  0  0  0  0  0  0  0  0  0
   44.5980   35.8410   44.7510 C   0  0  0  0  0  0  0  0  0  0  0  0
   45.0620   34.5410   45.3430 C   0  0  0  0  0  0  0  0  0  0  0  0
   46.3120   34.0240   44.6530 C   0  0  0  0  0  0  0  0  0  0  0  0
   45.4860   32.8420   43.0620 H   0  0  0  0  0  0  0  0  0  0  0  0
   45.7950   35.1930   41.5950 H   0  0  0  0  0  0  0  0  0  0  0  0
   46.0750   36.6420   43.3760 H   0  0  0  0  0  0  0  0  0  0  0  0
   44.3350   36.7580   42.8760 H   0  0  0  0  0  0  0  0  0  0  0  0
   45.0590   36.6490   45.3910 H   0  0  0  0  0  0  0  0  0  0  0  0
   43.5150   35.9880   44.8490 H   0  0  0  0  0  0  0  0  0  0  0  0
   44.2820   33.7610   45.2980 H   0  0  0  0  0  0  0  0  0  0  0  0
   45.3400   34.6520   46.4160 H   0  0  0  0  0  0  0  0  0  0  0  0
   47.1740   34.6150   44.9250 H   0  0  0  0  0  0  0  0  0  0  0  0
   46.4760   33.0040   45.1160 H   0  0  0  0  0  0  0  0  0  0  0  0
   43.0290   35.3460   41.4470 C   0  0  1  0  0  0  0  0  0  0  0  0
   43.9260   34.3540   42.0800 C   0  0  1  0  0  0  0  0  0  0  0  0
   44.1580   33.3270   41.1730 O   0  0  0  0  0  0  0  0  0  0  0  0
   43.8610   33.7990   39.9040 C   0  0  0  0  0  0  0  0  0  0  0  0
   42.6000   34.6010   40.1780 C   0  0  2  0  0  0  0  0  0  0  0  0
   43.5300   36.2690   41.1270 H   0  0  0  0  0  0  0  0  0  0  0  0
   43.4500   33.8920   42.9840 H   0  0  0  0  0  0  0  0  0  0  0  0
   44.6570   34.4790   39.5290 H   0  0  0  0  0  0  0  0  0  0  0  0
   43.6780   32.9720   39.2160 H   0  0  0  0  0  0  0  0  0  0  0  0
   41.7740   33.8970   40.3530 H   0  0  0  0  0  0  0  0  0  0  0  0
   41.9030   35.6420   42.1810 O   0  0  0  0  0  0  0  0  0  0  0  0
   41.3630   36.3130   41.7130 H   0  0  0  0  0  0  0  0  0  0  0  0
   42.3440   35.5200   39.1690 O   0  0  0  0  0  0  0  0  0  0  0  0
   41.0880   35.4490   38.6250 C   0  0  0  0  0  0  0  0  0  0  0  0
   41.0370   36.4130   37.6180 F   0  0  0  0  0  0  0  0  0  0  0  0
   40.9100   34.1980   38.0650 F   0  0  0  0  0  0  0  0  0  0  0  0
   40.1100   35.7260   39.5340 F   0  0  0  0  0  0  0  0  0  0  0  0
   47.3450   33.5630   42.5180 C   0  0  0  0  0  0  0  0  0  0  0  0
   48.4040   34.3550   42.9640 C   0  0  0  0  0  0  0  0  0  0  0  0
   49.6850   34.2080   42.4080 C   0  0  0  0  0  0  0  0  0  0  0  0
   49.7970   33.2410   41.4130 N   0  0  0  0  0  0  0  0  0  0  0  0
   48.7440   32.4950   41.0090 C   0  0  0  0  0  0  0  0  0  0  0  0
   47.5180   32.6530   41.5590 N   0  0  0  0  0  0  0  0  0  0  0  0
   48.4720   35.1370   43.7020 H   0  0  0  0  0  0  0  0  0  0  0  0
   50.5730   34.7340   42.6450 H   0  0  0  0  0  0  0  0  0  0  0  0
   48.9160   31.7650   40.2290 H   0  0  0  0  0  0  0  0  0  0  0  0
  1  7  1  6  0  0  0
  1  6  1  0  0  0  0
  2  8  1  6  0  0  0
  2  1  1  0  0  0  0
  2  3  1  0  0  0  0
  3  9  1  0  0  0  0
  3  4  1  0  0  0  0
  4 12  1  0  0  0  0
  4  5  1  0  0  0  0
  4 11  1  0  0  0  0
  5 14  1  0  0  0  0
  6 15  1  0  0  0  0
  6 16  1  0  0  0  0
  6  5  1  0  0  0  0
 10  3  1  0  0  0  0
 13  5  1  0  0  0  0
 17 22  1  6  0  0  0
 17 18  1  0  0  0  0
 17 27  1  0  0  0  0
 18  2  1  0  0  0  0
 18 23  1  1  0  0  0
 19 18  1  0  0  0  0
 20 21  1  0  0  0  0
 20 19  1  0  0  0  0
 21 26  1  1  0  0  0
 21 17  1  0  0  0  0
 24 20  1  0  0  0  0
 25 20  1  0  0  0  0
 28 27  1  0  0  0  0
 29 21  1  0  0  0  0
 30 29  1  0  0  0  0
 30 33  1  0  0  0  0
 31 30  1  0  0  0  0
 32 30  1  0  0  0  0
 34 35  1  0  0  0  0
 34  1  1  0  0  0  0
 35 40  1  0  0  0  0
 36 41  1  0  0  0  0
 36 35  2  0  0  0  0
 37 36  1  0  0  0  0
 38 37  2  0  0  0  0
 38 39  1  0  0  0  0
 39 34  2  0  0  0  0
 42 38  1  0  0  0  0
M  END
>  <minimizedAffinity>
-6.3525877

>  <minimizedRMSD>
0.431866854

$$$$
