
 OpenBabel03242521593D

 28 29  0  0  0  0  0  0  0  0999 V2000
   37.3750   26.6390   41.7070 C   0  0  0  0  0  0  0  0  0  0  0  0
   37.1450   26.8560   43.0440 C   0  0  0  0  0  0  0  0  0  0  0  0
   37.2640   28.0930   43.6710 C   0  0  0  0  0  0  0  0  0  0  0  0
   37.6370   29.1820   42.9120 C   0  0  0  0  0  0  0  0  0  0  0  0
   37.8560   28.9500   41.5990 C   0  0  0  0  0  0  0  0  0  0  0  0
   37.7360   27.7570   41.0190 N   0  0  0  0  0  0  0  0  0  0  0  0
   36.8530   25.9430   43.5810 H   0  0  0  0  0  0  0  0  0  0  0  0
   37.0360   28.0390   44.7380 H   0  0  0  0  0  0  0  0  0  0  0  0
   37.6900   30.0300   43.5700 H   0  0  0  0  0  0  0  0  0  0  0  0
   37.6130   23.0080   40.7490 C   0  0  0  0  0  0  0  0  0  0  0  0
   37.8420   24.1710   41.4920 C   0  0  0  0  0  0  0  0  0  0  0  0
   37.2560   25.3370   41.0720 C   0  0  0  0  0  0  0  0  0  0  0  0
   36.4770   25.2920   39.9400 N   0  0  0  0  0  0  0  0  0  0  0  0
   36.2680   24.1610   39.2380 C   0  0  0  0  0  0  0  0  0  0  0  0
   36.8370   23.0200   39.6440 N   0  0  0  0  0  0  0  0  0  0  0  0
   38.0810   22.1170   41.1010 H   0  0  0  0  0  0  0  0  0  0  0  0
   38.4420   24.2340   42.3720 H   0  0  0  0  0  0  0  0  0  0  0  0
   35.6430   24.2120   38.3630 H   0  0  0  0  0  0  0  0  0  0  0  0
   38.2290   30.0270   40.8140 O   0  0  0  0  0  0  0  0  0  0  0  0
   36.3690   30.0730   38.9430 O   0  0  0  0  0  0  0  0  0  0  0  0
   37.1210   30.9610   39.9200 P   0  0  1  0  0  0  0  0  0  0  0  0
   36.0270   31.6830   40.9780 O   0  0  0  0  0  0  0  0  0  0  0  0
   35.2690   32.0510   40.4620 H   0  0  0  0  0  0  0  0  0  0  0  0
   38.0030   32.1160   39.0470 O   0  0  0  0  0  0  0  0  0  0  0  0
   38.1910   33.2250   39.8600 C   0  0  0  0  0  0  0  0  0  0  0  0
   39.3520   33.9080   39.4890 F   0  0  0  0  0  0  0  0  0  0  0  0
   38.3800   32.8670   41.1750 F   0  0  0  0  0  0  0  0  0  0  0  0
   37.1450   34.1160   39.8020 F   0  0  0  0  0  0  0  0  0  0  0  0
  1  2  1  0  0  0  0
  2  7  1  0  0  0  0
  2  3  2  0  0  0  0
  3  8  1  0  0  0  0
  4  9  1  0  0  0  0
  4  3  1  0  0  0  0
  5  4  2  0  0  0  0
  6  5  1  0  0  0  0
  6  1  2  0  0  0  0
 10 16  1  0  0  0  0
 10 11  1  0  0  0  0
 11 17  1  0  0  0  0
 12 11  2  0  0  0  0
 12  1  1  0  0  0  0
 13 12  1  0  0  0  0
 14 15  1  0  0  0  0
 14 13  2  0  0  0  0
 15 10  2  0  0  0  0
 18 14  1  0  0  0  0
 19  5  1  0  0  0  0
 21 20  2  6  0  0  0
 21 19  1  0  0  0  0
 21 22  1  0  0  0  0
 23 22  1  0  0  0  0
 24 25  1  0  0  0  0
 24 21  1  0  0  0  0
 25 27  1  0  0  0  0
 26 25  1  0  0  0  0
 28 25  1  0  0  0  0
M  END
>  <minimizedAffinity>
-5.37171888

$$$$

 OpenBabel03242521593D

 28 29  0  0  0  0  0  0  0  0999 V2000
   37.4880   30.6580   40.9410 C   0  0  0  0  0  0  0  0  0  0  0  0
   36.2170   30.4240   40.4760 C   0  0  0  0  0  0  0  0  0  0  0  0
   35.4990   29.2540   40.7060 C   0  0  0  0  0  0  0  0  0  0  0  0
   36.0900   28.2540   41.4490 C   0  0  0  0  0  0  0  0  0  0  0  0
   37.3400   28.5030   41.9000 C   0  0  0  0  0  0  0  0  0  0  0  0
   38.0090   29.6310   41.6680 N   0  0  0  0  0  0  0  0  0  0  0  0
   35.8130   31.2640   39.8940 H   0  0  0  0  0  0  0  0  0  0  0  0
   34.5090   29.2790   40.2450 H   0  0  0  0  0  0  0  0  0  0  0  0
   35.3950   27.4370   41.5010 H   0  0  0  0  0  0  0  0  0  0  0  0
   38.5690   34.1560   40.0710 C   0  0  0  0  0  0  0  0  0  0  0  0
   37.6980   33.0790   40.2720 C   0  0  0  0  0  0  0  0  0  0  0  0
   38.2260   31.8830   40.6810 C   0  0  0  0  0  0  0  0  0  0  0  0
   39.5870   31.8130   40.8690 N   0  0  0  0  0  0  0  0  0  0  0  0
   40.4090   32.8610   40.6690 C   0  0  0  0  0  0  0  0  0  0  0  0
   39.8990   34.0320   40.2710 N   0  0  0  0  0  0  0  0  0  0  0  0
   38.1280   35.0730   39.7540 H   0  0  0  0  0  0  0  0  0  0  0  0
   36.6400   33.1060   40.1330 H   0  0  0  0  0  0  0  0  0  0  0  0
   41.4630   32.7220   40.8400 H   0  0  0  0  0  0  0  0  0  0  0  0
   37.9560   27.5180   42.6500 O   0  0  0  0  0  0  0  0  0  0  0  0
   40.0950   26.8170   41.2740 O   0  0  0  0  0  0  0  0  0  0  0  0
   38.8660   26.2520   41.9660 P   0  0  1  0  0  0  0  0  0  0  0  0
   39.3460   25.1930   43.1850 O   0  0  0  0  0  0  0  0  0  0  0  0
   40.0360   24.5810   42.8330 H   0  0  0  0  0  0  0  0  0  0  0  0
   37.8920   25.4780   40.8130 O   0  0  0  0  0  0  0  0  0  0  0  0
   37.0930   24.5530   41.4690 C   0  0  0  0  0  0  0  0  0  0  0  0
   36.0040   24.1980   40.6690 F   0  0  0  0  0  0  0  0  0  0  0  0
   36.5490   25.0750   42.6210 F   0  0  0  0  0  0  0  0  0  0  0  0
   37.7660   23.3990   41.7960 F   0  0  0  0  0  0  0  0  0  0  0  0
  1  6  1  0  0  0  0
  2  3  1  0  0  0  0
  2  1  2  0  0  0  0
  3  4  2  0  0  0  0
  4  9  1  0  0  0  0
  4  5  1  0  0  0  0
  5 19  1  0  0  0  0
  6  5  2  0  0  0  0
  7  2  1  0  0  0  0
  8  3  1  0  0  0  0
 10 15  2  0  0  0  0
 10 11  1  0  0  0  0
 11 12  2  0  0  0  0
 12 13  1  0  0  0  0
 12  1  1  0  0  0  0
 14 18  1  0  0  0  0
 14 13  2  0  0  0  0
 15 14  1  0  0  0  0
 16 10  1  0  0  0  0
 17 11  1  0  0  0  0
 21 20  2  6  0  0  0
 21 19  1  0  0  0  0
 21 22  1  0  0  0  0
 23 22  1  0  0  0  0
 24 25  1  0  0  0  0
 24 21  1  0  0  0  0
 25 28  1  0  0  0  0
 25 27  1  0  0  0  0
 26 25  1  0  0  0  0
M  END
>  <minimizedAffinity>
-5.16466284

$$$$

 OpenBabel03242521593D

 28 29  0  0  0  0  0  0  0  0999 V2000
   38.0090   29.4260   41.6070 C   0  0  0  0  0  0  0  0  0  0  0  0
   37.3960   29.2860   42.8280 C   0  0  0  0  0  0  0  0  0  0  0  0
   37.5500   28.1840   43.6650 C   0  0  0  0  0  0  0  0  0  0  0  0
   38.3730   27.1570   43.2530 C   0  0  0  0  0  0  0  0  0  0  0  0
   38.9700   27.3130   42.0510 C   0  0  0  0  0  0  0  0  0  0  0  0
   38.8070   28.3760   41.2660 N   0  0  0  0  0  0  0  0  0  0  0  0
   36.7580   30.1430   43.0870 H   0  0  0  0  0  0  0  0  0  0  0  0
   36.9720   28.2800   44.5860 H   0  0  0  0  0  0  0  0  0  0  0  0
   38.3490   26.4010   44.0160 H   0  0  0  0  0  0  0  0  0  0  0  0
   37.0400   31.8250   38.8760 C   0  0  0  0  0  0  0  0  0  0  0  0
   37.1040   30.6170   39.5790 C   0  0  0  0  0  0  0  0  0  0  0  0
   37.8270   30.5800   40.7430 C   0  0  0  0  0  0  0  0  0  0  0  0
   38.4480   31.7370   41.1500 N   0  0  0  0  0  0  0  0  0  0  0  0
   38.3740   32.8900   40.4580 C   0  0  0  0  0  0  0  0  0  0  0  0
   37.6690   32.9330   39.3210 N   0  0  0  0  0  0  0  0  0  0  0  0
   36.4700   31.8220   37.9750 H   0  0  0  0  0  0  0  0  0  0  0  0
   36.6320   29.7050   39.2850 H   0  0  0  0  0  0  0  0  0  0  0  0
   38.8900   33.7520   40.8460 H   0  0  0  0  0  0  0  0  0  0  0  0
   39.8020   26.2970   41.6150 O   0  0  0  0  0  0  0  0  0  0  0  0
   40.1480   24.2510   39.9860 O   0  0  0  0  0  0  0  0  0  0  0  0
   39.2320   24.7870   41.0730 P   0  0  1  0  0  0  0  0  0  0  0  0
   39.2050   23.7080   42.3670 O   0  0  0  0  0  0  0  0  0  0  0  0
   39.0770   22.7910   42.0250 H   0  0  0  0  0  0  0  0  0  0  0  0
   37.6830   25.0210   40.4220 O   0  0  0  0  0  0  0  0  0  0  0  0
   36.8320   24.0730   40.9730 C   0  0  0  0  0  0  0  0  0  0  0  0
   35.6210   24.0460   40.2770 F   0  0  0  0  0  0  0  0  0  0  0  0
   36.5020   24.3800   42.2740 F   0  0  0  0  0  0  0  0  0  0  0  0
   37.3580   22.8030   40.9490 F   0  0  0  0  0  0  0  0  0  0  0  0
  1  2  1  0  0  0  0
  2  7  1  0  0  0  0
  2  3  2  0  0  0  0
  3  8  1  0  0  0  0
  4  3  1  0  0  0  0
  4  9  1  0  0  0  0
  5  4  2  0  0  0  0
  6  1  2  0  0  0  0
  6  5  1  0  0  0  0
 10 15  2  0  0  0  0
 10 11  1  0  0  0  0
 11 12  2  0  0  0  0
 12 13  1  0  0  0  0
 12  1  1  0  0  0  0
 14 18  1  0  0  0  0
 14 13  2  0  0  0  0
 15 14  1  0  0  0  0
 16 10  1  0  0  0  0
 17 11  1  0  0  0  0
 19  5  1  0  0  0  0
 21 20  2  6  0  0  0
 21 19  1  0  0  0  0
 21 22  1  0  0  0  0
 23 22  1  0  0  0  0
 24 25  1  0  0  0  0
 24 21  1  0  0  0  0
 25 27  1  0  0  0  0
 26 25  1  0  0  0  0
 28 25  1  0  0  0  0
M  END
>  <minimizedAffinity>
-5.03110695

$$$$

 OpenBabel03242521593D

 28 29  0  0  0  0  0  0  0  0999 V2000
   37.7850   25.3620   41.7480 C   0  0  0  0  0  0  0  0  0  0  0  0
   38.8750   25.4160   42.5820 C   0  0  0  0  0  0  0  0  0  0  0  0
   39.2140   26.5170   43.3640 C   0  0  0  0  0  0  0  0  0  0  0  0
   38.4090   27.6350   43.3090 C   0  0  0  0  0  0  0  0  0  0  0  0
   37.3400   27.5630   42.4860 C   0  0  0  0  0  0  0  0  0  0  0  0
   37.0350   26.4990   41.7460 N   0  0  0  0  0  0  0  0  0  0  0  0
   39.4670   24.4900   42.5720 H   0  0  0  0  0  0  0  0  0  0  0  0
   40.1190   26.3440   43.9510 H   0  0  0  0  0  0  0  0  0  0  0  0
   38.8390   28.3730   43.9610 H   0  0  0  0  0  0  0  0  0  0  0  0
   36.1630   22.8460   39.4690 C   0  0  0  0  0  0  0  0  0  0  0  0
   36.3080   24.0300   40.2000 C   0  0  0  0  0  0  0  0  0  0  0  0
   37.4540   24.2070   40.9310 C   0  0  0  0  0  0  0  0  0  0  0  0
   38.3950   23.2050   40.9010 N   0  0  0  0  0  0  0  0  0  0  0  0
   38.2370   22.0720   40.1900 C   0  0  0  0  0  0  0  0  0  0  0  0
   37.1200   21.8940   39.4750 N   0  0  0  0  0  0  0  0  0  0  0  0
   35.2610   22.7370   38.9110 H   0  0  0  0  0  0  0  0  0  0  0  0
   35.5940   24.8220   40.2410 H   0  0  0  0  0  0  0  0  0  0  0  0
   39.0230   21.3370   40.2210 H   0  0  0  0  0  0  0  0  0  0  0  0
   36.5140   28.6710   42.4140 O   0  0  0  0  0  0  0  0  0  0  0  0
   35.1630   28.8130   40.1520 O   0  0  0  0  0  0  0  0  0  0  0  0
   36.2230   29.5280   40.9720 P   0  0  1  0  0  0  0  0  0  0  0  0
   35.6880   31.0800   41.3490 O   0  0  0  0  0  0  0  0  0  0  0  0
   35.3240   31.5070   40.5360 H   0  0  0  0  0  0  0  0  0  0  0  0
   37.6710   29.5630   40.0880 O   0  0  0  0  0  0  0  0  0  0  0  0
   38.4250   30.6400   40.5340 C   0  0  0  0  0  0  0  0  0  0  0  0
   39.7600   30.4900   40.1470 F   0  0  0  0  0  0  0  0  0  0  0  0
   38.4470   30.7130   41.9080 F   0  0  0  0  0  0  0  0  0  0  0  0
   37.9810   31.8450   40.0450 F   0  0  0  0  0  0  0  0  0  0  0  0
  1  2  1  0  0  0  0
  2  3  2  0  0  0  0
  3  8  1  0  0  0  0
  4  3  1  0  0  0  0
  4  9  1  0  0  0  0
  5  4  2  0  0  0  0
  6  1  2  0  0  0  0
  6  5  1  0  0  0  0
  7  2  1  0  0  0  0
 10 15  2  0  0  0  0
 10 11  1  0  0  0  0
 11 17  1  0  0  0  0
 11 12  2  0  0  0  0
 12  1  1  0  0  0  0
 13 12  1  0  0  0  0
 14 18  1  0  0  0  0
 14 13  2  0  0  0  0
 15 14  1  0  0  0  0
 16 10  1  0  0  0  0
 19  5  1  0  0  0  0
 21 20  2  6  0  0  0
 21 22  1  0  0  0  0
 21 19  1  0  0  0  0
 23 22  1  0  0  0  0
 24 25  1  0  0  0  0
 24 21  1  0  0  0  0
 25 27  1  0  0  0  0
 26 25  1  0  0  0  0
 28 25  1  0  0  0  0
M  END
>  <minimizedAffinity>
-5.0019331

$$$$

 OpenBabel03242521593D

 28 29  0  0  0  0  0  0  0  0999 V2000
   37.1170   27.1750   41.2910 C   0  0  0  0  0  0  0  0  0  0  0  0
   37.2490   26.8520   42.6190 C   0  0  0  0  0  0  0  0  0  0  0  0
   37.6580   27.7420   43.6080 C   0  0  0  0  0  0  0  0  0  0  0  0
   37.9530   29.0390   43.2450 C   0  0  0  0  0  0  0  0  0  0  0  0
   37.8140   29.3390   41.9340 C   0  0  0  0  0  0  0  0  0  0  0  0
   37.4210   28.4710   41.0040 N   0  0  0  0  0  0  0  0  0  0  0  0
   36.9980   25.8030   42.8310 H   0  0  0  0  0  0  0  0  0  0  0  0
   37.6950   27.2750   44.5950 H   0  0  0  0  0  0  0  0  0  0  0  0
   38.2620   29.5600   44.1320 H   0  0  0  0  0  0  0  0  0  0  0  0
   36.2740   24.1070   39.2810 C   0  0  0  0  0  0  0  0  0  0  0  0
   36.7170   24.8620   40.3740 C   0  0  0  0  0  0  0  0  0  0  0  0
   36.6990   26.2280   40.2710 C   0  0  0  0  0  0  0  0  0  0  0  0
   36.2440   26.7770   39.0950 N   0  0  0  0  0  0  0  0  0  0  0  0
   35.8210   26.0330   38.0550 C   0  0  0  0  0  0  0  0  0  0  0  0
   35.8360   24.6980   38.1490 N   0  0  0  0  0  0  0  0  0  0  0  0
   36.3000   23.0480   39.3920 H   0  0  0  0  0  0  0  0  0  0  0  0
   37.0750   24.4610   41.2960 H   0  0  0  0  0  0  0  0  0  0  0  0
   35.4790   26.5420   37.1690 H   0  0  0  0  0  0  0  0  0  0  0  0
   38.1010   30.6350   41.5420 O   0  0  0  0  0  0  0  0  0  0  0  0
   40.4590   30.8790   40.3850 O   0  0  0  0  0  0  0  0  0  0  0  0
   38.9680   31.0140   40.1270 P   0  0  1  0  0  0  0  0  0  0  0  0
   38.5120   29.9550   38.8980 O   0  0  0  0  0  0  0  0  0  0  0  0
   39.1500   30.0330   38.1480 H   0  0  0  0  0  0  0  0  0  0  0  0
   38.6230   32.6260   39.7240 O   0  0  0  0  0  0  0  0  0  0  0  0
   37.3420   32.6760   39.1920 C   0  0  0  0  0  0  0  0  0  0  0  0
   37.3670   32.3420   37.8360 F   0  0  0  0  0  0  0  0  0  0  0  0
   36.8160   33.9470   39.2480 F   0  0  0  0  0  0  0  0  0  0  0  0
   36.4680   31.8190   39.8180 F   0  0  0  0  0  0  0  0  0  0  0  0
  1  2  1  0  0  0  0
  2  7  1  0  0  0  0
  2  3  2  0  0  0  0
  3  8  1  0  0  0  0
  4  3  1  0  0  0  0
  4  9  1  0  0  0  0
  5  4  2  0  0  0  0
  6  1  2  0  0  0  0
  6  5  1  0  0  0  0
 10 16  1  0  0  0  0
 10 11  1  0  0  0  0
 11 17  1  0  0  0  0
 12 11  2  0  0  0  0
 12  1  1  0  0  0  0
 13 12  1  0  0  0  0
 14 15  1  0  0  0  0
 14 13  2  0  0  0  0
 15 10  2  0  0  0  0
 18 14  1  0  0  0  0
 19  5  1  0  0  0  0
 21 20  2  1  0  0  0
 21 19  1  0  0  0  0
 22 21  1  0  0  0  0
 23 22  1  0  0  0  0
 24 21  1  0  0  0  0
 25 27  1  0  0  0  0
 25 24  1  0  0  0  0
 25 28  1  0  0  0  0
 26 25  1  0  0  0  0
M  END
>  <minimizedAffinity>
-4.93711233

$$$$

 OpenBabel03242521593D

 28 29  0  0  0  0  0  0  0  0999 V2000
   37.2850   27.0130   41.4180 C   0  0  0  0  0  0  0  0  0  0  0  0
   38.0630   26.9320   42.5470 C   0  0  0  0  0  0  0  0  0  0  0  0
   38.4030   28.0190   43.3480 C   0  0  0  0  0  0  0  0  0  0  0  0
   37.9310   29.2670   42.9980 C   0  0  0  0  0  0  0  0  0  0  0  0
   37.1660   29.3270   41.8860 C   0  0  0  0  0  0  0  0  0  0  0  0
   36.8540   28.2730   41.1330 N   0  0  0  0  0  0  0  0  0  0  0  0
   38.4000   25.9080   42.7610 H   0  0  0  0  0  0  0  0  0  0  0  0
   39.0290   27.7290   44.1940 H   0  0  0  0  0  0  0  0  0  0  0  0
   38.3090   29.9670   43.7190 H   0  0  0  0  0  0  0  0  0  0  0  0
   36.1720   24.6950   38.6710 C   0  0  0  0  0  0  0  0  0  0  0  0
   36.4320   25.9080   39.3200 C   0  0  0  0  0  0  0  0  0  0  0  0
   36.9510   25.8680   40.5870 C   0  0  0  0  0  0  0  0  0  0  0  0
   37.1860   24.6340   41.1470 N   0  0  0  0  0  0  0  0  0  0  0  0
   36.9290   23.4780   40.5050 C   0  0  0  0  0  0  0  0  0  0  0  0
   36.4220   23.5100   39.2670 N   0  0  0  0  0  0  0  0  0  0  0  0
   35.7690   24.7590   37.6860 H   0  0  0  0  0  0  0  0  0  0  0  0
   36.2580   26.8770   38.9090 H   0  0  0  0  0  0  0  0  0  0  0  0
   37.1420   22.5540   41.0150 H   0  0  0  0  0  0  0  0  0  0  0  0
   36.6780   30.5670   41.5130 O   0  0  0  0  0  0  0  0  0  0  0  0
   36.3860   30.9210   38.9150 O   0  0  0  0  0  0  0  0  0  0  0  0
   37.1910   31.3920   40.1140 P   0  0  1  0  0  0  0  0  0  0  0  0
   36.9590   33.0460   40.3320 O   0  0  0  0  0  0  0  0  0  0  0  0
   37.0570   33.5060   39.4640 H   0  0  0  0  0  0  0  0  0  0  0  0
   38.8260   31.0170   39.8620 O   0  0  0  0  0  0  0  0  0  0  0  0
   39.5960   31.9590   40.5290 C   0  0  0  0  0  0  0  0  0  0  0  0
   39.5900   33.1710   39.8330 F   0  0  0  0  0  0  0  0  0  0  0  0
   40.9180   31.5810   40.5980 F   0  0  0  0  0  0  0  0  0  0  0  0
   39.1510   32.2080   41.8060 F   0  0  0  0  0  0  0  0  0  0  0  0
  1  2  1  0  0  0  0
  2  7  1  0  0  0  0
  2  3  2  0  0  0  0
  3  8  1  0  0  0  0
  4  3  1  0  0  0  0
  4  9  1  0  0  0  0
  5  4  2  0  0  0  0
  6  1  2  0  0  0  0
  6  5  1  0  0  0  0
 10 15  2  0  0  0  0
 10 11  1  0  0  0  0
 11 12  2  0  0  0  0
 12 13  1  0  0  0  0
 12  1  1  0  0  0  0
 14 18  1  0  0  0  0
 14 13  2  0  0  0  0
 15 14  1  0  0  0  0
 16 10  1  0  0  0  0
 17 11  1  0  0  0  0
 19  5  1  0  0  0  0
 21 20  2  6  0  0  0
 21 22  1  0  0  0  0
 21 19  1  0  0  0  0
 23 22  1  0  0  0  0
 24 21  1  0  0  0  0
 24 25  1  0  0  0  0
 25 27  1  0  0  0  0
 25 28  1  0  0  0  0
 26 25  1  0  0  0  0
M  END
>  <minimizedAffinity>
-4.92592144

$$$$

 OpenBabel03242521593D

 28 29  0  0  0  0  0  0  0  0999 V2000
   38.0790   25.5460   41.9650 C   0  0  0  0  0  0  0  0  0  0  0  0
   39.1110   25.5180   42.8710 C   0  0  0  0  0  0  0  0  0  0  0  0
   39.4970   26.6000   43.6570 C   0  0  0  0  0  0  0  0  0  0  0  0
   38.8060   27.7860   43.5280 C   0  0  0  0  0  0  0  0  0  0  0  0
   37.7930   27.7950   42.6330 C   0  0  0  0  0  0  0  0  0  0  0  0
   37.4410   26.7470   41.8910 N   0  0  0  0  0  0  0  0  0  0  0  0
   39.6120   24.5410   42.9180 H   0  0  0  0  0  0  0  0  0  0  0  0
   40.3400   26.3580   44.3080 H   0  0  0  0  0  0  0  0  0  0  0  0
   39.2580   28.4960   44.1960 H   0  0  0  0  0  0  0  0  0  0  0  0
   37.9240   22.3000   40.0680 C   0  0  0  0  0  0  0  0  0  0  0  0
   38.4620   23.3010   40.8850 C   0  0  0  0  0  0  0  0  0  0  0  0
   37.6980   24.4080   41.1450 C   0  0  0  0  0  0  0  0  0  0  0  0
   36.4440   24.4690   40.5830 N   0  0  0  0  0  0  0  0  0  0  0  0
   35.9440   23.4940   39.7990 C   0  0  0  0  0  0  0  0  0  0  0  0
   36.6860   22.4100   39.5430 N   0  0  0  0  0  0  0  0  0  0  0  0
   38.5430   21.4510   39.8850 H   0  0  0  0  0  0  0  0  0  0  0  0
   39.4310   23.2790   41.3320 H   0  0  0  0  0  0  0  0  0  0  0  0
   34.9530   23.6190   39.3990 H   0  0  0  0  0  0  0  0  0  0  0  0
   37.0820   28.9720   42.4860 O   0  0  0  0  0  0  0  0  0  0  0  0
   36.5660   31.0970   41.0090 O   0  0  0  0  0  0  0  0  0  0  0  0
   36.5780   29.5780   40.9760 P   0  0  1  0  0  0  0  0  0  0  0  0
   37.6460   29.0510   39.7840 O   0  0  0  0  0  0  0  0  0  0  0  0
   37.4840   29.5590   38.9530 H   0  0  0  0  0  0  0  0  0  0  0  0
   35.0010   29.0210   40.6940 O   0  0  0  0  0  0  0  0  0  0  0  0
   34.7990   28.9640   39.3220 C   0  0  0  0  0  0  0  0  0  0  0  0
   35.3040   27.7670   38.8070 F   0  0  0  0  0  0  0  0  0  0  0  0
   35.4810   29.9630   38.6650 F   0  0  0  0  0  0  0  0  0  0  0  0
   33.4730   29.0440   38.9710 F   0  0  0  0  0  0  0  0  0  0  0  0
  1  2  1  0  0  0  0
  2  7  1  0  0  0  0
  2  3  2  0  0  0  0
  3  8  1  0  0  0  0
  4  3  1  0  0  0  0
  4  9  1  0  0  0  0
  5  4  2  0  0  0  0
  6  1  2  0  0  0  0
  6  5  1  0  0  0  0
 10 11  1  0  0  0  0
 11 12  2  0  0  0  0
 11 17  1  0  0  0  0
 12  1  1  0  0  0  0
 13 12  1  0  0  0  0
 14 13  2  0  0  0  0
 15 14  1  0  0  0  0
 15 10  2  0  0  0  0
 16 10  1  0  0  0  0
 18 14  1  0  0  0  0
 19  5  1  0  0  0  0
 21 20  2  1  0  0  0
 21 19  1  0  0  0  0
 22 21  1  0  0  0  0
 23 22  1  0  0  0  0
 24 21  1  0  0  0  0
 25 24  1  0  0  0  0
 26 25  1  0  0  0  0
 27 25  1  0  0  0  0
 28 25  1  0  0  0  0
M  END
>  <minimizedAffinity>
-4.88683558

$$$$

 OpenBabel03242521593D

 28 29  0  0  0  0  0  0  0  0999 V2000
   39.0350   32.0930   39.3790 C   0  0  0  0  0  0  0  0  0  0  0  0
   38.2380   31.8910   38.2790 C   0  0  0  0  0  0  0  0  0  0  0  0
   37.0220   31.2130   38.3010 C   0  0  0  0  0  0  0  0  0  0  0  0
   36.5750   30.7060   39.5030 C   0  0  0  0  0  0  0  0  0  0  0  0
   37.3700   30.9170   40.5750 C   0  0  0  0  0  0  0  0  0  0  0  0
   38.5310   31.5690   40.5300 N   0  0  0  0  0  0  0  0  0  0  0  0
   38.6600   32.3230   37.3600 H   0  0  0  0  0  0  0  0  0  0  0  0
   36.5550   31.1680   37.3150 H   0  0  0  0  0  0  0  0  0  0  0  0
   35.6410   30.2100   39.3150 H   0  0  0  0  0  0  0  0  0  0  0  0
   42.2720   33.7220   38.3660 C   0  0  0  0  0  0  0  0  0  0  0  0
   41.0680   33.0250   38.2160 C   0  0  0  0  0  0  0  0  0  0  0  0
   40.3070   32.7940   39.3330 C   0  0  0  0  0  0  0  0  0  0  0  0
   40.7760   33.2620   40.5370 N   0  0  0  0  0  0  0  0  0  0  0  0
   41.9390   33.9320   40.6610 C   0  0  0  0  0  0  0  0  0  0  0  0
   42.6860   34.1610   39.5740 N   0  0  0  0  0  0  0  0  0  0  0  0
   42.8410   33.8870   37.4800 H   0  0  0  0  0  0  0  0  0  0  0  0
   40.6810   32.6510   37.2950 H   0  0  0  0  0  0  0  0  0  0  0  0
   42.2340   34.2650   41.6410 H   0  0  0  0  0  0  0  0  0  0  0  0
   36.9430   30.4200   41.7940 O   0  0  0  0  0  0  0  0  0  0  0  0
   38.9270   29.5410   43.2940 O   0  0  0  0  0  0  0  0  0  0  0  0
   37.6710   29.0900   42.5690 P   0  0  1  0  0  0  0  0  0  0  0  0
   36.5860   28.4360   43.6800 O   0  0  0  0  0  0  0  0  0  0  0  0
   37.0640   27.8060   44.2710 H   0  0  0  0  0  0  0  0  0  0  0  0
   38.0980   27.9650   41.3740 O   0  0  0  0  0  0  0  0  0  0  0  0
   37.0110   27.1310   41.1540 C   0  0  0  0  0  0  0  0  0  0  0  0
   37.1610   26.4460   39.9450 F   0  0  0  0  0  0  0  0  0  0  0  0
   35.8390   27.8430   41.0290 F   0  0  0  0  0  0  0  0  0  0  0  0
   36.8430   26.1950   42.1470 F   0  0  0  0  0  0  0  0  0  0  0  0
  1  6  1  0  0  0  0
  2  3  1  0  0  0  0
  2  1  2  0  0  0  0
  3  4  2  0  0  0  0
  4  5  1  0  0  0  0
  5 19  1  0  0  0  0
  6  5  2  0  0  0  0
  7  2  1  0  0  0  0
  8  3  1  0  0  0  0
  9  4  1  0  0  0  0
 10 15  1  0  0  0  0
 11 10  2  0  0  0  0
 11 12  1  0  0  0  0
 12  1  1  0  0  0  0
 12 13  2  0  0  0  0
 13 14  1  0  0  0  0
 14 18  1  0  0  0  0
 15 14  2  0  0  0  0
 16 10  1  0  0  0  0
 17 11  1  0  0  0  0
 19 21  1  0  0  0  0
 21 20  2  1  0  0  0
 21 22  1  0  0  0  0
 22 23  1  0  0  0  0
 24 21  1  0  0  0  0
 25 24  1  0  0  0  0
 25 28  1  0  0  0  0
 26 25  1  0  0  0  0
 27 25  1  0  0  0  0
M  END
>  <minimizedAffinity>
-4.8636322

$$$$

 OpenBabel03242521593D

 28 29  0  0  0  0  0  0  0  0999 V2000
   37.8810   26.5210   41.8360 C   0  0  0  0  0  0  0  0  0  0  0  0
   37.1310   26.6400   42.9810 C   0  0  0  0  0  0  0  0  0  0  0  0
   36.9340   27.8320   43.6720 C   0  0  0  0  0  0  0  0  0  0  0  0
   37.5250   28.9790   43.1850 C   0  0  0  0  0  0  0  0  0  0  0  0
   38.2560   28.8440   42.0570 C   0  0  0  0  0  0  0  0  0  0  0  0
   38.4320   27.6920   41.4120 N   0  0  0  0  0  0  0  0  0  0  0  0
   36.6940   25.6850   43.3060 H   0  0  0  0  0  0  0  0  0  0  0  0
   36.3050   27.6990   44.5550 H   0  0  0  0  0  0  0  0  0  0  0  0
   37.2740   29.7800   43.8560 H   0  0  0  0  0  0  0  0  0  0  0  0
   37.6970   22.9980   40.5280 C   0  0  0  0  0  0  0  0  0  0  0  0
   37.3530   24.1170   41.2950 C   0  0  0  0  0  0  0  0  0  0  0  0
   38.0840   25.2650   41.1340 C   0  0  0  0  0  0  0  0  0  0  0  0
   39.1160   25.2460   40.2250 N   0  0  0  0  0  0  0  0  0  0  0  0
   39.4310   24.1580   39.4960 C   0  0  0  0  0  0  0  0  0  0  0  0
   38.7200   23.0350   39.6480 N   0  0  0  0  0  0  0  0  0  0  0  0
   37.1100   22.1200   40.6750 H   0  0  0  0  0  0  0  0  0  0  0  0
   36.5580   24.1570   42.0060 H   0  0  0  0  0  0  0  0  0  0  0  0
   40.2540   24.2280   38.8060 H   0  0  0  0  0  0  0  0  0  0  0  0
   38.8580   29.9800   41.5460 O   0  0  0  0  0  0  0  0  0  0  0  0
   40.2080   29.9280   39.2800 O   0  0  0  0  0  0  0  0  0  0  0  0
   38.8840   30.3590   39.8870 P   0  0  1  0  0  0  0  0  0  0  0  0
   37.6230   29.5510   39.1150 O   0  0  0  0  0  0  0  0  0  0  0  0
   37.7550   29.6000   38.1370 H   0  0  0  0  0  0  0  0  0  0  0  0
   38.7330   32.0420   39.7370 O   0  0  0  0  0  0  0  0  0  0  0  0
   37.3830   32.3520   39.6550 C   0  0  0  0  0  0  0  0  0  0  0  0
   37.1870   33.7230   39.8400 F   0  0  0  0  0  0  0  0  0  0  0  0
   36.6580   31.7400   40.6530 F   0  0  0  0  0  0  0  0  0  0  0  0
   36.8260   32.0080   38.4460 F   0  0  0  0  0  0  0  0  0  0  0  0
  1  2  1  0  0  0  0
  2  7  1  0  0  0  0
  2  3  2  0  0  0  0
  3  8  1  0  0  0  0
  4  3  1  0  0  0  0
  4  9  1  0  0  0  0
  5  4  2  0  0  0  0
  6  1  2  0  0  0  0
  6  5  1  0  0  0  0
 10 16  1  0  0  0  0
 10 11  1  0  0  0  0
 11 17  1  0  0  0  0
 12 11  2  0  0  0  0
 12  1  1  0  0  0  0
 13 12  1  0  0  0  0
 14 15  1  0  0  0  0
 14 13  2  0  0  0  0
 15 10  2  0  0  0  0
 18 14  1  0  0  0  0
 19  5  1  0  0  0  0
 21 20  2  6  0  0  0
 21 19  1  0  0  0  0
 22 21  1  0  0  0  0
 23 22  1  0  0  0  0
 24 21  1  0  0  0  0
 25 24  1  0  0  0  0
 25 26  1  0  0  0  0
 25 27  1  0  0  0  0
 28 25  1  0  0  0  0
M  END
>  <minimizedAffinity>
-4.8506422

$$$$
