
 OpenBabel03252507543D

 39 41  0  0  1  0  0  0  0  0999 V2000
   46.9900   34.8110   41.9660 C   0  0  2  0  0  0  0  0  0  0  0  0
   46.1840   34.2270   40.8020 C   0  0  0  0  0  0  0  0  0  0  0  0
   47.3610   34.0210   39.8230 C   0  0  0  0  0  0  0  0  0  0  0  0
   48.5100   33.6020   40.6870 C   0  0  1  0  0  0  0  0  0  0  0  0
   48.0320   33.7330   42.1040 C   0  0  0  0  0  0  0  0  0  0  0  0
   47.3740   35.7780   41.6420 H   0  0  0  0  0  0  0  0  0  0  0  0
   45.4730   34.9620   40.4190 H   0  0  0  0  0  0  0  0  0  0  0  0
   45.7470   33.2630   41.1000 H   0  0  0  0  0  0  0  0  0  0  0  0
   47.6120   35.0260   39.4190 H   0  0  0  0  0  0  0  0  0  0  0  0
   47.1080   33.3110   39.0250 H   0  0  0  0  0  0  0  0  0  0  0  0
   49.4170   34.2280   40.5150 H   0  0  0  0  0  0  0  0  0  0  0  0
   47.5900   32.8370   42.5350 H   0  0  0  0  0  0  0  0  0  0  0  0
   48.8570   34.1600   42.7200 H   0  0  0  0  0  0  0  0  0  0  0  0
   44.5180   35.9900   44.5520 C   0  0  0  0  0  0  0  0  0  0  0  0
   45.2290   35.9650   43.3570 C   0  0  0  0  0  0  0  0  0  0  0  0
   46.1480   34.9340   43.1910 C   0  0  0  0  0  0  0  0  0  0  0  0
   46.3320   33.9750   44.1980 N   0  0  0  0  0  0  0  0  0  0  0  0
   45.6060   34.0550   45.3430 C   0  0  0  0  0  0  0  0  0  0  0  0
   44.7030   35.0600   45.5150 N   0  0  0  0  0  0  0  0  0  0  0  0
   43.7970   36.7840   44.6990 H   0  0  0  0  0  0  0  0  0  0  0  0
   45.1180   36.6840   42.5600 H   0  0  0  0  0  0  0  0  0  0  0  0
   45.8060   33.2850   46.0590 H   0  0  0  0  0  0  0  0  0  0  0  0
   48.9430   32.1650   40.4960 C   0  0  2  0  0  0  0  0  0  0  0  0
   49.6080   31.5380   41.6270 C   0  0  0  0  0  0  0  0  0  0  0  0
   50.3530   31.8010   40.3560 C   0  0  1  0  0  0  0  0  0  0  0  0
   48.2130   31.5630   39.9240 H   0  0  0  0  0  0  0  0  0  0  0  0
   49.8950   32.1820   42.4870 H   0  0  0  0  0  0  0  0  0  0  0  0
   49.4080   30.4900   41.9350 H   0  0  0  0  0  0  0  0  0  0  0  0
   51.0290   32.6690   40.2210 H   0  0  0  0  0  0  0  0  0  0  0  0
   50.6520   30.6790   39.5400 O   0  0  0  0  0  0  0  0  0  0  0  0
   52.3250   29.9000   37.6970 O   0  0  0  0  0  0  0  0  0  0  0  0
   52.0170   31.0430   38.6310 P   0  0  1  0  0  0  0  0  0  0  0  0
   51.7310   32.4340   37.6700 O   0  0  0  0  0  0  0  0  0  0  0  0
   51.2100   32.1560   36.8760 H   0  0  0  0  0  0  0  0  0  0  0  0
   53.3730   31.3600   39.5410 O   0  0  0  0  0  0  0  0  0  0  0  0
   53.8090   30.1270   40.0770 C   0  0  0  0  0  0  0  0  0  0  0  0
   52.6900   29.4080   40.4360 F   0  0  0  0  0  0  0  0  0  0  0  0
   54.5660   29.4190   39.1870 F   0  0  0  0  0  0  0  0  0  0  0  0
   54.6110   30.3280   41.2000 F   0  0  0  0  0  0  0  0  0  0  0  0
  1  6  1  6  0  0  0
  1  5  1  0  0  0  0
  1 16  1  0  0  0  0
  2  8  1  0  0  0  0
  2  1  1  0  0  0  0
  3  4  1  0  0  0  0
  3  2  1  0  0  0  0
  4 11  1  6  0  0  0
  4  5  1  0  0  0  0
  5 12  1  0  0  0  0
  5 13  1  0  0  0  0
  7  2  1  0  0  0  0
  9  3  1  0  0  0  0
 10  3  1  0  0  0  0
 14 20  1  0  0  0  0
 14 19  1  0  0  0  0
 15 14  2  0  0  0  0
 16 15  1  0  0  0  0
 16 17  2  0  0  0  0
 17 18  1  0  0  0  0
 18 19  2  0  0  0  0
 18 22  1  0  0  0  0
 21 15  1  0  0  0  0
 23 26  1  6  0  0  0
 23  4  1  0  0  0  0
 23 24  1  0  0  0  0
 24 28  1  0  0  0  0
 24 27  1  0  0  0  0
 25 29  1  1  0  0  0
 25 23  1  0  0  0  0
 25 24  1  0  0  0  0
 30 25  1  0  0  0  0
 32 31  2  6  0  0  0
 32 30  1  0  0  0  0
 32 35  1  0  0  0  0
 33 32  1  0  0  0  0
 34 33  1  0  0  0  0
 35 36  1  0  0  0  0
 36 37  1  0  0  0  0
 36 39  1  0  0  0  0
 38 36  1  0  0  0  0
M  END
>  <minimizedAffinity>
-5.04533958

>  <minimizedRMSD>
0.529338837

$$$$
