
 OpenBabel03252501203D

 21 21  0  0  0  0  0  0  0  0999 V2000
   39.8480   28.9530   42.8350 C   0  0  0  0  0  0  0  0  0  0  0  0
   38.5080   28.5880   42.6590 C   0  0  0  0  0  0  0  0  0  0  0  0
   38.2050   27.2470   42.8440 C   0  0  0  0  0  0  0  0  0  0  0  0
   39.2010   26.3700   43.1780 N   0  0  0  0  0  0  0  0  0  0  0  0
   40.4710   26.7610   43.3350 C   0  0  0  0  0  0  0  0  0  0  0  0
   40.7970   28.0600   43.1620 N   0  0  0  0  0  0  0  0  0  0  0  0
   40.1790   29.9860   42.7100 H   0  0  0  0  0  0  0  0  0  0  0  0
   41.1890   25.9980   43.5990 H   0  0  0  0  0  0  0  0  0  0  0  0
   36.7970   26.8840   42.6660 C   0  0  0  0  0  0  0  0  0  0  0  0
   36.6680   25.4930   42.7090 F   0  0  0  0  0  0  0  0  0  0  0  0
   36.4520   27.2470   41.3920 F   0  0  0  0  0  0  0  0  0  0  0  0
   35.9980   27.3880   43.6410 F   0  0  0  0  0  0  0  0  0  0  0  0
   37.4980   29.5780   42.2900 C   0  0  0  0  0  0  0  0  0  0  0  0
   36.5450   29.2060   41.9330 H   0  0  0  0  0  0  0  0  0  0  0  0
   37.3630   30.3700   43.0550 H   0  0  0  0  0  0  0  0  0  0  0  0
   37.9150   30.2410   41.0460 N   0  0  0  0  0  0  0  0  0  0  0  0
   38.8590   30.6320   41.0990 H   0  0  0  0  0  0  0  0  0  0  0  0
   36.9110   31.1910   40.6110 C   0  0  0  0  0  0  0  0  0  0  0  0
   37.4100   32.4790   40.7200 F   0  0  0  0  0  0  0  0  0  0  0  0
   35.8320   31.1150   41.4550 F   0  0  0  0  0  0  0  0  0  0  0  0
   36.5570   30.9890   39.2940 F   0  0  0  0  0  0  0  0  0  0  0  0
  1  6  1  0  0  0  0
  2  1  2  0  0  0  0
  2  3  1  0  0  0  0
  3  4  2  0  0  0  0
  4  5  1  0  0  0  0
  5  8  1  0  0  0  0
  6  5  2  0  0  0  0
  7  1  1  0  0  0  0
  9 10  1  0  0  0  0
  9  3  1  0  0  0  0
  9 12  1  0  0  0  0
 11  9  1  0  0  0  0
 13  2  1  0  0  0  0
 13 15  1  0  0  0  0
 14 13  1  0  0  0  0
 16 17  1  0  0  0  0
 16 13  1  0  0  0  0
 18 19  1  0  0  0  0
 18 16  1  0  0  0  0
 18 20  1  0  0  0  0
 21 18  1  0  0  0  0
M  END
>  <minimizedAffinity>
-4.54517174

$$$$

 OpenBabel03252501203D

 21 21  0  0  0  0  0  0  0  0999 V2000
   37.1390   32.2220   40.1810 C   0  0  0  0  0  0  0  0  0  0  0  0
   37.6650   31.2070   40.9880 C   0  0  0  0  0  0  0  0  0  0  0  0
   38.9620   31.3920   41.4450 C   0  0  0  0  0  0  0  0  0  0  0  0
   39.6460   32.5240   41.0940 N   0  0  0  0  0  0  0  0  0  0  0  0
   39.1060   33.4700   40.3180 C   0  0  0  0  0  0  0  0  0  0  0  0
   37.8450   33.3200   39.8580 N   0  0  0  0  0  0  0  0  0  0  0  0
   36.1270   32.1630   39.7760 H   0  0  0  0  0  0  0  0  0  0  0  0
   39.7220   34.3290   40.0920 H   0  0  0  0  0  0  0  0  0  0  0  0
   39.4930   30.3250   42.2970 C   0  0  0  0  0  0  0  0  0  0  0  0
   40.7170   30.7290   42.8370 F   0  0  0  0  0  0  0  0  0  0  0  0
   39.7840   29.2700   41.4750 F   0  0  0  0  0  0  0  0  0  0  0  0
   38.6750   30.0300   43.3390 F   0  0  0  0  0  0  0  0  0  0  0  0
   36.8790   30.0180   41.3140 C   0  0  0  0  0  0  0  0  0  0  0  0
   37.0350   29.1370   40.7030 H   0  0  0  0  0  0  0  0  0  0  0  0
   36.8920   29.7710   42.3940 H   0  0  0  0  0  0  0  0  0  0  0  0
   35.4780   30.2570   40.9370 N   0  0  0  0  0  0  0  0  0  0  0  0
   34.8560   30.3320   41.7450 H   0  0  0  0  0  0  0  0  0  0  0  0
   35.0420   29.2900   39.9500 C   0  0  0  0  0  0  0  0  0  0  0  0
   33.6650   29.1560   40.0050 F   0  0  0  0  0  0  0  0  0  0  0  0
   35.5690   28.0630   40.2670 F   0  0  0  0  0  0  0  0  0  0  0  0
   35.3740   29.6850   38.6710 F   0  0  0  0  0  0  0  0  0  0  0  0
  1  2  1  0  0  0  0
  2 13  1  0  0  0  0
  2  3  2  0  0  0  0
  3  9  1  0  0  0  0
  4  3  1  0  0  0  0
  5  4  2  0  0  0  0
  6  1  2  0  0  0  0
  6  5  1  0  0  0  0
  7  1  1  0  0  0  0
  8  5  1  0  0  0  0
  9 10  1  0  0  0  0
  9 12  1  0  0  0  0
 11  9  1  0  0  0  0
 13 15  1  0  0  0  0
 14 13  1  0  0  0  0
 16 13  1  0  0  0  0
 16 17  1  0  0  0  0
 18 19  1  0  0  0  0
 18 20  1  0  0  0  0
 18 16  1  0  0  0  0
 21 18  1  0  0  0  0
M  END
>  <minimizedAffinity>
-4.4771924

$$$$

 OpenBabel03252501203D

 21 21  0  0  0  0  0  0  0  0999 V2000
   39.3670   30.3960   42.4680 C   0  0  0  0  0  0  0  0  0  0  0  0
   38.3600   30.4620   41.4980 C   0  0  0  0  0  0  0  0  0  0  0  0
   38.5880   31.3170   40.4290 C   0  0  0  0  0  0  0  0  0  0  0  0
   39.7520   32.0350   40.3770 N   0  0  0  0  0  0  0  0  0  0  0  0
   40.6890   31.9430   41.3270 C   0  0  0  0  0  0  0  0  0  0  0  0
   40.4960   31.1190   42.3790 N   0  0  0  0  0  0  0  0  0  0  0  0
   39.2740   29.7510   43.3430 H   0  0  0  0  0  0  0  0  0  0  0  0
   41.5750   32.5480   41.2010 H   0  0  0  0  0  0  0  0  0  0  0  0
   37.5290   31.3670   39.4180 C   0  0  0  0  0  0  0  0  0  0  0  0
   37.4950   30.1560   38.7220 F   0  0  0  0  0  0  0  0  0  0  0  0
   37.9030   32.3110   38.5000 F   0  0  0  0  0  0  0  0  0  0  0  0
   36.2970   31.5510   39.9580 F   0  0  0  0  0  0  0  0  0  0  0  0
   37.1350   29.6740   41.6260 C   0  0  0  0  0  0  0  0  0  0  0  0
   36.1950   30.2130   41.6230 H   0  0  0  0  0  0  0  0  0  0  0  0
   37.1050   28.8020   40.9420 H   0  0  0  0  0  0  0  0  0  0  0  0
   37.0460   29.1550   42.9980 N   0  0  0  0  0  0  0  0  0  0  0  0
   37.7650   29.5380   43.6170 H   0  0  0  0  0  0  0  0  0  0  0  0
   36.9870   27.7080   42.9950 C   0  0  0  0  0  0  0  0  0  0  0  0
   35.8600   27.2840   43.6800 F   0  0  0  0  0  0  0  0  0  0  0  0
   38.0710   27.2170   43.6800 F   0  0  0  0  0  0  0  0  0  0  0  0
   36.9110   27.2050   41.7130 F   0  0  0  0  0  0  0  0  0  0  0  0
  1  7  1  0  0  0  0
  2 13  1  0  0  0  0
  2  1  2  0  0  0  0
  3  2  1  0  0  0  0
  4  3  2  0  0  0  0
  4  5  1  0  0  0  0
  5  6  2  0  0  0  0
  6  1  1  0  0  0  0
  8  5  1  0  0  0  0
  9 12  1  0  0  0  0
  9  3  1  0  0  0  0
 10  9  1  0  0  0  0
 11  9  1  0  0  0  0
 13 16  1  0  0  0  0
 14 13  1  0  0  0  0
 15 13  1  0  0  0  0
 16 17  1  0  0  0  0
 18 16  1  0  0  0  0
 18 19  1  0  0  0  0
 18 20  1  0  0  0  0
 21 18  1  0  0  0  0
M  END
>  <minimizedAffinity>
-4.3892231

$$$$

 OpenBabel03252501203D

 21 21  0  0  0  0  0  0  0  0999 V2000
   39.3570   27.8810   43.3010 C   0  0  0  0  0  0  0  0  0  0  0  0
   38.2030   27.2300   42.8510 C   0  0  0  0  0  0  0  0  0  0  0  0
   38.3920   26.0230   42.1940 C   0  0  0  0  0  0  0  0  0  0  0  0
   39.6610   25.5410   42.0200 N   0  0  0  0  0  0  0  0  0  0  0  0
   40.7380   26.1970   42.4650 C   0  0  0  0  0  0  0  0  0  0  0  0
   40.5870   27.3740   43.1090 N   0  0  0  0  0  0  0  0  0  0  0  0
   39.3050   28.8360   43.8280 H   0  0  0  0  0  0  0  0  0  0  0  0
   41.7000   25.7400   42.2820 H   0  0  0  0  0  0  0  0  0  0  0  0
   37.1730   25.3490   41.7390 C   0  0  0  0  0  0  0  0  0  0  0  0
   37.5150   24.1560   41.0980 F   0  0  0  0  0  0  0  0  0  0  0  0
   36.6200   26.1430   40.7700 F   0  0  0  0  0  0  0  0  0  0  0  0
   36.3390   25.0290   42.7610 F   0  0  0  0  0  0  0  0  0  0  0  0
   36.8770   27.8100   43.0620 C   0  0  0  0  0  0  0  0  0  0  0  0
   36.1170   27.5940   42.3210 H   0  0  0  0  0  0  0  0  0  0  0  0
   36.4950   27.6600   44.0910 H   0  0  0  0  0  0  0  0  0  0  0  0
   36.9520   29.2600   42.8320 N   0  0  0  0  0  0  0  0  0  0  0  0
   36.5050   29.8050   43.5730 H   0  0  0  0  0  0  0  0  0  0  0  0
   36.4870   29.5910   41.5010 C   0  0  0  0  0  0  0  0  0  0  0  0
   36.0450   30.9040   41.4730 F   0  0  0  0  0  0  0  0  0  0  0  0
   35.4020   28.8060   41.2000 F   0  0  0  0  0  0  0  0  0  0  0  0
   37.4930   29.4690   40.5660 F   0  0  0  0  0  0  0  0  0  0  0  0
  1  7  1  0  0  0  0
  2 13  1  0  0  0  0
  2  1  2  0  0  0  0
  3  2  1  0  0  0  0
  4  3  2  0  0  0  0
  4  5  1  0  0  0  0
  5  6  2  0  0  0  0
  6  1  1  0  0  0  0
  8  5  1  0  0  0  0
  9  3  1  0  0  0  0
  9 12  1  0  0  0  0
 10  9  1  0  0  0  0
 11  9  1  0  0  0  0
 13 15  1  0  0  0  0
 14 13  1  0  0  0  0
 16 13  1  0  0  0  0
 16 17  1  0  0  0  0
 18 16  1  0  0  0  0
 19 18  1  0  0  0  0
 20 18  1  0  0  0  0
 21 18  1  0  0  0  0
M  END
>  <minimizedAffinity>
-4.3765583

$$$$

 OpenBabel03252501203D

 21 21  0  0  0  0  0  0  0  0999 V2000
   35.9140   28.1820   38.7110 C   0  0  0  0  0  0  0  0  0  0  0  0
   36.1340   29.0440   39.7910 C   0  0  0  0  0  0  0  0  0  0  0  0
   36.6460   30.2980   39.4860 C   0  0  0  0  0  0  0  0  0  0  0  0
   36.9050   30.6210   38.1810 N   0  0  0  0  0  0  0  0  0  0  0  0
   36.6820   29.7650   37.1780 C   0  0  0  0  0  0  0  0  0  0  0  0
   36.1830   28.5380   37.4430 N   0  0  0  0  0  0  0  0  0  0  0  0
   35.5140   27.1770   38.8550 H   0  0  0  0  0  0  0  0  0  0  0  0
   36.9170   30.1070   36.1800 H   0  0  0  0  0  0  0  0  0  0  0  0
   36.8610   31.1920   40.6260 C   0  0  0  0  0  0  0  0  0  0  0  0
   37.0200   32.5010   40.1650 F   0  0  0  0  0  0  0  0  0  0  0  0
   38.0650   30.8460   41.1790 F   0  0  0  0  0  0  0  0  0  0  0  0
   35.8150   31.1980   41.4910 F   0  0  0  0  0  0  0  0  0  0  0  0
   35.8450   28.6270   41.1620 C   0  0  0  0  0  0  0  0  0  0  0  0
   35.9540   29.3720   41.9410 H   0  0  0  0  0  0  0  0  0  0  0  0
   34.8870   28.0780   41.2570 H   0  0  0  0  0  0  0  0  0  0  0  0
   36.9120   27.7250   41.6180 N   0  0  0  0  0  0  0  0  0  0  0  0
   36.7920   26.7650   41.2860 H   0  0  0  0  0  0  0  0  0  0  0  0
   37.0910   27.8300   43.0520 C   0  0  0  0  0  0  0  0  0  0  0  0
   38.1960   27.0900   43.4400 F   0  0  0  0  0  0  0  0  0  0  0  0
   36.0050   27.2710   43.6780 F   0  0  0  0  0  0  0  0  0  0  0  0
   37.3030   29.1350   43.4440 F   0  0  0  0  0  0  0  0  0  0  0  0
  1  7  1  0  0  0  0
  1  2  1  0  0  0  0
  2 13  1  0  0  0  0
  3  2  2  0  0  0  0
  3  9  1  0  0  0  0
  4  3  1  0  0  0  0
  5  6  1  0  0  0  0
  5  4  2  0  0  0  0
  6  1  2  0  0  0  0
  8  5  1  0  0  0  0
  9 11  1  0  0  0  0
  9 12  1  0  0  0  0
 10  9  1  0  0  0  0
 13 15  1  0  0  0  0
 13 16  1  0  0  0  0
 13 14  1  0  0  0  0
 16 18  1  0  0  0  0
 17 16  1  0  0  0  0
 18 19  1  0  0  0  0
 18 21  1  0  0  0  0
 18 20  1  0  0  0  0
M  END
>  <minimizedAffinity>
-4.30990601

$$$$

 OpenBabel03252501203D

 21 21  0  0  0  0  0  0  0  0999 V2000
   35.1760   29.2000   39.8670 C   0  0  0  0  0  0  0  0  0  0  0  0
   36.0650   30.2810   39.8470 C   0  0  0  0  0  0  0  0  0  0  0  0
   36.5730   30.6390   38.6060 C   0  0  0  0  0  0  0  0  0  0  0  0
   36.1920   29.9380   37.4940 N   0  0  0  0  0  0  0  0  0  0  0  0
   35.3400   28.9090   37.5580 C   0  0  0  0  0  0  0  0  0  0  0  0
   34.8280   28.5380   38.7510 N   0  0  0  0  0  0  0  0  0  0  0  0
   34.7270   28.8490   40.7970 H   0  0  0  0  0  0  0  0  0  0  0  0
   35.0970   28.4150   36.6280 H   0  0  0  0  0  0  0  0  0  0  0  0
   37.4950   31.7770   38.6010 C   0  0  0  0  0  0  0  0  0  0  0  0
   37.9320   32.0140   37.2950 F   0  0  0  0  0  0  0  0  0  0  0  0
   38.6080   31.3890   39.2970 F   0  0  0  0  0  0  0  0  0  0  0  0
   36.9150   32.9230   39.0420 F   0  0  0  0  0  0  0  0  0  0  0  0
   36.4370   30.9770   41.0780 C   0  0  0  0  0  0  0  0  0  0  0  0
   37.4360   31.3910   41.1310 H   0  0  0  0  0  0  0  0  0  0  0  0
   35.6750   31.7090   41.4110 H   0  0  0  0  0  0  0  0  0  0  0  0
   36.5910   29.9870   42.1540 N   0  0  0  0  0  0  0  0  0  0  0  0
   36.0680   30.2310   42.9980 H   0  0  0  0  0  0  0  0  0  0  0  0
   37.9920   29.7070   42.3940 C   0  0  0  0  0  0  0  0  0  0  0  0
   38.4140   28.6870   41.5580 F   0  0  0  0  0  0  0  0  0  0  0  0
   38.1400   29.2480   43.6790 F   0  0  0  0  0  0  0  0  0  0  0  0
   38.7810   30.8090   42.1420 F   0  0  0  0  0  0  0  0  0  0  0  0
  1  7  1  0  0  0  0
  2  1  1  0  0  0  0
  2 13  1  0  0  0  0
  3  2  2  0  0  0  0
  4  5  2  0  0  0  0
  4  3  1  0  0  0  0
  5  6  1  0  0  0  0
  6  1  2  0  0  0  0
  8  5  1  0  0  0  0
  9  3  1  0  0  0  0
  9 12  1  0  0  0  0
  9 11  1  0  0  0  0
 10  9  1  0  0  0  0
 13 14  1  0  0  0  0
 13 15  1  0  0  0  0
 13 16  1  0  0  0  0
 16 18  1  0  0  0  0
 16 17  1  0  0  0  0
 18 20  1  0  0  0  0
 19 18  1  0  0  0  0
 21 18  1  0  0  0  0
M  END
>  <minimizedAffinity>
-4.26709032

$$$$

 OpenBabel03252501203D

 21 21  0  0  0  0  0  0  0  0999 V2000
   39.4710   29.0290   42.3960 C   0  0  0  0  0  0  0  0  0  0  0  0
   38.4690   29.5780   41.5880 C   0  0  0  0  0  0  0  0  0  0  0  0
   37.1880   29.0750   41.7660 C   0  0  0  0  0  0  0  0  0  0  0  0
   36.9720   28.0940   42.6950 N   0  0  0  0  0  0  0  0  0  0  0  0
   37.9590   27.5960   43.4470 C   0  0  0  0  0  0  0  0  0  0  0  0
   39.2170   28.0650   43.2980 N   0  0  0  0  0  0  0  0  0  0  0  0
   40.5070   29.3630   42.3250 H   0  0  0  0  0  0  0  0  0  0  0  0
   37.6940   26.8230   44.1550 H   0  0  0  0  0  0  0  0  0  0  0  0
   36.1490   29.6670   40.9190 C   0  0  0  0  0  0  0  0  0  0  0  0
   34.9820   28.9040   41.0150 F   0  0  0  0  0  0  0  0  0  0  0  0
   36.5710   29.5330   39.6240 F   0  0  0  0  0  0  0  0  0  0  0  0
   35.8300   30.9330   41.2890 F   0  0  0  0  0  0  0  0  0  0  0  0
   38.7750   30.6170   40.6050 C   0  0  0  0  0  0  0  0  0  0  0  0
   39.7250   30.5490   40.0900 H   0  0  0  0  0  0  0  0  0  0  0  0
   37.9420   30.8060   39.8980 H   0  0  0  0  0  0  0  0  0  0  0  0
   39.0390   31.8770   41.3150 N   0  0  0  0  0  0  0  0  0  0  0  0
   38.6330   31.8990   42.2540 H   0  0  0  0  0  0  0  0  0  0  0  0
   38.6740   33.0130   40.4930 C   0  0  0  0  0  0  0  0  0  0  0  0
   39.5460   33.1140   39.4220 F   0  0  0  0  0  0  0  0  0  0  0  0
   38.8210   34.1610   41.2300 F   0  0  0  0  0  0  0  0  0  0  0  0
   37.3990   32.8820   39.9840 F   0  0  0  0  0  0  0  0  0  0  0  0
  1  6  1  0  0  0  0
  2  3  1  0  0  0  0
  2  1  2  0  0  0  0
  3  4  2  0  0  0  0
  4  5  1  0  0  0  0
  5  8  1  0  0  0  0
  6  5  2  0  0  0  0
  7  1  1  0  0  0  0
  9 10  1  0  0  0  0
  9 12  1  0  0  0  0
  9  3  1  0  0  0  0
 11  9  1  0  0  0  0
 13 16  1  0  0  0  0
 13  2  1  0  0  0  0
 14 13  1  0  0  0  0
 15 13  1  0  0  0  0
 16 17  1  0  0  0  0
 18 20  1  0  0  0  0
 18 16  1  0  0  0  0
 19 18  1  0  0  0  0
 21 18  1  0  0  0  0
M  END
>  <minimizedAffinity>
-4.06729317

$$$$

 OpenBabel03252501203D

 21 21  0  0  0  0  0  0  0  0999 V2000
   38.4790   29.0310   39.2450 C   0  0  0  0  0  0  0  0  0  0  0  0
   38.7460   28.9410   40.6160 C   0  0  0  0  0  0  0  0  0  0  0  0
   39.0970   30.1220   41.2560 C   0  0  0  0  0  0  0  0  0  0  0  0
   39.1640   31.2840   40.5360 N   0  0  0  0  0  0  0  0  0  0  0  0
   38.9020   31.3260   39.2250 C   0  0  0  0  0  0  0  0  0  0  0  0
   38.5580   30.1940   38.5750 N   0  0  0  0  0  0  0  0  0  0  0  0
   38.1970   28.1550   38.6600 H   0  0  0  0  0  0  0  0  0  0  0  0
   38.9810   32.2890   38.7400 H   0  0  0  0  0  0  0  0  0  0  0  0
   39.3630   30.0120   42.6920 C   0  0  0  0  0  0  0  0  0  0  0  0
   39.8210   31.2400   43.1740 F   0  0  0  0  0  0  0  0  0  0  0  0
   40.4120   29.1450   42.8350 F   0  0  0  0  0  0  0  0  0  0  0  0
   38.2540   29.6910   43.4070 F   0  0  0  0  0  0  0  0  0  0  0  0
   38.6660   27.6610   41.3190 C   0  0  0  0  0  0  0  0  0  0  0  0
   38.9930   26.7790   40.7830 H   0  0  0  0  0  0  0  0  0  0  0  0
   39.0950   27.6980   42.3410 H   0  0  0  0  0  0  0  0  0  0  0  0
   37.2520   27.2820   41.4530 N   0  0  0  0  0  0  0  0  0  0  0  0
   36.6100   28.0350   41.1910 H   0  0  0  0  0  0  0  0  0  0  0  0
   36.9940   26.7240   42.7650 C   0  0  0  0  0  0  0  0  0  0  0  0
   38.1530   26.7580   43.5220 F   0  0  0  0  0  0  0  0  0  0  0  0
   36.6540   25.4020   42.6270 F   0  0  0  0  0  0  0  0  0  0  0  0
   36.0310   27.4420   43.4420 F   0  0  0  0  0  0  0  0  0  0  0  0
  1  2  1  0  0  0  0
  2  3  2  0  0  0  0
  2 13  1  0  0  0  0
  3  9  1  0  0  0  0
  4  3  1  0  0  0  0
  5  4  2  0  0  0  0
  6  5  1  0  0  0  0
  6  1  2  0  0  0  0
  7  1  1  0  0  0  0
  8  5  1  0  0  0  0
  9 11  1  0  0  0  0
  9 10  1  0  0  0  0
  9 12  1  0  0  0  0
 13 16  1  0  0  0  0
 13 15  1  0  0  0  0
 14 13  1  0  0  0  0
 16 18  1  0  0  0  0
 17 16  1  0  0  0  0
 18 21  1  0  0  0  0
 18 19  1  0  0  0  0
 20 18  1  0  0  0  0
M  END
>  <minimizedAffinity>
-4.05174065

$$$$

 OpenBabel03252501203D

 21 21  0  0  0  0  0  0  0  0999 V2000
   39.5690   27.6010   40.5290 C   0  0  0  0  0  0  0  0  0  0  0  0
   38.5290   28.1480   41.2890 C   0  0  0  0  0  0  0  0  0  0  0  0
   37.7980   27.2590   42.0640 C   0  0  0  0  0  0  0  0  0  0  0  0
   38.1180   25.9290   42.0480 N   0  0  0  0  0  0  0  0  0  0  0  0
   39.1210   25.4470   41.3050 C   0  0  0  0  0  0  0  0  0  0  0  0
   39.8510   26.2870   40.5400 N   0  0  0  0  0  0  0  0  0  0  0  0
   40.1970   28.2240   39.8890 H   0  0  0  0  0  0  0  0  0  0  0  0
   39.3000   24.3820   41.3550 H   0  0  0  0  0  0  0  0  0  0  0  0
   36.7200   27.8500   42.8610 C   0  0  0  0  0  0  0  0  0  0  0  0
   36.1540   26.8660   43.6770 F   0  0  0  0  0  0  0  0  0  0  0  0
   35.7340   28.2140   41.9850 F   0  0  0  0  0  0  0  0  0  0  0  0
   37.1550   28.8430   43.6780 F   0  0  0  0  0  0  0  0  0  0  0  0
   38.2360   29.5800   41.2480 C   0  0  0  0  0  0  0  0  0  0  0  0
   37.4030   29.9330   41.8440 H   0  0  0  0  0  0  0  0  0  0  0  0
   39.1350   30.2130   41.3910 H   0  0  0  0  0  0  0  0  0  0  0  0
   37.6740   29.9110   39.9310 N   0  0  0  0  0  0  0  0  0  0  0  0
   38.3630   30.3200   39.2950 H   0  0  0  0  0  0  0  0  0  0  0  0
   36.4680   30.7010   40.0730 C   0  0  0  0  0  0  0  0  0  0  0  0
   36.5900   31.8750   39.3470 F   0  0  0  0  0  0  0  0  0  0  0  0
   36.3280   31.0660   41.3890 F   0  0  0  0  0  0  0  0  0  0  0  0
   35.3610   30.0290   39.6000 F   0  0  0  0  0  0  0  0  0  0  0  0
  1  6  2  0  0  0  0
  1  2  1  0  0  0  0
  2  3  2  0  0  0  0
  3  9  1  0  0  0  0
  4  3  1  0  0  0  0
  5  8  1  0  0  0  0
  5  4  2  0  0  0  0
  6  5  1  0  0  0  0
  7  1  1  0  0  0  0
  9 10  1  0  0  0  0
  9 12  1  0  0  0  0
 11  9  1  0  0  0  0
 13  2  1  0  0  0  0
 13 15  1  0  0  0  0
 13 14  1  0  0  0  0
 16 18  1  0  0  0  0
 16 13  1  0  0  0  0
 17 16  1  0  0  0  0
 18 20  1  0  0  0  0
 19 18  1  0  0  0  0
 21 18  1  0  0  0  0
M  END
>  <minimizedAffinity>
-4.02917576

$$$$
