
 OpenBabel03252500243D

 32 33  0  0  1  0  0  0  0  0999 V2000
   45.1790   31.8050   48.0930 O   0  0  0  0  0  0  0  0  0  0  0  0
   46.9730   30.2390   48.1830 C   0  0  2  0  0  0  0  0  0  0  0  0
   45.5220   30.4820   48.2760 C   0  0  2  0  0  0  0  0  0  0  0  0
   44.9250   29.5750   47.2670 C   0  0  0  0  0  0  0  0  0  0  0  0
   45.7530   28.4710   47.1590 O   0  0  0  0  0  0  0  0  0  0  0  0
   46.8920   28.7140   47.8440 C   0  0  0  0  0  0  0  0  0  0  0  0
   47.6190   30.5450   47.4040 H   0  0  0  0  0  0  0  0  0  0  0  0
   45.2060   30.2140   49.2940 H   0  0  0  0  0  0  0  0  0  0  0  0
   43.9870   29.1360   47.7330 H   0  0  0  0  0  0  0  0  0  0  0  0
   44.5420   29.9940   46.3430 H   0  0  0  0  0  0  0  0  0  0  0  0
   46.7760   28.2650   48.8760 H   0  0  0  0  0  0  0  0  0  0  0  0
   47.8320   28.3400   47.4430 H   0  0  0  0  0  0  0  0  0  0  0  0
   47.6970   30.4430   49.3050 O   0  0  0  0  0  0  0  0  0  0  0  0
   48.9870   30.5150   49.4710 C   0  0  0  0  0  0  0  0  0  0  0  0
   49.2510   31.9190   49.6410 F   0  0  0  0  0  0  0  0  0  0  0  0
   49.8890   30.1900   48.5000 F   0  0  0  0  0  0  0  0  0  0  0  0
   49.4390   30.0410   50.7310 F   0  0  0  0  0  0  0  0  0  0  0  0
   47.3640   32.8870   47.3550 O   0  0  0  0  0  0  0  0  0  0  0  0
   46.0320   32.4390   46.8200 P   0  0  1  0  0  0  0  0  0  0  0  0
   46.2920   31.2440   45.6480 O   0  0  0  0  0  0  0  0  0  0  0  0
   45.7740   31.4980   44.8570 H   0  0  0  0  0  0  0  0  0  0  0  0
   45.2860   33.8070   46.1350 O   0  0  0  0  0  0  0  0  0  0  0  0
   45.2240   35.9040   43.2550 C   0  0  0  0  0  0  0  0  0  0  0  0
   46.2800   35.3960   42.4320 C   0  0  0  0  0  0  0  0  0  0  0  0
   46.9960   34.3050   42.9340 C   0  0  0  0  0  0  0  0  0  0  0  0
   46.6530   33.8060   44.1400 N   0  0  0  0  0  0  0  0  0  0  0  0
   45.6470   34.3170   44.8860 C   0  0  0  0  0  0  0  0  0  0  0  0
   44.9440   35.3620   44.4320 N   0  0  0  0  0  0  0  0  0  0  0  0
   46.5090   35.8420   41.4640 H   0  0  0  0  0  0  0  0  0  0  0  0
   47.8050   33.8840   42.3470 H   0  0  0  0  0  0  0  0  0  0  0  0
   44.5190   36.9830   42.7620 O   0  0  0  0  0  0  0  0  0  0  0  0
   45.0700   37.7010   42.2720 H   0  0  0  0  0  0  0  0  0  0  0  0
  1  3  1  0  0  0  0
  2  7  1  6  0  0  0
  2  3  1  0  0  0  0
  2 13  1  0  0  0  0
  3  8  1  1  0  0  0
  4  9  1  0  0  0  0
  4  3  1  0  0  0  0
  5  4  1  0  0  0  0
  5  6  1  0  0  0  0
  6  2  1  0  0  0  0
  6 11  1  0  0  0  0
 10  4  1  0  0  0  0
 12  6  1  0  0  0  0
 13 14  1  0  0  0  0
 14 15  1  0  0  0  0
 14 17  1  0  0  0  0
 16 14  1  0  0  0  0
 19 18  2  1  0  0  0
 19  1  1  0  0  0  0
 20 19  1  0  0  0  0
 21 20  1  0  0  0  0
 22 19  1  0  0  0  0
 23 28  1  0  0  0  0
 24 25  1  0  0  0  0
 24 23  2  0  0  0  0
 25 26  2  0  0  0  0
 26 27  1  0  0  0  0
 27 22  1  0  0  0  0
 28 27  2  0  0  0  0
 29 24  1  0  0  0  0
 30 25  1  0  0  0  0
 31 23  1  0  0  0  0
 32 31  1  0  0  0  0
M  END
>  <minimizedAffinity>
-4.99064922

>  <minimizedRMSD>
0.271207929

$$$$
