
 OpenBabel03252501043D

 26 27  0  0  1  0  0  0  0  0999 V2000
   37.3370   31.0860   37.9490 C   0  0  1  0  0  0  0  0  0  0  0  0
   38.1380   29.9370   37.4750 C   0  0  0  0  0  0  0  0  0  0  0  0
   37.1590   29.8050   38.6360 C   0  0  1  0  0  0  0  0  0  0  0  0
   36.5340   31.4730   37.2680 H   0  0  0  0  0  0  0  0  0  0  0  0
   37.8540   29.4690   36.4880 H   0  0  0  0  0  0  0  0  0  0  0  0
   39.1600   29.7140   37.8040 H   0  0  0  0  0  0  0  0  0  0  0  0
   36.2900   29.1730   38.3720 H   0  0  0  0  0  0  0  0  0  0  0  0
   40.1840   33.1930   39.2780 C   0  0  0  0  0  0  0  0  0  0  0  0
   39.5100   32.1890   38.5680 C   0  0  0  0  0  0  0  0  0  0  0  0
   38.1130   32.1360   38.6730 C   0  0  0  0  0  0  0  0  0  0  0  0
   37.4760   33.0540   39.4540 N   0  0  0  0  0  0  0  0  0  0  0  0
   38.1520   34.0140   40.1300 C   0  0  0  0  0  0  0  0  0  0  0  0
   39.4980   34.0750   40.0360 N   0  0  0  0  0  0  0  0  0  0  0  0
   41.2530   33.2140   39.1830 H   0  0  0  0  0  0  0  0  0  0  0  0
   40.0680   31.5090   37.9790 H   0  0  0  0  0  0  0  0  0  0  0  0
   37.6040   34.7330   40.7470 H   0  0  0  0  0  0  0  0  0  0  0  0
   37.5690   29.7060   39.9110 O   0  0  0  0  0  0  0  0  0  0  0  0
   35.3730   28.6720   40.9840 O   0  0  0  0  0  0  0  0  0  0  0  0
   36.4580   29.7170   41.1150 P   0  0  2  0  0  0  0  0  0  0  0  0
   35.6640   31.1960   41.3090 O   0  0  0  0  0  0  0  0  0  0  0  0
   36.0260   31.7210   42.0710 H   0  0  0  0  0  0  0  0  0  0  0  0
   37.2250   29.3760   42.5800 O   0  0  0  0  0  0  0  0  0  0  0  0
   37.2930   27.9840   42.7420 C   0  0  0  0  0  0  0  0  0  0  0  0
   36.1080   27.4610   43.2450 F   0  0  0  0  0  0  0  0  0  0  0  0
   38.2610   27.6670   43.6770 F   0  0  0  0  0  0  0  0  0  0  0  0
   37.6340   27.3820   41.5480 F   0  0  0  0  0  0  0  0  0  0  0  0
  1  4  1  6  0  0  0
  1  3  1  0  0  0  0
  1 10  1  0  0  0  0
  2  6  1  0  0  0  0
  2  1  1  0  0  0  0
  2  3  1  0  0  0  0
  3  7  1  6  0  0  0
  3 17  1  0  0  0  0
  5  2  1  0  0  0  0
  8 13  1  0  0  0  0
  9 10  1  0  0  0  0
  9  8  2  0  0  0  0
 10 11  2  0  0  0  0
 11 12  1  0  0  0  0
 12 16  1  0  0  0  0
 13 12  2  0  0  0  0
 14  8  1  0  0  0  0
 15  9  1  0  0  0  0
 17 19  1  0  0  0  0
 19 18  2  6  0  0  0
 19 20  1  0  0  0  0
 19 22  1  0  0  0  0
 20 21  1  0  0  0  0
 22 23  1  0  0  0  0
 23 24  1  0  0  0  0
 23 25  1  0  0  0  0
 26 23  1  0  0  0  0
M  END
>  <minimizedAffinity>
-5.04529524

$$$$

 OpenBabel03252501043D

 26 27  0  0  1  0  0  0  0  0999 V2000
   36.7920   27.0680   43.0380 C   0  0  1  0  0  0  0  0  0  0  0  0
   37.5500   28.1620   43.6800 C   0  0  0  0  0  0  0  0  0  0  0  0
   36.6190   28.4190   42.5010 C   0  0  1  0  0  0  0  0  0  0  0  0
   35.9690   26.5910   43.6320 H   0  0  0  0  0  0  0  0  0  0  0  0
   37.2170   28.5040   44.7030 H   0  0  0  0  0  0  0  0  0  0  0  0
   38.5810   28.4380   43.4250 H   0  0  0  0  0  0  0  0  0  0  0  0
   35.7270   29.0030   42.8010 H   0  0  0  0  0  0  0  0  0  0  0  0
   37.8320   24.3180   40.6580 C   0  0  0  0  0  0  0  0  0  0  0  0
   37.0050   25.1830   41.3880 C   0  0  0  0  0  0  0  0  0  0  0  0
   37.6180   26.1240   42.2280 C   0  0  0  0  0  0  0  0  0  0  0  0
   38.9780   26.1560   42.2980 N   0  0  0  0  0  0  0  0  0  0  0  0
   39.7550   25.3070   41.5820 C   0  0  0  0  0  0  0  0  0  0  0  0
   39.1760   24.3970   40.7690 N   0  0  0  0  0  0  0  0  0  0  0  0
   37.3420   23.6050   40.0220 H   0  0  0  0  0  0  0  0  0  0  0  0
   35.9540   25.1030   41.2830 H   0  0  0  0  0  0  0  0  0  0  0  0
   40.8450   25.3650   41.6660 H   0  0  0  0  0  0  0  0  0  0  0  0
   37.0800   28.6760   41.2660 O   0  0  0  0  0  0  0  0  0  0  0  0
   37.9070   30.9940   40.2730 O   0  0  0  0  0  0  0  0  0  0  0  0
   36.7160   30.1070   40.5550 P   0  0  2  0  0  0  0  0  0  0  0  0
   35.6210   31.0540   41.4280 O   0  0  0  0  0  0  0  0  0  0  0  0
   34.6990   31.0010   41.0600 H   0  0  0  0  0  0  0  0  0  0  0  0
   36.0160   29.8140   39.0470 O   0  0  0  0  0  0  0  0  0  0  0  0
   35.0510   28.8040   39.1840 C   0  0  0  0  0  0  0  0  0  0  0  0
   35.6270   27.5420   39.2450 F   0  0  0  0  0  0  0  0  0  0  0  0
   34.2330   28.7820   38.0690 F   0  0  0  0  0  0  0  0  0  0  0  0
   34.2640   29.0450   40.2920 F   0  0  0  0  0  0  0  0  0  0  0  0
  1  4  1  1  0  0  0
  1  2  1  0  0  0  0
  2  5  1  0  0  0  0
  3  7  1  1  0  0  0
  3  1  1  0  0  0  0
  3  2  1  0  0  0  0
  6  2  1  0  0  0  0
  8 13  2  0  0  0  0
  8  9  1  0  0  0  0
  9 10  2  0  0  0  0
 10 11  1  0  0  0  0
 10  1  1  0  0  0  0
 12 16  1  0  0  0  0
 12 11  2  0  0  0  0
 13 12  1  0  0  0  0
 14  8  1  0  0  0  0
 15  9  1  0  0  0  0
 17  3  1  0  0  0  0
 19 18  2  6  0  0  0
 19 17  1  0  0  0  0
 19 20  1  0  0  0  0
 21 20  1  0  0  0  0
 22 23  1  0  0  0  0
 22 19  1  0  0  0  0
 23 24  1  0  0  0  0
 23 26  1  0  0  0  0
 25 23  1  0  0  0  0
M  END
>  <minimizedAffinity>
-4.80895948

$$$$

 OpenBabel03252501043D

 26 27  0  0  1  0  0  0  0  0999 V2000
   37.2480   31.6010   37.9770 C   0  0  1  0  0  0  0  0  0  0  0  0
   37.8070   30.4530   37.2320 C   0  0  0  0  0  0  0  0  0  0  0  0
   36.8420   30.2580   38.3940 C   0  0  1  0  0  0  0  0  0  0  0  0
   36.5220   32.2640   37.4370 H   0  0  0  0  0  0  0  0  0  0  0  0
   37.4230   30.2660   36.1870 H   0  0  0  0  0  0  0  0  0  0  0  0
   38.7730   29.9820   37.4480 H   0  0  0  0  0  0  0  0  0  0  0  0
   35.8630   29.8660   38.0550 H   0  0  0  0  0  0  0  0  0  0  0  0
   38.7450   33.9270   40.5570 C   0  0  0  0  0  0  0  0  0  0  0  0
   37.7830   33.2870   39.7630 C   0  0  0  0  0  0  0  0  0  0  0  0
   38.2220   32.3120   38.8570 C   0  0  0  0  0  0  0  0  0  0  0  0
   39.5540   32.0310   38.7870 N   0  0  0  0  0  0  0  0  0  0  0  0
   40.4640   32.6650   39.5660 C   0  0  0  0  0  0  0  0  0  0  0  0
   40.0520   33.6050   40.4430 N   0  0  0  0  0  0  0  0  0  0  0  0
   38.3860   34.6700   41.2440 H   0  0  0  0  0  0  0  0  0  0  0  0
   36.7640   33.5540   39.8710 H   0  0  0  0  0  0  0  0  0  0  0  0
   41.5250   32.4110   39.4800 H   0  0  0  0  0  0  0  0  0  0  0  0
   37.2470   29.8160   39.5960 O   0  0  0  0  0  0  0  0  0  0  0  0
   34.9420   28.8510   40.4890 O   0  0  0  0  0  0  0  0  0  0  0  0
   36.1580   29.6880   40.8140 P   0  0  2  0  0  0  0  0  0  0  0  0
   35.5720   31.1710   41.3740 O   0  0  0  0  0  0  0  0  0  0  0  0
   36.0080   31.4530   42.2220 H   0  0  0  0  0  0  0  0  0  0  0  0
   36.8860   28.9190   42.1290 O   0  0  0  0  0  0  0  0  0  0  0  0
   38.2210   29.3430   42.2190 C   0  0  0  0  0  0  0  0  0  0  0  0
   39.0650   28.5690   41.4340 F   0  0  0  0  0  0  0  0  0  0  0  0
   38.6770   29.1850   43.5150 F   0  0  0  0  0  0  0  0  0  0  0  0
   38.3190   30.6790   41.8870 F   0  0  0  0  0  0  0  0  0  0  0  0
  1  4  1  6  0  0  0
  1  3  1  0  0  0  0
  1 10  1  0  0  0  0
  2  6  1  0  0  0  0
  2  1  1  0  0  0  0
  2  3  1  0  0  0  0
  3  7  1  6  0  0  0
  3 17  1  0  0  0  0
  5  2  1  0  0  0  0
  8 14  1  0  0  0  0
  9 15  1  0  0  0  0
  9  8  2  0  0  0  0
 10  9  1  0  0  0  0
 11 10  2  0  0  0  0
 11 12  1  0  0  0  0
 12 13  2  0  0  0  0
 13  8  1  0  0  0  0
 16 12  1  0  0  0  0
 17 19  1  0  0  0  0
 19 18  2  6  0  0  0
 19 20  1  0  0  0  0
 19 22  1  0  0  0  0
 20 21  1  0  0  0  0
 22 23  1  0  0  0  0
 23 25  1  0  0  0  0
 24 23  1  0  0  0  0
 26 23  1  0  0  0  0
M  END
>  <minimizedAffinity>
-4.7809062

$$$$

 OpenBabel03252501043D

 26 27  0  0  1  0  0  0  0  0999 V2000
   38.6610   30.1790   38.6760 C   0  0  1  0  0  0  0  0  0  0  0  0
   39.9340   29.4790   38.9490 C   0  0  0  0  0  0  0  0  0  0  0  0
   38.6460   29.1070   39.6730 C   0  0  1  0  0  0  0  0  0  0  0  0
   38.1870   30.0160   37.6720 H   0  0  0  0  0  0  0  0  0  0  0  0
   40.3240   28.7680   38.1630 H   0  0  0  0  0  0  0  0  0  0  0  0
   40.6930   29.8240   39.6610 H   0  0  0  0  0  0  0  0  0  0  0  0
   38.2810   28.1050   39.3760 H   0  0  0  0  0  0  0  0  0  0  0  0
   37.3820   33.6050   39.6430 C   0  0  0  0  0  0  0  0  0  0  0  0
   37.3840   32.2910   39.1530 C   0  0  0  0  0  0  0  0  0  0  0  0
   38.5910   31.5780   39.1900 C   0  0  0  0  0  0  0  0  0  0  0  0
   39.7000   32.1870   39.6960 N   0  0  0  0  0  0  0  0  0  0  0  0
   39.6710   33.4590   40.1640 C   0  0  0  0  0  0  0  0  0  0  0  0
   38.5140   34.1550   40.1330 N   0  0  0  0  0  0  0  0  0  0  0  0
   36.4480   34.1320   39.6050 H   0  0  0  0  0  0  0  0  0  0  0  0
   36.4850   31.8790   38.7750 H   0  0  0  0  0  0  0  0  0  0  0  0
   40.5830   33.9130   40.5630 H   0  0  0  0  0  0  0  0  0  0  0  0
   38.4250   29.4380   40.9570 O   0  0  0  0  0  0  0  0  0  0  0  0
   35.7930   29.7820   40.9810 O   0  0  0  0  0  0  0  0  0  0  0  0
   36.9720   29.0960   41.6340 P   0  0  2  0  0  0  0  0  0  0  0  0
   36.8750   29.4610   43.2810 O   0  0  0  0  0  0  0  0  0  0  0  0
   36.9720   28.6540   43.8520 H   0  0  0  0  0  0  0  0  0  0  0  0
   36.6640   27.4430   41.4790 O   0  0  0  0  0  0  0  0  0  0  0  0
   37.0410   26.7990   42.6670 C   0  0  0  0  0  0  0  0  0  0  0  0
   38.3090   27.1830   43.0850 F   0  0  0  0  0  0  0  0  0  0  0  0
   37.1220   25.4350   42.4560 F   0  0  0  0  0  0  0  0  0  0  0  0
   36.1030   27.0290   43.6520 F   0  0  0  0  0  0  0  0  0  0  0  0
  1  4  1  6  0  0  0
  1  2  1  0  0  0  0
  1 10  1  0  0  0  0
  1  3  1  0  0  0  0
  2  6  1  0  0  0  0
  2  3  1  0  0  0  0
  3  7  1  6  0  0  0
  3 17  1  0  0  0  0
  5  2  1  0  0  0  0
  8 13  1  0  0  0  0
  9 10  1  0  0  0  0
  9  8  2  0  0  0  0
 10 11  2  0  0  0  0
 11 12  1  0  0  0  0
 12 16  1  0  0  0  0
 13 12  2  0  0  0  0
 14  8  1  0  0  0  0
 15  9  1  0  0  0  0
 17 19  1  0  0  0  0
 19 18  2  6  0  0  0
 19 20  1  0  0  0  0
 20 21  1  0  0  0  0
 22 19  1  0  0  0  0
 22 23  1  0  0  0  0
 23 24  1  0  0  0  0
 23 26  1  0  0  0  0
 25 23  1  0  0  0  0
M  END
>  <minimizedAffinity>
-4.7552762

$$$$

 OpenBabel03252501043D

 26 27  0  0  1  0  0  0  0  0999 V2000
   39.1820   30.1520   42.7110 C   0  0  1  0  0  0  0  0  0  0  0  0
   40.3960   30.2200   41.8710 C   0  0  0  0  0  0  0  0  0  0  0  0
   39.0980   30.9010   41.4560 C   0  0  1  0  0  0  0  0  0  0  0  0
   39.1990   30.7000   43.6910 H   0  0  0  0  0  0  0  0  0  0  0  0
   41.2460   30.8730   42.2260 H   0  0  0  0  0  0  0  0  0  0  0  0
   40.6870   29.4610   41.1350 H   0  0  0  0  0  0  0  0  0  0  0  0
   39.1830   32.0050   41.4850 H   0  0  0  0  0  0  0  0  0  0  0  0
   38.5150   26.4460   42.3570 C   0  0  0  0  0  0  0  0  0  0  0  0
   39.1950   27.6700   42.3100 C   0  0  0  0  0  0  0  0  0  0  0  0
   38.5160   28.8170   42.7440 C   0  0  0  0  0  0  0  0  0  0  0  0
   37.2340   28.6930   43.1900 N   0  0  0  0  0  0  0  0  0  0  0  0
   36.5980   27.4960   43.2250 C   0  0  0  0  0  0  0  0  0  0  0  0
   37.2430   26.3850   42.8090 N   0  0  0  0  0  0  0  0  0  0  0  0
   39.0540   25.5810   42.0190 H   0  0  0  0  0  0  0  0  0  0  0  0
   40.1920   27.6940   41.9530 H   0  0  0  0  0  0  0  0  0  0  0  0
   35.5680   27.4380   43.5900 H   0  0  0  0  0  0  0  0  0  0  0  0
   38.3140   30.4160   40.4790 O   0  0  0  0  0  0  0  0  0  0  0  0
   36.9410   32.5960   39.8440 O   0  0  0  0  0  0  0  0  0  0  0  0
   36.8670   31.1250   40.1830 P   0  0  2  0  0  0  0  0  0  0  0  0
   35.7600   30.9900   41.4520 O   0  0  0  0  0  0  0  0  0  0  0  0
   35.0840   30.2790   41.2900 H   0  0  0  0  0  0  0  0  0  0  0  0
   36.1580   30.3960   38.8340 O   0  0  0  0  0  0  0  0  0  0  0  0
   35.5750   29.1830   39.2310 C   0  0  0  0  0  0  0  0  0  0  0  0
   36.4110   28.4530   40.0670 F   0  0  0  0  0  0  0  0  0  0  0  0
   35.3680   28.3780   38.1250 F   0  0  0  0  0  0  0  0  0  0  0  0
   34.3530   29.4150   39.8290 F   0  0  0  0  0  0  0  0  0  0  0  0
  1 10  1  0  0  0  0
  1  4  1  1  0  0  0
  2  5  1  0  0  0  0
  2  1  1  0  0  0  0
  3  7  1  1  0  0  0
  3  2  1  0  0  0  0
  3  1  1  0  0  0  0
  6  2  1  0  0  0  0
  8 13  1  0  0  0  0
  9  8  2  0  0  0  0
  9 10  1  0  0  0  0
 10 11  2  0  0  0  0
 11 12  1  0  0  0  0
 12 16  1  0  0  0  0
 13 12  2  0  0  0  0
 14  8  1  0  0  0  0
 15  9  1  0  0  0  0
 17  3  1  0  0  0  0
 19 18  2  6  0  0  0
 19 17  1  0  0  0  0
 19 20  1  0  0  0  0
 21 20  1  0  0  0  0
 22 23  1  0  0  0  0
 22 19  1  0  0  0  0
 23 26  1  0  0  0  0
 23 24  1  0  0  0  0
 25 23  1  0  0  0  0
M  END
>  <minimizedAffinity>
-4.69316673

$$$$

 OpenBabel03252501043D

 26 27  0  0  1  0  0  0  0  0999 V2000
   36.4470   28.7150   40.0450 C   0  0  1  0  0  0  0  0  0  0  0  0
   35.0240   29.0090   40.3140 C   0  0  0  0  0  0  0  0  0  0  0  0
   36.0010   30.1010   39.8980 C   0  0  1  0  0  0  0  0  0  0  0  0
   36.6860   28.1040   39.1350 H   0  0  0  0  0  0  0  0  0  0  0  0
   34.2620   28.6620   39.5560 H   0  0  0  0  0  0  0  0  0  0  0  0
   34.6090   29.2190   41.3070 H   0  0  0  0  0  0  0  0  0  0  0  0
   35.7800   30.4870   38.8830 H   0  0  0  0  0  0  0  0  0  0  0  0
   37.4650   27.6360   43.5250 C   0  0  0  0  0  0  0  0  0  0  0  0
   36.6490   27.9110   42.4190 C   0  0  0  0  0  0  0  0  0  0  0  0
   37.2620   28.3950   41.2540 C   0  0  0  0  0  0  0  0  0  0  0  0
   38.6120   28.5760   41.2480 N   0  0  0  0  0  0  0  0  0  0  0  0
   39.3790   28.3030   42.3320 C   0  0  0  0  0  0  0  0  0  0  0  0
   38.7990   27.8360   43.4590 N   0  0  0  0  0  0  0  0  0  0  0  0
   36.9740   27.2670   44.4050 H   0  0  0  0  0  0  0  0  0  0  0  0
   35.6050   27.7450   42.4920 H   0  0  0  0  0  0  0  0  0  0  0  0
   40.4610   28.4620   42.2880 H   0  0  0  0  0  0  0  0  0  0  0  0
   36.4670   31.0150   40.7650 O   0  0  0  0  0  0  0  0  0  0  0  0
   38.7780   32.2520   41.1810 O   0  0  0  0  0  0  0  0  0  0  0  0
   37.5860   32.1010   40.2630 P   0  0  2  0  0  0  0  0  0  0  0  0
   36.9780   33.6590   40.0220 O   0  0  0  0  0  0  0  0  0  0  0  0
   36.8190   33.8580   39.0620 H   0  0  0  0  0  0  0  0  0  0  0  0
   38.2290   31.5920   38.7860 O   0  0  0  0  0  0  0  0  0  0  0  0
   39.5060   32.1520   38.6320 C   0  0  0  0  0  0  0  0  0  0  0  0
   39.9290   32.1220   37.3090 F   0  0  0  0  0  0  0  0  0  0  0  0
   40.4350   31.4030   39.3310 F   0  0  0  0  0  0  0  0  0  0  0  0
   39.5250   33.4380   39.1310 F   0  0  0  0  0  0  0  0  0  0  0  0
  1  4  1  6  0  0  0
  1  2  1  0  0  0  0
  1 10  1  0  0  0  0
  2  6  1  0  0  0  0
  3  7  1  6  0  0  0
  3  1  1  0  0  0  0
  3  2  1  0  0  0  0
  3 17  1  0  0  0  0
  5  2  1  0  0  0  0
  8 14  1  0  0  0  0
  9 15  1  0  0  0  0
  9  8  2  0  0  0  0
 10  9  1  0  0  0  0
 11 10  2  0  0  0  0
 11 12  1  0  0  0  0
 12 13  2  0  0  0  0
 13  8  1  0  0  0  0
 16 12  1  0  0  0  0
 19 17  1  0  0  0  0
 19 18  2  1  0  0  0
 20 19  1  0  0  0  0
 21 20  1  0  0  0  0
 22 19  1  0  0  0  0
 23 22  1  0  0  0  0
 23 26  1  0  0  0  0
 23 25  1  0  0  0  0
 24 23  1  0  0  0  0
M  END
>  <minimizedAffinity>
-4.59543657

$$$$

 OpenBabel03252501043D

 26 27  0  0  1  0  0  0  0  0999 V2000
   37.3940   26.9720   38.9930 C   0  0  1  0  0  0  0  0  0  0  0  0
   36.0290   26.9090   38.4310 C   0  0  0  0  0  0  0  0  0  0  0  0
   36.5250   28.1340   39.1890 C   0  0  1  0  0  0  0  0  0  0  0  0
   38.2500   27.0280   38.2700 H   0  0  0  0  0  0  0  0  0  0  0  0
   35.9160   26.9890   37.3110 H   0  0  0  0  0  0  0  0  0  0  0  0
   35.1660   26.4620   38.9410 H   0  0  0  0  0  0  0  0  0  0  0  0
   36.6450   29.0100   38.5230 H   0  0  0  0  0  0  0  0  0  0  0  0
   37.0480   24.2220   41.5680 C   0  0  0  0  0  0  0  0  0  0  0  0
   36.7860   25.0030   40.4330 C   0  0  0  0  0  0  0  0  0  0  0  0
   37.6250   26.0970   40.1810 C   0  0  0  0  0  0  0  0  0  0  0  0
   38.6510   26.3530   41.0410 N   0  0  0  0  0  0  0  0  0  0  0  0
   38.8820   25.5820   42.1320 C   0  0  0  0  0  0  0  0  0  0  0  0
   38.0800   24.5250   42.3850 N   0  0  0  0  0  0  0  0  0  0  0  0
   36.3930   23.3900   41.7420 H   0  0  0  0  0  0  0  0  0  0  0  0
   35.9730   24.7450   39.8060 H   0  0  0  0  0  0  0  0  0  0  0  0
   39.7160   25.8210   42.8000 H   0  0  0  0  0  0  0  0  0  0  0  0
   36.1170   28.4190   40.4370 O   0  0  0  0  0  0  0  0  0  0  0  0
   37.3110   29.4720   42.5600 O   0  0  0  0  0  0  0  0  0  0  0  0
   36.7180   29.7410   41.1960 P   0  0  2  0  0  0  0  0  0  0  0  0
   35.5950   30.9850   41.4090 O   0  0  0  0  0  0  0  0  0  0  0  0
   35.7060   31.7120   40.7410 H   0  0  0  0  0  0  0  0  0  0  0  0
   37.9860   30.3760   40.2800 O   0  0  0  0  0  0  0  0  0  0  0  0
   37.5530   31.5650   39.6710 C   0  0  0  0  0  0  0  0  0  0  0  0
   36.4110   31.3690   38.9060 F   0  0  0  0  0  0  0  0  0  0  0  0
   38.5150   32.0160   38.7870 F   0  0  0  0  0  0  0  0  0  0  0  0
   37.3510   32.5420   40.6250 F   0  0  0  0  0  0  0  0  0  0  0  0
  1  4  1  6  0  0  0
  1  3  1  0  0  0  0
  1 10  1  0  0  0  0
  2  6  1  0  0  0  0
  2  1  1  0  0  0  0
  2  3  1  0  0  0  0
  3  7  1  6  0  0  0
  3 17  1  0  0  0  0
  5  2  1  0  0  0  0
  8 14  1  0  0  0  0
  8 13  1  0  0  0  0
  9  8  2  0  0  0  0
 10  9  1  0  0  0  0
 10 11  2  0  0  0  0
 11 12  1  0  0  0  0
 12 13  2  0  0  0  0
 12 16  1  0  0  0  0
 15  9  1  0  0  0  0
 17 19  1  0  0  0  0
 19 20  1  0  0  0  0
 19 18  2  1  0  0  0
 21 20  1  0  0  0  0
 22 19  1  0  0  0  0
 23 22  1  0  0  0  0
 23 26  1  0  0  0  0
 24 23  1  0  0  0  0
 25 23  1  0  0  0  0
M  END
>  <minimizedAffinity>
-4.39877558

$$$$

 OpenBabel03252501043D

 26 27  0  0  1  0  0  0  0  0999 V2000
   37.3470   29.2950   42.3060 C   0  0  1  0  0  0  0  0  0  0  0  0
   38.6910   28.7060   42.4830 C   0  0  0  0  0  0  0  0  0  0  0  0
   38.5040   30.1670   42.0920 C   0  0  1  0  0  0  0  0  0  0  0  0
   36.7120   29.4210   43.2220 H   0  0  0  0  0  0  0  0  0  0  0  0
   39.0310   28.4780   43.5350 H   0  0  0  0  0  0  0  0  0  0  0  0
   39.2400   28.1640   41.7040 H   0  0  0  0  0  0  0  0  0  0  0  0
   38.8130   30.8530   42.9040 H   0  0  0  0  0  0  0  0  0  0  0  0
   36.3870   27.3960   39.1780 C   0  0  0  0  0  0  0  0  0  0  0  0
   37.1120   27.7770   40.3150 C   0  0  0  0  0  0  0  0  0  0  0  0
   36.6160   28.8370   41.0870 C   0  0  0  0  0  0  0  0  0  0  0  0
   35.4600   29.4470   40.7020 N   0  0  0  0  0  0  0  0  0  0  0  0
   34.7770   29.0590   39.5970 C   0  0  0  0  0  0  0  0  0  0  0  0
   35.2460   28.0390   38.8460 N   0  0  0  0  0  0  0  0  0  0  0  0
   36.7850   26.5830   38.6020 H   0  0  0  0  0  0  0  0  0  0  0  0
   38.0030   27.2580   40.5570 H   0  0  0  0  0  0  0  0  0  0  0  0
   33.8520   29.5740   39.3200 H   0  0  0  0  0  0  0  0  0  0  0  0
   38.7430   30.6120   40.8480 O   0  0  0  0  0  0  0  0  0  0  0  0
   38.9540   33.2400   41.1540 O   0  0  0  0  0  0  0  0  0  0  0  0
   38.2510   32.1170   40.4250 P   0  0  2  0  0  0  0  0  0  0  0  0
   36.5960   32.3860   40.6310 O   0  0  0  0  0  0  0  0  0  0  0  0
   36.0950   32.3290   39.7750 H   0  0  0  0  0  0  0  0  0  0  0  0
   38.5900   32.3720   38.7900 O   0  0  0  0  0  0  0  0  0  0  0  0
   37.8740   31.4350   38.0290 C   0  0  0  0  0  0  0  0  0  0  0  0
   36.5310   31.3980   38.3820 F   0  0  0  0  0  0  0  0  0  0  0  0
   38.3550   30.1630   38.2770 F   0  0  0  0  0  0  0  0  0  0  0  0
   38.0270   31.7000   36.6830 F   0  0  0  0  0  0  0  0  0  0  0  0
  1  2  1  0  0  0  0
  1  4  1  1  0  0  0
  2  5  1  0  0  0  0
  3  1  1  0  0  0  0
  3  2  1  0  0  0  0
  3  7  1  1  0  0  0
  6  2  1  0  0  0  0
  8  9  1  0  0  0  0
  9 15  1  0  0  0  0
  9 10  2  0  0  0  0
 10  1  1  0  0  0  0
 11 10  1  0  0  0  0
 12 11  2  0  0  0  0
 13  8  2  0  0  0  0
 13 12  1  0  0  0  0
 14  8  1  0  0  0  0
 16 12  1  0  0  0  0
 17  3  1  0  0  0  0
 19 20  1  0  0  0  0
 19 17  1  0  0  0  0
 19 18  2  1  0  0  0
 21 20  1  0  0  0  0
 22 19  1  0  0  0  0
 23 25  1  0  0  0  0
 23 24  1  0  0  0  0
 23 22  1  0  0  0  0
 26 23  1  0  0  0  0
M  END
>  <minimizedAffinity>
-4.33158684

$$$$

 OpenBabel03252501043D

 26 27  0  0  1  0  0  0  0  0999 V2000
   35.8060   30.3540   40.6600 C   0  0  1  0  0  0  0  0  0  0  0  0
   35.0330   29.2940   39.9800 C   0  0  0  0  0  0  0  0  0  0  0  0
   35.9690   28.9800   41.1400 C   0  0  1  0  0  0  0  0  0  0  0  0
   35.2340   31.0980   41.2740 H   0  0  0  0  0  0  0  0  0  0  0  0
   33.9210   29.2490   40.1690 H   0  0  0  0  0  0  0  0  0  0  0  0
   35.3560   28.7740   39.0700 H   0  0  0  0  0  0  0  0  0  0  0  0
   35.4140   28.6600   42.0430 H   0  0  0  0  0  0  0  0  0  0  0  0
   38.0060   31.3860   37.7600 C   0  0  0  0  0  0  0  0  0  0  0  0
   36.9200   30.8390   38.4590 C   0  0  0  0  0  0  0  0  0  0  0  0
   36.9290   30.9240   39.8580 C   0  0  0  0  0  0  0  0  0  0  0  0
   37.9820   31.5300   40.4740 N   0  0  0  0  0  0  0  0  0  0  0  0
   39.0210   32.0510   39.7750 C   0  0  0  0  0  0  0  0  0  0  0  0
   39.0230   31.9740   38.4270 N   0  0  0  0  0  0  0  0  0  0  0  0
   37.9790   31.3080   36.6900 H   0  0  0  0  0  0  0  0  0  0  0  0
   36.1340   30.3830   37.9150 H   0  0  0  0  0  0  0  0  0  0  0  0
   39.8490   32.5300   40.3070 H   0  0  0  0  0  0  0  0  0  0  0  0
   37.1580   28.3820   40.9590 O   0  0  0  0  0  0  0  0  0  0  0  0
   37.5890   28.5770   43.5710 O   0  0  0  0  0  0  0  0  0  0  0  0
   38.1950   28.2590   42.2220 P   0  0  2  0  0  0  0  0  0  0  0  0
   39.5700   29.2310   42.0840 O   0  0  0  0  0  0  0  0  0  0  0  0
   40.3690   28.7160   41.7920 H   0  0  0  0  0  0  0  0  0  0  0  0
   38.7330   26.6630   42.3450 O   0  0  0  0  0  0  0  0  0  0  0  0
   37.6400   25.8020   42.1590 C   0  0  0  0  0  0  0  0  0  0  0  0
   36.5350   26.1990   42.9010 F   0  0  0  0  0  0  0  0  0  0  0  0
   37.9560   24.5360   42.6180 F   0  0  0  0  0  0  0  0  0  0  0  0
   37.3310   25.7090   40.8170 F   0  0  0  0  0  0  0  0  0  0  0  0
  1  3  1  0  0  0  0
  1  4  1  1  0  0  0
  2  5  1  0  0  0  0
  2  1  1  0  0  0  0
  2  3  1  0  0  0  0
  3  7  1  1  0  0  0
  6  2  1  0  0  0  0
  8 13  2  0  0  0  0
  8  9  1  0  0  0  0
  9 10  2  0  0  0  0
 10 11  1  0  0  0  0
 10  1  1  0  0  0  0
 12 16  1  0  0  0  0
 12 11  2  0  0  0  0
 13 12  1  0  0  0  0
 14  8  1  0  0  0  0
 15  9  1  0  0  0  0
 17  3  1  0  0  0  0
 17 19  1  0  0  0  0
 19 22  1  0  0  0  0
 19 18  2  1  0  0  0
 20 19  1  0  0  0  0
 21 20  1  0  0  0  0
 23 22  1  0  0  0  0
 23 25  1  0  0  0  0
 23 24  1  0  0  0  0
 26 23  1  0  0  0  0
M  END
>  <minimizedAffinity>
-4.29996634

$$$$
