
 OpenBabel03252507543D

 39 41  0  0  1  0  0  0  0  0999 V2000
   47.1150   34.8290   42.1000 C   0  0  2  0  0  0  0  0  0  0  0  0
   46.3340   34.3200   40.8840 C   0  0  0  0  0  0  0  0  0  0  0  0
   47.5300   34.1830   39.9180 C   0  0  0  0  0  0  0  0  0  0  0  0
   48.6650   33.7110   40.7740 C   0  0  1  0  0  0  0  0  0  0  0  0
   48.1570   33.7470   42.1870 C   0  0  0  0  0  0  0  0  0  0  0  0
   47.5010   35.8160   41.8480 H   0  0  0  0  0  0  0  0  0  0  0  0
   45.6270   35.0770   40.5370 H   0  0  0  0  0  0  0  0  0  0  0  0
   45.8950   33.3380   41.1100 H   0  0  0  0  0  0  0  0  0  0  0  0
   47.7860   35.2130   39.5860 H   0  0  0  0  0  0  0  0  0  0  0  0
   47.2960   33.5260   39.0690 H   0  0  0  0  0  0  0  0  0  0  0  0
   49.5720   34.3490   40.6630 H   0  0  0  0  0  0  0  0  0  0  0  0
   47.7110   32.8230   42.5500 H   0  0  0  0  0  0  0  0  0  0  0  0
   48.9690   34.1340   42.8470 H   0  0  0  0  0  0  0  0  0  0  0  0
   44.5380   35.7880   44.6740 C   0  0  0  0  0  0  0  0  0  0  0  0
   45.2670   35.8390   43.4910 C   0  0  0  0  0  0  0  0  0  0  0  0
   46.2490   34.8690   43.3140 C   0  0  0  0  0  0  0  0  0  0  0  0
   46.4730   33.8950   44.2980 N   0  0  0  0  0  0  0  0  0  0  0  0
   45.7270   33.9010   45.4320 C   0  0  0  0  0  0  0  0  0  0  0  0
   44.7630   34.8460   45.6160 N   0  0  0  0  0  0  0  0  0  0  0  0
   43.7690   36.5350   44.8300 H   0  0  0  0  0  0  0  0  0  0  0  0
   45.1260   36.5710   42.7110 H   0  0  0  0  0  0  0  0  0  0  0  0
   45.9620   33.1260   46.1320 H   0  0  0  0  0  0  0  0  0  0  0  0
   49.1070   32.2910   40.4980 C   0  0  2  0  0  0  0  0  0  0  0  0
   49.9220   31.6600   41.5240 C   0  0  0  0  0  0  0  0  0  0  0  0
   50.4970   31.9690   40.1780 C   0  0  1  0  0  0  0  0  0  0  0  0
   48.3270   31.6810   40.0050 H   0  0  0  0  0  0  0  0  0  0  0  0
   50.2950   32.2930   42.3580 H   0  0  0  0  0  0  0  0  0  0  0  0
   49.7870   30.6010   41.8290 H   0  0  0  0  0  0  0  0  0  0  0  0
   51.1290   32.8580   39.9820 H   0  0  0  0  0  0  0  0  0  0  0  0
   50.7220   30.8730   39.3050 O   0  0  0  0  0  0  0  0  0  0  0  0
   51.0670   30.4290   36.7590 O   0  0  0  0  0  0  0  0  0  0  0  0
   51.2400   31.4800   37.8270 P   0  0  1  0  0  0  0  0  0  0  0  0
   50.2870   32.8340   37.3790 O   0  0  0  0  0  0  0  0  0  0  0  0
   49.4350   32.4990   37.0060 H   0  0  0  0  0  0  0  0  0  0  0  0
   52.8240   31.9840   37.8180 O   0  0  0  0  0  0  0  0  0  0  0  0
   53.6270   30.8270   37.6920 C   0  0  0  0  0  0  0  0  0  0  0  0
   53.2260   29.9340   38.6610 F   0  0  0  0  0  0  0  0  0  0  0  0
   53.5250   30.2630   36.4530 F   0  0  0  0  0  0  0  0  0  0  0  0
   54.9740   31.1330   37.8740 F   0  0  0  0  0  0  0  0  0  0  0  0
  1  6  1  6  0  0  0
  1  5  1  0  0  0  0
  1 16  1  0  0  0  0
  2  8  1  0  0  0  0
  2  1  1  0  0  0  0
  3  4  1  0  0  0  0
  3  2  1  0  0  0  0
  4 11  1  6  0  0  0
  4  5  1  0  0  0  0
  5 12  1  0  0  0  0
  5 13  1  0  0  0  0
  7  2  1  0  0  0  0
  9  3  1  0  0  0  0
 10  3  1  0  0  0  0
 14 20  1  0  0  0  0
 14 19  1  0  0  0  0
 15 14  2  0  0  0  0
 16 15  1  0  0  0  0
 16 17  2  0  0  0  0
 17 18  1  0  0  0  0
 18 19  2  0  0  0  0
 18 22  1  0  0  0  0
 21 15  1  0  0  0  0
 23 26  1  6  0  0  0
 23  4  1  0  0  0  0
 23 24  1  0  0  0  0
 24 28  1  0  0  0  0
 24 27  1  0  0  0  0
 25 29  1  6  0  0  0
 25 23  1  0  0  0  0
 25 24  1  0  0  0  0
 30 25  1  0  0  0  0
 32 31  2  6  0  0  0
 32 30  1  0  0  0  0
 33 32  1  0  0  0  0
 34 33  1  0  0  0  0
 35 32  1  0  0  0  0
 36 35  1  0  0  0  0
 36 39  1  0  0  0  0
 36 37  1  0  0  0  0
 38 36  1  0  0  0  0
M  END
>  <minimizedAffinity>
-5.18109846

>  <minimizedRMSD>
0.89818716

$$$$
