
 OpenBabel03252509313D

 22 22  0  0  0  0  0  0  0  0999 V2000
   45.9210   34.4340   43.4560 C   0  0  0  0  0  0  0  0  0  0  0  0
   45.9870   33.8040   44.3690 H   0  0  0  0  0  0  0  0  0  0  0  0
   45.6390   35.4450   43.7890 H   0  0  0  0  0  0  0  0  0  0  0  0
   48.8600   35.5000   41.4160 C   0  0  0  0  0  0  0  0  0  0  0  0
   47.5550   35.4470   41.9400 C   0  0  0  0  0  0  0  0  0  0  0  0
   47.2790   34.5000   42.9000 C   0  0  0  0  0  0  0  0  0  0  0  0
   48.2760   33.6410   43.3130 N   0  0  0  0  0  0  0  0  0  0  0  0
   49.5310   33.7220   42.7810 C   0  0  0  0  0  0  0  0  0  0  0  0
   49.8010   34.6370   41.8530 N   0  0  0  0  0  0  0  0  0  0  0  0
   49.1540   36.2090   40.6670 H   0  0  0  0  0  0  0  0  0  0  0  0
   46.8580   36.1540   41.5540 H   0  0  0  0  0  0  0  0  0  0  0  0
   50.2130   32.9880   43.1970 H   0  0  0  0  0  0  0  0  0  0  0  0
   45.0290   33.8630   42.5500 O   0  0  0  0  0  0  0  0  0  0  0  0
   45.7740   31.4150   42.0190 O   0  0  0  0  0  0  0  0  0  0  0  0
   44.9120   32.2240   42.9520 P   0  0  2  0  0  0  0  0  0  0  0  0
   43.2700   31.8140   42.8470 O   0  0  0  0  0  0  0  0  0  0  0  0
   43.1130   31.0320   42.2510 H   0  0  0  0  0  0  0  0  0  0  0  0
   45.4640   32.0120   44.5230 O   0  0  0  0  0  0  0  0  0  0  0  0
   45.7700   30.6660   44.7680 C   0  0  0  0  0  0  0  0  0  0  0  0
   47.0490   30.4180   44.3040 F   0  0  0  0  0  0  0  0  0  0  0  0
   44.8650   29.8560   44.0730 F   0  0  0  0  0  0  0  0  0  0  0  0
   45.6640   30.3870   46.1000 F   0  0  0  0  0  0  0  0  0  0  0  0
  1  3  1  0  0  0  0
  1  2  1  0  0  0  0
  4  9  2  0  0  0  0
  4  5  1  0  0  0  0
  5  6  2  0  0  0  0
  6  7  1  0  0  0  0
  6  1  1  0  0  0  0
  8 12  1  0  0  0  0
  8  7  2  0  0  0  0
  9  8  1  0  0  0  0
 10  4  1  0  0  0  0
 11  5  1  0  0  0  0
 13 15  1  0  0  0  0
 13  1  1  0  0  0  0
 15 14  2  6  0  0  0
 15 18  1  0  0  0  0
 16 15  1  0  0  0  0
 17 16  1  0  0  0  0
 18 19  1  0  0  0  0
 19 22  1  0  0  0  0
 20 19  1  0  0  0  0
 21 19  1  0  0  0  0
M  END
>  <minimizedAffinity>
-3.06160998

>  <minimizedRMSD>
6.01416922

$$$$
