
 OpenBabel03252505503D

 17 17  0  0  0  0  0  0  0  0999 V2000
   37.8360   29.1830   42.3300 C   0  0  0  0  0  0  0  0  0  0  0  0
   36.8670   28.2210   42.0410 C   0  0  0  0  0  0  0  0  0  0  0  0
   35.8220   28.5900   41.2070 C   0  0  0  0  0  0  0  0  0  0  0  0
   35.7720   29.8400   40.7090 N   0  0  0  0  0  0  0  0  0  0  0  0
   36.7270   30.7470   41.0080 C   0  0  0  0  0  0  0  0  0  0  0  0
   37.7620   30.4450   41.8110 N   0  0  0  0  0  0  0  0  0  0  0  0
   38.6810   28.9720   42.9710 H   0  0  0  0  0  0  0  0  0  0  0  0
   35.0790   27.8350   40.9930 H   0  0  0  0  0  0  0  0  0  0  0  0
   37.0410   26.8750   42.6580 C   0  0  0  0  0  0  0  0  0  0  0  0
   38.3550   26.8100   43.0830 F   0  0  0  0  0  0  0  0  0  0  0  0
   36.8210   25.9340   41.6660 F   0  0  0  0  0  0  0  0  0  0  0  0
   36.1250   26.7430   43.6800 F   0  0  0  0  0  0  0  0  0  0  0  0
   36.7010   32.0470   40.5070 O   0  0  0  0  0  0  0  0  0  0  0  0
   37.3110   32.3780   39.2640 C   0  0  0  0  0  0  0  0  0  0  0  0
   38.7000   32.2850   39.3560 F   0  0  0  0  0  0  0  0  0  0  0  0
   36.8560   31.5440   38.2600 F   0  0  0  0  0  0  0  0  0  0  0  0
   36.9680   33.7010   38.9780 F   0  0  0  0  0  0  0  0  0  0  0  0
  1  7  1  0  0  0  0
  2  1  1  0  0  0  0
  2  9  1  0  0  0  0
  3  2  2  0  0  0  0
  4  5  2  0  0  0  0
  4  3  1  0  0  0  0
  5  6  1  0  0  0  0
  6  1  2  0  0  0  0
  8  3  1  0  0  0  0
  9 10  1  0  0  0  0
  9 12  1  0  0  0  0
 11  9  1  0  0  0  0
 13  5  1  0  0  0  0
 14 15  1  0  0  0  0
 14 13  1  0  0  0  0
 16 14  1  0  0  0  0
 17 14  1  0  0  0  0
M  END
>  <minimizedAffinity>
-4.60111809

$$$$

 OpenBabel03252505503D

 17 17  0  0  0  0  0  0  0  0999 V2000
   37.9570   29.1590   42.2360 C   0  0  0  0  0  0  0  0  0  0  0  0
   36.9270   28.2480   42.0010 C   0  0  0  0  0  0  0  0  0  0  0  0
   35.8540   28.6750   41.2330 C   0  0  0  0  0  0  0  0  0  0  0  0
   35.8350   29.9300   40.7450 N   0  0  0  0  0  0  0  0  0  0  0  0
   36.8500   30.7860   40.9920 C   0  0  0  0  0  0  0  0  0  0  0  0
   37.9150   30.4270   41.7300 N   0  0  0  0  0  0  0  0  0  0  0  0
   38.8270   28.9020   42.8250 H   0  0  0  0  0  0  0  0  0  0  0  0
   35.0630   27.9590   41.0600 H   0  0  0  0  0  0  0  0  0  0  0  0
   37.0700   26.8900   42.5990 C   0  0  0  0  0  0  0  0  0  0  0  0
   36.7770   25.9900   41.5900 F   0  0  0  0  0  0  0  0  0  0  0  0
   36.1310   26.7830   43.6110 F   0  0  0  0  0  0  0  0  0  0  0  0
   38.3500   26.7650   43.0930 F   0  0  0  0  0  0  0  0  0  0  0  0
   36.8590   32.0910   40.5010 O   0  0  0  0  0  0  0  0  0  0  0  0
   37.3210   32.3880   39.1870 C   0  0  0  0  0  0  0  0  0  0  0  0
   36.7870   31.4900   38.2630 F   0  0  0  0  0  0  0  0  0  0  0  0
   36.9810   33.6790   38.8300 F   0  0  0  0  0  0  0  0  0  0  0  0
   38.7110   32.2450   39.2000 F   0  0  0  0  0  0  0  0  0  0  0  0
  1  7  1  0  0  0  0
  2  1  1  0  0  0  0
  2  9  1  0  0  0  0
  3  2  2  0  0  0  0
  4  5  2  0  0  0  0
  4  3  1  0  0  0  0
  5  6  1  0  0  0  0
  6  1  2  0  0  0  0
  8  3  1  0  0  0  0
  9 12  1  0  0  0  0
  9 11  1  0  0  0  0
 10  9  1  0  0  0  0
 13  5  1  0  0  0  0
 14 17  1  0  0  0  0
 14 13  1  0  0  0  0
 15 14  1  0  0  0  0
 16 14  1  0  0  0  0
M  END
>  <minimizedAffinity>
-4.59558296

$$$$

 OpenBabel03252505503D

 17 17  0  0  0  0  0  0  0  0999 V2000
   38.6230   31.2890   40.9690 C   0  0  0  0  0  0  0  0  0  0  0  0
   37.4980   31.6250   40.2140 C   0  0  0  0  0  0  0  0  0  0  0  0
   36.3110   30.9700   40.5020 C   0  0  0  0  0  0  0  0  0  0  0  0
   36.2740   30.0480   41.4820 N   0  0  0  0  0  0  0  0  0  0  0  0
   37.3810   29.7470   42.1950 C   0  0  0  0  0  0  0  0  0  0  0  0
   38.5600   30.3490   41.9590 N   0  0  0  0  0  0  0  0  0  0  0  0
   39.5840   31.7550   40.8050 H   0  0  0  0  0  0  0  0  0  0  0  0
   35.4490   31.2390   39.9080 H   0  0  0  0  0  0  0  0  0  0  0  0
   37.6740   32.6620   39.1570 C   0  0  0  0  0  0  0  0  0  0  0  0
   39.0220   32.9710   39.1380 F   0  0  0  0  0  0  0  0  0  0  0  0
   36.9430   33.7730   39.5440 F   0  0  0  0  0  0  0  0  0  0  0  0
   37.2090   32.1520   37.9650 F   0  0  0  0  0  0  0  0  0  0  0  0
   37.3750   28.7970   43.2150 O   0  0  0  0  0  0  0  0  0  0  0  0
   37.4990   27.4060   42.9370 C   0  0  0  0  0  0  0  0  0  0  0  0
   36.3520   26.7200   43.3360 F   0  0  0  0  0  0  0  0  0  0  0  0
   37.7200   27.1940   41.5890 F   0  0  0  0  0  0  0  0  0  0  0  0
   38.5850   26.9350   43.6790 F   0  0  0  0  0  0  0  0  0  0  0  0
  1  6  1  0  0  0  0
  2  3  1  0  0  0  0
  2  1  2  0  0  0  0
  3  4  2  0  0  0  0
  4  5  1  0  0  0  0
  5 13  1  0  0  0  0
  6  5  2  0  0  0  0
  7  1  1  0  0  0  0
  8  3  1  0  0  0  0
  9 11  1  0  0  0  0
  9  2  1  0  0  0  0
 10  9  1  0  0  0  0
 12  9  1  0  0  0  0
 14 13  1  0  0  0  0
 14 15  1  0  0  0  0
 14 17  1  0  0  0  0
 16 14  1  0  0  0  0
M  END
>  <minimizedAffinity>
-4.50342369

$$$$

 OpenBabel03252505503D

 17 17  0  0  0  0  0  0  0  0999 V2000
   38.5420   30.4630   40.1870 C   0  0  0  0  0  0  0  0  0  0  0  0
   37.5980   31.4770   40.3580 C   0  0  0  0  0  0  0  0  0  0  0  0
   36.3690   31.1280   40.8980 C   0  0  0  0  0  0  0  0  0  0  0  0
   36.1250   29.8480   41.2360 N   0  0  0  0  0  0  0  0  0  0  0  0
   37.0610   28.8910   41.0580 C   0  0  0  0  0  0  0  0  0  0  0  0
   38.2690   29.1710   40.5390 N   0  0  0  0  0  0  0  0  0  0  0  0
   39.5220   30.6550   39.7730 H   0  0  0  0  0  0  0  0  0  0  0  0
   35.6480   31.9230   41.0230 H   0  0  0  0  0  0  0  0  0  0  0  0
   37.9950   32.8520   39.9420 C   0  0  0  0  0  0  0  0  0  0  0  0
   36.8680   33.4300   39.3890 F   0  0  0  0  0  0  0  0  0  0  0  0
   38.9790   32.7240   38.9760 F   0  0  0  0  0  0  0  0  0  0  0  0
   38.4700   33.5210   41.0500 F   0  0  0  0  0  0  0  0  0  0  0  0
   36.8370   27.5580   41.3980 O   0  0  0  0  0  0  0  0  0  0  0  0
   36.9910   27.0960   42.7360 C   0  0  0  0  0  0  0  0  0  0  0  0
   38.1390   27.6360   43.3150 F   0  0  0  0  0  0  0  0  0  0  0  0
   35.8870   27.4290   43.4990 F   0  0  0  0  0  0  0  0  0  0  0  0
   37.1290   25.7070   42.6760 F   0  0  0  0  0  0  0  0  0  0  0  0
  1  2  2  0  0  0  0
  1  6  1  0  0  0  0
  2  3  1  0  0  0  0
  3  8  1  0  0  0  0
  3  4  2  0  0  0  0
  5  4  1  0  0  0  0
  5 13  1  0  0  0  0
  6  5  2  0  0  0  0
  7  1  1  0  0  0  0
  9  2  1  0  0  0  0
  9 12  1  0  0  0  0
 10  9  1  0  0  0  0
 11  9  1  0  0  0  0
 13 14  1  0  0  0  0
 14 15  1  0  0  0  0
 14 16  1  0  0  0  0
 17 14  1  0  0  0  0
M  END
>  <minimizedAffinity>
-4.37715435

$$$$

 OpenBabel03252505503D

 17 17  0  0  0  0  0  0  0  0999 V2000
   36.5630   27.5800   40.8170 C   0  0  0  0  0  0  0  0  0  0  0  0
   37.2550   27.2410   41.9810 C   0  0  0  0  0  0  0  0  0  0  0  0
   37.6560   28.2740   42.8150 C   0  0  0  0  0  0  0  0  0  0  0  0
   37.3730   29.5490   42.4870 N   0  0  0  0  0  0  0  0  0  0  0  0
   36.7010   29.8420   41.3530 C   0  0  0  0  0  0  0  0  0  0  0  0
   36.2880   28.8820   40.5080 N   0  0  0  0  0  0  0  0  0  0  0  0
   36.2170   26.8330   40.1170 H   0  0  0  0  0  0  0  0  0  0  0  0
   38.1920   27.9960   43.7120 H   0  0  0  0  0  0  0  0  0  0  0  0
   37.5040   25.7920   42.2260 C   0  0  0  0  0  0  0  0  0  0  0  0
   38.6210   25.7230   43.0380 F   0  0  0  0  0  0  0  0  0  0  0  0
   37.7770   25.2060   41.0010 F   0  0  0  0  0  0  0  0  0  0  0  0
   36.3740   25.2470   42.7970 F   0  0  0  0  0  0  0  0  0  0  0  0
   36.3940   31.1510   40.9880 O   0  0  0  0  0  0  0  0  0  0  0  0
   37.1350   31.8370   39.9840 C   0  0  0  0  0  0  0  0  0  0  0  0
   36.5820   31.6130   38.7240 F   0  0  0  0  0  0  0  0  0  0  0  0
   37.1670   33.1950   40.2410 F   0  0  0  0  0  0  0  0  0  0  0  0
   38.4310   31.3160   40.0050 F   0  0  0  0  0  0  0  0  0  0  0  0
  1  2  1  0  0  0  0
  2  9  1  0  0  0  0
  2  3  2  0  0  0  0
  3  8  1  0  0  0  0
  4  3  1  0  0  0  0
  5  4  2  0  0  0  0
  6  1  2  0  0  0  0
  6  5  1  0  0  0  0
  7  1  1  0  0  0  0
  9 12  1  0  0  0  0
  9 10  1  0  0  0  0
 11  9  1  0  0  0  0
 13  5  1  0  0  0  0
 14 17  1  0  0  0  0
 14 16  1  0  0  0  0
 14 13  1  0  0  0  0
 15 14  1  0  0  0  0
M  END
>  <minimizedAffinity>
-4.27456665

$$$$

 OpenBabel03252505503D

 17 17  0  0  0  0  0  0  0  0999 V2000
   36.5850   27.7880   40.4970 C   0  0  0  0  0  0  0  0  0  0  0  0
   36.8550   28.1850   41.8080 C   0  0  0  0  0  0  0  0  0  0  0  0
   36.9780   29.5440   42.0560 C   0  0  0  0  0  0  0  0  0  0  0  0
   36.8370   30.4250   41.0470 N   0  0  0  0  0  0  0  0  0  0  0  0
   36.5750   30.0070   39.7900 C   0  0  0  0  0  0  0  0  0  0  0  0
   36.4460   28.7020   39.4920 N   0  0  0  0  0  0  0  0  0  0  0  0
   36.4750   26.7480   40.2250 H   0  0  0  0  0  0  0  0  0  0  0  0
   37.1890   29.8370   43.0740 H   0  0  0  0  0  0  0  0  0  0  0  0
   36.9890   27.1090   42.8310 C   0  0  0  0  0  0  0  0  0  0  0  0
   38.2000   27.3240   43.4630 F   0  0  0  0  0  0  0  0  0  0  0  0
   37.0190   25.9000   42.1570 F   0  0  0  0  0  0  0  0  0  0  0  0
   35.9050   27.1790   43.6800 F   0  0  0  0  0  0  0  0  0  0  0  0
   36.4240   30.8940   38.7270 O   0  0  0  0  0  0  0  0  0  0  0  0
   37.4520   31.8140   38.3730 C   0  0  0  0  0  0  0  0  0  0  0  0
   37.1900   33.0750   38.9080 F   0  0  0  0  0  0  0  0  0  0  0  0
   38.6820   31.3670   38.8180 F   0  0  0  0  0  0  0  0  0  0  0  0
   37.4530   31.9100   36.9790 F   0  0  0  0  0  0  0  0  0  0  0  0
  1  2  1  0  0  0  0
  2  3  2  0  0  0  0
  2  9  1  0  0  0  0
  3  8  1  0  0  0  0
  4  3  1  0  0  0  0
  5  4  2  0  0  0  0
  6  5  1  0  0  0  0
  6  1  2  0  0  0  0
  7  1  1  0  0  0  0
  9 10  1  0  0  0  0
  9 12  1  0  0  0  0
 11  9  1  0  0  0  0
 13  5  1  0  0  0  0
 14 13  1  0  0  0  0
 14 16  1  0  0  0  0
 14 15  1  0  0  0  0
 17 14  1  0  0  0  0
M  END
>  <minimizedAffinity>
-4.26700735

$$$$

 OpenBabel03252505503D

 17 17  0  0  0  0  0  0  0  0999 V2000
   36.6270   27.4270   40.7120 C   0  0  0  0  0  0  0  0  0  0  0  0
   37.2470   27.0370   41.9010 C   0  0  0  0  0  0  0  0  0  0  0  0
   37.5830   28.0310   42.8070 C   0  0  0  0  0  0  0  0  0  0  0  0
   37.3080   29.3190   42.5230 N   0  0  0  0  0  0  0  0  0  0  0  0
   36.7060   29.6610   41.3640 C   0  0  0  0  0  0  0  0  0  0  0  0
   36.3580   28.7400   40.4480 N   0  0  0  0  0  0  0  0  0  0  0  0
   36.3340   26.7110   39.9570 H   0  0  0  0  0  0  0  0  0  0  0  0
   38.0640   27.7150   43.7220 H   0  0  0  0  0  0  0  0  0  0  0  0
   37.4960   25.5800   42.0920 C   0  0  0  0  0  0  0  0  0  0  0  0
   36.3760   25.0760   42.7290 F   0  0  0  0  0  0  0  0  0  0  0  0
   38.6020   25.4530   42.9150 F   0  0  0  0  0  0  0  0  0  0  0  0
   37.7270   25.0120   40.8570 F   0  0  0  0  0  0  0  0  0  0  0  0
   36.4090   30.9840   41.0420 O   0  0  0  0  0  0  0  0  0  0  0  0
   37.1870   31.7130   40.0990 C   0  0  0  0  0  0  0  0  0  0  0  0
   37.2130   33.0690   40.4250 F   0  0  0  0  0  0  0  0  0  0  0  0
   38.4780   31.2240   40.0470 F   0  0  0  0  0  0  0  0  0  0  0  0
   36.5680   31.5630   38.8550 F   0  0  0  0  0  0  0  0  0  0  0  0
  1  2  1  0  0  0  0
  2  9  1  0  0  0  0
  2  3  2  0  0  0  0
  3  8  1  0  0  0  0
  4  3  1  0  0  0  0
  5  4  2  0  0  0  0
  6  1  2  0  0  0  0
  6  5  1  0  0  0  0
  7  1  1  0  0  0  0
  9 10  1  0  0  0  0
  9 11  1  0  0  0  0
 12  9  1  0  0  0  0
 13  5  1  0  0  0  0
 14 15  1  0  0  0  0
 14 13  1  0  0  0  0
 16 14  1  0  0  0  0
 17 14  1  0  0  0  0
M  END
>  <minimizedAffinity>
-4.23671198

$$$$

 OpenBabel03252505503D

 17 17  0  0  0  0  0  0  0  0999 V2000
   37.9030   27.6540   40.6850 C   0  0  0  0  0  0  0  0  0  0  0  0
   36.8830   27.8080   41.6260 C   0  0  0  0  0  0  0  0  0  0  0  0
   35.8940   28.7420   41.3560 C   0  0  0  0  0  0  0  0  0  0  0  0
   35.9430   29.4590   40.2170 N   0  0  0  0  0  0  0  0  0  0  0  0
   36.9440   29.2850   39.3280 C   0  0  0  0  0  0  0  0  0  0  0  0
   37.9290   28.3950   39.5380 N   0  0  0  0  0  0  0  0  0  0  0  0
   38.7090   26.9470   40.8240 H   0  0  0  0  0  0  0  0  0  0  0  0
   35.1120   28.8500   42.0930 H   0  0  0  0  0  0  0  0  0  0  0  0
   36.9480   26.9520   42.8450 C   0  0  0  0  0  0  0  0  0  0  0  0
   36.7470   25.6520   42.4160 F   0  0  0  0  0  0  0  0  0  0  0  0
   35.9100   27.3370   43.6760 F   0  0  0  0  0  0  0  0  0  0  0  0
   38.1700   27.1490   43.4510 F   0  0  0  0  0  0  0  0  0  0  0  0
   37.0200   30.0120   38.1420 O   0  0  0  0  0  0  0  0  0  0  0  0
   37.6050   31.3100   38.1010 C   0  0  0  0  0  0  0  0  0  0  0  0
   38.8230   31.3220   38.7810 F   0  0  0  0  0  0  0  0  0  0  0  0
   37.7990   31.7190   36.7950 F   0  0  0  0  0  0  0  0  0  0  0  0
   36.7220   32.1780   38.7480 F   0  0  0  0  0  0  0  0  0  0  0  0
  1  7  1  0  0  0  0
  1  2  1  0  0  0  0
  2  9  1  0  0  0  0
  3  2  2  0  0  0  0
  3  8  1  0  0  0  0
  4  3  1  0  0  0  0
  5  6  1  0  0  0  0
  5  4  2  0  0  0  0
  6  1  2  0  0  0  0
  9 12  1  0  0  0  0
  9 11  1  0  0  0  0
 10  9  1  0  0  0  0
 13  5  1  0  0  0  0
 14 13  1  0  0  0  0
 14 17  1  0  0  0  0
 14 15  1  0  0  0  0
 16 14  1  0  0  0  0
M  END
>  <minimizedAffinity>
-4.06042385

$$$$

 OpenBabel03252505503D

 17 17  0  0  0  0  0  0  0  0999 V2000
   37.5890   29.4010   41.8980 C   0  0  0  0  0  0  0  0  0  0  0  0
   38.9130   29.5300   42.3230 C   0  0  0  0  0  0  0  0  0  0  0  0
   39.5220   28.4150   42.8790 C   0  0  0  0  0  0  0  0  0  0  0  0
   38.8350   27.2620   42.9910 N   0  0  0  0  0  0  0  0  0  0  0  0
   37.5550   27.1720   42.5700 C   0  0  0  0  0  0  0  0  0  0  0  0
   36.9150   28.2200   42.0240 N   0  0  0  0  0  0  0  0  0  0  0  0
   37.0460   30.2240   41.4550 H   0  0  0  0  0  0  0  0  0  0  0  0
   40.5460   28.5300   43.2030 H   0  0  0  0  0  0  0  0  0  0  0  0
   39.5580   30.8620   42.1410 C   0  0  0  0  0  0  0  0  0  0  0  0
   40.7300   30.6320   41.4430 F   0  0  0  0  0  0  0  0  0  0  0  0
   39.8520   31.3540   43.4020 F   0  0  0  0  0  0  0  0  0  0  0  0
   38.6750   31.6860   41.4790 F   0  0  0  0  0  0  0  0  0  0  0  0
   36.8190   25.9930   42.6730 O   0  0  0  0  0  0  0  0  0  0  0  0
   37.1750   24.8270   41.9370 C   0  0  0  0  0  0  0  0  0  0  0  0
   38.0870   24.0520   42.6520 F   0  0  0  0  0  0  0  0  0  0  0  0
   36.0540   24.0730   41.6450 F   0  0  0  0  0  0  0  0  0  0  0  0
   37.7820   25.2590   40.7550 F   0  0  0  0  0  0  0  0  0  0  0  0
  1  6  2  0  0  0  0
  1  2  1  0  0  0  0
  2  3  2  0  0  0  0
  3  4  1  0  0  0  0
  3  8  1  0  0  0  0
  5 13  1  0  0  0  0
  5  4  2  0  0  0  0
  6  5  1  0  0  0  0
  7  1  1  0  0  0  0
  9  2  1  0  0  0  0
  9 11  1  0  0  0  0
 10  9  1  0  0  0  0
 12  9  1  0  0  0  0
 14 15  1  0  0  0  0
 14 13  1  0  0  0  0
 16 14  1  0  0  0  0
 17 14  1  0  0  0  0
M  END
>  <minimizedAffinity>
-3.92519808

$$$$
