
 OpenBabel03252501023D

 26 27  0  0  1  0  0  0  0  0999 V2000
   48.1950   35.6170   42.0340 C   0  0  1  0  0  0  0  0  0  0  0  0
   49.4900   34.9070   41.9680 C   0  0  0  0  0  0  0  0  0  0  0  0
   48.6310   35.1200   40.7280 C   0  0  1  0  0  0  0  0  0  0  0  0
   48.2190   36.7170   42.2520 H   0  0  0  0  0  0  0  0  0  0  0  0
   50.4320   35.5200   42.0710 H   0  0  0  0  0  0  0  0  0  0  0  0
   49.6240   33.8370   42.1660 H   0  0  0  0  0  0  0  0  0  0  0  0
   49.1010   35.8270   40.0170 H   0  0  0  0  0  0  0  0  0  0  0  0
   46.3140   33.0520   44.0810 C   0  0  0  0  0  0  0  0  0  0  0  0
   47.3860   33.7240   43.4780 C   0  0  0  0  0  0  0  0  0  0  0  0
   47.0990   34.8610   42.7100 C   0  0  0  0  0  0  0  0  0  0  0  0
   45.8020   35.2610   42.5850 N   0  0  0  0  0  0  0  0  0  0  0  0
   44.7840   34.5930   43.1790 C   0  0  0  0  0  0  0  0  0  0  0  0
   45.0480   33.4960   43.9210 N   0  0  0  0  0  0  0  0  0  0  0  0
   46.5570   32.1830   44.6640 H   0  0  0  0  0  0  0  0  0  0  0  0
   48.3700   33.3590   43.6180 H   0  0  0  0  0  0  0  0  0  0  0  0
   43.7550   34.9450   43.0540 H   0  0  0  0  0  0  0  0  0  0  0  0
   47.9300   34.1240   40.1610 O   0  0  0  0  0  0  0  0  0  0  0  0
   48.9610   32.5010   38.3310 O   0  0  0  0  0  0  0  0  0  0  0  0
   48.1750   33.7690   38.5800 P   0  0  2  0  0  0  0  0  0  0  0  0
   48.9600   34.9870   37.7120 O   0  0  0  0  0  0  0  0  0  0  0  0
   48.3300   35.5250   37.1640 H   0  0  0  0  0  0  0  0  0  0  0  0
   46.6820   33.5170   37.8320 O   0  0  0  0  0  0  0  0  0  0  0  0
   45.7980   32.9530   38.7640 C   0  0  0  0  0  0  0  0  0  0  0  0
   45.4950   33.8360   39.7920 F   0  0  0  0  0  0  0  0  0  0  0  0
   46.3930   31.8650   39.3770 F   0  0  0  0  0  0  0  0  0  0  0  0
   44.6520   32.5170   38.1300 F   0  0  0  0  0  0  0  0  0  0  0  0
  1  4  1  1  0  0  0
  1 10  1  0  0  0  0
  2  1  1  0  0  0  0
  2  5  1  0  0  0  0
  2  6  1  0  0  0  0
  3  7  1  6  0  0  0
  3  2  1  0  0  0  0
  3  1  1  0  0  0  0
  8 14  1  0  0  0  0
  9 15  1  0  0  0  0
  9  8  2  0  0  0  0
 10  9  1  0  0  0  0
 11 10  2  0  0  0  0
 11 12  1  0  0  0  0
 12 13  2  0  0  0  0
 13  8  1  0  0  0  0
 16 12  1  0  0  0  0
 17  3  1  0  0  0  0
 19 18  2  6  0  0  0
 19 17  1  0  0  0  0
 20 19  1  0  0  0  0
 21 20  1  0  0  0  0
 22 19  1  0  0  0  0
 22 23  1  0  0  0  0
 23 25  1  0  0  0  0
 23 24  1  0  0  0  0
 26 23  1  0  0  0  0
M  END
>  <minimizedAffinity>
-4.15100241

>  <minimizedRMSD>
0.684015214

$$$$
