
 OpenBabel03252501333D

 20 20  0  0  0  0  0  0  0  0999 V2000
   45.1000   35.2730   42.8730 C   0  0  0  0  0  0  0  0  0  0  0  0
   45.0070   34.9940   44.2140 C   0  0  0  0  0  0  0  0  0  0  0  0
   46.0210   34.2050   44.7460 C   0  0  0  0  0  0  0  0  0  0  0  0
   46.9950   33.7840   43.9280 N   0  0  0  0  0  0  0  0  0  0  0  0
   47.0510   34.0780   42.6200 C   0  0  0  0  0  0  0  0  0  0  0  0
   46.0790   34.8470   42.0600 N   0  0  0  0  0  0  0  0  0  0  0  0
   45.9510   33.9810   45.8030 H   0  0  0  0  0  0  0  0  0  0  0  0
   47.8750   33.6950   42.0340 H   0  0  0  0  0  0  0  0  0  0  0  0
   43.2280   35.1970   41.4700 C   0  0  0  0  0  0  0  0  0  0  0  0
   43.4820   33.9640   41.6830 O   0  0  0  0  0  0  0  0  0  0  0  0
   44.1400   36.0790   42.1310 N   0  0  0  0  0  0  0  0  0  0  0  0
   44.0530   37.0980   42.0390 H   0  0  0  0  0  0  0  0  0  0  0  0
   42.1790   35.6830   40.6770 O   0  0  0  0  0  0  0  0  0  0  0  0
   40.8500   35.6020   41.1670 C   0  0  0  0  0  0  0  0  0  0  0  0
   40.1440   36.7650   40.8500 F   0  0  0  0  0  0  0  0  0  0  0  0
   40.2270   34.4760   40.6750 F   0  0  0  0  0  0  0  0  0  0  0  0
   40.9650   35.6110   42.5440 F   0  0  0  0  0  0  0  0  0  0  0  0
   43.9090   35.5220   44.9200 N   0  0  0  0  0  0  0  0  0  0  0  0
   43.1760   34.8750   45.2900 H   0  0  0  0  0  0  0  0  0  0  0  0
   43.7510   36.5350   45.1160 H   0  0  0  0  0  0  0  0  0  0  0  0
  1  2  1  0  0  0  0
  2  3  2  0  0  0  0
  2 18  1  0  0  0  0
  3  7  1  0  0  0  0
  4  3  1  0  0  0  0
  5  4  2  0  0  0  0
  6  5  1  0  0  0  0
  6  1  2  0  0  0  0
  8  5  1  0  0  0  0
  9 10  2  0  0  0  0
  9 11  1  0  0  0  0
 11  1  1  0  0  0  0
 12 11  1  0  0  0  0
 13 14  1  0  0  0  0
 13  9  1  0  0  0  0
 14 17  1  0  0  0  0
 15 14  1  0  0  0  0
 16 14  1  0  0  0  0
 18 20  1  0  0  0  0
 18 19  1  0  0  0  0
M  END
>  <minimizedAffinity>
-4.6827693

>  <minimizedRMSD>
1.83662391

$$$$
