
 OpenBabel03242517123D

 42 44  0  0  1  0  0  0  0  0999 V2000
   39.7850   31.8560   39.5010 C   0  0  2  0  0  0  0  0  0  0  0  0
   38.3660   31.4190   39.6060 C   0  0  2  0  0  0  0  0  0  0  0  0
   37.4020   32.4390   39.1320 C   0  0  0  0  0  0  0  0  0  0  0  0
   37.5850   33.8050   39.7330 C   0  0  0  0  0  0  0  0  0  0  0  0
   39.0160   34.1590   40.0190 C   0  0  0  0  0  0  0  0  0  0  0  0
   39.9790   33.3150   39.2030 C   0  0  0  0  0  0  0  0  0  0  0  0
   40.2890   31.6240   40.4890 H   0  0  0  0  0  0  0  0  0  0  0  0
   38.2250   30.5130   38.9790 H   0  0  0  0  0  0  0  0  0  0  0  0
   37.4410   32.4690   38.0260 H   0  0  0  0  0  0  0  0  0  0  0  0
   36.3680   32.1120   39.4440 H   0  0  0  0  0  0  0  0  0  0  0  0
   37.2470   34.5260   38.9330 H   0  0  0  0  0  0  0  0  0  0  0  0
   36.9220   33.9970   40.5850 H   0  0  0  0  0  0  0  0  0  0  0  0
   39.2660   34.0500   41.0890 H   0  0  0  0  0  0  0  0  0  0  0  0
   39.2420   35.2150   39.7460 H   0  0  0  0  0  0  0  0  0  0  0  0
   39.9680   33.6150   38.1650 H   0  0  0  0  0  0  0  0  0  0  0  0
   40.9990   33.6070   39.5990 H   0  0  0  0  0  0  0  0  0  0  0  0
   36.9870   29.9730   41.1540 C   0  0  1  0  0  0  0  0  0  0  0  0
   38.0530   30.9900   41.0210 C   0  0  1  0  0  0  0  0  0  0  0  0
   39.2200   30.4830   41.5790 O   0  0  0  0  0  0  0  0  0  0  0  0
   39.1030   29.1030   41.6370 C   0  0  0  0  0  0  0  0  0  0  0  0
   37.6570   28.9510   42.0800 C   0  0  2  0  0  0  0  0  0  0  0  0
   36.7420   29.4510   40.2200 H   0  0  0  0  0  0  0  0  0  0  0  0
   37.7980   31.9240   41.5890 H   0  0  0  0  0  0  0  0  0  0  0  0
   39.2320   28.6420   40.6340 H   0  0  0  0  0  0  0  0  0  0  0  0
   39.7990   28.6850   42.3660 H   0  0  0  0  0  0  0  0  0  0  0  0
   37.5900   29.2270   43.1410 H   0  0  0  0  0  0  0  0  0  0  0  0
   35.8410   30.4280   41.7640 O   0  0  0  0  0  0  0  0  0  0  0  0
   35.1740   29.7110   41.8060 H   0  0  0  0  0  0  0  0  0  0  0  0
   37.1620   27.6840   41.8010 O   0  0  0  0  0  0  0  0  0  0  0  0
   36.9280   26.8980   42.8990 C   0  0  0  0  0  0  0  0  0  0  0  0
   38.0820   26.9510   43.6800 F   0  0  0  0  0  0  0  0  0  0  0  0
   35.8710   27.4290   43.6150 F   0  0  0  0  0  0  0  0  0  0  0  0
   36.6940   25.5970   42.5670 F   0  0  0  0  0  0  0  0  0  0  0  0
   40.5450   31.0700   38.5130 C   0  0  0  0  0  0  0  0  0  0  0  0
   41.5210   31.7840   37.8170 C   0  0  0  0  0  0  0  0  0  0  0  0
   42.3170   31.1460   36.8530 C   0  0  0  0  0  0  0  0  0  0  0  0
   42.0560   29.7920   36.6640 N   0  0  0  0  0  0  0  0  0  0  0  0
   41.0980   29.1360   37.3600 C   0  0  0  0  0  0  0  0  0  0  0  0
   40.3430   29.7720   38.2850 N   0  0  0  0  0  0  0  0  0  0  0  0
   41.8300   32.8170   37.8430 H   0  0  0  0  0  0  0  0  0  0  0  0
   43.0870   31.5570   36.2550 H   0  0  0  0  0  0  0  0  0  0  0  0
   40.9580   28.0840   37.1520 H   0  0  0  0  0  0  0  0  0  0  0  0
  1  2  1  0  0  0  0
  1  7  1  1  0  0  0
  2  8  1  6  0  0  0
  2 18  1  0  0  0  0
  3 10  1  0  0  0  0
  3  2  1  0  0  0  0
  3  4  1  0  0  0  0
  4  5  1  0  0  0  0
  4 12  1  0  0  0  0
  5 13  1  0  0  0  0
  6  1  1  0  0  0  0
  6 16  1  0  0  0  0
  6  5  1  0  0  0  0
  9  3  1  0  0  0  0
 11  4  1  0  0  0  0
 14  5  1  0  0  0  0
 15  6  1  0  0  0  0
 17 22  1  6  0  0  0
 17 27  1  0  0  0  0
 17 21  1  0  0  0  0
 18 17  1  0  0  0  0
 18 19  1  0  0  0  0
 18 23  1  1  0  0  0
 19 20  1  0  0  0  0
 20 21  1  0  0  0  0
 20 25  1  0  0  0  0
 21 26  1  1  0  0  0
 24 20  1  0  0  0  0
 27 28  1  0  0  0  0
 29 21  1  0  0  0  0
 29 30  1  0  0  0  0
 30 32  1  0  0  0  0
 30 31  1  0  0  0  0
 33 30  1  0  0  0  0
 34  1  1  0  0  0  0
 35 40  1  0  0  0  0
 35 34  2  0  0  0  0
 36 35  1  0  0  0  0
 37 36  2  0  0  0  0
 37 38  1  0  0  0  0
 38 39  2  0  0  0  0
 39 34  1  0  0  0  0
 41 36  1  0  0  0  0
 42 38  1  0  0  0  0
M  END
>  <minimizedAffinity>
-5.9775238

$$$$

 OpenBabel03242517123D

 42 44  0  0  1  0  0  0  0  0999 V2000
   39.1120   27.2670   42.2830 C   0  0  2  0  0  0  0  0  0  0  0  0
   38.3400   28.4910   42.6320 C   0  0  2  0  0  0  0  0  0  0  0  0
   37.3180   28.2610   43.6780 C   0  0  0  0  0  0  0  0  0  0  0  0
   36.3940   27.1050   43.4120 C   0  0  0  0  0  0  0  0  0  0  0  0
   37.0420   25.9590   42.6910 C   0  0  0  0  0  0  0  0  0  0  0  0
   38.5540   25.9870   42.8340 C   0  0  0  0  0  0  0  0  0  0  0  0
   39.1380   27.1890   41.1530 H   0  0  0  0  0  0  0  0  0  0  0  0
   39.0440   29.2590   43.0190 H   0  0  0  0  0  0  0  0  0  0  0  0
   37.8330   28.1580   44.6530 H   0  0  0  0  0  0  0  0  0  0  0  0
   36.6520   29.1710   43.7200 H   0  0  0  0  0  0  0  0  0  0  0  0
   36.1180   26.7070   44.4320 H   0  0  0  0  0  0  0  0  0  0  0  0
   35.4410   27.4070   42.9600 H   0  0  0  0  0  0  0  0  0  0  0  0
   36.7860   25.9440   41.6170 H   0  0  0  0  0  0  0  0  0  0  0  0
   36.7220   24.9770   43.1070 H   0  0  0  0  0  0  0  0  0  0  0  0
   38.8500   25.7060   43.8330 H   0  0  0  0  0  0  0  0  0  0  0  0
   38.9060   25.1480   42.1580 H   0  0  0  0  0  0  0  0  0  0  0  0
   37.1870   30.4630   41.5480 C   0  0  1  0  0  0  0  0  0  0  0  0
   37.7220   29.0920   41.3900 C   0  0  1  0  0  0  0  0  0  0  0  0
   38.6940   29.1090   40.3980 O   0  0  0  0  0  0  0  0  0  0  0  0
   39.1270   30.4170   40.2430 C   0  0  0  0  0  0  0  0  0  0  0  0
   37.8130   31.1730   40.3410 C   0  0  2  0  0  0  0  0  0  0  0  0
   37.5400   30.9840   42.4480 H   0  0  0  0  0  0  0  0  0  0  0  0
   36.9230   28.3790   41.0540 H   0  0  0  0  0  0  0  0  0  0  0  0
   39.7930   30.7250   41.0770 H   0  0  0  0  0  0  0  0  0  0  0  0
   39.6050   30.5550   39.2720 H   0  0  0  0  0  0  0  0  0  0  0  0
   37.2500   31.0110   39.4110 H   0  0  0  0  0  0  0  0  0  0  0  0
   35.8180   30.5530   41.4460 O   0  0  0  0  0  0  0  0  0  0  0  0
   35.5320   31.4810   41.5750 H   0  0  0  0  0  0  0  0  0  0  0  0
   38.0090   32.5130   40.6480 O   0  0  0  0  0  0  0  0  0  0  0  0
   38.0210   33.3590   39.5700 C   0  0  0  0  0  0  0  0  0  0  0  0
   36.8850   34.1610   39.6810 F   0  0  0  0  0  0  0  0  0  0  0  0
   39.1480   34.1570   39.6360 F   0  0  0  0  0  0  0  0  0  0  0  0
   37.9600   32.6910   38.3830 F   0  0  0  0  0  0  0  0  0  0  0  0
   40.5310   27.3660   42.6710 C   0  0  0  0  0  0  0  0  0  0  0  0
   41.0580   26.2220   43.2690 C   0  0  0  0  0  0  0  0  0  0  0  0
   42.4010   26.1880   43.6780 C   0  0  0  0  0  0  0  0  0  0  0  0
   43.1270   27.3520   43.4410 N   0  0  0  0  0  0  0  0  0  0  0  0
   42.5750   28.4420   42.8580 C   0  0  0  0  0  0  0  0  0  0  0  0
   41.2790   28.4520   42.4720 N   0  0  0  0  0  0  0  0  0  0  0  0
   40.6310   25.2660   43.5240 H   0  0  0  0  0  0  0  0  0  0  0  0
   42.9320   25.3970   44.1400 H   0  0  0  0  0  0  0  0  0  0  0  0
   43.2090   29.3070   42.7110 H   0  0  0  0  0  0  0  0  0  0  0  0
  1  7  1  6  0  0  0
  1  2  1  0  0  0  0
  1 34  1  0  0  0  0
  1  6  1  0  0  0  0
  2  8  1  1  0  0  0
  2  3  1  0  0  0  0
  3 10  1  0  0  0  0
  3  9  1  0  0  0  0
  4  3  1  0  0  0  0
  4 11  1  0  0  0  0
  5  6  1  0  0  0  0
  5 14  1  0  0  0  0
  5  4  1  0  0  0  0
  6 15  1  0  0  0  0
 12  4  1  0  0  0  0
 13  5  1  0  0  0  0
 16  6  1  0  0  0  0
 17 22  1  1  0  0  0
 18 23  1  6  0  0  0
 18 17  1  0  0  0  0
 18  2  1  0  0  0  0
 19 18  1  0  0  0  0
 20 21  1  0  0  0  0
 20 19  1  0  0  0  0
 20 24  1  0  0  0  0
 21 26  1  6  0  0  0
 21 29  1  0  0  0  0
 21 17  1  0  0  0  0
 25 20  1  0  0  0  0
 27 17  1  0  0  0  0
 27 28  1  0  0  0  0
 30 32  1  0  0  0  0
 30 31  1  0  0  0  0
 30 29  1  0  0  0  0
 33 30  1  0  0  0  0
 34 35  1  0  0  0  0
 35 40  1  0  0  0  0
 35 36  2  0  0  0  0
 36 41  1  0  0  0  0
 37 36  1  0  0  0  0
 38 37  2  0  0  0  0
 39 34  2  0  0  0  0
 39 38  1  0  0  0  0
 42 38  1  0  0  0  0
M  END
>  <minimizedAffinity>
-5.82670403

$$$$

 OpenBabel03242517123D

 42 44  0  0  1  0  0  0  0  0999 V2000
   39.9330   32.7790   40.5180 C   0  0  2  0  0  0  0  0  0  0  0  0
   39.1170   31.5680   40.2300 C   0  0  2  0  0  0  0  0  0  0  0  0
   38.1270   31.7720   39.1480 C   0  0  0  0  0  0  0  0  0  0  0  0
   37.2480   32.9800   39.3180 C   0  0  0  0  0  0  0  0  0  0  0  0
   37.9300   34.1430   39.9790 C   0  0  0  0  0  0  0  0  0  0  0  0
   39.4410   34.0430   39.8730 C   0  0  0  0  0  0  0  0  0  0  0  0
   39.9390   32.9300   41.6410 H   0  0  0  0  0  0  0  0  0  0  0  0
   39.7950   30.7490   39.9100 H   0  0  0  0  0  0  0  0  0  0  0  0
   38.6660   31.7900   38.1810 H   0  0  0  0  0  0  0  0  0  0  0  0
   37.4240   30.8890   39.1490 H   0  0  0  0  0  0  0  0  0  0  0  0
   37.0110   33.3220   38.2680 H   0  0  0  0  0  0  0  0  0  0  0  0
   36.2740   32.7480   39.7650 H   0  0  0  0  0  0  0  0  0  0  0  0
   37.6520   34.2380   41.0430 H   0  0  0  0  0  0  0  0  0  0  0  0
   37.6610   35.1080   39.4920 H   0  0  0  0  0  0  0  0  0  0  0  0
   39.7700   34.2460   38.8650 H   0  0  0  0  0  0  0  0  0  0  0  0
   39.8150   34.9090   40.5010 H   0  0  0  0  0  0  0  0  0  0  0  0
   37.4120   30.0370   41.2990 C   0  0  1  0  0  0  0  0  0  0  0  0
   38.4470   31.0760   41.4940 C   0  0  1  0  0  0  0  0  0  0  0  0
   39.4360   30.5630   42.3250 O   0  0  0  0  0  0  0  0  0  0  0  0
   39.3430   29.1800   42.2990 C   0  0  0  0  0  0  0  0  0  0  0  0
   37.8360   28.9880   42.3320 C   0  0  2  0  0  0  0  0  0  0  0  0
   37.4390   29.5520   40.3140 H   0  0  0  0  0  0  0  0  0  0  0  0
   38.0260   31.9810   42.0060 H   0  0  0  0  0  0  0  0  0  0  0  0
   39.7470   28.7640   41.3510 H   0  0  0  0  0  0  0  0  0  0  0  0
   39.8290   28.7420   43.1730 H   0  0  0  0  0  0  0  0  0  0  0  0
   37.4800   29.2170   43.3460 H   0  0  0  0  0  0  0  0  0  0  0  0
   36.1330   30.4490   41.5950 O   0  0  0  0  0  0  0  0  0  0  0  0
   35.4980   29.7210   41.4300 H   0  0  0  0  0  0  0  0  0  0  0  0
   37.4670   27.7260   41.8840 O   0  0  0  0  0  0  0  0  0  0  0  0
   37.0970   26.8470   42.8680 C   0  0  0  0  0  0  0  0  0  0  0  0
   38.2190   26.6580   43.6750 F   0  0  0  0  0  0  0  0  0  0  0  0
   36.0860   27.4140   43.6220 F   0  0  0  0  0  0  0  0  0  0  0  0
   36.7190   25.6360   42.3680 F   0  0  0  0  0  0  0  0  0  0  0  0
   41.3540   32.5970   40.1710 C   0  0  0  0  0  0  0  0  0  0  0  0
   42.2010   33.6190   40.6010 C   0  0  0  0  0  0  0  0  0  0  0  0
   43.5780   33.5580   40.3370 C   0  0  0  0  0  0  0  0  0  0  0  0
   44.0040   32.4330   39.6380 N   0  0  0  0  0  0  0  0  0  0  0  0
   43.1480   31.4640   39.2380 C   0  0  0  0  0  0  0  0  0  0  0  0
   41.8240   31.5430   39.5030 N   0  0  0  0  0  0  0  0  0  0  0  0
   42.0250   34.5400   41.1330 H   0  0  0  0  0  0  0  0  0  0  0  0
   44.3330   34.2530   40.6010 H   0  0  0  0  0  0  0  0  0  0  0  0
   43.5610   30.6220   38.6970 H   0  0  0  0  0  0  0  0  0  0  0  0
  1  7  1  1  0  0  0
  2  8  1  6  0  0  0
  2  1  1  0  0  0  0
  2 18  1  0  0  0  0
  3 10  1  0  0  0  0
  3  4  1  0  0  0  0
  3  2  1  0  0  0  0
  4 12  1  0  0  0  0
  4  5  1  0  0  0  0
  5 13  1  0  0  0  0
  6  5  1  0  0  0  0
  6 16  1  0  0  0  0
  6  1  1  0  0  0  0
  9  3  1  0  0  0  0
 11  4  1  0  0  0  0
 14  5  1  0  0  0  0
 15  6  1  0  0  0  0
 17 22  1  6  0  0  0
 17 18  1  0  0  0  0
 17 27  1  0  0  0  0
 17 21  1  0  0  0  0
 18 23  1  1  0  0  0
 18 19  1  0  0  0  0
 20 19  1  0  0  0  0
 20 21  1  0  0  0  0
 20 25  1  0  0  0  0
 21 26  1  1  0  0  0
 24 20  1  0  0  0  0
 28 27  1  0  0  0  0
 29 21  1  0  0  0  0
 29 30  1  0  0  0  0
 30 32  1  0  0  0  0
 30 31  1  0  0  0  0
 33 30  1  0  0  0  0
 34  1  1  0  0  0  0
 34 35  1  0  0  0  0
 35 40  1  0  0  0  0
 36 35  2  0  0  0  0
 36 41  1  0  0  0  0
 37 36  1  0  0  0  0
 38 39  1  0  0  0  0
 38 37  2  0  0  0  0
 39 34  2  0  0  0  0
 42 38  1  0  0  0  0
M  END
>  <minimizedAffinity>
-5.72818375

$$$$

 OpenBabel03242517123D

 42 44  0  0  1  0  0  0  0  0999 V2000
   37.6000   30.4950   38.1290 C   0  0  2  0  0  0  0  0  0  0  0  0
   37.0540   30.8320   39.4720 C   0  0  2  0  0  0  0  0  0  0  0  0
   37.0580   32.2860   39.7570 C   0  0  0  0  0  0  0  0  0  0  0  0
   38.3780   32.9670   39.5310 C   0  0  0  0  0  0  0  0  0  0  0  0
   39.1750   32.3950   38.3930 C   0  0  0  0  0  0  0  0  0  0  0  0
   38.2960   31.6240   37.4250 C   0  0  0  0  0  0  0  0  0  0  0  0
   38.3400   29.6470   38.2620 H   0  0  0  0  0  0  0  0  0  0  0  0
   36.0000   30.4860   39.5250 H   0  0  0  0  0  0  0  0  0  0  0  0
   36.2470   32.7590   39.1710 H   0  0  0  0  0  0  0  0  0  0  0  0
   36.8350   32.4250   40.8540 H   0  0  0  0  0  0  0  0  0  0  0  0
   38.1160   34.0210   39.2200 H   0  0  0  0  0  0  0  0  0  0  0  0
   38.9700   33.0830   40.4470 H   0  0  0  0  0  0  0  0  0  0  0  0
   39.9850   31.7330   38.7440 H   0  0  0  0  0  0  0  0  0  0  0  0
   39.6570   33.1940   37.7850 H   0  0  0  0  0  0  0  0  0  0  0  0
   37.6850   32.2960   36.8410 H   0  0  0  0  0  0  0  0  0  0  0  0
   39.0330   31.1630   36.6980 H   0  0  0  0  0  0  0  0  0  0  0  0
   36.9440   29.2300   41.4240 C   0  0  1  0  0  0  0  0  0  0  0  0
   37.7920   30.0650   40.5450 C   0  0  1  0  0  0  0  0  0  0  0  0
   38.7200   29.2430   39.9170 O   0  0  0  0  0  0  0  0  0  0  0  0
   38.2480   27.9420   39.9730 C   0  0  0  0  0  0  0  0  0  0  0  0
   37.6920   27.8920   41.3860 C   0  0  2  0  0  0  0  0  0  0  0  0
   35.9340   29.0460   41.0340 H   0  0  0  0  0  0  0  0  0  0  0  0
   38.3720   30.8210   41.1370 H   0  0  0  0  0  0  0  0  0  0  0  0
   37.4230   27.7780   39.2460 H   0  0  0  0  0  0  0  0  0  0  0  0
   39.0610   27.2280   39.8290 H   0  0  0  0  0  0  0  0  0  0  0  0
   38.5360   27.8550   42.0890 H   0  0  0  0  0  0  0  0  0  0  0  0
   36.8830   29.6590   42.7290 O   0  0  0  0  0  0  0  0  0  0  0  0
   36.2950   29.0730   43.2500 H   0  0  0  0  0  0  0  0  0  0  0  0
   36.7850   26.8540   41.5490 O   0  0  0  0  0  0  0  0  0  0  0  0
   36.8770   26.1850   42.7420 C   0  0  0  0  0  0  0  0  0  0  0  0
   38.2120   26.2630   43.1390 F   0  0  0  0  0  0  0  0  0  0  0  0
   36.0870   26.8240   43.6780 F   0  0  0  0  0  0  0  0  0  0  0  0
   36.5400   24.8690   42.6270 F   0  0  0  0  0  0  0  0  0  0  0  0
   36.5740   29.9400   37.2270 C   0  0  0  0  0  0  0  0  0  0  0  0
   35.4440   29.4280   37.8650 C   0  0  0  0  0  0  0  0  0  0  0  0
   34.3930   28.8770   37.1150 C   0  0  0  0  0  0  0  0  0  0  0  0
   34.5740   28.8880   35.7350 N   0  0  0  0  0  0  0  0  0  0  0  0
   35.6870   29.3940   35.1560 C   0  0  0  0  0  0  0  0  0  0  0  0
   36.6880   29.9200   35.8980 N   0  0  0  0  0  0  0  0  0  0  0  0
   35.1660   29.3400   38.9030 H   0  0  0  0  0  0  0  0  0  0  0  0
   33.4840   28.4570   37.4600 H   0  0  0  0  0  0  0  0  0  0  0  0
   35.7490   29.3630   34.0760 H   0  0  0  0  0  0  0  0  0  0  0  0
  1  7  1  1  0  0  0
  1  2  1  0  0  0  0
  2  8  1  1  0  0  0
  2  3  1  0  0  0  0
  2 18  1  0  0  0  0
  3 10  1  0  0  0  0
  4  3  1  0  0  0  0
  4 12  1  0  0  0  0
  5 13  1  0  0  0  0
  5  4  1  0  0  0  0
  6  1  1  0  0  0  0
  6  5  1  0  0  0  0
  9  3  1  0  0  0  0
 11  4  1  0  0  0  0
 14  5  1  0  0  0  0
 15  6  1  0  0  0  0
 16  6  1  0  0  0  0
 17 22  1  6  0  0  0
 17 27  1  0  0  0  0
 18 23  1  1  0  0  0
 18 17  1  0  0  0  0
 19 20  1  0  0  0  0
 19 18  1  0  0  0  0
 20 21  1  0  0  0  0
 21 17  1  0  0  0  0
 21 29  1  0  0  0  0
 21 26  1  1  0  0  0
 24 20  1  0  0  0  0
 25 20  1  0  0  0  0
 27 28  1  0  0  0  0
 29 30  1  0  0  0  0
 30 31  1  0  0  0  0
 30 32  1  0  0  0  0
 33 30  1  0  0  0  0
 34 35  1  0  0  0  0
 34  1  1  0  0  0  0
 35 40  1  0  0  0  0
 36 41  1  0  0  0  0
 36 35  2  0  0  0  0
 37 36  1  0  0  0  0
 38 37  2  0  0  0  0
 38 39  1  0  0  0  0
 39 34  2  0  0  0  0
 42 38  1  0  0  0  0
M  END
>  <minimizedAffinity>
-5.69729996

$$$$

 OpenBabel03242517123D

 42 44  0  0  1  0  0  0  0  0999 V2000
   37.2810   26.3280   41.3270 C   0  0  2  0  0  0  0  0  0  0  0  0
   38.1590   27.5300   41.3140 C   0  0  2  0  0  0  0  0  0  0  0  0
   38.6160   27.9360   42.6630 C   0  0  0  0  0  0  0  0  0  0  0  0
   37.5190   28.0870   43.6800 C   0  0  0  0  0  0  0  0  0  0  0  0
   36.3820   27.1220   43.5000 C   0  0  0  0  0  0  0  0  0  0  0  0
   36.7980   25.9100   42.6860 C   0  0  0  0  0  0  0  0  0  0  0  0
   36.3780   26.5560   40.6810 H   0  0  0  0  0  0  0  0  0  0  0  0
   39.0640   27.3040   40.7110 H   0  0  0  0  0  0  0  0  0  0  0  0
   39.3910   27.2210   43.0000 H   0  0  0  0  0  0  0  0  0  0  0  0
   39.0860   28.9580   42.5780 H   0  0  0  0  0  0  0  0  0  0  0  0
   37.9940   27.8180   44.6680 H   0  0  0  0  0  0  0  0  0  0  0  0
   37.1800   29.1230   43.8030 H   0  0  0  0  0  0  0  0  0  0  0  0
   35.5080   27.5940   43.0180 H   0  0  0  0  0  0  0  0  0  0  0  0
   36.0280   26.7180   44.4760 H   0  0  0  0  0  0  0  0  0  0  0  0
   37.4390   25.2610   43.2630 H   0  0  0  0  0  0  0  0  0  0  0  0
   35.8310   25.3380   42.5370 H   0  0  0  0  0  0  0  0  0  0  0  0
   37.4540   29.9580   41.3410 C   0  0  1  0  0  0  0  0  0  0  0  0
   37.4700   28.6740   40.6050 C   0  0  1  0  0  0  0  0  0  0  0  0
   38.1150   28.8700   39.3900 O   0  0  0  0  0  0  0  0  0  0  0  0
   38.8850   30.0170   39.4920 C   0  0  0  0  0  0  0  0  0  0  0  0
   37.9470   30.9310   40.2630 C   0  0  2  0  0  0  0  0  0  0  0  0
   38.1680   30.0090   42.1740 H   0  0  0  0  0  0  0  0  0  0  0  0
   36.4300   28.3250   40.3720 H   0  0  0  0  0  0  0  0  0  0  0  0
   39.8020   29.8390   40.0940 H   0  0  0  0  0  0  0  0  0  0  0  0
   39.1210   30.4160   38.5040 H   0  0  0  0  0  0  0  0  0  0  0  0
   37.1460   31.2570   39.5850 H   0  0  0  0  0  0  0  0  0  0  0  0
   36.2050   30.3600   41.7540 O   0  0  0  0  0  0  0  0  0  0  0  0
   36.2690   31.2050   42.2460 H   0  0  0  0  0  0  0  0  0  0  0  0
   38.6270   31.9790   40.8680 O   0  0  0  0  0  0  0  0  0  0  0  0
   38.4420   33.2050   40.2820 C   0  0  0  0  0  0  0  0  0  0  0  0
   38.7510   34.1590   41.2520 F   0  0  0  0  0  0  0  0  0  0  0  0
   39.3190   33.3350   39.2220 F   0  0  0  0  0  0  0  0  0  0  0  0
   37.1530   33.4010   39.8830 F   0  0  0  0  0  0  0  0  0  0  0  0
   37.9080   25.1650   40.6730 C   0  0  0  0  0  0  0  0  0  0  0  0
   39.0290   25.4600   39.8970 C   0  0  0  0  0  0  0  0  0  0  0  0
   39.7190   24.4370   39.2280 C   0  0  0  0  0  0  0  0  0  0  0  0
   39.2050   23.1560   39.4020 N   0  0  0  0  0  0  0  0  0  0  0  0
   38.1130   22.9130   40.1640 C   0  0  0  0  0  0  0  0  0  0  0  0
   37.4640   23.9150   40.8010 N   0  0  0  0  0  0  0  0  0  0  0  0
   39.5340   26.3830   39.6600 H   0  0  0  0  0  0  0  0  0  0  0  0
   40.5770   24.5120   38.6110 H   0  0  0  0  0  0  0  0  0  0  0  0
   37.7770   21.8880   40.2470 H   0  0  0  0  0  0  0  0  0  0  0  0
  1  7  1  6  0  0  0
  1  6  1  0  0  0  0
  2  8  1  6  0  0  0
  2  1  1  0  0  0  0
  2  3  1  0  0  0  0
  3  9  1  0  0  0  0
  3  4  1  0  0  0  0
  4 12  1  0  0  0  0
  4 11  1  0  0  0  0
  5  4  1  0  0  0  0
  5 14  1  0  0  0  0
  6 15  1  0  0  0  0
  6  5  1  0  0  0  0
 10  3  1  0  0  0  0
 13  5  1  0  0  0  0
 16  6  1  0  0  0  0
 17 27  1  0  0  0  0
 17 22  1  1  0  0  0
 18 23  1  6  0  0  0
 18  2  1  0  0  0  0
 18 17  1  0  0  0  0
 19 20  1  0  0  0  0
 19 18  1  0  0  0  0
 20 24  1  0  0  0  0
 20 21  1  0  0  0  0
 21 26  1  6  0  0  0
 21 29  1  0  0  0  0
 21 17  1  0  0  0  0
 25 20  1  0  0  0  0
 27 28  1  0  0  0  0
 30 29  1  0  0  0  0
 30 31  1  0  0  0  0
 32 30  1  0  0  0  0
 33 30  1  0  0  0  0
 34 39  1  0  0  0  0
 34  1  1  0  0  0  0
 35 34  2  0  0  0  0
 36 37  2  0  0  0  0
 36 35  1  0  0  0  0
 37 38  1  0  0  0  0
 38 42  1  0  0  0  0
 38 39  2  0  0  0  0
 40 35  1  0  0  0  0
 41 36  1  0  0  0  0
M  END
>  <minimizedAffinity>
-5.63670063

$$$$

 OpenBabel03242517123D

 42 44  0  0  1  0  0  0  0  0999 V2000
   36.7580   27.9740   39.5360 C   0  0  2  0  0  0  0  0  0  0  0  0
   36.1090   29.2240   40.0160 C   0  0  2  0  0  0  0  0  0  0  0  0
   34.6360   29.2150   39.8630 C   0  0  0  0  0  0  0  0  0  0  0  0
   34.1480   28.8530   38.4880 C   0  0  0  0  0  0  0  0  0  0  0  0
   35.0110   27.8500   37.7780 C   0  0  0  0  0  0  0  0  0  0  0  0
   35.8670   27.0570   38.7490 C   0  0  0  0  0  0  0  0  0  0  0  0
   37.6330   28.2710   38.8800 H   0  0  0  0  0  0  0  0  0  0  0  0
   36.3300   29.3490   41.0970 H   0  0  0  0  0  0  0  0  0  0  0  0
   34.2090   28.5490   40.6380 H   0  0  0  0  0  0  0  0  0  0  0  0
   34.2610   30.2630   40.0460 H   0  0  0  0  0  0  0  0  0  0  0  0
   33.1560   28.3400   38.6530 H   0  0  0  0  0  0  0  0  0  0  0  0
   33.9140   29.7260   37.8670 H   0  0  0  0  0  0  0  0  0  0  0  0
   35.6680   28.3230   37.0280 H   0  0  0  0  0  0  0  0  0  0  0  0
   34.4000   27.0940   37.2340 H   0  0  0  0  0  0  0  0  0  0  0  0
   35.2660   26.3530   39.3050 H   0  0  0  0  0  0  0  0  0  0  0  0
   36.5340   26.4340   38.0780 H   0  0  0  0  0  0  0  0  0  0  0  0
   37.2910   31.4480   40.2360 C   0  0  1  0  0  0  0  0  0  0  0  0
   36.7190   30.4270   39.3310 C   0  0  1  0  0  0  0  0  0  0  0  0
   37.7260   29.9700   38.4890 O   0  0  0  0  0  0  0  0  0  0  0  0
   38.9450   30.2750   39.0730 C   0  0  0  0  0  0  0  0  0  0  0  0
   38.6720   31.6700   39.6090 C   0  0  2  0  0  0  0  0  0  0  0  0
   37.4540   31.0990   41.2650 H   0  0  0  0  0  0  0  0  0  0  0  0
   35.9180   30.8630   38.6780 H   0  0  0  0  0  0  0  0  0  0  0  0
   39.1710   29.5920   39.9210 H   0  0  0  0  0  0  0  0  0  0  0  0
   39.7430   30.2720   38.3290 H   0  0  0  0  0  0  0  0  0  0  0  0
   38.6490   32.3680   38.7610 H   0  0  0  0  0  0  0  0  0  0  0  0
   36.6150   32.6460   40.2390 O   0  0  0  0  0  0  0  0  0  0  0  0
   37.0350   33.2690   40.8670 H   0  0  0  0  0  0  0  0  0  0  0  0
   39.5750   32.0280   40.6020 O   0  0  0  0  0  0  0  0  0  0  0  0
   40.0480   33.3120   40.5200 C   0  0  0  0  0  0  0  0  0  0  0  0
   40.0890   33.6350   39.1630 F   0  0  0  0  0  0  0  0  0  0  0  0
   39.1630   34.1590   41.1610 F   0  0  0  0  0  0  0  0  0  0  0  0
   41.3060   33.4360   41.0290 F   0  0  0  0  0  0  0  0  0  0  0  0
   37.3750   27.2040   40.6310 C   0  0  0  0  0  0  0  0  0  0  0  0
   37.0640   25.8430   40.6420 C   0  0  0  0  0  0  0  0  0  0  0  0
   37.5950   25.0010   41.6320 C   0  0  0  0  0  0  0  0  0  0  0  0
   38.4240   25.6200   42.5620 N   0  0  0  0  0  0  0  0  0  0  0  0
   38.6990   26.9440   42.5160 C   0  0  0  0  0  0  0  0  0  0  0  0
   38.1770   27.7370   41.5530 N   0  0  0  0  0  0  0  0  0  0  0  0
   36.4430   25.2300   40.0100 H   0  0  0  0  0  0  0  0  0  0  0  0
   37.4480   23.9600   41.7620 H   0  0  0  0  0  0  0  0  0  0  0  0
   39.3530   27.3470   43.2780 H   0  0  0  0  0  0  0  0  0  0  0  0
  1  7  1  6  0  0  0
  1  2  1  0  0  0  0
  1 34  1  0  0  0  0
  2  8  1  1  0  0  0
  3  2  1  0  0  0  0
  3 10  1  0  0  0  0
  3  9  1  0  0  0  0
  4 11  1  0  0  0  0
  4  3  1  0  0  0  0
  5  4  1  0  0  0  0
  5  6  1  0  0  0  0
  6 15  1  0  0  0  0
  6  1  1  0  0  0  0
 12  4  1  0  0  0  0
 13  5  1  0  0  0  0
 14  5  1  0  0  0  0
 16  6  1  0  0  0  0
 17 27  1  0  0  0  0
 17 22  1  1  0  0  0
 18 23  1  6  0  0  0
 18  2  1  0  0  0  0
 18 17  1  0  0  0  0
 19 20  1  0  0  0  0
 19 18  1  0  0  0  0
 20 21  1  0  0  0  0
 20 24  1  0  0  0  0
 21 26  1  6  0  0  0
 21 17  1  0  0  0  0
 21 29  1  0  0  0  0
 25 20  1  0  0  0  0
 27 28  1  0  0  0  0
 30 29  1  0  0  0  0
 30 33  1  0  0  0  0
 30 32  1  0  0  0  0
 31 30  1  0  0  0  0
 34 35  2  0  0  0  0
 34 39  1  0  0  0  0
 35 36  1  0  0  0  0
 36 41  1  0  0  0  0
 36 37  2  0  0  0  0
 38 37  1  0  0  0  0
 38 42  1  0  0  0  0
 39 38  2  0  0  0  0
 40 35  1  0  0  0  0
M  END
>  <minimizedAffinity>
-5.46976233

$$$$

 OpenBabel03242517123D

 42 44  0  0  1  0  0  0  0  0999 V2000
   38.7070   31.4250   41.0810 C   0  0  2  0  0  0  0  0  0  0  0  0
   38.5160   30.1230   40.3860 C   0  0  2  0  0  0  0  0  0  0  0  0
   38.2480   30.2660   38.9370 C   0  0  0  0  0  0  0  0  0  0  0  0
   37.1400   31.2220   38.5930 C   0  0  0  0  0  0  0  0  0  0  0  0
   37.0350   32.3960   39.5240 C   0  0  0  0  0  0  0  0  0  0  0  0
   38.3330   32.6360   40.2750 C   0  0  0  0  0  0  0  0  0  0  0  0
   38.0710   31.4100   42.0190 H   0  0  0  0  0  0  0  0  0  0  0  0
   39.4430   29.5210   40.4950 H   0  0  0  0  0  0  0  0  0  0  0  0
   39.1950   30.5380   38.4320 H   0  0  0  0  0  0  0  0  0  0  0  0
   37.9090   29.2640   38.5450 H   0  0  0  0  0  0  0  0  0  0  0  0
   37.4240   31.6540   37.5890 H   0  0  0  0  0  0  0  0  0  0  0  0
   36.1760   30.7270   38.4240 H   0  0  0  0  0  0  0  0  0  0  0  0
   36.2170   32.2750   40.2560 H   0  0  0  0  0  0  0  0  0  0  0  0
   36.8320   33.3420   38.9730 H   0  0  0  0  0  0  0  0  0  0  0  0
   39.0860   33.0470   39.6200 H   0  0  0  0  0  0  0  0  0  0  0  0
   38.0740   33.4600   41.0080 H   0  0  0  0  0  0  0  0  0  0  0  0
   37.1600   27.9910   40.4760 C   0  0  1  0  0  0  0  0  0  0  0  0
   37.4270   29.3220   41.0640 C   0  0  1  0  0  0  0  0  0  0  0  0
   37.7920   29.1520   42.3940 O   0  0  0  0  0  0  0  0  0  0  0  0
   38.2070   27.8410   42.5610 C   0  0  0  0  0  0  0  0  0  0  0  0
   37.1790   27.0990   41.7230 C   0  0  2  0  0  0  0  0  0  0  0  0
   37.9500   27.6270   39.8060 H   0  0  0  0  0  0  0  0  0  0  0  0
   36.5070   29.9640   41.0560 H   0  0  0  0  0  0  0  0  0  0  0  0
   39.2200   27.6780   42.1320 H   0  0  0  0  0  0  0  0  0  0  0  0
   38.1630   27.5500   43.6120 H   0  0  0  0  0  0  0  0  0  0  0  0
   36.2240   27.1020   42.2650 H   0  0  0  0  0  0  0  0  0  0  0  0
   35.9290   27.8730   39.8740 O   0  0  0  0  0  0  0  0  0  0  0  0
   35.8240   26.9760   39.4940 H   0  0  0  0  0  0  0  0  0  0  0  0
   37.6180   25.8290   41.3730 O   0  0  0  0  0  0  0  0  0  0  0  0
   37.0100   24.8000   42.0450 C   0  0  0  0  0  0  0  0  0  0  0  0
   38.0310   24.0520   42.6310 F   0  0  0  0  0  0  0  0  0  0  0  0
   36.2040   25.3250   43.0370 F   0  0  0  0  0  0  0  0  0  0  0  0
   36.3020   23.9830   41.2140 F   0  0  0  0  0  0  0  0  0  0  0  0
   40.0820   31.6000   41.5810 C   0  0  0  0  0  0  0  0  0  0  0  0
   40.8650   32.4960   40.8500 C   0  0  0  0  0  0  0  0  0  0  0  0
   42.1910   32.7540   41.2300 C   0  0  0  0  0  0  0  0  0  0  0  0
   42.6360   32.0640   42.3540 N   0  0  0  0  0  0  0  0  0  0  0  0
   41.8450   31.2030   43.0340 C   0  0  0  0  0  0  0  0  0  0  0  0
   40.5690   30.9700   42.6510 N   0  0  0  0  0  0  0  0  0  0  0  0
   40.6710   33.0870   39.9700 H   0  0  0  0  0  0  0  0  0  0  0  0
   42.8940   33.4020   40.7750 H   0  0  0  0  0  0  0  0  0  0  0  0
   42.2680   30.7060   43.8970 H   0  0  0  0  0  0  0  0  0  0  0  0
  1 34  1  0  0  0  0
  1  7  1  1  0  0  0
  2  8  1  1  0  0  0
  2 18  1  0  0  0  0
  2  1  1  0  0  0  0
  3  2  1  0  0  0  0
  4  3  1  0  0  0  0
  4  5  1  0  0  0  0
  5 13  1  0  0  0  0
  5  6  1  0  0  0  0
  6 16  1  0  0  0  0
  6  1  1  0  0  0  0
  9  3  1  0  0  0  0
 10  3  1  0  0  0  0
 11  4  1  0  0  0  0
 12  4  1  0  0  0  0
 14  5  1  0  0  0  0
 15  6  1  0  0  0  0
 17 22  1  6  0  0  0
 17 18  1  0  0  0  0
 17 21  1  0  0  0  0
 18 23  1  6  0  0  0
 18 19  1  0  0  0  0
 19 20  1  0  0  0  0
 20 25  1  0  0  0  0
 21 26  1  1  0  0  0
 21 20  1  0  0  0  0
 24 20  1  0  0  0  0
 27 17  1  0  0  0  0
 28 27  1  0  0  0  0
 29 21  1  0  0  0  0
 29 30  1  0  0  0  0
 30 31  1  0  0  0  0
 30 32  1  0  0  0  0
 33 30  1  0  0  0  0
 34 39  1  0  0  0  0
 35 36  1  0  0  0  0
 35 34  2  0  0  0  0
 36 37  2  0  0  0  0
 37 38  1  0  0  0  0
 38 42  1  0  0  0  0
 39 38  2  0  0  0  0
 40 35  1  0  0  0  0
 41 36  1  0  0  0  0
M  END
>  <minimizedAffinity>
-5.34031105

$$$$

 OpenBabel03242517123D

 42 44  0  0  1  0  0  0  0  0999 V2000
   38.2660   30.3400   40.2530 C   0  0  2  0  0  0  0  0  0  0  0  0
   39.5000   31.0510   39.8200 C   0  0  2  0  0  0  0  0  0  0  0  0
   39.4630   32.5060   40.0920 C   0  0  0  0  0  0  0  0  0  0  0  0
   38.2360   33.2100   39.5840 C   0  0  0  0  0  0  0  0  0  0  0  0
   36.9880   32.3770   39.6370 C   0  0  0  0  0  0  0  0  0  0  0  0
   37.1170   31.2320   40.6260 C   0  0  0  0  0  0  0  0  0  0  0  0
   37.9360   29.6730   39.3980 H   0  0  0  0  0  0  0  0  0  0  0  0
   40.3660   30.6310   40.3740 H   0  0  0  0  0  0  0  0  0  0  0  0
   39.6060   32.6620   41.1780 H   0  0  0  0  0  0  0  0  0  0  0  0
   40.3280   32.9830   39.5460 H   0  0  0  0  0  0  0  0  0  0  0  0
   38.0650   34.0610   40.3070 H   0  0  0  0  0  0  0  0  0  0  0  0
   38.3830   33.6920   38.6100 H   0  0  0  0  0  0  0  0  0  0  0  0
   36.7210   31.9650   38.6480 H   0  0  0  0  0  0  0  0  0  0  0  0
   36.1110   32.9700   39.9820 H   0  0  0  0  0  0  0  0  0  0  0  0
   37.0820   31.5970   41.6420 H   0  0  0  0  0  0  0  0  0  0  0  0
   36.1650   30.6360   40.4780 H   0  0  0  0  0  0  0  0  0  0  0  0
   40.8450   31.6000   37.7510 C   0  0  1  0  0  0  0  0  0  0  0  0
   39.7770   30.7760   38.3590 C   0  0  1  0  0  0  0  0  0  0  0  0
   40.1300   29.4380   38.2390 O   0  0  0  0  0  0  0  0  0  0  0  0
   41.4970   29.3720   38.0240 C   0  0  0  0  0  0  0  0  0  0  0  0
   41.6980   30.5300   37.0610 C   0  0  2  0  0  0  0  0  0  0  0  0
   41.4900   32.1100   38.4780 H   0  0  0  0  0  0  0  0  0  0  0  0
   38.8020   30.9080   37.8190 H   0  0  0  0  0  0  0  0  0  0  0  0
   42.0650   29.5680   38.9590 H   0  0  0  0  0  0  0  0  0  0  0  0
   41.7740   28.4160   37.5760 H   0  0  0  0  0  0  0  0  0  0  0  0
   41.3020   30.2360   36.0790 H   0  0  0  0  0  0  0  0  0  0  0  0
   40.4030   32.4880   36.7980 O   0  0  0  0  0  0  0  0  0  0  0  0
   41.1550   33.0100   36.4490 H   0  0  0  0  0  0  0  0  0  0  0  0
   43.0210   30.9500   37.0260 O   0  0  0  0  0  0  0  0  0  0  0  0
   43.8050   30.3200   36.0940 C   0  0  0  0  0  0  0  0  0  0  0  0
   42.9580   29.9500   35.0490 F   0  0  0  0  0  0  0  0  0  0  0  0
   44.7460   31.2150   35.6200 F   0  0  0  0  0  0  0  0  0  0  0  0
   44.3970   29.1960   36.5860 F   0  0  0  0  0  0  0  0  0  0  0  0
   38.5150   29.4050   41.3650 C   0  0  0  0  0  0  0  0  0  0  0  0
   37.5420   29.4080   42.3660 C   0  0  0  0  0  0  0  0  0  0  0  0
   37.6620   28.5570   43.4750 C   0  0  0  0  0  0  0  0  0  0  0  0
   38.7910   27.7440   43.4860 N   0  0  0  0  0  0  0  0  0  0  0  0
   39.7120   27.7740   42.4950 C   0  0  0  0  0  0  0  0  0  0  0  0
   39.5760   28.6020   41.4340 N   0  0  0  0  0  0  0  0  0  0  0  0
   36.6350   29.9740   42.5020 H   0  0  0  0  0  0  0  0  0  0  0  0
   37.0070   28.4520   44.3010 H   0  0  0  0  0  0  0  0  0  0  0  0
   40.5630   27.1100   42.5810 H   0  0  0  0  0  0  0  0  0  0  0  0
  1  7  1  6  0  0  0
  1  6  1  0  0  0  0
  1 34  1  0  0  0  0
  2  3  1  0  0  0  0
  2  1  1  0  0  0  0
  2  8  1  1  0  0  0
  3  9  1  0  0  0  0
  4  5  1  0  0  0  0
  4  3  1  0  0  0  0
  4 11  1  0  0  0  0
  5 14  1  0  0  0  0
  5  6  1  0  0  0  0
  6 15  1  0  0  0  0
 10  3  1  0  0  0  0
 12  4  1  0  0  0  0
 13  5  1  0  0  0  0
 16  6  1  0  0  0  0
 17 18  1  0  0  0  0
 17 22  1  1  0  0  0
 18 23  1  6  0  0  0
 18  2  1  0  0  0  0
 19 18  1  0  0  0  0
 20 19  1  0  0  0  0
 20 24  1  0  0  0  0
 21 26  1  6  0  0  0
 21 17  1  0  0  0  0
 21 20  1  0  0  0  0
 25 20  1  0  0  0  0
 27 17  1  0  0  0  0
 28 27  1  0  0  0  0
 29 21  1  0  0  0  0
 30 33  1  0  0  0  0
 30 29  1  0  0  0  0
 31 30  1  0  0  0  0
 32 30  1  0  0  0  0
 34 39  2  0  0  0  0
 34 35  1  0  0  0  0
 35 40  1  0  0  0  0
 35 36  2  0  0  0  0
 36 37  1  0  0  0  0
 36 41  1  0  0  0  0
 38 42  1  0  0  0  0
 38 37  2  0  0  0  0
 39 38  1  0  0  0  0
M  END
>  <minimizedAffinity>
-5.22943544

$$$$

 OpenBabel03242517123D

 42 44  0  0  1  0  0  0  0  0999 V2000
   36.9560   26.6100   41.3470 C   0  0  2  0  0  0  0  0  0  0  0  0
   37.8290   27.8010   41.1650 C   0  0  2  0  0  0  0  0  0  0  0  0
   38.5520   28.1930   42.3970 C   0  0  0  0  0  0  0  0  0  0  0  0
   37.6820   28.3490   43.6130 C   0  0  0  0  0  0  0  0  0  0  0  0
   36.5200   27.3980   43.6600 C   0  0  0  0  0  0  0  0  0  0  0  0
   36.7480   26.1880   42.7730 C   0  0  0  0  0  0  0  0  0  0  0  0
   35.9450   26.8530   40.8960 H   0  0  0  0  0  0  0  0  0  0  0  0
   38.5920   27.5690   40.3920 H   0  0  0  0  0  0  0  0  0  0  0  0
   39.3690   27.4650   42.5680 H   0  0  0  0  0  0  0  0  0  0  0  0
   39.0090   29.2100   42.2240 H   0  0  0  0  0  0  0  0  0  0  0  0
   38.3420   28.0670   44.4860 H   0  0  0  0  0  0  0  0  0  0  0  0
   37.3890   29.3880   43.8060 H   0  0  0  0  0  0  0  0  0  0  0  0
   35.5740   27.8840   43.3650 H   0  0  0  0  0  0  0  0  0  0  0  0
   36.3630   26.9910   44.6850 H   0  0  0  0  0  0  0  0  0  0  0  0
   37.4840   25.5270   43.2070 H   0  0  0  0  0  0  0  0  0  0  0  0
   35.7640   25.6290   42.8180 H   0  0  0  0  0  0  0  0  0  0  0  0
   37.8050   29.9640   39.8560 C   0  0  1  0  0  0  0  0  0  0  0  0
   37.0270   28.9590   40.6140 C   0  0  1  0  0  0  0  0  0  0  0  0
   36.0480   28.4360   39.7780 O   0  0  0  0  0  0  0  0  0  0  0  0
   36.4230   28.6870   38.4680 C   0  0  0  0  0  0  0  0  0  0  0  0
   36.9610   30.1030   38.5830 C   0  0  2  0  0  0  0  0  0  0  0  0
   38.8020   29.6240   39.5480 H   0  0  0  0  0  0  0  0  0  0  0  0
   36.4990   29.4260   41.4870 H   0  0  0  0  0  0  0  0  0  0  0  0
   37.2410   28.0070   38.1430 H   0  0  0  0  0  0  0  0  0  0  0  0
   35.5620   28.6300   37.8000 H   0  0  0  0  0  0  0  0  0  0  0  0
   36.1100   30.7870   38.7070 H   0  0  0  0  0  0  0  0  0  0  0  0
   37.8840   31.1960   40.4640 O   0  0  0  0  0  0  0  0  0  0  0  0
   38.4230   31.8060   39.9180 H   0  0  0  0  0  0  0  0  0  0  0  0
   37.7890   30.4300   37.5170 O   0  0  0  0  0  0  0  0  0  0  0  0
   37.8540   31.7670   37.2230 C   0  0  0  0  0  0  0  0  0  0  0  0
   39.1870   32.1460   37.3890 F   0  0  0  0  0  0  0  0  0  0  0  0
   37.4900   31.9550   35.9020 F   0  0  0  0  0  0  0  0  0  0  0  0
   37.0860   32.5220   38.0580 F   0  0  0  0  0  0  0  0  0  0  0  0
   37.4240   25.4450   40.5760 C   0  0  0  0  0  0  0  0  0  0  0  0
   36.7450   24.2540   40.8370 C   0  0  0  0  0  0  0  0  0  0  0  0
   37.0940   23.0740   40.1610 C   0  0  0  0  0  0  0  0  0  0  0  0
   38.1350   23.1950   39.2450 N   0  0  0  0  0  0  0  0  0  0  0  0
   38.7680   24.3700   39.0230 C   0  0  0  0  0  0  0  0  0  0  0  0
   38.4150   25.4950   39.6850 N   0  0  0  0  0  0  0  0  0  0  0  0
   35.9420   24.0020   41.5100 H   0  0  0  0  0  0  0  0  0  0  0  0
   36.6700   22.1080   40.2560 H   0  0  0  0  0  0  0  0  0  0  0  0
   39.5680   24.3780   38.2940 H   0  0  0  0  0  0  0  0  0  0  0  0
  1  7  1  6  0  0  0
  1  6  1  0  0  0  0
  2  8  1  6  0  0  0
  2  1  1  0  0  0  0
  2  3  1  0  0  0  0
  3  9  1  0  0  0  0
  3  4  1  0  0  0  0
  4  5  1  0  0  0  0
  4 12  1  0  0  0  0
  4 11  1  0  0  0  0
  5 14  1  0  0  0  0
  6 16  1  0  0  0  0
  6 15  1  0  0  0  0
  6  5  1  0  0  0  0
 10  3  1  0  0  0  0
 13  5  1  0  0  0  0
 17 22  1  6  0  0  0
 17 27  1  0  0  0  0
 17 18  1  0  0  0  0
 18  2  1  0  0  0  0
 18 23  1  1  0  0  0
 19 18  1  0  0  0  0
 20 21  1  0  0  0  0
 20 19  1  0  0  0  0
 21 26  1  1  0  0  0
 21 17  1  0  0  0  0
 24 20  1  0  0  0  0
 25 20  1  0  0  0  0
 28 27  1  0  0  0  0
 29 21  1  0  0  0  0
 30 31  1  0  0  0  0
 30 29  1  0  0  0  0
 30 33  1  0  0  0  0
 32 30  1  0  0  0  0
 34 35  1  0  0  0  0
 34  1  1  0  0  0  0
 35 40  1  0  0  0  0
 36 41  1  0  0  0  0
 36 35  2  0  0  0  0
 37 36  1  0  0  0  0
 38 37  2  0  0  0  0
 38 39  1  0  0  0  0
 39 34  2  0  0  0  0
 42 38  1  0  0  0  0
M  END
>  <minimizedAffinity>
-5.22864819

$$$$
