
 OpenBabel03252509313D

 22 22  0  0  0  0  0  0  0  0999 V2000
   46.4390   34.0570   42.2720 C   0  0  0  0  0  0  0  0  0  0  0  0
   45.9460   33.1090   41.9640 H   0  0  0  0  0  0  0  0  0  0  0  0
   46.2060   34.8010   41.4940 H   0  0  0  0  0  0  0  0  0  0  0  0
   45.2930   34.1050   45.8230 C   0  0  0  0  0  0  0  0  0  0  0  0
   45.9230   33.6890   44.6360 C   0  0  0  0  0  0  0  0  0  0  0  0
   45.7870   34.4790   43.5180 C   0  0  0  0  0  0  0  0  0  0  0  0
   45.0460   35.6400   43.5920 N   0  0  0  0  0  0  0  0  0  0  0  0
   44.4480   36.0110   44.7620 C   0  0  0  0  0  0  0  0  0  0  0  0
   44.5780   35.2490   45.8460 N   0  0  0  0  0  0  0  0  0  0  0  0
   45.3520   33.5460   46.7360 H   0  0  0  0  0  0  0  0  0  0  0  0
   46.4710   32.7770   44.6830 H   0  0  0  0  0  0  0  0  0  0  0  0
   43.8990   36.9440   44.6760 H   0  0  0  0  0  0  0  0  0  0  0  0
   47.8030   33.8400   42.4600 O   0  0  0  0  0  0  0  0  0  0  0  0
   49.6050   33.0380   40.7460 O   0  0  0  0  0  0  0  0  0  0  0  0
   48.5450   34.0860   40.9590 P   0  0  2  0  0  0  0  0  0  0  0  0
   49.1750   35.6600   40.9820 O   0  0  0  0  0  0  0  0  0  0  0  0
   50.1450   35.6820   40.7580 H   0  0  0  0  0  0  0  0  0  0  0  0
   47.3860   33.9410   39.7540 O   0  0  0  0  0  0  0  0  0  0  0  0
   47.9800   33.9660   38.4850 C   0  0  0  0  0  0  0  0  0  0  0  0
   48.7000   35.1410   38.3630 F   0  0  0  0  0  0  0  0  0  0  0  0
   46.9770   33.9410   37.5090 F   0  0  0  0  0  0  0  0  0  0  0  0
   48.7820   32.8760   38.3100 F   0  0  0  0  0  0  0  0  0  0  0  0
  1 13  1  0  0  0  0
  1  6  1  0  0  0  0
  2  1  1  0  0  0  0
  3  1  1  0  0  0  0
  4  9  1  0  0  0  0
  4 10  1  0  0  0  0
  5 11  1  0  0  0  0
  5  4  2  0  0  0  0
  6  7  2  0  0  0  0
  6  5  1  0  0  0  0
  7  8  1  0  0  0  0
  8  9  2  0  0  0  0
 12  8  1  0  0  0  0
 15 14  2  6  0  0  0
 15 16  1  0  0  0  0
 15 13  1  0  0  0  0
 17 16  1  0  0  0  0
 18 15  1  0  0  0  0
 19 18  1  0  0  0  0
 20 19  1  0  0  0  0
 21 19  1  0  0  0  0
 22 19  1  0  0  0  0
M  END
>  <minimizedAffinity>
-4.16191387

>  <minimizedRMSD>
1.74311876

$$$$
