
 OpenBabel03252501583D

 28 29  0  0  0  0  0  0  0  0999 V2000
   39.7870   32.4870   40.8690 C   0  0  0  0  0  0  0  0  0  0  0  0
   38.8500   31.4690   40.5960 C   0  0  0  0  0  0  0  0  0  0  0  0
   37.6350   31.8380   40.0750 C   0  0  0  0  0  0  0  0  0  0  0  0
   37.3970   33.1710   39.8470 N   0  0  0  0  0  0  0  0  0  0  0  0
   38.3280   34.1200   40.1220 C   0  0  0  0  0  0  0  0  0  0  0  0
   39.5270   33.7770   40.6350 N   0  0  0  0  0  0  0  0  0  0  0  0
   40.7630   32.2930   41.2770 H   0  0  0  0  0  0  0  0  0  0  0  0
   38.0840   35.1540   39.9220 H   0  0  0  0  0  0  0  0  0  0  0  0
   36.6560   30.8170   39.7870 C   0  0  0  0  0  0  0  0  0  0  0  0
   35.8010   30.1820   40.6590 C   0  0  0  0  0  0  0  0  0  0  0  0
   34.9300   29.2200   40.1750 C   0  0  0  0  0  0  0  0  0  0  0  0
   34.9160   28.8960   38.8300 C   0  0  0  0  0  0  0  0  0  0  0  0
   35.7670   29.5240   37.9490 C   0  0  0  0  0  0  0  0  0  0  0  0
   36.6340   30.4850   38.4420 C   0  0  0  0  0  0  0  0  0  0  0  0
   35.8880   30.5040   41.6790 H   0  0  0  0  0  0  0  0  0  0  0  0
   34.2900   28.7700   40.9320 H   0  0  0  0  0  0  0  0  0  0  0  0
   34.2280   28.1460   38.4960 H   0  0  0  0  0  0  0  0  0  0  0  0
   35.7230   29.2410   36.9050 H   0  0  0  0  0  0  0  0  0  0  0  0
   37.2660   30.9210   37.6600 H   0  0  0  0  0  0  0  0  0  0  0  0
   39.2380   30.0780   40.8910 C   0  0  0  0  0  0  0  0  0  0  0  0
   40.1560   29.7290   40.4170 H   0  0  0  0  0  0  0  0  0  0  0  0
   38.4060   29.4290   40.5350 H   0  0  0  0  0  0  0  0  0  0  0  0
   39.2540   29.9640   42.3330 N   0  0  0  0  0  0  0  0  0  0  0  0
   40.2130   29.8930   42.7400 H   0  0  0  0  0  0  0  0  0  0  0  0
   38.5010   28.8100   42.7830 C   0  0  0  0  0  0  0  0  0  0  0  0
   38.0760   28.0030   41.7620 F   0  0  0  0  0  0  0  0  0  0  0  0
   37.3850   29.1790   43.5170 F   0  0  0  0  0  0  0  0  0  0  0  0
   39.3100   28.0300   43.5870 F   0  0  0  0  0  0  0  0  0  0  0  0
  1  7  1  0  0  0  0
  2  1  2  0  0  0  0
  2 20  1  0  0  0  0
  3  2  1  0  0  0  0
  4  3  2  0  0  0  0
  4  5  1  0  0  0  0
  5  6  2  0  0  0  0
  6  1  1  0  0  0  0
  8  5  1  0  0  0  0
  9  3  1  0  0  0  0
  9 10  1  0  0  0  0
 10 15  1  0  0  0  0
 11 10  2  0  0  0  0
 11 16  1  0  0  0  0
 12 11  1  0  0  0  0
 13 14  1  0  0  0  0
 13 12  2  0  0  0  0
 14  9  2  0  0  0  0
 17 12  1  0  0  0  0
 18 13  1  0  0  0  0
 19 14  1  0  0  0  0
 20 23  1  0  0  0  0
 21 20  1  0  0  0  0
 22 20  1  0  0  0  0
 23 24  1  0  0  0  0
 23 25  1  0  0  0  0
 25 27  1  0  0  0  0
 25 28  1  0  0  0  0
 26 25  1  0  0  0  0
M  END
>  <minimizedAffinity>
-4.94057703

$$$$

 OpenBabel03252501583D

 28 29  0  0  0  0  0  0  0  0999 V2000
   37.8930   32.5910   40.2990 C   0  0  0  0  0  0  0  0  0  0  0  0
   37.6070   31.3490   40.9040 C   0  0  0  0  0  0  0  0  0  0  0  0
   38.6640   30.6030   41.3640 C   0  0  0  0  0  0  0  0  0  0  0  0
   39.9340   31.1000   41.2140 N   0  0  0  0  0  0  0  0  0  0  0  0
   40.1640   32.3030   40.6260 C   0  0  0  0  0  0  0  0  0  0  0  0
   39.1410   33.0500   40.1670 N   0  0  0  0  0  0  0  0  0  0  0  0
   37.1310   33.2430   39.9100 H   0  0  0  0  0  0  0  0  0  0  0  0
   41.1870   32.6430   40.5350 H   0  0  0  0  0  0  0  0  0  0  0  0
   38.4010   29.3270   41.9870 C   0  0  0  0  0  0  0  0  0  0  0  0
   37.9810   29.0740   43.2730 C   0  0  0  0  0  0  0  0  0  0  0  0
   37.7870   27.7640   43.6780 C   0  0  0  0  0  0  0  0  0  0  0  0
   38.0110   26.7160   42.8030 C   0  0  0  0  0  0  0  0  0  0  0  0
   38.4310   26.9570   41.5140 C   0  0  0  0  0  0  0  0  0  0  0  0
   38.6230   28.2710   41.1180 C   0  0  0  0  0  0  0  0  0  0  0  0
   37.8360   29.9520   43.8730 H   0  0  0  0  0  0  0  0  0  0  0  0
   37.4550   27.6550   44.7090 H   0  0  0  0  0  0  0  0  0  0  0  0
   37.8500   25.7170   43.1550 H   0  0  0  0  0  0  0  0  0  0  0  0
   38.5940   26.1090   40.8620 H   0  0  0  0  0  0  0  0  0  0  0  0
   38.9560   28.3510   40.0780 H   0  0  0  0  0  0  0  0  0  0  0  0
   36.1960   30.9370   41.0000 C   0  0  0  0  0  0  0  0  0  0  0  0
   35.4830   31.7290   41.2340 H   0  0  0  0  0  0  0  0  0  0  0  0
   36.1360   30.1780   41.8130 H   0  0  0  0  0  0  0  0  0  0  0  0
   35.8990   30.2380   39.7680 N   0  0  0  0  0  0  0  0  0  0  0  0
   35.3410   30.8010   39.0890 H   0  0  0  0  0  0  0  0  0  0  0  0
   35.1750   29.0070   40.0170 C   0  0  0  0  0  0  0  0  0  0  0  0
   35.2630   28.5750   41.3130 F   0  0  0  0  0  0  0  0  0  0  0  0
   35.6140   27.9780   39.2020 F   0  0  0  0  0  0  0  0  0  0  0  0
   33.8320   29.2170   39.7660 F   0  0  0  0  0  0  0  0  0  0  0  0
  1  2  1  0  0  0  0
  2 20  1  0  0  0  0
  2  3  2  0  0  0  0
  3  9  1  0  0  0  0
  4  3  1  0  0  0  0
  5  4  2  0  0  0  0
  6  1  2  0  0  0  0
  6  5  1  0  0  0  0
  7  1  1  0  0  0  0
  8  5  1  0  0  0  0
  9 10  1  0  0  0  0
 10 11  2  0  0  0  0
 10 15  1  0  0  0  0
 11 16  1  0  0  0  0
 12 17  1  0  0  0  0
 12 11  1  0  0  0  0
 13 12  2  0  0  0  0
 14 13  1  0  0  0  0
 14  9  2  0  0  0  0
 18 13  1  0  0  0  0
 19 14  1  0  0  0  0
 20 21  1  0  0  0  0
 20 22  1  0  0  0  0
 23 25  1  0  0  0  0
 23 20  1  0  0  0  0
 24 23  1  0  0  0  0
 25 26  1  0  0  0  0
 27 25  1  0  0  0  0
 28 25  1  0  0  0  0
M  END
>  <minimizedAffinity>
-4.80286217

$$$$

 OpenBabel03252501583D

 28 29  0  0  0  0  0  0  0  0999 V2000
   38.5740   29.2520   42.5690 C   0  0  0  0  0  0  0  0  0  0  0  0
   37.8640   29.1570   41.3530 C   0  0  0  0  0  0  0  0  0  0  0  0
   36.7420   28.3670   41.3260 C   0  0  0  0  0  0  0  0  0  0  0  0
   36.3700   27.7150   42.4750 N   0  0  0  0  0  0  0  0  0  0  0  0
   37.0820   27.8350   43.6260 C   0  0  0  0  0  0  0  0  0  0  0  0
   38.1870   28.6050   43.6730 N   0  0  0  0  0  0  0  0  0  0  0  0
   39.4630   29.8460   42.6850 H   0  0  0  0  0  0  0  0  0  0  0  0
   36.7410   27.2980   44.5000 H   0  0  0  0  0  0  0  0  0  0  0  0
   35.9970   28.2510   40.0950 C   0  0  0  0  0  0  0  0  0  0  0  0
   36.2890   27.4880   38.9870 C   0  0  0  0  0  0  0  0  0  0  0  0
   35.4350   27.5200   37.8980 C   0  0  0  0  0  0  0  0  0  0  0  0
   34.2980   28.3080   37.9170 C   0  0  0  0  0  0  0  0  0  0  0  0
   33.9960   29.0750   39.0190 C   0  0  0  0  0  0  0  0  0  0  0  0
   34.8560   29.0370   40.1050 C   0  0  0  0  0  0  0  0  0  0  0  0
   37.1910   26.9130   39.0710 H   0  0  0  0  0  0  0  0  0  0  0  0
   35.7410   26.8870   37.0660 H   0  0  0  0  0  0  0  0  0  0  0  0
   33.6630   28.3050   37.0540 H   0  0  0  0  0  0  0  0  0  0  0  0
   33.0960   29.6770   38.9940 H   0  0  0  0  0  0  0  0  0  0  0  0
   34.5240   29.6820   40.9260 H   0  0  0  0  0  0  0  0  0  0  0  0
   38.3770   29.9110   40.1960 C   0  0  0  0  0  0  0  0  0  0  0  0
   37.8780   29.7200   39.2440 H   0  0  0  0  0  0  0  0  0  0  0  0
   39.4480   29.6330   40.0780 H   0  0  0  0  0  0  0  0  0  0  0  0
   38.3590   31.3050   40.5860 N   0  0  0  0  0  0  0  0  0  0  0  0
   38.4810   31.4560   41.6120 H   0  0  0  0  0  0  0  0  0  0  0  0
   37.1240   31.9520   40.1910 C   0  0  0  0  0  0  0  0  0  0  0  0
   37.2450   33.3070   40.0320 F   0  0  0  0  0  0  0  0  0  0  0  0
   36.1090   31.7270   41.1060 F   0  0  0  0  0  0  0  0  0  0  0  0
   36.7250   31.4490   38.9680 F   0  0  0  0  0  0  0  0  0  0  0  0
  1  7  1  0  0  0  0
  1  6  1  0  0  0  0
  2  1  2  0  0  0  0
  3  2  1  0  0  0  0
  3  4  2  0  0  0  0
  4  5  1  0  0  0  0
  5  6  2  0  0  0  0
  5  8  1  0  0  0  0
  9 14  1  0  0  0  0
  9  3  1  0  0  0  0
 10 15  1  0  0  0  0
 10  9  2  0  0  0  0
 11 12  2  0  0  0  0
 11 10  1  0  0  0  0
 12 13  1  0  0  0  0
 13 14  2  0  0  0  0
 14 19  1  0  0  0  0
 16 11  1  0  0  0  0
 17 12  1  0  0  0  0
 18 13  1  0  0  0  0
 20 23  1  0  0  0  0
 20  2  1  0  0  0  0
 21 20  1  0  0  0  0
 22 20  1  0  0  0  0
 23 24  1  0  0  0  0
 25 23  1  0  0  0  0
 25 27  1  0  0  0  0
 26 25  1  0  0  0  0
 28 25  1  0  0  0  0
M  END
>  <minimizedAffinity>
-4.7227273

$$$$

 OpenBabel03252501583D

 28 29  0  0  0  0  0  0  0  0999 V2000
   35.3460   29.0760   39.5530 C   0  0  0  0  0  0  0  0  0  0  0  0
   36.1580   30.1620   39.9410 C   0  0  0  0  0  0  0  0  0  0  0  0
   36.8570   30.8220   38.9620 C   0  0  0  0  0  0  0  0  0  0  0  0
   36.7290   30.3960   37.6630 N   0  0  0  0  0  0  0  0  0  0  0  0
   35.9350   29.3460   37.3320 C   0  0  0  0  0  0  0  0  0  0  0  0
   35.2410   28.6830   38.2790 N   0  0  0  0  0  0  0  0  0  0  0  0
   34.7630   28.4990   40.2490 H   0  0  0  0  0  0  0  0  0  0  0  0
   35.8740   29.0550   36.2920 H   0  0  0  0  0  0  0  0  0  0  0  0
   37.6970   31.9370   39.3310 C   0  0  0  0  0  0  0  0  0  0  0  0
   37.3250   33.2340   39.6020 C   0  0  0  0  0  0  0  0  0  0  0  0
   38.2970   34.1610   39.9410 C   0  0  0  0  0  0  0  0  0  0  0  0
   39.6290   33.7930   40.0070 C   0  0  0  0  0  0  0  0  0  0  0  0
   40.0120   32.4990   39.7370 C   0  0  0  0  0  0  0  0  0  0  0  0
   39.0330   31.5780   39.4000 C   0  0  0  0  0  0  0  0  0  0  0  0
   36.2710   33.4190   39.5240 H   0  0  0  0  0  0  0  0  0  0  0  0
   37.9150   35.1620   40.1390 H   0  0  0  0  0  0  0  0  0  0  0  0
   40.3490   34.5400   40.2720 H   0  0  0  0  0  0  0  0  0  0  0  0
   41.0640   32.2530   39.8010 H   0  0  0  0  0  0  0  0  0  0  0  0
   39.4440   30.5820   39.2050 H   0  0  0  0  0  0  0  0  0  0  0  0
   36.2020   30.5120   41.3720 C   0  0  0  0  0  0  0  0  0  0  0  0
   35.3140   31.0060   41.7690 H   0  0  0  0  0  0  0  0  0  0  0  0
   37.0630   31.2040   41.5080 H   0  0  0  0  0  0  0  0  0  0  0  0
   36.5460   29.2930   42.0720 N   0  0  0  0  0  0  0  0  0  0  0  0
   36.0130   29.1510   42.9580 H   0  0  0  0  0  0  0  0  0  0  0  0
   37.9580   29.2480   42.3970 C   0  0  0  0  0  0  0  0  0  0  0  0
   38.5560   30.4800   42.4060 F   0  0  0  0  0  0  0  0  0  0  0  0
   38.6640   28.4460   41.5150 F   0  0  0  0  0  0  0  0  0  0  0  0
   38.1100   28.7310   43.6700 F   0  0  0  0  0  0  0  0  0  0  0  0
  1  2  1  0  0  0  0
  1  7  1  0  0  0  0
  2 20  1  0  0  0  0
  3  9  1  0  0  0  0
  3  2  2  0  0  0  0
  4  3  1  0  0  0  0
  5  4  2  0  0  0  0
  5  6  1  0  0  0  0
  6  1  2  0  0  0  0
  8  5  1  0  0  0  0
  9 14  2  0  0  0  0
  9 10  1  0  0  0  0
 10 11  2  0  0  0  0
 11 12  1  0  0  0  0
 11 16  1  0  0  0  0
 12 17  1  0  0  0  0
 13 18  1  0  0  0  0
 13 12  2  0  0  0  0
 14 13  1  0  0  0  0
 15 10  1  0  0  0  0
 19 14  1  0  0  0  0
 20 22  1  0  0  0  0
 20 21  1  0  0  0  0
 20 23  1  0  0  0  0
 23 25  1  0  0  0  0
 23 24  1  0  0  0  0
 25 26  1  0  0  0  0
 25 28  1  0  0  0  0
 27 25  1  0  0  0  0
M  END
>  <minimizedAffinity>
-4.71674204

$$$$

 OpenBabel03252501583D

 28 29  0  0  0  0  0  0  0  0999 V2000
   35.3390   29.1030   40.6760 C   0  0  0  0  0  0  0  0  0  0  0  0
   36.2430   28.1320   41.1560 C   0  0  0  0  0  0  0  0  0  0  0  0
   36.6780   27.1720   40.2760 C   0  0  0  0  0  0  0  0  0  0  0  0
   36.2170   27.2080   38.9840 N   0  0  0  0  0  0  0  0  0  0  0  0
   35.3470   28.1630   38.5630 C   0  0  0  0  0  0  0  0  0  0  0  0
   34.9070   29.1130   39.4110 N   0  0  0  0  0  0  0  0  0  0  0  0
   34.9450   29.8930   41.2910 H   0  0  0  0  0  0  0  0  0  0  0  0
   35.0180   28.1400   37.5330 H   0  0  0  0  0  0  0  0  0  0  0  0
   37.6030   26.1650   40.7400 C   0  0  0  0  0  0  0  0  0  0  0  0
   38.9770   26.2160   40.7730 C   0  0  0  0  0  0  0  0  0  0  0  0
   39.6850   25.1310   41.2600 C   0  0  0  0  0  0  0  0  0  0  0  0
   39.0230   24.0020   41.7110 C   0  0  0  0  0  0  0  0  0  0  0  0
   37.6480   23.9400   41.6820 C   0  0  0  0  0  0  0  0  0  0  0  0
   36.9480   25.0310   41.1930 C   0  0  0  0  0  0  0  0  0  0  0  0
   39.3960   27.1320   40.4020 H   0  0  0  0  0  0  0  0  0  0  0  0
   40.7670   25.2570   41.2500 H   0  0  0  0  0  0  0  0  0  0  0  0
   39.6070   23.1840   42.0800 H   0  0  0  0  0  0  0  0  0  0  0  0
   37.1690   23.0390   42.0440 H   0  0  0  0  0  0  0  0  0  0  0  0
   35.8640   24.8770   41.2140 H   0  0  0  0  0  0  0  0  0  0  0  0
   36.6560   28.2130   42.5680 C   0  0  0  0  0  0  0  0  0  0  0  0
   37.2990   27.4060   42.9220 H   0  0  0  0  0  0  0  0  0  0  0  0
   35.7250   28.1950   43.1770 H   0  0  0  0  0  0  0  0  0  0  0  0
   37.2310   29.5290   42.7420 N   0  0  0  0  0  0  0  0  0  0  0  0
   36.9000   30.2290   42.0420 H   0  0  0  0  0  0  0  0  0  0  0  0
   38.6790   29.4900   42.6720 C   0  0  0  0  0  0  0  0  0  0  0  0
   39.1630   29.4800   41.3910 F   0  0  0  0  0  0  0  0  0  0  0  0
   39.1950   28.3810   43.3230 F   0  0  0  0  0  0  0  0  0  0  0  0
   39.1890   30.6230   43.2750 F   0  0  0  0  0  0  0  0  0  0  0  0
  1  2  1  0  0  0  0
  1  7  1  0  0  0  0
  2 20  1  0  0  0  0
  3  9  1  0  0  0  0
  3  2  2  0  0  0  0
  4  3  1  0  0  0  0
  5  4  2  0  0  0  0
  5  6  1  0  0  0  0
  6  1  2  0  0  0  0
  8  5  1  0  0  0  0
  9 10  2  0  0  0  0
  9 14  1  0  0  0  0
 10 11  1  0  0  0  0
 11 12  2  0  0  0  0
 12 17  1  0  0  0  0
 13 12  1  0  0  0  0
 13 18  1  0  0  0  0
 14 19  1  0  0  0  0
 14 13  2  0  0  0  0
 15 10  1  0  0  0  0
 16 11  1  0  0  0  0
 20 23  1  0  0  0  0
 20 21  1  0  0  0  0
 20 22  1  0  0  0  0
 24 23  1  0  0  0  0
 25 23  1  0  0  0  0
 25 28  1  0  0  0  0
 25 27  1  0  0  0  0
 26 25  1  0  0  0  0
M  END
>  <minimizedAffinity>
-4.63359451

$$$$

 OpenBabel03252501583D

 28 29  0  0  0  0  0  0  0  0999 V2000
   35.5240   26.9050   38.0520 C   0  0  0  0  0  0  0  0  0  0  0  0
   36.3600   26.9130   39.1870 C   0  0  0  0  0  0  0  0  0  0  0  0
   36.2590   27.9760   40.0500 C   0  0  0  0  0  0  0  0  0  0  0  0
   35.3540   28.9680   39.7660 N   0  0  0  0  0  0  0  0  0  0  0  0
   34.5660   28.9200   38.6610 C   0  0  0  0  0  0  0  0  0  0  0  0
   34.6510   27.8850   37.8010 N   0  0  0  0  0  0  0  0  0  0  0  0
   35.5320   26.1150   37.3210 H   0  0  0  0  0  0  0  0  0  0  0  0
   33.8710   29.7310   38.4890 H   0  0  0  0  0  0  0  0  0  0  0  0
   37.1040   28.0120   41.2200 C   0  0  0  0  0  0  0  0  0  0  0  0
   38.4490   28.2940   41.2950 C   0  0  0  0  0  0  0  0  0  0  0  0
   39.0790   28.2740   42.5280 C   0  0  0  0  0  0  0  0  0  0  0  0
   38.3680   27.9740   43.6770 C   0  0  0  0  0  0  0  0  0  0  0  0
   37.0230   27.6910   43.6130 C   0  0  0  0  0  0  0  0  0  0  0  0
   36.4010   27.7140   42.3760 C   0  0  0  0  0  0  0  0  0  0  0  0
   38.9090   28.5130   40.3500 H   0  0  0  0  0  0  0  0  0  0  0  0
   40.1420   28.5080   42.4950 H   0  0  0  0  0  0  0  0  0  0  0  0
   38.8920   27.9690   44.6110 H   0  0  0  0  0  0  0  0  0  0  0  0
   36.5040   27.4620   44.5360 H   0  0  0  0  0  0  0  0  0  0  0  0
   35.3340   27.4740   42.4370 H   0  0  0  0  0  0  0  0  0  0  0  0
   37.2870   25.7820   39.3690 C   0  0  0  0  0  0  0  0  0  0  0  0
   38.2370   26.0180   39.8490 H   0  0  0  0  0  0  0  0  0  0  0  0
   37.5110   25.3830   38.3540 H   0  0  0  0  0  0  0  0  0  0  0  0
   36.5340   24.7530   40.0530 N   0  0  0  0  0  0  0  0  0  0  0  0
   35.5800   25.0570   40.3510 H   0  0  0  0  0  0  0  0  0  0  0  0
   37.2310   24.2790   41.2310 C   0  0  0  0  0  0  0  0  0  0  0  0
   38.3910   24.9590   41.4900 F   0  0  0  0  0  0  0  0  0  0  0  0
   37.5480   22.9330   41.1350 F   0  0  0  0  0  0  0  0  0  0  0  0
   36.4200   24.4550   42.3350 F   0  0  0  0  0  0  0  0  0  0  0  0
  1  2  1  0  0  0  0
  2 20  1  0  0  0  0
  2  3  2  0  0  0  0
  3  9  1  0  0  0  0
  4  3  1  0  0  0  0
  5  4  2  0  0  0  0
  6  1  2  0  0  0  0
  6  5  1  0  0  0  0
  7  1  1  0  0  0  0
  8  5  1  0  0  0  0
  9 10  2  0  0  0  0
  9 14  1  0  0  0  0
 10 11  1  0  0  0  0
 11 12  2  0  0  0  0
 12 17  1  0  0  0  0
 13 12  1  0  0  0  0
 13 18  1  0  0  0  0
 14 19  1  0  0  0  0
 14 13  2  0  0  0  0
 15 10  1  0  0  0  0
 16 11  1  0  0  0  0
 20 21  1  0  0  0  0
 20 23  1  0  0  0  0
 22 20  1  0  0  0  0
 23 24  1  0  0  0  0
 23 25  1  0  0  0  0
 25 26  1  0  0  0  0
 25 28  1  0  0  0  0
 27 25  1  0  0  0  0
M  END
>  <minimizedAffinity>
-4.50988054

$$$$

 OpenBabel03252501583D

 28 29  0  0  0  0  0  0  0  0999 V2000
   39.6470   30.4940   41.1820 C   0  0  0  0  0  0  0  0  0  0  0  0
   38.5970   29.8410   40.5040 C   0  0  0  0  0  0  0  0  0  0  0  0
   37.5800   30.6140   40.0020 C   0  0  0  0  0  0  0  0  0  0  0  0
   37.6380   31.9740   40.1820 N   0  0  0  0  0  0  0  0  0  0  0  0
   38.6690   32.5620   40.8410 C   0  0  0  0  0  0  0  0  0  0  0  0
   39.6770   31.8200   41.3430 N   0  0  0  0  0  0  0  0  0  0  0  0
   40.4850   29.9710   41.6090 H   0  0  0  0  0  0  0  0  0  0  0  0
   38.6610   33.6380   40.9530 H   0  0  0  0  0  0  0  0  0  0  0  0
   36.4910   29.9720   39.3030 C   0  0  0  0  0  0  0  0  0  0  0  0
   36.4390   29.5660   37.9900 C   0  0  0  0  0  0  0  0  0  0  0  0
   35.2880   28.9640   37.5110 C   0  0  0  0  0  0  0  0  0  0  0  0
   34.1970   28.7710   38.3400 C   0  0  0  0  0  0  0  0  0  0  0  0
   34.2370   29.1740   39.6550 C   0  0  0  0  0  0  0  0  0  0  0  0
   35.3940   29.7750   40.1260 C   0  0  0  0  0  0  0  0  0  0  0  0
   37.3340   29.7590   37.4310 H   0  0  0  0  0  0  0  0  0  0  0  0
   35.3340   28.6740   36.4620 H   0  0  0  0  0  0  0  0  0  0  0  0
   33.3250   28.3020   37.9310 H   0  0  0  0  0  0  0  0  0  0  0  0
   33.3630   29.0040   40.2700 H   0  0  0  0  0  0  0  0  0  0  0  0
   35.3200   30.0560   41.1820 H   0  0  0  0  0  0  0  0  0  0  0  0
   38.6610   28.3740   40.3830 C   0  0  0  0  0  0  0  0  0  0  0  0
   39.5670   27.9730   39.9250 H   0  0  0  0  0  0  0  0  0  0  0  0
   37.7980   28.0640   39.7520 H   0  0  0  0  0  0  0  0  0  0  0  0
   38.4050   27.8510   41.7080 N   0  0  0  0  0  0  0  0  0  0  0  0
   39.1590   27.2240   42.0670 H   0  0  0  0  0  0  0  0  0  0  0  0
   37.1600   27.1110   41.7550 C   0  0  0  0  0  0  0  0  0  0  0  0
   36.6170   26.8770   40.5200 F   0  0  0  0  0  0  0  0  0  0  0  0
   36.2020   27.7620   42.5160 F   0  0  0  0  0  0  0  0  0  0  0  0
   37.3940   25.8720   42.3210 F   0  0  0  0  0  0  0  0  0  0  0  0
  1  6  1  0  0  0  0
  1  7  1  0  0  0  0
  2  1  2  0  0  0  0
  3  4  2  0  0  0  0
  3  2  1  0  0  0  0
  4  5  1  0  0  0  0
  5  8  1  0  0  0  0
  5  6  2  0  0  0  0
  9  3  1  0  0  0  0
  9 14  1  0  0  0  0
 10  9  2  0  0  0  0
 11 10  1  0  0  0  0
 11 12  2  0  0  0  0
 12 13  1  0  0  0  0
 13 14  2  0  0  0  0
 13 18  1  0  0  0  0
 14 19  1  0  0  0  0
 15 10  1  0  0  0  0
 16 11  1  0  0  0  0
 17 12  1  0  0  0  0
 20  2  1  0  0  0  0
 20 23  1  0  0  0  0
 21 20  1  0  0  0  0
 22 20  1  0  0  0  0
 23 25  1  0  0  0  0
 23 24  1  0  0  0  0
 25 28  1  0  0  0  0
 25 27  1  0  0  0  0
 26 25  1  0  0  0  0
M  END
>  <minimizedAffinity>
-4.4060955

$$$$

 OpenBabel03252501583D

 28 29  0  0  0  0  0  0  0  0999 V2000
   36.1700   29.6270   37.1320 C   0  0  0  0  0  0  0  0  0  0  0  0
   36.5670   29.2550   38.4330 C   0  0  0  0  0  0  0  0  0  0  0  0
   36.0310   28.1080   38.9640 C   0  0  0  0  0  0  0  0  0  0  0  0
   35.1440   27.3850   38.2050 N   0  0  0  0  0  0  0  0  0  0  0  0
   34.7900   27.7790   36.9540 C   0  0  0  0  0  0  0  0  0  0  0  0
   35.3040   28.9020   36.4160 N   0  0  0  0  0  0  0  0  0  0  0  0
   36.5360   30.5080   36.6350 H   0  0  0  0  0  0  0  0  0  0  0  0
   34.0860   27.1690   36.4030 H   0  0  0  0  0  0  0  0  0  0  0  0
   36.4180   27.7040   40.2950 C   0  0  0  0  0  0  0  0  0  0  0  0
   36.1130   28.3060   41.4940 C   0  0  0  0  0  0  0  0  0  0  0  0
   36.5900   27.7530   42.6710 C   0  0  0  0  0  0  0  0  0  0  0  0
   37.3650   26.6080   42.6480 C   0  0  0  0  0  0  0  0  0  0  0  0
   37.6760   25.9970   41.4540 C   0  0  0  0  0  0  0  0  0  0  0  0
   37.1950   26.5570   40.2820 C   0  0  0  0  0  0  0  0  0  0  0  0
   35.5080   29.1870   41.4060 H   0  0  0  0  0  0  0  0  0  0  0  0
   36.3010   28.2930   43.5710 H   0  0  0  0  0  0  0  0  0  0  0  0
   37.7140   26.2120   43.5800 H   0  0  0  0  0  0  0  0  0  0  0  0
   38.2850   25.1020   41.4800 H   0  0  0  0  0  0  0  0  0  0  0  0
   37.5010   25.9950   39.3920 H   0  0  0  0  0  0  0  0  0  0  0  0
   37.5270   30.1240   39.1350 C   0  0  0  0  0  0  0  0  0  0  0  0
   38.4550   30.3360   38.6030 H   0  0  0  0  0  0  0  0  0  0  0  0
   37.7930   29.6090   40.0860 H   0  0  0  0  0  0  0  0  0  0  0  0
   36.7920   31.3130   39.5100 N   0  0  0  0  0  0  0  0  0  0  0  0
   35.8110   31.3320   39.1530 H   0  0  0  0  0  0  0  0  0  0  0  0
   37.4520   32.5150   39.0420 C   0  0  0  0  0  0  0  0  0  0  0  0
   38.8090   32.4990   39.2250 F   0  0  0  0  0  0  0  0  0  0  0  0
   36.9590   33.6490   39.6660 F   0  0  0  0  0  0  0  0  0  0  0  0
   37.2420   32.6430   37.6820 F   0  0  0  0  0  0  0  0  0  0  0  0
  1  2  1  0  0  0  0
  2  3  2  0  0  0  0
  2 20  1  0  0  0  0
  3  9  1  0  0  0  0
  4  3  1  0  0  0  0
  5  4  2  0  0  0  0
  6  5  1  0  0  0  0
  6  1  2  0  0  0  0
  7  1  1  0  0  0  0
  8  5  1  0  0  0  0
  9 10  1  0  0  0  0
 10 11  2  0  0  0  0
 11 16  1  0  0  0  0
 12 11  1  0  0  0  0
 12 17  1  0  0  0  0
 13 18  1  0  0  0  0
 13 12  2  0  0  0  0
 14  9  2  0  0  0  0
 14 13  1  0  0  0  0
 15 10  1  0  0  0  0
 19 14  1  0  0  0  0
 20 23  1  0  0  0  0
 20 22  1  0  0  0  0
 21 20  1  0  0  0  0
 24 23  1  0  0  0  0
 25 26  1  0  0  0  0
 25 23  1  0  0  0  0
 25 27  1  0  0  0  0
 28 25  1  0  0  0  0
M  END
>  <minimizedAffinity>
-4.36410284

$$$$

 OpenBabel03252501583D

 28 29  0  0  0  0  0  0  0  0999 V2000
   35.5510   26.6070   38.1230 C   0  0  0  0  0  0  0  0  0  0  0  0
   36.1960   27.7460   38.6490 C   0  0  0  0  0  0  0  0  0  0  0  0
   35.6510   28.9750   38.3730 C   0  0  0  0  0  0  0  0  0  0  0  0
   34.5130   29.0330   37.6080 N   0  0  0  0  0  0  0  0  0  0  0  0
   33.9220   27.9100   37.1220 C   0  0  0  0  0  0  0  0  0  0  0  0
   34.4430   26.6940   37.3800 N   0  0  0  0  0  0  0  0  0  0  0  0
   35.9040   25.6040   38.2850 H   0  0  0  0  0  0  0  0  0  0  0  0
   33.0270   28.0170   36.5240 H   0  0  0  0  0  0  0  0  0  0  0  0
   36.2910   30.1580   38.8980 C   0  0  0  0  0  0  0  0  0  0  0  0
   36.2140   30.6800   40.1690 C   0  0  0  0  0  0  0  0  0  0  0  0
   36.9110   31.8370   40.4710 C   0  0  0  0  0  0  0  0  0  0  0  0
   37.6800   32.4670   39.5090 C   0  0  0  0  0  0  0  0  0  0  0  0
   37.7640   31.9550   38.2340 C   0  0  0  0  0  0  0  0  0  0  0  0
   37.0630   30.7970   37.9410 C   0  0  0  0  0  0  0  0  0  0  0  0
   35.5930   30.1190   40.8410 H   0  0  0  0  0  0  0  0  0  0  0  0
   36.7940   32.1790   41.4980 H   0  0  0  0  0  0  0  0  0  0  0  0
   38.2040   33.3610   39.7820 H   0  0  0  0  0  0  0  0  0  0  0  0
   38.3770   32.4780   37.5110 H   0  0  0  0  0  0  0  0  0  0  0  0
   37.1980   30.4760   36.9020 H   0  0  0  0  0  0  0  0  0  0  0  0
   37.4110   27.5380   39.4550 C   0  0  0  0  0  0  0  0  0  0  0  0
   37.9320   28.4420   39.7720 H   0  0  0  0  0  0  0  0  0  0  0  0
   38.1150   26.9440   38.8300 H   0  0  0  0  0  0  0  0  0  0  0  0
   37.0210   26.6820   40.5540 N   0  0  0  0  0  0  0  0  0  0  0  0
   36.0900   26.2280   40.4250 H   0  0  0  0  0  0  0  0  0  0  0  0
   36.9850   27.4090   41.8070 C   0  0  0  0  0  0  0  0  0  0  0  0
   37.1780   26.6140   42.9050 F   0  0  0  0  0  0  0  0  0  0  0  0
   35.7830   28.0760   41.9800 F   0  0  0  0  0  0  0  0  0  0  0  0
   38.0040   28.3420   41.8160 F   0  0  0  0  0  0  0  0  0  0  0  0
  1  7  1  0  0  0  0
  1  2  1  0  0  0  0
  2 20  1  0  0  0  0
  3  2  2  0  0  0  0
  3  9  1  0  0  0  0
  4  3  1  0  0  0  0
  5  6  1  0  0  0  0
  5  4  2  0  0  0  0
  6  1  2  0  0  0  0
  8  5  1  0  0  0  0
  9 10  1  0  0  0  0
 10 11  2  0  0  0  0
 10 15  1  0  0  0  0
 11 16  1  0  0  0  0
 12 17  1  0  0  0  0
 12 11  1  0  0  0  0
 13 12  2  0  0  0  0
 14 13  1  0  0  0  0
 14  9  2  0  0  0  0
 18 13  1  0  0  0  0
 19 14  1  0  0  0  0
 20 21  1  0  0  0  0
 20 23  1  0  0  0  0
 22 20  1  0  0  0  0
 23 25  1  0  0  0  0
 24 23  1  0  0  0  0
 25 28  1  0  0  0  0
 25 27  1  0  0  0  0
 25 26  1  0  0  0  0
M  END
>  <minimizedAffinity>
-4.34985065

$$$$
