
 OpenBabel03252509313D

 22 22  0  0  0  0  0  0  0  0999 V2000
   46.5710   34.9120   41.9950 C   0  0  0  0  0  0  0  0  0  0  0  0
   45.7570   34.9520   41.2400 H   0  0  0  0  0  0  0  0  0  0  0  0
   47.1550   35.8380   41.8790 H   0  0  0  0  0  0  0  0  0  0  0  0
   45.5410   33.9710   45.4570 C   0  0  0  0  0  0  0  0  0  0  0  0
   46.1720   33.9270   44.2000 C   0  0  0  0  0  0  0  0  0  0  0  0
   45.9190   34.9460   43.3110 C   0  0  0  0  0  0  0  0  0  0  0  0
   45.0660   35.9670   43.6720 N   0  0  0  0  0  0  0  0  0  0  0  0
   44.4710   35.9760   44.9020 C   0  0  0  0  0  0  0  0  0  0  0  0
   44.7140   34.9920   45.7640 N   0  0  0  0  0  0  0  0  0  0  0  0
   45.6870   33.2160   46.2050 H   0  0  0  0  0  0  0  0  0  0  0  0
   46.8120   33.0950   44.0190 H   0  0  0  0  0  0  0  0  0  0  0  0
   43.8270   36.8370   45.0510 H   0  0  0  0  0  0  0  0  0  0  0  0
   47.3160   33.7460   41.8270 O   0  0  0  0  0  0  0  0  0  0  0  0
   49.2670   32.8640   40.3290 O   0  0  0  0  0  0  0  0  0  0  0  0
   48.2330   33.9550   40.4210 P   0  0  2  0  0  0  0  0  0  0  0  0
   48.9200   35.5020   40.5150 O   0  0  0  0  0  0  0  0  0  0  0  0
   49.9090   35.4840   40.4030 H   0  0  0  0  0  0  0  0  0  0  0  0
   47.2140   33.8520   39.0910 O   0  0  0  0  0  0  0  0  0  0  0  0
   47.9420   33.9320   37.8960 C   0  0  0  0  0  0  0  0  0  0  0  0
   48.6950   35.0920   37.9210 F   0  0  0  0  0  0  0  0  0  0  0  0
   47.0490   33.9890   36.8200 F   0  0  0  0  0  0  0  0  0  0  0  0
   48.7340   32.8320   37.7440 F   0  0  0  0  0  0  0  0  0  0  0  0
  1  6  1  0  0  0  0
  2  1  1  0  0  0  0
  3  1  1  0  0  0  0
  4  9  1  0  0  0  0
  4 10  1  0  0  0  0
  5  4  2  0  0  0  0
  6  7  2  0  0  0  0
  6  5  1  0  0  0  0
  7  8  1  0  0  0  0
  8 12  1  0  0  0  0
  8  9  2  0  0  0  0
 11  5  1  0  0  0  0
 13  1  1  0  0  0  0
 15 14  2  6  0  0  0
 15 16  1  0  0  0  0
 15 13  1  0  0  0  0
 17 16  1  0  0  0  0
 18 15  1  0  0  0  0
 19 20  1  0  0  0  0
 19 18  1  0  0  0  0
 21 19  1  0  0  0  0
 22 19  1  0  0  0  0
M  END
>  <minimizedAffinity>
-4.43616152

>  <minimizedRMSD>
2.15294337

$$$$
