
 OpenBabel03252501053D

 35 37  0  0  1  0  0  0  0  0999 V2000
   49.0570   32.4410   38.2080 O   0  0  0  0  0  0  0  0  0  0  0  0
   48.2110   33.6740   38.5260 P   0  0  2  0  0  0  0  0  0  0  0  0
   48.9290   34.9430   37.6600 O   0  0  0  0  0  0  0  0  0  0  0  0
   49.8580   34.7460   37.3780 H   0  0  0  0  0  0  0  0  0  0  0  0
   48.0710   33.9350   40.1330 O   0  0  0  0  0  0  0  0  0  0  0  0
   47.9980   35.6020   41.8860 C   0  0  1  0  0  0  0  0  0  0  0  0
   49.3490   35.0360   41.9820 C   0  0  0  0  0  0  0  0  0  0  0  0
   48.5750   35.0680   40.6530 C   0  0  1  0  0  0  0  0  0  0  0  0
   47.7580   36.6780   41.9270 H   0  0  0  0  0  0  0  0  0  0  0  0
   49.5050   34.0080   42.3320 H   0  0  0  0  0  0  0  0  0  0  0  0
   50.1600   35.7640   42.1390 H   0  0  0  0  0  0  0  0  0  0  0  0
   49.0640   35.7560   39.9380 H   0  0  0  0  0  0  0  0  0  0  0  0
   46.2240   33.1200   44.1340 C   0  0  0  0  0  0  0  0  0  0  0  0
   47.2390   33.8830   43.5690 C   0  0  0  0  0  0  0  0  0  0  0  0
   46.9190   34.7750   42.5260 C   0  0  0  0  0  0  0  0  0  0  0  0
   45.6300   34.8650   42.0990 N   0  0  0  0  0  0  0  0  0  0  0  0
   44.6580   34.1050   42.6710 C   0  0  0  0  0  0  0  0  0  0  0  0
   44.9520   33.2370   43.6840 N   0  0  0  0  0  0  0  0  0  0  0  0
   46.4710   32.4480   44.9230 H   0  0  0  0  0  0  0  0  0  0  0  0
   48.2310   33.7800   43.9340 H   0  0  0  0  0  0  0  0  0  0  0  0
   43.6340   34.1790   42.3290 H   0  0  0  0  0  0  0  0  0  0  0  0
   46.7170   33.3660   37.8240 O   0  0  0  0  0  0  0  0  0  0  0  0
   45.6420   32.8070   38.5000 C   0  0  0  0  0  0  0  0  0  0  0  0
   45.5100   31.5080   38.9640 C   0  0  0  0  0  0  0  0  0  0  0  0
   44.3810   31.1040   39.6160 C   0  0  0  0  0  0  0  0  0  0  0  0
   43.3420   31.9870   39.8260 C   0  0  0  0  0  0  0  0  0  0  0  0
   43.5140   33.2860   39.3420 C   0  0  0  0  0  0  0  0  0  0  0  0
   44.6460   33.6660   38.6960 N   0  0  0  0  0  0  0  0  0  0  0  0
   46.3680   30.8770   38.7600 H   0  0  0  0  0  0  0  0  0  0  0  0
   44.3100   30.0780   39.9660 H   0  0  0  0  0  0  0  0  0  0  0  0
   42.4350   31.7160   40.3320 H   0  0  0  0  0  0  0  0  0  0  0  0
   42.3970   34.2410   39.5660 C   0  0  0  0  0  0  0  0  0  0  0  0
   41.5680   34.1900   38.4860 F   0  0  0  0  0  0  0  0  0  0  0  0
   41.6900   33.7560   40.6710 F   0  0  0  0  0  0  0  0  0  0  0  0
   42.8550   35.5070   39.8730 F   0  0  0  0  0  0  0  0  0  0  0  0
  2  1  2  6  0  0  0
  2  5  1  0  0  0  0
  3  2  1  0  0  0  0
  4  3  1  0  0  0  0
  5  8  1  0  0  0  0
  6  9  1  1  0  0  0
  6  7  1  0  0  0  0
  6 15  1  0  0  0  0
  7 11  1  0  0  0  0
  7 10  1  0  0  0  0
  8 12  1  6  0  0  0
  8  6  1  0  0  0  0
  8  7  1  0  0  0  0
 13 19  1  0  0  0  0
 14 20  1  0  0  0  0
 14 13  2  0  0  0  0
 15 14  1  0  0  0  0
 16 15  2  0  0  0  0
 16 17  1  0  0  0  0
 17 18  2  0  0  0  0
 18 13  1  0  0  0  0
 21 17  1  0  0  0  0
 22 23  1  0  0  0  0
 22  2  1  0  0  0  0
 23 28  2  0  0  0  0
 23 24  1  0  0  0  0
 24 25  2  0  0  0  0
 25 26  1  0  0  0  0
 25 30  1  0  0  0  0
 26 31  1  0  0  0  0
 27 32  1  0  0  0  0
 27 26  2  0  0  0  0
 28 27  1  0  0  0  0
 29 24  1  0  0  0  0
 32 35  1  0  0  0  0
 32 34  1  0  0  0  0
 33 32  1  0  0  0  0
M  END
>  <minimizedAffinity>
-4.72743893

>  <minimizedRMSD>
1.81103218

$$$$
