
 OpenBabel03252501063D

 35 37  0  0  1  0  0  0  0  0999 V2000
   48.7730   32.3460   37.9760 O   0  0  0  0  0  0  0  0  0  0  0  0
   48.1580   33.7300   38.1830 P   0  0  2  0  0  0  0  0  0  0  0  0
   49.2980   34.8210   37.5620 O   0  0  0  0  0  0  0  0  0  0  0  0
   50.2030   34.4280   37.4690 H   0  0  0  0  0  0  0  0  0  0  0  0
   47.7310   33.9960   39.7370 O   0  0  0  0  0  0  0  0  0  0  0  0
   47.8500   35.3460   41.7420 C   0  0  1  0  0  0  0  0  0  0  0  0
   49.1250   34.6180   41.7200 C   0  0  0  0  0  0  0  0  0  0  0  0
   48.3630   34.9610   40.4280 C   0  0  1  0  0  0  0  0  0  0  0  0
   47.7390   36.4200   41.9640 H   0  0  0  0  0  0  0  0  0  0  0  0
   49.1580   33.5360   41.8930 H   0  0  0  0  0  0  0  0  0  0  0  0
   50.0160   35.2110   41.9820 H   0  0  0  0  0  0  0  0  0  0  0  0
   48.9320   35.6950   39.8280 H   0  0  0  0  0  0  0  0  0  0  0  0
   45.7710   32.8600   43.7070 C   0  0  0  0  0  0  0  0  0  0  0  0
   46.8690   33.5860   43.2610 C   0  0  0  0  0  0  0  0  0  0  0  0
   46.6800   34.5550   42.2550 C   0  0  0  0  0  0  0  0  0  0  0  0
   45.4320   34.7530   41.7480 N   0  0  0  0  0  0  0  0  0  0  0  0
   44.3770   34.0270   42.2050 C   0  0  0  0  0  0  0  0  0  0  0  0
   44.5450   33.0850   43.1790 N   0  0  0  0  0  0  0  0  0  0  0  0
   45.9210   32.1290   44.4680 H   0  0  0  0  0  0  0  0  0  0  0  0
   47.8240   33.3980   43.6850 H   0  0  0  0  0  0  0  0  0  0  0  0
   43.3870   34.1870   41.8000 H   0  0  0  0  0  0  0  0  0  0  0  0
   46.8210   33.7650   37.1670 O   0  0  0  0  0  0  0  0  0  0  0  0
   45.6910   32.9780   37.3410 C   0  0  0  0  0  0  0  0  0  0  0  0
   45.4990   31.6650   36.9440 C   0  0  0  0  0  0  0  0  0  0  0  0
   44.3210   31.0200   37.1890 C   0  0  0  0  0  0  0  0  0  0  0  0
   43.2920   31.6690   37.8400 C   0  0  0  0  0  0  0  0  0  0  0  0
   43.5270   32.9920   38.2220 C   0  0  0  0  0  0  0  0  0  0  0  0
   44.7060   33.6140   37.9690 N   0  0  0  0  0  0  0  0  0  0  0  0
   46.3540   31.2260   36.4400 H   0  0  0  0  0  0  0  0  0  0  0  0
   44.2040   29.9900   36.8650 H   0  0  0  0  0  0  0  0  0  0  0  0
   42.3480   31.2040   38.0550 H   0  0  0  0  0  0  0  0  0  0  0  0
   42.4200   33.6940   38.9240 C   0  0  0  0  0  0  0  0  0  0  0  0
   41.3410   33.7310   38.0920 F   0  0  0  0  0  0  0  0  0  0  0  0
   42.0870   32.8930   40.0210 F   0  0  0  0  0  0  0  0  0  0  0  0
   42.8150   34.9290   39.4000 F   0  0  0  0  0  0  0  0  0  0  0  0
  2  1  2  6  0  0  0
  2  5  1  0  0  0  0
  3  2  1  0  0  0  0
  4  3  1  0  0  0  0
  5  8  1  0  0  0  0
  6  9  1  1  0  0  0
  6 15  1  0  0  0  0
  7  6  1  0  0  0  0
  7 10  1  0  0  0  0
  7 11  1  0  0  0  0
  8 12  1  6  0  0  0
  8  7  1  0  0  0  0
  8  6  1  0  0  0  0
 13 19  1  0  0  0  0
 14 20  1  0  0  0  0
 14 13  1  0  0  0  0
 15 14  2  0  0  0  0
 16 17  2  0  0  0  0
 16 15  1  0  0  0  0
 17 18  1  0  0  0  0
 18 13  2  0  0  0  0
 21 17  1  0  0  0  0
 22 23  1  0  0  0  0
 22  2  1  0  0  0  0
 23 28  1  0  0  0  0
 24 25  1  0  0  0  0
 24 23  2  0  0  0  0
 25 26  2  0  0  0  0
 26 31  1  0  0  0  0
 26 27  1  0  0  0  0
 27 32  1  0  0  0  0
 28 27  2  0  0  0  0
 29 24  1  0  0  0  0
 30 25  1  0  0  0  0
 32 35  1  0  0  0  0
 32 34  1  0  0  0  0
 33 32  1  0  0  0  0
M  END
>  <minimizedAffinity>
-4.66723013

>  <minimizedRMSD>
1.07984197

$$$$
