
 OpenBabel03252501063D

 35 37  0  0  1  0  0  0  0  0999 V2000
   48.5870   32.3050   38.0150 O   0  0  0  0  0  0  0  0  0  0  0  0
   48.1090   33.7440   38.2100 P   0  0  2  0  0  0  0  0  0  0  0  0
   49.3350   34.7130   37.5510 O   0  0  0  0  0  0  0  0  0  0  0  0
   50.1970   34.2350   37.4500 H   0  0  0  0  0  0  0  0  0  0  0  0
   47.7380   34.0720   39.7670 O   0  0  0  0  0  0  0  0  0  0  0  0
   48.0150   35.4210   41.7570 C   0  0  1  0  0  0  0  0  0  0  0  0
   49.2710   34.6680   41.6540 C   0  0  0  0  0  0  0  0  0  0  0  0
   48.4340   35.0240   40.4130 C   0  0  1  0  0  0  0  0  0  0  0  0
   47.9400   36.4980   41.9830 H   0  0  0  0  0  0  0  0  0  0  0  0
   49.2930   33.5850   41.8260 H   0  0  0  0  0  0  0  0  0  0  0  0
   50.1890   35.2420   41.8550 H   0  0  0  0  0  0  0  0  0  0  0  0
   48.9770   35.7460   39.7760 H   0  0  0  0  0  0  0  0  0  0  0  0
   46.0250   32.9190   43.7910 C   0  0  0  0  0  0  0  0  0  0  0  0
   47.1070   33.6200   43.2720 C   0  0  0  0  0  0  0  0  0  0  0  0
   46.8650   34.6550   42.3470 C   0  0  0  0  0  0  0  0  0  0  0  0
   45.5830   34.9400   41.9860 N   0  0  0  0  0  0  0  0  0  0  0  0
   44.5450   34.2360   42.5110 C   0  0  0  0  0  0  0  0  0  0  0  0
   44.7640   33.2310   43.4100 N   0  0  0  0  0  0  0  0  0  0  0  0
   46.2140   32.1380   44.4910 H   0  0  0  0  0  0  0  0  0  0  0  0
   48.0890   33.3640   43.5820 H   0  0  0  0  0  0  0  0  0  0  0  0
   43.5280   34.4650   42.2220 H   0  0  0  0  0  0  0  0  0  0  0  0
   46.7620   33.8910   37.2170 O   0  0  0  0  0  0  0  0  0  0  0  0
   45.6810   33.0220   37.2400 C   0  0  0  0  0  0  0  0  0  0  0  0
   45.4740   31.8990   36.4560 C   0  0  0  0  0  0  0  0  0  0  0  0
   44.3490   31.1380   36.5980 C   0  0  0  0  0  0  0  0  0  0  0  0
   43.3910   31.4760   37.5310 C   0  0  0  0  0  0  0  0  0  0  0  0
   43.6380   32.6160   38.3000 C   0  0  0  0  0  0  0  0  0  0  0  0
   44.7630   33.3580   38.1420 N   0  0  0  0  0  0  0  0  0  0  0  0
   46.2720   31.7000   35.7490 H   0  0  0  0  0  0  0  0  0  0  0  0
   44.2180   30.2630   35.9670 H   0  0  0  0  0  0  0  0  0  0  0  0
   42.4900   30.9100   37.6790 H   0  0  0  0  0  0  0  0  0  0  0  0
   42.6070   32.9840   39.3060 C   0  0  0  0  0  0  0  0  0  0  0  0
   41.3840   32.6380   38.8120 F   0  0  0  0  0  0  0  0  0  0  0  0
   42.8570   32.1840   40.4250 F   0  0  0  0  0  0  0  0  0  0  0  0
   42.7140   34.3050   39.6920 F   0  0  0  0  0  0  0  0  0  0  0  0
  2  1  2  6  0  0  0
  2  5  1  0  0  0  0
  3  2  1  0  0  0  0
  4  3  1  0  0  0  0
  5  8  1  0  0  0  0
  6  9  1  1  0  0  0
  6 15  1  0  0  0  0
  7  6  1  0  0  0  0
  7 10  1  0  0  0  0
  7 11  1  0  0  0  0
  8 12  1  6  0  0  0
  8  7  1  0  0  0  0
  8  6  1  0  0  0  0
 13 19  1  0  0  0  0
 14 20  1  0  0  0  0
 14 13  2  0  0  0  0
 15 14  1  0  0  0  0
 16 15  2  0  0  0  0
 16 17  1  0  0  0  0
 17 18  2  0  0  0  0
 18 13  1  0  0  0  0
 21 17  1  0  0  0  0
 22 23  1  0  0  0  0
 22  2  1  0  0  0  0
 23 28  1  0  0  0  0
 24 25  1  0  0  0  0
 24 23  2  0  0  0  0
 25 26  2  0  0  0  0
 26 31  1  0  0  0  0
 26 27  1  0  0  0  0
 27 32  1  0  0  0  0
 28 27  2  0  0  0  0
 29 24  1  0  0  0  0
 30 25  1  0  0  0  0
 32 35  1  0  0  0  0
 32 34  1  0  0  0  0
 33 32  1  0  0  0  0
M  END
>  <minimizedAffinity>
-4.59002686

>  <minimizedRMSD>
0.661612272

$$$$
