
 OpenBabel03252501063D

 35 37  0  0  1  0  0  0  0  0999 V2000
   48.7170   32.3370   38.0360 O   0  0  0  0  0  0  0  0  0  0  0  0
   48.1350   33.7400   38.2080 P   0  0  2  0  0  0  0  0  0  0  0  0
   49.3000   34.7880   37.5600 O   0  0  0  0  0  0  0  0  0  0  0  0
   50.1950   34.3720   37.4780 H   0  0  0  0  0  0  0  0  0  0  0  0
   47.7150   34.0550   39.7550 O   0  0  0  0  0  0  0  0  0  0  0  0
   47.9240   35.3890   41.7630 C   0  0  1  0  0  0  0  0  0  0  0  0
   49.1880   34.6450   41.6910 C   0  0  0  0  0  0  0  0  0  0  0  0
   48.3850   35.0060   40.4290 C   0  0  1  0  0  0  0  0  0  0  0  0
   47.8350   36.4640   41.9960 H   0  0  0  0  0  0  0  0  0  0  0  0
   49.2120   33.5610   41.8550 H   0  0  0  0  0  0  0  0  0  0  0  0
   50.0950   35.2240   41.9240 H   0  0  0  0  0  0  0  0  0  0  0  0
   48.9410   35.7370   39.8140 H   0  0  0  0  0  0  0  0  0  0  0  0
   45.8850   32.9090   43.7770 C   0  0  0  0  0  0  0  0  0  0  0  0
   46.9760   33.6240   43.2960 C   0  0  0  0  0  0  0  0  0  0  0  0
   46.7620   34.6110   42.3130 C   0  0  0  0  0  0  0  0  0  0  0  0
   45.4990   34.8370   41.8610 N   0  0  0  0  0  0  0  0  0  0  0  0
   44.4510   34.1210   42.3500 C   0  0  0  0  0  0  0  0  0  0  0  0
   44.6430   33.1630   43.3040 N   0  0  0  0  0  0  0  0  0  0  0  0
   46.0530   32.1650   44.5210 H   0  0  0  0  0  0  0  0  0  0  0  0
   47.9440   33.4140   43.6780 H   0  0  0  0  0  0  0  0  0  0  0  0
   43.4480   34.3040   41.9880 H   0  0  0  0  0  0  0  0  0  0  0  0
   46.7980   33.7820   37.1910 O   0  0  0  0  0  0  0  0  0  0  0  0
   45.6640   33.0030   37.3660 C   0  0  0  0  0  0  0  0  0  0  0  0
   45.4540   31.6990   36.9500 C   0  0  0  0  0  0  0  0  0  0  0  0
   44.2730   31.0620   37.2000 C   0  0  0  0  0  0  0  0  0  0  0  0
   43.2580   31.7090   37.8750 C   0  0  0  0  0  0  0  0  0  0  0  0
   43.5110   33.0230   38.2770 C   0  0  0  0  0  0  0  0  0  0  0  0
   44.6930   33.6370   38.0180 N   0  0  0  0  0  0  0  0  0  0  0  0
   46.2970   31.2610   36.4280 H   0  0  0  0  0  0  0  0  0  0  0  0
   44.1400   30.0380   36.8590 H   0  0  0  0  0  0  0  0  0  0  0  0
   42.3130   31.2500   38.0940 H   0  0  0  0  0  0  0  0  0  0  0  0
   42.4210   33.7240   39.0050 C   0  0  0  0  0  0  0  0  0  0  0  0
   42.0880   32.9790   40.0970 F   0  0  0  0  0  0  0  0  0  0  0  0
   42.9700   34.9270   39.4590 F   0  0  0  0  0  0  0  0  0  0  0  0
   41.3590   34.0240   38.1750 F   0  0  0  0  0  0  0  0  0  0  0  0
  2  1  2  6  0  0  0
  2  5  1  0  0  0  0
  3  2  1  0  0  0  0
  4  3  1  0  0  0  0
  5  8  1  0  0  0  0
  6  9  1  1  0  0  0
  6 15  1  0  0  0  0
  7  6  1  0  0  0  0
  7 10  1  0  0  0  0
  7 11  1  0  0  0  0
  8 12  1  6  0  0  0
  8  7  1  0  0  0  0
  8  6  1  0  0  0  0
 13 19  1  0  0  0  0
 14 20  1  0  0  0  0
 14 13  2  0  0  0  0
 15 14  1  0  0  0  0
 16 15  2  0  0  0  0
 16 17  1  0  0  0  0
 17 18  2  0  0  0  0
 18 13  1  0  0  0  0
 21 17  1  0  0  0  0
 22 23  1  0  0  0  0
 22  2  1  0  0  0  0
 23 28  1  0  0  0  0
 24 25  1  0  0  0  0
 24 23  2  0  0  0  0
 25 26  2  0  0  0  0
 26 31  1  0  0  0  0
 26 27  1  0  0  0  0
 27 32  1  0  0  0  0
 28 27  2  0  0  0  0
 29 24  1  0  0  0  0
 30 25  1  0  0  0  0
 32 34  1  0  0  0  0
 32 33  1  0  0  0  0
 35 32  1  0  0  0  0
M  END
>  <minimizedAffinity>
-4.70640087

>  <minimizedRMSD>
1.0870887

$$$$
