
 OpenBabel03252501053D

 35 37  0  0  1  0  0  0  0  0999 V2000
   48.5850   32.3560   38.0880 O   0  0  0  0  0  0  0  0  0  0  0  0
   48.0900   33.7950   38.2390 P   0  0  2  0  0  0  0  0  0  0  0  0
   49.3120   34.7590   37.5670 O   0  0  0  0  0  0  0  0  0  0  0  0
   50.1800   34.2880   37.4860 H   0  0  0  0  0  0  0  0  0  0  0  0
   47.7000   34.1600   39.7830 O   0  0  0  0  0  0  0  0  0  0  0  0
   48.0540   35.4500   41.8000 C   0  0  1  0  0  0  0  0  0  0  0  0
   49.2850   34.6620   41.6550 C   0  0  0  0  0  0  0  0  0  0  0  0
   48.4360   35.0750   40.4390 C   0  0  1  0  0  0  0  0  0  0  0  0
   48.0170   36.5230   42.0540 H   0  0  0  0  0  0  0  0  0  0  0  0
   49.2760   33.5750   41.8000 H   0  0  0  0  0  0  0  0  0  0  0  0
   50.2230   35.2030   41.8530 H   0  0  0  0  0  0  0  0  0  0  0  0
   48.9900   35.7960   39.8100 H   0  0  0  0  0  0  0  0  0  0  0  0
   46.0250   32.9370   43.7820 C   0  0  0  0  0  0  0  0  0  0  0  0
   47.1190   33.6170   43.2590 C   0  0  0  0  0  0  0  0  0  0  0  0
   46.8920   34.7050   42.3930 C   0  0  0  0  0  0  0  0  0  0  0  0
   45.6130   35.0590   42.0890 N   0  0  0  0  0  0  0  0  0  0  0  0
   44.5630   34.3740   42.6160 C   0  0  0  0  0  0  0  0  0  0  0  0
   44.7670   33.3180   43.4590 N   0  0  0  0  0  0  0  0  0  0  0  0
   46.2030   32.1160   44.4380 H   0  0  0  0  0  0  0  0  0  0  0  0
   48.0990   33.3060   43.5230 H   0  0  0  0  0  0  0  0  0  0  0  0
   43.5480   34.6580   42.3740 H   0  0  0  0  0  0  0  0  0  0  0  0
   46.7520   33.9000   37.2290 O   0  0  0  0  0  0  0  0  0  0  0  0
   45.6970   32.9990   37.2410 C   0  0  0  0  0  0  0  0  0  0  0  0
   45.6020   31.7910   36.5700 C   0  0  0  0  0  0  0  0  0  0  0  0
   44.4890   31.0090   36.6810 C   0  0  0  0  0  0  0  0  0  0  0  0
   43.4300   31.4090   37.4700 C   0  0  0  0  0  0  0  0  0  0  0  0
   43.5660   32.6340   38.1290 C   0  0  0  0  0  0  0  0  0  0  0  0
   44.6820   33.3950   38.0030 N   0  0  0  0  0  0  0  0  0  0  0  0
   46.4740   31.5480   35.9730 H   0  0  0  0  0  0  0  0  0  0  0  0
   44.4470   30.0670   36.1410 H   0  0  0  0  0  0  0  0  0  0  0  0
   42.5340   30.8290   37.5880 H   0  0  0  0  0  0  0  0  0  0  0  0
   42.4270   33.0690   38.9790 C   0  0  0  0  0  0  0  0  0  0  0  0
   42.8080   34.1810   39.6680 F   0  0  0  0  0  0  0  0  0  0  0  0
   41.4060   33.4400   38.0980 F   0  0  0  0  0  0  0  0  0  0  0  0
   41.9550   32.0410   39.7720 F   0  0  0  0  0  0  0  0  0  0  0  0
  2  1  2  6  0  0  0
  2  5  1  0  0  0  0
  3  2  1  0  0  0  0
  4  3  1  0  0  0  0
  5  8  1  0  0  0  0
  6  9  1  1  0  0  0
  6 15  1  0  0  0  0
  7  6  1  0  0  0  0
  7 10  1  0  0  0  0
  7 11  1  0  0  0  0
  8 12  1  6  0  0  0
  8  7  1  0  0  0  0
  8  6  1  0  0  0  0
 13 19  1  0  0  0  0
 14 20  1  0  0  0  0
 14 13  2  0  0  0  0
 15 14  1  0  0  0  0
 16 15  2  0  0  0  0
 16 17  1  0  0  0  0
 17 18  2  0  0  0  0
 18 13  1  0  0  0  0
 21 17  1  0  0  0  0
 22 23  1  0  0  0  0
 22  2  1  0  0  0  0
 23 28  1  0  0  0  0
 24 25  1  0  0  0  0
 24 23  2  0  0  0  0
 25 26  2  0  0  0  0
 26 31  1  0  0  0  0
 26 27  1  0  0  0  0
 27 32  1  0  0  0  0
 28 27  2  0  0  0  0
 29 24  1  0  0  0  0
 30 25  1  0  0  0  0
 32 33  1  0  0  0  0
 32 35  1  0  0  0  0
 34 32  1  0  0  0  0
M  END
>  <minimizedAffinity>
-4.69182396

>  <minimizedRMSD>
0.740789473

$$$$
