
 OpenBabel03252501093D

 35 37  0  0  1  0  0  0  0  0999 V2000
   34.5390   29.0960   39.9670 O   0  0  0  0  0  0  0  0  0  0  0  0
   35.8790   29.4490   40.6130 P   0  0  2  0  0  0  0  0  0  0  0  0
   35.6380   30.9630   41.3370 O   0  0  0  0  0  0  0  0  0  0  0  0
   34.8480   31.4430   40.9830 H   0  0  0  0  0  0  0  0  0  0  0  0
   37.1190   29.3860   39.5510 O   0  0  0  0  0  0  0  0  0  0  0  0
   37.1670   30.7550   37.5560 C   0  0  1  0  0  0  0  0  0  0  0  0
   38.0040   29.5970   37.2190 C   0  0  0  0  0  0  0  0  0  0  0  0
   36.8540   29.4990   38.2370 C   0  0  1  0  0  0  0  0  0  0  0  0
   36.4000   31.1950   36.8960 H   0  0  0  0  0  0  0  0  0  0  0  0
   38.9790   29.4490   37.6990 H   0  0  0  0  0  0  0  0  0  0  0  0
   37.8540   29.1780   36.2110 H   0  0  0  0  0  0  0  0  0  0  0  0
   36.0470   28.8530   37.8460 H   0  0  0  0  0  0  0  0  0  0  0  0
   39.8580   32.8490   39.2090 C   0  0  0  0  0  0  0  0  0  0  0  0
   39.2550   31.8730   38.4240 C   0  0  0  0  0  0  0  0  0  0  0  0
   37.8480   31.8080   38.3840 C   0  0  0  0  0  0  0  0  0  0  0  0
   37.1190   32.6970   39.1130 N   0  0  0  0  0  0  0  0  0  0  0  0
   37.7380   33.6400   39.8720 C   0  0  0  0  0  0  0  0  0  0  0  0
   39.1000   33.7160   39.9200 N   0  0  0  0  0  0  0  0  0  0  0  0
   40.9220   32.8940   39.2350 H   0  0  0  0  0  0  0  0  0  0  0  0
   39.8630   31.2010   37.8720 H   0  0  0  0  0  0  0  0  0  0  0  0
   37.1550   34.3450   40.4500 H   0  0  0  0  0  0  0  0  0  0  0  0
   36.0730   28.3250   41.8460 O   0  0  0  0  0  0  0  0  0  0  0  0
   37.3050   27.8820   42.3060 C   0  0  0  0  0  0  0  0  0  0  0  0
   38.3350   28.6350   42.8430 C   0  0  0  0  0  0  0  0  0  0  0  0
   39.4980   28.0490   43.2530 C   0  0  0  0  0  0  0  0  0  0  0  0
   39.6700   26.6850   43.1390 C   0  0  0  0  0  0  0  0  0  0  0  0
   38.6070   25.9620   42.5920 C   0  0  0  0  0  0  0  0  0  0  0  0
   37.4600   26.5660   42.1910 N   0  0  0  0  0  0  0  0  0  0  0  0
   38.1230   29.6970   42.8990 H   0  0  0  0  0  0  0  0  0  0  0  0
   40.2860   28.6700   43.6700 H   0  0  0  0  0  0  0  0  0  0  0  0
   40.5660   26.1790   43.4480 H   0  0  0  0  0  0  0  0  0  0  0  0
   38.7890   24.4910   42.4680 C   0  0  0  0  0  0  0  0  0  0  0  0
   37.5590   23.9060   42.4780 F   0  0  0  0  0  0  0  0  0  0  0  0
   39.3560   24.2760   41.2070 F   0  0  0  0  0  0  0  0  0  0  0  0
   39.6620   23.9990   43.4180 F   0  0  0  0  0  0  0  0  0  0  0  0
  2  1  2  6  0  0  0
  2  3  1  0  0  0  0
  2 22  1  0  0  0  0
  4  3  1  0  0  0  0
  5  2  1  0  0  0  0
  6  9  1  6  0  0  0
  6  8  1  0  0  0  0
  6 15  1  0  0  0  0
  7  6  1  0  0  0  0
  7 10  1  0  0  0  0
  7  8  1  0  0  0  0
  8 12  1  6  0  0  0
  8  5  1  0  0  0  0
 11  7  1  0  0  0  0
 13 19  1  0  0  0  0
 13 18  1  0  0  0  0
 14 13  2  0  0  0  0
 15 14  1  0  0  0  0
 15 16  2  0  0  0  0
 16 17  1  0  0  0  0
 17 18  2  0  0  0  0
 17 21  1  0  0  0  0
 20 14  1  0  0  0  0
 22 23  1  0  0  0  0
 23 24  1  0  0  0  0
 24 29  1  0  0  0  0
 24 25  2  0  0  0  0
 25 30  1  0  0  0  0
 26 25  1  0  0  0  0
 26 31  1  0  0  0  0
 27 26  2  0  0  0  0
 28 23  2  0  0  0  0
 28 27  1  0  0  0  0
 32 33  1  0  0  0  0
 32 27  1  0  0  0  0
 32 35  1  0  0  0  0
 34 32  1  0  0  0  0
M  END
>  <minimizedAffinity>
-6.22847128

$$$$

 OpenBabel03252501093D

 35 37  0  0  1  0  0  0  0  0999 V2000
   34.3810   29.2160   39.9580 O   0  0  0  0  0  0  0  0  0  0  0  0
   35.7680   29.5090   40.5290 P   0  0  2  0  0  0  0  0  0  0  0  0
   35.5910   30.9450   41.4130 O   0  0  0  0  0  0  0  0  0  0  0  0
   34.7780   31.4550   41.1700 H   0  0  0  0  0  0  0  0  0  0  0  0
   36.9220   29.5550   39.3720 O   0  0  0  0  0  0  0  0  0  0  0  0
   36.9640   31.0830   37.4970 C   0  0  1  0  0  0  0  0  0  0  0  0
   37.6180   29.8700   36.9890 C   0  0  0  0  0  0  0  0  0  0  0  0
   36.5590   29.8160   38.1040 C   0  0  1  0  0  0  0  0  0  0  0  0
   36.2030   31.6670   36.9520 H   0  0  0  0  0  0  0  0  0  0  0  0
   38.6050   29.5680   37.3570 H   0  0  0  0  0  0  0  0  0  0  0  0
   37.3290   29.5650   35.9710 H   0  0  0  0  0  0  0  0  0  0  0  0
   35.6460   29.3060   37.7440 H   0  0  0  0  0  0  0  0  0  0  0  0
   38.0970   33.7480   39.9410 C   0  0  0  0  0  0  0  0  0  0  0  0
   37.2620   32.9310   39.1880 C   0  0  0  0  0  0  0  0  0  0  0  0
   37.8410   31.9710   38.3340 C   0  0  0  0  0  0  0  0  0  0  0  0
   39.1960   31.8700   38.2680 N   0  0  0  0  0  0  0  0  0  0  0  0
   39.9870   32.6830   39.0160 C   0  0  0  0  0  0  0  0  0  0  0  0
   39.4410   33.6180   39.8490 N   0  0  0  0  0  0  0  0  0  0  0  0
   37.6540   34.4720   40.5850 H   0  0  0  0  0  0  0  0  0  0  0  0
   36.2100   33.0450   39.2720 H   0  0  0  0  0  0  0  0  0  0  0  0
   41.0650   32.6000   38.9610 H   0  0  0  0  0  0  0  0  0  0  0  0
   36.0540   28.2720   41.6280 O   0  0  0  0  0  0  0  0  0  0  0  0
   37.2840   28.0300   42.2240 C   0  0  0  0  0  0  0  0  0  0  0  0
   37.6960   26.8910   42.8940 C   0  0  0  0  0  0  0  0  0  0  0  0
   38.9480   26.8030   43.4300 C   0  0  0  0  0  0  0  0  0  0  0  0
   39.8330   27.8560   43.3150 C   0  0  0  0  0  0  0  0  0  0  0  0
   39.3770   28.9860   42.6330 C   0  0  0  0  0  0  0  0  0  0  0  0
   38.1280   29.0520   42.1070 N   0  0  0  0  0  0  0  0  0  0  0  0
   36.9450   26.1100   42.9410 H   0  0  0  0  0  0  0  0  0  0  0  0
   39.2400   25.8940   43.9500 H   0  0  0  0  0  0  0  0  0  0  0  0
   40.8270   27.8340   43.7210 H   0  0  0  0  0  0  0  0  0  0  0  0
   40.3270   30.1230   42.5070 C   0  0  0  0  0  0  0  0  0  0  0  0
   39.8170   31.1850   43.1910 F   0  0  0  0  0  0  0  0  0  0  0  0
   41.5000   29.7210   43.1540 F   0  0  0  0  0  0  0  0  0  0  0  0
   40.6360   30.3900   41.1880 F   0  0  0  0  0  0  0  0  0  0  0  0
  2  1  2  6  0  0  0
  2  3  1  0  0  0  0
  2 22  1  0  0  0  0
  4  3  1  0  0  0  0
  5  2  1  0  0  0  0
  6  9  1  6  0  0  0
  6  8  1  0  0  0  0
  6 15  1  0  0  0  0
  7 10  1  0  0  0  0
  7  6  1  0  0  0  0
  7  8  1  0  0  0  0
  8 12  1  6  0  0  0
  8  5  1  0  0  0  0
 11  7  1  0  0  0  0
 13 19  1  0  0  0  0
 14 20  1  0  0  0  0
 14 13  2  0  0  0  0
 15 14  1  0  0  0  0
 16 15  2  0  0  0  0
 16 17  1  0  0  0  0
 17 18  2  0  0  0  0
 18 13  1  0  0  0  0
 21 17  1  0  0  0  0
 22 23  1  0  0  0  0
 23 24  1  0  0  0  0
 24 29  1  0  0  0  0
 24 25  2  0  0  0  0
 25 30  1  0  0  0  0
 26 25  1  0  0  0  0
 26 31  1  0  0  0  0
 27 26  2  0  0  0  0
 28 23  2  0  0  0  0
 28 27  1  0  0  0  0
 32 27  1  0  0  0  0
 32 34  1  0  0  0  0
 32 33  1  0  0  0  0
 35 32  1  0  0  0  0
M  END
>  <minimizedAffinity>
-6.02119303

$$$$

 OpenBabel03252501093D

 35 37  0  0  1  0  0  0  0  0999 V2000
   34.3920   29.1310   40.1700 O   0  0  0  0  0  0  0  0  0  0  0  0
   35.7750   29.4440   40.7410 P   0  0  2  0  0  0  0  0  0  0  0  0
   35.6080   30.9440   41.5140 O   0  0  0  0  0  0  0  0  0  0  0  0
   34.8070   31.4470   41.2210 H   0  0  0  0  0  0  0  0  0  0  0  0
   36.9470   29.3860   39.6030 O   0  0  0  0  0  0  0  0  0  0  0  0
   38.2330   30.7290   38.0550 C   0  0  1  0  0  0  0  0  0  0  0  0
   37.1760   31.6330   38.5260 C   0  0  0  0  0  0  0  0  0  0  0  0
   37.7030   30.4780   39.3950 C   0  0  1  0  0  0  0  0  0  0  0  0
   39.2980   30.9980   37.9570 H   0  0  0  0  0  0  0  0  0  0  0  0
   36.1300   31.4740   38.2370 H   0  0  0  0  0  0  0  0  0  0  0  0
   37.4980   32.6600   38.7600 H   0  0  0  0  0  0  0  0  0  0  0  0
   38.2410   30.8720   40.2760 H   0  0  0  0  0  0  0  0  0  0  0  0
   36.3650   29.1790   35.1440 C   0  0  0  0  0  0  0  0  0  0  0  0
   36.7450   30.0950   36.1190 C   0  0  0  0  0  0  0  0  0  0  0  0
   37.8090   29.7660   36.9820 C   0  0  0  0  0  0  0  0  0  0  0  0
   38.4340   28.5640   36.8420 N   0  0  0  0  0  0  0  0  0  0  0  0
   38.0400   27.6890   35.8790 C   0  0  0  0  0  0  0  0  0  0  0  0
   37.0110   27.9940   35.0340 N   0  0  0  0  0  0  0  0  0  0  0  0
   35.5610   29.4330   34.4940 H   0  0  0  0  0  0  0  0  0  0  0  0
   36.2300   31.0200   36.1920 H   0  0  0  0  0  0  0  0  0  0  0  0
   38.5380   26.7350   35.7700 H   0  0  0  0  0  0  0  0  0  0  0  0
   36.0240   28.2870   41.9330 O   0  0  0  0  0  0  0  0  0  0  0  0
   37.2760   27.8670   42.3590 C   0  0  0  0  0  0  0  0  0  0  0  0
   38.3060   28.6390   42.8690 C   0  0  0  0  0  0  0  0  0  0  0  0
   39.4900   28.0740   43.2470 C   0  0  0  0  0  0  0  0  0  0  0  0
   39.6850   26.7140   43.1250 C   0  0  0  0  0  0  0  0  0  0  0  0
   38.6210   25.9710   42.6050 C   0  0  0  0  0  0  0  0  0  0  0  0
   37.4530   26.5540   42.2370 N   0  0  0  0  0  0  0  0  0  0  0  0
   38.0750   29.6970   42.9330 H   0  0  0  0  0  0  0  0  0  0  0  0
   40.2770   28.7090   43.6430 H   0  0  0  0  0  0  0  0  0  0  0  0
   40.5980   26.2240   43.4080 H   0  0  0  0  0  0  0  0  0  0  0  0
   38.8280   24.5050   42.4730 C   0  0  0  0  0  0  0  0  0  0  0  0
   39.5140   24.0690   43.5670 F   0  0  0  0  0  0  0  0  0  0  0  0
   37.5530   23.9290   42.5100 F   0  0  0  0  0  0  0  0  0  0  0  0
   39.4110   24.1750   41.2660 F   0  0  0  0  0  0  0  0  0  0  0  0
  2  1  2  6  0  0  0
  2  3  1  0  0  0  0
  2 22  1  0  0  0  0
  4  3  1  0  0  0  0
  5  2  1  0  0  0  0
  6  9  1  6  0  0  0
  6  7  1  0  0  0  0
  6  8  1  0  0  0  0
  7 11  1  0  0  0  0
  7  8  1  0  0  0  0
  8  5  1  0  0  0  0
  8 12  1  1  0  0  0
 10  7  1  0  0  0  0
 13 14  1  0  0  0  0
 14 20  1  0  0  0  0
 14 15  2  0  0  0  0
 15  6  1  0  0  0  0
 16 15  1  0  0  0  0
 17 16  2  0  0  0  0
 18 13  2  0  0  0  0
 18 17  1  0  0  0  0
 19 13  1  0  0  0  0
 21 17  1  0  0  0  0
 22 23  1  0  0  0  0
 23 24  1  0  0  0  0
 24 29  1  0  0  0  0
 24 25  2  0  0  0  0
 25 30  1  0  0  0  0
 26 25  1  0  0  0  0
 26 31  1  0  0  0  0
 27 26  2  0  0  0  0
 28 23  2  0  0  0  0
 28 27  1  0  0  0  0
 32 34  1  0  0  0  0
 32 27  1  0  0  0  0
 32 33  1  0  0  0  0
 35 32  1  0  0  0  0
M  END
>  <minimizedAffinity>
-5.6949749

$$$$

 OpenBabel03252501093D

 35 37  0  0  1  0  0  0  0  0999 V2000
   36.4420   30.1660   39.0390 O   0  0  0  0  0  0  0  0  0  0  0  0
   37.0400   30.8930   40.2430 P   0  0  2  0  0  0  0  0  0  0  0  0
   35.7380   31.1500   41.2990 O   0  0  0  0  0  0  0  0  0  0  0  0
   34.8560   31.0710   40.8570 H   0  0  0  0  0  0  0  0  0  0  0  0
   37.8520   32.2450   39.8140 O   0  0  0  0  0  0  0  0  0  0  0  0
   40.0190   32.8830   40.6800 C   0  0  1  0  0  0  0  0  0  0  0  0
   39.3600   34.1610   40.3780 C   0  0  0  0  0  0  0  0  0  0  0  0
   38.5580   32.9010   40.7510 C   0  0  1  0  0  0  0  0  0  0  0  0
   40.5830   32.6660   41.6030 H   0  0  0  0  0  0  0  0  0  0  0  0
   39.1720   34.4640   39.3410 H   0  0  0  0  0  0  0  0  0  0  0  0
   39.4850   34.9510   41.1350 H   0  0  0  0  0  0  0  0  0  0  0  0
   38.0620   33.0360   41.7290 H   0  0  0  0  0  0  0  0  0  0  0  0
   41.7460   30.2850   38.5290 C   0  0  0  0  0  0  0  0  0  0  0  0
   41.1870   30.9030   39.6410 C   0  0  0  0  0  0  0  0  0  0  0  0
   40.6180   32.1840   39.4930 C   0  0  0  0  0  0  0  0  0  0  0  0
   40.6340   32.7820   38.2700 N   0  0  0  0  0  0  0  0  0  0  0  0
   41.1890   32.1530   37.2010 C   0  0  0  0  0  0  0  0  0  0  0  0
   41.7420   30.9110   37.3290 N   0  0  0  0  0  0  0  0  0  0  0  0
   42.1730   29.3170   38.6470 H   0  0  0  0  0  0  0  0  0  0  0  0
   41.1970   30.3990   40.5760 H   0  0  0  0  0  0  0  0  0  0  0  0
   41.1990   32.6310   36.2300 H   0  0  0  0  0  0  0  0  0  0  0  0
   38.0600   29.7700   40.9640 O   0  0  0  0  0  0  0  0  0  0  0  0
   37.6190   28.6920   41.7190 C   0  0  0  0  0  0  0  0  0  0  0  0
   37.3010   28.6710   43.0660 C   0  0  0  0  0  0  0  0  0  0  0  0
   36.8780   27.5230   43.6720 C   0  0  0  0  0  0  0  0  0  0  0  0
   36.7600   26.3540   42.9490 C   0  0  0  0  0  0  0  0  0  0  0  0
   37.0920   26.4190   41.5930 C   0  0  0  0  0  0  0  0  0  0  0  0
   37.5100   27.5710   41.0120 N   0  0  0  0  0  0  0  0  0  0  0  0
   37.4190   29.6270   43.5640 H   0  0  0  0  0  0  0  0  0  0  0  0
   36.6360   27.5400   44.7310 H   0  0  0  0  0  0  0  0  0  0  0  0
   36.4330   25.4270   43.3810 H   0  0  0  0  0  0  0  0  0  0  0  0
   36.9670   25.1610   40.8100 C   0  0  0  0  0  0  0  0  0  0  0  0
   38.2160   24.7620   40.4380 F   0  0  0  0  0  0  0  0  0  0  0  0
   36.4570   24.2040   41.6940 F   0  0  0  0  0  0  0  0  0  0  0  0
   36.0760   25.2940   39.7630 F   0  0  0  0  0  0  0  0  0  0  0  0
  2  1  2  6  0  0  0
  2 22  1  0  0  0  0
  2  3  1  0  0  0  0
  4  3  1  0  0  0  0
  5  2  1  0  0  0  0
  5  8  1  0  0  0  0
  6  8  1  0  0  0  0
  6  9  1  1  0  0  0
  7  6  1  0  0  0  0
  7  8  1  0  0  0  0
  7 11  1  0  0  0  0
  8 12  1  1  0  0  0
 10  7  1  0  0  0  0
 13 19  1  0  0  0  0
 13 14  1  0  0  0  0
 14 20  1  0  0  0  0
 15 14  2  0  0  0  0
 15  6  1  0  0  0  0
 16 15  1  0  0  0  0
 17 18  1  0  0  0  0
 17 16  2  0  0  0  0
 18 13  2  0  0  0  0
 21 17  1  0  0  0  0
 22 23  1  0  0  0  0
 23 24  1  0  0  0  0
 24 29  1  0  0  0  0
 24 25  2  0  0  0  0
 25 30  1  0  0  0  0
 26 31  1  0  0  0  0
 26 25  1  0  0  0  0
 27 26  2  0  0  0  0
 28 27  1  0  0  0  0
 28 23  2  0  0  0  0
 32 27  1  0  0  0  0
 32 34  1  0  0  0  0
 33 32  1  0  0  0  0
 35 32  1  0  0  0  0
M  END
>  <minimizedAffinity>
-5.63023043

$$$$

 OpenBabel03252501093D

 35 37  0  0  1  0  0  0  0  0999 V2000
   40.4290   28.4630   41.0790 O   0  0  0  0  0  0  0  0  0  0  0  0
   40.1800   28.6970   42.5690 P   0  0  2  0  0  0  0  0  0  0  0  0
   41.6750   28.4190   43.3200 O   0  0  0  0  0  0  0  0  0  0  0  0
   42.3040   27.9040   42.7550 H   0  0  0  0  0  0  0  0  0  0  0  0
   38.9460   27.7920   43.1430 O   0  0  0  0  0  0  0  0  0  0  0  0
   36.7120   27.6180   42.2290 C   0  0  1  0  0  0  0  0  0  0  0  0
   36.5190   27.4940   43.6790 C   0  0  0  0  0  0  0  0  0  0  0  0
   37.6960   28.2840   43.0820 C   0  0  1  0  0  0  0  0  0  0  0  0
   36.0950   28.2410   41.5600 H   0  0  0  0  0  0  0  0  0  0  0  0
   36.8660   26.6030   44.2180 H   0  0  0  0  0  0  0  0  0  0  0  0
   35.6650   28.0510   44.0950 H   0  0  0  0  0  0  0  0  0  0  0  0
   37.5870   29.3630   43.3000 H   0  0  0  0  0  0  0  0  0  0  0  0
   37.4460   23.9690   41.5170 C   0  0  0  0  0  0  0  0  0  0  0  0
   37.0000   25.1130   42.1690 C   0  0  0  0  0  0  0  0  0  0  0  0
   37.1710   26.3630   41.5420 C   0  0  0  0  0  0  0  0  0  0  0  0
   37.7670   26.4190   40.3190 N   0  0  0  0  0  0  0  0  0  0  0  0
   38.1930   25.2820   39.7060 C   0  0  0  0  0  0  0  0  0  0  0  0
   38.0330   24.0630   40.3010 N   0  0  0  0  0  0  0  0  0  0  0  0
   37.3130   23.0260   41.9950 H   0  0  0  0  0  0  0  0  0  0  0  0
   36.5400   25.0220   43.1220 H   0  0  0  0  0  0  0  0  0  0  0  0
   38.6660   25.3300   38.7340 H   0  0  0  0  0  0  0  0  0  0  0  0
   39.8460   30.3380   42.7000 O   0  0  0  0  0  0  0  0  0  0  0  0
   39.9050   31.2300   41.6390 C   0  0  0  0  0  0  0  0  0  0  0  0
   41.0130   31.9050   41.1550 C   0  0  0  0  0  0  0  0  0  0  0  0
   40.9110   32.7580   40.0940 C   0  0  0  0  0  0  0  0  0  0  0  0
   39.6930   32.9650   39.4790 C   0  0  0  0  0  0  0  0  0  0  0  0
   38.6010   32.2650   39.9990 C   0  0  0  0  0  0  0  0  0  0  0  0
   38.7260   31.4220   41.0550 N   0  0  0  0  0  0  0  0  0  0  0  0
   41.9310   31.6890   41.6900 H   0  0  0  0  0  0  0  0  0  0  0  0
   41.8000   33.2720   39.7390 H   0  0  0  0  0  0  0  0  0  0  0  0
   39.5630   33.6250   38.6430 H   0  0  0  0  0  0  0  0  0  0  0  0
   37.2870   32.4860   39.3390 C   0  0  0  0  0  0  0  0  0  0  0  0
   36.9410   33.7940   39.5010 F   0  0  0  0  0  0  0  0  0  0  0  0
   37.4960   32.2650   37.9740 F   0  0  0  0  0  0  0  0  0  0  0  0
   36.3350   31.5870   39.7770 F   0  0  0  0  0  0  0  0  0  0  0  0
  2  1  2  6  0  0  0
  2 22  1  0  0  0  0
  2  5  1  0  0  0  0
  2  3  1  0  0  0  0
  4  3  1  0  0  0  0
  6  9  1  6  0  0  0
  6  8  1  0  0  0  0
  6  7  1  0  0  0  0
  7 11  1  0  0  0  0
  7 10  1  0  0  0  0
  8  5  1  0  0  0  0
  8 12  1  1  0  0  0
  8  7  1  0  0  0  0
 13 19  1  0  0  0  0
 13 14  1  0  0  0  0
 14 20  1  0  0  0  0
 15 14  2  0  0  0  0
 15  6  1  0  0  0  0
 16 15  1  0  0  0  0
 17 18  1  0  0  0  0
 17 16  2  0  0  0  0
 18 13  2  0  0  0  0
 21 17  1  0  0  0  0
 23 22  1  0  0  0  0
 24 23  1  0  0  0  0
 24 29  1  0  0  0  0
 25 24  2  0  0  0  0
 26 27  2  0  0  0  0
 26 25  1  0  0  0  0
 27 28  1  0  0  0  0
 28 23  2  0  0  0  0
 30 25  1  0  0  0  0
 31 26  1  0  0  0  0
 32 33  1  0  0  0  0
 32 35  1  0  0  0  0
 32 27  1  0  0  0  0
 34 32  1  0  0  0  0
M  END
>  <minimizedAffinity>
-5.41616583

$$$$

 OpenBabel03252501093D

 35 37  0  0  1  0  0  0  0  0999 V2000
   39.0560   29.0950   37.9750 O   0  0  0  0  0  0  0  0  0  0  0  0
   37.8260   29.9580   37.6960 P   0  0  2  0  0  0  0  0  0  0  0  0
   37.5300   29.7870   36.0350 O   0  0  0  0  0  0  0  0  0  0  0  0
   38.3110   29.4420   35.5330 H   0  0  0  0  0  0  0  0  0  0  0  0
   38.0190   31.5000   38.2020 O   0  0  0  0  0  0  0  0  0  0  0  0
   37.4940   32.3950   40.3880 C   0  0  1  0  0  0  0  0  0  0  0  0
   37.2080   33.5020   39.4670 C   0  0  0  0  0  0  0  0  0  0  0  0
   37.1000   32.0310   39.0280 C   0  0  1  0  0  0  0  0  0  0  0  0
   36.8430   32.0820   41.2210 H   0  0  0  0  0  0  0  0  0  0  0  0
   38.0200   34.0200   38.9410 H   0  0  0  0  0  0  0  0  0  0  0  0
   36.2820   34.0630   39.6690 H   0  0  0  0  0  0  0  0  0  0  0  0
   36.0470   31.7680   38.8170 H   0  0  0  0  0  0  0  0  0  0  0  0
   40.7240   30.9100   41.7010 C   0  0  0  0  0  0  0  0  0  0  0  0
   39.3770   31.0450   41.3850 C   0  0  0  0  0  0  0  0  0  0  0  0
   38.9460   32.2150   40.7290 C   0  0  0  0  0  0  0  0  0  0  0  0
   39.8560   33.1810   40.4260 N   0  0  0  0  0  0  0  0  0  0  0  0
   41.1670   33.0220   40.7480 C   0  0  0  0  0  0  0  0  0  0  0  0
   41.6000   31.8920   41.3820 N   0  0  0  0  0  0  0  0  0  0  0  0
   41.0440   30.0230   42.1960 H   0  0  0  0  0  0  0  0  0  0  0  0
   38.7030   30.2650   41.6420 H   0  0  0  0  0  0  0  0  0  0  0  0
   41.8870   33.7920   40.5040 H   0  0  0  0  0  0  0  0  0  0  0  0
   36.5700   29.1990   38.5130 O   0  0  0  0  0  0  0  0  0  0  0  0
   36.7390   28.1130   39.3600 C   0  0  0  0  0  0  0  0  0  0  0  0
   36.7800   26.7700   39.0250 C   0  0  0  0  0  0  0  0  0  0  0  0
   36.9530   25.8100   39.9800 C   0  0  0  0  0  0  0  0  0  0  0  0
   37.0900   26.1620   41.3070 C   0  0  0  0  0  0  0  0  0  0  0  0
   37.0430   27.5270   41.6020 C   0  0  0  0  0  0  0  0  0  0  0  0
   36.8700   28.4640   40.6360 N   0  0  0  0  0  0  0  0  0  0  0  0
   36.6650   26.5760   37.9640 H   0  0  0  0  0  0  0  0  0  0  0  0
   36.9800   24.7650   39.6830 H   0  0  0  0  0  0  0  0  0  0  0  0
   37.2280   25.4440   42.0930 H   0  0  0  0  0  0  0  0  0  0  0  0
   37.1900   27.9100   43.0310 C   0  0  0  0  0  0  0  0  0  0  0  0
   37.1860   29.2700   43.1120 F   0  0  0  0  0  0  0  0  0  0  0  0
   36.0440   27.4390   43.6790 F   0  0  0  0  0  0  0  0  0  0  0  0
   38.2890   27.3090   43.6140 F   0  0  0  0  0  0  0  0  0  0  0  0
  2  1  2  1  0  0  0
  2  5  1  0  0  0  0
  2 22  1  0  0  0  0
  3  2  1  0  0  0  0
  4  3  1  0  0  0  0
  5  8  1  0  0  0  0
  6 15  1  0  0  0  0
  6  9  1  1  0  0  0
  7 11  1  0  0  0  0
  7  6  1  0  0  0  0
  8 12  1  6  0  0  0
  8  7  1  0  0  0  0
  8  6  1  0  0  0  0
 10  7  1  0  0  0  0
 13 19  1  0  0  0  0
 14 20  1  0  0  0  0
 14 13  1  0  0  0  0
 15 14  2  0  0  0  0
 16 15  1  0  0  0  0
 16 17  2  0  0  0  0
 17 18  1  0  0  0  0
 18 13  2  0  0  0  0
 21 17  1  0  0  0  0
 22 23  1  0  0  0  0
 23 28  1  0  0  0  0
 24 23  2  0  0  0  0
 24 25  1  0  0  0  0
 25 26  2  0  0  0  0
 26 27  1  0  0  0  0
 26 31  1  0  0  0  0
 27 32  1  0  0  0  0
 28 27  2  0  0  0  0
 29 24  1  0  0  0  0
 30 25  1  0  0  0  0
 32 33  1  0  0  0  0
 32 35  1  0  0  0  0
 32 34  1  0  0  0  0
M  END
>  <minimizedAffinity>
-5.3982296

$$$$

 OpenBabel03252501093D

 35 37  0  0  1  0  0  0  0  0999 V2000
   37.0550   29.9090   39.1310 O   0  0  0  0  0  0  0  0  0  0  0  0
   36.2090   28.9790   40.0010 P   0  0  2  0  0  0  0  0  0  0  0  0
   35.0210   29.9730   40.6910 O   0  0  0  0  0  0  0  0  0  0  0  0
   35.2510   30.9360   40.6580 H   0  0  0  0  0  0  0  0  0  0  0  0
   37.1100   28.1410   41.0770 O   0  0  0  0  0  0  0  0  0  0  0  0
   36.8860   26.8530   43.1130 C   0  0  1  0  0  0  0  0  0  0  0  0
   37.7490   27.9790   43.4910 C   0  0  0  0  0  0  0  0  0  0  0  0
   36.7120   28.0950   42.3600 C   0  0  1  0  0  0  0  0  0  0  0  0
   36.0350   26.4800   43.7080 H   0  0  0  0  0  0  0  0  0  0  0  0
   38.7730   28.0560   43.1070 H   0  0  0  0  0  0  0  0  0  0  0  0
   37.5240   28.4450   44.4640 H   0  0  0  0  0  0  0  0  0  0  0  0
   35.9070   28.7970   42.6450 H   0  0  0  0  0  0  0  0  0  0  0  0
   37.5070   23.6850   41.1280 C   0  0  0  0  0  0  0  0  0  0  0  0
   36.8340   24.7160   41.7730 C   0  0  0  0  0  0  0  0  0  0  0  0
   37.5850   25.7340   42.3950 C   0  0  0  0  0  0  0  0  0  0  0  0
   38.9440   25.6800   42.3500 N   0  0  0  0  0  0  0  0  0  0  0  0
   39.5750   24.6590   41.7110 C   0  0  0  0  0  0  0  0  0  0  0  0
   38.8610   23.6660   41.1030 N   0  0  0  0  0  0  0  0  0  0  0  0
   36.9340   22.9190   40.6590 H   0  0  0  0  0  0  0  0  0  0  0  0
   35.7730   24.7170   41.7830 H   0  0  0  0  0  0  0  0  0  0  0  0
   40.6550   24.6190   41.6770 H   0  0  0  0  0  0  0  0  0  0  0  0
   35.4400   27.9520   38.9170 O   0  0  0  0  0  0  0  0  0  0  0  0
   34.7420   28.3850   37.7990 C   0  0  0  0  0  0  0  0  0  0  0  0
   35.1660   28.3940   36.4810 C   0  0  0  0  0  0  0  0  0  0  0  0
   34.3570   28.8550   35.4830 C   0  0  0  0  0  0  0  0  0  0  0  0
   33.0920   29.3270   35.7710 C   0  0  0  0  0  0  0  0  0  0  0  0
   32.7040   29.3010   37.1120 C   0  0  0  0  0  0  0  0  0  0  0  0
   33.5250   28.8370   38.0880 N   0  0  0  0  0  0  0  0  0  0  0  0
   36.1690   28.0080   36.3370 H   0  0  0  0  0  0  0  0  0  0  0  0
   34.7210   28.8480   34.4590 H   0  0  0  0  0  0  0  0  0  0  0  0
   32.4200   29.7000   35.0210 H   0  0  0  0  0  0  0  0  0  0  0  0
   31.3420   29.8080   37.4270 C   0  0  0  0  0  0  0  0  0  0  0  0
   31.1420   30.9610   36.7270 F   0  0  0  0  0  0  0  0  0  0  0  0
   30.4490   28.8500   36.9360 F   0  0  0  0  0  0  0  0  0  0  0  0
   31.1380   29.9250   38.7870 F   0  0  0  0  0  0  0  0  0  0  0  0
  2  1  2  6  0  0  0
  2  3  1  0  0  0  0
  2  5  1  0  0  0  0
  4  3  1  0  0  0  0
  5  8  1  0  0  0  0
  6  7  1  0  0  0  0
  6  9  1  1  0  0  0
  7 11  1  0  0  0  0
  8 12  1  1  0  0  0
  8  6  1  0  0  0  0
  8  7  1  0  0  0  0
 10  7  1  0  0  0  0
 13 14  1  0  0  0  0
 14 20  1  0  0  0  0
 14 15  2  0  0  0  0
 15  6  1  0  0  0  0
 16 15  1  0  0  0  0
 17 16  2  0  0  0  0
 18 13  2  0  0  0  0
 18 17  1  0  0  0  0
 19 13  1  0  0  0  0
 21 17  1  0  0  0  0
 22  2  1  0  0  0  0
 23 28  1  0  0  0  0
 23 22  1  0  0  0  0
 24 23  2  0  0  0  0
 25 26  2  0  0  0  0
 25 24  1  0  0  0  0
 26 27  1  0  0  0  0
 27 32  1  0  0  0  0
 27 28  2  0  0  0  0
 29 24  1  0  0  0  0
 30 25  1  0  0  0  0
 31 26  1  0  0  0  0
 32 35  1  0  0  0  0
 33 32  1  0  0  0  0
 34 32  1  0  0  0  0
M  END
>  <minimizedAffinity>
-5.37472391

$$$$

 OpenBabel03252501093D

 35 37  0  0  1  0  0  0  0  0999 V2000
   37.0980   32.9020   39.9850 O   0  0  0  0  0  0  0  0  0  0  0  0
   37.0480   31.3800   40.1170 P   0  0  2  0  0  0  0  0  0  0  0  0
   35.7860   31.0680   41.2060 O   0  0  0  0  0  0  0  0  0  0  0  0
   35.5360   31.8580   41.7490 H   0  0  0  0  0  0  0  0  0  0  0  0
   38.4930   30.7440   40.5410 O   0  0  0  0  0  0  0  0  0  0  0  0
   39.4540   30.7140   42.7620 C   0  0  1  0  0  0  0  0  0  0  0  0
   40.6130   30.8280   41.8680 C   0  0  0  0  0  0  0  0  0  0  0  0
   39.2290   31.3720   41.4750 C   0  0  1  0  0  0  0  0  0  0  0  0
   39.3050   31.3040   43.6820 H   0  0  0  0  0  0  0  0  0  0  0  0
   40.9130   29.9900   41.2260 H   0  0  0  0  0  0  0  0  0  0  0  0
   41.3910   31.5400   42.1850 H   0  0  0  0  0  0  0  0  0  0  0  0
   39.2510   32.4760   41.4160 H   0  0  0  0  0  0  0  0  0  0  0  0
   39.2240   26.9410   43.0230 C   0  0  0  0  0  0  0  0  0  0  0  0
   39.7660   28.2150   42.9040 C   0  0  0  0  0  0  0  0  0  0  0  0
   38.8980   29.3260   42.9040 C   0  0  0  0  0  0  0  0  0  0  0  0
   37.5570   29.1230   43.0180 N   0  0  0  0  0  0  0  0  0  0  0  0
   37.0560   27.8640   43.1330 C   0  0  0  0  0  0  0  0  0  0  0  0
   37.8850   26.7780   43.1360 N   0  0  0  0  0  0  0  0  0  0  0  0
   39.8850   26.1050   43.0230 H   0  0  0  0  0  0  0  0  0  0  0  0
   40.8180   28.3260   42.8170 H   0  0  0  0  0  0  0  0  0  0  0  0
   35.9900   27.7070   43.2240 H   0  0  0  0  0  0  0  0  0  0  0  0
   36.5580   30.8300   38.6070 O   0  0  0  0  0  0  0  0  0  0  0  0
   36.0280   29.5690   38.3740 C   0  0  0  0  0  0  0  0  0  0  0  0
   34.8850   29.2440   37.6640 C   0  0  0  0  0  0  0  0  0  0  0  0
   34.4890   27.9450   37.5210 C   0  0  0  0  0  0  0  0  0  0  0  0
   35.2250   26.9250   38.0870 C   0  0  0  0  0  0  0  0  0  0  0  0
   36.3710   27.2960   38.7960 C   0  0  0  0  0  0  0  0  0  0  0  0
   36.7460   28.5940   38.9250 N   0  0  0  0  0  0  0  0  0  0  0  0
   34.3630   30.1000   37.2510 H   0  0  0  0  0  0  0  0  0  0  0  0
   33.5870   27.7250   36.9570 H   0  0  0  0  0  0  0  0  0  0  0  0
   34.9540   25.8890   38.0030 H   0  0  0  0  0  0  0  0  0  0  0  0
   37.1670   26.1990   39.4070 C   0  0  0  0  0  0  0  0  0  0  0  0
   37.5180   25.3250   38.4220 F   0  0  0  0  0  0  0  0  0  0  0  0
   38.3370   26.7920   39.8900 F   0  0  0  0  0  0  0  0  0  0  0  0
   36.5090   25.6190   40.4740 F   0  0  0  0  0  0  0  0  0  0  0  0
  2  1  2  6  0  0  0
  2  5  1  0  0  0  0
  2  3  1  0  0  0  0
  3  4  1  0  0  0  0
  5  8  1  0  0  0  0
  6 15  1  0  0  0  0
  6  9  1  1  0  0  0
  7 11  1  0  0  0  0
  7  6  1  0  0  0  0
  8 12  1  1  0  0  0
  8  7  1  0  0  0  0
  8  6  1  0  0  0  0
 10  7  1  0  0  0  0
 13 19  1  0  0  0  0
 13 18  1  0  0  0  0
 14 13  2  0  0  0  0
 15 14  1  0  0  0  0
 15 16  2  0  0  0  0
 16 17  1  0  0  0  0
 17 18  2  0  0  0  0
 17 21  1  0  0  0  0
 20 14  1  0  0  0  0
 22  2  1  0  0  0  0
 23 22  1  0  0  0  0
 23 28  1  0  0  0  0
 24 23  2  0  0  0  0
 25 24  1  0  0  0  0
 25 26  2  0  0  0  0
 26 27  1  0  0  0  0
 27 28  2  0  0  0  0
 27 32  1  0  0  0  0
 29 24  1  0  0  0  0
 30 25  1  0  0  0  0
 31 26  1  0  0  0  0
 32 34  1  0  0  0  0
 32 35  1  0  0  0  0
 33 32  1  0  0  0  0
M  END
>  <minimizedAffinity>
-5.28357935

$$$$

 OpenBabel03252501093D

 35 37  0  0  1  0  0  0  0  0999 V2000
   38.9810   29.1320   37.4320 O   0  0  0  0  0  0  0  0  0  0  0  0
   38.2080   29.6990   38.6220 P   0  0  2  0  0  0  0  0  0  0  0  0
   36.7170   28.8900   38.6100 O   0  0  0  0  0  0  0  0  0  0  0  0
   36.5120   28.4650   37.7390 H   0  0  0  0  0  0  0  0  0  0  0  0
   38.1030   31.3290   38.5780 O   0  0  0  0  0  0  0  0  0  0  0  0
   37.9700   32.7930   40.5010 C   0  0  1  0  0  0  0  0  0  0  0  0
   37.1950   33.4870   39.4640 C   0  0  0  0  0  0  0  0  0  0  0  0
   37.3330   31.9540   39.4860 C   0  0  1  0  0  0  0  0  0  0  0  0
   37.6540   32.6710   41.5510 H   0  0  0  0  0  0  0  0  0  0  0  0
   37.6910   33.9220   38.5880 H   0  0  0  0  0  0  0  0  0  0  0  0
   36.2470   33.9370   39.7990 H   0  0  0  0  0  0  0  0  0  0  0  0
   36.3570   31.4820   39.7030 H   0  0  0  0  0  0  0  0  0  0  0  0
   41.6900   32.3100   41.0380 C   0  0  0  0  0  0  0  0  0  0  0  0
   40.3160   32.1300   41.1490 C   0  0  0  0  0  0  0  0  0  0  0  0
   39.4600   32.9530   40.3900 C   0  0  0  0  0  0  0  0  0  0  0  0
   39.9970   33.9000   39.5730 N   0  0  0  0  0  0  0  0  0  0  0  0
   41.3450   34.0520   39.4860 C   0  0  0  0  0  0  0  0  0  0  0  0
   42.1880   33.2610   40.2140 N   0  0  0  0  0  0  0  0  0  0  0  0
   42.3320   31.6840   41.6130 H   0  0  0  0  0  0  0  0  0  0  0  0
   39.9410   31.3790   41.7990 H   0  0  0  0  0  0  0  0  0  0  0  0
   41.7690   34.8050   38.8350 H   0  0  0  0  0  0  0  0  0  0  0  0
   39.0540   29.1770   39.9760 O   0  0  0  0  0  0  0  0  0  0  0  0
   38.4550   28.6490   41.1110 C   0  0  0  0  0  0  0  0  0  0  0  0
   38.1020   29.3120   42.2740 C   0  0  0  0  0  0  0  0  0  0  0  0
   37.5150   28.6490   43.3130 C   0  0  0  0  0  0  0  0  0  0  0  0
   37.2600   27.2960   43.2230 C   0  0  0  0  0  0  0  0  0  0  0  0
   37.6320   26.6650   42.0330 C   0  0  0  0  0  0  0  0  0  0  0  0
   38.2140   27.3440   41.0130 N   0  0  0  0  0  0  0  0  0  0  0  0
   38.3350   30.3710   42.2670 H   0  0  0  0  0  0  0  0  0  0  0  0
   37.2510   29.1990   44.2120 H   0  0  0  0  0  0  0  0  0  0  0  0
   36.8010   26.7310   44.0130 H   0  0  0  0  0  0  0  0  0  0  0  0
   37.3590   25.2070   41.9320 C   0  0  0  0  0  0  0  0  0  0  0  0
   38.4340   24.5350   42.4300 F   0  0  0  0  0  0  0  0  0  0  0  0
   36.2710   24.9570   42.7750 F   0  0  0  0  0  0  0  0  0  0  0  0
   37.0000   24.8380   40.6510 F   0  0  0  0  0  0  0  0  0  0  0  0
  2  1  2  6  0  0  0
  2 22  1  0  0  0  0
  3  2  1  0  0  0  0
  4  3  1  0  0  0  0
  5  2  1  0  0  0  0
  5  8  1  0  0  0  0
  6  9  1  1  0  0  0
  7  8  1  0  0  0  0
  7 11  1  0  0  0  0
  7  6  1  0  0  0  0
  8 12  1  1  0  0  0
  8  6  1  0  0  0  0
 10  7  1  0  0  0  0
 13 14  1  0  0  0  0
 13 19  1  0  0  0  0
 14 20  1  0  0  0  0
 15  6  1  0  0  0  0
 15 14  2  0  0  0  0
 16 15  1  0  0  0  0
 17 16  2  0  0  0  0
 17 18  1  0  0  0  0
 18 13  2  0  0  0  0
 21 17  1  0  0  0  0
 22 23  1  0  0  0  0
 23 24  1  0  0  0  0
 24 25  2  0  0  0  0
 25 30  1  0  0  0  0
 26 25  1  0  0  0  0
 26 31  1  0  0  0  0
 27 26  2  0  0  0  0
 28 23  2  0  0  0  0
 28 27  1  0  0  0  0
 29 24  1  0  0  0  0
 32 27  1  0  0  0  0
 32 33  1  0  0  0  0
 32 34  1  0  0  0  0
 35 32  1  0  0  0  0
M  END
>  <minimizedAffinity>
-5.22402763

$$$$
