
 OpenBabel03252509143D

 40 43  0  0  1  0  0  0  0  0999 V2000
   47.5050   32.7380   43.7820 C   0  0  0  0  0  0  0  0  0  0  0  0
   46.6950   33.4990   42.9440 C   0  0  0  0  0  0  0  0  0  0  0  0
   45.6130   34.2250   43.3970 C   0  0  0  0  0  0  0  0  0  0  0  0
   45.3010   34.2060   44.7660 C   0  0  0  0  0  0  0  0  0  0  0  0
   44.3630   34.7650   45.5400 N   0  0  0  0  0  0  0  0  0  0  0  0
   44.5470   34.3910   46.8210 C   0  0  0  0  0  0  0  0  0  0  0  0
   45.6190   33.5900   46.8120 N   0  0  0  0  0  0  0  0  0  0  0  0
   46.1130   33.4500   45.5680 C   0  0  0  0  0  0  0  0  0  0  0  0
   47.2100   32.7070   45.1450 C   0  0  0  0  0  0  0  0  0  0  0  0
   48.3540   32.1730   43.3970 H   0  0  0  0  0  0  0  0  0  0  0  0
   43.6290   35.3850   45.1550 H   0  0  0  0  0  0  0  0  0  0  0  0
   43.9440   34.6810   47.6940 H   0  0  0  0  0  0  0  0  0  0  0  0
   47.8130   32.1290   45.8310 H   0  0  0  0  0  0  0  0  0  0  0  0
   46.8100   32.5730   39.3970 C   0  0  0  0  0  0  0  0  0  0  0  0
   47.5910   33.5910   38.8380 C   0  0  0  0  0  0  0  0  0  0  0  0
   48.0740   34.5900   39.6850 C   0  0  0  0  0  0  0  0  0  0  0  0
   47.7670   34.5360   41.0180 N   0  0  0  0  0  0  0  0  0  0  0  0
   47.0050   33.5290   41.5180 C   0  0  0  0  0  0  0  0  0  0  0  0
   46.5080   32.5260   40.7300 N   0  0  0  0  0  0  0  0  0  0  0  0
   46.4240   31.7890   38.7670 H   0  0  0  0  0  0  0  0  0  0  0  0
   47.8150   33.6060   37.7870 H   0  0  0  0  0  0  0  0  0  0  0  0
   48.6750   35.3990   39.3360 H   0  0  0  0  0  0  0  0  0  0  0  0
   44.5950   35.1870   42.3090 S   0  0  0  0  0  0  0  0  0  0  0  0
   42.0290   34.8620   41.8370 N   0  0  0  0  0  0  0  0  0  0  0  0
   43.2930   34.2430   41.5000 C   0  0  1  0  0  0  0  0  0  0  0  0
   43.5680   34.3440   39.9990 C   0  0  0  0  0  0  0  0  0  0  0  0
   42.4620   34.0740   39.2160 O   0  0  0  0  0  0  0  0  0  0  0  0
   41.3750   33.5440   39.8820 C   0  0  0  0  0  0  0  0  0  0  0  0
   40.9620   34.4990   40.9610 C   0  0  2  0  0  0  0  0  0  0  0  0
   41.7810   34.5280   42.8100 H   0  0  0  0  0  0  0  0  0  0  0  0
   43.3230   33.1730   41.7970 H   0  0  0  0  0  0  0  0  0  0  0  0
   43.8250   35.4130   39.8160 H   0  0  0  0  0  0  0  0  0  0  0  0
   44.3190   33.6320   39.6810 H   0  0  0  0  0  0  0  0  0  0  0  0
   41.6270   32.5830   40.3670 H   0  0  0  0  0  0  0  0  0  0  0  0
   40.5650   33.4380   39.1630 H   0  0  0  0  0  0  0  0  0  0  0  0
   40.1150   34.0210   41.5140 H   0  0  0  0  0  0  0  0  0  0  0  0
   40.3510   35.7730   40.3740 C   0  0  0  0  0  0  0  0  0  0  0  0
   39.0180   35.5460   40.1010 F   0  0  0  0  0  0  0  0  0  0  0  0
   40.5050   36.8230   41.2560 F   0  0  0  0  0  0  0  0  0  0  0  0
   40.9450   36.0710   39.1480 F   0  0  0  0  0  0  0  0  0  0  0  0
  1  9  1  0  0  0  0
  2  3  1  0  0  0  0
  2  1  2  0  0  0  0
  3  4  2  0  0  0  0
  4  5  1  0  0  0  0
  4  8  1  0  0  0  0
  5  6  1  0  0  0  0
  6 12  1  0  0  0  0
  7  6  2  0  0  0  0
  8  7  1  0  0  0  0
  9  8  2  0  0  0  0
  9 13  1  0  0  0  0
 10  1  1  0  0  0  0
 11  5  1  0  0  0  0
 14 19  1  0  0  0  0
 15 14  2  0  0  0  0
 15 16  1  0  0  0  0
 16 17  2  0  0  0  0
 17 18  1  0  0  0  0
 18  2  1  0  0  0  0
 19 18  2  0  0  0  0
 20 14  1  0  0  0  0
 21 15  1  0  0  0  0
 22 16  1  0  0  0  0
 23  3  1  0  0  0  0
 24 30  1  0  0  0  0
 25 31  1  1  0  0  0
 25 24  1  0  0  0  0
 25 23  1  0  0  0  0
 26 25  1  0  0  0  0
 27 28  1  0  0  0  0
 27 26  1  0  0  0  0
 28 34  1  0  0  0  0
 28 29  1  0  0  0  0
 29 36  1  1  0  0  0
 29 24  1  0  0  0  0
 32 26  1  0  0  0  0
 33 26  1  0  0  0  0
 35 28  1  0  0  0  0
 37 29  1  0  0  0  0
 37 39  1  0  0  0  0
 38 37  1  0  0  0  0
 40 37  1  0  0  0  0
M  END
>  <minimizedAffinity>
-6.30716419

>  <minimizedRMSD>
1.1457175

$$$$
