
 OpenBabel03252509143D

 40 43  0  0  1  0  0  0  0  0999 V2000
   47.8890   32.8700   42.6230 C   0  0  0  0  0  0  0  0  0  0  0  0
   46.9150   33.4970   41.8520 C   0  0  0  0  0  0  0  0  0  0  0  0
   45.8090   34.1190   42.3930 C   0  0  0  0  0  0  0  0  0  0  0  0
   45.6440   34.1300   43.7870 C   0  0  0  0  0  0  0  0  0  0  0  0
   44.7340   34.6180   44.6390 N   0  0  0  0  0  0  0  0  0  0  0  0
   45.0920   34.3270   45.9040 C   0  0  0  0  0  0  0  0  0  0  0  0
   46.2410   33.6500   45.8080 N   0  0  0  0  0  0  0  0  0  0  0  0
   46.6170   33.5060   44.5230 C   0  0  0  0  0  0  0  0  0  0  0  0
   47.7420   32.8700   44.0100 C   0  0  0  0  0  0  0  0  0  0  0  0
   48.7530   32.3850   42.1680 H   0  0  0  0  0  0  0  0  0  0  0  0
   43.8980   35.1340   44.3130 H   0  0  0  0  0  0  0  0  0  0  0  0
   44.5530   34.5890   46.8270 H   0  0  0  0  0  0  0  0  0  0  0  0
   48.4750   32.3960   44.6470 H   0  0  0  0  0  0  0  0  0  0  0  0
   46.4580   32.6440   38.3140 C   0  0  0  0  0  0  0  0  0  0  0  0
   47.3660   33.4930   37.6720 C   0  0  0  0  0  0  0  0  0  0  0  0
   48.1310   34.3540   38.4600 C   0  0  0  0  0  0  0  0  0  0  0  0
   47.9640   34.3350   39.8190 N   0  0  0  0  0  0  0  0  0  0  0  0
   47.0700   33.4940   40.4000 C   0  0  0  0  0  0  0  0  0  0  0  0
   46.2960   32.6310   39.6720 N   0  0  0  0  0  0  0  0  0  0  0  0
   45.8540   31.9690   37.7300 H   0  0  0  0  0  0  0  0  0  0  0  0
   47.4750   33.4850   36.6030 H   0  0  0  0  0  0  0  0  0  0  0  0
   48.8450   35.0310   38.0480 H   0  0  0  0  0  0  0  0  0  0  0  0
   44.5800   34.9110   41.3890 S   0  0  0  0  0  0  0  0  0  0  0  0
   41.9750   35.1410   41.6510 N   0  0  0  0  0  0  0  0  0  0  0  0
   42.9680   34.1110   41.4390 C   0  0  1  0  0  0  0  0  0  0  0  0
   42.7840   33.4470   40.0740 C   0  0  0  0  0  0  0  0  0  0  0  0
   41.4640   33.1760   39.7660 O   0  0  0  0  0  0  0  0  0  0  0  0
   40.5670   33.3280   40.8030 C   0  0  0  0  0  0  0  0  0  0  0  0
   40.6490   34.7390   41.3050 C   0  0  2  0  0  0  0  0  0  0  0  0
   41.9890   35.3630   42.6860 H   0  0  0  0  0  0  0  0  0  0  0  0
   42.9290   33.3270   42.2250 H   0  0  0  0  0  0  0  0  0  0  0  0
   43.1280   34.2000   39.3280 H   0  0  0  0  0  0  0  0  0  0  0  0
   43.2870   32.4890   40.0230 H   0  0  0  0  0  0  0  0  0  0  0  0
   40.8090   32.6590   41.6500 H   0  0  0  0  0  0  0  0  0  0  0  0
   39.5690   33.1430   40.4090 H   0  0  0  0  0  0  0  0  0  0  0  0
   39.9500   34.8180   42.1750 H   0  0  0  0  0  0  0  0  0  0  0  0
   40.0850   35.7280   40.2840 C   0  0  0  0  0  0  0  0  0  0  0  0
   39.7310   36.8920   40.9350 F   0  0  0  0  0  0  0  0  0  0  0  0
   41.0180   35.9730   39.2970 F   0  0  0  0  0  0  0  0  0  0  0  0
   38.9060   35.2280   39.7310 F   0  0  0  0  0  0  0  0  0  0  0  0
  1  9  1  0  0  0  0
  2  3  1  0  0  0  0
  2  1  2  0  0  0  0
  3  4  2  0  0  0  0
  4  8  1  0  0  0  0
  4  5  1  0  0  0  0
  5  6  1  0  0  0  0
  6 12  1  0  0  0  0
  7  6  2  0  0  0  0
  8  7  1  0  0  0  0
  9  8  2  0  0  0  0
  9 13  1  0  0  0  0
 10  1  1  0  0  0  0
 11  5  1  0  0  0  0
 14 19  1  0  0  0  0
 15 14  2  0  0  0  0
 15 16  1  0  0  0  0
 16 17  2  0  0  0  0
 17 18  1  0  0  0  0
 18  2  1  0  0  0  0
 19 18  2  0  0  0  0
 20 14  1  0  0  0  0
 21 15  1  0  0  0  0
 22 16  1  0  0  0  0
 23 25  1  0  0  0  0
 23  3  1  0  0  0  0
 24 30  1  0  0  0  0
 25 24  1  0  0  0  0
 25 31  1  1  0  0  0
 26 25  1  0  0  0  0
 27 26  1  0  0  0  0
 27 28  1  0  0  0  0
 28 29  1  0  0  0  0
 28 34  1  0  0  0  0
 29 24  1  0  0  0  0
 29 36  1  1  0  0  0
 32 26  1  0  0  0  0
 33 26  1  0  0  0  0
 35 28  1  0  0  0  0
 37 38  1  0  0  0  0
 37 29  1  0  0  0  0
 39 37  1  0  0  0  0
 40 37  1  0  0  0  0
M  END
>  <minimizedAffinity>
-6.55461264

>  <minimizedRMSD>
1.86674654

$$$$
