
 OpenBabel03242516113D

 34 36  0  0  0  0  0  0  0  0999 V2000
   48.8020   33.3440   41.7470 C   0  0  0  0  0  0  0  0  0  0  0  0
   50.2100   33.6930   42.1490 C   0  0  0  0  0  0  0  0  0  0  0  0
   49.6660   32.3540   42.3780 C   0  0  0  0  0  0  0  0  0  0  0  0
   50.9660   33.9490   41.3790 H   0  0  0  0  0  0  0  0  0  0  0  0
   50.2740   34.4170   43.0080 H   0  0  0  0  0  0  0  0  0  0  0  0
   49.5940   32.0500   43.4540 H   0  0  0  0  0  0  0  0  0  0  0  0
   50.0390   31.5120   41.7610 H   0  0  0  0  0  0  0  0  0  0  0  0
   48.5820   33.2240   40.2620 C   0  0  0  0  0  0  0  0  0  0  0  0
   48.2230   34.5180   39.5730 C   0  0  0  0  0  0  0  0  0  0  0  0
   48.1720   34.1850   38.0780 C   0  0  0  0  0  0  0  0  0  0  0  0
   47.0050   33.4590   37.8680 O   0  0  0  0  0  0  0  0  0  0  0  0
   47.2570   32.2000   38.4400 C   0  0  0  0  0  0  0  0  0  0  0  0
   47.3700   32.3380   39.9510 C   0  0  0  0  0  0  0  0  0  0  0  0
   49.4440   32.8080   39.7330 H   0  0  0  0  0  0  0  0  0  0  0  0
   49.1150   35.1830   39.6690 H   0  0  0  0  0  0  0  0  0  0  0  0
   47.2880   34.9820   39.9250 H   0  0  0  0  0  0  0  0  0  0  0  0
   49.0630   33.5280   37.8950 H   0  0  0  0  0  0  0  0  0  0  0  0
   48.2030   35.0680   37.4410 H   0  0  0  0  0  0  0  0  0  0  0  0
   48.1640   31.7480   38.0240 H   0  0  0  0  0  0  0  0  0  0  0  0
   46.3340   31.5660   38.2920 H   0  0  0  0  0  0  0  0  0  0  0  0
   46.4900   32.9230   40.3040 H   0  0  0  0  0  0  0  0  0  0  0  0
   47.4360   31.3470   40.3970 H   0  0  0  0  0  0  0  0  0  0  0  0
   47.1290   35.1520   42.0990 C   0  0  0  0  0  0  0  0  0  0  0  0
   47.6800   33.9610   42.5470 C   0  0  0  0  0  0  0  0  0  0  0  0
   47.1760   33.3340   43.7350 C   0  0  0  0  0  0  0  0  0  0  0  0
   46.1480   33.9710   44.3730 N   0  0  0  0  0  0  0  0  0  0  0  0
   45.6500   35.1290   43.8910 C   0  0  0  0  0  0  0  0  0  0  0  0
   46.1060   35.7240   42.7910 N   0  0  0  0  0  0  0  0  0  0  0  0
   47.5260   35.6040   41.2030 H   0  0  0  0  0  0  0  0  0  0  0  0
   47.6360   32.4250   44.0340 H   0  0  0  0  0  0  0  0  0  0  0  0
   44.5250   35.7670   44.6390 C   0  0  0  0  0  0  0  0  0  0  0  0
   44.4620   35.2310   45.8910 F   0  0  0  0  0  0  0  0  0  0  0  0
   43.3330   35.7230   43.9550 F   0  0  0  0  0  0  0  0  0  0  0  0
   44.8280   37.1250   44.8050 F   0  0  0  0  0  0  0  0  0  0  0  0
  1  2  1  0  0  0  0
  1  3  1  0  0  0  0
  1 24  1  0  0  0  0
  2  3  1  0  0  0  0
  2  5  1  0  0  0  0
  3  6  1  0  0  0  0
  4  2  1  0  0  0  0
  7  3  1  0  0  0  0
  8  1  1  0  0  0  0
  9 15  1  0  0  0  0
  9 16  1  0  0  0  0
  9  8  1  0  0  0  0
 10  9  1  0  0  0  0
 11 10  1  0  0  0  0
 11 12  1  0  0  0  0
 12 13  1  0  0  0  0
 13  8  1  0  0  0  0
 13 21  1  0  0  0  0
 13 22  1  0  0  0  0
 14  8  1  0  0  0  0
 17 10  1  0  0  0  0
 18 10  1  0  0  0  0
 19 12  1  0  0  0  0
 20 12  1  0  0  0  0
 23 24  2  0  0  0  0
 23 28  1  0  0  0  0
 24 25  1  0  0  0  0
 25 30  1  0  0  0  0
 25 26  2  0  0  0  0
 27 26  1  0  0  0  0
 27 31  1  0  0  0  0
 28 27  2  0  0  0  0
 29 23  1  0  0  0  0
 31 34  1  0  0  0  0
 31 32  1  0  0  0  0
 33 31  1  0  0  0  0
M  END
>  <minimizedAffinity>
-5.16956902

>  <minimizedRMSD>
1.42295682

$$$$
