
 OpenBabel03252509143D

 40 43  0  0  1  0  0  0  0  0999 V2000
   47.8800   32.9310   42.5320 C   0  0  0  0  0  0  0  0  0  0  0  0
   46.8940   33.5300   41.7530 C   0  0  0  0  0  0  0  0  0  0  0  0
   45.7810   34.1460   42.2870 C   0  0  0  0  0  0  0  0  0  0  0  0
   45.6200   34.1780   43.6810 C   0  0  0  0  0  0  0  0  0  0  0  0
   44.7050   34.6670   44.5270 N   0  0  0  0  0  0  0  0  0  0  0  0
   45.0700   34.4020   45.7960 C   0  0  0  0  0  0  0  0  0  0  0  0
   46.2290   33.7400   45.7080 N   0  0  0  0  0  0  0  0  0  0  0  0
   46.6040   33.5810   44.4240 C   0  0  0  0  0  0  0  0  0  0  0  0
   47.7360   32.9520   43.9190 C   0  0  0  0  0  0  0  0  0  0  0  0
   48.7490   32.4510   42.0830 H   0  0  0  0  0  0  0  0  0  0  0  0
   43.8600   35.1650   44.1950 H   0  0  0  0  0  0  0  0  0  0  0  0
   44.5300   34.6720   46.7160 H   0  0  0  0  0  0  0  0  0  0  0  0
   48.4780   32.4990   44.5610 H   0  0  0  0  0  0  0  0  0  0  0  0
   46.4130   32.6380   38.2280 C   0  0  0  0  0  0  0  0  0  0  0  0
   47.3340   33.4620   37.5730 C   0  0  0  0  0  0  0  0  0  0  0  0
   48.1160   34.3210   38.3470 C   0  0  0  0  0  0  0  0  0  0  0  0
   47.9520   34.3230   39.7070 N   0  0  0  0  0  0  0  0  0  0  0  0
   47.0450   33.5050   40.3010 C   0  0  0  0  0  0  0  0  0  0  0  0
   46.2550   32.6450   39.5870 N   0  0  0  0  0  0  0  0  0  0  0  0
   45.7970   31.9650   37.6540 H   0  0  0  0  0  0  0  0  0  0  0  0
   47.4400   33.4380   36.5040 H   0  0  0  0  0  0  0  0  0  0  0  0
   48.8400   34.9800   37.9240 H   0  0  0  0  0  0  0  0  0  0  0  0
   44.5380   34.9020   41.2730 S   0  0  0  0  0  0  0  0  0  0  0  0
   41.9390   35.1240   41.6030 N   0  0  0  0  0  0  0  0  0  0  0  0
   42.9300   34.0970   41.3630 C   0  0  1  0  0  0  0  0  0  0  0  0
   42.7130   33.4340   40.0020 C   0  0  0  0  0  0  0  0  0  0  0  0
   41.3860   33.1600   39.7280 O   0  0  0  0  0  0  0  0  0  0  0  0
   40.5160   33.3080   40.7890 C   0  0  0  0  0  0  0  0  0  0  0  0
   40.6070   34.7180   41.2900 C   0  0  2  0  0  0  0  0  0  0  0  0
   41.9800   35.3440   42.6370 H   0  0  0  0  0  0  0  0  0  0  0  0
   42.9140   33.3120   42.1490 H   0  0  0  0  0  0  0  0  0  0  0  0
   43.0360   34.1900   39.2490 H   0  0  0  0  0  0  0  0  0  0  0  0
   43.2180   32.4790   39.9370 H   0  0  0  0  0  0  0  0  0  0  0  0
   40.7820   32.6380   41.6270 H   0  0  0  0  0  0  0  0  0  0  0  0
   39.5090   33.1200   40.4200 H   0  0  0  0  0  0  0  0  0  0  0  0
   39.9300   34.7930   42.1780 H   0  0  0  0  0  0  0  0  0  0  0  0
   40.0130   35.7060   40.2850 C   0  0  0  0  0  0  0  0  0  0  0  0
   40.9600   35.9910   39.3230 F   0  0  0  0  0  0  0  0  0  0  0  0
   38.8720   35.1750   39.7160 F   0  0  0  0  0  0  0  0  0  0  0  0
   39.7290   36.9180   40.9130 F   0  0  0  0  0  0  0  0  0  0  0  0
  1  9  1  0  0  0  0
  2  3  1  0  0  0  0
  2  1  2  0  0  0  0
  3  4  2  0  0  0  0
  4  8  1  0  0  0  0
  4  5  1  0  0  0  0
  5  6  1  0  0  0  0
  6 12  1  0  0  0  0
  7  6  2  0  0  0  0
  8  7  1  0  0  0  0
  9  8  2  0  0  0  0
  9 13  1  0  0  0  0
 10  1  1  0  0  0  0
 11  5  1  0  0  0  0
 14 19  1  0  0  0  0
 15 14  2  0  0  0  0
 15 16  1  0  0  0  0
 16 17  2  0  0  0  0
 17 18  1  0  0  0  0
 18  2  1  0  0  0  0
 19 18  2  0  0  0  0
 20 14  1  0  0  0  0
 21 15  1  0  0  0  0
 22 16  1  0  0  0  0
 23 25  1  0  0  0  0
 23  3  1  0  0  0  0
 24 30  1  0  0  0  0
 25 24  1  0  0  0  0
 25 31  1  1  0  0  0
 26 25  1  0  0  0  0
 27 26  1  0  0  0  0
 27 28  1  0  0  0  0
 28 29  1  0  0  0  0
 28 34  1  0  0  0  0
 29 24  1  0  0  0  0
 29 36  1  1  0  0  0
 32 26  1  0  0  0  0
 33 26  1  0  0  0  0
 35 28  1  0  0  0  0
 37 40  1  0  0  0  0
 37 29  1  0  0  0  0
 38 37  1  0  0  0  0
 39 37  1  0  0  0  0
M  END
>  <minimizedAffinity>
-6.5961709

>  <minimizedRMSD>
1.94099951

$$$$
