
 OpenBabel03252500263D

 33 34  0  0  1  0  0  0  0  0999 V2000
   37.3580   26.4870   42.3290 C   0  0  2  0  0  0  0  0  0  0  0  0
   37.2140   27.9060   41.9430 C   0  0  2  0  0  0  0  0  0  0  0  0
   37.9000   28.6390   43.0360 C   0  0  0  0  0  0  0  0  0  0  0  0
   38.9030   27.8210   43.5190 O   0  0  0  0  0  0  0  0  0  0  0  0
   38.7580   26.5860   42.9810 C   0  0  0  0  0  0  0  0  0  0  0  0
   36.8150   25.9830   43.0770 H   0  0  0  0  0  0  0  0  0  0  0  0
   37.8070   27.9980   40.9910 H   0  0  0  0  0  0  0  0  0  0  0  0
   38.4750   29.4860   42.5460 H   0  0  0  0  0  0  0  0  0  0  0  0
   37.2990   29.1710   43.7690 H   0  0  0  0  0  0  0  0  0  0  0  0
   38.9410   25.8110   43.7220 H   0  0  0  0  0  0  0  0  0  0  0  0
   39.5200   26.3960   42.1670 H   0  0  0  0  0  0  0  0  0  0  0  0
   35.9050   28.3040   41.7760 O   0  0  0  0  0  0  0  0  0  0  0  0
   34.5720   29.2210   39.7760 O   0  0  0  0  0  0  0  0  0  0  0  0
   35.8060   29.4740   40.5970 P   0  0  1  0  0  0  0  0  0  0  0  0
   35.6690   30.9970   41.3290 O   0  0  0  0  0  0  0  0  0  0  0  0
   35.4060   31.6880   40.6850 H   0  0  0  0  0  0  0  0  0  0  0  0
   37.1440   29.4400   39.5330 O   0  0  0  0  0  0  0  0  0  0  0  0
   39.2040   31.8940   37.9700 C   0  0  0  0  0  0  0  0  0  0  0  0
   39.7740   32.6180   39.0500 C   0  0  0  0  0  0  0  0  0  0  0  0
   39.4030   32.2060   40.3490 C   0  0  0  0  0  0  0  0  0  0  0  0
   38.5460   31.1700   40.4730 N   0  0  0  0  0  0  0  0  0  0  0  0
   38.0320   30.5140   39.4120 C   0  0  0  0  0  0  0  0  0  0  0  0
   38.3650   30.8800   38.1610 N   0  0  0  0  0  0  0  0  0  0  0  0
   40.4560   33.4410   38.8930 H   0  0  0  0  0  0  0  0  0  0  0  0
   39.8020   32.7170   41.2130 H   0  0  0  0  0  0  0  0  0  0  0  0
   39.5700   32.2980   36.7130 O   0  0  0  0  0  0  0  0  0  0  0  0
   38.8710   32.7260   36.1230 H   0  0  0  0  0  0  0  0  0  0  0  0
   37.3590   25.6020   41.2720 O   0  0  0  0  0  0  0  0  0  0  0  0
   37.1440   24.2700   41.1970 C   0  0  0  0  0  0  0  0  0  0  0  0
   36.0360   23.8720   40.7880 O   0  0  0  0  0  0  0  0  0  0  0  0
   38.0940   23.2690   41.5530 N   0  0  0  0  0  0  0  0  0  0  0  0
   38.5120   22.8870   42.4220 H   0  0  0  0  0  0  0  0  0  0  0  0
   38.5630   22.6960   40.7960 H   0  0  0  0  0  0  0  0  0  0  0  0
  1  5  1  0  0  0  0
  1  6  1  1  0  0  0
  2  7  1  6  0  0  0
  2  1  1  0  0  0  0
  2  3  1  0  0  0  0
  3  4  1  0  0  0  0
  3  9  1  0  0  0  0
  5  4  1  0  0  0  0
  5 10  1  0  0  0  0
  8  3  1  0  0  0  0
 11  5  1  0  0  0  0
 12  2  1  0  0  0  0
 14 13  2  6  0  0  0
 14 15  1  0  0  0  0
 14 12  1  0  0  0  0
 16 15  1  0  0  0  0
 17 14  1  0  0  0  0
 18 23  2  0  0  0  0
 18 19  1  0  0  0  0
 19 20  2  0  0  0  0
 20 21  1  0  0  0  0
 20 25  1  0  0  0  0
 22 17  1  0  0  0  0
 22 21  2  0  0  0  0
 23 22  1  0  0  0  0
 24 19  1  0  0  0  0
 26 18  1  0  0  0  0
 27 26  1  0  0  0  0
 28  1  1  0  0  0  0
 29 28  1  0  0  0  0
 29 31  1  0  0  0  0
 30 29  2  0  0  0  0
 31 32  1  0  0  0  0
 33 31  1  0  0  0  0
M  END
>  <minimizedAffinity>
-5.62000608

$$$$

 OpenBabel03252500263D

 33 34  0  0  1  0  0  0  0  0999 V2000
   38.5480   29.6850   42.2840 C   0  0  2  0  0  0  0  0  0  0  0  0
   39.3310   30.7640   41.6460 C   0  0  2  0  0  0  0  0  0  0  0  0
   40.6590   30.6690   42.3040 C   0  0  0  0  0  0  0  0  0  0  0  0
   40.8580   29.3470   42.6500 O   0  0  0  0  0  0  0  0  0  0  0  0
   39.7000   28.6670   42.4680 C   0  0  0  0  0  0  0  0  0  0  0  0
   38.1280   29.7010   43.2500 H   0  0  0  0  0  0  0  0  0  0  0  0
   39.4150   30.4490   40.5700 H   0  0  0  0  0  0  0  0  0  0  0  0
   41.4340   30.8400   41.4920 H   0  0  0  0  0  0  0  0  0  0  0  0
   40.9350   31.4210   43.0380 H   0  0  0  0  0  0  0  0  0  0  0  0
   39.5250   27.9650   43.2790 H   0  0  0  0  0  0  0  0  0  0  0  0
   39.7340   28.0310   41.5350 H   0  0  0  0  0  0  0  0  0  0  0  0
   38.7610   32.0120   41.7770 O   0  0  0  0  0  0  0  0  0  0  0  0
   38.9990   31.7360   39.2300 O   0  0  0  0  0  0  0  0  0  0  0  0
   38.6190   32.7370   40.2860 P   0  0  1  0  0  0  0  0  0  0  0  0
   37.0060   33.1990   40.0400 O   0  0  0  0  0  0  0  0  0  0  0  0
   36.8360   33.4420   39.1040 H   0  0  0  0  0  0  0  0  0  0  0  0
   39.6600   34.0820   40.1140 O   0  0  0  0  0  0  0  0  0  0  0  0
   42.4800   34.0000   37.9340 C   0  0  0  0  0  0  0  0  0  0  0  0
   43.5790   33.7160   38.7870 C   0  0  0  0  0  0  0  0  0  0  0  0
   43.2850   33.5560   40.1600 C   0  0  0  0  0  0  0  0  0  0  0  0
   42.0020   33.6800   40.5600 N   0  0  0  0  0  0  0  0  0  0  0  0
   40.9920   33.9510   39.7070 C   0  0  0  0  0  0  0  0  0  0  0  0
   41.2360   34.1100   38.3940 N   0  0  0  0  0  0  0  0  0  0  0  0
   44.5870   33.6270   38.4130 H   0  0  0  0  0  0  0  0  0  0  0  0
   44.0770   33.3390   40.8600 H   0  0  0  0  0  0  0  0  0  0  0  0
   42.7720   34.1520   36.6050 O   0  0  0  0  0  0  0  0  0  0  0  0
   42.6690   35.0690   36.1920 H   0  0  0  0  0  0  0  0  0  0  0  0
   37.5410   29.1650   41.4980 O   0  0  0  0  0  0  0  0  0  0  0  0
   36.2900   29.5920   41.2180 C   0  0  0  0  0  0  0  0  0  0  0  0
   35.4940   28.7880   40.6970 O   0  0  0  0  0  0  0  0  0  0  0  0
   35.8010   30.9060   41.4730 N   0  0  0  0  0  0  0  0  0  0  0  0
   35.9300   31.8580   41.0840 H   0  0  0  0  0  0  0  0  0  0  0  0
   35.1050   31.0660   42.2560 H   0  0  0  0  0  0  0  0  0  0  0  0
  1  5  1  0  0  0  0
  1  6  1  1  0  0  0
  2  7  1  6  0  0  0
  2 12  1  0  0  0  0
  2  1  1  0  0  0  0
  2  3  1  0  0  0  0
  3  4  1  0  0  0  0
  3  9  1  0  0  0  0
  5  4  1  0  0  0  0
  5 10  1  0  0  0  0
  8  3  1  0  0  0  0
 11  5  1  0  0  0  0
 14 13  2  6  0  0  0
 14 12  1  0  0  0  0
 15 14  1  0  0  0  0
 16 15  1  0  0  0  0
 17 14  1  0  0  0  0
 18 23  2  0  0  0  0
 18 19  1  0  0  0  0
 19 20  2  0  0  0  0
 20 21  1  0  0  0  0
 20 25  1  0  0  0  0
 22 17  1  0  0  0  0
 22 21  2  0  0  0  0
 23 22  1  0  0  0  0
 24 19  1  0  0  0  0
 26 18  1  0  0  0  0
 27 26  1  0  0  0  0
 28  1  1  0  0  0  0
 29 31  1  0  0  0  0
 29 28  1  0  0  0  0
 30 29  2  0  0  0  0
 31 33  1  0  0  0  0
 32 31  1  0  0  0  0
M  END
>  <minimizedAffinity>
-5.36705923

$$$$

 OpenBabel03252500263D

 33 34  0  0  1  0  0  0  0  0999 V2000
   37.5220   29.5930   38.7660 C   0  0  2  0  0  0  0  0  0  0  0  0
   38.1690   30.9100   38.9410 C   0  0  2  0  0  0  0  0  0  0  0  0
   38.3530   31.3980   37.5500 C   0  0  0  0  0  0  0  0  0  0  0  0
   37.3320   30.8690   36.7860 O   0  0  0  0  0  0  0  0  0  0  0  0
   36.6740   29.9370   37.5180 C   0  0  0  0  0  0  0  0  0  0  0  0
   37.9900   28.7000   38.4600 H   0  0  0  0  0  0  0  0  0  0  0  0
   37.3930   31.5340   39.4640 H   0  0  0  0  0  0  0  0  0  0  0  0
   38.1130   32.5070   37.5630 H   0  0  0  0  0  0  0  0  0  0  0  0
   39.3510   31.3900   37.1200 H   0  0  0  0  0  0  0  0  0  0  0  0
   36.4270   29.0670   36.9150 H   0  0  0  0  0  0  0  0  0  0  0  0
   35.6790   30.3270   37.8870 H   0  0  0  0  0  0  0  0  0  0  0  0
   39.3510   30.8560   39.6460 O   0  0  0  0  0  0  0  0  0  0  0  0
   40.4430   32.9870   40.5870 O   0  0  0  0  0  0  0  0  0  0  0  0
   39.3480   31.9940   40.8600 P   0  0  1  0  0  0  0  0  0  0  0  0
   37.8610   32.8100   40.8590 O   0  0  0  0  0  0  0  0  0  0  0  0
   37.8890   33.6170   41.4160 H   0  0  0  0  0  0  0  0  0  0  0  0
   39.6510   31.3070   42.3970 O   0  0  0  0  0  0  0  0  0  0  0  0
   37.7410   28.4060   43.1990 C   0  0  0  0  0  0  0  0  0  0  0  0
   38.6970   27.3590   43.2670 C   0  0  0  0  0  0  0  0  0  0  0  0
   40.0410   27.7180   43.0180 C   0  0  0  0  0  0  0  0  0  0  0  0
   40.3190   29.0090   42.7380 N   0  0  0  0  0  0  0  0  0  0  0  0
   39.3710   29.9670   42.6860 C   0  0  0  0  0  0  0  0  0  0  0  0
   38.0820   29.6610   42.9180 N   0  0  0  0  0  0  0  0  0  0  0  0
   38.4190   26.3420   43.4960 H   0  0  0  0  0  0  0  0  0  0  0  0
   40.8160   26.9680   43.0540 H   0  0  0  0  0  0  0  0  0  0  0  0
   36.4400   28.0520   43.4430 O   0  0  0  0  0  0  0  0  0  0  0  0
   35.7800   28.0910   42.6800 H   0  0  0  0  0  0  0  0  0  0  0  0
   36.7250   29.2000   39.8200 O   0  0  0  0  0  0  0  0  0  0  0  0
   35.6240   29.7430   40.3840 C   0  0  0  0  0  0  0  0  0  0  0  0
   34.5130   29.2550   40.1010 O   0  0  0  0  0  0  0  0  0  0  0  0
   35.6300   30.8450   41.2870 N   0  0  0  0  0  0  0  0  0  0  0  0
   35.7920   31.8690   41.2440 H   0  0  0  0  0  0  0  0  0  0  0  0
   35.4230   30.6850   42.3140 H   0  0  0  0  0  0  0  0  0  0  0  0
  1  6  1  6  0  0  0
  1  2  1  0  0  0  0
  1 28  1  0  0  0  0
  2  7  1  1  0  0  0
  2 12  1  0  0  0  0
  3  8  1  0  0  0  0
  3  2  1  0  0  0  0
  4  5  1  0  0  0  0
  4  3  1  0  0  0  0
  5 11  1  0  0  0  0
  5  1  1  0  0  0  0
  9  3  1  0  0  0  0
 10  5  1  0  0  0  0
 12 14  1  0  0  0  0
 14 13  2  6  0  0  0
 14 17  1  0  0  0  0
 15 14  1  0  0  0  0
 15 16  1  0  0  0  0
 17 22  1  0  0  0  0
 18 19  1  0  0  0  0
 18 26  1  0  0  0  0
 19 24  1  0  0  0  0
 20 25  1  0  0  0  0
 20 19  2  0  0  0  0
 21 20  1  0  0  0  0
 22 21  2  0  0  0  0
 22 23  1  0  0  0  0
 23 18  2  0  0  0  0
 27 26  1  0  0  0  0
 28 29  1  0  0  0  0
 29 31  1  0  0  0  0
 30 29  2  0  0  0  0
 31 33  1  0  0  0  0
 32 31  1  0  0  0  0
M  END
>  <minimizedAffinity>
-5.35035133

$$$$

 OpenBabel03252500263D

 33 34  0  0  1  0  0  0  0  0999 V2000
   37.0310   29.7250   41.6790 C   0  0  2  0  0  0  0  0  0  0  0  0
   38.2220   29.2420   42.4090 C   0  0  2  0  0  0  0  0  0  0  0  0
   37.6710   28.2430   43.3590 C   0  0  0  0  0  0  0  0  0  0  0  0
   36.5530   27.6840   42.7720 O   0  0  0  0  0  0  0  0  0  0  0  0
   36.2410   28.3930   41.6600 C   0  0  0  0  0  0  0  0  0  0  0  0
   36.3030   30.3930   42.0400 H   0  0  0  0  0  0  0  0  0  0  0  0
   38.8390   28.7230   41.6250 H   0  0  0  0  0  0  0  0  0  0  0  0
   38.4060   27.3790   43.3810 H   0  0  0  0  0  0  0  0  0  0  0  0
   37.6010   28.5030   44.4120 H   0  0  0  0  0  0  0  0  0  0  0  0
   35.1670   28.5350   41.5720 H   0  0  0  0  0  0  0  0  0  0  0  0
   36.5400   27.8420   40.7190 H   0  0  0  0  0  0  0  0  0  0  0  0
   38.9270   30.2440   43.0410 O   0  0  0  0  0  0  0  0  0  0  0  0
   41.4270   30.8310   42.8890 O   0  0  0  0  0  0  0  0  0  0  0  0
   40.1680   30.7750   42.0680 P   0  0  1  0  0  0  0  0  0  0  0  0
   40.3950   29.6730   40.7990 O   0  0  0  0  0  0  0  0  0  0  0  0
   41.2380   29.8360   40.3240 H   0  0  0  0  0  0  0  0  0  0  0  0
   39.8870   32.3460   41.4540 O   0  0  0  0  0  0  0  0  0  0  0  0
   40.6600   32.8240   38.0070 C   0  0  0  0  0  0  0  0  0  0  0  0
   41.7550   33.7280   38.0110 C   0  0  0  0  0  0  0  0  0  0  0  0
   42.2090   34.1610   39.2780 C   0  0  0  0  0  0  0  0  0  0  0  0
   41.5810   33.6940   40.3780 N   0  0  0  0  0  0  0  0  0  0  0  0
   40.5430   32.8340   40.3190 C   0  0  0  0  0  0  0  0  0  0  0  0
   40.0860   32.4010   39.1300 N   0  0  0  0  0  0  0  0  0  0  0  0
   42.2210   34.0700   37.0990 H   0  0  0  0  0  0  0  0  0  0  0  0
   43.0380   34.8480   39.3490 H   0  0  0  0  0  0  0  0  0  0  0  0
   40.2270   32.4080   36.7760 O   0  0  0  0  0  0  0  0  0  0  0  0
   39.3170   32.7100   36.4590 H   0  0  0  0  0  0  0  0  0  0  0  0
   37.2850   30.1750   40.4010 O   0  0  0  0  0  0  0  0  0  0  0  0
   36.9690   31.3210   39.7580 C   0  0  0  0  0  0  0  0  0  0  0  0
   36.6830   31.2600   38.5470 O   0  0  0  0  0  0  0  0  0  0  0  0
   36.9370   32.6120   40.3610 N   0  0  0  0  0  0  0  0  0  0  0  0
   37.6200   33.3070   40.7150 H   0  0  0  0  0  0  0  0  0  0  0  0
   36.0070   33.0850   40.5430 H   0  0  0  0  0  0  0  0  0  0  0  0
  1  6  1  1  0  0  0
  1  2  1  0  0  0  0
  2  7  1  6  0  0  0
  2 12  1  0  0  0  0
  2  3  1  0  0  0  0
  3  8  1  0  0  0  0
  3  9  1  0  0  0  0
  4  3  1  0  0  0  0
  5  1  1  0  0  0  0
  5  4  1  0  0  0  0
 10  5  1  0  0  0  0
 11  5  1  0  0  0  0
 14 13  2  1  0  0  0
 14 12  1  0  0  0  0
 15 14  1  0  0  0  0
 16 15  1  0  0  0  0
 17 14  1  0  0  0  0
 18 19  2  0  0  0  0
 18 23  1  0  0  0  0
 19 20  1  0  0  0  0
 20 25  1  0  0  0  0
 20 21  2  0  0  0  0
 22 21  1  0  0  0  0
 22 17  1  0  0  0  0
 23 22  2  0  0  0  0
 24 19  1  0  0  0  0
 26 18  1  0  0  0  0
 27 26  1  0  0  0  0
 28  1  1  0  0  0  0
 29 31  1  0  0  0  0
 29 28  1  0  0  0  0
 30 29  2  0  0  0  0
 31 33  1  0  0  0  0
 31 32  1  0  0  0  0
M  END
>  <minimizedAffinity>
-5.07930279

$$$$

 OpenBabel03252500263D

 33 34  0  0  1  0  0  0  0  0999 V2000
   38.5890   30.4720   38.3680 C   0  0  2  0  0  0  0  0  0  0  0  0
   38.6400   29.7260   39.6420 C   0  0  2  0  0  0  0  0  0  0  0  0
   39.7900   28.8040   39.4630 C   0  0  0  0  0  0  0  0  0  0  0  0
   40.6910   29.4220   38.6190 O   0  0  0  0  0  0  0  0  0  0  0  0
   40.1110   30.5290   38.0940 C   0  0  0  0  0  0  0  0  0  0  0  0
   38.2250   30.1150   37.4460 H   0  0  0  0  0  0  0  0  0  0  0  0
   38.8930   30.5060   40.4120 H   0  0  0  0  0  0  0  0  0  0  0  0
   40.3430   28.7810   40.4540 H   0  0  0  0  0  0  0  0  0  0  0  0
   39.5940   27.7490   39.2930 H   0  0  0  0  0  0  0  0  0  0  0  0
   40.3530   30.6360   37.0390 H   0  0  0  0  0  0  0  0  0  0  0  0
   40.5030   31.4720   38.5790 H   0  0  0  0  0  0  0  0  0  0  0  0
   37.4700   29.0640   39.9430 O   0  0  0  0  0  0  0  0  0  0  0  0
   37.9770   30.3720   42.0990 O   0  0  0  0  0  0  0  0  0  0  0  0
   36.9280   29.5120   41.4510 P   0  0  1  0  0  0  0  0  0  0  0  0
   35.5050   30.4190   41.2890 O   0  0  0  0  0  0  0  0  0  0  0  0
   35.2650   30.8710   42.1260 H   0  0  0  0  0  0  0  0  0  0  0  0
   36.6670   28.1660   42.4740 O   0  0  0  0  0  0  0  0  0  0  0  0
   38.3640   25.0320   42.5450 C   0  0  0  0  0  0  0  0  0  0  0  0
   39.5740   25.3000   43.2380 C   0  0  0  0  0  0  0  0  0  0  0  0
   39.7660   26.6290   43.6780 C   0  0  0  0  0  0  0  0  0  0  0  0
   38.8030   27.5370   43.4150 N   0  0  0  0  0  0  0  0  0  0  0  0
   37.6690   27.2310   42.7510 C   0  0  0  0  0  0  0  0  0  0  0  0
   37.4540   25.9750   42.3180 N   0  0  0  0  0  0  0  0  0  0  0  0
   40.3120   24.5330   43.4220 H   0  0  0  0  0  0  0  0  0  0  0  0
   40.6660   26.8970   44.2110 H   0  0  0  0  0  0  0  0  0  0  0  0
   38.1840   23.7420   42.1230 O   0  0  0  0  0  0  0  0  0  0  0  0
   38.1940   23.5550   41.1310 H   0  0  0  0  0  0  0  0  0  0  0  0
   38.0500   31.7370   38.4640 O   0  0  0  0  0  0  0  0  0  0  0  0
   38.0550   32.6580   39.4520 C   0  0  0  0  0  0  0  0  0  0  0  0
   39.0970   33.3140   39.6450 O   0  0  0  0  0  0  0  0  0  0  0  0
   36.9490   32.9450   40.3050 N   0  0  0  0  0  0  0  0  0  0  0  0
   36.4520   32.4870   41.0920 H   0  0  0  0  0  0  0  0  0  0  0  0
   36.4160   33.8530   40.1890 H   0  0  0  0  0  0  0  0  0  0  0  0
  1  6  1  6  0  0  0
  1 28  1  0  0  0  0
  1  2  1  0  0  0  0
  2 12  1  0  0  0  0
  2  7  1  1  0  0  0
  3  2  1  0  0  0  0
  3  8  1  0  0  0  0
  4  3  1  0  0  0  0
  5  1  1  0  0  0  0
  5 11  1  0  0  0  0
  5  4  1  0  0  0  0
  9  3  1  0  0  0  0
 10  5  1  0  0  0  0
 12 14  1  0  0  0  0
 14 13  2  1  0  0  0
 14 17  1  0  0  0  0
 15 14  1  0  0  0  0
 15 16  1  0  0  0  0
 17 22  1  0  0  0  0
 18 19  1  0  0  0  0
 19 24  1  0  0  0  0
 19 20  2  0  0  0  0
 20 25  1  0  0  0  0
 21 20  1  0  0  0  0
 22 21  2  0  0  0  0
 23 18  2  0  0  0  0
 23 22  1  0  0  0  0
 26 18  1  0  0  0  0
 27 26  1  0  0  0  0
 28 29  1  0  0  0  0
 29 30  2  0  0  0  0
 29 31  1  0  0  0  0
 31 32  1  0  0  0  0
 33 31  1  0  0  0  0
M  END
>  <minimizedAffinity>
-5.06304073

$$$$

 OpenBabel03252500263D

 33 34  0  0  1  0  0  0  0  0999 V2000
   40.6510   31.8460   38.0970 C   0  0  2  0  0  0  0  0  0  0  0  0
   39.6870   31.3290   39.0910 C   0  0  2  0  0  0  0  0  0  0  0  0
   39.9230   29.8630   39.0800 C   0  0  0  0  0  0  0  0  0  0  0  0
   41.2510   29.6580   38.7620 O   0  0  0  0  0  0  0  0  0  0  0  0
   41.7930   30.8350   38.3650 C   0  0  0  0  0  0  0  0  0  0  0  0
   40.5640   31.7870   37.0490 H   0  0  0  0  0  0  0  0  0  0  0  0
   40.0330   31.7640   40.0680 H   0  0  0  0  0  0  0  0  0  0  0  0
   39.8640   29.5180   40.1600 H   0  0  0  0  0  0  0  0  0  0  0  0
   39.1930   29.2180   38.5990 H   0  0  0  0  0  0  0  0  0  0  0  0
   42.4510   30.6970   37.5110 H   0  0  0  0  0  0  0  0  0  0  0  0
   42.4510   31.2810   39.1700 H   0  0  0  0  0  0  0  0  0  0  0  0
   38.3780   31.6580   38.8140 O   0  0  0  0  0  0  0  0  0  0  0  0
   38.7910   32.8220   41.0700 O   0  0  0  0  0  0  0  0  0  0  0  0
   37.6960   32.4410   40.1140 P   0  0  1  0  0  0  0  0  0  0  0  0
   36.9280   33.8540   39.5770 O   0  0  0  0  0  0  0  0  0  0  0  0
   36.6910   34.4450   40.3230 H   0  0  0  0  0  0  0  0  0  0  0  0
   36.5940   31.4490   40.9670 O   0  0  0  0  0  0  0  0  0  0  0  0
   37.2680   28.1270   42.0740 C   0  0  0  0  0  0  0  0  0  0  0  0
   36.8580   27.3030   40.9920 C   0  0  0  0  0  0  0  0  0  0  0  0
   36.3360   27.9660   39.8590 C   0  0  0  0  0  0  0  0  0  0  0  0
   36.2630   29.3140   39.8810 N   0  0  0  0  0  0  0  0  0  0  0  0
   36.6670   30.0520   40.9360 C   0  0  0  0  0  0  0  0  0  0  0  0
   37.1690   29.4530   42.0310 N   0  0  0  0  0  0  0  0  0  0  0  0
   36.9390   26.2280   41.0280 H   0  0  0  0  0  0  0  0  0  0  0  0
   36.0060   27.3960   39.0040 H   0  0  0  0  0  0  0  0  0  0  0  0
   37.7740   27.4780   43.1680 O   0  0  0  0  0  0  0  0  0  0  0  0
   37.2420   27.4960   44.0270 H   0  0  0  0  0  0  0  0  0  0  0  0
   41.0660   33.1410   38.3190 O   0  0  0  0  0  0  0  0  0  0  0  0
   42.2170   33.7910   38.0410 C   0  0  0  0  0  0  0  0  0  0  0  0
   42.9640   34.1040   38.9880 O   0  0  0  0  0  0  0  0  0  0  0  0
   42.6520   34.1540   36.7330 N   0  0  0  0  0  0  0  0  0  0  0  0
   42.3920   34.8460   36.0060 H   0  0  0  0  0  0  0  0  0  0  0  0
   43.4610   33.6370   36.2850 H   0  0  0  0  0  0  0  0  0  0  0  0
  1  6  1  6  0  0  0
  1 28  1  0  0  0  0
  1  5  1  0  0  0  0
  1  2  1  0  0  0  0
  2  7  1  1  0  0  0
  3  2  1  0  0  0  0
  3  8  1  0  0  0  0
  4  3  1  0  0  0  0
  5  4  1  0  0  0  0
  5 11  1  0  0  0  0
  9  3  1  0  0  0  0
 10  5  1  0  0  0  0
 12  2  1  0  0  0  0
 12 14  1  0  0  0  0
 14 17  1  0  0  0  0
 14 13  2  1  0  0  0
 15 14  1  0  0  0  0
 15 16  1  0  0  0  0
 18 26  1  0  0  0  0
 19 24  1  0  0  0  0
 19 18  2  0  0  0  0
 20 21  2  0  0  0  0
 20 19  1  0  0  0  0
 21 22  1  0  0  0  0
 22 17  1  0  0  0  0
 22 23  2  0  0  0  0
 23 18  1  0  0  0  0
 25 20  1  0  0  0  0
 26 27  1  0  0  0  0
 29 28  1  0  0  0  0
 29 30  2  0  0  0  0
 31 29  1  0  0  0  0
 32 31  1  0  0  0  0
 33 31  1  0  0  0  0
M  END
>  <minimizedAffinity>
-4.98795986

$$$$

 OpenBabel03252500263D

 33 34  0  0  1  0  0  0  0  0999 V2000
   39.8530   31.6690   38.3580 C   0  0  2  0  0  0  0  0  0  0  0  0
   40.9170   31.5290   39.3730 C   0  0  2  0  0  0  0  0  0  0  0  0
   42.1390   31.2750   38.5690 C   0  0  0  0  0  0  0  0  0  0  0  0
   41.9790   31.9170   37.3560 O   0  0  0  0  0  0  0  0  0  0  0  0
   40.6990   32.3510   37.2560 C   0  0  0  0  0  0  0  0  0  0  0  0
   39.3970   30.8880   37.8160 H   0  0  0  0  0  0  0  0  0  0  0  0
   40.9800   32.5450   39.8520 H   0  0  0  0  0  0  0  0  0  0  0  0
   42.9770   31.8630   39.0590 H   0  0  0  0  0  0  0  0  0  0  0  0
   42.5540   30.2710   38.5480 H   0  0  0  0  0  0  0  0  0  0  0  0
   40.3080   32.1910   36.2540 H   0  0  0  0  0  0  0  0  0  0  0  0
   40.6260   33.4670   37.4220 H   0  0  0  0  0  0  0  0  0  0  0  0
   40.6740   30.5360   40.2970 O   0  0  0  0  0  0  0  0  0  0  0  0
   41.8930   31.5200   42.3380 O   0  0  0  0  0  0  0  0  0  0  0  0
   40.5200   31.1930   41.8180 P   0  0  1  0  0  0  0  0  0  0  0  0
   39.6210   32.6270   41.7220 O   0  0  0  0  0  0  0  0  0  0  0  0
   39.6780   33.1490   42.5510 H   0  0  0  0  0  0  0  0  0  0  0  0
   39.7990   30.1080   42.9260 O   0  0  0  0  0  0  0  0  0  0  0  0
   36.5300   29.4370   41.6700 C   0  0  0  0  0  0  0  0  0  0  0  0
   36.3120   28.0650   41.9650 C   0  0  0  0  0  0  0  0  0  0  0  0
   37.3630   27.3890   42.6230 C   0  0  0  0  0  0  0  0  0  0  0  0
   38.4830   28.0790   42.9220 N   0  0  0  0  0  0  0  0  0  0  0  0
   38.6410   29.3850   42.6200 C   0  0  0  0  0  0  0  0  0  0  0  0
   37.6600   30.0600   41.9930 N   0  0  0  0  0  0  0  0  0  0  0  0
   35.3940   27.5620   41.7020 H   0  0  0  0  0  0  0  0  0  0  0  0
   37.2590   26.3440   42.8750 H   0  0  0  0  0  0  0  0  0  0  0  0
   35.5070   30.0880   41.0330 O   0  0  0  0  0  0  0  0  0  0  0  0
   35.6490   30.3890   40.0790 H   0  0  0  0  0  0  0  0  0  0  0  0
   38.7940   32.4640   38.7410 O   0  0  0  0  0  0  0  0  0  0  0  0
   37.5430   32.1770   39.1620 C   0  0  0  0  0  0  0  0  0  0  0  0
   36.8790   31.3410   38.5190 O   0  0  0  0  0  0  0  0  0  0  0  0
   36.9120   32.7610   40.2990 N   0  0  0  0  0  0  0  0  0  0  0  0
   36.5070   33.6790   40.5600 H   0  0  0  0  0  0  0  0  0  0  0  0
   36.7650   32.1830   41.1750 H   0  0  0  0  0  0  0  0  0  0  0  0
  1  6  1  6  0  0  0
  1 28  1  0  0  0  0
  1  2  1  0  0  0  0
  2  7  1  1  0  0  0
  2 12  1  0  0  0  0
  3  8  1  0  0  0  0
  3  2  1  0  0  0  0
  4  3  1  0  0  0  0
  5  4  1  0  0  0  0
  5 11  1  0  0  0  0
  5  1  1  0  0  0  0
  9  3  1  0  0  0  0
 10  5  1  0  0  0  0
 12 14  1  0  0  0  0
 14 13  2  1  0  0  0
 14 17  1  0  0  0  0
 15 14  1  0  0  0  0
 15 16  1  0  0  0  0
 18 19  2  0  0  0  0
 18 23  1  0  0  0  0
 19 20  1  0  0  0  0
 20 25  1  0  0  0  0
 20 21  2  0  0  0  0
 22 21  1  0  0  0  0
 22 17  1  0  0  0  0
 23 22  2  0  0  0  0
 24 19  1  0  0  0  0
 26 18  1  0  0  0  0
 27 26  1  0  0  0  0
 28 29  1  0  0  0  0
 29 31  1  0  0  0  0
 30 29  2  0  0  0  0
 31 32  1  0  0  0  0
 31 33  1  0  0  0  0
M  END
>  <minimizedAffinity>
-4.89961529

$$$$

 OpenBabel03252500263D

 33 34  0  0  1  0  0  0  0  0999 V2000
   36.2090   28.3340   41.1450 C   0  0  2  0  0  0  0  0  0  0  0  0
   37.0750   29.4980   41.4280 C   0  0  2  0  0  0  0  0  0  0  0  0
   37.4930   29.2890   42.8380 C   0  0  0  0  0  0  0  0  0  0  0  0
   37.5270   27.9270   43.0640 O   0  0  0  0  0  0  0  0  0  0  0  0
   36.9650   27.2930   42.0060 C   0  0  0  0  0  0  0  0  0  0  0  0
   35.2180   28.1950   41.4730 H   0  0  0  0  0  0  0  0  0  0  0  0
   37.9570   29.3620   40.7450 H   0  0  0  0  0  0  0  0  0  0  0  0
   38.5870   29.5850   42.8970 H   0  0  0  0  0  0  0  0  0  0  0  0
   37.0510   29.9090   43.6130 H   0  0  0  0  0  0  0  0  0  0  0  0
   36.3350   26.4690   42.3320 H   0  0  0  0  0  0  0  0  0  0  0  0
   37.7470   26.8160   41.3440 H   0  0  0  0  0  0  0  0  0  0  0  0
   36.4510   30.7110   41.2330 O   0  0  0  0  0  0  0  0  0  0  0  0
   36.6640   31.1770   38.7120 O   0  0  0  0  0  0  0  0  0  0  0  0
   37.2340   31.5740   40.0460 P   0  0  1  0  0  0  0  0  0  0  0  0
   36.9590   33.2300   40.2830 O   0  0  0  0  0  0  0  0  0  0  0  0
   37.2280   33.7590   39.5010 H   0  0  0  0  0  0  0  0  0  0  0  0
   38.9120   31.2460   40.0020 O   0  0  0  0  0  0  0  0  0  0  0  0
   41.2270   33.2440   38.1690 C   0  0  0  0  0  0  0  0  0  0  0  0
   41.7380   34.1610   39.1260 C   0  0  0  0  0  0  0  0  0  0  0  0
   41.2340   34.0450   40.4400 C   0  0  0  0  0  0  0  0  0  0  0  0
   40.3170   33.0880   40.6930 N   0  0  0  0  0  0  0  0  0  0  0  0
   39.8630   32.2400   39.7470 C   0  0  0  0  0  0  0  0  0  0  0  0
   40.3220   32.3220   38.4850 N   0  0  0  0  0  0  0  0  0  0  0  0
   42.4740   34.9080   38.8680 H   0  0  0  0  0  0  0  0  0  0  0  0
   41.5820   34.7130   41.2130 H   0  0  0  0  0  0  0  0  0  0  0  0
   41.7220   33.3600   36.8980 O   0  0  0  0  0  0  0  0  0  0  0  0
   41.1010   33.6780   36.1670 H   0  0  0  0  0  0  0  0  0  0  0  0
   36.1720   27.9550   39.8200 O   0  0  0  0  0  0  0  0  0  0  0  0
   35.2570   28.1400   38.8430 C   0  0  0  0  0  0  0  0  0  0  0  0
   35.2950   27.3920   37.8470 O   0  0  0  0  0  0  0  0  0  0  0  0
   34.2380   29.1360   38.8600 N   0  0  0  0  0  0  0  0  0  0  0  0
   34.1730   30.1650   38.7530 H   0  0  0  0  0  0  0  0  0  0  0  0
   33.2280   28.8540   39.0150 H   0  0  0  0  0  0  0  0  0  0  0  0
  1  2  1  0  0  0  0
  1  6  1  1  0  0  0
  1  5  1  0  0  0  0
  2  7  1  6  0  0  0
  2  3  1  0  0  0  0
  3  8  1  0  0  0  0
  3  4  1  0  0  0  0
  3  9  1  0  0  0  0
  5 10  1  0  0  0  0
  5  4  1  0  0  0  0
 11  5  1  0  0  0  0
 12  2  1  0  0  0  0
 14 13  2  6  0  0  0
 14 15  1  0  0  0  0
 14 12  1  0  0  0  0
 16 15  1  0  0  0  0
 17 14  1  0  0  0  0
 18 23  2  0  0  0  0
 18 19  1  0  0  0  0
 19 20  2  0  0  0  0
 20 21  1  0  0  0  0
 20 25  1  0  0  0  0
 22 17  1  0  0  0  0
 22 21  2  0  0  0  0
 23 22  1  0  0  0  0
 24 19  1  0  0  0  0
 26 18  1  0  0  0  0
 27 26  1  0  0  0  0
 28  1  1  0  0  0  0
 29 31  1  0  0  0  0
 29 28  1  0  0  0  0
 30 29  2  0  0  0  0
 31 33  1  0  0  0  0
 32 31  1  0  0  0  0
M  END
>  <minimizedAffinity>
-4.87064171

$$$$

 OpenBabel03252500263D

 33 34  0  0  1  0  0  0  0  0999 V2000
   37.3960   28.2890   39.7060 C   0  0  2  0  0  0  0  0  0  0  0  0
   36.7550   29.5930   39.4360 C   0  0  2  0  0  0  0  0  0  0  0  0
   35.8320   29.3040   38.3090 C   0  0  0  0  0  0  0  0  0  0  0  0
   35.4310   27.9880   38.4270 O   0  0  0  0  0  0  0  0  0  0  0  0
   36.1820   27.3850   39.3810 C   0  0  0  0  0  0  0  0  0  0  0  0
   38.1540   27.8330   39.1340 H   0  0  0  0  0  0  0  0  0  0  0  0
   36.1640   29.8110   40.3670 H   0  0  0  0  0  0  0  0  0  0  0  0
   34.8770   29.8810   38.5180 H   0  0  0  0  0  0  0  0  0  0  0  0
   36.0930   29.6560   37.3140 H   0  0  0  0  0  0  0  0  0  0  0  0
   36.4660   26.3800   39.0800 H   0  0  0  0  0  0  0  0  0  0  0  0
   35.6020   27.2480   40.3410 H   0  0  0  0  0  0  0  0  0  0  0  0
   37.6500   30.6000   39.1450 O   0  0  0  0  0  0  0  0  0  0  0  0
   36.9270   33.0690   39.1520 O   0  0  0  0  0  0  0  0  0  0  0  0
   37.3220   31.9440   40.0680 P   0  0  1  0  0  0  0  0  0  0  0  0
   36.0240   31.6080   41.1060 O   0  0  0  0  0  0  0  0  0  0  0  0
   35.6670   32.4240   41.5180 H   0  0  0  0  0  0  0  0  0  0  0  0
   38.6830   32.4670   40.9630 O   0  0  0  0  0  0  0  0  0  0  0  0
   41.1410   33.0070   38.4380 C   0  0  0  0  0  0  0  0  0  0  0  0
   42.3800   32.9360   39.1290 C   0  0  0  0  0  0  0  0  0  0  0  0
   42.3120   32.6900   40.5190 C   0  0  0  0  0  0  0  0  0  0  0  0
   41.0960   32.5420   41.0850 N   0  0  0  0  0  0  0  0  0  0  0  0
   39.9470   32.6190   40.3830 C   0  0  0  0  0  0  0  0  0  0  0  0
   39.9750   32.8510   39.0580 N   0  0  0  0  0  0  0  0  0  0  0  0
   43.3260   33.0620   38.6250 H   0  0  0  0  0  0  0  0  0  0  0  0
   43.2190   32.6240   41.1010 H   0  0  0  0  0  0  0  0  0  0  0  0
   41.2150   33.2440   37.0910 O   0  0  0  0  0  0  0  0  0  0  0  0
   40.8760   34.1290   36.7400 H   0  0  0  0  0  0  0  0  0  0  0  0
   37.8170   28.1150   41.0060 O   0  0  0  0  0  0  0  0  0  0  0  0
   37.3400   28.5630   42.1880 C   0  0  0  0  0  0  0  0  0  0  0  0
   37.8440   29.5920   42.6780 O   0  0  0  0  0  0  0  0  0  0  0  0
   36.2910   27.9460   42.9300 N   0  0  0  0  0  0  0  0  0  0  0  0
   36.1600   27.0910   43.5010 H   0  0  0  0  0  0  0  0  0  0  0  0
   35.3390   28.4080   42.9790 H   0  0  0  0  0  0  0  0  0  0  0  0
  1  6  1  6  0  0  0
  1 28  1  0  0  0  0
  2  1  1  0  0  0  0
  2  7  1  1  0  0  0
  3  4  1  0  0  0  0
  3  8  1  0  0  0  0
  3  2  1  0  0  0  0
  4  5  1  0  0  0  0
  5  1  1  0  0  0  0
  5 11  1  0  0  0  0
  9  3  1  0  0  0  0
 10  5  1  0  0  0  0
 12  2  1  0  0  0  0
 12 14  1  0  0  0  0
 14 13  2  6  0  0  0
 14 17  1  0  0  0  0
 14 15  1  0  0  0  0
 15 16  1  0  0  0  0
 18 23  2  0  0  0  0
 18 19  1  0  0  0  0
 19 20  2  0  0  0  0
 20 21  1  0  0  0  0
 20 25  1  0  0  0  0
 22 17  1  0  0  0  0
 22 21  2  0  0  0  0
 23 22  1  0  0  0  0
 24 19  1  0  0  0  0
 26 18  1  0  0  0  0
 27 26  1  0  0  0  0
 28 29  1  0  0  0  0
 29 30  2  0  0  0  0
 29 31  1  0  0  0  0
 31 33  1  0  0  0  0
 31 32  1  0  0  0  0
M  END
>  <minimizedAffinity>
-4.82330513

$$$$
