
 OpenBabel03242523563D

 41 43  0  0  1  0  0  0  0  0999 V2000
   37.0790   30.4120   41.7810 C   0  0  1  0  0  0  0  0  0  0  0  0
   37.1840   28.9310   41.4540 C   0  0  1  0  0  0  0  0  0  0  0  0
   37.5410   28.8040   40.0970 O   0  0  0  0  0  0  0  0  0  0  0  0
   36.9570   29.7900   39.2910 C   0  0  0  0  0  0  0  0  0  0  0  0
   37.5420   31.1580   39.5680 C   0  0  2  0  0  0  0  0  0  0  0  0
   38.1610   31.0830   41.0010 C   0  0  1  0  0  0  0  0  0  0  0  0
   37.2010   30.5530   42.8750 H   0  0  0  0  0  0  0  0  0  0  0  0
   36.2550   28.3760   41.6650 H   0  0  0  0  0  0  0  0  0  0  0  0
   35.8570   29.7770   39.3560 H   0  0  0  0  0  0  0  0  0  0  0  0
   37.2270   29.5240   38.2650 H   0  0  0  0  0  0  0  0  0  0  0  0
   38.3260   31.4450   38.8460 H   0  0  0  0  0  0  0  0  0  0  0  0
   38.9910   30.3540   40.7190 H   0  0  0  0  0  0  0  0  0  0  0  0
   35.8170   30.9160   41.4210 O   0  0  0  0  0  0  0  0  0  0  0  0
   35.1340   30.2110   41.6300 H   0  0  0  0  0  0  0  0  0  0  0  0
   36.5270   32.0960   39.6640 O   0  0  0  0  0  0  0  0  0  0  0  0
   36.8060   32.9360   40.0790 H   0  0  0  0  0  0  0  0  0  0  0  0
   38.3150   28.4750   42.1480 O   0  0  0  0  0  0  0  0  0  0  0  0
   38.6020   27.1920   42.3870 C   0  0  0  0  0  0  0  0  0  0  0  0
   37.8450   26.1650   41.8190 C   0  0  0  0  0  0  0  0  0  0  0  0
   38.1750   24.8500   42.0890 C   0  0  0  0  0  0  0  0  0  0  0  0
   39.2530   24.5890   42.9200 N   0  0  0  0  0  0  0  0  0  0  0  0
   39.9650   25.6060   43.4550 C   0  0  0  0  0  0  0  0  0  0  0  0
   39.6400   26.8970   43.1890 N   0  0  0  0  0  0  0  0  0  0  0  0
   37.0190   26.3970   41.1820 H   0  0  0  0  0  0  0  0  0  0  0  0
   40.7980   25.3990   44.0980 H   0  0  0  0  0  0  0  0  0  0  0  0
   37.3940   23.7020   41.5300 C   0  0  0  0  0  0  0  0  0  0  0  0
   36.8640   23.8620   40.1070 C   0  0  0  0  0  0  0  0  0  0  0  0
   37.9510   22.8510   40.5270 C   0  0  0  0  0  0  0  0  0  0  0  0
   36.6550   23.3080   42.2750 H   0  0  0  0  0  0  0  0  0  0  0  0
   35.8900   23.4000   39.9280 H   0  0  0  0  0  0  0  0  0  0  0  0
   37.1690   24.7900   39.6050 H   0  0  0  0  0  0  0  0  0  0  0  0
   37.7210   21.7860   40.4200 H   0  0  0  0  0  0  0  0  0  0  0  0
   38.9450   23.1110   40.0880 H   0  0  0  0  0  0  0  0  0  0  0  0
   38.5000   32.3360   41.3680 O   0  0  0  0  0  0  0  0  0  0  0  0
   39.3210   33.2320   40.8250 C   0  0  0  0  0  0  0  0  0  0  0  0
   38.8990   34.1600   39.9720 O   0  0  0  0  0  0  0  0  0  0  0  0
   42.7930   33.4060   40.2460 H   0  0  0  0  0  0  0  0  0  0  0  0
   41.7650   33.1610   40.0200 C   0  0  0  0  0  0  0  0  0  0  0  0
   41.4180   32.5950   38.9550 O   0  0  0  0  0  0  0  0  0  0  0  0
   40.7570   33.4850   40.9540 N   0  0  0  0  0  0  0  0  0  0  0  0
   41.0840   33.9490   41.8160 H   0  0  0  0  0  0  0  0  0  0  0  0
  1  7  1  1  0  0  0
  2  8  1  1  0  0  0
  2  1  1  0  0  0  0
  2 17  1  0  0  0  0
  3  2  1  0  0  0  0
  4  9  1  0  0  0  0
  4  5  1  0  0  0  0
  4  3  1  0  0  0  0
  5 11  1  6  0  0  0
  5 15  1  0  0  0  0
  5  6  1  0  0  0  0
  6 12  1  6  0  0  0
  6 34  1  0  0  0  0
  6  1  1  0  0  0  0
 10  4  1  0  0  0  0
 13 14  1  0  0  0  0
 13  1  1  0  0  0  0
 15 16  1  0  0  0  0
 17 18  1  0  0  0  0
 18 23  1  0  0  0  0
 19 20  1  0  0  0  0
 19 18  2  0  0  0  0
 20 21  2  0  0  0  0
 21 22  1  0  0  0  0
 22 25  1  0  0  0  0
 23 22  2  0  0  0  0
 24 19  1  0  0  0  0
 26 20  1  0  0  0  0
 26 29  1  0  0  0  0
 27 28  1  0  0  0  0
 27 26  1  0  0  0  0
 28 26  1  0  0  0  0
 30 27  1  0  0  0  0
 31 27  1  0  0  0  0
 32 28  1  0  0  0  0
 33 28  1  0  0  0  0
 35 40  1  0  0  0  0
 35 34  1  0  0  0  0
 36 35  2  0  0  0  0
 38 37  1  0  0  0  0
 38 40  1  0  0  0  0
 39 38  2  0  0  0  0
 40 41  1  0  0  0  0
M  END
>  <minimizedAffinity>
-5.79090691

$$$$

 OpenBabel03242523563D

 41 43  0  0  1  0  0  0  0  0999 V2000
   36.4500   29.7900   40.2260 C   0  0  1  0  0  0  0  0  0  0  0  0
   36.3600   29.3980   38.7600 C   0  0  1  0  0  0  0  0  0  0  0  0
   37.1050   30.3260   38.0080 O   0  0  0  0  0  0  0  0  0  0  0  0
   37.0240   31.6270   38.5230 C   0  0  0  0  0  0  0  0  0  0  0  0
   37.7460   31.7510   39.8480 C   0  0  2  0  0  0  0  0  0  0  0  0
   37.8380   30.3030   40.4290 C   0  0  1  0  0  0  0  0  0  0  0  0
   36.2360   28.9010   40.8550 H   0  0  0  0  0  0  0  0  0  0  0  0
   35.3220   29.3440   38.3920 H   0  0  0  0  0  0  0  0  0  0  0  0
   35.9830   31.9860   38.5720 H   0  0  0  0  0  0  0  0  0  0  0  0
   37.5530   32.2580   37.8050 H   0  0  0  0  0  0  0  0  0  0  0  0
   38.7630   32.1690   39.7450 H   0  0  0  0  0  0  0  0  0  0  0  0
   38.5520   29.9140   39.6300 H   0  0  0  0  0  0  0  0  0  0  0  0
   35.5020   30.7780   40.5400 O   0  0  0  0  0  0  0  0  0  0  0  0
   34.6610   30.5690   40.0310 H   0  0  0  0  0  0  0  0  0  0  0  0
   36.9630   32.4520   40.7500 O   0  0  0  0  0  0  0  0  0  0  0  0
   37.2530   32.3570   41.6790 H   0  0  0  0  0  0  0  0  0  0  0  0
   37.0890   28.2050   38.6470 O   0  0  0  0  0  0  0  0  0  0  0  0
   36.5540   26.9810   38.5930 C   0  0  0  0  0  0  0  0  0  0  0  0
   36.8810   26.0070   39.5400 C   0  0  0  0  0  0  0  0  0  0  0  0
   36.3050   24.7540   39.4510 C   0  0  0  0  0  0  0  0  0  0  0  0
   35.4160   24.4990   38.4190 N   0  0  0  0  0  0  0  0  0  0  0  0
   35.1210   25.4620   37.5190 C   0  0  0  0  0  0  0  0  0  0  0  0
   35.6870   26.6940   37.6070 N   0  0  0  0  0  0  0  0  0  0  0  0
   37.5710   26.2340   40.3250 H   0  0  0  0  0  0  0  0  0  0  0  0
   34.4320   25.2610   36.7210 H   0  0  0  0  0  0  0  0  0  0  0  0
   36.6270   23.6600   40.4200 C   0  0  0  0  0  0  0  0  0  0  0  0
   38.0340   23.0730   40.3480 C   0  0  0  0  0  0  0  0  0  0  0  0
   37.4880   23.8920   41.5350 C   0  0  0  0  0  0  0  0  0  0  0  0
   35.7970   22.9080   40.4800 H   0  0  0  0  0  0  0  0  0  0  0  0
   38.0930   22.0010   40.5540 H   0  0  0  0  0  0  0  0  0  0  0  0
   38.7010   23.5650   39.6270 H   0  0  0  0  0  0  0  0  0  0  0  0
   37.4000   23.3870   42.5030 H   0  0  0  0  0  0  0  0  0  0  0  0
   38.0030   24.8800   41.6240 H   0  0  0  0  0  0  0  0  0  0  0  0
   38.2820   30.3990   41.6990 O   0  0  0  0  0  0  0  0  0  0  0  0
   38.3050   29.5250   42.7030 C   0  0  0  0  0  0  0  0  0  0  0  0
   39.3910   28.8250   43.0130 O   0  0  0  0  0  0  0  0  0  0  0  0
   35.8690   27.6870   44.4660 H   0  0  0  0  0  0  0  0  0  0  0  0
   36.5840   27.8780   43.6790 C   0  0  0  0  0  0  0  0  0  0  0  0
   36.8100   27.0630   42.7520 O   0  0  0  0  0  0  0  0  0  0  0  0
   37.3030   29.0930   43.6800 N   0  0  0  0  0  0  0  0  0  0  0  0
   37.0880   29.7350   44.4580 H   0  0  0  0  0  0  0  0  0  0  0  0
  1  6  1  0  0  0  0
  1 13  1  0  0  0  0
  1  7  1  1  0  0  0
  2  8  1  6  0  0  0
  2  1  1  0  0  0  0
  3  4  1  0  0  0  0
  3  2  1  0  0  0  0
  4  9  1  0  0  0  0
  4  5  1  0  0  0  0
  5 11  1  6  0  0  0
  5  6  1  0  0  0  0
  5 15  1  0  0  0  0
  6 12  1  6  0  0  0
  6 34  1  0  0  0  0
 10  4  1  0  0  0  0
 14 13  1  0  0  0  0
 15 16  1  0  0  0  0
 17  2  1  0  0  0  0
 18 17  1  0  0  0  0
 18 19  1  0  0  0  0
 19 24  1  0  0  0  0
 20 19  2  0  0  0  0
 20 26  1  0  0  0  0
 21 20  1  0  0  0  0
 22 23  1  0  0  0  0
 22 21  2  0  0  0  0
 23 18  2  0  0  0  0
 25 22  1  0  0  0  0
 26 29  1  0  0  0  0
 26 28  1  0  0  0  0
 27 26  1  0  0  0  0
 27 30  1  0  0  0  0
 27 28  1  0  0  0  0
 28 33  1  0  0  0  0
 28 32  1  0  0  0  0
 31 27  1  0  0  0  0
 34 35  1  0  0  0  0
 35 36  2  0  0  0  0
 35 40  1  0  0  0  0
 38 40  1  0  0  0  0
 38 37  1  0  0  0  0
 39 38  2  0  0  0  0
 40 41  1  0  0  0  0
M  END
>  <minimizedAffinity>
-5.71423483

$$$$

 OpenBabel03242523563D

 41 43  0  0  1  0  0  0  0  0999 V2000
   37.2060   31.4600   40.2290 C   0  0  1  0  0  0  0  0  0  0  0  0
   37.3240   31.3470   38.7170 C   0  0  1  0  0  0  0  0  0  0  0  0
   38.6090   31.7820   38.3410 O   0  0  0  0  0  0  0  0  0  0  0  0
   39.0710   32.8450   39.1300 C   0  0  0  0  0  0  0  0  0  0  0  0
   39.3690   32.4020   40.5460 C   0  0  2  0  0  0  0  0  0  0  0  0
   38.5470   31.0930   40.7730 C   0  0  1  0  0  0  0  0  0  0  0  0
   36.4070   30.7770   40.5840 H   0  0  0  0  0  0  0  0  0  0  0  0
   36.5470   31.9180   38.1810 H   0  0  0  0  0  0  0  0  0  0  0  0
   38.3920   33.7120   39.0900 H   0  0  0  0  0  0  0  0  0  0  0  0
   40.0190   33.1510   38.6790 H   0  0  0  0  0  0  0  0  0  0  0  0
   40.4400   32.1940   40.7150 H   0  0  0  0  0  0  0  0  0  0  0  0
   39.1440   30.4630   40.0340 H   0  0  0  0  0  0  0  0  0  0  0  0
   36.8540   32.7670   40.6080 O   0  0  0  0  0  0  0  0  0  0  0  0
   36.1980   33.1160   39.9320 H   0  0  0  0  0  0  0  0  0  0  0  0
   38.8480   33.3150   41.4480 O   0  0  0  0  0  0  0  0  0  0  0  0
   38.7870   32.9750   42.3620 H   0  0  0  0  0  0  0  0  0  0  0  0
   37.3370   29.9710   38.4460 O   0  0  0  0  0  0  0  0  0  0  0  0
   36.7560   29.3910   37.3910 C   0  0  0  0  0  0  0  0  0  0  0  0
   35.3660   29.2740   37.3070 C   0  0  0  0  0  0  0  0  0  0  0  0
   34.8020   28.6700   36.1990 C   0  0  0  0  0  0  0  0  0  0  0  0
   35.6370   28.1950   35.2000 N   0  0  0  0  0  0  0  0  0  0  0  0
   36.9780   28.3230   35.3120 C   0  0  0  0  0  0  0  0  0  0  0  0
   37.5310   28.9170   36.4010 N   0  0  0  0  0  0  0  0  0  0  0  0
   34.7480   29.6500   38.0940 H   0  0  0  0  0  0  0  0  0  0  0  0
   37.6210   27.9530   34.5370 H   0  0  0  0  0  0  0  0  0  0  0  0
   33.3240   28.4940   36.0540 C   0  0  0  0  0  0  0  0  0  0  0  0
   32.4430   29.2570   37.0410 C   0  0  0  0  0  0  0  0  0  0  0  0
   32.5050   29.5390   35.5250 C   0  0  0  0  0  0  0  0  0  0  0  0
   33.0510   27.4170   35.9040 H   0  0  0  0  0  0  0  0  0  0  0  0
   31.5350   28.7300   37.3440 H   0  0  0  0  0  0  0  0  0  0  0  0
   32.9880   29.9200   37.7260 H   0  0  0  0  0  0  0  0  0  0  0  0
   31.5940   29.3770   34.9410 H   0  0  0  0  0  0  0  0  0  0  0  0
   32.9690   30.5330   35.3110 H   0  0  0  0  0  0  0  0  0  0  0  0
   38.6180   30.7870   42.0850 O   0  0  0  0  0  0  0  0  0  0  0  0
   38.4110   29.6510   42.7480 C   0  0  0  0  0  0  0  0  0  0  0  0
   39.3990   28.8230   43.0690 O   0  0  0  0  0  0  0  0  0  0  0  0
   35.6460   27.5220   43.2460 H   0  0  0  0  0  0  0  0  0  0  0  0
   36.5260   27.8970   42.7440 C   0  0  0  0  0  0  0  0  0  0  0  0
   36.9780   27.3880   41.6890 O   0  0  0  0  0  0  0  0  0  0  0  0
   37.2100   29.0080   43.2850 N   0  0  0  0  0  0  0  0  0  0  0  0
   36.8070   29.3970   44.1520 H   0  0  0  0  0  0  0  0  0  0  0  0
  1  7  1  1  0  0  0
  1 13  1  0  0  0  0
  1  6  1  0  0  0  0
  2  8  1  6  0  0  0
  2  1  1  0  0  0  0
  3  2  1  0  0  0  0
  3  4  1  0  0  0  0
  4  5  1  0  0  0  0
  5 11  1  1  0  0  0
  5  6  1  0  0  0  0
  5 15  1  0  0  0  0
  6 12  1  6  0  0  0
  6 34  1  0  0  0  0
  9  4  1  0  0  0  0
 10  4  1  0  0  0  0
 14 13  1  0  0  0  0
 15 16  1  0  0  0  0
 17  2  1  0  0  0  0
 18 17  1  0  0  0  0
 19 18  1  0  0  0  0
 19 24  1  0  0  0  0
 20 19  2  0  0  0  0
 21 22  2  0  0  0  0
 21 20  1  0  0  0  0
 22 23  1  0  0  0  0
 23 18  2  0  0  0  0
 25 22  1  0  0  0  0
 26 20  1  0  0  0  0
 26 27  1  0  0  0  0
 27 30  1  0  0  0  0
 27 31  1  0  0  0  0
 28 26  1  0  0  0  0
 28 27  1  0  0  0  0
 29 26  1  0  0  0  0
 32 28  1  0  0  0  0
 33 28  1  0  0  0  0
 34 35  1  0  0  0  0
 35 36  2  0  0  0  0
 35 40  1  0  0  0  0
 38 37  1  0  0  0  0
 38 40  1  0  0  0  0
 39 38  2  0  0  0  0
 40 41  1  0  0  0  0
M  END
>  <minimizedAffinity>
-5.65639734

$$$$

 OpenBabel03242523563D

 41 43  0  0  1  0  0  0  0  0999 V2000
   40.0090   31.5650   37.8990 C   0  0  1  0  0  0  0  0  0  0  0  0
   40.5590   30.1710   37.6380 C   0  0  1  0  0  0  0  0  0  0  0  0
   41.9610   30.2600   37.5470 O   0  0  0  0  0  0  0  0  0  0  0  0
   42.3890   31.4460   36.9350 C   0  0  0  0  0  0  0  0  0  0  0  0
   42.1250   32.6540   37.8080 C   0  0  2  0  0  0  0  0  0  0  0  0
   40.9940   32.2320   38.8020 C   0  0  1  0  0  0  0  0  0  0  0  0
   39.0050   31.4790   38.3640 H   0  0  0  0  0  0  0  0  0  0  0  0
   40.1390   29.7070   36.7300 H   0  0  0  0  0  0  0  0  0  0  0  0
   41.9740   31.5580   35.9200 H   0  0  0  0  0  0  0  0  0  0  0  0
   43.4730   31.3480   36.8360 H   0  0  0  0  0  0  0  0  0  0  0  0
   43.0130   32.9730   38.3810 H   0  0  0  0  0  0  0  0  0  0  0  0
   41.6300   31.4720   39.3670 H   0  0  0  0  0  0  0  0  0  0  0  0
   39.8680   32.2810   36.6980 O   0  0  0  0  0  0  0  0  0  0  0  0
   39.5510   31.6390   35.9930 H   0  0  0  0  0  0  0  0  0  0  0  0
   41.5750   33.6750   37.0510 O   0  0  0  0  0  0  0  0  0  0  0  0
   41.1590   34.3800   37.5850 H   0  0  0  0  0  0  0  0  0  0  0  0
   40.3390   29.4560   38.8230 O   0  0  0  0  0  0  0  0  0  0  0  0
   39.1370   29.1530   39.3250 C   0  0  0  0  0  0  0  0  0  0  0  0
   38.9130   29.1420   40.7040 C   0  0  0  0  0  0  0  0  0  0  0  0
   37.6560   28.8260   41.1840 C   0  0  0  0  0  0  0  0  0  0  0  0
   36.6500   28.5280   40.2780 N   0  0  0  0  0  0  0  0  0  0  0  0
   36.9000   28.5470   38.9500 C   0  0  0  0  0  0  0  0  0  0  0  0
   38.1350   28.8570   38.4790 N   0  0  0  0  0  0  0  0  0  0  0  0
   39.7090   29.3760   41.3780 H   0  0  0  0  0  0  0  0  0  0  0  0
   36.1190   28.3150   38.2520 H   0  0  0  0  0  0  0  0  0  0  0  0
   37.3520   28.7760   42.6480 C   0  0  0  0  0  0  0  0  0  0  0  0
   36.6810   27.5050   43.1660 C   0  0  0  0  0  0  0  0  0  0  0  0
   38.1130   27.9490   43.5310 C   0  0  0  0  0  0  0  0  0  0  0  0
   36.8990   29.7360   43.0070 H   0  0  0  0  0  0  0  0  0  0  0  0
   35.9610   27.6660   43.9730 H   0  0  0  0  0  0  0  0  0  0  0  0
   36.5470   26.7170   42.4130 H   0  0  0  0  0  0  0  0  0  0  0  0
   38.3190   28.1870   44.5790 H   0  0  0  0  0  0  0  0  0  0  0  0
   38.8790   27.2600   43.1000 H   0  0  0  0  0  0  0  0  0  0  0  0
   40.5840   33.3400   39.4520 O   0  0  0  0  0  0  0  0  0  0  0  0
   39.4340   33.6520   40.0440 C   0  0  0  0  0  0  0  0  0  0  0  0
   39.2550   33.5370   41.3560 O   0  0  0  0  0  0  0  0  0  0  0  0
   36.0830   33.9350   38.9920 H   0  0  0  0  0  0  0  0  0  0  0  0
   36.9590   33.4310   39.3720 C   0  0  0  0  0  0  0  0  0  0  0  0
   36.9680   32.2110   39.6700 O   0  0  0  0  0  0  0  0  0  0  0  0
   38.1550   34.1610   39.5470 N   0  0  0  0  0  0  0  0  0  0  0  0
   38.1060   35.1600   39.2910 H   0  0  0  0  0  0  0  0  0  0  0  0
  1  7  1  1  0  0  0
  1  6  1  0  0  0  0
  2  8  1  6  0  0  0
  2  1  1  0  0  0  0
  2 17  1  0  0  0  0
  3  2  1  0  0  0  0
  4  3  1  0  0  0  0
  4  5  1  0  0  0  0
  5 11  1  1  0  0  0
  5  6  1  0  0  0  0
  6 12  1  1  0  0  0
  6 34  1  0  0  0  0
  9  4  1  0  0  0  0
 10  4  1  0  0  0  0
 13  1  1  0  0  0  0
 14 13  1  0  0  0  0
 15 16  1  0  0  0  0
 15  5  1  0  0  0  0
 17 18  1  0  0  0  0
 18 19  1  0  0  0  0
 19 20  2  0  0  0  0
 19 24  1  0  0  0  0
 20 26  1  0  0  0  0
 21 20  1  0  0  0  0
 22 21  2  0  0  0  0
 23 22  1  0  0  0  0
 23 18  2  0  0  0  0
 25 22  1  0  0  0  0
 26 29  1  0  0  0  0
 26 27  1  0  0  0  0
 26 28  1  0  0  0  0
 27 28  1  0  0  0  0
 27 30  1  0  0  0  0
 28 32  1  0  0  0  0
 31 27  1  0  0  0  0
 33 28  1  0  0  0  0
 34 35  1  0  0  0  0
 35 36  2  0  0  0  0
 37 38  1  0  0  0  0
 38 40  1  0  0  0  0
 38 39  2  0  0  0  0
 40 35  1  0  0  0  0
 41 40  1  0  0  0  0
M  END
>  <minimizedAffinity>
-5.65576553

$$$$

 OpenBabel03242523563D

 41 43  0  0  1  0  0  0  0  0999 V2000
   39.5870   31.7930   39.2540 C   0  0  1  0  0  0  0  0  0  0  0  0
   38.5640   31.2340   40.2300 C   0  0  1  0  0  0  0  0  0  0  0  0
   37.5480   30.5990   39.4900 O   0  0  0  0  0  0  0  0  0  0  0  0
   37.2680   31.2570   38.2840 C   0  0  0  0  0  0  0  0  0  0  0  0
   38.4080   31.1250   37.2970 C   0  0  2  0  0  0  0  0  0  0  0  0
   39.6800   30.7990   38.1440 C   0  0  1  0  0  0  0  0  0  0  0  0
   40.5550   31.9280   39.7790 H   0  0  0  0  0  0  0  0  0  0  0  0
   38.1370   32.0050   40.8940 H   0  0  0  0  0  0  0  0  0  0  0  0
   36.9670   32.3040   38.4470 H   0  0  0  0  0  0  0  0  0  0  0  0
   36.4090   30.7320   37.8600 H   0  0  0  0  0  0  0  0  0  0  0  0
   38.2450   30.3200   36.5580 H   0  0  0  0  0  0  0  0  0  0  0  0
   39.3260   29.7660   38.4720 H   0  0  0  0  0  0  0  0  0  0  0  0
   39.1820   33.0480   38.7670 O   0  0  0  0  0  0  0  0  0  0  0  0
   38.7490   33.5460   39.5250 H   0  0  0  0  0  0  0  0  0  0  0  0
   38.6710   32.3510   36.7100 O   0  0  0  0  0  0  0  0  0  0  0  0
   39.5360   32.3930   36.2570 H   0  0  0  0  0  0  0  0  0  0  0  0
   39.2140   30.1810   40.8890 O   0  0  0  0  0  0  0  0  0  0  0  0
   38.6010   29.2000   41.5590 C   0  0  0  0  0  0  0  0  0  0  0  0
   38.6080   27.8860   41.0810 C   0  0  0  0  0  0  0  0  0  0  0  0
   37.9650   26.8990   41.8020 C   0  0  0  0  0  0  0  0  0  0  0  0
   37.3280   27.2430   42.9840 N   0  0  0  0  0  0  0  0  0  0  0  0
   37.3380   28.5220   43.4190 C   0  0  0  0  0  0  0  0  0  0  0  0
   37.9710   29.4920   42.7090 N   0  0  0  0  0  0  0  0  0  0  0  0
   39.1090   27.6520   40.1650 H   0  0  0  0  0  0  0  0  0  0  0  0
   36.8430   28.7840   44.3330 H   0  0  0  0  0  0  0  0  0  0  0  0
   37.9170   25.4770   41.3380 C   0  0  0  0  0  0  0  0  0  0  0  0
   37.0170   24.5290   42.1270 C   0  0  0  0  0  0  0  0  0  0  0  0
   36.7680   24.9590   40.6670 C   0  0  0  0  0  0  0  0  0  0  0  0
   38.9420   25.0850   41.1110 H   0  0  0  0  0  0  0  0  0  0  0  0
   37.3970   23.5080   42.2170 H   0  0  0  0  0  0  0  0  0  0  0  0
   36.4350   25.0070   42.9270 H   0  0  0  0  0  0  0  0  0  0  0  0
   36.7970   24.1820   39.8960 H   0  0  0  0  0  0  0  0  0  0  0  0
   35.8580   25.6030   40.5780 H   0  0  0  0  0  0  0  0  0  0  0  0
   40.7500   30.8840   37.3260 O   0  0  0  0  0  0  0  0  0  0  0  0
   41.8490   31.6340   37.3720 C   0  0  0  0  0  0  0  0  0  0  0  0
   42.9640   31.2260   37.9690 O   0  0  0  0  0  0  0  0  0  0  0  0
   42.5320   35.0790   37.0880 H   0  0  0  0  0  0  0  0  0  0  0  0
   42.2800   34.1610   37.5990 C   0  0  0  0  0  0  0  0  0  0  0  0
   42.0730   34.1050   38.8350 O   0  0  0  0  0  0  0  0  0  0  0  0
   42.1780   32.9640   36.8570 N   0  0  0  0  0  0  0  0  0  0  0  0
   42.3550   33.0530   35.8440 H   0  0  0  0  0  0  0  0  0  0  0  0
  1  7  1  1  0  0  0
  1  2  1  0  0  0  0
  2 17  1  0  0  0  0
  2  8  1  1  0  0  0
  3  2  1  0  0  0  0
  4  9  1  0  0  0  0
  4  3  1  0  0  0  0
  5 11  1  6  0  0  0
  5  6  1  0  0  0  0
  5  4  1  0  0  0  0
  6 12  1  1  0  0  0
  6  1  1  0  0  0  0
 10  4  1  0  0  0  0
 13  1  1  0  0  0  0
 13 14  1  0  0  0  0
 15  5  1  0  0  0  0
 16 15  1  0  0  0  0
 17 18  1  0  0  0  0
 18 23  1  0  0  0  0
 19 18  2  0  0  0  0
 19 20  1  0  0  0  0
 20 21  2  0  0  0  0
 21 22  1  0  0  0  0
 22 25  1  0  0  0  0
 23 22  2  0  0  0  0
 24 19  1  0  0  0  0
 26 20  1  0  0  0  0
 26 27  1  0  0  0  0
 27 30  1  0  0  0  0
 27 31  1  0  0  0  0
 28 26  1  0  0  0  0
 28 27  1  0  0  0  0
 29 26  1  0  0  0  0
 32 28  1  0  0  0  0
 33 28  1  0  0  0  0
 34 35  1  0  0  0  0
 34  6  1  0  0  0  0
 35 36  2  0  0  0  0
 37 38  1  0  0  0  0
 38 39  2  0  0  0  0
 40 35  1  0  0  0  0
 40 38  1  0  0  0  0
 41 40  1  0  0  0  0
M  END
>  <minimizedAffinity>
-5.6496706

$$$$

 OpenBabel03242523563D

 41 43  0  0  1  0  0  0  0  0999 V2000
   38.7480   31.4990   40.0190 C   0  0  1  0  0  0  0  0  0  0  0  0
   39.6570   32.2250   40.9980 C   0  0  1  0  0  0  0  0  0  0  0  0
   39.1580   33.5290   41.1800 O   0  0  0  0  0  0  0  0  0  0  0  0
   38.6090   34.0650   40.0060 C   0  0  0  0  0  0  0  0  0  0  0  0
   37.3250   33.3640   39.6180 C   0  0  2  0  0  0  0  0  0  0  0  0
   37.3630   31.9680   40.3200 C   0  0  1  0  0  0  0  0  0  0  0  0
   38.8600   30.4030   40.1620 H   0  0  0  0  0  0  0  0  0  0  0  0
   40.7090   32.2530   40.6690 H   0  0  0  0  0  0  0  0  0  0  0  0
   39.3430   34.0920   39.1840 H   0  0  0  0  0  0  0  0  0  0  0  0
   38.3540   35.0990   40.2510 H   0  0  0  0  0  0  0  0  0  0  0  0
   36.4220   33.9120   39.9430 H   0  0  0  0  0  0  0  0  0  0  0  0
   37.2780   32.3810   41.3800 H   0  0  0  0  0  0  0  0  0  0  0  0
   39.1000   31.7980   38.6920 O   0  0  0  0  0  0  0  0  0  0  0  0
   40.1020   31.8530   38.6450 H   0  0  0  0  0  0  0  0  0  0  0  0
   37.3280   33.0860   38.2620 O   0  0  0  0  0  0  0  0  0  0  0  0
   36.6560   32.4280   37.9930 H   0  0  0  0  0  0  0  0  0  0  0  0
   39.4430   31.6030   42.2370 O   0  0  0  0  0  0  0  0  0  0  0  0
   39.7370   30.3290   42.5170 C   0  0  0  0  0  0  0  0  0  0  0  0
   38.7330   29.4110   42.8390 C   0  0  0  0  0  0  0  0  0  0  0  0
   39.0770   28.1020   43.1200 C   0  0  0  0  0  0  0  0  0  0  0  0
   40.4130   27.7370   43.0740 N   0  0  0  0  0  0  0  0  0  0  0  0
   41.3600   28.6500   42.7600 C   0  0  0  0  0  0  0  0  0  0  0  0
   41.0210   29.9360   42.4840 N   0  0  0  0  0  0  0  0  0  0  0  0
   37.7110   29.7220   42.8660 H   0  0  0  0  0  0  0  0  0  0  0  0
   42.3930   28.3640   42.7270 H   0  0  0  0  0  0  0  0  0  0  0  0
   38.0560   27.0740   43.4910 C   0  0  0  0  0  0  0  0  0  0  0  0
   36.5940   27.5130   43.4510 C   0  0  0  0  0  0  0  0  0  0  0  0
   37.2210   26.4720   42.5000 C   0  0  0  0  0  0  0  0  0  0  0  0
   38.3600   26.5060   44.4090 H   0  0  0  0  0  0  0  0  0  0  0  0
   35.9620   27.0670   44.2220 H   0  0  0  0  0  0  0  0  0  0  0  0
   36.4320   28.5360   43.0840 H   0  0  0  0  0  0  0  0  0  0  0  0
   36.8410   25.4470   42.5480 H   0  0  0  0  0  0  0  0  0  0  0  0
   37.2690   26.8520   41.4500 H   0  0  0  0  0  0  0  0  0  0  0  0
   36.3420   31.2350   39.8300 O   0  0  0  0  0  0  0  0  0  0  0  0
   36.3100   30.0740   39.1800 C   0  0  0  0  0  0  0  0  0  0  0  0
   36.4160   28.9060   39.8040 O   0  0  0  0  0  0  0  0  0  0  0  0
   36.9310   29.0540   35.8640 H   0  0  0  0  0  0  0  0  0  0  0  0
   37.1800   29.2830   36.8900 C   0  0  0  0  0  0  0  0  0  0  0  0
   38.3450   29.1790   37.3470 O   0  0  0  0  0  0  0  0  0  0  0  0
   36.1630   29.7190   37.7670 N   0  0  0  0  0  0  0  0  0  0  0  0
   35.2210   29.7910   37.3520 H   0  0  0  0  0  0  0  0  0  0  0  0
  1  7  1  1  0  0  0
  1  6  1  0  0  0  0
  1  2  1  0  0  0  0
  2  8  1  6  0  0  0
  2  3  1  0  0  0  0
  2 17  1  0  0  0  0
  4 10  1  0  0  0  0
  4  3  1  0  0  0  0
  5 11  1  1  0  0  0
  5  4  1  0  0  0  0
  5  6  1  0  0  0  0
  6 12  1  1  0  0  0
  9  4  1  0  0  0  0
 13  1  1  0  0  0  0
 14 13  1  0  0  0  0
 15  5  1  0  0  0  0
 16 15  1  0  0  0  0
 17 18  1  0  0  0  0
 18 19  1  0  0  0  0
 19 24  1  0  0  0  0
 19 20  2  0  0  0  0
 20 26  1  0  0  0  0
 21 20  1  0  0  0  0
 22 21  2  0  0  0  0
 23 18  2  0  0  0  0
 23 22  1  0  0  0  0
 25 22  1  0  0  0  0
 26 29  1  0  0  0  0
 27 26  1  0  0  0  0
 27 30  1  0  0  0  0
 28 32  1  0  0  0  0
 28 27  1  0  0  0  0
 28 26  1  0  0  0  0
 31 27  1  0  0  0  0
 33 28  1  0  0  0  0
 34  6  1  0  0  0  0
 35 36  2  0  0  0  0
 35 34  1  0  0  0  0
 37 38  1  0  0  0  0
 38 39  2  0  0  0  0
 38 40  1  0  0  0  0
 40 35  1  0  0  0  0
 41 40  1  0  0  0  0
M  END
>  <minimizedAffinity>
-5.61561108

$$$$

 OpenBabel03242523563D

 41 43  0  0  1  0  0  0  0  0999 V2000
   38.4820   29.8200   37.8980 C   0  0  1  0  0  0  0  0  0  0  0  0
   38.4190   29.9800   39.4080 C   0  0  1  0  0  0  0  0  0  0  0  0
   37.9740   31.2840   39.6960 O   0  0  0  0  0  0  0  0  0  0  0  0
   38.4560   32.2330   38.7830 C   0  0  0  0  0  0  0  0  0  0  0  0
   37.8330   32.0590   37.4140 C   0  0  2  0  0  0  0  0  0  0  0  0
   37.3190   30.5840   37.3550 C   0  0  1  0  0  0  0  0  0  0  0  0
   38.4320   28.7410   37.6430 H   0  0  0  0  0  0  0  0  0  0  0  0
   39.3850   29.7810   39.9030 H   0  0  0  0  0  0  0  0  0  0  0  0
   39.5570   32.2480   38.7490 H   0  0  0  0  0  0  0  0  0  0  0  0
   38.1260   33.2010   39.1680 H   0  0  0  0  0  0  0  0  0  0  0  0
   36.9880   32.7470   37.2360 H   0  0  0  0  0  0  0  0  0  0  0  0
   36.5040   30.7240   38.1400 H   0  0  0  0  0  0  0  0  0  0  0  0
   39.6920   30.3250   37.3900 O   0  0  0  0  0  0  0  0  0  0  0  0
   40.4190   30.0940   38.0440 H   0  0  0  0  0  0  0  0  0  0  0  0
   38.8090   32.1390   36.4350 O   0  0  0  0  0  0  0  0  0  0  0  0
   38.5240   31.7960   35.5660 H   0  0  0  0  0  0  0  0  0  0  0  0
   37.3620   29.1590   39.8260 O   0  0  0  0  0  0  0  0  0  0  0  0
   37.3360   28.4630   40.9670 C   0  0  0  0  0  0  0  0  0  0  0  0
   37.1780   27.0740   40.9620 C   0  0  0  0  0  0  0  0  0  0  0  0
   37.1580   26.3900   42.1620 C   0  0  0  0  0  0  0  0  0  0  0  0
   37.2950   27.1050   43.3420 N   0  0  0  0  0  0  0  0  0  0  0  0
   37.4450   28.4480   43.3130 C   0  0  0  0  0  0  0  0  0  0  0  0
   37.4650   29.1190   42.1330 N   0  0  0  0  0  0  0  0  0  0  0  0
   37.0750   26.5500   40.0360 H   0  0  0  0  0  0  0  0  0  0  0  0
   37.5500   28.9970   44.2280 H   0  0  0  0  0  0  0  0  0  0  0  0
   36.9730   24.9060   42.2300 C   0  0  0  0  0  0  0  0  0  0  0  0
   36.5900   24.2040   40.9300 C   0  0  0  0  0  0  0  0  0  0  0  0
   37.9350   24.0170   41.6610 C   0  0  0  0  0  0  0  0  0  0  0  0
   36.3750   24.6080   43.1300 H   0  0  0  0  0  0  0  0  0  0  0  0
   35.9110   23.3560   41.0520 H   0  0  0  0  0  0  0  0  0  0  0  0
   36.5520   24.8580   40.0480 H   0  0  0  0  0  0  0  0  0  0  0  0
   38.1670   23.0210   42.0510 H   0  0  0  0  0  0  0  0  0  0  0  0
   38.7850   24.4430   41.0730 H   0  0  0  0  0  0  0  0  0  0  0  0
   36.9520   30.3280   36.0830 O   0  0  0  0  0  0  0  0  0  0  0  0
   36.5180   29.2200   35.4860 C   0  0  0  0  0  0  0  0  0  0  0  0
   35.2510   29.0590   35.1180 O   0  0  0  0  0  0  0  0  0  0  0  0
   37.6350   25.8830   35.3060 H   0  0  0  0  0  0  0  0  0  0  0  0
   37.0940   26.7220   35.7170 C   0  0  0  0  0  0  0  0  0  0  0  0
   36.3870   26.6360   36.7510 O   0  0  0  0  0  0  0  0  0  0  0  0
   37.1750   27.9780   35.0770 N   0  0  0  0  0  0  0  0  0  0  0  0
   37.7670   28.0070   34.2310 H   0  0  0  0  0  0  0  0  0  0  0  0
  1  7  1  6  0  0  0
  1  2  1  0  0  0  0
  2  3  1  0  0  0  0
  2 17  1  0  0  0  0
  2  8  1  1  0  0  0
  4 10  1  0  0  0  0
  4  3  1  0  0  0  0
  5 11  1  6  0  0  0
  5  4  1  0  0  0  0
  6  5  1  0  0  0  0
  6  1  1  0  0  0  0
  6 12  1  1  0  0  0
  9  4  1  0  0  0  0
 13  1  1  0  0  0  0
 13 14  1  0  0  0  0
 15  5  1  0  0  0  0
 16 15  1  0  0  0  0
 17 18  1  0  0  0  0
 18 23  1  0  0  0  0
 19 18  2  0  0  0  0
 19 20  1  0  0  0  0
 20 26  1  0  0  0  0
 20 21  2  0  0  0  0
 22 21  1  0  0  0  0
 22 25  1  0  0  0  0
 23 22  2  0  0  0  0
 24 19  1  0  0  0  0
 26 29  1  0  0  0  0
 27 30  1  0  0  0  0
 27 28  1  0  0  0  0
 27 26  1  0  0  0  0
 28 32  1  0  0  0  0
 28 26  1  0  0  0  0
 31 27  1  0  0  0  0
 33 28  1  0  0  0  0
 34  6  1  0  0  0  0
 35 34  1  0  0  0  0
 36 35  2  0  0  0  0
 37 38  1  0  0  0  0
 38 39  2  0  0  0  0
 40 35  1  0  0  0  0
 40 38  1  0  0  0  0
 41 40  1  0  0  0  0
M  END
>  <minimizedAffinity>
-5.58844137

$$$$

 OpenBabel03242523563D

 41 43  0  0  1  0  0  0  0  0999 V2000
   37.1250   30.2330   41.1390 C   0  0  1  0  0  0  0  0  0  0  0  0
   36.8700   29.0860   40.1740 C   0  0  1  0  0  0  0  0  0  0  0  0
   36.9450   29.5910   38.8610 O   0  0  0  0  0  0  0  0  0  0  0  0
   36.4370   30.8930   38.7530 C   0  0  0  0  0  0  0  0  0  0  0  0
   37.3250   31.9000   39.4520 C   0  0  2  0  0  0  0  0  0  0  0  0
   38.1630   31.0900   40.4930 C   0  0  1  0  0  0  0  0  0  0  0  0
   37.4670   29.8210   42.1120 H   0  0  0  0  0  0  0  0  0  0  0  0
   35.9010   28.5880   40.3440 H   0  0  0  0  0  0  0  0  0  0  0  0
   35.3860   30.9530   39.0810 H   0  0  0  0  0  0  0  0  0  0  0  0
   36.4590   31.1260   37.6850 H   0  0  0  0  0  0  0  0  0  0  0  0
   38.0080   32.4230   38.7600 H   0  0  0  0  0  0  0  0  0  0  0  0
   38.7650   30.5110   39.7170 H   0  0  0  0  0  0  0  0  0  0  0  0
   35.9480   30.9640   41.3720 O   0  0  0  0  0  0  0  0  0  0  0  0
   35.1840   30.3110   41.4110 H   0  0  0  0  0  0  0  0  0  0  0  0
   36.5540   32.7680   40.2070 O   0  0  0  0  0  0  0  0  0  0  0  0
   37.0660   33.2770   40.8660 H   0  0  0  0  0  0  0  0  0  0  0  0
   37.9910   28.2510   40.2820 O   0  0  0  0  0  0  0  0  0  0  0  0
   38.0350   27.1140   40.9840 C   0  0  0  0  0  0  0  0  0  0  0  0
   39.1210   26.8190   41.8130 C   0  0  0  0  0  0  0  0  0  0  0  0
   39.1280   25.6340   42.5240 C   0  0  0  0  0  0  0  0  0  0  0  0
   38.0540   24.7680   42.3910 N   0  0  0  0  0  0  0  0  0  0  0  0
   37.0200   25.0820   41.5800 C   0  0  0  0  0  0  0  0  0  0  0  0
   37.0130   26.2470   40.8820 N   0  0  0  0  0  0  0  0  0  0  0  0
   39.9350   27.5070   41.8940 H   0  0  0  0  0  0  0  0  0  0  0  0
   36.1910   24.4090   41.4800 H   0  0  0  0  0  0  0  0  0  0  0  0
   40.2670   25.2470   43.4130 C   0  0  0  0  0  0  0  0  0  0  0  0
   41.6020   24.9560   42.7310 C   0  0  0  0  0  0  0  0  0  0  0  0
   41.3420   26.1520   43.6710 C   0  0  0  0  0  0  0  0  0  0  0  0
   39.9500   24.4960   44.1830 H   0  0  0  0  0  0  0  0  0  0  0  0
   42.1890   24.1610   43.1980 H   0  0  0  0  0  0  0  0  0  0  0  0
   41.6100   25.1260   41.6460 H   0  0  0  0  0  0  0  0  0  0  0  0
   41.9070   26.1930   44.6070 H   0  0  0  0  0  0  0  0  0  0  0  0
   41.3750   27.1220   43.1180 H   0  0  0  0  0  0  0  0  0  0  0  0
   38.8080   31.9770   41.2790 O   0  0  0  0  0  0  0  0  0  0  0  0
   39.6580   32.9620   40.9990 C   0  0  0  0  0  0  0  0  0  0  0  0
   39.2520   34.1570   40.5820 O   0  0  0  0  0  0  0  0  0  0  0  0
   43.0700   33.1420   40.1370 H   0  0  0  0  0  0  0  0  0  0  0  0
   42.0090   33.0520   39.9550 C   0  0  0  0  0  0  0  0  0  0  0  0
   41.5230   32.9280   38.8050 O   0  0  0  0  0  0  0  0  0  0  0  0
   41.1170   33.0720   41.0500 N   0  0  0  0  0  0  0  0  0  0  0  0
   41.5560   33.1760   41.9780 H   0  0  0  0  0  0  0  0  0  0  0  0
  1 13  1  0  0  0  0
  1  7  1  1  0  0  0
  2 17  1  0  0  0  0
  2  8  1  1  0  0  0
  2  1  1  0  0  0  0
  3  2  1  0  0  0  0
  4  3  1  0  0  0  0
  4  9  1  0  0  0  0
  4  5  1  0  0  0  0
  5 11  1  6  0  0  0
  5 15  1  0  0  0  0
  5  6  1  0  0  0  0
  6 12  1  6  0  0  0
  6  1  1  0  0  0  0
  6 34  1  0  0  0  0
 10  4  1  0  0  0  0
 13 14  1  0  0  0  0
 15 16  1  0  0  0  0
 17 18  1  0  0  0  0
 18 19  1  0  0  0  0
 19 24  1  0  0  0  0
 19 20  2  0  0  0  0
 20 26  1  0  0  0  0
 21 20  1  0  0  0  0
 22 21  2  0  0  0  0
 23 18  2  0  0  0  0
 23 22  1  0  0  0  0
 25 22  1  0  0  0  0
 26 28  1  0  0  0  0
 26 29  1  0  0  0  0
 27 30  1  0  0  0  0
 27 26  1  0  0  0  0
 27 28  1  0  0  0  0
 28 32  1  0  0  0  0
 31 27  1  0  0  0  0
 33 28  1  0  0  0  0
 35 40  1  0  0  0  0
 35 34  1  0  0  0  0
 36 35  2  0  0  0  0
 38 37  1  0  0  0  0
 38 40  1  0  0  0  0
 39 38  2  0  0  0  0
 40 41  1  0  0  0  0
M  END
>  <minimizedAffinity>
-5.58831072

$$$$

 OpenBabel03242523563D

 41 43  0  0  1  0  0  0  0  0999 V2000
   36.8160   29.9730   41.2350 C   0  0  1  0  0  0  0  0  0  0  0  0
   36.3850   28.9420   40.2030 C   0  0  1  0  0  0  0  0  0  0  0  0
   36.5890   29.4890   38.9220 O   0  0  0  0  0  0  0  0  0  0  0  0
   36.3290   30.8650   38.8740 C   0  0  0  0  0  0  0  0  0  0  0  0
   37.3640   31.6570   39.6440 C   0  0  2  0  0  0  0  0  0  0  0  0
   38.0110   30.6570   40.6570 C   0  0  1  0  0  0  0  0  0  0  0  0
   37.0490   29.4570   42.1900 H   0  0  0  0  0  0  0  0  0  0  0  0
   35.3380   28.6210   40.3270 H   0  0  0  0  0  0  0  0  0  0  0  0
   35.2980   31.1000   39.1850 H   0  0  0  0  0  0  0  0  0  0  0  0
   36.4250   31.1440   37.8220 H   0  0  0  0  0  0  0  0  0  0  0  0
   38.1520   32.0800   38.9960 H   0  0  0  0  0  0  0  0  0  0  0  0
   38.5200   30.0170   39.8620 H   0  0  0  0  0  0  0  0  0  0  0  0
   35.7840   30.8940   41.4840 O   0  0  0  0  0  0  0  0  0  0  0  0
   34.9150   30.3910   41.4720 H   0  0  0  0  0  0  0  0  0  0  0  0
   36.7420   32.6130   40.4300 O   0  0  0  0  0  0  0  0  0  0  0  0
   37.3180   32.9860   41.1260 H   0  0  0  0  0  0  0  0  0  0  0  0
   37.3320   27.9110   40.2880 O   0  0  0  0  0  0  0  0  0  0  0  0
   37.0530   26.6330   40.5640 C   0  0  0  0  0  0  0  0  0  0  0  0
   36.6220   25.7570   39.5640 C   0  0  0  0  0  0  0  0  0  0  0  0
   36.3450   24.4430   39.8880 C   0  0  0  0  0  0  0  0  0  0  0  0
   36.5020   24.0300   41.2020 N   0  0  0  0  0  0  0  0  0  0  0  0
   36.9200   24.9030   42.1460 C   0  0  0  0  0  0  0  0  0  0  0  0
   37.1920   26.1950   41.8260 N   0  0  0  0  0  0  0  0  0  0  0  0
   36.5100   26.1050   38.5590 H   0  0  0  0  0  0  0  0  0  0  0  0
   37.0400   24.5810   43.1610 H   0  0  0  0  0  0  0  0  0  0  0  0
   35.8610   23.4570   38.8710 C   0  0  0  0  0  0  0  0  0  0  0  0
   34.5030   23.7410   38.2340 C   0  0  0  0  0  0  0  0  0  0  0  0
   35.8480   23.7800   37.4800 C   0  0  0  0  0  0  0  0  0  0  0  0
   36.0170   22.4020   39.2160 H   0  0  0  0  0  0  0  0  0  0  0  0
   33.9090   22.8510   38.0100 H   0  0  0  0  0  0  0  0  0  0  0  0
   34.0400   24.6880   38.5420 H   0  0  0  0  0  0  0  0  0  0  0  0
   35.9990   23.0560   36.6730 H   0  0  0  0  0  0  0  0  0  0  0  0
   36.1110   24.8190   37.1630 H   0  0  0  0  0  0  0  0  0  0  0  0
   38.7820   31.3710   41.5020 O   0  0  0  0  0  0  0  0  0  0  0  0
   40.0860   31.6400   41.5070 C   0  0  0  0  0  0  0  0  0  0  0  0
   40.7940   31.7530   40.3890 O   0  0  0  0  0  0  0  0  0  0  0  0
   42.6960   31.2890   43.8490 H   0  0  0  0  0  0  0  0  0  0  0  0
   42.0410   30.9820   43.0470 C   0  0  0  0  0  0  0  0  0  0  0  0
   42.1120   29.8520   42.5050 O   0  0  0  0  0  0  0  0  0  0  0  0
   41.0560   31.8780   42.5770 N   0  0  0  0  0  0  0  0  0  0  0  0
   41.0310   32.7960   43.0490 H   0  0  0  0  0  0  0  0  0  0  0  0
  1 13  1  0  0  0  0
  1  7  1  1  0  0  0
  2 17  1  0  0  0  0
  2  8  1  1  0  0  0
  2  1  1  0  0  0  0
  3  2  1  0  0  0  0
  4  3  1  0  0  0  0
  4  9  1  0  0  0  0
  4  5  1  0  0  0  0
  5 11  1  6  0  0  0
  5 15  1  0  0  0  0
  5  6  1  0  0  0  0
  6 12  1  6  0  0  0
  6  1  1  0  0  0  0
  6 34  1  0  0  0  0
 10  4  1  0  0  0  0
 14 13  1  0  0  0  0
 15 16  1  0  0  0  0
 17 18  1  0  0  0  0
 18 23  1  0  0  0  0
 19 20  1  0  0  0  0
 19 18  2  0  0  0  0
 20 21  2  0  0  0  0
 21 22  1  0  0  0  0
 22 25  1  0  0  0  0
 23 22  2  0  0  0  0
 24 19  1  0  0  0  0
 26 29  1  0  0  0  0
 26 20  1  0  0  0  0
 27 31  1  0  0  0  0
 27 26  1  0  0  0  0
 28 27  1  0  0  0  0
 28 26  1  0  0  0  0
 30 27  1  0  0  0  0
 32 28  1  0  0  0  0
 33 28  1  0  0  0  0
 34 35  1  0  0  0  0
 35 40  1  0  0  0  0
 36 35  2  0  0  0  0
 38 37  1  0  0  0  0
 39 38  2  0  0  0  0
 40 38  1  0  0  0  0
 40 41  1  0  0  0  0
M  END
>  <minimizedAffinity>
-5.46355677

$$$$
