
 OpenBabel03252509193D

 39 41  0  0  1  0  0  0  0  0999 V2000
   45.9300   28.3310   43.7190 C   0  0  1  0  0  0  0  0  0  0  0  0
   46.3910   27.2510   42.8190 C   0  0  0  0  0  0  0  0  0  0  0  0
   47.7680   26.7290   43.1260 C   0  0  0  0  0  0  0  0  0  0  0  0
   47.9980   26.5120   44.5970 C   0  0  0  0  0  0  0  0  0  0  0  0
   47.5090   27.6630   45.4340 C   0  0  0  0  0  0  0  0  0  0  0  0
   47.1330   28.8450   44.5400 C   0  0  2  0  0  0  0  0  0  0  0  0
   45.2660   27.8870   44.4780 H   0  0  0  0  0  0  0  0  0  0  0  0
   46.4540   27.6670   41.7730 H   0  0  0  0  0  0  0  0  0  0  0  0
   45.6860   26.4050   42.8020 H   0  0  0  0  0  0  0  0  0  0  0  0
   47.8450   25.7430   42.6300 H   0  0  0  0  0  0  0  0  0  0  0  0
   48.5670   27.3560   42.6970 H   0  0  0  0  0  0  0  0  0  0  0  0
   49.0340   26.2400   44.7810 H   0  0  0  0  0  0  0  0  0  0  0  0
   47.3790   25.6130   44.8880 H   0  0  0  0  0  0  0  0  0  0  0  0
   46.6030   27.4030   46.0200 H   0  0  0  0  0  0  0  0  0  0  0  0
   48.3370   27.9840   46.0940 H   0  0  0  0  0  0  0  0  0  0  0  0
   47.9660   29.0930   43.8490 H   0  0  0  0  0  0  0  0  0  0  0  0
   43.2820   31.0570   42.2170 C   0  0  0  0  0  0  0  0  0  0  0  0
   44.5530   31.2010   41.6700 C   0  0  0  0  0  0  0  0  0  0  0  0
   45.5120   30.3670   42.0840 C   0  0  0  0  0  0  0  0  0  0  0  0
   45.2240   29.3740   43.0490 C   0  0  0  0  0  0  0  0  0  0  0  0
   43.4570   29.6480   43.3980 S   0  0  0  0  0  0  0  0  0  0  0  0
   44.7580   31.9640   40.9330 H   0  0  0  0  0  0  0  0  0  0  0  0
   46.5430   30.3300   41.7750 H   0  0  0  0  0  0  0  0  0  0  0  0
   40.9560   33.6870   40.9940 C   0  0  0  0  0  0  0  0  0  0  0  0
   39.7220   33.1160   41.3080 C   0  0  0  0  0  0  0  0  0  0  0  0
   39.7380   31.8590   41.9270 C   0  0  0  0  0  0  0  0  0  0  0  0
   40.9500   31.2670   42.1880 N   0  0  0  0  0  0  0  0  0  0  0  0
   42.1000   31.8760   41.8590 C   0  0  0  0  0  0  0  0  0  0  0  0
   42.1110   33.0940   41.2570 N   0  0  0  0  0  0  0  0  0  0  0  0
   40.9770   34.6680   40.5100 H   0  0  0  0  0  0  0  0  0  0  0  0
   38.7750   33.5930   41.0970 H   0  0  0  0  0  0  0  0  0  0  0  0
   38.8360   31.3340   42.2100 H   0  0  0  0  0  0  0  0  0  0  0  0
   46.7180   29.9690   45.3830 C   0  0  0  0  0  0  0  0  0  0  0  0
   47.1650   31.1230   45.2360 O   0  0  0  0  0  0  0  0  0  0  0  0
   45.0900   30.3070   48.4860 H   0  0  0  0  0  0  0  0  0  0  0  0
   45.9510   30.0950   47.8450 C   0  0  0  0  0  0  0  0  0  0  0  0
   47.0920   29.7720   48.2180 O   0  0  0  0  0  0  0  0  0  0  0  0
   45.8500   30.1700   46.4510 N   0  0  0  0  0  0  0  0  0  0  0  0
   44.9170   30.4350   46.1270 H   0  0  0  0  0  0  0  0  0  0  0  0
  1  7  1  1  0  0  0
  1  6  1  0  0  0  0
  2  3  1  0  0  0  0
  2  1  1  0  0  0  0
  3  4  1  0  0  0  0
  4 12  1  0  0  0  0
  4 13  1  0  0  0  0
  4  5  1  0  0  0  0
  5 14  1  0  0  0  0
  5 15  1  0  0  0  0
  6 16  1  6  0  0  0
  6 33  1  0  0  0  0
  6  5  1  0  0  0  0
  8  2  1  0  0  0  0
  9  2  1  0  0  0  0
 10  3  1  0  0  0  0
 11  3  1  0  0  0  0
 17 21  1  0  0  0  0
 18 19  1  0  0  0  0
 18 17  2  0  0  0  0
 19 20  2  0  0  0  0
 20 21  1  0  0  0  0
 20  1  1  0  0  0  0
 22 18  1  0  0  0  0
 23 19  1  0  0  0  0
 24 29  2  0  0  0  0
 24 25  1  0  0  0  0
 25 26  2  0  0  0  0
 26 27  1  0  0  0  0
 26 32  1  0  0  0  0
 28 27  2  0  0  0  0
 28 17  1  0  0  0  0
 29 28  1  0  0  0  0
 30 24  1  0  0  0  0
 31 25  1  0  0  0  0
 33 38  1  0  0  0  0
 34 33  2  0  0  0  0
 36 37  2  0  0  0  0
 36 35  1  0  0  0  0
 38 36  1  0  0  0  0
 39 38  1  0  0  0  0
M  END
>  <minimizedAffinity>
-2.70731735

>  <minimizedRMSD>
5.30842495

$$$$
