
 OpenBabel03242523553D

 41 43  0  0  1  0  0  0  0  0999 V2000
   42.8120   34.5060   38.7420 C   0  0  1  0  0  0  0  0  0  0  0  0
   42.9600   35.1720   40.1010 C   0  0  1  0  0  0  0  0  0  0  0  0
   41.6720   35.4010   40.6230 O   0  0  0  0  0  0  0  0  0  0  0  0
   40.7410   35.7410   39.6320 C   0  0  0  0  0  0  0  0  0  0  0  0
   40.4320   34.5670   38.7280 C   0  0  2  0  0  0  0  0  0  0  0  0
   41.6410   33.5860   38.8610 C   0  0  1  0  0  0  0  0  0  0  0  0
   43.7490   33.9640   38.4980 H   0  0  0  0  0  0  0  0  0  0  0  0
   43.5350   36.1120   40.0600 H   0  0  0  0  0  0  0  0  0  0  0  0
   41.0460   36.6390   39.0720 H   0  0  0  0  0  0  0  0  0  0  0  0
   39.8210   35.9870   40.1690 H   0  0  0  0  0  0  0  0  0  0  0  0
   39.5030   34.0410   39.0090 H   0  0  0  0  0  0  0  0  0  0  0  0
   41.4320   33.3080   39.9470 H   0  0  0  0  0  0  0  0  0  0  0  0
   42.5940   35.4630   37.7370 O   0  0  0  0  0  0  0  0  0  0  0  0
   43.1620   36.2650   37.9480 H   0  0  0  0  0  0  0  0  0  0  0  0
   40.4430   34.9730   37.4040 O   0  0  0  0  0  0  0  0  0  0  0  0
   40.4960   34.2340   36.7660 H   0  0  0  0  0  0  0  0  0  0  0  0
   43.4980   34.1870   40.9420 O   0  0  0  0  0  0  0  0  0  0  0  0
   44.5990   34.3310   41.6870 C   0  0  0  0  0  0  0  0  0  0  0  0
   45.8610   34.4360   41.0960 C   0  0  0  0  0  0  0  0  0  0  0  0
   46.9750   34.5870   41.9000 C   0  0  0  0  0  0  0  0  0  0  0  0
   46.8060   34.6290   43.2750 N   0  0  0  0  0  0  0  0  0  0  0  0
   45.5720   34.5240   43.8150 C   0  0  0  0  0  0  0  0  0  0  0  0
   44.4780   34.3760   43.0240 N   0  0  0  0  0  0  0  0  0  0  0  0
   45.9590   34.4000   40.0320 H   0  0  0  0  0  0  0  0  0  0  0  0
   45.4460   34.5560   44.8800 H   0  0  0  0  0  0  0  0  0  0  0  0
   48.3570   34.6850   41.3340 C   0  0  0  0  0  0  0  0  0  0  0  0
   49.0750   36.0210   41.5070 C   0  0  0  0  0  0  0  0  0  0  0  0
   49.5030   34.7040   42.1870 C   0  0  0  0  0  0  0  0  0  0  0  0
   48.4110   34.2420   40.3060 H   0  0  0  0  0  0  0  0  0  0  0  0
   49.7190   36.3050   40.6710 H   0  0  0  0  0  0  0  0  0  0  0  0
   48.5220   36.7670   42.0960 H   0  0  0  0  0  0  0  0  0  0  0  0
   50.4800   34.2910   41.9210 H   0  0  0  0  0  0  0  0  0  0  0  0
   49.3520   34.7460   43.2930 H   0  0  0  0  0  0  0  0  0  0  0  0
   41.5050   32.6350   37.9140 O   0  0  0  0  0  0  0  0  0  0  0  0
   40.8310   31.4880   37.8940 C   0  0  0  0  0  0  0  0  0  0  0  0
   39.5710   31.4090   37.4780 O   0  0  0  0  0  0  0  0  0  0  0  0
   40.7290   28.0170   38.4990 H   0  0  0  0  0  0  0  0  0  0  0  0
   40.3410   28.9800   38.1970 C   0  0  0  0  0  0  0  0  0  0  0  0
   39.1640   29.1410   37.7880 O   0  0  0  0  0  0  0  0  0  0  0  0
   41.1790   30.1140   38.2580 N   0  0  0  0  0  0  0  0  0  0  0  0
   42.1370   29.9380   38.5990 H   0  0  0  0  0  0  0  0  0  0  0  0
  1  7  1  6  0  0  0
  1  6  1  0  0  0  0
  1  2  1  0  0  0  0
  2  8  1  6  0  0  0
  2  3  1  0  0  0  0
  2 17  1  0  0  0  0
  4 10  1  0  0  0  0
  4  3  1  0  0  0  0
  5  6  1  0  0  0  0
  5 11  1  1  0  0  0
  5  4  1  0  0  0  0
  6 12  1  1  0  0  0
  9  4  1  0  0  0  0
 13 14  1  0  0  0  0
 13  1  1  0  0  0  0
 15  5  1  0  0  0  0
 16 15  1  0  0  0  0
 17 18  1  0  0  0  0
 18 23  1  0  0  0  0
 19 18  2  0  0  0  0
 19 20  1  0  0  0  0
 20 21  2  0  0  0  0
 21 22  1  0  0  0  0
 22 25  1  0  0  0  0
 23 22  2  0  0  0  0
 24 19  1  0  0  0  0
 26 27  1  0  0  0  0
 26 20  1  0  0  0  0
 26 28  1  0  0  0  0
 27 31  1  0  0  0  0
 27 28  1  0  0  0  0
 28 33  1  0  0  0  0
 29 26  1  0  0  0  0
 30 27  1  0  0  0  0
 32 28  1  0  0  0  0
 34  6  1  0  0  0  0
 35 34  1  0  0  0  0
 35 40  1  0  0  0  0
 36 35  2  0  0  0  0
 38 40  1  0  0  0  0
 38 37  1  0  0  0  0
 39 38  2  0  0  0  0
 40 41  1  0  0  0  0
M  END
>  <minimizedAffinity>
-5.83673763

>  <minimizedRMSD>
0.117798783

$$$$
