
 OpenBabel03242523553D

 41 43  0  0  1  0  0  0  0  0999 V2000
   42.8140   34.5100   38.7500 C   0  0  1  0  0  0  0  0  0  0  0  0
   42.9560   35.1750   40.1100 C   0  0  1  0  0  0  0  0  0  0  0  0
   41.6660   35.3980   40.6280 O   0  0  0  0  0  0  0  0  0  0  0  0
   40.7360   35.7360   39.6360 C   0  0  0  0  0  0  0  0  0  0  0  0
   40.4340   34.5620   38.7290 C   0  0  2  0  0  0  0  0  0  0  0  0
   41.6470   33.5860   38.8650 C   0  0  1  0  0  0  0  0  0  0  0  0
   43.7540   33.9720   38.5080 H   0  0  0  0  0  0  0  0  0  0  0  0
   43.5270   36.1170   40.0710 H   0  0  0  0  0  0  0  0  0  0  0  0
   41.0390   36.6360   39.0770 H   0  0  0  0  0  0  0  0  0  0  0  0
   39.8140   35.9780   40.1710 H   0  0  0  0  0  0  0  0  0  0  0  0
   39.5060   34.0320   39.0080 H   0  0  0  0  0  0  0  0  0  0  0  0
   41.4360   33.3060   39.9500 H   0  0  0  0  0  0  0  0  0  0  0  0
   42.5950   35.4680   37.7440 O   0  0  0  0  0  0  0  0  0  0  0  0
   43.1590   36.2710   37.9580 H   0  0  0  0  0  0  0  0  0  0  0  0
   40.4460   34.9690   37.4060 O   0  0  0  0  0  0  0  0  0  0  0  0
   40.5040   34.2310   36.7670 H   0  0  0  0  0  0  0  0  0  0  0  0
   43.4960   34.1920   40.9510 O   0  0  0  0  0  0  0  0  0  0  0  0
   44.5980   34.3370   41.6930 C   0  0  0  0  0  0  0  0  0  0  0  0
   45.8590   34.4400   41.0990 C   0  0  0  0  0  0  0  0  0  0  0  0
   46.9750   34.5920   41.9000 C   0  0  0  0  0  0  0  0  0  0  0  0
   46.8100   34.6370   43.2760 N   0  0  0  0  0  0  0  0  0  0  0  0
   45.5760   34.5340   43.8190 C   0  0  0  0  0  0  0  0  0  0  0  0
   44.4800   34.3850   43.0310 N   0  0  0  0  0  0  0  0  0  0  0  0
   45.9550   34.4020   40.0350 H   0  0  0  0  0  0  0  0  0  0  0  0
   45.4520   34.5680   44.8830 H   0  0  0  0  0  0  0  0  0  0  0  0
   48.3560   34.6890   41.3320 C   0  0  0  0  0  0  0  0  0  0  0  0
   49.0770   36.0230   41.5060 C   0  0  0  0  0  0  0  0  0  0  0  0
   49.5040   34.7030   42.1810 C   0  0  0  0  0  0  0  0  0  0  0  0
   48.4070   34.2480   40.3020 H   0  0  0  0  0  0  0  0  0  0  0  0
   49.7200   36.3070   40.6700 H   0  0  0  0  0  0  0  0  0  0  0  0
   48.5280   36.7680   42.0980 H   0  0  0  0  0  0  0  0  0  0  0  0
   50.4800   34.2870   41.9120 H   0  0  0  0  0  0  0  0  0  0  0  0
   49.3560   34.7410   43.2880 H   0  0  0  0  0  0  0  0  0  0  0  0
   41.5160   32.6350   37.9170 O   0  0  0  0  0  0  0  0  0  0  0  0
   40.8620   31.4760   37.9010 C   0  0  0  0  0  0  0  0  0  0  0  0
   39.6110   31.3700   37.4650 O   0  0  0  0  0  0  0  0  0  0  0  0
   40.9870   28.3200   39.4650 H   0  0  0  0  0  0  0  0  0  0  0  0
   40.6130   29.3170   39.2790 C   0  0  0  0  0  0  0  0  0  0  0  0
   39.6440   29.8090   39.9100 O   0  0  0  0  0  0  0  0  0  0  0  0
   41.2280   30.1130   38.2880 N   0  0  0  0  0  0  0  0  0  0  0  0
   42.0200   29.6720   37.7940 H   0  0  0  0  0  0  0  0  0  0  0  0
  1  7  1  6  0  0  0
  1  6  1  0  0  0  0
  1  2  1  0  0  0  0
  2  8  1  6  0  0  0
  2  3  1  0  0  0  0
  2 17  1  0  0  0  0
  4 10  1  0  0  0  0
  4  3  1  0  0  0  0
  5  6  1  0  0  0  0
  5 11  1  1  0  0  0
  5  4  1  0  0  0  0
  6 12  1  1  0  0  0
  9  4  1  0  0  0  0
 13 14  1  0  0  0  0
 13  1  1  0  0  0  0
 15  5  1  0  0  0  0
 16 15  1  0  0  0  0
 17 18  1  0  0  0  0
 18 23  1  0  0  0  0
 19 18  2  0  0  0  0
 19 20  1  0  0  0  0
 20 21  2  0  0  0  0
 21 22  1  0  0  0  0
 22 25  1  0  0  0  0
 23 22  2  0  0  0  0
 24 19  1  0  0  0  0
 26 27  1  0  0  0  0
 26 20  1  0  0  0  0
 26 28  1  0  0  0  0
 27 31  1  0  0  0  0
 27 28  1  0  0  0  0
 28 33  1  0  0  0  0
 29 26  1  0  0  0  0
 30 27  1  0  0  0  0
 32 28  1  0  0  0  0
 34  6  1  0  0  0  0
 35 34  1  0  0  0  0
 35 40  1  0  0  0  0
 36 35  2  0  0  0  0
 38 37  1  0  0  0  0
 38 39  2  0  0  0  0
 40 38  1  0  0  0  0
 41 40  1  0  0  0  0
M  END
>  <minimizedAffinity>
-5.88508844

>  <minimizedRMSD>
0.12530522

$$$$
