
 OpenBabel03252509193D

 39 41  0  0  1  0  0  0  0  0999 V2000
   48.9760   28.5770   48.4100 C   0  0  1  0  0  0  0  0  0  0  0  0
   48.9210   27.5680   47.3290 C   0  0  0  0  0  0  0  0  0  0  0  0
   50.2250   26.8650   47.0650 C   0  0  0  0  0  0  0  0  0  0  0  0
   50.9320   26.4500   48.3270 C   0  0  0  0  0  0  0  0  0  0  0  0
   50.9490   27.5400   49.3650 C   0  0  0  0  0  0  0  0  0  0  0  0
   50.4540   28.8540   48.7600 C   0  0  2  0  0  0  0  0  0  0  0  0
   48.5700   28.1200   49.3270 H   0  0  0  0  0  0  0  0  0  0  0  0
   48.6650   28.0960   46.3660 H   0  0  0  0  0  0  0  0  0  0  0  0
   48.1420   26.8130   47.5140 H   0  0  0  0  0  0  0  0  0  0  0  0
   49.9750   25.9430   46.5070 H   0  0  0  0  0  0  0  0  0  0  0  0
   50.9000   27.4480   46.4160 H   0  0  0  0  0  0  0  0  0  0  0  0
   51.9140   26.0460   48.0930 H   0  0  0  0  0  0  0  0  0  0  0  0
   50.3340   25.5960   48.7620 H   0  0  0  0  0  0  0  0  0  0  0  0
   50.2850   27.3120   50.2250 H   0  0  0  0  0  0  0  0  0  0  0  0
   51.9950   27.6860   49.6920 H   0  0  0  0  0  0  0  0  0  0  0  0
   51.0110   29.0900   47.8300 H   0  0  0  0  0  0  0  0  0  0  0  0
   47.0360   31.8100   46.8350 C   0  0  0  0  0  0  0  0  0  0  0  0
   46.9550   31.7720   48.2240 C   0  0  0  0  0  0  0  0  0  0  0  0
   47.5500   30.7580   48.8580 C   0  0  0  0  0  0  0  0  0  0  0  0
   48.2370   29.7630   48.1250 C   0  0  0  0  0  0  0  0  0  0  0  0
   48.0180   30.3080   46.4000 S   0  0  0  0  0  0  0  0  0  0  0  0
   46.4280   32.5400   48.7710 H   0  0  0  0  0  0  0  0  0  0  0  0
   47.5910   30.5660   49.9180 H   0  0  0  0  0  0  0  0  0  0  0  0
   45.0550   34.6160   45.4110 C   0  0  0  0  0  0  0  0  0  0  0  0
   45.6430   34.7430   44.1520 C   0  0  0  0  0  0  0  0  0  0  0  0
   46.6880   33.8610   43.8420 C   0  0  0  0  0  0  0  0  0  0  0  0
   47.0700   32.9340   44.7820 N   0  0  0  0  0  0  0  0  0  0  0  0
   46.4580   32.8690   45.9750 C   0  0  0  0  0  0  0  0  0  0  0  0
   45.4440   33.7120   46.2990 N   0  0  0  0  0  0  0  0  0  0  0  0
   44.2370   35.2890   45.6830 H   0  0  0  0  0  0  0  0  0  0  0  0
   45.3320   35.4770   43.4220 H   0  0  0  0  0  0  0  0  0  0  0  0
   47.2060   33.8790   42.8930 H   0  0  0  0  0  0  0  0  0  0  0  0
   50.5370   29.9070   49.7750 C   0  0  0  0  0  0  0  0  0  0  0  0
   49.7730   29.9580   50.7580 O   0  0  0  0  0  0  0  0  0  0  0  0
   51.9530   33.1100   50.1370 H   0  0  0  0  0  0  0  0  0  0  0  0
   51.1520   32.4130   49.8740 C   0  0  0  0  0  0  0  0  0  0  0  0
   50.0250   32.7080   49.4400 O   0  0  0  0  0  0  0  0  0  0  0  0
   51.3230   31.0310   50.0110 N   0  0  0  0  0  0  0  0  0  0  0  0
   52.2450   30.7700   50.3680 H   0  0  0  0  0  0  0  0  0  0  0  0
  1  6  1  0  0  0  0
  1  7  1  1  0  0  0
  2  9  1  0  0  0  0
  2  1  1  0  0  0  0
  3  2  1  0  0  0  0
  3  4  1  0  0  0  0
  4 13  1  0  0  0  0
  4  5  1  0  0  0  0
  5 15  1  0  0  0  0
  5 14  1  0  0  0  0
  6 16  1  6  0  0  0
  6  5  1  0  0  0  0
  6 33  1  0  0  0  0
  8  2  1  0  0  0  0
 10  3  1  0  0  0  0
 11  3  1  0  0  0  0
 12  4  1  0  0  0  0
 17 18  2  0  0  0  0
 18 22  1  0  0  0  0
 18 19  1  0  0  0  0
 19 23  1  0  0  0  0
 20  1  1  0  0  0  0
 20 19  2  0  0  0  0
 21 17  1  0  0  0  0
 21 20  1  0  0  0  0
 24 30  1  0  0  0  0
 24 29  1  0  0  0  0
 25 24  2  0  0  0  0
 26 25  1  0  0  0  0
 26 27  2  0  0  0  0
 27 28  1  0  0  0  0
 28 29  2  0  0  0  0
 28 17  1  0  0  0  0
 31 25  1  0  0  0  0
 32 26  1  0  0  0  0
 33 38  1  0  0  0  0
 33 34  2  0  0  0  0
 36 38  1  0  0  0  0
 36 35  1  0  0  0  0
 37 36  2  0  0  0  0
 38 39  1  0  0  0  0
M  END
>  <minimizedAffinity>
-4.31561852

>  <minimizedRMSD>
2.11754513

$$$$
