
 OpenBabel03252504273D

 18 18  0  0  0  0  0  0  0  0999 V2000
   38.6660   27.2240   43.3820 C   0  0  0  0  0  0  0  0  0  0  0  0
   37.5730   26.8610   42.6030 C   0  0  0  0  0  0  0  0  0  0  0  0
   37.5640   25.5710   42.1090 C   0  0  0  0  0  0  0  0  0  0  0  0
   38.5930   24.7720   42.4090 N   0  0  0  0  0  0  0  0  0  0  0  0
   39.6380   25.1450   43.1630 C   0  0  0  0  0  0  0  0  0  0  0  0
   39.7010   26.4060   43.6790 N   0  0  0  0  0  0  0  0  0  0  0  0
   38.7620   28.2150   43.8130 H   0  0  0  0  0  0  0  0  0  0  0  0
   36.7050   25.3240   41.5120 H   0  0  0  0  0  0  0  0  0  0  0  0
   40.3320   24.3050   43.2520 H   0  0  0  0  0  0  0  0  0  0  0  0
   36.5620   27.9140   42.4100 C   0  0  0  0  0  0  0  0  0  0  0  0
   36.0130   27.7530   41.4540 H   0  0  0  0  0  0  0  0  0  0  0  0
   35.7760   27.7260   43.1990 H   0  0  0  0  0  0  0  0  0  0  0  0
   37.0910   29.1970   42.4720 O   0  0  0  0  0  0  0  0  0  0  0  0
   37.0260   30.1230   41.4390 C   0  0  0  0  0  0  0  0  0  0  0  0
   38.0170   30.2360   40.6630 O   0  0  0  0  0  0  0  0  0  0  0  0
   35.7650   30.8260   41.4430 N   0  0  0  0  0  0  0  0  0  0  0  0
   35.3980   30.3250   40.5930 H   0  0  0  0  0  0  0  0  0  0  0  0
   35.5190   31.5480   42.1510 H   0  0  0  0  0  0  0  0  0  0  0  0
  1  6  1  0  0  0  0
  1  7  1  0  0  0  0
  2  1  2  0  0  0  0
  3  4  2  0  0  0  0
  3  2  1  0  0  0  0
  4  5  1  0  0  0  0
  5  9  1  0  0  0  0
  5  6  2  0  0  0  0
  8  3  1  0  0  0  0
 10 13  1  0  0  0  0
 10  2  1  0  0  0  0
 10 12  1  0  0  0  0
 11 10  1  0  0  0  0
 14 16  1  0  0  0  0
 14 13  1  0  0  0  0
 15 14  2  0  0  0  0
 16 18  1  0  0  0  0
 17 16  1  0  0  0  0
M  END
>  <minimizedAffinity>
-3.70405293

$$$$

 OpenBabel03252504273D

 18 18  0  0  0  0  0  0  0  0999 V2000
   36.5570   27.9170   42.0240 C   0  0  0  0  0  0  0  0  0  0  0  0
   37.0110   29.2160   41.8290 C   0  0  0  0  0  0  0  0  0  0  0  0
   38.1930   29.5600   42.4560 C   0  0  0  0  0  0  0  0  0  0  0  0
   38.8090   28.6330   43.1970 N   0  0  0  0  0  0  0  0  0  0  0  0
   38.3510   27.3840   43.3710 C   0  0  0  0  0  0  0  0  0  0  0  0
   37.1890   26.9870   42.7760 N   0  0  0  0  0  0  0  0  0  0  0  0
   35.6380   27.5540   41.5730 H   0  0  0  0  0  0  0  0  0  0  0  0
   38.5170   30.5710   42.2840 H   0  0  0  0  0  0  0  0  0  0  0  0
   39.0410   26.8370   44.0170 H   0  0  0  0  0  0  0  0  0  0  0  0
   36.1610   30.0570   40.9700 C   0  0  0  0  0  0  0  0  0  0  0  0
   36.0800   29.6120   39.9520 H   0  0  0  0  0  0  0  0  0  0  0  0
   35.1160   29.9530   41.3860 H   0  0  0  0  0  0  0  0  0  0  0  0
   36.5860   31.3780   40.9060 O   0  0  0  0  0  0  0  0  0  0  0  0
   36.9410   32.0320   39.7330 C   0  0  0  0  0  0  0  0  0  0  0  0
   37.1440   31.3440   38.6940 O   0  0  0  0  0  0  0  0  0  0  0  0
   37.0150   33.4600   39.9310 N   0  0  0  0  0  0  0  0  0  0  0  0
   36.1280   33.6550   39.3980 H   0  0  0  0  0  0  0  0  0  0  0  0
   37.7830   33.9220   40.4600 H   0  0  0  0  0  0  0  0  0  0  0  0
  1  6  1  0  0  0  0
  2  1  2  0  0  0  0
  2  3  1  0  0  0  0
  3  4  2  0  0  0  0
  4  5  1  0  0  0  0
  5  9  1  0  0  0  0
  6  5  2  0  0  0  0
  7  1  1  0  0  0  0
  8  3  1  0  0  0  0
 10 12  1  0  0  0  0
 10  2  1  0  0  0  0
 11 10  1  0  0  0  0
 13 10  1  0  0  0  0
 14 16  1  0  0  0  0
 14 13  1  0  0  0  0
 15 14  2  0  0  0  0
 16 18  1  0  0  0  0
 17 16  1  0  0  0  0
M  END
>  <minimizedAffinity>
-3.65856552

$$$$

 OpenBabel03252504273D

 18 18  0  0  0  0  0  0  0  0999 V2000
   39.1670   31.7740   39.1150 C   0  0  0  0  0  0  0  0  0  0  0  0
   37.8080   32.0600   39.1640 C   0  0  0  0  0  0  0  0  0  0  0  0
   37.4540   33.3110   39.6330 C   0  0  0  0  0  0  0  0  0  0  0  0
   38.4300   34.1470   40.0030 N   0  0  0  0  0  0  0  0  0  0  0  0
   39.7370   33.8470   39.9470 C   0  0  0  0  0  0  0  0  0  0  0  0
   40.1460   32.6280   39.4920 N   0  0  0  0  0  0  0  0  0  0  0  0
   39.5420   30.8180   38.7620 H   0  0  0  0  0  0  0  0  0  0  0  0
   36.3960   33.5000   39.6580 H   0  0  0  0  0  0  0  0  0  0  0  0
   40.3140   34.7030   40.3050 H   0  0  0  0  0  0  0  0  0  0  0  0
   36.9210   30.9800   38.7030 C   0  0  0  0  0  0  0  0  0  0  0  0
   35.9050   31.3810   38.4790 H   0  0  0  0  0  0  0  0  0  0  0  0
   37.3140   30.6800   37.6870 H   0  0  0  0  0  0  0  0  0  0  0  0
   36.8530   29.9130   39.5890 O   0  0  0  0  0  0  0  0  0  0  0  0
   35.8350   29.7270   40.5160 C   0  0  0  0  0  0  0  0  0  0  0  0
   35.2220   28.6230   40.5310 O   0  0  0  0  0  0  0  0  0  0  0  0
   35.6580   30.8990   41.3400 N   0  0  0  0  0  0  0  0  0  0  0  0
   36.0860   30.4560   42.1940 H   0  0  0  0  0  0  0  0  0  0  0  0
   35.2250   31.7790   40.9920 H   0  0  0  0  0  0  0  0  0  0  0  0
  1  2  2  0  0  0  0
  1  6  1  0  0  0  0
  2  3  1  0  0  0  0
  3  8  1  0  0  0  0
  3  4  2  0  0  0  0
  5  4  1  0  0  0  0
  5  9  1  0  0  0  0
  6  5  2  0  0  0  0
  7  1  1  0  0  0  0
 10  2  1  0  0  0  0
 10 13  1  0  0  0  0
 11 10  1  0  0  0  0
 12 10  1  0  0  0  0
 13 14  1  0  0  0  0
 14 15  2  0  0  0  0
 14 16  1  0  0  0  0
 16 17  1  0  0  0  0
 18 16  1  0  0  0  0
M  END
>  <minimizedAffinity>
-3.50234628

$$$$

 OpenBabel03252504273D

 18 18  0  0  0  0  0  0  0  0999 V2000
   38.0380   29.6740   41.9500 C   0  0  0  0  0  0  0  0  0  0  0  0
   36.7860   29.6980   41.3440 C   0  0  0  0  0  0  0  0  0  0  0  0
   36.1310   28.4880   41.2270 C   0  0  0  0  0  0  0  0  0  0  0  0
   36.7380   27.3920   41.6970 N   0  0  0  0  0  0  0  0  0  0  0  0
   37.9470   27.3940   42.2770 C   0  0  0  0  0  0  0  0  0  0  0  0
   38.6420   28.5600   42.4210 N   0  0  0  0  0  0  0  0  0  0  0  0
   38.6290   30.5750   42.0860 H   0  0  0  0  0  0  0  0  0  0  0  0
   35.1670   28.5410   40.7560 H   0  0  0  0  0  0  0  0  0  0  0  0
   38.2050   26.3730   42.5680 H   0  0  0  0  0  0  0  0  0  0  0  0
   36.3250   31.0260   40.9070 C   0  0  0  0  0  0  0  0  0  0  0  0
   35.3090   30.9530   40.4560 H   0  0  0  0  0  0  0  0  0  0  0  0
   36.1490   31.6120   41.8570 H   0  0  0  0  0  0  0  0  0  0  0  0
   37.2120   31.6560   40.0430 O   0  0  0  0  0  0  0  0  0  0  0  0
   37.7400   32.9240   40.2480 C   0  0  0  0  0  0  0  0  0  0  0  0
   38.7410   33.0490   41.0070 O   0  0  0  0  0  0  0  0  0  0  0  0
   37.0030   33.9230   39.5110 N   0  0  0  0  0  0  0  0  0  0  0  0
   37.7650   34.0660   38.7980 H   0  0  0  0  0  0  0  0  0  0  0  0
   36.0490   34.2400   39.7790 H   0  0  0  0  0  0  0  0  0  0  0  0
  1  7  1  0  0  0  0
  1  6  1  0  0  0  0
  2  1  2  0  0  0  0
  3  2  1  0  0  0  0
  3  4  2  0  0  0  0
  4  5  1  0  0  0  0
  5  6  2  0  0  0  0
  5  9  1  0  0  0  0
  8  3  1  0  0  0  0
 10  2  1  0  0  0  0
 10 12  1  0  0  0  0
 11 10  1  0  0  0  0
 13 14  1  0  0  0  0
 13 10  1  0  0  0  0
 14 15  2  0  0  0  0
 16 18  1  0  0  0  0
 16 14  1  0  0  0  0
 17 16  1  0  0  0  0
M  END
>  <minimizedAffinity>
-3.43024302

$$$$

 OpenBabel03252504273D

 18 18  0  0  0  0  0  0  0  0999 V2000
   38.2190   26.1270   42.5130 C   0  0  0  0  0  0  0  0  0  0  0  0
   37.2580   26.6170   41.6360 C   0  0  0  0  0  0  0  0  0  0  0  0
   36.9260   25.8100   40.5650 C   0  0  0  0  0  0  0  0  0  0  0  0
   37.5450   24.6300   40.4460 N   0  0  0  0  0  0  0  0  0  0  0  0
   38.4700   24.1780   41.3060 C   0  0  0  0  0  0  0  0  0  0  0  0
   38.8370   24.9310   42.3830 N   0  0  0  0  0  0  0  0  0  0  0  0
   38.5450   26.6890   43.3820 H   0  0  0  0  0  0  0  0  0  0  0  0
   36.1800   26.2190   39.9070 H   0  0  0  0  0  0  0  0  0  0  0  0
   38.8100   23.1930   40.9780 H   0  0  0  0  0  0  0  0  0  0  0  0
   36.7180   27.9450   41.9740 C   0  0  0  0  0  0  0  0  0  0  0  0
   35.7430   27.8420   42.5030 H   0  0  0  0  0  0  0  0  0  0  0  0
   37.4060   28.3560   42.7690 H   0  0  0  0  0  0  0  0  0  0  0  0
   36.6040   28.7850   40.8730 O   0  0  0  0  0  0  0  0  0  0  0  0
   35.5180   29.6150   40.6300 C   0  0  0  0  0  0  0  0  0  0  0  0
   34.5730   29.1830   39.9120 O   0  0  0  0  0  0  0  0  0  0  0  0
   35.6800   30.8940   41.2800 N   0  0  0  0  0  0  0  0  0  0  0  0
   34.9580   30.6930   42.0200 H   0  0  0  0  0  0  0  0  0  0  0  0
   36.3510   31.6180   40.9520 H   0  0  0  0  0  0  0  0  0  0  0  0
  1  7  1  0  0  0  0
  2 10  1  0  0  0  0
  2  1  2  0  0  0  0
  3  2  1  0  0  0  0
  4  3  2  0  0  0  0
  4  5  1  0  0  0  0
  5  6  2  0  0  0  0
  6  1  1  0  0  0  0
  8  3  1  0  0  0  0
  9  5  1  0  0  0  0
 10 11  1  0  0  0  0
 10 12  1  0  0  0  0
 13 10  1  0  0  0  0
 14 13  1  0  0  0  0
 14 16  1  0  0  0  0
 15 14  2  0  0  0  0
 16 17  1  0  0  0  0
 18 16  1  0  0  0  0
M  END
>  <minimizedAffinity>
-3.38124776

$$$$

 OpenBabel03252504273D

 18 18  0  0  0  0  0  0  0  0999 V2000
   39.3360   27.9220   41.4120 C   0  0  0  0  0  0  0  0  0  0  0  0
   38.7590   29.0520   41.9800 C   0  0  0  0  0  0  0  0  0  0  0  0
   38.0760   28.8690   43.1670 C   0  0  0  0  0  0  0  0  0  0  0  0
   38.0180   27.6340   43.6800 N   0  0  0  0  0  0  0  0  0  0  0  0
   38.5830   26.5580   43.1120 C   0  0  0  0  0  0  0  0  0  0  0  0
   39.2710   26.6780   41.9390 N   0  0  0  0  0  0  0  0  0  0  0  0
   39.8920   27.9670   40.4800 H   0  0  0  0  0  0  0  0  0  0  0  0
   37.6430   29.7610   43.5800 H   0  0  0  0  0  0  0  0  0  0  0  0
   38.3860   25.6820   43.7330 H   0  0  0  0  0  0  0  0  0  0  0  0
   38.9580   30.3040   41.2310 C   0  0  0  0  0  0  0  0  0  0  0  0
   39.1280   31.1520   41.9340 H   0  0  0  0  0  0  0  0  0  0  0  0
   39.9540   30.1890   40.7110 H   0  0  0  0  0  0  0  0  0  0  0  0
   37.9200   30.5850   40.3510 O   0  0  0  0  0  0  0  0  0  0  0  0
   36.9520   31.5570   40.5650 C   0  0  0  0  0  0  0  0  0  0  0  0
   37.1860   32.7390   40.1840 O   0  0  0  0  0  0  0  0  0  0  0  0
   35.7900   31.0050   41.2200 N   0  0  0  0  0  0  0  0  0  0  0  0
   35.1900   31.0480   40.3560 H   0  0  0  0  0  0  0  0  0  0  0  0
   35.7810   30.7280   42.2230 H   0  0  0  0  0  0  0  0  0  0  0  0
  1  6  2  0  0  0  0
  1  2  1  0  0  0  0
  2  3  2  0  0  0  0
  3  8  1  0  0  0  0
  3  4  1  0  0  0  0
  5  4  2  0  0  0  0
  5  9  1  0  0  0  0
  6  5  1  0  0  0  0
  7  1  1  0  0  0  0
 10 11  1  0  0  0  0
 10  2  1  0  0  0  0
 12 10  1  0  0  0  0
 13 14  1  0  0  0  0
 13 10  1  0  0  0  0
 14 16  1  0  0  0  0
 15 14  2  0  0  0  0
 16 18  1  0  0  0  0
 17 16  1  0  0  0  0
M  END
>  <minimizedAffinity>
-3.38042974

$$$$

 OpenBabel03252504273D

 18 18  0  0  0  0  0  0  0  0999 V2000
   36.3330   29.9990   38.8040 C   0  0  0  0  0  0  0  0  0  0  0  0
   36.1040   30.0740   40.1730 C   0  0  0  0  0  0  0  0  0  0  0  0
   36.5130   31.2310   40.8080 C   0  0  0  0  0  0  0  0  0  0  0  0
   37.0930   32.1850   40.0720 N   0  0  0  0  0  0  0  0  0  0  0  0
   37.3050   32.0890   38.7500 C   0  0  0  0  0  0  0  0  0  0  0  0
   36.9220   30.9710   38.0700 N   0  0  0  0  0  0  0  0  0  0  0  0
   36.0480   29.1300   38.2190 H   0  0  0  0  0  0  0  0  0  0  0  0
   36.3200   31.2570   41.8650 H   0  0  0  0  0  0  0  0  0  0  0  0
   37.7910   33.0020   38.4000 H   0  0  0  0  0  0  0  0  0  0  0  0
   35.4480   28.8970   40.7660 C   0  0  0  0  0  0  0  0  0  0  0  0
   34.7610   29.2090   41.5860 H   0  0  0  0  0  0  0  0  0  0  0  0
   34.7460   28.5090   39.9690 H   0  0  0  0  0  0  0  0  0  0  0  0
   36.3470   27.9330   41.2050 O   0  0  0  0  0  0  0  0  0  0  0  0
   37.0350   27.9940   42.4110 C   0  0  0  0  0  0  0  0  0  0  0  0
   38.2610   28.2950   42.3950 O   0  0  0  0  0  0  0  0  0  0  0  0
   36.1690   27.6850   43.5240 N   0  0  0  0  0  0  0  0  0  0  0  0
   36.1240   28.6810   43.8630 H   0  0  0  0  0  0  0  0  0  0  0  0
   35.8270   26.7230   43.7280 H   0  0  0  0  0  0  0  0  0  0  0  0
  1  2  1  0  0  0  0
  2 10  1  0  0  0  0
  2  3  2  0  0  0  0
  3  8  1  0  0  0  0
  4  3  1  0  0  0  0
  5  4  2  0  0  0  0
  6  5  1  0  0  0  0
  6  1  2  0  0  0  0
  7  1  1  0  0  0  0
  9  5  1  0  0  0  0
 10 13  1  0  0  0  0
 10 11  1  0  0  0  0
 12 10  1  0  0  0  0
 13 14  1  0  0  0  0
 14 16  1  0  0  0  0
 15 14  2  0  0  0  0
 16 18  1  0  0  0  0
 16 17  1  0  0  0  0
M  END
>  <minimizedAffinity>
-3.33156919

$$$$

 OpenBabel03252504273D

 18 18  0  0  0  0  0  0  0  0999 V2000
   39.1470   31.7290   40.8880 C   0  0  0  0  0  0  0  0  0  0  0  0
   37.9410   31.2920   40.3500 C   0  0  0  0  0  0  0  0  0  0  0  0
   37.1200   32.2590   39.8030 C   0  0  0  0  0  0  0  0  0  0  0  0
   37.5360   33.5300   39.8280 N   0  0  0  0  0  0  0  0  0  0  0  0
   38.7050   33.9280   40.3530 C   0  0  0  0  0  0  0  0  0  0  0  0
   39.5570   33.0170   40.9070 N   0  0  0  0  0  0  0  0  0  0  0  0
   39.8570   31.0440   41.3400 H   0  0  0  0  0  0  0  0  0  0  0  0
   36.1970   31.8890   39.3960 H   0  0  0  0  0  0  0  0  0  0  0  0
   38.7960   35.0110   40.2420 H   0  0  0  0  0  0  0  0  0  0  0  0
   37.7020   29.8430   40.4390 C   0  0  0  0  0  0  0  0  0  0  0  0
   37.4070   29.4380   39.4430 H   0  0  0  0  0  0  0  0  0  0  0  0
   38.7170   29.3800   40.6200 H   0  0  0  0  0  0  0  0  0  0  0  0
   36.7730   29.5000   41.4130 O   0  0  0  0  0  0  0  0  0  0  0  0
   36.9390   28.4680   42.3270 C   0  0  0  0  0  0  0  0  0  0  0  0
   36.9910   27.2810   41.8990 O   0  0  0  0  0  0  0  0  0  0  0  0
   37.0270   28.9740   43.6770 N   0  0  0  0  0  0  0  0  0  0  0  0
   38.0600   28.7880   43.7590 H   0  0  0  0  0  0  0  0  0  0  0  0
   36.2090   29.3490   44.1980 H   0  0  0  0  0  0  0  0  0  0  0  0
  1  6  1  0  0  0  0
  1  7  1  0  0  0  0
  2 10  1  0  0  0  0
  2  1  2  0  0  0  0
  3  4  2  0  0  0  0
  3  2  1  0  0  0  0
  4  5  1  0  0  0  0
  5  6  2  0  0  0  0
  8  3  1  0  0  0  0
  9  5  1  0  0  0  0
 10 12  1  0  0  0  0
 10 13  1  0  0  0  0
 11 10  1  0  0  0  0
 13 14  1  0  0  0  0
 14 16  1  0  0  0  0
 15 14  2  0  0  0  0
 16 17  1  0  0  0  0
 16 18  1  0  0  0  0
M  END
>  <minimizedAffinity>
-3.24366021

$$$$

 OpenBabel03252504273D

 18 18  0  0  0  0  0  0  0  0999 V2000
   38.4080   26.2290   40.0810 C   0  0  0  0  0  0  0  0  0  0  0  0
   37.3530   26.5830   40.9140 C   0  0  0  0  0  0  0  0  0  0  0  0
   37.2020   25.8430   42.0710 C   0  0  0  0  0  0  0  0  0  0  0  0
   38.0690   24.8520   42.3070 N   0  0  0  0  0  0  0  0  0  0  0  0
   39.0800   24.5290   41.4860 C   0  0  0  0  0  0  0  0  0  0  0  0
   39.2790   25.2250   40.3290 N   0  0  0  0  0  0  0  0  0  0  0  0
   38.6060   26.7510   39.1500 H   0  0  0  0  0  0  0  0  0  0  0  0
   36.3780   26.1430   42.6930 H   0  0  0  0  0  0  0  0  0  0  0  0
   39.6320   23.6890   41.9140 H   0  0  0  0  0  0  0  0  0  0  0  0
   36.5310   27.7100   40.4440 C   0  0  0  0  0  0  0  0  0  0  0  0
   37.0320   28.2250   39.5920 H   0  0  0  0  0  0  0  0  0  0  0  0
   35.6200   27.2420   39.9680 H   0  0  0  0  0  0  0  0  0  0  0  0
   36.2100   28.6100   41.4520 O   0  0  0  0  0  0  0  0  0  0  0  0
   36.7220   29.8970   41.5470 C   0  0  0  0  0  0  0  0  0  0  0  0
   37.9500   30.0430   41.8040 O   0  0  0  0  0  0  0  0  0  0  0  0
   35.6970   30.8880   41.3220 N   0  0  0  0  0  0  0  0  0  0  0  0
   36.0590   31.1550   40.3700 H   0  0  0  0  0  0  0  0  0  0  0  0
   34.9480   31.0990   42.0130 H   0  0  0  0  0  0  0  0  0  0  0  0
  1  6  2  0  0  0  0
  1  2  1  0  0  0  0
  2  3  2  0  0  0  0
  3  4  1  0  0  0  0
  3  8  1  0  0  0  0
  5  9  1  0  0  0  0
  5  4  2  0  0  0  0
  6  5  1  0  0  0  0
  7  1  1  0  0  0  0
 10  2  1  0  0  0  0
 10 13  1  0  0  0  0
 11 10  1  0  0  0  0
 12 10  1  0  0  0  0
 13 14  1  0  0  0  0
 14 15  2  0  0  0  0
 16 14  1  0  0  0  0
 16 18  1  0  0  0  0
 17 16  1  0  0  0  0
M  END
>  <minimizedAffinity>
-3.23598504

$$$$
