
 OpenBabel03252509193D

 39 41  0  0  1  0  0  0  0  0999 V2000
   47.1080   27.8690   47.2980 C   0  0  1  0  0  0  0  0  0  0  0  0
   47.6310   26.5160   47.5870 C   0  0  0  0  0  0  0  0  0  0  0  0
   49.1170   26.4570   47.8130 C   0  0  0  0  0  0  0  0  0  0  0  0
   49.6200   27.5670   48.6950 C   0  0  0  0  0  0  0  0  0  0  0  0
   49.0460   28.9070   48.3220 C   0  0  0  0  0  0  0  0  0  0  0  0
   48.2950   28.8090   46.9930 C   0  0  2  0  0  0  0  0  0  0  0  0
   46.6800   28.2790   48.2270 H   0  0  0  0  0  0  0  0  0  0  0  0
   47.4380   25.8630   46.6880 H   0  0  0  0  0  0  0  0  0  0  0  0
   47.1230   26.0570   48.4500 H   0  0  0  0  0  0  0  0  0  0  0  0
   49.3160   25.5030   48.3370 H   0  0  0  0  0  0  0  0  0  0  0  0
   49.6900   26.4200   46.8720 H   0  0  0  0  0  0  0  0  0  0  0  0
   50.7060   27.5490   48.7420 H   0  0  0  0  0  0  0  0  0  0  0  0
   49.2550   27.3370   49.7390 H   0  0  0  0  0  0  0  0  0  0  0  0
   48.3190   29.2780   49.0750 H   0  0  0  0  0  0  0  0  0  0  0  0
   49.8850   29.6160   48.1890 H   0  0  0  0  0  0  0  0  0  0  0  0
   48.9370   28.3460   46.2150 H   0  0  0  0  0  0  0  0  0  0  0  0
   43.7900   28.2970   44.9510 C   0  0  0  0  0  0  0  0  0  0  0  0
   44.8250   27.6430   44.2870 C   0  0  0  0  0  0  0  0  0  0  0  0
   45.9670   27.4440   44.9510 C   0  0  0  0  0  0  0  0  0  0  0  0
   46.1040   27.8910   46.2850 C   0  0  0  0  0  0  0  0  0  0  0  0
   44.4850   28.6560   46.6240 S   0  0  0  0  0  0  0  0  0  0  0  0
   44.7050   27.3070   43.2670 H   0  0  0  0  0  0  0  0  0  0  0  0
   46.8650   26.9620   44.6010 H   0  0  0  0  0  0  0  0  0  0  0  0
   40.8600   28.8230   42.7230 C   0  0  0  0  0  0  0  0  0  0  0  0
   39.8700   29.1300   43.6570 C   0  0  0  0  0  0  0  0  0  0  0  0
   40.2470   29.1480   45.0070 C   0  0  0  0  0  0  0  0  0  0  0  0
   41.5520   28.8670   45.3310 N   0  0  0  0  0  0  0  0  0  0  0  0
   42.4530   28.5800   44.3790 C   0  0  0  0  0  0  0  0  0  0  0  0
   42.1130   28.5560   43.0640 N   0  0  0  0  0  0  0  0  0  0  0  0
   40.5980   28.8010   41.6610 H   0  0  0  0  0  0  0  0  0  0  0  0
   38.8460   29.3490   43.3870 H   0  0  0  0  0  0  0  0  0  0  0  0
   39.5530   29.3740   45.8050 H   0  0  0  0  0  0  0  0  0  0  0  0
   47.7980   30.1370   46.6260 C   0  0  0  0  0  0  0  0  0  0  0  0
   47.9930   30.6440   45.5050 O   0  0  0  0  0  0  0  0  0  0  0  0
   46.5540   32.8250   48.5320 H   0  0  0  0  0  0  0  0  0  0  0  0
   47.3280   32.1180   48.2140 C   0  0  0  0  0  0  0  0  0  0  0  0
   48.4940   32.0550   48.6400 O   0  0  0  0  0  0  0  0  0  0  0  0
   47.0670   31.1520   47.2370 N   0  0  0  0  0  0  0  0  0  0  0  0
   46.1110   31.1890   46.8750 H   0  0  0  0  0  0  0  0  0  0  0  0
  1  2  1  0  0  0  0
  1  7  1  1  0  0  0
  2  3  1  0  0  0  0
  2  9  1  0  0  0  0
  3 10  1  0  0  0  0
  3  4  1  0  0  0  0
  4 12  1  0  0  0  0
  4 13  1  0  0  0  0
  5  4  1  0  0  0  0
  5 14  1  0  0  0  0
  6 16  1  6  0  0  0
  6  1  1  0  0  0  0
  6  5  1  0  0  0  0
  8  2  1  0  0  0  0
 11  3  1  0  0  0  0
 15  5  1  0  0  0  0
 17 21  1  0  0  0  0
 18 19  1  0  0  0  0
 18 17  2  0  0  0  0
 19 20  2  0  0  0  0
 20 21  1  0  0  0  0
 20  1  1  0  0  0  0
 22 18  1  0  0  0  0
 23 19  1  0  0  0  0
 24 29  2  0  0  0  0
 24 25  1  0  0  0  0
 25 26  2  0  0  0  0
 26 27  1  0  0  0  0
 26 32  1  0  0  0  0
 28 17  1  0  0  0  0
 28 27  2  0  0  0  0
 29 28  1  0  0  0  0
 30 24  1  0  0  0  0
 31 25  1  0  0  0  0
 33  6  1  0  0  0  0
 33 38  1  0  0  0  0
 34 33  2  0  0  0  0
 36 35  1  0  0  0  0
 36 37  2  0  0  0  0
 38 36  1  0  0  0  0
 39 38  1  0  0  0  0
M  END
>  <minimizedAffinity>
-3.42468381

>  <minimizedRMSD>
5.07995033

$$$$
