
 OpenBabel03242523553D

 41 43  0  0  1  0  0  0  0  0999 V2000
   42.8110   34.5370   38.7360 C   0  0  1  0  0  0  0  0  0  0  0  0
   42.9510   35.1830   40.1050 C   0  0  1  0  0  0  0  0  0  0  0  0
   41.6610   35.3930   40.6270 O   0  0  0  0  0  0  0  0  0  0  0  0
   40.7280   35.7400   39.6400 C   0  0  0  0  0  0  0  0  0  0  0  0
   40.4310   34.5770   38.7180 C   0  0  2  0  0  0  0  0  0  0  0  0
   41.6490   33.6050   38.8390 C   0  0  1  0  0  0  0  0  0  0  0  0
   43.7540   34.0060   38.4850 H   0  0  0  0  0  0  0  0  0  0  0  0
   43.5180   36.1290   40.0780 H   0  0  0  0  0  0  0  0  0  0  0  0
   41.0270   36.6490   39.0940 H   0  0  0  0  0  0  0  0  0  0  0  0
   39.8060   35.9700   40.1790 H   0  0  0  0  0  0  0  0  0  0  0  0
   39.5060   34.0380   38.9890 H   0  0  0  0  0  0  0  0  0  0  0  0
   41.4410   33.3090   39.9200 H   0  0  0  0  0  0  0  0  0  0  0  0
   42.5870   35.5070   37.7440 O   0  0  0  0  0  0  0  0  0  0  0  0
   43.1470   36.3100   37.9680 H   0  0  0  0  0  0  0  0  0  0  0  0
   40.4410   35.0030   37.4000 O   0  0  0  0  0  0  0  0  0  0  0  0
   40.5010   34.2740   36.7510 H   0  0  0  0  0  0  0  0  0  0  0  0
   43.4970   34.1910   40.9320 O   0  0  0  0  0  0  0  0  0  0  0  0
   44.5960   34.3340   41.6790 C   0  0  0  0  0  0  0  0  0  0  0  0
   45.8600   34.4370   41.0910 C   0  0  0  0  0  0  0  0  0  0  0  0
   46.9720   34.5860   41.8980 C   0  0  0  0  0  0  0  0  0  0  0  0
   46.8000   34.6270   43.2730 N   0  0  0  0  0  0  0  0  0  0  0  0
   45.5640   34.5230   43.8100 C   0  0  0  0  0  0  0  0  0  0  0  0
   44.4720   34.3770   43.0160 N   0  0  0  0  0  0  0  0  0  0  0  0
   45.9600   34.4020   40.0280 H   0  0  0  0  0  0  0  0  0  0  0  0
   45.4360   34.5540   44.8740 H   0  0  0  0  0  0  0  0  0  0  0  0
   48.3550   34.6830   41.3360 C   0  0  0  0  0  0  0  0  0  0  0  0
   49.0730   36.0190   41.5080 C   0  0  0  0  0  0  0  0  0  0  0  0
   49.4990   34.7030   42.1910 C   0  0  0  0  0  0  0  0  0  0  0  0
   48.4130   34.2380   40.3080 H   0  0  0  0  0  0  0  0  0  0  0  0
   49.7200   36.3010   40.6740 H   0  0  0  0  0  0  0  0  0  0  0  0
   48.5200   36.7660   42.0940 H   0  0  0  0  0  0  0  0  0  0  0  0
   50.4770   34.2890   41.9290 H   0  0  0  0  0  0  0  0  0  0  0  0
   49.3460   34.7470   43.2980 H   0  0  0  0  0  0  0  0  0  0  0  0
   41.5230   32.6670   37.8770 O   0  0  0  0  0  0  0  0  0  0  0  0
   40.9340   31.4730   37.8690 C   0  0  0  0  0  0  0  0  0  0  0  0
   39.6270   31.3250   37.6780 O   0  0  0  0  0  0  0  0  0  0  0  0
   42.6590   28.4280   37.4590 H   0  0  0  0  0  0  0  0  0  0  0  0
   42.3790   29.4440   37.2220 C   0  0  0  0  0  0  0  0  0  0  0  0
   42.8590   30.0740   36.2470 O   0  0  0  0  0  0  0  0  0  0  0  0
   41.4340   30.1080   38.0330 N   0  0  0  0  0  0  0  0  0  0  0  0
   41.0630   29.5560   38.8240 H   0  0  0  0  0  0  0  0  0  0  0  0
  1  7  1  6  0  0  0
  1  6  1  0  0  0  0
  1  2  1  0  0  0  0
  2  8  1  6  0  0  0
  2  3  1  0  0  0  0
  2 17  1  0  0  0  0
  4 10  1  0  0  0  0
  4  3  1  0  0  0  0
  5  6  1  0  0  0  0
  5 11  1  1  0  0  0
  5  4  1  0  0  0  0
  6 12  1  1  0  0  0
  9  4  1  0  0  0  0
 13 14  1  0  0  0  0
 13  1  1  0  0  0  0
 15  5  1  0  0  0  0
 16 15  1  0  0  0  0
 17 18  1  0  0  0  0
 18 23  1  0  0  0  0
 19 18  2  0  0  0  0
 19 20  1  0  0  0  0
 20 21  2  0  0  0  0
 21 22  1  0  0  0  0
 22 25  1  0  0  0  0
 23 22  2  0  0  0  0
 24 19  1  0  0  0  0
 26 27  1  0  0  0  0
 26 20  1  0  0  0  0
 26 28  1  0  0  0  0
 27 31  1  0  0  0  0
 27 28  1  0  0  0  0
 28 33  1  0  0  0  0
 29 26  1  0  0  0  0
 30 27  1  0  0  0  0
 32 28  1  0  0  0  0
 34  6  1  0  0  0  0
 35 34  1  0  0  0  0
 35 40  1  0  0  0  0
 36 35  2  0  0  0  0
 38 37  1  0  0  0  0
 38 40  1  0  0  0  0
 39 38  2  0  0  0  0
 40 41  1  0  0  0  0
M  END
>  <minimizedAffinity>
-5.82663059

>  <minimizedRMSD>
0.129058167

$$$$
