
 OpenBabel03252507503D

 41 42  0  0  0  0  0  0  0  0999 V2000
   39.0570   27.1770   43.4590 C   0  0  0  0  0  0  0  0  0  0  0  0
   38.4110   28.0860   43.2770 H   0  0  0  0  0  0  0  0  0  0  0  0
   38.8940   26.9050   44.5090 H   0  0  0  0  0  0  0  0  0  0  0  0
   38.6090   26.1320   42.5280 C   0  0  0  0  0  0  0  0  0  0  0  0
   37.4680   26.3980   41.7710 C   0  0  0  0  0  0  0  0  0  0  0  0
   36.9900   25.4610   40.8760 C   0  0  0  0  0  0  0  0  0  0  0  0
   37.6930   24.2680   40.7740 N   0  0  0  0  0  0  0  0  0  0  0  0
   38.7930   24.0540   41.5260 C   0  0  0  0  0  0  0  0  0  0  0  0
   39.2310   24.9740   42.3800 N   0  0  0  0  0  0  0  0  0  0  0  0
   36.1080   25.6730   40.2960 H   0  0  0  0  0  0  0  0  0  0  0  0
   39.2720   23.1050   41.3810 H   0  0  0  0  0  0  0  0  0  0  0  0
   36.6240   27.9540   41.9630 S   0  0  0  0  0  0  0  0  0  0  0  0
   36.7250   28.9110   40.4310 C   0  0  0  0  0  0  0  0  0  0  0  0
   37.6680   29.4700   40.3370 H   0  0  0  0  0  0  0  0  0  0  0  0
   36.6990   28.2010   39.5690 H   0  0  0  0  0  0  0  0  0  0  0  0
   35.5300   29.8320   40.3550 C   0  0  0  0  0  0  0  0  0  0  0  0
   34.5890   29.3210   40.7050 H   0  0  0  0  0  0  0  0  0  0  0  0
   35.3130   30.1660   39.3190 H   0  0  0  0  0  0  0  0  0  0  0  0
   35.7400   30.9310   41.2470 N   0  0  0  0  0  0  0  0  0  0  0  0
   34.8660   31.1830   41.7990 H   0  0  0  0  0  0  0  0  0  0  0  0
   36.5360   30.7430   41.9070 H   0  0  0  0  0  0  0  0  0  0  0  0
   40.4660   27.6170   43.2560 C   0  0  0  0  0  0  0  0  0  0  0  0
   40.9990   27.5570   44.2510 H   0  0  0  0  0  0  0  0  0  0  0  0
   41.0180   26.9090   42.5930 H   0  0  0  0  0  0  0  0  0  0  0  0
   40.6020   29.0050   42.7710 C   0  0  0  0  0  0  0  0  0  0  0  0
   41.8550   29.6520   42.8180 C   0  0  0  0  0  0  0  0  0  0  0  0
   41.5260   31.2990   42.1310 S   0  0  0  0  0  0  0  0  0  0  0  0
   39.6760   30.8500   41.8740 C   0  0  0  0  0  0  0  0  0  0  0  0
   39.6710   29.7730   42.2730 N   0  0  0  0  0  0  0  0  0  0  0  0
   42.8040   29.2760   43.1750 H   0  0  0  0  0  0  0  0  0  0  0  0
   38.7420   31.7170   41.3380 O   0  0  0  0  0  0  0  0  0  0  0  0
   37.6100   32.3250   39.0150 O   0  0  0  0  0  0  0  0  0  0  0  0
   38.9590   32.1590   39.7080 P   0  0  1  0  0  0  0  0  0  0  0  0
   39.8030   33.6200   39.6410 O   0  0  0  0  0  0  0  0  0  0  0  0
   39.5220   34.2730   40.3120 H   0  0  0  0  0  0  0  0  0  0  0  0
   39.8900   30.9780   38.9090 O   0  0  0  0  0  0  0  0  0  0  0  0
   40.3990   31.3500   37.6660 C   0  0  0  0  0  0  0  0  0  0  0  0
   41.4370   30.7440   37.2310 O   0  0  0  0  0  0  0  0  0  0  0  0
   39.8530   32.3560   36.8390 N   0  0  0  0  0  0  0  0  0  0  0  0
   39.0930   31.8670   36.3210 H   0  0  0  0  0  0  0  0  0  0  0  0
   39.9390   33.3740   36.5740 H   0  0  0  0  0  0  0  0  0  0  0  0
  1  3  1  0  0  0  0
  2  1  1  0  0  0  0
  4  1  1  0  0  0  0
  5 12  1  0  0  0  0
  5  4  2  0  0  0  0
  6  5  1  0  0  0  0
  7  6  2  0  0  0  0
  7  8  1  0  0  0  0
  8  9  2  0  0  0  0
  9  4  1  0  0  0  0
 10  6  1  0  0  0  0
 11  8  1  0  0  0  0
 13 12  1  0  0  0  0
 14 13  1  0  0  0  0
 15 13  1  0  0  0  0
 16 13  1  0  0  0  0
 16 17  1  0  0  0  0
 16 19  1  0  0  0  0
 18 16  1  0  0  0  0
 19 20  1  0  0  0  0
 19 21  1  0  0  0  0
 22  1  1  0  0  0  0
 22 23  1  0  0  0  0
 24 22  1  0  0  0  0
 25 26  2  0  0  0  0
 25 22  1  0  0  0  0
 26 30  1  0  0  0  0
 27 26  1  0  0  0  0
 28 27  1  0  0  0  0
 28 29  2  0  0  0  0
 29 25  1  0  0  0  0
 31 28  1  0  0  0  0
 33 32  2  6  0  0  0
 33 31  1  0  0  0  0
 34 33  1  0  0  0  0
 34 35  1  0  0  0  0
 36 33  1  0  0  0  0
 37 36  1  0  0  0  0
 38 37  2  0  0  0  0
 39 37  1  0  0  0  0
 40 39  1  0  0  0  0
 41 39  1  0  0  0  0
M  END
>  <minimizedAffinity>
-4.98804617

$$$$

 OpenBabel03252507503D

 41 42  0  0  0  0  0  0  0  0999 V2000
   37.2400   27.2520   42.8090 C   0  0  0  0  0  0  0  0  0  0  0  0
   36.9120   27.0650   41.7440 H   0  0  0  0  0  0  0  0  0  0  0  0
   36.4430   26.8420   43.4400 H   0  0  0  0  0  0  0  0  0  0  0  0
   38.5230   26.5590   42.9960 C   0  0  0  0  0  0  0  0  0  0  0  0
   38.5960   25.2300   42.5830 C   0  0  0  0  0  0  0  0  0  0  0  0
   39.7710   24.5170   42.7290 C   0  0  0  0  0  0  0  0  0  0  0  0
   40.8490   25.1850   43.2950 N   0  0  0  0  0  0  0  0  0  0  0  0
   40.7320   26.4730   43.6790 C   0  0  0  0  0  0  0  0  0  0  0  0
   39.5890   27.1340   43.5280 N   0  0  0  0  0  0  0  0  0  0  0  0
   39.8200   23.4900   42.4090 H   0  0  0  0  0  0  0  0  0  0  0  0
   41.6160   26.9070   44.1060 H   0  0  0  0  0  0  0  0  0  0  0  0
   37.1660   24.4470   41.8660 S   0  0  0  0  0  0  0  0  0  0  0  0
   37.6780   23.1930   40.6680 C   0  0  0  0  0  0  0  0  0  0  0  0
   38.6650   23.3990   40.2260 H   0  0  0  0  0  0  0  0  0  0  0  0
   37.7760   22.2150   41.2000 H   0  0  0  0  0  0  0  0  0  0  0  0
   36.6130   23.0770   39.6030 C   0  0  0  0  0  0  0  0  0  0  0  0
   35.5800   23.1980   40.0340 H   0  0  0  0  0  0  0  0  0  0  0  0
   36.6090   22.0830   39.1090 H   0  0  0  0  0  0  0  0  0  0  0  0
   36.7800   24.1470   38.6680 N   0  0  0  0  0  0  0  0  0  0  0  0
   35.8560   24.5910   38.3850 H   0  0  0  0  0  0  0  0  0  0  0  0
   37.4300   24.8840   39.0400 H   0  0  0  0  0  0  0  0  0  0  0  0
   37.3120   28.7320   42.9700 C   0  0  0  0  0  0  0  0  0  0  0  0
   36.4030   29.0650   43.5520 H   0  0  0  0  0  0  0  0  0  0  0  0
   38.1810   29.0260   43.6050 H   0  0  0  0  0  0  0  0  0  0  0  0
   37.3150   29.4790   41.6970 C   0  0  0  0  0  0  0  0  0  0  0  0
   36.1020   29.7280   41.0190 C   0  0  0  0  0  0  0  0  0  0  0  0
   36.6060   30.6540   39.5420 S   0  0  0  0  0  0  0  0  0  0  0  0
   38.4480   30.5630   40.0820 C   0  0  0  0  0  0  0  0  0  0  0  0
   38.3420   29.9760   41.0630 N   0  0  0  0  0  0  0  0  0  0  0  0
   35.0960   29.4430   41.2950 H   0  0  0  0  0  0  0  0  0  0  0  0
   39.4880   31.1140   39.3580 O   0  0  0  0  0  0  0  0  0  0  0  0
   39.0080   33.7110   39.6310 O   0  0  0  0  0  0  0  0  0  0  0  0
   40.0580   32.6330   39.8760 P   0  0  1  0  0  0  0  0  0  0  0  0
   40.4040   32.5570   41.5270 O   0  0  0  0  0  0  0  0  0  0  0  0
   39.7480   32.0560   42.0480 H   0  0  0  0  0  0  0  0  0  0  0  0
   41.5000   33.0180   39.0540 O   0  0  0  0  0  0  0  0  0  0  0  0
   41.4260   32.9970   37.6640 C   0  0  0  0  0  0  0  0  0  0  0  0
   42.4220   33.4430   36.9970 O   0  0  0  0  0  0  0  0  0  0  0  0
   40.3250   32.5170   36.9200 N   0  0  0  0  0  0  0  0  0  0  0  0
   40.4850   31.4890   36.8740 H   0  0  0  0  0  0  0  0  0  0  0  0
   39.4430   32.8160   36.4220 H   0  0  0  0  0  0  0  0  0  0  0  0
  1 22  1  0  0  0  0
  1  4  1  0  0  0  0
  1  3  1  0  0  0  0
  2  1  1  0  0  0  0
  4  9  1  0  0  0  0
  5  6  1  0  0  0  0
  5  4  2  0  0  0  0
  6  7  2  0  0  0  0
  7  8  1  0  0  0  0
  8 11  1  0  0  0  0
  9  8  2  0  0  0  0
 10  6  1  0  0  0  0
 12  5  1  0  0  0  0
 13 15  1  0  0  0  0
 13 12  1  0  0  0  0
 14 13  1  0  0  0  0
 16 17  1  0  0  0  0
 16 13  1  0  0  0  0
 18 16  1  0  0  0  0
 19 21  1  0  0  0  0
 19 16  1  0  0  0  0
 20 19  1  0  0  0  0
 22 23  1  0  0  0  0
 22 24  1  0  0  0  0
 25 22  1  0  0  0  0
 26 30  1  0  0  0  0
 26 25  2  0  0  0  0
 27 28  1  0  0  0  0
 27 26  1  0  0  0  0
 28 29  2  0  0  0  0
 29 25  1  0  0  0  0
 31 33  1  0  0  0  0
 31 28  1  0  0  0  0
 33 32  2  6  0  0  0
 33 34  1  0  0  0  0
 34 35  1  0  0  0  0
 36 33  1  0  0  0  0
 37 36  1  0  0  0  0
 38 37  2  0  0  0  0
 39 37  1  0  0  0  0
 40 39  1  0  0  0  0
 41 39  1  0  0  0  0
M  END
>  <minimizedAffinity>
-4.94023323

$$$$

 OpenBabel03252507503D

 41 42  0  0  0  0  0  0  0  0999 V2000
   37.7470   29.6670   42.1550 C   0  0  0  0  0  0  0  0  0  0  0  0
   37.7560   30.3120   41.2270 H   0  0  0  0  0  0  0  0  0  0  0  0
   36.8460   29.9590   42.7090 H   0  0  0  0  0  0  0  0  0  0  0  0
   37.7080   28.2670   41.7100 C   0  0  0  0  0  0  0  0  0  0  0  0
   36.7960   27.9410   40.7080 C   0  0  0  0  0  0  0  0  0  0  0  0
   36.7050   26.6430   40.2420 C   0  0  0  0  0  0  0  0  0  0  0  0
   37.5560   25.7060   40.8130 N   0  0  0  0  0  0  0  0  0  0  0  0
   38.4240   26.0670   41.7800 C   0  0  0  0  0  0  0  0  0  0  0  0
   38.4890   27.3230   42.2110 N   0  0  0  0  0  0  0  0  0  0  0  0
   35.9980   26.3980   39.4680 H   0  0  0  0  0  0  0  0  0  0  0  0
   39.0400   25.2770   42.1630 H   0  0  0  0  0  0  0  0  0  0  0  0
   35.7410   29.2040   40.0280 S   0  0  0  0  0  0  0  0  0  0  0  0
   36.6450   30.1760   38.8000 C   0  0  0  0  0  0  0  0  0  0  0  0
   36.4340   31.2550   38.8680 H   0  0  0  0  0  0  0  0  0  0  0  0
   37.7390   30.0630   38.9950 H   0  0  0  0  0  0  0  0  0  0  0  0
   36.3240   29.6400   37.4250 C   0  0  0  0  0  0  0  0  0  0  0  0
   35.3600   30.0650   37.0270 H   0  0  0  0  0  0  0  0  0  0  0  0
   36.1820   28.5390   37.4190 H   0  0  0  0  0  0  0  0  0  0  0  0
   37.3470   30.0600   36.5180 N   0  0  0  0  0  0  0  0  0  0  0  0
   36.9570   30.3870   35.5840 H   0  0  0  0  0  0  0  0  0  0  0  0
   37.9450   30.8150   36.9370 H   0  0  0  0  0  0  0  0  0  0  0  0
   38.9660   30.0320   42.9310 C   0  0  0  0  0  0  0  0  0  0  0  0
   38.6460   30.6760   43.8030 H   0  0  0  0  0  0  0  0  0  0  0  0
   39.4310   29.1310   43.3960 H   0  0  0  0  0  0  0  0  0  0  0  0
   39.9630   30.8010   42.1610 C   0  0  0  0  0  0  0  0  0  0  0  0
   41.2720   30.9650   42.6650 C   0  0  0  0  0  0  0  0  0  0  0  0
   42.1090   31.9580   41.3970 S   0  0  0  0  0  0  0  0  0  0  0  0
   40.5060   32.0050   40.3390 C   0  0  0  0  0  0  0  0  0  0  0  0
   39.8040   31.3910   41.0080 N   0  0  0  0  0  0  0  0  0  0  0  0
   41.6990   30.5960   43.5870 H   0  0  0  0  0  0  0  0  0  0  0  0
   40.4090   32.6510   39.1210 O   0  0  0  0  0  0  0  0  0  0  0  0
   40.0520   30.2420   38.0650 O   0  0  0  0  0  0  0  0  0  0  0  0
   40.4630   31.6720   37.7300 P   0  0  1  0  0  0  0  0  0  0  0  0
   39.4050   32.2990   36.5730 O   0  0  0  0  0  0  0  0  0  0  0  0
   38.5560   32.6150   36.9400 H   0  0  0  0  0  0  0  0  0  0  0  0
   42.0340   31.6940   37.0700 O   0  0  0  0  0  0  0  0  0  0  0  0
   42.7660   32.8580   37.2940 C   0  0  0  0  0  0  0  0  0  0  0  0
   43.9190   32.7520   37.8370 O   0  0  0  0  0  0  0  0  0  0  0  0
   42.3320   34.1610   36.9670 N   0  0  0  0  0  0  0  0  0  0  0  0
   42.5820   34.2620   35.9610 H   0  0  0  0  0  0  0  0  0  0  0  0
   41.8670   35.0230   37.3610 H   0  0  0  0  0  0  0  0  0  0  0  0
  1  3  1  0  0  0  0
  1 22  1  0  0  0  0
  2  1  1  0  0  0  0
  4  1  1  0  0  0  0
  4  9  1  0  0  0  0
  5  4  2  0  0  0  0
  6  5  1  0  0  0  0
  6  7  2  0  0  0  0
  7  8  1  0  0  0  0
  8 11  1  0  0  0  0
  8  9  2  0  0  0  0
 10  6  1  0  0  0  0
 12  5  1  0  0  0  0
 13 14  1  0  0  0  0
 13 15  1  0  0  0  0
 13 12  1  0  0  0  0
 16 13  1  0  0  0  0
 17 16  1  0  0  0  0
 18 16  1  0  0  0  0
 19 21  1  0  0  0  0
 19 16  1  0  0  0  0
 20 19  1  0  0  0  0
 22 24  1  0  0  0  0
 22 23  1  0  0  0  0
 25 26  2  0  0  0  0
 25 22  1  0  0  0  0
 26 30  1  0  0  0  0
 27 26  1  0  0  0  0
 28 29  2  0  0  0  0
 28 27  1  0  0  0  0
 29 25  1  0  0  0  0
 31 28  1  0  0  0  0
 33 32  2  1  0  0  0
 33 31  1  0  0  0  0
 34 35  1  0  0  0  0
 34 33  1  0  0  0  0
 36 37  1  0  0  0  0
 36 33  1  0  0  0  0
 37 38  2  0  0  0  0
 39 37  1  0  0  0  0
 39 41  1  0  0  0  0
 40 39  1  0  0  0  0
M  END
>  <minimizedAffinity>
-4.89725208

$$$$

 OpenBabel03252507503D

 41 42  0  0  0  0  0  0  0  0999 V2000
   36.8880   26.9930   42.6100 C   0  0  0  0  0  0  0  0  0  0  0  0
   35.9330   26.6010   43.0700 H   0  0  0  0  0  0  0  0  0  0  0  0
   37.5290   26.1150   42.4650 H   0  0  0  0  0  0  0  0  0  0  0  0
   36.5240   27.6420   41.3420 C   0  0  0  0  0  0  0  0  0  0  0  0
   37.0970   27.1340   40.1770 C   0  0  0  0  0  0  0  0  0  0  0  0
   36.8000   27.6960   38.9500 C   0  0  0  0  0  0  0  0  0  0  0  0
   35.9180   28.7680   38.9440 N   0  0  0  0  0  0  0  0  0  0  0  0
   35.3860   29.2260   40.0960 C   0  0  0  0  0  0  0  0  0  0  0  0
   35.6910   28.6670   41.2630 N   0  0  0  0  0  0  0  0  0  0  0  0
   37.2470   27.2980   38.0550 H   0  0  0  0  0  0  0  0  0  0  0  0
   34.7160   30.0570   39.9950 H   0  0  0  0  0  0  0  0  0  0  0  0
   38.2200   25.7550   40.2730 S   0  0  0  0  0  0  0  0  0  0  0  0
   37.3480   24.2150   39.9010 C   0  0  0  0  0  0  0  0  0  0  0  0
   36.2600   24.2930   40.0440 H   0  0  0  0  0  0  0  0  0  0  0  0
   37.5020   23.9740   38.8210 H   0  0  0  0  0  0  0  0  0  0  0  0
   37.9350   23.1100   40.7480 C   0  0  0  0  0  0  0  0  0  0  0  0
   38.9210   22.7520   40.3390 H   0  0  0  0  0  0  0  0  0  0  0  0
   37.2890   22.2070   40.7800 H   0  0  0  0  0  0  0  0  0  0  0  0
   38.2100   23.6270   42.0530 N   0  0  0  0  0  0  0  0  0  0  0  0
   39.1480   23.2990   42.4330 H   0  0  0  0  0  0  0  0  0  0  0  0
   38.1670   24.6760   42.0660 H   0  0  0  0  0  0  0  0  0  0  0  0
   37.4940   27.9090   43.6170 C   0  0  0  0  0  0  0  0  0  0  0  0
   36.6940   28.6280   43.9620 H   0  0  0  0  0  0  0  0  0  0  0  0
   37.7940   27.3530   44.5370 H   0  0  0  0  0  0  0  0  0  0  0  0
   38.6160   28.7170   43.1010 C   0  0  0  0  0  0  0  0  0  0  0  0
   39.9190   28.1730   43.0590 C   0  0  0  0  0  0  0  0  0  0  0  0
   40.9300   29.5110   42.3660 S   0  0  0  0  0  0  0  0  0  0  0  0
   39.3860   30.6450   42.2330 C   0  0  0  0  0  0  0  0  0  0  0  0
   38.5810   29.9410   42.6490 N   0  0  0  0  0  0  0  0  0  0  0  0
   40.2580   27.1930   43.3630 H   0  0  0  0  0  0  0  0  0  0  0  0
   39.4220   31.9370   41.7420 O   0  0  0  0  0  0  0  0  0  0  0  0
   38.6030   30.9450   39.4190 O   0  0  0  0  0  0  0  0  0  0  0  0
   38.6220   32.2150   40.2650 P   0  0  1  0  0  0  0  0  0  0  0  0
   37.0360   32.6980   40.5800 O   0  0  0  0  0  0  0  0  0  0  0  0
   36.6060   32.2050   41.3060 H   0  0  0  0  0  0  0  0  0  0  0  0
   39.3960   33.4740   39.4180 O   0  0  0  0  0  0  0  0  0  0  0  0
   40.7700   33.3280   39.2440 C   0  0  0  0  0  0  0  0  0  0  0  0
   41.2610   33.5520   38.0840 O   0  0  0  0  0  0  0  0  0  0  0  0
   41.6770   32.9470   40.2570 N   0  0  0  0  0  0  0  0  0  0  0  0
   41.8890   33.8390   40.7500 H   0  0  0  0  0  0  0  0  0  0  0  0
   42.1890   32.1210   40.6700 H   0  0  0  0  0  0  0  0  0  0  0  0
  1  2  1  0  0  0  0
  1 22  1  0  0  0  0
  3  1  1  0  0  0  0
  4  1  1  0  0  0  0
  5 12  1  0  0  0  0
  5  4  2  0  0  0  0
  6  5  1  0  0  0  0
  7  6  2  0  0  0  0
  7  8  1  0  0  0  0
  8  9  2  0  0  0  0
  9  4  1  0  0  0  0
 10  6  1  0  0  0  0
 11  8  1  0  0  0  0
 13 14  1  0  0  0  0
 13 12  1  0  0  0  0
 13 16  1  0  0  0  0
 15 13  1  0  0  0  0
 16 18  1  0  0  0  0
 16 19  1  0  0  0  0
 17 16  1  0  0  0  0
 19 21  1  0  0  0  0
 19 20  1  0  0  0  0
 22 23  1  0  0  0  0
 22 24  1  0  0  0  0
 25 22  1  0  0  0  0
 26 25  2  0  0  0  0
 26 30  1  0  0  0  0
 27 26  1  0  0  0  0
 28 27  1  0  0  0  0
 28 29  2  0  0  0  0
 29 25  1  0  0  0  0
 31 28  1  0  0  0  0
 33 32  2  6  0  0  0
 33 34  1  0  0  0  0
 33 31  1  0  0  0  0
 34 35  1  0  0  0  0
 36 33  1  0  0  0  0
 37 36  1  0  0  0  0
 37 39  1  0  0  0  0
 38 37  2  0  0  0  0
 39 41  1  0  0  0  0
 39 40  1  0  0  0  0
M  END
>  <minimizedAffinity>
-4.86883354

$$$$

 OpenBabel03252507503D

 41 42  0  0  0  0  0  0  0  0999 V2000
   35.9110   30.0870   40.1020 C   0  0  0  0  0  0  0  0  0  0  0  0
   35.4850   31.0970   40.3760 H   0  0  0  0  0  0  0  0  0  0  0  0
   36.3940   30.2240   39.1280 H   0  0  0  0  0  0  0  0  0  0  0  0
   36.8640   29.7180   41.1590 C   0  0  0  0  0  0  0  0  0  0  0  0
   37.9640   30.5530   41.3470 C   0  0  0  0  0  0  0  0  0  0  0  0
   38.9000   30.2660   42.3220 C   0  0  0  0  0  0  0  0  0  0  0  0
   38.6870   29.1270   43.0870 N   0  0  0  0  0  0  0  0  0  0  0  0
   37.6070   28.3480   42.8700 C   0  0  0  0  0  0  0  0  0  0  0  0
   36.7220   28.6470   41.9230 N   0  0  0  0  0  0  0  0  0  0  0  0
   39.7470   30.9160   42.4610 H   0  0  0  0  0  0  0  0  0  0  0  0
   37.5240   27.4890   43.5080 H   0  0  0  0  0  0  0  0  0  0  0  0
   38.1630   31.9960   40.3220 S   0  0  0  0  0  0  0  0  0  0  0  0
   39.4820   31.7260   39.1150 C   0  0  0  0  0  0  0  0  0  0  0  0
   40.2360   32.5280   39.1170 H   0  0  0  0  0  0  0  0  0  0  0  0
   40.0270   30.7900   39.3900 H   0  0  0  0  0  0  0  0  0  0  0  0
   38.8620   31.5580   37.7480 C   0  0  0  0  0  0  0  0  0  0  0  0
   37.8190   31.9820   37.7110 H   0  0  0  0  0  0  0  0  0  0  0  0
   38.7550   30.4930   37.4550 H   0  0  0  0  0  0  0  0  0  0  0  0
   39.6280   32.3080   36.8010 N   0  0  0  0  0  0  0  0  0  0  0  0
   39.0180   32.8390   36.1100 H   0  0  0  0  0  0  0  0  0  0  0  0
   40.2860   32.9730   37.2800 H   0  0  0  0  0  0  0  0  0  0  0  0
   34.7490   29.1630   39.9720 C   0  0  0  0  0  0  0  0  0  0  0  0
   35.0100   28.1960   40.4950 H   0  0  0  0  0  0  0  0  0  0  0  0
   33.8610   29.5550   40.5230 H   0  0  0  0  0  0  0  0  0  0  0  0
   34.3980   28.8270   38.5790 C   0  0  0  0  0  0  0  0  0  0  0  0
   35.3250   28.1460   37.7600 C   0  0  0  0  0  0  0  0  0  0  0  0
   34.4590   27.9630   36.1760 S   0  0  0  0  0  0  0  0  0  0  0  0
   32.9190   28.8670   36.8830 C   0  0  0  0  0  0  0  0  0  0  0  0
   33.2830   29.0830   37.9500 N   0  0  0  0  0  0  0  0  0  0  0  0
   36.3220   27.8040   37.9980 H   0  0  0  0  0  0  0  0  0  0  0  0
   31.7670   29.1050   36.1560 O   0  0  0  0  0  0  0  0  0  0  0  0
   29.1750   29.6370   36.3640 O   0  0  0  0  0  0  0  0  0  0  0  0
   30.5430   29.9950   36.9350 P   0  0  1  0  0  0  0  0  0  0  0  0
   30.5680   29.6390   38.5850 O   0  0  0  0  0  0  0  0  0  0  0  0
   30.7170   28.6940   38.7860 H   0  0  0  0  0  0  0  0  0  0  0  0
   30.8380   31.6630   36.7530 O   0  0  0  0  0  0  0  0  0  0  0  0
   30.3290   32.2430   35.5930 C   0  0  0  0  0  0  0  0  0  0  0  0
   31.1460   32.5310   34.6520 O   0  0  0  0  0  0  0  0  0  0  0  0
   28.9670   32.5420   35.3700 N   0  0  0  0  0  0  0  0  0  0  0  0
   28.5670   31.6420   35.0310 H   0  0  0  0  0  0  0  0  0  0  0  0
   28.2490   33.3140   35.4220 H   0  0  0  0  0  0  0  0  0  0  0  0
  1  2  1  0  0  0  0
  1  4  1  0  0  0  0
  3  1  1  0  0  0  0
  4  5  2  0  0  0  0
  4  9  1  0  0  0  0
  5  6  1  0  0  0  0
  6 10  1  0  0  0  0
  6  7  2  0  0  0  0
  8  7  1  0  0  0  0
  8 11  1  0  0  0  0
  9  8  2  0  0  0  0
 12  5  1  0  0  0  0
 13 14  1  0  0  0  0
 13 15  1  0  0  0  0
 13 12  1  0  0  0  0
 16 13  1  0  0  0  0
 17 16  1  0  0  0  0
 18 16  1  0  0  0  0
 19 21  1  0  0  0  0
 19 16  1  0  0  0  0
 20 19  1  0  0  0  0
 22  1  1  0  0  0  0
 22 23  1  0  0  0  0
 22 24  1  0  0  0  0
 25 22  1  0  0  0  0
 26 30  1  0  0  0  0
 26 25  2  0  0  0  0
 27 28  1  0  0  0  0
 27 26  1  0  0  0  0
 28 29  2  0  0  0  0
 29 25  1  0  0  0  0
 31 28  1  0  0  0  0
 31 33  1  0  0  0  0
 33 32  2  6  0  0  0
 33 34  1  0  0  0  0
 34 35  1  0  0  0  0
 36 33  1  0  0  0  0
 37 36  1  0  0  0  0
 38 37  2  0  0  0  0
 39 41  1  0  0  0  0
 39 37  1  0  0  0  0
 40 39  1  0  0  0  0
M  END
>  <minimizedAffinity>
-4.83974123

$$$$

 OpenBabel03252507503D

 41 42  0  0  0  0  0  0  0  0999 V2000
   35.5960   29.8820   39.7850 C   0  0  0  0  0  0  0  0  0  0  0  0
   36.4650   30.5580   40.0400 H   0  0  0  0  0  0  0  0  0  0  0  0
   34.7080   30.5250   39.8020 H   0  0  0  0  0  0  0  0  0  0  0  0
   35.8610   29.3180   38.4540 C   0  0  0  0  0  0  0  0  0  0  0  0
   36.7170   30.0330   37.6170 C   0  0  0  0  0  0  0  0  0  0  0  0
   37.0100   29.5620   36.3510 C   0  0  0  0  0  0  0  0  0  0  0  0
   36.4190   28.3640   35.9700 N   0  0  0  0  0  0  0  0  0  0  0  0
   35.5980   27.7060   36.8150 C   0  0  0  0  0  0  0  0  0  0  0  0
   35.3320   28.1830   38.0270 N   0  0  0  0  0  0  0  0  0  0  0  0
   37.6710   30.1190   35.7100 H   0  0  0  0  0  0  0  0  0  0  0  0
   35.1870   26.7900   36.4350 H   0  0  0  0  0  0  0  0  0  0  0  0
   37.4330   31.5620   38.1820 S   0  0  0  0  0  0  0  0  0  0  0  0
   39.0790   31.2620   38.8700 C   0  0  0  0  0  0  0  0  0  0  0  0
   39.3130   31.9170   39.7230 H   0  0  0  0  0  0  0  0  0  0  0  0
   39.1120   30.2170   39.2650 H   0  0  0  0  0  0  0  0  0  0  0  0
   40.1000   31.4110   37.7670 C   0  0  0  0  0  0  0  0  0  0  0  0
   40.2770   30.4370   37.2300 H   0  0  0  0  0  0  0  0  0  0  0  0
   41.0960   31.7210   38.1460 H   0  0  0  0  0  0  0  0  0  0  0  0
   39.5870   32.3160   36.7850 N   0  0  0  0  0  0  0  0  0  0  0  0
   39.7680   31.9870   35.7900 H   0  0  0  0  0  0  0  0  0  0  0  0
   38.5590   32.4880   36.9220 H   0  0  0  0  0  0  0  0  0  0  0  0
   35.5180   28.8700   40.8770 C   0  0  0  0  0  0  0  0  0  0  0  0
   34.7200   29.2020   41.6050 H   0  0  0  0  0  0  0  0  0  0  0  0
   35.1610   27.8870   40.4890 H   0  0  0  0  0  0  0  0  0  0  0  0
   36.7700   28.7100   41.6420 C   0  0  0  0  0  0  0  0  0  0  0  0
   37.5940   29.8290   41.8950 C   0  0  0  0  0  0  0  0  0  0  0  0
   38.9810   29.1470   42.8450 S   0  0  0  0  0  0  0  0  0  0  0  0
   38.2130   27.3890   42.7550 C   0  0  0  0  0  0  0  0  0  0  0  0
   37.2610   27.6140   42.1530 N   0  0  0  0  0  0  0  0  0  0  0  0
   37.4520   30.8600   41.6010 H   0  0  0  0  0  0  0  0  0  0  0  0
   38.7910   26.2680   43.3220 O   0  0  0  0  0  0  0  0  0  0  0  0
   39.5340   25.1840   41.0150 O   0  0  0  0  0  0  0  0  0  0  0  0
   38.8650   24.8720   42.3500 P   0  0  1  0  0  0  0  0  0  0  0  0
   39.7560   23.6870   43.1570 O   0  0  0  0  0  0  0  0  0  0  0  0
   40.5470   24.0280   43.6180 H   0  0  0  0  0  0  0  0  0  0  0  0
   37.2940   24.2650   42.0940 O   0  0  0  0  0  0  0  0  0  0  0  0
   36.8560   24.2630   40.7710 C   0  0  0  0  0  0  0  0  0  0  0  0
   36.6510   23.1370   40.2030 O   0  0  0  0  0  0  0  0  0  0  0  0
   36.6190   25.4210   39.9980 N   0  0  0  0  0  0  0  0  0  0  0  0
   35.6520   25.7020   40.2610 H   0  0  0  0  0  0  0  0  0  0  0  0
   37.0530   26.0680   39.2850 H   0  0  0  0  0  0  0  0  0  0  0  0
  1  3  1  0  0  0  0
  1  2  1  0  0  0  0
  1 22  1  0  0  0  0
  4  1  1  0  0  0  0
  5 12  1  0  0  0  0
  5  4  2  0  0  0  0
  6  5  1  0  0  0  0
  7  6  2  0  0  0  0
  7  8  1  0  0  0  0
  8  9  2  0  0  0  0
  9  4  1  0  0  0  0
 10  6  1  0  0  0  0
 11  8  1  0  0  0  0
 12 13  1  0  0  0  0
 13 15  1  0  0  0  0
 13 14  1  0  0  0  0
 16 18  1  0  0  0  0
 16 13  1  0  0  0  0
 17 16  1  0  0  0  0
 19 21  1  0  0  0  0
 19 16  1  0  0  0  0
 20 19  1  0  0  0  0
 22 23  1  0  0  0  0
 22 25  1  0  0  0  0
 24 22  1  0  0  0  0
 25 26  2  0  0  0  0
 25 29  1  0  0  0  0
 26 27  1  0  0  0  0
 28 27  1  0  0  0  0
 28 31  1  0  0  0  0
 29 28  2  0  0  0  0
 30 26  1  0  0  0  0
 33 32  2  6  0  0  0
 33 34  1  0  0  0  0
 33 31  1  0  0  0  0
 34 35  1  0  0  0  0
 36 33  1  0  0  0  0
 37 36  1  0  0  0  0
 38 37  2  0  0  0  0
 39 40  1  0  0  0  0
 39 37  1  0  0  0  0
 41 39  1  0  0  0  0
M  END
>  <minimizedAffinity>
-4.81027222

$$$$

 OpenBabel03252507503D

 41 42  0  0  0  0  0  0  0  0999 V2000
   36.5850   27.6040   42.6390 C   0  0  0  0  0  0  0  0  0  0  0  0
   36.4400   28.5050   41.9720 H   0  0  0  0  0  0  0  0  0  0  0  0
   35.6160   27.4380   43.1260 H   0  0  0  0  0  0  0  0  0  0  0  0
   36.9830   26.4840   41.7760 C   0  0  0  0  0  0  0  0  0  0  0  0
   37.1060   26.7420   40.4110 C   0  0  0  0  0  0  0  0  0  0  0  0
   37.4770   25.7350   39.5400 C   0  0  0  0  0  0  0  0  0  0  0  0
   37.7170   24.4820   40.0890 N   0  0  0  0  0  0  0  0  0  0  0  0
   37.5870   24.2790   41.4160 C   0  0  0  0  0  0  0  0  0  0  0  0
   37.2270   25.2660   42.2310 N   0  0  0  0  0  0  0  0  0  0  0  0
   37.5690   25.9420   38.4880 H   0  0  0  0  0  0  0  0  0  0  0  0
   37.7910   23.2800   41.7500 H   0  0  0  0  0  0  0  0  0  0  0  0
   36.7800   28.3780   39.7890 S   0  0  0  0  0  0  0  0  0  0  0  0
   37.0990   28.4430   38.0100 C   0  0  0  0  0  0  0  0  0  0  0  0
   38.1430   28.2050   37.7530 H   0  0  0  0  0  0  0  0  0  0  0  0
   36.4730   27.6650   37.5100 H   0  0  0  0  0  0  0  0  0  0  0  0
   36.7040   29.8080   37.4960 C   0  0  0  0  0  0  0  0  0  0  0  0
   36.4130   30.4990   38.3360 H   0  0  0  0  0  0  0  0  0  0  0  0
   35.8190   29.7730   36.8270 H   0  0  0  0  0  0  0  0  0  0  0  0
   37.8390   30.4070   36.8640 N   0  0  0  0  0  0  0  0  0  0  0  0
   37.9480   31.4360   37.1110 H   0  0  0  0  0  0  0  0  0  0  0  0
   38.7240   29.8900   37.0940 H   0  0  0  0  0  0  0  0  0  0  0  0
   37.6060   27.9930   43.6520 C   0  0  0  0  0  0  0  0  0  0  0  0
   37.1240   28.7120   44.3780 H   0  0  0  0  0  0  0  0  0  0  0  0
   37.9090   27.1180   44.2750 H   0  0  0  0  0  0  0  0  0  0  0  0
   38.7890   28.6710   43.0870 C   0  0  0  0  0  0  0  0  0  0  0  0
   40.0520   28.0400   43.1240 C   0  0  0  0  0  0  0  0  0  0  0  0
   41.1630   29.2340   42.3300 S   0  0  0  0  0  0  0  0  0  0  0  0
   39.7030   30.4520   42.0570 C   0  0  0  0  0  0  0  0  0  0  0  0
   38.8450   29.8460   42.5200 N   0  0  0  0  0  0  0  0  0  0  0  0
   40.3190   27.0730   43.5270 H   0  0  0  0  0  0  0  0  0  0  0  0
   39.8350   31.6850   41.4460 O   0  0  0  0  0  0  0  0  0  0  0  0
   39.8770   30.2760   39.1960 O   0  0  0  0  0  0  0  0  0  0  0  0
   39.8280   31.6980   39.7440 P   0  0  1  0  0  0  0  0  0  0  0  0
   38.4170   32.4540   39.2050 O   0  0  0  0  0  0  0  0  0  0  0  0
   37.6180   32.2150   39.7150 H   0  0  0  0  0  0  0  0  0  0  0  0
   41.1560   32.5970   39.1690 O   0  0  0  0  0  0  0  0  0  0  0  0
   41.1330   32.9060   37.8110 C   0  0  0  0  0  0  0  0  0  0  0  0
   42.0080   33.7220   37.3610 O   0  0  0  0  0  0  0  0  0  0  0  0
   40.2080   32.3850   36.8790 N   0  0  0  0  0  0  0  0  0  0  0  0
   40.6180   31.4670   36.6080 H   0  0  0  0  0  0  0  0  0  0  0  0
   39.2950   32.5860   36.3870 H   0  0  0  0  0  0  0  0  0  0  0  0
  1  3  1  0  0  0  0
  1 22  1  0  0  0  0
  2  1  1  0  0  0  0
  4  9  1  0  0  0  0
  4  1  1  0  0  0  0
  5  4  2  0  0  0  0
  6  7  2  0  0  0  0
  6  5  1  0  0  0  0
  7  8  1  0  0  0  0
  8 11  1  0  0  0  0
  8  9  2  0  0  0  0
 10  6  1  0  0  0  0
 12  5  1  0  0  0  0
 13 12  1  0  0  0  0
 14 13  1  0  0  0  0
 15 13  1  0  0  0  0
 16 13  1  0  0  0  0
 16 17  1  0  0  0  0
 18 16  1  0  0  0  0
 19 21  1  0  0  0  0
 19 20  1  0  0  0  0
 19 16  1  0  0  0  0
 22 24  1  0  0  0  0
 22 23  1  0  0  0  0
 25 26  2  0  0  0  0
 25 22  1  0  0  0  0
 26 30  1  0  0  0  0
 27 26  1  0  0  0  0
 28 27  1  0  0  0  0
 28 29  2  0  0  0  0
 29 25  1  0  0  0  0
 31 28  1  0  0  0  0
 33 32  2  6  0  0  0
 33 31  1  0  0  0  0
 34 35  1  0  0  0  0
 34 33  1  0  0  0  0
 36 33  1  0  0  0  0
 37 36  1  0  0  0  0
 38 37  2  0  0  0  0
 39 37  1  0  0  0  0
 40 39  1  0  0  0  0
 41 39  1  0  0  0  0
M  END
>  <minimizedAffinity>
-4.73814297

$$$$

 OpenBabel03252507503D

 41 42  0  0  0  0  0  0  0  0999 V2000
   36.2710   29.4950   37.2500 C   0  0  0  0  0  0  0  0  0  0  0  0
   35.9510   30.5730   37.1350 H   0  0  0  0  0  0  0  0  0  0  0  0
   35.9420   28.9900   36.3330 H   0  0  0  0  0  0  0  0  0  0  0  0
   37.7320   29.4890   37.4050 C   0  0  0  0  0  0  0  0  0  0  0  0
   38.3160   30.6110   37.9920 C   0  0  0  0  0  0  0  0  0  0  0  0
   39.6850   30.6730   38.1690 C   0  0  0  0  0  0  0  0  0  0  0  0
   40.4280   29.5810   37.7410 N   0  0  0  0  0  0  0  0  0  0  0  0
   39.8200   28.5160   37.1780 C   0  0  0  0  0  0  0  0  0  0  0  0
   38.5000   28.4830   37.0190 N   0  0  0  0  0  0  0  0  0  0  0  0
   40.1290   31.5430   38.6230 H   0  0  0  0  0  0  0  0  0  0  0  0
   40.4730   27.7200   36.8770 H   0  0  0  0  0  0  0  0  0  0  0  0
   37.2900   31.9690   38.5140 S   0  0  0  0  0  0  0  0  0  0  0  0
   37.4450   32.2170   40.2990 C   0  0  0  0  0  0  0  0  0  0  0  0
   38.4410   32.5780   40.5970 H   0  0  0  0  0  0  0  0  0  0  0  0
   36.7230   33.0110   40.6090 H   0  0  0  0  0  0  0  0  0  0  0  0
   37.0970   30.9250   41.0000 C   0  0  0  0  0  0  0  0  0  0  0  0
   37.6610   30.8120   41.9680 H   0  0  0  0  0  0  0  0  0  0  0  0
   37.3630   30.0290   40.4010 H   0  0  0  0  0  0  0  0  0  0  0  0
   35.7100   30.9510   41.3500 N   0  0  0  0  0  0  0  0  0  0  0  0
   35.5280   30.5750   42.3280 H   0  0  0  0  0  0  0  0  0  0  0  0
   35.3100   31.9180   41.2590 H   0  0  0  0  0  0  0  0  0  0  0  0
   35.5250   28.9600   38.4240 C   0  0  0  0  0  0  0  0  0  0  0  0
   35.7080   29.6520   39.2990 H   0  0  0  0  0  0  0  0  0  0  0  0
   34.4240   29.0010   38.2540 H   0  0  0  0  0  0  0  0  0  0  0  0
   35.9440   27.6070   38.8410 C   0  0  0  0  0  0  0  0  0  0  0  0
   35.6110   26.4880   38.0470 C   0  0  0  0  0  0  0  0  0  0  0  0
   36.3240   25.0840   38.9470 S   0  0  0  0  0  0  0  0  0  0  0  0
   36.9890   26.2620   40.3110 C   0  0  0  0  0  0  0  0  0  0  0  0
   36.6210   27.2700   39.9050 N   0  0  0  0  0  0  0  0  0  0  0  0
   35.0600   26.4510   37.1170 H   0  0  0  0  0  0  0  0  0  0  0  0
   37.7020   25.8330   41.4150 O   0  0  0  0  0  0  0  0  0  0  0  0
   39.3280   27.9270   41.5650 O   0  0  0  0  0  0  0  0  0  0  0  0
   38.3990   27.0420   42.3900 P   0  0  1  0  0  0  0  0  0  0  0  0
   37.1700   27.9910   43.0540 O   0  0  0  0  0  0  0  0  0  0  0  0
   36.4450   28.1960   42.4310 H   0  0  0  0  0  0  0  0  0  0  0  0
   39.2580   26.3230   43.6740 O   0  0  0  0  0  0  0  0  0  0  0  0
   39.9680   25.1690   43.3530 C   0  0  0  0  0  0  0  0  0  0  0  0
   41.2380   25.2530   43.2350 O   0  0  0  0  0  0  0  0  0  0  0  0
   39.3910   23.8970   43.1430 N   0  0  0  0  0  0  0  0  0  0  0  0
   39.2950   23.5060   44.1030 H   0  0  0  0  0  0  0  0  0  0  0  0
   39.0400   23.2380   42.3960 H   0  0  0  0  0  0  0  0  0  0  0  0
  1  4  1  0  0  0  0
  1 22  1  0  0  0  0
  2  1  1  0  0  0  0
  3  1  1  0  0  0  0
  4  5  1  0  0  0  0
  5  6  2  0  0  0  0
  5 12  1  0  0  0  0
  6 10  1  0  0  0  0
  7  6  1  0  0  0  0
  8  7  2  0  0  0  0
  9  8  1  0  0  0  0
  9  4  2  0  0  0  0
 11  8  1  0  0  0  0
 12 13  1  0  0  0  0
 13 14  1  0  0  0  0
 13 15  1  0  0  0  0
 13 16  1  0  0  0  0
 16 19  1  0  0  0  0
 16 17  1  0  0  0  0
 18 16  1  0  0  0  0
 19 20  1  0  0  0  0
 21 19  1  0  0  0  0
 22 25  1  0  0  0  0
 22 23  1  0  0  0  0
 24 22  1  0  0  0  0
 25 29  1  0  0  0  0
 26 25  2  0  0  0  0
 26 27  1  0  0  0  0
 27 28  1  0  0  0  0
 28 31  1  0  0  0  0
 29 28  2  0  0  0  0
 30 26  1  0  0  0  0
 31 33  1  0  0  0  0
 33 32  2  6  0  0  0
 33 34  1  0  0  0  0
 33 36  1  0  0  0  0
 35 34  1  0  0  0  0
 37 36  1  0  0  0  0
 38 37  2  0  0  0  0
 39 37  1  0  0  0  0
 39 40  1  0  0  0  0
 41 39  1  0  0  0  0
M  END
>  <minimizedAffinity>
-4.71969652

$$$$

 OpenBabel03252507503D

 41 42  0  0  0  0  0  0  0  0999 V2000
   36.4460   25.7730   39.3600 C   0  0  0  0  0  0  0  0  0  0  0  0
   35.9810   24.8050   39.0080 H   0  0  0  0  0  0  0  0  0  0  0  0
   36.0210   25.9620   40.3520 H   0  0  0  0  0  0  0  0  0  0  0  0
   37.9010   25.5650   39.3980 C   0  0  0  0  0  0  0  0  0  0  0  0
   38.5170   25.5970   40.6480 C   0  0  0  0  0  0  0  0  0  0  0  0
   39.8820   25.4100   40.7590 C   0  0  0  0  0  0  0  0  0  0  0  0
   40.5870   25.1920   39.5830 N   0  0  0  0  0  0  0  0  0  0  0  0
   39.9480   25.1690   38.3940 C   0  0  0  0  0  0  0  0  0  0  0  0
   38.6340   25.3540   38.3170 N   0  0  0  0  0  0  0  0  0  0  0  0
   40.3510   25.4360   41.7280 H   0  0  0  0  0  0  0  0  0  0  0  0
   40.5730   24.9960   37.5400 H   0  0  0  0  0  0  0  0  0  0  0  0
   37.5390   25.8820   42.1090 S   0  0  0  0  0  0  0  0  0  0  0  0
   38.3930   27.0280   43.2170 C   0  0  0  0  0  0  0  0  0  0  0  0
   38.8680   26.5230   44.0720 H   0  0  0  0  0  0  0  0  0  0  0  0
   39.2210   27.5180   42.6490 H   0  0  0  0  0  0  0  0  0  0  0  0
   37.4120   28.0800   43.6760 C   0  0  0  0  0  0  0  0  0  0  0  0
   37.2420   28.0320   44.7880 H   0  0  0  0  0  0  0  0  0  0  0  0
   36.4070   27.9540   43.2220 H   0  0  0  0  0  0  0  0  0  0  0  0
   37.9680   29.3720   43.4160 N   0  0  0  0  0  0  0  0  0  0  0  0
   37.8160   30.0530   44.2190 H   0  0  0  0  0  0  0  0  0  0  0  0
   38.9920   29.3110   43.1900 H   0  0  0  0  0  0  0  0  0  0  0  0
   36.0010   26.8230   38.4010 C   0  0  0  0  0  0  0  0  0  0  0  0
   36.6230   26.7290   37.4640 H   0  0  0  0  0  0  0  0  0  0  0  0
   34.9520   26.6430   38.0670 H   0  0  0  0  0  0  0  0  0  0  0  0
   36.1640   28.2030   38.8990 C   0  0  0  0  0  0  0  0  0  0  0  0
   35.7890   28.5280   40.2210 C   0  0  0  0  0  0  0  0  0  0  0  0
   36.1680   30.2970   40.3630 S   0  0  0  0  0  0  0  0  0  0  0  0
   36.7990   30.3340   38.5490 C   0  0  0  0  0  0  0  0  0  0  0  0
   36.6340   29.2360   38.2550 N   0  0  0  0  0  0  0  0  0  0  0  0
   35.3720   27.8900   40.9870 H   0  0  0  0  0  0  0  0  0  0  0  0
   37.2860   31.4690   37.9290 O   0  0  0  0  0  0  0  0  0  0  0  0
   39.6600   30.2800   37.9690 O   0  0  0  0  0  0  0  0  0  0  0  0
   38.9790   31.6420   37.8730 P   0  0  1  0  0  0  0  0  0  0  0  0
   39.4090   32.3780   36.4150 O   0  0  0  0  0  0  0  0  0  0  0  0
   38.9050   32.0560   35.6430 H   0  0  0  0  0  0  0  0  0  0  0  0
   39.4980   32.6510   39.1440 O   0  0  0  0  0  0  0  0  0  0  0  0
   38.4880   33.3020   39.8480 C   0  0  0  0  0  0  0  0  0  0  0  0
   38.5110   33.2510   41.1250 O   0  0  0  0  0  0  0  0  0  0  0  0
   37.4260   34.0220   39.2570 N   0  0  0  0  0  0  0  0  0  0  0  0
   37.8330   34.9630   39.0770 H   0  0  0  0  0  0  0  0  0  0  0  0
   36.4190   33.9460   38.9490 H   0  0  0  0  0  0  0  0  0  0  0  0
  1  4  1  0  0  0  0
  1  3  1  0  0  0  0
  2  1  1  0  0  0  0
  4  5  1  0  0  0  0
  5  6  2  0  0  0  0
  5 12  1  0  0  0  0
  6 10  1  0  0  0  0
  7  6  1  0  0  0  0
  8  7  2  0  0  0  0
  9  8  1  0  0  0  0
  9  4  2  0  0  0  0
 11  8  1  0  0  0  0
 12 13  1  0  0  0  0
 13 16  1  0  0  0  0
 13 14  1  0  0  0  0
 15 13  1  0  0  0  0
 16 17  1  0  0  0  0
 18 16  1  0  0  0  0
 19 16  1  0  0  0  0
 19 20  1  0  0  0  0
 21 19  1  0  0  0  0
 22 25  1  0  0  0  0
 22  1  1  0  0  0  0
 23 22  1  0  0  0  0
 24 22  1  0  0  0  0
 25 26  2  0  0  0  0
 26 27  1  0  0  0  0
 26 30  1  0  0  0  0
 28 27  1  0  0  0  0
 29 28  2  0  0  0  0
 29 25  1  0  0  0  0
 31 28  1  0  0  0  0
 33 31  1  0  0  0  0
 33 32  2  1  0  0  0
 33 36  1  0  0  0  0
 34 33  1  0  0  0  0
 35 34  1  0  0  0  0
 36 37  1  0  0  0  0
 37 38  2  0  0  0  0
 39 37  1  0  0  0  0
 40 39  1  0  0  0  0
 41 39  1  0  0  0  0
M  END
>  <minimizedAffinity>
-4.67486286

$$$$
