
 OpenBabel03252509193D

 39 41  0  0  1  0  0  0  0  0999 V2000
   49.9320   28.6180   48.9330 C   0  0  1  0  0  0  0  0  0  0  0  0
   50.3330   27.8750   47.7180 C   0  0  0  0  0  0  0  0  0  0  0  0
   51.7890   27.4970   47.6700 C   0  0  0  0  0  0  0  0  0  0  0  0
   52.2970   26.9560   48.9780 C   0  0  0  0  0  0  0  0  0  0  0  0
   51.8510   27.7800   50.1560 C   0  0  0  0  0  0  0  0  0  0  0  0
   51.2040   29.0800   49.6780 C   0  0  2  0  0  0  0  0  0  0  0  0
   49.4620   27.9080   49.6320 H   0  0  0  0  0  0  0  0  0  0  0  0
   50.1670   28.5430   46.8250 H   0  0  0  0  0  0  0  0  0  0  0  0
   49.7260   26.9670   47.5750 H   0  0  0  0  0  0  0  0  0  0  0  0
   51.8760   26.6880   46.9210 H   0  0  0  0  0  0  0  0  0  0  0  0
   52.4310   28.3210   47.3150 H   0  0  0  0  0  0  0  0  0  0  0  0
   53.3720   26.8000   48.9300 H   0  0  0  0  0  0  0  0  0  0  0  0
   51.8350   25.9340   49.1030 H   0  0  0  0  0  0  0  0  0  0  0  0
   51.0940   27.2530   50.7760 H   0  0  0  0  0  0  0  0  0  0  0  0
   52.7460   28.0420   50.7510 H   0  0  0  0  0  0  0  0  0  0  0  0
   51.8710   29.6100   48.9680 H   0  0  0  0  0  0  0  0  0  0  0  0
   47.4690   31.5150   47.4370 C   0  0  0  0  0  0  0  0  0  0  0  0
   47.4650   31.4870   48.8290 C   0  0  0  0  0  0  0  0  0  0  0  0
   48.2320   30.5780   49.4390 C   0  0  0  0  0  0  0  0  0  0  0  0
   49.0160   29.6810   48.6780 C   0  0  0  0  0  0  0  0  0  0  0  0
   48.6330   30.1630   46.9630 S   0  0  0  0  0  0  0  0  0  0  0  0
   46.8610   32.1800   49.3980 H   0  0  0  0  0  0  0  0  0  0  0  0
   48.3540   30.4110   50.4960 H   0  0  0  0  0  0  0  0  0  0  0  0
   45.0970   34.0610   46.1260 C   0  0  0  0  0  0  0  0  0  0  0  0
   45.5090   34.1450   44.7950 C   0  0  0  0  0  0  0  0  0  0  0  0
   46.5750   33.3250   44.4030 C   0  0  0  0  0  0  0  0  0  0  0  0
   47.1490   32.4960   45.3360 N   0  0  0  0  0  0  0  0  0  0  0  0
   46.7000   32.4670   46.6010 C   0  0  0  0  0  0  0  0  0  0  0  0
   45.6690   33.2510   47.0060 N   0  0  0  0  0  0  0  0  0  0  0  0
   44.2670   34.6880   46.4640 H   0  0  0  0  0  0  0  0  0  0  0  0
   45.0470   34.8030   44.0710 H   0  0  0  0  0  0  0  0  0  0  0  0
   46.9670   33.3170   43.3950 H   0  0  0  0  0  0  0  0  0  0  0  0
   50.8330   29.8860   50.8440 C   0  0  0  0  0  0  0  0  0  0  0  0
   50.1630   29.4310   51.7920 O   0  0  0  0  0  0  0  0  0  0  0  0
   51.3570   33.3440   51.2480 H   0  0  0  0  0  0  0  0  0  0  0  0
   51.2170   32.4320   50.6590 C   0  0  0  0  0  0  0  0  0  0  0  0
   51.2040   32.3450   49.4180 O   0  0  0  0  0  0  0  0  0  0  0  0
   51.0290   31.1930   51.2800 N   0  0  0  0  0  0  0  0  0  0  0  0
   51.0380   31.2460   52.3010 H   0  0  0  0  0  0  0  0  0  0  0  0
  1  7  1  1  0  0  0
  1  6  1  0  0  0  0
  2  1  1  0  0  0  0
  3  2  1  0  0  0  0
  3  4  1  0  0  0  0
  4 13  1  0  0  0  0
  4  5  1  0  0  0  0
  5 15  1  0  0  0  0
  5 14  1  0  0  0  0
  6 16  1  6  0  0  0
  6  5  1  0  0  0  0
  6 33  1  0  0  0  0
  8  2  1  0  0  0  0
  9  2  1  0  0  0  0
 10  3  1  0  0  0  0
 11  3  1  0  0  0  0
 12  4  1  0  0  0  0
 17 18  2  0  0  0  0
 18 22  1  0  0  0  0
 18 19  1  0  0  0  0
 19 23  1  0  0  0  0
 20  1  1  0  0  0  0
 20 19  2  0  0  0  0
 21 17  1  0  0  0  0
 21 20  1  0  0  0  0
 24 30  1  0  0  0  0
 24 29  1  0  0  0  0
 25 24  2  0  0  0  0
 26 25  1  0  0  0  0
 26 27  2  0  0  0  0
 27 28  1  0  0  0  0
 28 29  2  0  0  0  0
 28 17  1  0  0  0  0
 31 25  1  0  0  0  0
 32 26  1  0  0  0  0
 33 38  1  0  0  0  0
 33 34  2  0  0  0  0
 36 35  1  0  0  0  0
 36 38  1  0  0  0  0
 37 36  2  0  0  0  0
 38 39  1  0  0  0  0
M  END
>  <minimizedAffinity>
-4.10850048

>  <minimizedRMSD>
2.91987514

$$$$
