
 OpenBabel03242521543D

 44 47  0  0  0  0  0  0  0  0999 V2000
   45.9250   32.2830   46.0850 C   0  0  0  0  0  0  0  0  0  0  0  0
   45.7340   32.9510   47.2920 C   0  0  0  0  0  0  0  0  0  0  0  0
   45.9540   32.3520   48.5390 C   0  0  0  0  0  0  0  0  0  0  0  0
   46.3770   31.0540   48.6220 C   0  0  0  0  0  0  0  0  0  0  0  0
   46.5730   30.3490   47.4130 C   0  0  0  0  0  0  0  0  0  0  0  0
   46.9420   29.0510   47.5420 C   0  0  0  0  0  0  0  0  0  0  0  0
   47.0740   28.3060   46.3690 C   0  0  0  0  0  0  0  0  0  0  0  0
   46.8040   28.9510   45.1080 C   0  0  0  0  0  0  0  0  0  0  0  0
   46.4390   30.2760   45.1530 C   0  0  0  0  0  0  0  0  0  0  0  0
   46.3180   31.0390   46.2260 C   0  0  0  0  0  0  0  0  0  0  0  0
   45.3930   33.9970   47.2390 H   0  0  0  0  0  0  0  0  0  0  0  0
   45.7730   32.9620   49.4250 H   0  0  0  0  0  0  0  0  0  0  0  0
   46.5450   30.6190   49.5940 H   0  0  0  0  0  0  0  0  0  0  0  0
   47.1260   28.6130   48.5120 H   0  0  0  0  0  0  0  0  0  0  0  0
   47.3750   27.2820   46.5410 H   0  0  0  0  0  0  0  0  0  0  0  0
   46.9820   28.1520   44.4040 H   0  0  0  0  0  0  0  0  0  0  0  0
   44.5680   29.7990   43.8410 C   0  0  0  0  0  0  0  0  0  0  0  0
   45.9450   30.2490   43.7910 C   0  0  0  0  0  0  0  0  0  0  0  0
   46.3540   30.3570   42.5280 C   0  0  0  0  0  0  0  0  0  0  0  0
   45.5990   30.0810   41.4060 C   0  0  0  0  0  0  0  0  0  0  0  0
   44.3080   29.6560   41.4770 C   0  0  0  0  0  0  0  0  0  0  0  0
   43.7850   29.5130   42.7420 C   0  0  0  0  0  0  0  0  0  0  0  0
   47.3990   30.7060   42.5900 H   0  0  0  0  0  0  0  0  0  0  0  0
   46.1510   30.2430   40.4840 H   0  0  0  0  0  0  0  0  0  0  0  0
   43.7650   29.4530   40.5640 H   0  0  0  0  0  0  0  0  0  0  0  0
   43.7940   29.5780   45.0150 O   0  0  0  0  0  0  0  0  0  0  0  0
   43.5250   30.4630   45.4730 H   0  0  0  0  0  0  0  0  0  0  0  0
   42.4770   29.0740   42.7500 O   0  0  0  0  0  0  0  0  0  0  0  0
   42.1710   27.7230   42.9050 C   0  0  0  0  0  0  0  0  0  0  0  0
   43.0760   26.8270   42.8120 O   0  0  0  0  0  0  0  0  0  0  0  0
   40.8480   27.2590   43.1740 N   0  0  0  0  0  0  0  0  0  0  0  0
   40.7770   27.2510   44.2160 H   0  0  0  0  0  0  0  0  0  0  0  0
   40.2400   27.0310   42.3380 H   0  0  0  0  0  0  0  0  0  0  0  0
   45.2560   34.1420   42.9190 C   0  0  0  0  0  0  0  0  0  0  0  0
   46.5750   34.5260   42.5810 C   0  0  0  0  0  0  0  0  0  0  0  0
   47.5700   34.1020   43.4330 C   0  0  0  0  0  0  0  0  0  0  0  0
   47.1580   33.3840   44.4740 N   0  0  0  0  0  0  0  0  0  0  0  0
   45.9350   33.0060   44.8240 C   0  0  0  0  0  0  0  0  0  0  0  0
   45.0040   33.4100   44.0090 N   0  0  0  0  0  0  0  0  0  0  0  0
   44.4520   34.4670   42.2550 H   0  0  0  0  0  0  0  0  0  0  0  0
   46.8050   35.1140   41.7140 H   0  0  0  0  0  0  0  0  0  0  0  0
   48.9430   34.3580   43.1820 N   0  0  0  0  0  0  0  0  0  0  0  0
   49.3630   33.4020   42.9930 H   0  0  0  0  0  0  0  0  0  0  0  0
   49.0620   35.4040   43.2710 H   0  0  0  0  0  0  0  0  0  0  0  0
  1 10  2  0  0  0  0
  1  2  1  0  0  0  0
  2  3  2  0  0  0  0
  3  4  1  0  0  0  0
  3 12  1  0  0  0  0
  4 13  1  0  0  0  0
  5  6  1  0  0  0  0
  5  4  2  0  0  0  0
  6 14  1  0  0  0  0
  7 15  1  0  0  0  0
  7  6  2  0  0  0  0
  8  9  2  0  0  0  0
  8  7  1  0  0  0  0
  9 10  1  0  0  0  0
 10  5  1  0  0  0  0
 11  2  1  0  0  0  0
 16  8  1  0  0  0  0
 17 26  1  0  0  0  0
 18 17  1  0  0  0  0
 18  9  1  0  0  0  0
 19 23  1  0  0  0  0
 19 18  2  0  0  0  0
 20 21  2  0  0  0  0
 20 19  1  0  0  0  0
 21 22  1  0  0  0  0
 22 28  1  0  0  0  0
 22 17  2  0  0  0  0
 24 20  1  0  0  0  0
 25 21  1  0  0  0  0
 26 27  1  0  0  0  0
 28 29  1  0  0  0  0
 29 31  1  0  0  0  0
 30 29  2  0  0  0  0
 31 32  1  0  0  0  0
 33 31  1  0  0  0  0
 34 39  1  0  0  0  0
 35 34  2  0  0  0  0
 35 36  1  0  0  0  0
 36 37  2  0  0  0  0
 37 38  1  0  0  0  0
 38  1  1  0  0  0  0
 39 38  2  0  0  0  0
 40 34  1  0  0  0  0
 41 35  1  0  0  0  0
 42 44  1  0  0  0  0
 42 36  1  0  0  0  0
 43 42  1  0  0  0  0
M  END
>  <minimizedAffinity>
-4.71813011

>  <minimizedRMSD>
0.315485924

$$$$
