
 OpenBabel03252509303D

 23 23  0  0  0  0  0  0  0  0999 V2000
   47.2620   33.1760   42.9220 C   0  0  0  0  0  0  0  0  0  0  0  0
   46.7640   32.1740   42.9550 H   0  0  0  0  0  0  0  0  0  0  0  0
   47.3230   33.4380   41.8610 H   0  0  0  0  0  0  0  0  0  0  0  0
   45.0020   34.7600   45.4210 C   0  0  0  0  0  0  0  0  0  0  0  0
   45.8800   33.8450   44.8330 C   0  0  0  0  0  0  0  0  0  0  0  0
   46.3360   34.1200   43.5640 C   0  0  0  0  0  0  0  0  0  0  0  0
   45.9180   35.2600   42.9350 N   0  0  0  0  0  0  0  0  0  0  0  0
   45.0580   36.1300   43.5420 C   0  0  0  0  0  0  0  0  0  0  0  0
   44.6080   35.8780   44.7710 N   0  0  0  0  0  0  0  0  0  0  0  0
   44.6280   34.5640   46.4230 H   0  0  0  0  0  0  0  0  0  0  0  0
   46.1500   32.9680   45.4230 H   0  0  0  0  0  0  0  0  0  0  0  0
   44.7750   37.0160   42.9690 H   0  0  0  0  0  0  0  0  0  0  0  0
   48.4750   33.1170   43.5840 O   0  0  0  0  0  0  0  0  0  0  0  0
   50.8790   32.7840   42.6200 O   0  0  0  0  0  0  0  0  0  0  0  0
   49.6620   33.6540   42.5110 P   0  0  2  0  0  0  0  0  0  0  0  0
   49.9840   35.2690   42.9150 O   0  0  0  0  0  0  0  0  0  0  0  0
   49.1210   35.6940   43.1520 H   0  0  0  0  0  0  0  0  0  0  0  0
   49.0540   33.5490   40.9510 O   0  0  0  0  0  0  0  0  0  0  0  0
   48.2860   34.5120   40.3290 C   0  0  0  0  0  0  0  0  0  0  0  0
   48.7450   35.6850   40.5460 O   0  0  0  0  0  0  0  0  0  0  0  0
   47.1240   34.3240   39.5320 N   0  0  0  0  0  0  0  0  0  0  0  0
   47.5560   34.0810   38.5920 H   0  0  0  0  0  0  0  0  0  0  0  0
   46.3160   34.5010   40.1980 H   0  0  0  0  0  0  0  0  0  0  0  0
  1  2  1  0  0  0  0
  1  6  1  0  0  0  0
  1 13  1  0  0  0  0
  3  1  1  0  0  0  0
  4 10  1  0  0  0  0
  5  4  1  0  0  0  0
  5 11  1  0  0  0  0
  6  5  2  0  0  0  0
  7  8  2  0  0  0  0
  7  6  1  0  0  0  0
  8  9  1  0  0  0  0
  9  4  2  0  0  0  0
 12  8  1  0  0  0  0
 15 14  2  1  0  0  0
 15 16  1  0  0  0  0
 15 13  1  0  0  0  0
 16 17  1  0  0  0  0
 18 15  1  0  0  0  0
 19 20  2  0  0  0  0
 19 18  1  0  0  0  0
 21 23  1  0  0  0  0
 21 19  1  0  0  0  0
 22 21  1  0  0  0  0
M  END
>  <minimizedAffinity>
-4.44041824

>  <minimizedRMSD>
1.15333879

$$$$
