
 OpenBabel03242520313D

 37 38  0  0  0  0  0  0  0  0999 V2000
   39.8350   29.8020   37.7670 C   0  0  0  0  0  0  0  0  0  0  0  0
   39.4750   29.9990   39.1320 C   0  0  0  0  0  0  0  0  0  0  0  0
   39.6230   28.9270   39.9960 C   0  0  0  0  0  0  0  0  0  0  0  0
   40.0970   27.7490   39.5290 N   0  0  0  0  0  0  0  0  0  0  0  0
   40.4320   27.5840   38.2380 C   0  0  0  0  0  0  0  0  0  0  0  0
   40.3020   28.6000   37.3720 N   0  0  0  0  0  0  0  0  0  0  0  0
   39.7320   30.6130   37.0740 H   0  0  0  0  0  0  0  0  0  0  0  0
   40.8060   26.6230   37.9120 H   0  0  0  0  0  0  0  0  0  0  0  0
   38.9930   31.2960   39.4620 N   0  0  0  0  0  0  0  0  0  0  0  0
   39.1860   31.8900   40.7660 C   0  0  0  0  0  0  0  0  0  0  0  0
   38.6810   33.3050   40.7620 C   0  0  0  0  0  0  0  0  0  0  0  0
   37.3350   33.4230   40.2490 N   0  0  0  0  0  0  0  0  0  0  0  0
   37.1080   32.7670   39.0020 C   0  0  0  0  0  0  0  0  0  0  0  0
   38.2790   32.0410   38.4300 C   0  0  0  0  0  0  0  0  0  0  0  0
   40.2860   31.9430   40.9460 H   0  0  0  0  0  0  0  0  0  0  0  0
   38.6890   31.3470   41.5770 H   0  0  0  0  0  0  0  0  0  0  0  0
   38.6650   33.6410   41.8140 H   0  0  0  0  0  0  0  0  0  0  0  0
   39.3960   33.9400   40.1910 H   0  0  0  0  0  0  0  0  0  0  0  0
   36.6980   32.9700   40.9690 H   0  0  0  0  0  0  0  0  0  0  0  0
   36.2200   32.0930   38.9890 H   0  0  0  0  0  0  0  0  0  0  0  0
   36.8410   33.5630   38.2460 H   0  0  0  0  0  0  0  0  0  0  0  0
   39.0030   32.8110   38.0440 H   0  0  0  0  0  0  0  0  0  0  0  0
   37.9540   31.4190   37.5980 H   0  0  0  0  0  0  0  0  0  0  0  0
   39.2630   29.1520   41.3130 O   0  0  0  0  0  0  0  0  0  0  0  0
   37.5470   28.9620   43.3310 O   0  0  0  0  0  0  0  0  0  0  0  0
   37.8850   28.3450   41.9610 P   0  0  1  0  0  0  0  0  0  0  0  0
   36.6250   28.5140   40.8970 O   0  0  0  0  0  0  0  0  0  0  0  0
   35.9290   29.6890   40.6690 C   0  0  0  0  0  0  0  0  0  0  0  0
   35.3860   29.6680   39.5160 O   0  0  0  0  0  0  0  0  0  0  0  0
   35.7480   30.8250   41.4740 N   0  0  0  0  0  0  0  0  0  0  0  0
   36.3350   31.5590   41.0030 H   0  0  0  0  0  0  0  0  0  0  0  0
   35.2340   31.0930   42.3280 H   0  0  0  0  0  0  0  0  0  0  0  0
   38.3360   26.7410   42.2150 O   0  0  0  0  0  0  0  0  0  0  0  0
   37.2550   25.8890   42.2340 C   0  0  0  0  0  0  0  0  0  0  0  0
   36.7050   25.6640   40.9930 F   0  0  0  0  0  0  0  0  0  0  0  0
   36.2540   26.2340   43.1030 F   0  0  0  0  0  0  0  0  0  0  0  0
   37.7650   24.6640   42.6880 F   0  0  0  0  0  0  0  0  0  0  0  0
  1  2  1  0  0  0  0
  2  9  1  0  0  0  0
  2  3  2  0  0  0  0
  3 24  1  0  0  0  0
  4  3  1  0  0  0  0
  5  4  2  0  0  0  0
  6  1  2  0  0  0  0
  6  5  1  0  0  0  0
  7  1  1  0  0  0  0
  8  5  1  0  0  0  0
  9 10  1  0  0  0  0
 10 15  1  0  0  0  0
 10 16  1  0  0  0  0
 11 10  1  0  0  0  0
 11 17  1  0  0  0  0
 12 11  1  0  0  0  0
 12 19  1  0  0  0  0
 13 12  1  0  0  0  0
 14 13  1  0  0  0  0
 14  9  1  0  0  0  0
 18 11  1  0  0  0  0
 20 13  1  0  0  0  0
 21 13  1  0  0  0  0
 22 14  1  0  0  0  0
 23 14  1  0  0  0  0
 24 26  1  0  0  0  0
 26 33  1  0  0  0  0
 26 25  2  1  0  0  0
 27 26  1  0  0  0  0
 28 27  1  0  0  0  0
 28 30  1  0  0  0  0
 29 28  2  0  0  0  0
 30 32  1  0  0  0  0
 31 30  1  0  0  0  0
 33 34  1  0  0  0  0
 34 37  1  0  0  0  0
 34 36  1  0  0  0  0
 35 34  1  0  0  0  0
M  END
>  <minimizedAffinity>
-5.24772978

$$$$

 OpenBabel03242520313D

 37 38  0  0  0  0  0  0  0  0999 V2000
   40.7820   30.2910   38.8130 C   0  0  0  0  0  0  0  0  0  0  0  0
   40.2360   30.0720   40.1120 C   0  0  0  0  0  0  0  0  0  0  0  0
   40.8870   29.1730   40.9390 C   0  0  0  0  0  0  0  0  0  0  0  0
   42.0000   28.5410   40.5000 N   0  0  0  0  0  0  0  0  0  0  0  0
   42.5000   28.7630   39.2720 C   0  0  0  0  0  0  0  0  0  0  0  0
   41.8960   29.6260   38.4430 N   0  0  0  0  0  0  0  0  0  0  0  0
   40.3000   30.9800   38.1510 H   0  0  0  0  0  0  0  0  0  0  0  0
   43.3920   28.2340   38.9660 H   0  0  0  0  0  0  0  0  0  0  0  0
   39.0600   30.8130   40.4200 N   0  0  0  0  0  0  0  0  0  0  0  0
   37.7340   30.3400   40.0950 C   0  0  0  0  0  0  0  0  0  0  0  0
   36.7050   31.2780   40.6600 C   0  0  0  0  0  0  0  0  0  0  0  0
   36.9460   32.6590   40.3100 N   0  0  0  0  0  0  0  0  0  0  0  0
   38.2780   33.1150   40.5450 C   0  0  0  0  0  0  0  0  0  0  0  0
   39.2230   32.0990   41.0920 C   0  0  0  0  0  0  0  0  0  0  0  0
   37.5950   29.3620   40.6140 H   0  0  0  0  0  0  0  0  0  0  0  0
   37.5530   30.2350   39.0210 H   0  0  0  0  0  0  0  0  0  0  0  0
   35.7340   30.9890   40.2210 H   0  0  0  0  0  0  0  0  0  0  0  0
   36.6580   31.1360   41.7650 H   0  0  0  0  0  0  0  0  0  0  0  0
   36.7610   32.7410   39.2660 H   0  0  0  0  0  0  0  0  0  0  0  0
   38.7540   33.6230   39.6750 H   0  0  0  0  0  0  0  0  0  0  0  0
   38.2210   33.9310   41.3240 H   0  0  0  0  0  0  0  0  0  0  0  0
   38.9500   31.9240   42.1690 H   0  0  0  0  0  0  0  0  0  0  0  0
   40.2400   32.4820   41.0470 H   0  0  0  0  0  0  0  0  0  0  0  0
   40.3310   28.9830   42.1920 O   0  0  0  0  0  0  0  0  0  0  0  0
   39.1710   26.8160   41.1870 O   0  0  0  0  0  0  0  0  0  0  0  0
   39.4610   27.5320   42.5190 P   0  0  1  0  0  0  0  0  0  0  0  0
   40.3750   26.5840   43.5250 O   0  0  0  0  0  0  0  0  0  0  0  0
   40.7940   25.2940   43.2410 C   0  0  0  0  0  0  0  0  0  0  0  0
   39.8130   24.4830   43.3090 O   0  0  0  0  0  0  0  0  0  0  0  0
   42.0600   24.7880   42.9100 N   0  0  0  0  0  0  0  0  0  0  0  0
   42.3470   24.2570   43.7700 H   0  0  0  0  0  0  0  0  0  0  0  0
   42.7150   24.8060   42.1120 H   0  0  0  0  0  0  0  0  0  0  0  0
   37.9850   27.9920   43.1900 O   0  0  0  0  0  0  0  0  0  0  0  0
   36.9410   27.2110   42.7470 C   0  0  0  0  0  0  0  0  0  0  0  0
   37.2220   25.8640   42.7400 F   0  0  0  0  0  0  0  0  0  0  0  0
   36.4280   27.5600   41.5260 F   0  0  0  0  0  0  0  0  0  0  0  0
   35.9130   27.4140   43.6800 F   0  0  0  0  0  0  0  0  0  0  0  0
  1  2  1  0  0  0  0
  2  9  1  0  0  0  0
  2  3  2  0  0  0  0
  3 24  1  0  0  0  0
  4  3  1  0  0  0  0
  5  4  2  0  0  0  0
  6  1  2  0  0  0  0
  6  5  1  0  0  0  0
  7  1  1  0  0  0  0
  8  5  1  0  0  0  0
  9 14  1  0  0  0  0
 10  9  1  0  0  0  0
 10 15  1  0  0  0  0
 10 11  1  0  0  0  0
 11 18  1  0  0  0  0
 12 13  1  0  0  0  0
 12 11  1  0  0  0  0
 13 14  1  0  0  0  0
 13 21  1  0  0  0  0
 14 22  1  0  0  0  0
 16 10  1  0  0  0  0
 17 11  1  0  0  0  0
 19 12  1  0  0  0  0
 20 13  1  0  0  0  0
 23 14  1  0  0  0  0
 24 26  1  0  0  0  0
 26 25  2  6  0  0  0
 26 33  1  0  0  0  0
 26 27  1  0  0  0  0
 28 29  2  0  0  0  0
 28 27  1  0  0  0  0
 30 28  1  0  0  0  0
 30 31  1  0  0  0  0
 32 30  1  0  0  0  0
 34 33  1  0  0  0  0
 34 37  1  0  0  0  0
 35 34  1  0  0  0  0
 36 34  1  0  0  0  0
M  END
>  <minimizedAffinity>
-5.18936825

$$$$

 OpenBabel03242520313D

 37 38  0  0  0  0  0  0  0  0999 V2000
   38.7150   28.5920   37.6590 C   0  0  0  0  0  0  0  0  0  0  0  0
   38.6100   28.6670   39.0790 C   0  0  0  0  0  0  0  0  0  0  0  0
   39.4760   27.8880   39.8280 C   0  0  0  0  0  0  0  0  0  0  0  0
   40.3780   27.0960   39.2040 N   0  0  0  0  0  0  0  0  0  0  0  0
   40.4610   27.0410   37.8630 C   0  0  0  0  0  0  0  0  0  0  0  0
   39.6390   27.7810   37.1050 N   0  0  0  0  0  0  0  0  0  0  0  0
   38.0590   29.1830   37.0530 H   0  0  0  0  0  0  0  0  0  0  0  0
   41.1980   26.3920   37.4100 H   0  0  0  0  0  0  0  0  0  0  0  0
   37.6100   29.5470   39.5790 N   0  0  0  0  0  0  0  0  0  0  0  0
   37.9280   30.7960   40.2340 C   0  0  0  0  0  0  0  0  0  0  0  0
   36.6650   31.5540   40.5290 C   0  0  0  0  0  0  0  0  0  0  0  0
   35.6770   30.7580   41.2180 N   0  0  0  0  0  0  0  0  0  0  0  0
   35.4150   29.4830   40.6300 C   0  0  0  0  0  0  0  0  0  0  0  0
   36.2140   29.1550   39.4140 C   0  0  0  0  0  0  0  0  0  0  0  0
   38.5090   31.4120   39.5060 H   0  0  0  0  0  0  0  0  0  0  0  0
   38.4860   30.6760   41.1680 H   0  0  0  0  0  0  0  0  0  0  0  0
   36.9430   32.3880   41.1960 H   0  0  0  0  0  0  0  0  0  0  0  0
   36.2660   31.9710   39.5760 H   0  0  0  0  0  0  0  0  0  0  0  0
   36.0570   30.5850   42.1960 H   0  0  0  0  0  0  0  0  0  0  0  0
   35.4660   28.6260   41.3410 H   0  0  0  0  0  0  0  0  0  0  0  0
   34.3350   29.4810   40.2980 H   0  0  0  0  0  0  0  0  0  0  0  0
   35.8140   29.7770   38.5660 H   0  0  0  0  0  0  0  0  0  0  0  0
   36.0880   28.1030   39.1650 H   0  0  0  0  0  0  0  0  0  0  0  0
   39.3470   27.9840   41.2030 O   0  0  0  0  0  0  0  0  0  0  0  0
   40.5550   26.0130   42.5090 O   0  0  0  0  0  0  0  0  0  0  0  0
   39.1600   26.5460   42.1360 P   0  0  1  0  0  0  0  0  0  0  0  0
   38.2710   26.9060   43.4870 O   0  0  0  0  0  0  0  0  0  0  0  0
   37.3060   27.8970   43.5640 C   0  0  0  0  0  0  0  0  0  0  0  0
   36.1460   27.3810   43.6800 O   0  0  0  0  0  0  0  0  0  0  0  0
   37.4170   29.2960   43.5350 N   0  0  0  0  0  0  0  0  0  0  0  0
   37.0280   29.5560   42.5950 H   0  0  0  0  0  0  0  0  0  0  0  0
   37.7530   30.0570   44.1470 H   0  0  0  0  0  0  0  0  0  0  0  0
   38.4240   25.4100   41.1330 O   0  0  0  0  0  0  0  0  0  0  0  0
   37.8340   24.3880   41.8430 C   0  0  0  0  0  0  0  0  0  0  0  0
   36.5340   24.6480   42.2110 F   0  0  0  0  0  0  0  0  0  0  0  0
   38.5290   23.9660   42.9460 F   0  0  0  0  0  0  0  0  0  0  0  0
   37.8030   23.3000   40.9580 F   0  0  0  0  0  0  0  0  0  0  0  0
  1  2  1  0  0  0  0
  2  9  1  0  0  0  0
  2  3  2  0  0  0  0
  3 24  1  0  0  0  0
  4  3  1  0  0  0  0
  5  4  2  0  0  0  0
  6  1  2  0  0  0  0
  6  5  1  0  0  0  0
  7  1  1  0  0  0  0
  8  5  1  0  0  0  0
  9 10  1  0  0  0  0
 10 11  1  0  0  0  0
 10 16  1  0  0  0  0
 11 17  1  0  0  0  0
 11 12  1  0  0  0  0
 12 19  1  0  0  0  0
 13 12  1  0  0  0  0
 13 20  1  0  0  0  0
 14  9  1  0  0  0  0
 14 13  1  0  0  0  0
 15 10  1  0  0  0  0
 18 11  1  0  0  0  0
 21 13  1  0  0  0  0
 22 14  1  0  0  0  0
 23 14  1  0  0  0  0
 24 26  1  0  0  0  0
 26 25  2  1  0  0  0
 26 27  1  0  0  0  0
 27 28  1  0  0  0  0
 28 29  2  0  0  0  0
 30 28  1  0  0  0  0
 30 32  1  0  0  0  0
 31 30  1  0  0  0  0
 33 34  1  0  0  0  0
 33 26  1  0  0  0  0
 34 35  1  0  0  0  0
 34 36  1  0  0  0  0
 37 34  1  0  0  0  0
M  END
>  <minimizedAffinity>
-5.14367962

$$$$

 OpenBabel03242520313D

 37 38  0  0  0  0  0  0  0  0999 V2000
   39.8880   31.7800   37.7730 C   0  0  0  0  0  0  0  0  0  0  0  0
   39.6110   30.5350   38.4100 C   0  0  0  0  0  0  0  0  0  0  0  0
   39.9940   30.3920   39.7330 C   0  0  0  0  0  0  0  0  0  0  0  0
   40.6080   31.4170   40.3690 N   0  0  0  0  0  0  0  0  0  0  0  0
   40.8600   32.5830   39.7490 C   0  0  0  0  0  0  0  0  0  0  0  0
   40.5030   32.7580   38.4690 N   0  0  0  0  0  0  0  0  0  0  0  0
   39.6030   31.9200   36.7500 H   0  0  0  0  0  0  0  0  0  0  0  0
   41.3530   33.3730   40.3000 H   0  0  0  0  0  0  0  0  0  0  0  0
   38.9600   29.5600   37.6040 N   0  0  0  0  0  0  0  0  0  0  0  0
   39.6750   28.4870   36.9500 C   0  0  0  0  0  0  0  0  0  0  0  0
   38.7020   27.5560   36.2850 C   0  0  0  0  0  0  0  0  0  0  0  0
   37.7550   28.2410   35.4350 N   0  0  0  0  0  0  0  0  0  0  0  0
   37.1050   29.3580   36.0410 C   0  0  0  0  0  0  0  0  0  0  0  0
   37.5130   29.6650   37.4420 C   0  0  0  0  0  0  0  0  0  0  0  0
   40.1880   27.8970   37.7480 H   0  0  0  0  0  0  0  0  0  0  0  0
   40.3960   28.8280   36.2010 H   0  0  0  0  0  0  0  0  0  0  0  0
   39.2940   26.8810   35.6430 H   0  0  0  0  0  0  0  0  0  0  0  0
   38.1900   26.9510   37.0680 H   0  0  0  0  0  0  0  0  0  0  0  0
   38.3070   28.6070   34.6030 H   0  0  0  0  0  0  0  0  0  0  0  0
   37.1380   30.2960   35.4390 H   0  0  0  0  0  0  0  0  0  0  0  0
   36.0010   29.1200   36.0880 H   0  0  0  0  0  0  0  0  0  0  0  0
   37.0680   28.8750   38.1080 H   0  0  0  0  0  0  0  0  0  0  0  0
   37.1170   30.6340   37.7370 H   0  0  0  0  0  0  0  0  0  0  0  0
   39.7110   29.1720   40.3210 O   0  0  0  0  0  0  0  0  0  0  0  0
   39.6470   29.1440   42.9760 O   0  0  0  0  0  0  0  0  0  0  0  0
   38.7310   29.1250   41.7390 P   0  0  1  0  0  0  0  0  0  0  0  0
   37.7140   30.4340   41.7210 O   0  0  0  0  0  0  0  0  0  0  0  0
   36.5330   30.5150   41.0020 C   0  0  0  0  0  0  0  0  0  0  0  0
   36.5350   31.5510   40.2580 O   0  0  0  0  0  0  0  0  0  0  0  0
   35.4100   29.6740   40.9770 N   0  0  0  0  0  0  0  0  0  0  0  0
   34.6700   30.2330   41.4730 H   0  0  0  0  0  0  0  0  0  0  0  0
   35.1530   28.7360   40.6270 H   0  0  0  0  0  0  0  0  0  0  0  0
   37.9200   27.6480   41.7190 O   0  0  0  0  0  0  0  0  0  0  0  0
   37.3990   27.3190   42.9500 C   0  0  0  0  0  0  0  0  0  0  0  0
   36.4400   26.3340   42.9010 F   0  0  0  0  0  0  0  0  0  0  0  0
   36.9120   28.3720   43.6780 F   0  0  0  0  0  0  0  0  0  0  0  0
   38.4830   26.8050   43.6780 F   0  0  0  0  0  0  0  0  0  0  0  0
  1  2  2  0  0  0  0
  1  6  1  0  0  0  0
  2  3  1  0  0  0  0
  3 24  1  0  0  0  0
  3  4  2  0  0  0  0
  5  8  1  0  0  0  0
  5  4  1  0  0  0  0
  6  5  2  0  0  0  0
  7  1  1  0  0  0  0
  9  2  1  0  0  0  0
 10  9  1  0  0  0  0
 10 15  1  0  0  0  0
 11 10  1  0  0  0  0
 11 18  1  0  0  0  0
 12 13  1  0  0  0  0
 12 11  1  0  0  0  0
 13 21  1  0  0  0  0
 13 14  1  0  0  0  0
 14  9  1  0  0  0  0
 14 23  1  0  0  0  0
 14 22  1  0  0  0  0
 16 10  1  0  0  0  0
 17 11  1  0  0  0  0
 19 12  1  0  0  0  0
 20 13  1  0  0  0  0
 24 26  1  0  0  0  0
 26 25  2  1  0  0  0
 27 26  1  0  0  0  0
 28 27  1  0  0  0  0
 29 28  2  0  0  0  0
 30 28  1  0  0  0  0
 30 31  1  0  0  0  0
 32 30  1  0  0  0  0
 33 26  1  0  0  0  0
 33 34  1  0  0  0  0
 34 36  1  0  0  0  0
 34 37  1  0  0  0  0
 35 34  1  0  0  0  0
M  END
>  <minimizedAffinity>
-4.96993351

$$$$

 OpenBabel03242520313D

 37 38  0  0  0  0  0  0  0  0999 V2000
   37.6790   31.0590   37.3870 C   0  0  0  0  0  0  0  0  0  0  0  0
   37.7470   31.2080   38.8030 C   0  0  0  0  0  0  0  0  0  0  0  0
   36.9260   30.4020   39.5730 C   0  0  0  0  0  0  0  0  0  0  0  0
   36.1000   29.5140   38.9710 N   0  0  0  0  0  0  0  0  0  0  0  0
   36.0520   29.3890   37.6340 C   0  0  0  0  0  0  0  0  0  0  0  0
   36.8330   30.1530   36.8560 N   0  0  0  0  0  0  0  0  0  0  0  0
   38.3020   31.6680   36.7640 H   0  0  0  0  0  0  0  0  0  0  0  0
   35.3760   28.6660   37.1990 H   0  0  0  0  0  0  0  0  0  0  0  0
   38.6660   32.1850   39.2780 N   0  0  0  0  0  0  0  0  0  0  0  0
   40.0980   31.9970   39.2260 C   0  0  0  0  0  0  0  0  0  0  0  0
   40.7940   33.2490   39.6790 C   0  0  0  0  0  0  0  0  0  0  0  0
   40.3050   33.7410   40.9470 N   0  0  0  0  0  0  0  0  0  0  0  0
   38.8840   33.8490   41.0410 C   0  0  0  0  0  0  0  0  0  0  0  0
   38.1200   33.4190   39.8340 C   0  0  0  0  0  0  0  0  0  0  0  0
   40.3740   31.8470   38.1550 H   0  0  0  0  0  0  0  0  0  0  0  0
   40.4560   31.1620   39.8370 H   0  0  0  0  0  0  0  0  0  0  0  0
   41.8590   32.9920   39.8120 H   0  0  0  0  0  0  0  0  0  0  0  0
   40.7060   34.0190   38.8780 H   0  0  0  0  0  0  0  0  0  0  0  0
   40.6200   33.0420   41.6820 H   0  0  0  0  0  0  0  0  0  0  0  0
   38.4420   33.3660   41.9430 H   0  0  0  0  0  0  0  0  0  0  0  0
   38.6390   34.9420   41.1860 H   0  0  0  0  0  0  0  0  0  0  0  0
   38.2610   34.2060   39.0430 H   0  0  0  0  0  0  0  0  0  0  0  0
   37.0610   33.3510   40.0750 H   0  0  0  0  0  0  0  0  0  0  0  0
   37.0160   30.5720   40.9430 O   0  0  0  0  0  0  0  0  0  0  0  0
   38.7840   28.5910   40.9160 O   0  0  0  0  0  0  0  0  0  0  0  0
   38.1960   29.6810   41.8290 P   0  0  1  0  0  0  0  0  0  0  0  0
   39.3700   30.7310   42.3460 O   0  0  0  0  0  0  0  0  0  0  0  0
   40.7070   30.4080   42.5170 C   0  0  0  0  0  0  0  0  0  0  0  0
   41.4010   31.4640   42.6880 O   0  0  0  0  0  0  0  0  0  0  0  0
   41.3620   29.1670   42.5270 N   0  0  0  0  0  0  0  0  0  0  0  0
   41.8960   29.1600   41.6210 H   0  0  0  0  0  0  0  0  0  0  0  0
   41.4420   28.3400   43.1410 H   0  0  0  0  0  0  0  0  0  0  0  0
   37.3810   28.9160   43.0900 O   0  0  0  0  0  0  0  0  0  0  0  0
   36.8640   27.6960   42.7150 C   0  0  0  0  0  0  0  0  0  0  0  0
   37.7830   26.6730   42.7470 F   0  0  0  0  0  0  0  0  0  0  0  0
   36.2270   27.6780   41.5030 F   0  0  0  0  0  0  0  0  0  0  0  0
   35.8870   27.4030   43.6790 F   0  0  0  0  0  0  0  0  0  0  0  0
  1  2  1  0  0  0  0
  2  9  1  0  0  0  0
  2  3  2  0  0  0  0
  3 24  1  0  0  0  0
  4  3  1  0  0  0  0
  5  4  2  0  0  0  0
  6  1  2  0  0  0  0
  6  5  1  0  0  0  0
  7  1  1  0  0  0  0
  8  5  1  0  0  0  0
  9 14  1  0  0  0  0
 10  9  1  0  0  0  0
 10 11  1  0  0  0  0
 10 16  1  0  0  0  0
 11 17  1  0  0  0  0
 11 12  1  0  0  0  0
 12 13  1  0  0  0  0
 12 19  1  0  0  0  0
 13 21  1  0  0  0  0
 13 20  1  0  0  0  0
 14 23  1  0  0  0  0
 14 13  1  0  0  0  0
 15 10  1  0  0  0  0
 18 11  1  0  0  0  0
 22 14  1  0  0  0  0
 24 26  1  0  0  0  0
 26 25  2  6  0  0  0
 26 27  1  0  0  0  0
 26 33  1  0  0  0  0
 27 28  1  0  0  0  0
 28 30  1  0  0  0  0
 28 29  2  0  0  0  0
 30 32  1  0  0  0  0
 31 30  1  0  0  0  0
 34 35  1  0  0  0  0
 34 33  1  0  0  0  0
 34 37  1  0  0  0  0
 36 34  1  0  0  0  0
M  END
>  <minimizedAffinity>
-4.87575388

$$$$

 OpenBabel03242520313D

 37 38  0  0  0  0  0  0  0  0999 V2000
   40.2510   27.2950   39.6580 C   0  0  0  0  0  0  0  0  0  0  0  0
   39.9220   28.4870   40.3670 C   0  0  0  0  0  0  0  0  0  0  0  0
   40.7100   29.6040   40.1480 C   0  0  0  0  0  0  0  0  0  0  0  0
   41.7500   29.5320   39.2840 N   0  0  0  0  0  0  0  0  0  0  0  0
   42.0430   28.3980   38.6240 C   0  0  0  0  0  0  0  0  0  0  0  0
   41.3010   27.2970   38.8110 N   0  0  0  0  0  0  0  0  0  0  0  0
   39.6590   26.4150   39.8060 H   0  0  0  0  0  0  0  0  0  0  0  0
   42.8840   28.3910   37.9440 H   0  0  0  0  0  0  0  0  0  0  0  0
   38.7990   28.3970   41.2380 N   0  0  0  0  0  0  0  0  0  0  0  0
   37.4370   28.4240   40.7570 C   0  0  0  0  0  0  0  0  0  0  0  0
   36.4890   28.1810   41.8970 C   0  0  0  0  0  0  0  0  0  0  0  0
   36.7350   29.0420   43.0300 N   0  0  0  0  0  0  0  0  0  0  0  0
   38.0950   29.0920   43.4620 C   0  0  0  0  0  0  0  0  0  0  0  0
   39.0570   28.2730   42.6690 C   0  0  0  0  0  0  0  0  0  0  0  0
   37.3170   27.5660   40.0530 H   0  0  0  0  0  0  0  0  0  0  0  0
   37.1580   29.3630   40.2700 H   0  0  0  0  0  0  0  0  0  0  0  0
   35.4750   28.4080   41.5230 H   0  0  0  0  0  0  0  0  0  0  0  0
   36.5360   27.1040   42.1800 H   0  0  0  0  0  0  0  0  0  0  0  0
   36.4610   30.0240   42.7280 H   0  0  0  0  0  0  0  0  0  0  0  0
   38.5060   30.1220   43.5800 H   0  0  0  0  0  0  0  0  0  0  0  0
   38.1300   28.6770   44.5120 H   0  0  0  0  0  0  0  0  0  0  0  0
   38.8760   27.1920   42.9250 H   0  0  0  0  0  0  0  0  0  0  0  0
   40.0760   28.5320   42.9470 H   0  0  0  0  0  0  0  0  0  0  0  0
   40.3640   30.7430   40.8520 O   0  0  0  0  0  0  0  0  0  0  0  0
   39.1450   33.0960   41.0230 O   0  0  0  0  0  0  0  0  0  0  0  0
   39.7240   32.0990   40.0020 P   0  0  1  0  0  0  0  0  0  0  0  0
   40.9410   32.7870   39.1120 O   0  0  0  0  0  0  0  0  0  0  0  0
   40.9840   32.8370   37.7290 C   0  0  0  0  0  0  0  0  0  0  0  0
   42.0260   33.4590   37.3380 O   0  0  0  0  0  0  0  0  0  0  0  0
   40.1030   32.3330   36.7600 N   0  0  0  0  0  0  0  0  0  0  0  0
   39.6430   33.1940   36.3710 H   0  0  0  0  0  0  0  0  0  0  0  0
   39.8210   31.4180   36.3720 H   0  0  0  0  0  0  0  0  0  0  0  0
   38.4490   31.5250   39.0620 O   0  0  0  0  0  0  0  0  0  0  0  0
   37.2210   31.9110   39.5500 C   0  0  0  0  0  0  0  0  0  0  0  0
   36.9080   33.2240   39.2840 F   0  0  0  0  0  0  0  0  0  0  0  0
   37.0220   31.6720   40.8840 F   0  0  0  0  0  0  0  0  0  0  0  0
   36.2910   31.1170   38.8640 F   0  0  0  0  0  0  0  0  0  0  0  0
  1  7  1  0  0  0  0
  1  2  1  0  0  0  0
  2  9  1  0  0  0  0
  3  2  2  0  0  0  0
  3 24  1  0  0  0  0
  4  3  1  0  0  0  0
  5  6  1  0  0  0  0
  5  4  2  0  0  0  0
  6  1  2  0  0  0  0
  8  5  1  0  0  0  0
  9 14  1  0  0  0  0
 10  9  1  0  0  0  0
 10 11  1  0  0  0  0
 11 18  1  0  0  0  0
 11 12  1  0  0  0  0
 12 13  1  0  0  0  0
 13 20  1  0  0  0  0
 13 21  1  0  0  0  0
 14 22  1  0  0  0  0
 14 23  1  0  0  0  0
 14 13  1  0  0  0  0
 15 10  1  0  0  0  0
 16 10  1  0  0  0  0
 17 11  1  0  0  0  0
 19 12  1  0  0  0  0
 26 24  1  0  0  0  0
 26 25  2  1  0  0  0
 27 26  1  0  0  0  0
 28 27  1  0  0  0  0
 29 28  2  0  0  0  0
 30 28  1  0  0  0  0
 31 30  1  0  0  0  0
 32 30  1  0  0  0  0
 33 34  1  0  0  0  0
 33 26  1  0  0  0  0
 34 36  1  0  0  0  0
 35 34  1  0  0  0  0
 37 34  1  0  0  0  0
M  END
>  <minimizedAffinity>
-4.87280893

$$$$

 OpenBabel03242520313D

 37 38  0  0  0  0  0  0  0  0999 V2000
   41.7930   31.0270   40.5390 C   0  0  0  0  0  0  0  0  0  0  0  0
   40.4490   30.5610   40.4570 C   0  0  0  0  0  0  0  0  0  0  0  0
   40.2100   29.2310   40.7610 C   0  0  0  0  0  0  0  0  0  0  0  0
   41.2400   28.4290   41.1200 N   0  0  0  0  0  0  0  0  0  0  0  0
   42.5010   28.8890   41.1920 C   0  0  0  0  0  0  0  0  0  0  0  0
   42.7700   30.1710   40.9050 N   0  0  0  0  0  0  0  0  0  0  0  0
   42.0090   32.0510   40.3100 H   0  0  0  0  0  0  0  0  0  0  0  0
   43.2900   28.2100   41.4840 H   0  0  0  0  0  0  0  0  0  0  0  0
   39.4820   31.5290   40.0640 N   0  0  0  0  0  0  0  0  0  0  0  0
   38.9080   32.4770   40.9930 C   0  0  0  0  0  0  0  0  0  0  0  0
   38.0240   33.4420   40.2550 C   0  0  0  0  0  0  0  0  0  0  0  0
   37.0590   32.7870   39.4030 N   0  0  0  0  0  0  0  0  0  0  0  0
   37.6010   31.7860   38.5410 C   0  0  0  0  0  0  0  0  0  0  0  0
   39.0690   31.5490   38.6650 C   0  0  0  0  0  0  0  0  0  0  0  0
   39.7500   33.0740   41.4190 H   0  0  0  0  0  0  0  0  0  0  0  0
   38.3220   32.0120   41.7920 H   0  0  0  0  0  0  0  0  0  0  0  0
   37.4620   34.0070   41.0190 H   0  0  0  0  0  0  0  0  0  0  0  0
   38.6660   34.1500   39.6820 H   0  0  0  0  0  0  0  0  0  0  0  0
   36.3630   32.3080   40.0480 H   0  0  0  0  0  0  0  0  0  0  0  0
   37.0700   30.8060   38.5790 H   0  0  0  0  0  0  0  0  0  0  0  0
   37.4340   32.1310   37.4780 H   0  0  0  0  0  0  0  0  0  0  0  0
   39.5960   32.4270   38.1970 H   0  0  0  0  0  0  0  0  0  0  0  0
   39.3420   30.6470   38.1220 H   0  0  0  0  0  0  0  0  0  0  0  0
   38.8950   28.8110   40.6710 O   0  0  0  0  0  0  0  0  0  0  0  0
   38.4900   29.3290   43.2430 O   0  0  0  0  0  0  0  0  0  0  0  0
   38.0420   28.3900   42.1080 P   0  0  1  0  0  0  0  0  0  0  0  0
   36.4170   28.5300   41.8170 O   0  0  0  0  0  0  0  0  0  0  0  0
   35.8280   29.5180   41.0450 C   0  0  0  0  0  0  0  0  0  0  0  0
   35.4340   29.0380   39.9320 O   0  0  0  0  0  0  0  0  0  0  0  0
   35.6180   30.8830   41.2970 N   0  0  0  0  0  0  0  0  0  0  0  0
   36.3040   31.3610   40.6610 H   0  0  0  0  0  0  0  0  0  0  0  0
   35.0180   31.4750   41.8930 H   0  0  0  0  0  0  0  0  0  0  0  0
   38.5170   26.8250   42.5140 O   0  0  0  0  0  0  0  0  0  0  0  0
   37.6930   25.8690   41.9660 C   0  0  0  0  0  0  0  0  0  0  0  0
   37.3460   26.1190   40.6580 F   0  0  0  0  0  0  0  0  0  0  0  0
   36.5550   25.6000   42.6800 F   0  0  0  0  0  0  0  0  0  0  0  0
   38.4500   24.6880   41.9730 F   0  0  0  0  0  0  0  0  0  0  0  0
  1  6  1  0  0  0  0
  2  1  2  0  0  0  0
  2  3  1  0  0  0  0
  3  4  2  0  0  0  0
  4  5  1  0  0  0  0
  5  8  1  0  0  0  0
  6  5  2  0  0  0  0
  7  1  1  0  0  0  0
  9  2  1  0  0  0  0
  9 10  1  0  0  0  0
 10 15  1  0  0  0  0
 10 16  1  0  0  0  0
 11 10  1  0  0  0  0
 11 17  1  0  0  0  0
 12 19  1  0  0  0  0
 12 11  1  0  0  0  0
 13 20  1  0  0  0  0
 13 14  1  0  0  0  0
 13 12  1  0  0  0  0
 14  9  1  0  0  0  0
 18 11  1  0  0  0  0
 21 13  1  0  0  0  0
 22 14  1  0  0  0  0
 23 14  1  0  0  0  0
 24  3  1  0  0  0  0
 24 26  1  0  0  0  0
 26 33  1  0  0  0  0
 26 25  2  1  0  0  0
 27 26  1  0  0  0  0
 28 30  1  0  0  0  0
 28 27  1  0  0  0  0
 29 28  2  0  0  0  0
 30 32  1  0  0  0  0
 31 30  1  0  0  0  0
 34 37  1  0  0  0  0
 34 33  1  0  0  0  0
 34 36  1  0  0  0  0
 35 34  1  0  0  0  0
M  END
>  <minimizedAffinity>
-4.83685017

$$$$

 OpenBabel03242520313D

 37 38  0  0  0  0  0  0  0  0999 V2000
   39.8530   32.2460   38.8680 C   0  0  0  0  0  0  0  0  0  0  0  0
   39.9500   30.9410   39.4340 C   0  0  0  0  0  0  0  0  0  0  0  0
   39.4530   30.7580   40.7130 C   0  0  0  0  0  0  0  0  0  0  0  0
   38.9000   31.8010   41.3750 N   0  0  0  0  0  0  0  0  0  0  0  0
   38.8180   33.0230   40.8220 C   0  0  0  0  0  0  0  0  0  0  0  0
   39.2890   33.2390   39.5850 N   0  0  0  0  0  0  0  0  0  0  0  0
   40.2290   32.4190   37.8800 H   0  0  0  0  0  0  0  0  0  0  0  0
   38.3670   33.8260   41.3900 H   0  0  0  0  0  0  0  0  0  0  0  0
   40.5590   29.9540   38.6090 N   0  0  0  0  0  0  0  0  0  0  0  0
   39.7980   29.1060   37.7200 C   0  0  0  0  0  0  0  0  0  0  0  0
   40.7310   28.2630   36.8960 C   0  0  0  0  0  0  0  0  0  0  0  0
   41.7100   27.5610   37.6930 N   0  0  0  0  0  0  0  0  0  0  0  0
   42.4080   28.3710   38.6380 C   0  0  0  0  0  0  0  0  0  0  0  0
   42.0100   29.8080   38.6800 C   0  0  0  0  0  0  0  0  0  0  0  0
   39.2570   29.7740   37.0080 H   0  0  0  0  0  0  0  0  0  0  0  0
   39.0960   28.4420   38.2340 H   0  0  0  0  0  0  0  0  0  0  0  0
   40.1100   27.5050   36.3880 H   0  0  0  0  0  0  0  0  0  0  0  0
   41.2130   28.9090   36.1270 H   0  0  0  0  0  0  0  0  0  0  0  0
   41.1780   26.8210   38.2400 H   0  0  0  0  0  0  0  0  0  0  0  0
   42.4180   27.9660   39.6770 H   0  0  0  0  0  0  0  0  0  0  0  0
   43.5000   28.3640   38.3460 H   0  0  0  0  0  0  0  0  0  0  0  0
   42.4170   30.3010   37.7550 H   0  0  0  0  0  0  0  0  0  0  0  0
   42.4490   30.2850   39.5530 H   0  0  0  0  0  0  0  0  0  0  0  0
   39.5630   29.4800   41.2330 O   0  0  0  0  0  0  0  0  0  0  0  0
   37.7220   29.2100   43.1270 O   0  0  0  0  0  0  0  0  0  0  0  0
   38.1430   28.6540   41.7540 P   0  0  1  0  0  0  0  0  0  0  0  0
   36.9550   28.8820   40.6220 O   0  0  0  0  0  0  0  0  0  0  0  0
   35.8490   29.7010   40.7820 C   0  0  0  0  0  0  0  0  0  0  0  0
   34.8000   29.1220   40.3460 O   0  0  0  0  0  0  0  0  0  0  0  0
   35.7270   30.9910   41.3200 N   0  0  0  0  0  0  0  0  0  0  0  0
   35.5450   31.5950   40.4800 H   0  0  0  0  0  0  0  0  0  0  0  0
   35.7690   31.4500   42.2450 H   0  0  0  0  0  0  0  0  0  0  0  0
   38.5700   27.0370   41.9600 O   0  0  0  0  0  0  0  0  0  0  0  0
   37.4720   26.2200   42.1090 C   0  0  0  0  0  0  0  0  0  0  0  0
   36.4640   26.7790   42.8600 F   0  0  0  0  0  0  0  0  0  0  0  0
   37.7380   24.9660   42.5930 F   0  0  0  0  0  0  0  0  0  0  0  0
   36.9720   26.0430   40.8110 F   0  0  0  0  0  0  0  0  0  0  0  0
  1  2  2  0  0  0  0
  1  6  1  0  0  0  0
  2  3  1  0  0  0  0
  3 24  1  0  0  0  0
  3  4  2  0  0  0  0
  5  4  1  0  0  0  0
  5  8  1  0  0  0  0
  6  5  2  0  0  0  0
  7  1  1  0  0  0  0
  9 14  1  0  0  0  0
  9  2  1  0  0  0  0
 10 16  1  0  0  0  0
 10  9  1  0  0  0  0
 11 12  1  0  0  0  0
 11 10  1  0  0  0  0
 12 19  1  0  0  0  0
 12 13  1  0  0  0  0
 13 14  1  0  0  0  0
 13 20  1  0  0  0  0
 14 23  1  0  0  0  0
 15 10  1  0  0  0  0
 17 11  1  0  0  0  0
 18 11  1  0  0  0  0
 21 13  1  0  0  0  0
 22 14  1  0  0  0  0
 24 26  1  0  0  0  0
 26 33  1  0  0  0  0
 26 25  2  1  0  0  0
 27 28  1  0  0  0  0
 27 26  1  0  0  0  0
 28 30  1  0  0  0  0
 29 28  2  0  0  0  0
 30 32  1  0  0  0  0
 31 30  1  0  0  0  0
 33 34  1  0  0  0  0
 34 36  1  0  0  0  0
 34 35  1  0  0  0  0
 37 34  1  0  0  0  0
M  END
>  <minimizedAffinity>
-4.82422352

$$$$

 OpenBabel03242520313D

 37 38  0  0  0  0  0  0  0  0999 V2000
   39.4650   26.6700   39.3370 C   0  0  0  0  0  0  0  0  0  0  0  0
   38.9130   27.9530   39.6240 C   0  0  0  0  0  0  0  0  0  0  0  0
   38.9830   28.9180   38.6340 C   0  0  0  0  0  0  0  0  0  0  0  0
   39.5610   28.6210   37.4470 N   0  0  0  0  0  0  0  0  0  0  0  0
   40.0740   27.4040   37.1960 C   0  0  0  0  0  0  0  0  0  0  0  0
   40.0250   26.4440   38.1310 N   0  0  0  0  0  0  0  0  0  0  0  0
   39.4260   25.9030   40.0840 H   0  0  0  0  0  0  0  0  0  0  0  0
   40.5260   27.2140   36.2320 H   0  0  0  0  0  0  0  0  0  0  0  0
   38.3430   28.1040   40.9190 N   0  0  0  0  0  0  0  0  0  0  0  0
   36.9580   27.8000   41.2000 C   0  0  0  0  0  0  0  0  0  0  0  0
   36.6940   27.9360   42.6730 C   0  0  0  0  0  0  0  0  0  0  0  0
   37.1460   29.1970   43.2130 N   0  0  0  0  0  0  0  0  0  0  0  0
   38.4860   29.5510   42.8710 C   0  0  0  0  0  0  0  0  0  0  0  0
   39.2070   28.5850   41.9920 C   0  0  0  0  0  0  0  0  0  0  0  0
   36.7960   26.7260   40.9440 H   0  0  0  0  0  0  0  0  0  0  0  0
   36.2480   28.4360   40.6610 H   0  0  0  0  0  0  0  0  0  0  0  0
   35.5990   27.8930   42.8060 H   0  0  0  0  0  0  0  0  0  0  0  0
   37.1560   27.0720   43.2020 H   0  0  0  0  0  0  0  0  0  0  0  0
   36.5070   29.9450   42.8100 H   0  0  0  0  0  0  0  0  0  0  0  0
   38.6020   30.5780   42.4540 H   0  0  0  0  0  0  0  0  0  0  0  0
   39.0790   29.5930   43.8320 H   0  0  0  0  0  0  0  0  0  0  0  0
   39.4620   27.6830   42.6140 H   0  0  0  0  0  0  0  0  0  0  0  0
   40.1300   29.0350   41.6330 H   0  0  0  0  0  0  0  0  0  0  0  0
   38.4400   30.1510   38.9450 O   0  0  0  0  0  0  0  0  0  0  0  0
   40.6650   31.1460   39.9980 O   0  0  0  0  0  0  0  0  0  0  0  0
   39.4780   31.5190   39.0920 P   0  0  1  0  0  0  0  0  0  0  0  0
   39.9900   31.9580   37.5780 O   0  0  0  0  0  0  0  0  0  0  0  0
   41.2750   31.7800   37.0900 C   0  0  0  0  0  0  0  0  0  0  0  0
   41.9250   32.8760   37.1380 O   0  0  0  0  0  0  0  0  0  0  0  0
   41.9200   30.6400   36.5850 N   0  0  0  0  0  0  0  0  0  0  0  0
   41.9920   30.8330   35.5540 H   0  0  0  0  0  0  0  0  0  0  0  0
   42.3020   29.7480   36.9380 H   0  0  0  0  0  0  0  0  0  0  0  0
   38.5900   32.7210   39.8720 O   0  0  0  0  0  0  0  0  0  0  0  0
   37.3440   32.8980   39.3120 C   0  0  0  0  0  0  0  0  0  0  0  0
   37.2730   32.5250   37.9900 F   0  0  0  0  0  0  0  0  0  0  0  0
   36.8180   34.1550   39.4440 F   0  0  0  0  0  0  0  0  0  0  0  0
   36.4980   32.0390   40.0300 F   0  0  0  0  0  0  0  0  0  0  0  0
  1  2  1  0  0  0  0
  1  7  1  0  0  0  0
  2  9  1  0  0  0  0
  3 24  1  0  0  0  0
  3  2  2  0  0  0  0
  4  3  1  0  0  0  0
  5  4  2  0  0  0  0
  5  6  1  0  0  0  0
  6  1  2  0  0  0  0
  8  5  1  0  0  0  0
  9 10  1  0  0  0  0
  9 14  1  0  0  0  0
 10 11  1  0  0  0  0
 11 17  1  0  0  0  0
 11 18  1  0  0  0  0
 11 12  1  0  0  0  0
 13 12  1  0  0  0  0
 13 21  1  0  0  0  0
 14 22  1  0  0  0  0
 14 13  1  0  0  0  0
 15 10  1  0  0  0  0
 16 10  1  0  0  0  0
 19 12  1  0  0  0  0
 20 13  1  0  0  0  0
 23 14  1  0  0  0  0
 24 26  1  0  0  0  0
 26 33  1  0  0  0  0
 26 25  2  1  0  0  0
 27 26  1  0  0  0  0
 28 29  2  0  0  0  0
 28 27  1  0  0  0  0
 30 32  1  0  0  0  0
 30 28  1  0  0  0  0
 31 30  1  0  0  0  0
 34 36  1  0  0  0  0
 34 33  1  0  0  0  0
 34 37  1  0  0  0  0
 35 34  1  0  0  0  0
M  END
>  <minimizedAffinity>
-4.81308889

$$$$
