
 OpenBabel03242523553D

 41 43  0  0  1  0  0  0  0  0999 V2000
   42.8150   34.5080   38.7430 C   0  0  1  0  0  0  0  0  0  0  0  0
   42.9650   35.1740   40.1020 C   0  0  1  0  0  0  0  0  0  0  0  0
   41.6780   35.4070   40.6230 O   0  0  0  0  0  0  0  0  0  0  0  0
   40.7480   35.7500   39.6320 C   0  0  0  0  0  0  0  0  0  0  0  0
   40.4350   34.5770   38.7280 C   0  0  2  0  0  0  0  0  0  0  0  0
   41.6420   33.5930   38.8620 C   0  0  1  0  0  0  0  0  0  0  0  0
   43.7510   33.9630   38.4990 H   0  0  0  0  0  0  0  0  0  0  0  0
   43.5440   36.1120   40.0600 H   0  0  0  0  0  0  0  0  0  0  0  0
   41.0570   36.6480   39.0710 H   0  0  0  0  0  0  0  0  0  0  0  0
   39.8300   36.0000   40.1690 H   0  0  0  0  0  0  0  0  0  0  0  0
   39.5040   34.0550   39.0090 H   0  0  0  0  0  0  0  0  0  0  0  0
   41.4310   33.3150   39.9480 H   0  0  0  0  0  0  0  0  0  0  0  0
   42.6010   35.4660   37.7370 O   0  0  0  0  0  0  0  0  0  0  0  0
   43.1720   36.2650   37.9480 H   0  0  0  0  0  0  0  0  0  0  0  0
   40.4480   34.9830   37.4040 O   0  0  0  0  0  0  0  0  0  0  0  0
   40.4980   34.2440   36.7660 H   0  0  0  0  0  0  0  0  0  0  0  0
   43.5000   34.1870   40.9430 O   0  0  0  0  0  0  0  0  0  0  0  0
   44.6010   34.3280   41.6880 C   0  0  0  0  0  0  0  0  0  0  0  0
   45.8630   34.4360   41.0970 C   0  0  0  0  0  0  0  0  0  0  0  0
   46.9770   34.5830   41.9010 C   0  0  0  0  0  0  0  0  0  0  0  0
   46.8090   34.6180   43.2770 N   0  0  0  0  0  0  0  0  0  0  0  0
   45.5750   34.5100   43.8170 C   0  0  0  0  0  0  0  0  0  0  0  0
   44.4800   34.3660   43.0260 N   0  0  0  0  0  0  0  0  0  0  0  0
   45.9600   34.4060   40.0330 H   0  0  0  0  0  0  0  0  0  0  0  0
   45.4490   34.5370   44.8820 H   0  0  0  0  0  0  0  0  0  0  0  0
   48.3590   34.6840   41.3360 C   0  0  0  0  0  0  0  0  0  0  0  0
   49.0730   36.0230   41.5080 C   0  0  0  0  0  0  0  0  0  0  0  0
   49.5040   34.7070   42.1890 C   0  0  0  0  0  0  0  0  0  0  0  0
   48.4150   34.2410   40.3080 H   0  0  0  0  0  0  0  0  0  0  0  0
   49.7170   36.3070   40.6720 H   0  0  0  0  0  0  0  0  0  0  0  0
   48.5190   36.7670   42.0960 H   0  0  0  0  0  0  0  0  0  0  0  0
   50.4830   34.2960   41.9230 H   0  0  0  0  0  0  0  0  0  0  0  0
   49.3540   34.7490   43.2950 H   0  0  0  0  0  0  0  0  0  0  0  0
   41.5020   32.6420   37.9150 O   0  0  0  0  0  0  0  0  0  0  0  0
   40.8090   31.5060   37.8880 C   0  0  0  0  0  0  0  0  0  0  0  0
   39.5480   31.4500   37.4740 O   0  0  0  0  0  0  0  0  0  0  0  0
   40.7600   27.9990   38.2390 H   0  0  0  0  0  0  0  0  0  0  0  0
   40.4020   28.9650   37.9110 C   0  0  0  0  0  0  0  0  0  0  0  0
   39.3510   29.1090   37.2380 O   0  0  0  0  0  0  0  0  0  0  0  0
   41.1360   30.1230   38.2420 N   0  0  0  0  0  0  0  0  0  0  0  0
   41.9930   29.9620   38.7960 H   0  0  0  0  0  0  0  0  0  0  0  0
  1  7  1  6  0  0  0
  1  6  1  0  0  0  0
  1  2  1  0  0  0  0
  2  8  1  6  0  0  0
  2  3  1  0  0  0  0
  2 17  1  0  0  0  0
  4 10  1  0  0  0  0
  4  3  1  0  0  0  0
  5  6  1  0  0  0  0
  5 11  1  1  0  0  0
  5  4  1  0  0  0  0
  6 12  1  1  0  0  0
  9  4  1  0  0  0  0
 13 14  1  0  0  0  0
 13  1  1  0  0  0  0
 15  5  1  0  0  0  0
 16 15  1  0  0  0  0
 17 18  1  0  0  0  0
 18 23  1  0  0  0  0
 19 18  2  0  0  0  0
 19 20  1  0  0  0  0
 20 21  2  0  0  0  0
 21 22  1  0  0  0  0
 22 25  1  0  0  0  0
 23 22  2  0  0  0  0
 24 19  1  0  0  0  0
 26 27  1  0  0  0  0
 26 20  1  0  0  0  0
 26 28  1  0  0  0  0
 27 31  1  0  0  0  0
 27 28  1  0  0  0  0
 28 33  1  0  0  0  0
 29 26  1  0  0  0  0
 30 27  1  0  0  0  0
 32 28  1  0  0  0  0
 34  6  1  0  0  0  0
 35 34  1  0  0  0  0
 35 40  1  0  0  0  0
 36 35  2  0  0  0  0
 38 37  1  0  0  0  0
 38 40  1  0  0  0  0
 39 38  2  0  0  0  0
 40 41  1  0  0  0  0
M  END
>  <minimizedAffinity>
-5.8265872

>  <minimizedRMSD>
0.133873284

$$$$
