
 OpenBabel03252509193D

 39 41  0  0  1  0  0  0  0  0999 V2000
   47.8070   29.5320   47.4840 C   0  0  1  0  0  0  0  0  0  0  0  0
   47.9330   28.6140   46.3310 C   0  0  0  0  0  0  0  0  0  0  0  0
   49.2920   27.9840   46.1810 C   0  0  0  0  0  0  0  0  0  0  0  0
   49.8580   27.4950   47.4870 C   0  0  0  0  0  0  0  0  0  0  0  0
   49.6950   28.4970   48.5980 C   0  0  0  0  0  0  0  0  0  0  0  0
   49.2170   29.8360   48.0380 C   0  0  2  0  0  0  0  0  0  0  0  0
   47.3140   28.9880   48.3050 H   0  0  0  0  0  0  0  0  0  0  0  0
   47.7730   29.2090   45.3860 H   0  0  0  0  0  0  0  0  0  0  0  0
   47.1740   27.8170   46.3590 H   0  0  0  0  0  0  0  0  0  0  0  0
   49.1570   27.1020   45.5280 H   0  0  0  0  0  0  0  0  0  0  0  0
   50.0130   28.6430   45.6690 H   0  0  0  0  0  0  0  0  0  0  0  0
   50.8790   27.1490   47.3490 H   0  0  0  0  0  0  0  0  0  0  0  0
   49.2530   26.5870   47.7770 H   0  0  0  0  0  0  0  0  0  0  0  0
   48.9420   28.1750   49.3480 H   0  0  0  0  0  0  0  0  0  0  0  0
   50.6860   28.6560   49.0650 H   0  0  0  0  0  0  0  0  0  0  0  0
   49.8710   30.1680   47.2060 H   0  0  0  0  0  0  0  0  0  0  0  0
   46.0450   32.8980   45.9780 C   0  0  0  0  0  0  0  0  0  0  0  0
   45.5860   32.5890   47.2550 C   0  0  0  0  0  0  0  0  0  0  0  0
   46.0860   31.5050   47.8550 C   0  0  0  0  0  0  0  0  0  0  0  0
   47.0530   30.7090   47.1990 C   0  0  0  0  0  0  0  0  0  0  0  0
   47.2650   31.5630   45.6030 S   0  0  0  0  0  0  0  0  0  0  0  0
   44.8470   33.2070   47.7450 H   0  0  0  0  0  0  0  0  0  0  0  0
   45.8510   31.1160   48.8320 H   0  0  0  0  0  0  0  0  0  0  0  0
   44.4940   36.0370   44.7260 C   0  0  0  0  0  0  0  0  0  0  0  0
   45.0600   36.1220   43.4530 C   0  0  0  0  0  0  0  0  0  0  0  0
   45.9430   35.1010   43.0760 C   0  0  0  0  0  0  0  0  0  0  0  0
   46.2000   34.0880   43.9680 N   0  0  0  0  0  0  0  0  0  0  0  0
   45.6190   34.0700   45.1770 C   0  0  0  0  0  0  0  0  0  0  0  0
   44.7600   35.0470   45.5670 N   0  0  0  0  0  0  0  0  0  0  0  0
   43.8010   36.8180   45.0510 H   0  0  0  0  0  0  0  0  0  0  0  0
   44.8490   36.9260   42.7620 H   0  0  0  0  0  0  0  0  0  0  0  0
   46.4310   35.0770   42.1120 H   0  0  0  0  0  0  0  0  0  0  0  0
   49.1240   30.8060   49.1320 C   0  0  0  0  0  0  0  0  0  0  0  0
   48.1230   30.8970   49.8690 O   0  0  0  0  0  0  0  0  0  0  0  0
   51.6860   32.9940   50.1530 H   0  0  0  0  0  0  0  0  0  0  0  0
   51.2860   32.1360   49.6070 C   0  0  0  0  0  0  0  0  0  0  0  0
   51.9260   31.3600   48.8740 O   0  0  0  0  0  0  0  0  0  0  0  0
   49.9300   31.8000   49.6790 N   0  0  0  0  0  0  0  0  0  0  0  0
   49.3880   32.4260   50.2780 H   0  0  0  0  0  0  0  0  0  0  0  0
  1  6  1  0  0  0  0
  1  7  1  1  0  0  0
  2  9  1  0  0  0  0
  2  1  1  0  0  0  0
  3  2  1  0  0  0  0
  3  4  1  0  0  0  0
  4 13  1  0  0  0  0
  4  5  1  0  0  0  0
  5 15  1  0  0  0  0
  5 14  1  0  0  0  0
  6 16  1  6  0  0  0
  6  5  1  0  0  0  0
  6 33  1  0  0  0  0
  8  2  1  0  0  0  0
 10  3  1  0  0  0  0
 11  3  1  0  0  0  0
 12  4  1  0  0  0  0
 17 18  2  0  0  0  0
 18 22  1  0  0  0  0
 18 19  1  0  0  0  0
 19 23  1  0  0  0  0
 20  1  1  0  0  0  0
 20 19  2  0  0  0  0
 21 17  1  0  0  0  0
 21 20  1  0  0  0  0
 24 30  1  0  0  0  0
 24 29  1  0  0  0  0
 25 24  2  0  0  0  0
 26 25  1  0  0  0  0
 26 27  2  0  0  0  0
 27 28  1  0  0  0  0
 28 29  2  0  0  0  0
 28 17  1  0  0  0  0
 31 25  1  0  0  0  0
 32 26  1  0  0  0  0
 33 38  1  0  0  0  0
 33 34  2  0  0  0  0
 36 38  1  0  0  0  0
 36 35  1  0  0  0  0
 37 36  2  0  0  0  0
 38 39  1  0  0  0  0
M  END
>  <minimizedAffinity>
-5.20086622

>  <minimizedRMSD>
1.43276918

$$$$
