
 OpenBabel03252505483D

 25 26  0  0  1  0  0  0  0  0999 V2000
   36.8750   28.5300   41.9000 C   0  0  0  0  0  0  0  0  0  0  0  0
   35.7170   28.5040   41.0640 C   0  0  0  0  0  0  0  0  0  0  0  0
   35.4030   29.6040   40.2730 C   0  0  0  0  0  0  0  0  0  0  0  0
   36.2360   30.6790   40.3360 N   0  0  0  0  0  0  0  0  0  0  0  0
   37.3370   30.6590   41.1540 C   0  0  0  0  0  0  0  0  0  0  0  0
   37.6460   29.6070   41.9150 N   0  0  0  0  0  0  0  0  0  0  0  0
   35.0420   27.6530   41.0030 H   0  0  0  0  0  0  0  0  0  0  0  0
   34.5370   29.5930   39.6430 H   0  0  0  0  0  0  0  0  0  0  0  0
   37.1450   27.3470   42.7190 C   0  0  1  0  0  0  0  0  0  0  0  0
   38.0650   26.3270   41.9580 C   0  0  1  0  0  0  0  0  0  0  0  0
   38.3970   26.9910   43.2740 C   0  0  0  0  0  0  0  0  0  0  0  0
   36.1970   26.8680   43.1010 H   0  0  0  0  0  0  0  0  0  0  0  0
   38.5560   26.6560   41.0490 H   0  0  0  0  0  0  0  0  0  0  0  0
   38.4310   26.3590   44.2040 H   0  0  0  0  0  0  0  0  0  0  0  0
   39.2950   27.6410   43.2250 H   0  0  0  0  0  0  0  0  0  0  0  0
   37.6250   24.8880   42.0990 C   0  0  0  0  0  0  0  0  0  0  0  0
   36.3630   24.7550   42.6030 F   0  0  0  0  0  0  0  0  0  0  0  0
   37.6430   24.2850   40.8300 F   0  0  0  0  0  0  0  0  0  0  0  0
   38.5430   24.1670   42.8470 F   0  0  0  0  0  0  0  0  0  0  0  0
   38.0940   31.8220   41.1220 O   0  0  0  0  0  0  0  0  0  0  0  0
   38.1420   32.6490   40.0000 C   0  0  0  0  0  0  0  0  0  0  0  0
   38.9670   32.7630   39.0300 O   0  0  0  0  0  0  0  0  0  0  0  0
   37.0400   33.5530   39.9270 N   0  0  0  0  0  0  0  0  0  0  0  0
   36.6580   33.9930   39.0610 H   0  0  0  0  0  0  0  0  0  0  0  0
   36.2310   34.2080   39.9210 H   0  0  0  0  0  0  0  0  0  0  0  0
  1  6  1  0  0  0  0
  1  9  1  0  0  0  0
  2  1  2  0  0  0  0
  3  4  2  0  0  0  0
  3  2  1  0  0  0  0
  4  5  1  0  0  0  0
  5  6  2  0  0  0  0
  7  2  1  0  0  0  0
  8  3  1  0  0  0  0
  9 12  1  1  0  0  0
  9 11  1  0  0  0  0
 10 13  1  6  0  0  0
 10 16  1  0  0  0  0
 10  9  1  0  0  0  0
 10 11  1  0  0  0  0
 11 14  1  0  0  0  0
 15 11  1  0  0  0  0
 16 17  1  0  0  0  0
 16 19  1  0  0  0  0
 18 16  1  0  0  0  0
 20  5  1  0  0  0  0
 21 20  1  0  0  0  0
 22 21  2  0  0  0  0
 23 21  1  0  0  0  0
 24 23  1  0  0  0  0
 25 23  1  0  0  0  0
M  END
>  <minimizedAffinity>
-5.12112761

$$$$

 OpenBabel03252505483D

 25 26  0  0  1  0  0  0  0  0999 V2000
   37.5320   29.0940   41.9360 C   0  0  0  0  0  0  0  0  0  0  0  0
   38.5150   29.4800   42.8980 C   0  0  0  0  0  0  0  0  0  0  0  0
   39.3230   30.5870   42.6640 C   0  0  0  0  0  0  0  0  0  0  0  0
   39.1340   31.2660   41.5000 N   0  0  0  0  0  0  0  0  0  0  0  0
   38.1790   30.8580   40.6040 C   0  0  0  0  0  0  0  0  0  0  0  0
   37.3980   29.7980   40.8210 N   0  0  0  0  0  0  0  0  0  0  0  0
   38.6780   28.9480   43.8320 H   0  0  0  0  0  0  0  0  0  0  0  0
   40.0620   30.8840   43.3810 H   0  0  0  0  0  0  0  0  0  0  0  0
   36.7210   27.9120   42.2320 C   0  0  1  0  0  0  0  0  0  0  0  0
   37.6240   26.6870   42.6200 C   0  0  1  0  0  0  0  0  0  0  0  0
   36.5700   27.3090   43.5040 C   0  0  0  0  0  0  0  0  0  0  0  0
   36.0020   27.6680   41.3980 H   0  0  0  0  0  0  0  0  0  0  0  0
   38.6740   26.8650   42.8250 H   0  0  0  0  0  0  0  0  0  0  0  0
   35.6380   26.7190   43.7290 H   0  0  0  0  0  0  0  0  0  0  0  0
   36.9790   27.7420   44.4400 H   0  0  0  0  0  0  0  0  0  0  0  0
   37.1920   25.3860   41.9820 C   0  0  0  0  0  0  0  0  0  0  0  0
   36.7490   25.5340   40.6990 F   0  0  0  0  0  0  0  0  0  0  0  0
   38.2900   24.5100   41.9560 F   0  0  0  0  0  0  0  0  0  0  0  0
   36.2470   24.7470   42.7690 F   0  0  0  0  0  0  0  0  0  0  0  0
   38.0980   31.6390   39.4590 O   0  0  0  0  0  0  0  0  0  0  0  0
   38.1810   33.0310   39.4990 C   0  0  0  0  0  0  0  0  0  0  0  0
   37.3210   33.9550   39.6980 O   0  0  0  0  0  0  0  0  0  0  0  0
   39.5040   33.5160   39.2670 N   0  0  0  0  0  0  0  0  0  0  0  0
   39.8930   34.4300   39.5880 H   0  0  0  0  0  0  0  0  0  0  0  0
   40.4780   33.8280   39.0740 H   0  0  0  0  0  0  0  0  0  0  0  0
  1  9  1  0  0  0  0
  1  2  1  0  0  0  0
  2  7  1  0  0  0  0
  3  2  2  0  0  0  0
  3  8  1  0  0  0  0
  4  3  1  0  0  0  0
  5  6  1  0  0  0  0
  5  4  2  0  0  0  0
  6  1  2  0  0  0  0
  9 12  1  6  0  0  0
  9 10  1  0  0  0  0
  9 11  1  0  0  0  0
 10 13  1  1  0  0  0
 10 11  1  0  0  0  0
 11 14  1  0  0  0  0
 11 15  1  0  0  0  0
 16 10  1  0  0  0  0
 16 19  1  0  0  0  0
 17 16  1  0  0  0  0
 18 16  1  0  0  0  0
 20 21  1  0  0  0  0
 20  5  1  0  0  0  0
 21 22  2  0  0  0  0
 23 21  1  0  0  0  0
 23 24  1  0  0  0  0
 25 23  1  0  0  0  0
M  END
>  <minimizedAffinity>
-4.88800573

$$$$

 OpenBabel03252505483D

 25 26  0  0  1  0  0  0  0  0999 V2000
   37.1130   28.8040   40.8920 C   0  0  0  0  0  0  0  0  0  0  0  0
   37.1870   28.6060   39.4790 C   0  0  0  0  0  0  0  0  0  0  0  0
   37.6750   29.6160   38.6580 C   0  0  0  0  0  0  0  0  0  0  0  0
   38.0660   30.7750   39.2550 N   0  0  0  0  0  0  0  0  0  0  0  0
   37.9760   30.9200   40.6160 C   0  0  0  0  0  0  0  0  0  0  0  0
   37.5110   29.9550   41.4120 N   0  0  0  0  0  0  0  0  0  0  0  0
   36.8780   27.6860   38.9870 H   0  0  0  0  0  0  0  0  0  0  0  0
   37.7350   29.4760   37.5970 H   0  0  0  0  0  0  0  0  0  0  0  0
   36.5780   27.7080   41.7020 C   0  0  1  0  0  0  0  0  0  0  0  0
   37.7180   26.7240   42.1490 C   0  0  1  0  0  0  0  0  0  0  0  0
   36.8200   27.5020   43.0810 C   0  0  0  0  0  0  0  0  0  0  0  0
   35.7270   27.1730   41.1880 H   0  0  0  0  0  0  0  0  0  0  0  0
   38.7490   27.0330   42.0100 H   0  0  0  0  0  0  0  0  0  0  0  0
   36.0640   26.9400   43.6970 H   0  0  0  0  0  0  0  0  0  0  0  0
   37.3680   28.2240   43.7210 H   0  0  0  0  0  0  0  0  0  0  0  0
   37.3460   25.2650   42.0260 C   0  0  0  0  0  0  0  0  0  0  0  0
   37.0540   24.8870   40.7450 F   0  0  0  0  0  0  0  0  0  0  0  0
   38.4300   24.4840   42.4630 F   0  0  0  0  0  0  0  0  0  0  0  0
   36.3100   24.9490   42.8910 F   0  0  0  0  0  0  0  0  0  0  0  0
   38.4060   32.1530   41.0890 O   0  0  0  0  0  0  0  0  0  0  0  0
   38.3410   33.3120   40.3150 C   0  0  0  0  0  0  0  0  0  0  0  0
   39.2170   34.1600   39.9330 O   0  0  0  0  0  0  0  0  0  0  0  0
   37.0190   33.6040   39.8620 N   0  0  0  0  0  0  0  0  0  0  0  0
   36.7650   34.1630   39.0170 H   0  0  0  0  0  0  0  0  0  0  0  0
   36.0390   33.7920   39.5670 H   0  0  0  0  0  0  0  0  0  0  0  0
  1  6  1  0  0  0  0
  1  9  1  0  0  0  0
  2  1  2  0  0  0  0
  3  4  2  0  0  0  0
  3  2  1  0  0  0  0
  4  5  1  0  0  0  0
  5 20  1  0  0  0  0
  5  6  2  0  0  0  0
  7  2  1  0  0  0  0
  8  3  1  0  0  0  0
  9 12  1  6  0  0  0
  9 10  1  0  0  0  0
  9 11  1  0  0  0  0
 10 13  1  6  0  0  0
 10 11  1  0  0  0  0
 11 14  1  0  0  0  0
 11 15  1  0  0  0  0
 16 10  1  0  0  0  0
 16 18  1  0  0  0  0
 16 19  1  0  0  0  0
 17 16  1  0  0  0  0
 21 20  1  0  0  0  0
 22 21  2  0  0  0  0
 23 21  1  0  0  0  0
 24 23  1  0  0  0  0
 25 23  1  0  0  0  0
M  END
>  <minimizedAffinity>
-4.75917673

$$$$

 OpenBabel03252505483D

 25 26  0  0  1  0  0  0  0  0999 V2000
   37.7220   30.6460   39.9970 C   0  0  0  0  0  0  0  0  0  0  0  0
   36.8350   31.7600   40.1090 C   0  0  0  0  0  0  0  0  0  0  0  0
   37.2880   33.0440   39.8270 C   0  0  0  0  0  0  0  0  0  0  0  0
   38.5880   33.1810   39.4490 N   0  0  0  0  0  0  0  0  0  0  0  0
   39.4040   32.0820   39.3560 C   0  0  0  0  0  0  0  0  0  0  0  0
   38.9770   30.8460   39.6240 N   0  0  0  0  0  0  0  0  0  0  0  0
   35.7940   31.6680   40.4110 H   0  0  0  0  0  0  0  0  0  0  0  0
   36.6290   33.8850   39.9080 H   0  0  0  0  0  0  0  0  0  0  0  0
   37.1900   29.3220   40.3210 C   0  0  1  0  0  0  0  0  0  0  0  0
   37.1800   29.0770   41.8720 C   0  0  1  0  0  0  0  0  0  0  0  0
   35.9640   29.0580   40.9770 C   0  0  0  0  0  0  0  0  0  0  0  0
   37.7220   28.5000   39.7590 H   0  0  0  0  0  0  0  0  0  0  0  0
   37.3550   29.9230   42.5280 H   0  0  0  0  0  0  0  0  0  0  0  0
   35.4400   28.0790   40.7980 H   0  0  0  0  0  0  0  0  0  0  0  0
   35.2220   29.8450   41.2260 H   0  0  0  0  0  0  0  0  0  0  0  0
   37.6580   27.7000   42.2730 C   0  0  0  0  0  0  0  0  0  0  0  0
   38.9530   27.4520   41.9150 F   0  0  0  0  0  0  0  0  0  0  0  0
   37.5740   27.5840   43.6720 F   0  0  0  0  0  0  0  0  0  0  0  0
   36.8050   26.7240   41.7840 F   0  0  0  0  0  0  0  0  0  0  0  0
   40.7050   32.3680   38.9640 O   0  0  0  0  0  0  0  0  0  0  0  0
   41.0640   32.5190   37.6250 C   0  0  0  0  0  0  0  0  0  0  0  0
   42.1730   32.7540   37.0360 O   0  0  0  0  0  0  0  0  0  0  0  0
   39.9570   32.3830   36.7330 N   0  0  0  0  0  0  0  0  0  0  0  0
   40.0020   32.0990   35.7300 H   0  0  0  0  0  0  0  0  0  0  0  0
   39.1200   32.2960   36.1200 H   0  0  0  0  0  0  0  0  0  0  0  0
  1  2  1  0  0  0  0
  1  9  1  0  0  0  0
  2  7  1  0  0  0  0
  3  8  1  0  0  0  0
  3  2  2  0  0  0  0
  4  3  1  0  0  0  0
  5  4  2  0  0  0  0
  5  6  1  0  0  0  0
  6  1  2  0  0  0  0
  9 12  1  6  0  0  0
  9 11  1  0  0  0  0
  9 10  1  0  0  0  0
 10 16  1  0  0  0  0
 10 13  1  1  0  0  0
 11 15  1  0  0  0  0
 11 10  1  0  0  0  0
 14 11  1  0  0  0  0
 16 18  1  0  0  0  0
 17 16  1  0  0  0  0
 19 16  1  0  0  0  0
 20  5  1  0  0  0  0
 21 20  1  0  0  0  0
 22 21  2  0  0  0  0
 23 21  1  0  0  0  0
 24 23  1  0  0  0  0
 25 23  1  0  0  0  0
M  END
>  <minimizedAffinity>
-4.66142797

$$$$

 OpenBabel03252505483D

 25 26  0  0  1  0  0  0  0  0999 V2000
   37.3060   27.1440   41.8010 C   0  0  0  0  0  0  0  0  0  0  0  0
   37.5680   27.3190   43.1940 C   0  0  0  0  0  0  0  0  0  0  0  0
   37.9610   28.5610   43.6800 C   0  0  0  0  0  0  0  0  0  0  0  0
   38.0820   29.5760   42.7810 N   0  0  0  0  0  0  0  0  0  0  0  0
   37.8200   29.3610   41.4510 C   0  0  0  0  0  0  0  0  0  0  0  0
   37.4410   28.1730   40.9770 N   0  0  0  0  0  0  0  0  0  0  0  0
   37.4770   26.5180   43.9250 H   0  0  0  0  0  0  0  0  0  0  0  0
   38.1590   28.7010   44.7230 H   0  0  0  0  0  0  0  0  0  0  0  0
   36.9080   25.8100   41.3480 C   0  0  1  0  0  0  0  0  0  0  0  0
   38.1590   24.8810   41.1530 C   0  0  1  0  0  0  0  0  0  0  0  0
   37.0130   24.6150   42.0990 C   0  0  0  0  0  0  0  0  0  0  0  0
   36.2540   25.8490   40.4300 H   0  0  0  0  0  0  0  0  0  0  0  0
   39.1150   25.2140   41.5430 H   0  0  0  0  0  0  0  0  0  0  0  0
   36.3160   23.7590   41.8770 H   0  0  0  0  0  0  0  0  0  0  0  0
   37.3190   24.5870   43.1650 H   0  0  0  0  0  0  0  0  0  0  0  0
   38.1090   24.0500   39.8910 C   0  0  0  0  0  0  0  0  0  0  0  0
   38.0350   24.8010   38.7520 F   0  0  0  0  0  0  0  0  0  0  0  0
   39.2780   23.2750   39.8150 F   0  0  0  0  0  0  0  0  0  0  0  0
   37.0750   23.1290   39.9530 F   0  0  0  0  0  0  0  0  0  0  0  0
   37.9870   30.4820   40.6480 O   0  0  0  0  0  0  0  0  0  0  0  0
   36.9620   31.4030   40.4320 C   0  0  0  0  0  0  0  0  0  0  0  0
   36.8650   32.4530   39.7090 O   0  0  0  0  0  0  0  0  0  0  0  0
   35.7810   31.1060   41.1760 N   0  0  0  0  0  0  0  0  0  0  0  0
   34.8080   31.3960   40.9340 H   0  0  0  0  0  0  0  0  0  0  0  0
   34.9470   30.8640   41.7500 H   0  0  0  0  0  0  0  0  0  0  0  0
  1  2  1  0  0  0  0
  2  3  2  0  0  0  0
  2  7  1  0  0  0  0
  3  8  1  0  0  0  0
  4  3  1  0  0  0  0
  5  4  2  0  0  0  0
  6  5  1  0  0  0  0
  6  1  2  0  0  0  0
  9 12  1  6  0  0  0
  9  1  1  0  0  0  0
  9 11  1  0  0  0  0
 10  9  1  0  0  0  0
 10 13  1  1  0  0  0
 10 11  1  0  0  0  0
 11 15  1  0  0  0  0
 14 11  1  0  0  0  0
 16 19  1  0  0  0  0
 16 10  1  0  0  0  0
 17 16  1  0  0  0  0
 18 16  1  0  0  0  0
 20  5  1  0  0  0  0
 21 20  1  0  0  0  0
 21 23  1  0  0  0  0
 22 21  2  0  0  0  0
 23 25  1  0  0  0  0
 24 23  1  0  0  0  0
M  END
>  <minimizedAffinity>
-4.62444925

$$$$

 OpenBabel03252505483D

 25 26  0  0  1  0  0  0  0  0999 V2000
   38.3860   29.8490   41.9460 C   0  0  0  0  0  0  0  0  0  0  0  0
   39.4760   30.4720   42.6260 C   0  0  0  0  0  0  0  0  0  0  0  0
   40.1890   31.4960   42.0100 C   0  0  0  0  0  0  0  0  0  0  0  0
   39.8040   31.8610   40.7570 N   0  0  0  0  0  0  0  0  0  0  0  0
   38.7510   31.2330   40.1420 C   0  0  0  0  0  0  0  0  0  0  0  0
   38.0600   30.2510   40.7260 N   0  0  0  0  0  0  0  0  0  0  0  0
   39.7960   30.1920   43.6270 H   0  0  0  0  0  0  0  0  0  0  0  0
   41.0070   31.9690   42.5140 H   0  0  0  0  0  0  0  0  0  0  0  0
   37.6830   28.7690   42.6410 C   0  0  1  0  0  0  0  0  0  0  0  0
   38.3050   27.3700   42.2920 C   0  0  1  0  0  0  0  0  0  0  0  0
   38.2160   27.9650   43.6770 C   0  0  0  0  0  0  0  0  0  0  0  0
   36.5690   28.8010   42.4620 H   0  0  0  0  0  0  0  0  0  0  0  0
   39.2580   27.3440   41.7760 H   0  0  0  0  0  0  0  0  0  0  0  0
   37.5190   27.4930   44.4250 H   0  0  0  0  0  0  0  0  0  0  0  0
   39.2060   28.1460   44.1440 H   0  0  0  0  0  0  0  0  0  0  0  0
   37.2750   26.2960   42.0270 C   0  0  0  0  0  0  0  0  0  0  0  0
   36.3240   26.2050   43.0030 F   0  0  0  0  0  0  0  0  0  0  0  0
   36.6190   26.5890   40.8190 F   0  0  0  0  0  0  0  0  0  0  0  0
   37.8890   25.0720   41.8090 F   0  0  0  0  0  0  0  0  0  0  0  0
   38.4700   31.7030   38.8660 O   0  0  0  0  0  0  0  0  0  0  0  0
   39.2740   31.3990   37.7670 C   0  0  0  0  0  0  0  0  0  0  0  0
   40.2080   30.5480   37.5730 O   0  0  0  0  0  0  0  0  0  0  0  0
   38.9900   32.2120   36.6280 N   0  0  0  0  0  0  0  0  0  0  0  0
   39.1710   31.9630   35.6310 H   0  0  0  0  0  0  0  0  0  0  0  0
   38.7640   32.8370   35.8280 H   0  0  0  0  0  0  0  0  0  0  0  0
  1  2  1  0  0  0  0
  1  9  1  0  0  0  0
  2  7  1  0  0  0  0
  3  8  1  0  0  0  0
  3  2  2  0  0  0  0
  4  3  1  0  0  0  0
  5  6  1  0  0  0  0
  5  4  2  0  0  0  0
  6  1  2  0  0  0  0
  9 12  1  6  0  0  0
  9 11  1  0  0  0  0
 10 13  1  6  0  0  0
 10  9  1  0  0  0  0
 10 11  1  0  0  0  0
 11 15  1  0  0  0  0
 11 14  1  0  0  0  0
 16 10  1  0  0  0  0
 16 17  1  0  0  0  0
 18 16  1  0  0  0  0
 19 16  1  0  0  0  0
 20  5  1  0  0  0  0
 21 20  1  0  0  0  0
 22 21  2  0  0  0  0
 23 21  1  0  0  0  0
 24 23  1  0  0  0  0
 25 23  1  0  0  0  0
M  END
>  <minimizedAffinity>
-4.5408988

$$$$

 OpenBabel03252505483D

 25 26  0  0  1  0  0  0  0  0999 V2000
   36.9520   28.4240   41.1580 C   0  0  0  0  0  0  0  0  0  0  0  0
   35.6160   28.7220   40.7510 C   0  0  0  0  0  0  0  0  0  0  0  0
   35.3700   29.7790   39.8820 C   0  0  0  0  0  0  0  0  0  0  0  0
   36.4430   30.4980   39.4520 N   0  0  0  0  0  0  0  0  0  0  0  0
   37.7090   30.1760   39.8700 C   0  0  0  0  0  0  0  0  0  0  0  0
   37.9540   29.1620   40.7030 N   0  0  0  0  0  0  0  0  0  0  0  0
   34.7490   28.1570   41.0860 H   0  0  0  0  0  0  0  0  0  0  0  0
   34.3710   30.0090   39.5710 H   0  0  0  0  0  0  0  0  0  0  0  0
   37.1450   27.3070   42.0850 C   0  0  1  0  0  0  0  0  0  0  0  0
   37.7340   26.0520   41.3470 C   0  0  1  0  0  0  0  0  0  0  0  0
   38.3910   26.7770   42.4970 C   0  0  0  0  0  0  0  0  0  0  0  0
   36.2050   27.0650   42.6620 H   0  0  0  0  0  0  0  0  0  0  0  0
   38.1150   26.1790   40.3390 H   0  0  0  0  0  0  0  0  0  0  0  0
   38.4690   26.2550   43.4910 H   0  0  0  0  0  0  0  0  0  0  0  0
   39.3670   27.2320   42.2300 H   0  0  0  0  0  0  0  0  0  0  0  0
   37.0790   24.7490   41.7450 C   0  0  0  0  0  0  0  0  0  0  0  0
   37.9760   23.7690   42.0640 F   0  0  0  0  0  0  0  0  0  0  0  0
   36.2770   24.9760   42.8770 F   0  0  0  0  0  0  0  0  0  0  0  0
   36.1980   24.3240   40.7640 F   0  0  0  0  0  0  0  0  0  0  0  0
   38.7060   30.9950   39.3570 O   0  0  0  0  0  0  0  0  0  0  0  0
   39.2410   30.8070   38.0820 C   0  0  0  0  0  0  0  0  0  0  0  0
   39.9010   29.8560   37.5400 O   0  0  0  0  0  0  0  0  0  0  0  0
   38.9990   31.9100   37.2090 N   0  0  0  0  0  0  0  0  0  0  0  0
   38.9650   31.8780   36.1660 H   0  0  0  0  0  0  0  0  0  0  0  0
   38.8170   32.7430   36.6110 H   0  0  0  0  0  0  0  0  0  0  0  0
  1  9  1  0  0  0  0
  2  7  1  0  0  0  0
  2  1  1  0  0  0  0
  3  2  2  0  0  0  0
  4  5  2  0  0  0  0
  4  3  1  0  0  0  0
  5  6  1  0  0  0  0
  6  1  2  0  0  0  0
  8  3  1  0  0  0  0
  9 11  1  0  0  0  0
  9 12  1  1  0  0  0
 10 13  1  6  0  0  0
 10 16  1  0  0  0  0
 10  9  1  0  0  0  0
 10 11  1  0  0  0  0
 11 14  1  0  0  0  0
 15 11  1  0  0  0  0
 16 17  1  0  0  0  0
 16 18  1  0  0  0  0
 19 16  1  0  0  0  0
 20  5  1  0  0  0  0
 21 20  1  0  0  0  0
 22 21  2  0  0  0  0
 23 21  1  0  0  0  0
 24 23  1  0  0  0  0
 25 23  1  0  0  0  0
M  END
>  <minimizedAffinity>
-4.39560795

$$$$

 OpenBabel03252505483D

 25 26  0  0  1  0  0  0  0  0999 V2000
   37.7300   29.3970   40.3560 C   0  0  0  0  0  0  0  0  0  0  0  0
   37.2910   30.5300   41.1060 C   0  0  0  0  0  0  0  0  0  0  0  0
   36.8600   31.6770   40.4500 C   0  0  0  0  0  0  0  0  0  0  0  0
   36.8800   31.6650   39.0890 N   0  0  0  0  0  0  0  0  0  0  0  0
   37.3110   30.5540   38.4100 C   0  0  0  0  0  0  0  0  0  0  0  0
   37.7250   29.4480   39.0320 N   0  0  0  0  0  0  0  0  0  0  0  0
   37.2700   30.5550   42.1940 H   0  0  0  0  0  0  0  0  0  0  0  0
   36.5290   32.5310   41.0050 H   0  0  0  0  0  0  0  0  0  0  0  0
   38.1840   28.2230   41.1040 C   0  0  1  0  0  0  0  0  0  0  0  0
   37.0110   27.2030   41.3270 C   0  0  1  0  0  0  0  0  0  0  0  0
   38.2980   26.9080   40.5940 C   0  0  0  0  0  0  0  0  0  0  0  0
   38.6980   28.5050   42.0690 H   0  0  0  0  0  0  0  0  0  0  0  0
   36.0920   27.3450   40.7680 H   0  0  0  0  0  0  0  0  0  0  0  0
   39.0340   26.1950   41.0600 H   0  0  0  0  0  0  0  0  0  0  0  0
   38.1470   26.6510   39.5250 H   0  0  0  0  0  0  0  0  0  0  0  0
   36.9630   26.6280   42.7230 C   0  0  0  0  0  0  0  0  0  0  0  0
   36.1040   27.2910   43.5530 F   0  0  0  0  0  0  0  0  0  0  0  0
   36.5330   25.2920   42.6450 F   0  0  0  0  0  0  0  0  0  0  0  0
   38.2350   26.5590   43.2680 F   0  0  0  0  0  0  0  0  0  0  0  0
   37.2820   30.6820   37.0270 O   0  0  0  0  0  0  0  0  0  0  0  0
   36.8440   29.6540   36.1930 C   0  0  0  0  0  0  0  0  0  0  0  0
   35.6990   29.3350   35.7210 O   0  0  0  0  0  0  0  0  0  0  0  0
   37.8970   28.7790   35.7880 N   0  0  0  0  0  0  0  0  0  0  0  0
   37.9140   28.1900   34.9260 H   0  0  0  0  0  0  0  0  0  0  0  0
   38.6890   28.1560   35.5310 H   0  0  0  0  0  0  0  0  0  0  0  0
  1  9  1  0  0  0  0
  1  2  1  0  0  0  0
  2  7  1  0  0  0  0
  3  8  1  0  0  0  0
  3  2  2  0  0  0  0
  4  3  1  0  0  0  0
  5  6  1  0  0  0  0
  5  4  2  0  0  0  0
  6  1  2  0  0  0  0
  9 10  1  0  0  0  0
  9 12  1  1  0  0  0
 10 13  1  6  0  0  0
 10 16  1  0  0  0  0
 11 14  1  0  0  0  0
 11  9  1  0  0  0  0
 11 10  1  0  0  0  0
 15 11  1  0  0  0  0
 16 19  1  0  0  0  0
 16 17  1  0  0  0  0
 18 16  1  0  0  0  0
 20  5  1  0  0  0  0
 21 20  1  0  0  0  0
 22 21  2  0  0  0  0
 23 21  1  0  0  0  0
 24 23  1  0  0  0  0
 25 23  1  0  0  0  0
M  END
>  <minimizedAffinity>
-4.39416075

$$$$

 OpenBabel03252505483D

 25 26  0  0  1  0  0  0  0  0999 V2000
   37.5410   30.5610   41.1640 C   0  0  0  0  0  0  0  0  0  0  0  0
   36.7470   30.6380   39.9790 C   0  0  0  0  0  0  0  0  0  0  0  0
   37.0300   31.5950   39.0110 C   0  0  0  0  0  0  0  0  0  0  0  0
   38.0750   32.4340   39.2460 N   0  0  0  0  0  0  0  0  0  0  0  0
   38.8100   32.3230   40.3990 C   0  0  0  0  0  0  0  0  0  0  0  0
   38.5460   31.4070   41.3330 N   0  0  0  0  0  0  0  0  0  0  0  0
   35.9080   29.9760   39.7770 H   0  0  0  0  0  0  0  0  0  0  0  0
   36.4400   31.6600   38.1190 H   0  0  0  0  0  0  0  0  0  0  0  0
   37.1860   29.5410   42.1520 C   0  0  1  0  0  0  0  0  0  0  0  0
   38.0360   28.2360   41.9520 C   0  0  1  0  0  0  0  0  0  0  0  0
   38.0140   29.0810   43.2030 C   0  0  0  0  0  0  0  0  0  0  0  0
   36.0760   29.3320   42.1690 H   0  0  0  0  0  0  0  0  0  0  0  0
   38.8930   28.2770   41.2890 H   0  0  0  0  0  0  0  0  0  0  0  0
   37.5430   28.6570   44.1330 H   0  0  0  0  0  0  0  0  0  0  0  0
   38.9980   29.5310   43.4490 H   0  0  0  0  0  0  0  0  0  0  0  0
   37.2310   26.9620   42.0660 C   0  0  0  0  0  0  0  0  0  0  0  0
   36.5150   26.6720   40.9400 F   0  0  0  0  0  0  0  0  0  0  0  0
   38.1130   25.8920   42.2980 F   0  0  0  0  0  0  0  0  0  0  0  0
   36.4150   26.9970   43.1860 F   0  0  0  0  0  0  0  0  0  0  0  0
   39.8430   33.2450   40.5100 O   0  0  0  0  0  0  0  0  0  0  0  0
   41.1710   32.8570   40.6900 C   0  0  0  0  0  0  0  0  0  0  0  0
   42.2170   32.9480   39.9620 O   0  0  0  0  0  0  0  0  0  0  0  0
   41.4000   32.2300   41.9520 N   0  0  0  0  0  0  0  0  0  0  0  0
   42.3090   32.1830   42.4630 H   0  0  0  0  0  0  0  0  0  0  0  0
   41.5210   31.7610   42.8730 H   0  0  0  0  0  0  0  0  0  0  0  0
  1  6  1  0  0  0  0
  1  9  1  0  0  0  0
  2  1  2  0  0  0  0
  3  4  2  0  0  0  0
  3  2  1  0  0  0  0
  4  5  1  0  0  0  0
  5 20  1  0  0  0  0
  5  6  2  0  0  0  0
  7  2  1  0  0  0  0
  8  3  1  0  0  0  0
  9 12  1  1  0  0  0
  9 11  1  0  0  0  0
 10 13  1  6  0  0  0
 10 16  1  0  0  0  0
 10  9  1  0  0  0  0
 10 11  1  0  0  0  0
 11 15  1  0  0  0  0
 11 14  1  0  0  0  0
 16 18  1  0  0  0  0
 16 19  1  0  0  0  0
 17 16  1  0  0  0  0
 20 21  1  0  0  0  0
 21 23  1  0  0  0  0
 22 21  2  0  0  0  0
 23 24  1  0  0  0  0
 23 25  1  0  0  0  0
M  END
>  <minimizedAffinity>
-4.36473894

$$$$
