
 OpenBabel03252509303D

 23 23  0  0  0  0  0  0  0  0999 V2000
   46.7100   32.9450   43.2300 C   0  0  0  0  0  0  0  0  0  0  0  0
   46.1020   32.0490   43.5160 H   0  0  0  0  0  0  0  0  0  0  0  0
   46.7000   32.9690   42.1360 H   0  0  0  0  0  0  0  0  0  0  0  0
   44.7270   35.2180   45.4110 C   0  0  0  0  0  0  0  0  0  0  0  0
   45.4260   34.0890   44.9770 C   0  0  0  0  0  0  0  0  0  0  0  0
   45.9680   34.1180   43.7120 C   0  0  0  0  0  0  0  0  0  0  0  0
   45.8030   35.2340   42.9390 N   0  0  0  0  0  0  0  0  0  0  0  0
   45.1120   36.3190   43.3980 C   0  0  0  0  0  0  0  0  0  0  0  0
   44.5820   36.3060   44.6210 N   0  0  0  0  0  0  0  0  0  0  0  0
   44.2900   35.2190   46.4060 H   0  0  0  0  0  0  0  0  0  0  0  0
   45.4980   33.2520   45.6740 H   0  0  0  0  0  0  0  0  0  0  0  0
   45.0270   37.1670   42.7160 H   0  0  0  0  0  0  0  0  0  0  0  0
   47.9660   32.8590   43.8050 O   0  0  0  0  0  0  0  0  0  0  0  0
   50.0880   32.1880   42.4400 O   0  0  0  0  0  0  0  0  0  0  0  0
   49.0910   33.2930   42.6250 P   0  0  2  0  0  0  0  0  0  0  0  0
   49.8140   34.7340   43.1520 O   0  0  0  0  0  0  0  0  0  0  0  0
   49.1050   35.2860   43.5690 H   0  0  0  0  0  0  0  0  0  0  0  0
   48.2760   33.5400   41.1800 O   0  0  0  0  0  0  0  0  0  0  0  0
   48.4380   34.6300   40.3490 C   0  0  0  0  0  0  0  0  0  0  0  0
   47.9550   34.4060   39.1880 O   0  0  0  0  0  0  0  0  0  0  0  0
   49.0480   35.8770   40.6520 N   0  0  0  0  0  0  0  0  0  0  0  0
   48.2500   36.3850   41.1360 H   0  0  0  0  0  0  0  0  0  0  0  0
   50.0360   35.7870   40.2730 H   0  0  0  0  0  0  0  0  0  0  0  0
  1  2  1  0  0  0  0
  1  6  1  0  0  0  0
  1 13  1  0  0  0  0
  3  1  1  0  0  0  0
  4 10  1  0  0  0  0
  5  4  1  0  0  0  0
  5 11  1  0  0  0  0
  6  5  2  0  0  0  0
  7  8  2  0  0  0  0
  7  6  1  0  0  0  0
  8  9  1  0  0  0  0
  9  4  2  0  0  0  0
 12  8  1  0  0  0  0
 15 14  2  6  0  0  0
 15 16  1  0  0  0  0
 15 13  1  0  0  0  0
 16 17  1  0  0  0  0
 18 15  1  0  0  0  0
 19 21  1  0  0  0  0
 19 18  1  0  0  0  0
 20 19  2  0  0  0  0
 21 22  1  0  0  0  0
 23 21  1  0  0  0  0
M  END
>  <minimizedAffinity>
-4.39788675

>  <minimizedRMSD>
1.40225458

$$$$
