
 OpenBabel03252500493D

 24 25  0  0  0  0  0  0  0  0999 V2000
   44.3280   35.3010   45.1180 C   0  0  0  0  0  0  0  0  0  0  0  0
   45.0080   35.2440   43.9110 C   0  0  0  0  0  0  0  0  0  0  0  0
   46.0790   34.3760   43.7440 C   0  0  0  0  0  0  0  0  0  0  0  0
   46.4080   33.6000   44.8280 N   0  0  0  0  0  0  0  0  0  0  0  0
   45.7540   33.6590   45.9840 C   0  0  0  0  0  0  0  0  0  0  0  0
   44.7220   34.5030   46.1260 N   0  0  0  0  0  0  0  0  0  0  0  0
   43.4850   35.9620   45.3000 H   0  0  0  0  0  0  0  0  0  0  0  0
   46.6270   34.3110   42.8140 H   0  0  0  0  0  0  0  0  0  0  0  0
   46.1420   32.8160   47.1030 C   0  0  0  0  0  0  0  0  0  0  0  0
   47.3900   32.2910   47.2200 C   0  0  0  0  0  0  0  0  0  0  0  0
   47.7890   31.4910   48.2660 C   0  0  0  0  0  0  0  0  0  0  0  0
   46.8530   31.2350   49.2150 N   0  0  0  0  0  0  0  0  0  0  0  0
   45.6330   31.7550   49.0920 C   0  0  0  0  0  0  0  0  0  0  0  0
   45.2270   32.5400   48.0740 N   0  0  0  0  0  0  0  0  0  0  0  0
   48.0740   32.5470   46.4140 H   0  0  0  0  0  0  0  0  0  0  0  0
   48.8240   31.1450   48.2210 H   0  0  0  0  0  0  0  0  0  0  0  0
   44.9690   31.4820   49.9110 H   0  0  0  0  0  0  0  0  0  0  0  0
   44.5760   36.1110   42.8260 C   0  0  0  0  0  0  0  0  0  0  0  0
   43.7140   35.6740   42.0310 O   0  0  0  0  0  0  0  0  0  0  0  0
   45.7350   39.1130   44.0580 H   0  0  0  0  0  0  0  0  0  0  0  0
   45.2830   38.1130   44.0110 C   0  0  0  0  0  0  0  0  0  0  0  0
   44.8670   37.6360   45.0990 O   0  0  0  0  0  0  0  0  0  0  0  0
   45.1820   37.4040   42.7640 N   0  0  0  0  0  0  0  0  0  0  0  0
   45.5480   37.8650   41.9180 H   0  0  0  0  0  0  0  0  0  0  0  0
  1  7  1  0  0  0  0
  1  6  1  0  0  0  0
  2  1  2  0  0  0  0
  3  2  1  0  0  0  0
  3  4  2  0  0  0  0
  4  5  1  0  0  0  0
  5  6  2  0  0  0  0
  5  9  1  0  0  0  0
  8  3  1  0  0  0  0
  9 10  2  0  0  0  0
  9 14  1  0  0  0  0
 10 11  1  0  0  0  0
 11 12  2  0  0  0  0
 13 12  1  0  0  0  0
 13 17  1  0  0  0  0
 14 13  2  0  0  0  0
 15 10  1  0  0  0  0
 16 11  1  0  0  0  0
 18  2  1  0  0  0  0
 19 18  2  0  0  0  0
 21 20  1  0  0  0  0
 21 22  2  0  0  0  0
 23 18  1  0  0  0  0
 23 21  1  0  0  0  0
 24 23  1  0  0  0  0
M  END
>  <minimizedAffinity>
-3.76046038

>  <minimizedRMSD>
0.302385509

$$$$
