
 OpenBabel03242523173D

 23 24  0  0  0  0  0  0  0  0999 V2000
   46.2660   34.4930   43.5390 C   0  0  0  0  0  0  0  0  0  0  0  0
   47.4220   33.9440   43.1020 C   0  0  0  0  0  0  0  0  0  0  0  0
   47.8340   32.8130   43.8010 C   0  0  0  0  0  0  0  0  0  0  0  0
   47.0530   32.3630   44.8490 N   0  0  0  0  0  0  0  0  0  0  0  0
   45.9190   32.9590   45.2270 C   0  0  0  0  0  0  0  0  0  0  0  0
   45.4840   34.0730   44.5620 N   0  0  0  0  0  0  0  0  0  0  0  0
   48.7360   32.2690   43.5620 H   0  0  0  0  0  0  0  0  0  0  0  0
   45.4460   32.4660   46.0650 H   0  0  0  0  0  0  0  0  0  0  0  0
   48.2530   34.4580   42.0780 C   0  0  0  0  0  0  0  0  0  0  0  0
   48.6410   35.7280   41.7990 C   0  0  0  0  0  0  0  0  0  0  0  0
   49.7420   34.8790   42.4390 C   0  0  0  0  0  0  0  0  0  0  0  0
   48.5340   33.5550   41.3700 H   0  0  0  0  0  0  0  0  0  0  0  0
   48.8920   36.1070   40.7630 H   0  0  0  0  0  0  0  0  0  0  0  0
   48.4180   36.6110   42.4520 H   0  0  0  0  0  0  0  0  0  0  0  0
   49.9000   34.9170   43.5170 H   0  0  0  0  0  0  0  0  0  0  0  0
   50.5520   34.5710   41.8030 H   0  0  0  0  0  0  0  0  0  0  0  0
   45.5470   35.6080   42.9060 C   0  0  0  0  0  0  0  0  0  0  0  0
   45.1950   36.7770   42.9410 O   0  0  0  0  0  0  0  0  0  0  0  0
   43.1530   34.5520   40.4210 H   0  0  0  0  0  0  0  0  0  0  0  0
   43.6320   34.9500   41.3000 C   0  0  0  0  0  0  0  0  0  0  0  0
   42.8110   35.4090   42.1260 O   0  0  0  0  0  0  0  0  0  0  0  0
   45.0170   35.0410   41.6750 N   0  0  0  0  0  0  0  0  0  0  0  0
   45.5050   34.5970   40.8370 H   0  0  0  0  0  0  0  0  0  0  0  0
  1  6  1  0  0  0  0
  2  1  2  0  0  0  0
  2  3  1  0  0  0  0
  3  4  2  0  0  0  0
  4  5  1  0  0  0  0
  5  8  1  0  0  0  0
  6  5  2  0  0  0  0
  7  3  1  0  0  0  0
  9 11  1  0  0  0  0
  9  2  1  0  0  0  0
 10  9  1  0  0  0  0
 10 11  1  0  0  0  0
 10 14  1  0  0  0  0
 11 15  1  0  0  0  0
 12  9  1  0  0  0  0
 13 10  1  0  0  0  0
 16 11  1  0  0  0  0
 17 18  2  0  0  0  0
 17  1  1  0  0  0  0
 19 20  1  0  0  0  0
 20 22  1  0  0  0  0
 20 21  2  0  0  0  0
 22 17  1  0  0  0  0
 23 22  1  0  0  0  0
M  END
>  <minimizedAffinity>
-4.4302268

>  <minimizedRMSD>
0.142141968

$$$$
