
 OpenBabel03242523553D

 41 43  0  0  1  0  0  0  0  0999 V2000
   42.8190   34.5180   38.7530 C   0  0  1  0  0  0  0  0  0  0  0  0
   42.9540   35.1820   40.1150 C   0  0  1  0  0  0  0  0  0  0  0  0
   41.6610   35.4080   40.6250 O   0  0  0  0  0  0  0  0  0  0  0  0
   40.7380   35.7470   39.6260 C   0  0  0  0  0  0  0  0  0  0  0  0
   40.4400   34.5740   38.7170 C   0  0  2  0  0  0  0  0  0  0  0  0
   41.6500   33.5960   38.8600 C   0  0  1  0  0  0  0  0  0  0  0  0
   43.7600   33.9780   38.5170 H   0  0  0  0  0  0  0  0  0  0  0  0
   43.5280   36.1230   40.0800 H   0  0  0  0  0  0  0  0  0  0  0  0
   41.0470   36.6470   39.0700 H   0  0  0  0  0  0  0  0  0  0  0  0
   39.8130   35.9910   40.1550 H   0  0  0  0  0  0  0  0  0  0  0  0
   39.5090   34.0460   38.9890 H   0  0  0  0  0  0  0  0  0  0  0  0
   41.4320   33.3160   39.9440 H   0  0  0  0  0  0  0  0  0  0  0  0
   42.6090   35.4770   37.7470 O   0  0  0  0  0  0  0  0  0  0  0  0
   43.1730   36.2790   37.9650 H   0  0  0  0  0  0  0  0  0  0  0  0
   40.4620   34.9820   37.3940 O   0  0  0  0  0  0  0  0  0  0  0  0
   40.5220   34.2440   36.7560 H   0  0  0  0  0  0  0  0  0  0  0  0
   43.4860   34.1970   40.9590 O   0  0  0  0  0  0  0  0  0  0  0  0
   44.5910   34.3360   41.6990 C   0  0  0  0  0  0  0  0  0  0  0  0
   45.8500   34.4420   41.1020 C   0  0  0  0  0  0  0  0  0  0  0  0
   46.9690   34.5860   41.9010 C   0  0  0  0  0  0  0  0  0  0  0  0
   46.8070   34.6220   43.2770 N   0  0  0  0  0  0  0  0  0  0  0  0
   45.5750   34.5160   43.8230 C   0  0  0  0  0  0  0  0  0  0  0  0
   44.4770   34.3740   43.0370 N   0  0  0  0  0  0  0  0  0  0  0  0
   45.9430   34.4110   40.0380 H   0  0  0  0  0  0  0  0  0  0  0  0
   45.4540   34.5430   44.8880 H   0  0  0  0  0  0  0  0  0  0  0  0
   48.3480   34.6850   41.3290 C   0  0  0  0  0  0  0  0  0  0  0  0
   49.0700   36.0180   41.5080 C   0  0  0  0  0  0  0  0  0  0  0  0
   49.4980   34.6950   42.1760 C   0  0  0  0  0  0  0  0  0  0  0  0
   48.3970   34.2490   40.2980 H   0  0  0  0  0  0  0  0  0  0  0  0
   49.7110   36.3060   40.6710 H   0  0  0  0  0  0  0  0  0  0  0  0
   48.5230   36.7610   42.1050 H   0  0  0  0  0  0  0  0  0  0  0  0
   50.4740   34.2810   41.9030 H   0  0  0  0  0  0  0  0  0  0  0  0
   49.3540   34.7290   43.2840 H   0  0  0  0  0  0  0  0  0  0  0  0
   41.5240   32.6460   37.9110 O   0  0  0  0  0  0  0  0  0  0  0  0
   40.8760   31.4830   37.8930 C   0  0  0  0  0  0  0  0  0  0  0  0
   39.5960   31.3870   37.5520 O   0  0  0  0  0  0  0  0  0  0  0  0
   42.4730   28.6330   39.2160 H   0  0  0  0  0  0  0  0  0  0  0  0
   42.2770   29.6890   39.0950 C   0  0  0  0  0  0  0  0  0  0  0  0
   42.9050   30.5740   39.7250 O   0  0  0  0  0  0  0  0  0  0  0  0
   41.2780   30.1070   38.1900 N   0  0  0  0  0  0  0  0  0  0  0  0
   40.7850   29.3490   37.6920 H   0  0  0  0  0  0  0  0  0  0  0  0
  1  7  1  6  0  0  0
  1  6  1  0  0  0  0
  1  2  1  0  0  0  0
  2  8  1  6  0  0  0
  2  3  1  0  0  0  0
  2 17  1  0  0  0  0
  4 10  1  0  0  0  0
  4  3  1  0  0  0  0
  5  6  1  0  0  0  0
  5 11  1  1  0  0  0
  5  4  1  0  0  0  0
  6 12  1  1  0  0  0
  9  4  1  0  0  0  0
 13 14  1  0  0  0  0
 13  1  1  0  0  0  0
 15  5  1  0  0  0  0
 16 15  1  0  0  0  0
 17 18  1  0  0  0  0
 18 23  1  0  0  0  0
 19 18  2  0  0  0  0
 19 20  1  0  0  0  0
 20 21  2  0  0  0  0
 21 22  1  0  0  0  0
 22 25  1  0  0  0  0
 23 22  2  0  0  0  0
 24 19  1  0  0  0  0
 26 27  1  0  0  0  0
 26 20  1  0  0  0  0
 26 28  1  0  0  0  0
 27 31  1  0  0  0  0
 27 28  1  0  0  0  0
 28 33  1  0  0  0  0
 29 26  1  0  0  0  0
 30 27  1  0  0  0  0
 32 28  1  0  0  0  0
 34  6  1  0  0  0  0
 35 34  1  0  0  0  0
 35 40  1  0  0  0  0
 36 35  2  0  0  0  0
 38 37  1  0  0  0  0
 38 39  2  0  0  0  0
 40 38  1  0  0  0  0
 41 40  1  0  0  0  0
M  END
>  <minimizedAffinity>
-5.78695822

>  <minimizedRMSD>
0.070316188

$$$$
