
 OpenBabel03242523553D

 41 43  0  0  1  0  0  0  0  0999 V2000
   42.8120   34.5240   38.7430 C   0  0  1  0  0  0  0  0  0  0  0  0
   42.9530   35.1800   40.1080 C   0  0  1  0  0  0  0  0  0  0  0  0
   41.6620   35.3940   40.6290 O   0  0  0  0  0  0  0  0  0  0  0  0
   40.7300   35.7350   39.6390 C   0  0  0  0  0  0  0  0  0  0  0  0
   40.4320   34.5660   38.7250 C   0  0  2  0  0  0  0  0  0  0  0  0
   41.6490   33.5940   38.8520 C   0  0  1  0  0  0  0  0  0  0  0  0
   43.7540   33.9920   38.4960 H   0  0  0  0  0  0  0  0  0  0  0  0
   43.5210   36.1250   40.0750 H   0  0  0  0  0  0  0  0  0  0  0  0
   41.0290   36.6410   39.0870 H   0  0  0  0  0  0  0  0  0  0  0  0
   39.8080   35.9700   40.1770 H   0  0  0  0  0  0  0  0  0  0  0  0
   39.5070   34.0310   38.9990 H   0  0  0  0  0  0  0  0  0  0  0  0
   41.4400   33.3060   39.9350 H   0  0  0  0  0  0  0  0  0  0  0  0
   42.5890   35.4880   37.7450 O   0  0  0  0  0  0  0  0  0  0  0  0
   43.1500   36.2920   37.9640 H   0  0  0  0  0  0  0  0  0  0  0  0
   40.4420   34.9840   37.4040 O   0  0  0  0  0  0  0  0  0  0  0  0
   40.5020   34.2500   36.7600 H   0  0  0  0  0  0  0  0  0  0  0  0
   43.4970   34.1920   40.9410 O   0  0  0  0  0  0  0  0  0  0  0  0
   44.5980   34.3380   41.6860 C   0  0  0  0  0  0  0  0  0  0  0  0
   45.8600   34.4410   41.0950 C   0  0  0  0  0  0  0  0  0  0  0  0
   46.9740   34.5920   41.8990 C   0  0  0  0  0  0  0  0  0  0  0  0
   46.8050   34.6380   43.2740 N   0  0  0  0  0  0  0  0  0  0  0  0
   45.5710   34.5350   43.8140 C   0  0  0  0  0  0  0  0  0  0  0  0
   44.4760   34.3860   43.0230 N   0  0  0  0  0  0  0  0  0  0  0  0
   45.9590   34.4020   40.0310 H   0  0  0  0  0  0  0  0  0  0  0  0
   45.4440   34.5700   44.8780 H   0  0  0  0  0  0  0  0  0  0  0  0
   48.3560   34.6880   41.3340 C   0  0  0  0  0  0  0  0  0  0  0  0
   49.0770   36.0230   41.5070 C   0  0  0  0  0  0  0  0  0  0  0  0
   49.5020   34.7050   42.1860 C   0  0  0  0  0  0  0  0  0  0  0  0
   48.4110   34.2450   40.3050 H   0  0  0  0  0  0  0  0  0  0  0  0
   49.7220   36.3060   40.6710 H   0  0  0  0  0  0  0  0  0  0  0  0
   48.5260   36.7700   42.0960 H   0  0  0  0  0  0  0  0  0  0  0  0
   50.4790   34.2900   41.9210 H   0  0  0  0  0  0  0  0  0  0  0  0
   49.3520   34.7470   43.2930 H   0  0  0  0  0  0  0  0  0  0  0  0
   41.5220   32.6500   37.8970 O   0  0  0  0  0  0  0  0  0  0  0  0
   40.9310   31.4580   37.8960 C   0  0  0  0  0  0  0  0  0  0  0  0
   39.6760   31.2850   37.4950 O   0  0  0  0  0  0  0  0  0  0  0  0
   42.8850   28.5850   38.4920 H   0  0  0  0  0  0  0  0  0  0  0  0
   42.6920   29.6020   38.1810 C   0  0  0  0  0  0  0  0  0  0  0  0
   43.5890   30.3600   37.7360 O   0  0  0  0  0  0  0  0  0  0  0  0
   41.3810   30.1160   38.2690 N   0  0  0  0  0  0  0  0  0  0  0  0
   40.6720   29.4610   38.6390 H   0  0  0  0  0  0  0  0  0  0  0  0
  1  7  1  6  0  0  0
  1  6  1  0  0  0  0
  1  2  1  0  0  0  0
  2  8  1  6  0  0  0
  2  3  1  0  0  0  0
  2 17  1  0  0  0  0
  4 10  1  0  0  0  0
  4  3  1  0  0  0  0
  5  6  1  0  0  0  0
  5 11  1  1  0  0  0
  5  4  1  0  0  0  0
  6 12  1  1  0  0  0
  9  4  1  0  0  0  0
 13 14  1  0  0  0  0
 13  1  1  0  0  0  0
 15  5  1  0  0  0  0
 16 15  1  0  0  0  0
 17 18  1  0  0  0  0
 18 23  1  0  0  0  0
 19 18  2  0  0  0  0
 19 20  1  0  0  0  0
 20 21  2  0  0  0  0
 21 22  1  0  0  0  0
 22 25  1  0  0  0  0
 23 22  2  0  0  0  0
 24 19  1  0  0  0  0
 26 27  1  0  0  0  0
 26 20  1  0  0  0  0
 26 28  1  0  0  0  0
 27 31  1  0  0  0  0
 27 28  1  0  0  0  0
 28 33  1  0  0  0  0
 29 26  1  0  0  0  0
 30 27  1  0  0  0  0
 32 28  1  0  0  0  0
 34  6  1  0  0  0  0
 35 34  1  0  0  0  0
 35 40  1  0  0  0  0
 36 35  2  0  0  0  0
 38 40  1  0  0  0  0
 38 37  1  0  0  0  0
 39 38  2  0  0  0  0
 40 41  1  0  0  0  0
M  END
>  <minimizedAffinity>
-5.80022669

>  <minimizedRMSD>
0.0725983456

$$$$
