
 OpenBabel03242517013D

 28 27  0  0  0  0  0  0  0  0999 V2000
   36.7240   28.1850   41.3370 C   0  0  0  0  0  0  0  0  0  0  0  0
   36.9730   26.9180   41.8290 C   0  0  0  0  0  0  0  0  0  0  0  0
   37.7580   26.7850   42.9680 C   0  0  0  0  0  0  0  0  0  0  0  0
   38.2680   27.8920   43.5790 C   0  0  0  0  0  0  0  0  0  0  0  0
   38.0500   29.1590   43.1310 C   0  0  0  0  0  0  0  0  0  0  0  0
   37.2560   29.2520   41.9840 C   0  0  0  0  0  0  0  0  0  0  0  0
   36.5560   26.0410   41.3260 H   0  0  0  0  0  0  0  0  0  0  0  0
   37.9190   25.7740   43.3080 H   0  0  0  0  0  0  0  0  0  0  0  0
   38.8700   27.7080   44.4600 H   0  0  0  0  0  0  0  0  0  0  0  0
   38.4520   30.0390   43.6120 H   0  0  0  0  0  0  0  0  0  0  0  0
   35.2990   27.8280   37.8720 C   0  0  0  0  0  0  0  0  0  0  0  0
   36.1960   27.6510   38.9600 C   0  0  0  0  0  0  0  0  0  0  0  0
   35.9020   28.2740   40.1440 C   0  0  0  0  0  0  0  0  0  0  0  0
   34.7600   29.0340   40.2140 N   0  0  0  0  0  0  0  0  0  0  0  0
   33.9180   29.1940   39.1750 C   0  0  0  0  0  0  0  0  0  0  0  0
   34.1910   28.5830   37.9860 N   0  0  0  0  0  0  0  0  0  0  0  0
   35.5170   27.3460   36.9410 H   0  0  0  0  0  0  0  0  0  0  0  0
   37.0730   27.0600   38.8850 H   0  0  0  0  0  0  0  0  0  0  0  0
   33.0660   29.8150   39.3750 H   0  0  0  0  0  0  0  0  0  0  0  0
   37.6120   31.5370   40.6960 C   0  0  0  0  0  3  0  0  0  0  0  0
   38.8390   31.4970   40.4230 O   0  0  0  0  0  0  0  0  0  0  0  0
   36.9490   30.5130   41.4110 N   0  0  0  0  0  0  0  0  0  0  0  0
   35.9620   30.8190   41.5250 H   0  0  0  0  0  0  0  0  0  0  0  0
   37.0600   34.7070   39.4830 H   0  0  0  0  0  0  0  0  0  0  0  0
   37.6400   33.8350   39.8240 C   0  0  0  0  0  3  0  0  0  0  0  0
   38.8840   33.8750   39.8320 O   0  0  0  0  0  0  0  0  0  0  0  0
   36.8690   32.7060   40.2390 N   0  0  0  0  0  1  0  0  0  0  0  0
   37.8860   32.5810   40.3050 H   0  0  0  0  0  0  0  0  0  0  0  0
  1  2  2  0  0  0  0
  1  6  1  0  0  0  0
  2  3  1  0  0  0  0
  3  8  1  0  0  0  0
  3  4  2  0  0  0  0
  4  9  1  0  0  0  0
  5  4  1  0  0  0  0
  5 10  1  0  0  0  0
  6  5  2  0  0  0  0
  7  2  1  0  0  0  0
 11 16  2  0  0  0  0
 11 12  1  0  0  0  0
 12 13  2  0  0  0  0
 13 14  1  0  0  0  0
 13  1  1  0  0  0  0
 15 19  1  0  0  0  0
 15 14  2  0  0  0  0
 16 15  1  0  0  0  0
 17 11  1  0  0  0  0
 18 12  1  0  0  0  0
 20 22  1  0  0  0  0
 21 20  2  0  0  0  0
 22 23  1  0  0  0  0
 22  6  1  0  0  0  0
 24 25  1  0  0  0  0
 25 26  2  0  0  0  0
 27 28  1  0  0  0  0
M  END
>  <minimizedAffinity>
-5.58950043

$$$$

 OpenBabel03242517013D

 28 27  0  0  0  0  0  0  0  0999 V2000
   36.4170   28.2960   39.7290 C   0  0  0  0  0  0  0  0  0  0  0  0
   36.1810   27.0400   39.2060 C   0  0  0  0  0  0  0  0  0  0  0  0
   35.5080   26.9330   37.9950 C   0  0  0  0  0  0  0  0  0  0  0  0
   35.0920   28.0580   37.3440 C   0  0  0  0  0  0  0  0  0  0  0  0
   35.3000   29.3160   37.8210 C   0  0  0  0  0  0  0  0  0  0  0  0
   35.9810   29.3810   39.0410 C   0  0  0  0  0  0  0  0  0  0  0  0
   36.5230   26.1490   39.7410 H   0  0  0  0  0  0  0  0  0  0  0  0
   35.3520   25.9290   37.6340 H   0  0  0  0  0  0  0  0  0  0  0  0
   34.5740   27.8950   36.4080 H   0  0  0  0  0  0  0  0  0  0  0  0
   34.9720   30.2090   37.3090 H   0  0  0  0  0  0  0  0  0  0  0  0
   37.3740   28.1240   43.3650 C   0  0  0  0  0  0  0  0  0  0  0  0
   36.5650   28.0140   42.2010 C   0  0  0  0  0  0  0  0  0  0  0  0
   37.1210   28.3570   40.9970 C   0  0  0  0  0  0  0  0  0  0  0  0
   38.4250   28.7890   40.9810 N   0  0  0  0  0  0  0  0  0  0  0  0
   39.1800   28.8890   42.0910 C   0  0  0  0  0  0  0  0  0  0  0  0
   38.6480   28.5520   43.3010 N   0  0  0  0  0  0  0  0  0  0  0  0
   36.9510   27.8570   44.3120 H   0  0  0  0  0  0  0  0  0  0  0  0
   35.5600   27.6780   42.2350 H   0  0  0  0  0  0  0  0  0  0  0  0
   40.1810   29.2400   41.9270 H   0  0  0  0  0  0  0  0  0  0  0  0
   37.1450   31.7220   39.4560 C   0  0  0  0  0  3  0  0  0  0  0  0
   38.0110   31.7510   38.5440 O   0  0  0  0  0  0  0  0  0  0  0  0
   36.2660   30.6310   39.6490 N   0  0  0  0  0  0  0  0  0  0  0  0
   35.6890   30.8550   40.4840 H   0  0  0  0  0  0  0  0  0  0  0  0
   38.1010   34.6560   40.9740 H   0  0  0  0  0  0  0  0  0  0  0  0
   38.1770   33.7860   40.3030 C   0  0  0  0  0  3  0  0  0  0  0  0
   39.1800   33.6390   39.5810 O   0  0  0  0  0  0  0  0  0  0  0  0
   37.0700   32.8820   40.3350 N   0  0  0  0  0  1  0  0  0  0  0  0
   37.8210   32.6210   39.6860 H   0  0  0  0  0  0  0  0  0  0  0  0
  1 13  1  0  0  0  0
  2  1  1  0  0  0  0
  2  7  1  0  0  0  0
  3  2  2  0  0  0  0
  4  5  2  0  0  0  0
  4  3  1  0  0  0  0
  5  6  1  0  0  0  0
  6 22  1  0  0  0  0
  6  1  2  0  0  0  0
  8  3  1  0  0  0  0
  9  4  1  0  0  0  0
 10  5  1  0  0  0  0
 11 17  1  0  0  0  0
 12 18  1  0  0  0  0
 12 11  2  0  0  0  0
 13 12  1  0  0  0  0
 14 13  2  0  0  0  0
 14 15  1  0  0  0  0
 15 16  2  0  0  0  0
 16 11  1  0  0  0  0
 19 15  1  0  0  0  0
 20 22  1  0  0  0  0
 21 20  2  0  0  0  0
 22 23  1  0  0  0  0
 25 24  1  0  0  0  0
 26 25  2  0  0  0  0
 28 27  1  0  0  0  0
M  END
>  <minimizedAffinity>
-5.05614185

$$$$

 OpenBabel03242517013D

 28 27  0  0  0  0  0  0  0  0999 V2000
   37.2530   30.8620   38.3300 C   0  0  0  0  0  0  0  0  0  0  0  0
   37.3230   30.9990   36.9570 C   0  0  0  0  0  0  0  0  0  0  0  0
   36.7530   30.0170   36.1560 C   0  0  0  0  0  0  0  0  0  0  0  0
   36.1380   28.9410   36.7270 C   0  0  0  0  0  0  0  0  0  0  0  0
   36.0460   28.7630   38.0730 C   0  0  0  0  0  0  0  0  0  0  0  0
   36.6300   29.7720   38.8450 C   0  0  0  0  0  0  0  0  0  0  0  0
   37.8200   31.8680   36.5160 H   0  0  0  0  0  0  0  0  0  0  0  0
   36.8370   30.1750   35.0920 H   0  0  0  0  0  0  0  0  0  0  0  0
   35.7190   28.2190   36.0380 H   0  0  0  0  0  0  0  0  0  0  0  0
   35.5590   27.9130   38.5300 H   0  0  0  0  0  0  0  0  0  0  0  0
   38.0520   34.0960   40.0800 C   0  0  0  0  0  0  0  0  0  0  0  0
   37.3440   33.1690   39.2680 C   0  0  0  0  0  0  0  0  0  0  0  0
   37.8650   31.9100   39.1250 C   0  0  0  0  0  0  0  0  0  0  0  0
   39.0400   31.6150   39.7710 N   0  0  0  0  0  0  0  0  0  0  0  0
   39.7020   32.5030   40.5370 C   0  0  0  0  0  0  0  0  0  0  0  0
   39.2010   33.7630   40.6940 N   0  0  0  0  0  0  0  0  0  0  0  0
   37.6540   35.0830   40.2000 H   0  0  0  0  0  0  0  0  0  0  0  0
   36.4370   33.4170   38.7770 H   0  0  0  0  0  0  0  0  0  0  0  0
   40.6060   32.1330   40.9800 H   0  0  0  0  0  0  0  0  0  0  0  0
   37.1830   28.9420   41.2970 C   0  0  0  0  0  3  0  0  0  0  0  0
   37.9500   27.9700   41.0790 O   0  0  0  0  0  0  0  0  0  0  0  0
   36.6030   29.7120   40.2620 N   0  0  0  0  0  0  0  0  0  0  0  0
   35.9930   30.4180   40.7200 H   0  0  0  0  0  0  0  0  0  0  0  0
   37.0170   28.5340   44.7080 H   0  0  0  0  0  0  0  0  0  0  0  0
   37.2380   28.2710   43.6610 C   0  0  0  0  0  3  0  0  0  0  0  0
   37.7490   27.1690   43.3870 O   0  0  0  0  0  0  0  0  0  0  0  0
   36.9010   29.2640   42.6910 N   0  0  0  0  0  1  0  0  0  0  0  0
   37.3150   28.4080   42.3050 H   0  0  0  0  0  0  0  0  0  0  0  0
  1  6  1  0  0  0  0
  1 13  1  0  0  0  0
  2  1  2  0  0  0  0
  3  4  2  0  0  0  0
  3  2  1  0  0  0  0
  4  5  1  0  0  0  0
  5 10  1  0  0  0  0
  5  6  2  0  0  0  0
  6 22  1  0  0  0  0
  7  2  1  0  0  0  0
  8  3  1  0  0  0  0
  9  4  1  0  0  0  0
 11 17  1  0  0  0  0
 11 16  1  0  0  0  0
 12 11  2  0  0  0  0
 13 12  1  0  0  0  0
 13 14  2  0  0  0  0
 14 15  1  0  0  0  0
 15 16  2  0  0  0  0
 15 19  1  0  0  0  0
 18 12  1  0  0  0  0
 21 20  2  0  0  0  0
 22 23  1  0  0  0  0
 22 20  1  0  0  0  0
 25 24  1  0  0  0  0
 26 25  2  0  0  0  0
 28 27  1  0  0  0  0
M  END
>  <minimizedAffinity>
-5.01794243

$$$$

 OpenBabel03242517013D

 28 27  0  0  0  0  0  0  0  0999 V2000
   37.2640   29.4040   41.5560 C   0  0  0  0  0  0  0  0  0  0  0  0
   36.2670   28.4470   41.5640 C   0  0  0  0  0  0  0  0  0  0  0  0
   36.1990   27.5580   42.6290 C   0  0  0  0  0  0  0  0  0  0  0  0
   37.1080   27.6380   43.6440 C   0  0  0  0  0  0  0  0  0  0  0  0
   38.1070   28.5620   43.6790 C   0  0  0  0  0  0  0  0  0  0  0  0
   38.1410   29.4390   42.5900 C   0  0  0  0  0  0  0  0  0  0  0  0
   35.5460   28.3980   40.7420 H   0  0  0  0  0  0  0  0  0  0  0  0
   35.4020   26.8330   42.5830 H   0  0  0  0  0  0  0  0  0  0  0  0
   36.9920   26.9110   44.4380 H   0  0  0  0  0  0  0  0  0  0  0  0
   38.8290   28.6290   44.4810 H   0  0  0  0  0  0  0  0  0  0  0  0
   37.4150   30.8990   38.1060 C   0  0  0  0  0  0  0  0  0  0  0  0
   37.3940   29.9010   39.1170 C   0  0  0  0  0  0  0  0  0  0  0  0
   37.2960   30.3080   40.4220 C   0  0  0  0  0  0  0  0  0  0  0  0
   37.2240   31.6550   40.6800 N   0  0  0  0  0  0  0  0  0  0  0  0
   37.2450   32.5910   39.7120 C   0  0  0  0  0  0  0  0  0  0  0  0
   37.3430   32.2090   38.4050 N   0  0  0  0  0  0  0  0  0  0  0  0
   37.4920   30.5930   37.0830 H   0  0  0  0  0  0  0  0  0  0  0  0
   37.4510   28.8650   38.8970 H   0  0  0  0  0  0  0  0  0  0  0  0
   37.1810   33.6040   40.0610 H   0  0  0  0  0  0  0  0  0  0  0  0
   40.5390   30.5480   42.4240 C   0  0  0  0  0  3  0  0  0  0  0  0
   41.2960   29.5440   42.4540 O   0  0  0  0  0  0  0  0  0  0  0  0
   39.1300   30.4520   42.5020 N   0  0  0  0  0  0  0  0  0  0  0  0
   38.7630   31.4240   42.4900 H   0  0  0  0  0  0  0  0  0  0  0  0
   43.0410   32.9070   42.4550 H   0  0  0  0  0  0  0  0  0  0  0  0
   42.5800   31.9120   42.5540 C   0  0  0  0  0  3  0  0  0  0  0  0
   43.2750   30.9290   42.8700 O   0  0  0  0  0  0  0  0  0  0  0  0
   41.1750   31.8540   42.2990 N   0  0  0  0  0  1  0  0  0  0  0  0
   41.6050   30.9560   42.5490 H   0  0  0  0  0  0  0  0  0  0  0  0
  1  2  2  0  0  0  0
  1  6  1  0  0  0  0
  2  3  1  0  0  0  0
  3  4  2  0  0  0  0
  4  5  1  0  0  0  0
  4  9  1  0  0  0  0
  5 10  1  0  0  0  0
  6  5  2  0  0  0  0
  7  2  1  0  0  0  0
  8  3  1  0  0  0  0
 11 16  2  0  0  0  0
 11 12  1  0  0  0  0
 12 13  2  0  0  0  0
 13 14  1  0  0  0  0
 13  1  1  0  0  0  0
 15 19  1  0  0  0  0
 15 14  2  0  0  0  0
 16 15  1  0  0  0  0
 17 11  1  0  0  0  0
 18 12  1  0  0  0  0
 20 21  2  0  0  0  0
 20 22  1  0  0  0  0
 22  6  1  0  0  0  0
 23 22  1  0  0  0  0
 24 25  1  0  0  0  0
 25 26  2  0  0  0  0
 27 28  1  0  0  0  0
M  END
>  <minimizedAffinity>
-4.96383953

$$$$

 OpenBabel03242517013D

 28 27  0  0  0  0  0  0  0  0999 V2000
   40.4770   31.9500   41.2860 C   0  0  0  0  0  0  0  0  0  0  0  0
   41.6400   32.5660   40.8660 C   0  0  0  0  0  0  0  0  0  0  0  0
   42.8010   32.3810   41.6060 C   0  0  0  0  0  0  0  0  0  0  0  0
   42.7810   31.6020   42.7250 C   0  0  0  0  0  0  0  0  0  0  0  0
   41.6600   30.9760   43.1780 C   0  0  0  0  0  0  0  0  0  0  0  0
   40.5120   31.1860   42.4080 C   0  0  0  0  0  0  0  0  0  0  0  0
   41.6380   33.1870   39.9660 H   0  0  0  0  0  0  0  0  0  0  0  0
   43.6790   32.8850   41.2310 H   0  0  0  0  0  0  0  0  0  0  0  0
   43.7240   31.5050   43.2490 H   0  0  0  0  0  0  0  0  0  0  0  0
   41.6400   30.3570   44.0650 H   0  0  0  0  0  0  0  0  0  0  0  0
   37.4420   33.4320   39.6260 C   0  0  0  0  0  0  0  0  0  0  0  0
   38.5900   33.3530   40.4600 C   0  0  0  0  0  0  0  0  0  0  0  0
   39.2890   32.1750   40.4840 C   0  0  0  0  0  0  0  0  0  0  0  0
   38.8420   31.1370   39.7040 N   0  0  0  0  0  0  0  0  0  0  0  0
   37.7520   31.2240   38.9180 C   0  0  0  0  0  0  0  0  0  0  0  0
   37.0400   32.3880   38.8780 N   0  0  0  0  0  0  0  0  0  0  0  0
   36.8880   34.3480   39.5980 H   0  0  0  0  0  0  0  0  0  0  0  0
   38.9190   34.1670   41.0560 H   0  0  0  0  0  0  0  0  0  0  0  0
   37.5210   30.3350   38.3640 H   0  0  0  0  0  0  0  0  0  0  0  0
   38.7590   29.2960   43.0080 C   0  0  0  0  0  3  0  0  0  0  0  0
   39.4490   28.2510   42.8940 O   0  0  0  0  0  0  0  0  0  0  0  0
   39.2760   30.5900   42.7650 N   0  0  0  0  0  0  0  0  0  0  0  0
   38.4890   31.2560   42.8980 H   0  0  0  0  0  0  0  0  0  0  0  0
   35.7730   27.7090   43.6310 H   0  0  0  0  0  0  0  0  0  0  0  0
   36.8250   27.8120   43.3210 C   0  0  0  0  0  3  0  0  0  0  0  0
   37.4610   26.8180   42.9240 O   0  0  0  0  0  0  0  0  0  0  0  0
   37.3680   29.1300   43.4120 N   0  0  0  0  0  1  0  0  0  0  0  0
   38.0210   28.4190   43.0660 H   0  0  0  0  0  0  0  0  0  0  0  0
  1  6  1  0  0  0  0
  2  1  2  0  0  0  0
  2  3  1  0  0  0  0
  3  4  2  0  0  0  0
  4  5  1  0  0  0  0
  4  9  1  0  0  0  0
  5 10  1  0  0  0  0
  6 22  1  0  0  0  0
  6  5  2  0  0  0  0
  7  2  1  0  0  0  0
  8  3  1  0  0  0  0
 11 12  1  0  0  0  0
 12 13  2  0  0  0  0
 12 18  1  0  0  0  0
 13  1  1  0  0  0  0
 14 13  1  0  0  0  0
 15 14  2  0  0  0  0
 16 15  1  0  0  0  0
 16 11  2  0  0  0  0
 17 11  1  0  0  0  0
 19 15  1  0  0  0  0
 21 20  2  0  0  0  0
 22 23  1  0  0  0  0
 22 20  1  0  0  0  0
 25 24  1  0  0  0  0
 26 25  2  0  0  0  0
 28 27  1  0  0  0  0
M  END
>  <minimizedAffinity>
-4.9162221

$$$$

 OpenBabel03242517013D

 28 27  0  0  0  0  0  0  0  0999 V2000
   38.4260   25.3950   41.7620 C   0  0  0  0  0  0  0  0  0  0  0  0
   39.3730   24.4290   42.0410 C   0  0  0  0  0  0  0  0  0  0  0  0
   40.3280   24.6890   43.0160 C   0  0  0  0  0  0  0  0  0  0  0  0
   40.3190   25.8810   43.6800 C   0  0  0  0  0  0  0  0  0  0  0  0
   39.4070   26.8620   43.4380 C   0  0  0  0  0  0  0  0  0  0  0  0
   38.4630   26.5630   42.4510 C   0  0  0  0  0  0  0  0  0  0  0  0
   39.3650   23.4790   41.5000 H   0  0  0  0  0  0  0  0  0  0  0  0
   41.0420   23.9000   43.1930 H   0  0  0  0  0  0  0  0  0  0  0  0
   41.0950   26.0110   44.4240 H   0  0  0  0  0  0  0  0  0  0  0  0
   39.3970   27.8090   43.9610 H   0  0  0  0  0  0  0  0  0  0  0  0
   35.6760   23.8380   39.7180 C   0  0  0  0  0  0  0  0  0  0  0  0
   36.5770   24.0270   40.8010 C   0  0  0  0  0  0  0  0  0  0  0  0
   37.4510   25.0800   40.7340 C   0  0  0  0  0  0  0  0  0  0  0  0
   37.4100   25.8910   39.6260 N   0  0  0  0  0  0  0  0  0  0  0  0
   36.5510   25.7000   38.6070 C   0  0  0  0  0  0  0  0  0  0  0  0
   35.6710   24.6580   38.6520 N   0  0  0  0  0  0  0  0  0  0  0  0
   34.9870   23.0190   39.7590 H   0  0  0  0  0  0  0  0  0  0  0  0
   36.5930   23.3890   41.6480 H   0  0  0  0  0  0  0  0  0  0  0  0
   36.6320   26.4120   37.8080 H   0  0  0  0  0  0  0  0  0  0  0  0
   37.3580   28.7670   41.4870 C   0  0  0  0  0  3  0  0  0  0  0  0
   38.3620   29.4160   41.0980 O   0  0  0  0  0  0  0  0  0  0  0  0
   37.4540   27.4970   42.1020 N   0  0  0  0  0  0  0  0  0  0  0  0
   36.4860   27.2110   42.3510 H   0  0  0  0  0  0  0  0  0  0  0  0
   35.0400   31.2160   40.8110 H   0  0  0  0  0  0  0  0  0  0  0  0
   36.0370   30.7730   40.9650 C   0  0  0  0  0  3  0  0  0  0  0  0
   37.0570   31.4780   40.8630 O   0  0  0  0  0  0  0  0  0  0  0  0
   36.0510   29.3790   41.2780 N   0  0  0  0  0  1  0  0  0  0  0  0
   36.9770   29.8190   41.2300 H   0  0  0  0  0  0  0  0  0  0  0  0
  1  2  2  0  0  0  0
  1  6  1  0  0  0  0
  2  3  1  0  0  0  0
  3  8  1  0  0  0  0
  3  4  2  0  0  0  0
  4  9  1  0  0  0  0
  5  4  1  0  0  0  0
  5 10  1  0  0  0  0
  6  5  2  0  0  0  0
  7  2  1  0  0  0  0
 11 17  1  0  0  0  0
 11 12  1  0  0  0  0
 12 18  1  0  0  0  0
 13 12  2  0  0  0  0
 13  1  1  0  0  0  0
 14 13  1  0  0  0  0
 15 16  1  0  0  0  0
 15 14  2  0  0  0  0
 16 11  2  0  0  0  0
 19 15  1  0  0  0  0
 20 22  1  0  0  0  0
 21 20  2  0  0  0  0
 22 23  1  0  0  0  0
 22  6  1  0  0  0  0
 24 25  1  0  0  0  0
 26 25  2  0  0  0  0
 28 27  1  0  0  0  0
M  END
>  <minimizedAffinity>
-4.8845396

$$$$

 OpenBabel03242517013D

 28 27  0  0  0  0  0  0  0  0999 V2000
   37.8220   29.4730   41.7970 C   0  0  0  0  0  0  0  0  0  0  0  0
   37.8990   29.2600   43.1610 C   0  0  0  0  0  0  0  0  0  0  0  0
   37.4470   28.0530   43.6770 C   0  0  0  0  0  0  0  0  0  0  0  0
   36.9360   27.1020   42.8430 C   0  0  0  0  0  0  0  0  0  0  0  0
   36.8380   27.2660   41.4950 C   0  0  0  0  0  0  0  0  0  0  0  0
   37.3040   28.4940   41.0140 C   0  0  0  0  0  0  0  0  0  0  0  0
   38.3120   30.0340   43.8140 H   0  0  0  0  0  0  0  0  0  0  0  0
   37.5320   27.9410   44.7470 H   0  0  0  0  0  0  0  0  0  0  0  0
   36.6030   26.1880   43.3190 H   0  0  0  0  0  0  0  0  0  0  0  0
   36.4340   26.5150   40.8310 H   0  0  0  0  0  0  0  0  0  0  0  0
   39.9320   32.4510   40.8820 C   0  0  0  0  0  0  0  0  0  0  0  0
   39.6020   31.1740   41.4110 C   0  0  0  0  0  0  0  0  0  0  0  0
   38.3040   30.7500   41.3040 C   0  0  0  0  0  0  0  0  0  0  0  0
   37.3950   31.5810   40.6950 N   0  0  0  0  0  0  0  0  0  0  0  0
   37.7210   32.7890   40.1990 C   0  0  0  0  0  0  0  0  0  0  0  0
   39.0090   33.2320   40.2940 N   0  0  0  0  0  0  0  0  0  0  0  0
   40.9440   32.7930   40.9590 H   0  0  0  0  0  0  0  0  0  0  0  0
   40.3190   30.5470   41.8780 H   0  0  0  0  0  0  0  0  0  0  0  0
   36.9090   33.3280   39.7510 H   0  0  0  0  0  0  0  0  0  0  0  0
   36.2920   28.9980   38.6210 C   0  0  0  0  0  3  0  0  0  0  0  0
   35.0560   28.8950   38.8310 O   0  0  0  0  0  0  0  0  0  0  0  0
   37.2630   28.7950   39.6280 N   0  0  0  0  0  0  0  0  0  0  0  0
   38.1920   28.9070   39.1750 H   0  0  0  0  0  0  0  0  0  0  0  0
   36.0570   29.4830   35.2240 H   0  0  0  0  0  0  0  0  0  0  0  0
   35.7230   29.2150   36.2390 C   0  0  0  0  0  3  0  0  0  0  0  0
   34.5560   28.8270   36.4320 O   0  0  0  0  0  0  0  0  0  0  0  0
   36.7070   29.3460   37.2670 N   0  0  0  0  0  1  0  0  0  0  0  0
   35.7900   29.0150   37.5880 H   0  0  0  0  0  0  0  0  0  0  0  0
  1  2  1  0  0  0  0
  2  3  2  0  0  0  0
  2  7  1  0  0  0  0
  3  8  1  0  0  0  0
  4  9  1  0  0  0  0
  4  3  1  0  0  0  0
  5  4  2  0  0  0  0
  6  5  1  0  0  0  0
  6  1  2  0  0  0  0
 10  5  1  0  0  0  0
 11 17  1  0  0  0  0
 11 12  1  0  0  0  0
 12 18  1  0  0  0  0
 13 12  2  0  0  0  0
 13  1  1  0  0  0  0
 14 13  1  0  0  0  0
 15 16  1  0  0  0  0
 15 14  2  0  0  0  0
 16 11  2  0  0  0  0
 19 15  1  0  0  0  0
 20 21  2  0  0  0  0
 20 22  1  0  0  0  0
 22  6  1  0  0  0  0
 23 22  1  0  0  0  0
 24 25  1  0  0  0  0
 25 26  2  0  0  0  0
 27 28  1  0  0  0  0
M  END
>  <minimizedAffinity>
-4.78048754

$$$$

 OpenBabel03242517013D

 28 27  0  0  0  0  0  0  0  0999 V2000
   37.3460   31.8510   39.8900 C   0  0  0  0  0  0  0  0  0  0  0  0
   37.1160   33.0750   39.2900 C   0  0  0  0  0  0  0  0  0  0  0  0
   37.8980   34.1610   39.6630 C   0  0  0  0  0  0  0  0  0  0  0  0
   38.8720   34.0100   40.6060 C   0  0  0  0  0  0  0  0  0  0  0  0
   39.1350   32.8260   41.2240 C   0  0  0  0  0  0  0  0  0  0  0  0
   38.3280   31.7570   40.8220 C   0  0  0  0  0  0  0  0  0  0  0  0
   36.3310   33.1770   38.5360 H   0  0  0  0  0  0  0  0  0  0  0  0
   37.6750   35.0910   39.1630 H   0  0  0  0  0  0  0  0  0  0  0  0
   39.4390   34.9020   40.8440 H   0  0  0  0  0  0  0  0  0  0  0  0
   39.9060   32.7020   41.9710 H   0  0  0  0  0  0  0  0  0  0  0  0
   35.5900   29.1630   37.9270 C   0  0  0  0  0  0  0  0  0  0  0  0
   36.4660   30.2500   38.1950 C   0  0  0  0  0  0  0  0  0  0  0  0
   36.5030   30.7470   39.4710 C   0  0  0  0  0  0  0  0  0  0  0  0
   35.6940   30.1690   40.4190 N   0  0  0  0  0  0  0  0  0  0  0  0
   34.8690   29.1390   40.1520 C   0  0  0  0  0  0  0  0  0  0  0  0
   34.8150   28.6280   38.8870 N   0  0  0  0  0  0  0  0  0  0  0  0
   35.5530   28.7660   36.9330 H   0  0  0  0  0  0  0  0  0  0  0  0
   37.0830   30.6820   37.4480 H   0  0  0  0  0  0  0  0  0  0  0  0
   34.2960   28.7900   40.9890 H   0  0  0  0  0  0  0  0  0  0  0  0
   39.4140   29.7930   42.2250 C   0  0  0  0  0  3  0  0  0  0  0  0
   40.4540   30.3360   42.6770 O   0  0  0  0  0  0  0  0  0  0  0  0
   38.4970   30.4660   41.3840 N   0  0  0  0  0  0  0  0  0  0  0  0
   37.7600   29.7780   41.1350 H   0  0  0  0  0  0  0  0  0  0  0  0
   40.0700   26.6470   43.4500 H   0  0  0  0  0  0  0  0  0  0  0  0
   40.2740   27.6920   43.1690 C   0  0  0  0  0  3  0  0  0  0  0  0
   41.4060   28.1790   43.3490 O   0  0  0  0  0  0  0  0  0  0  0  0
   39.1720   28.4060   42.6050 N   0  0  0  0  0  1  0  0  0  0  0  0
   40.0390   28.9490   42.6880 H   0  0  0  0  0  0  0  0  0  0  0  0
  1  6  1  0  0  0  0
  2  3  1  0  0  0  0
  2  1  2  0  0  0  0
  3  4  2  0  0  0  0
  4  9  1  0  0  0  0
  4  5  1  0  0  0  0
  5 10  1  0  0  0  0
  6  5  2  0  0  0  0
  6 22  1  0  0  0  0
  7  2  1  0  0  0  0
  8  3  1  0  0  0  0
 11 12  2  0  0  0  0
 11 16  1  0  0  0  0
 12 13  1  0  0  0  0
 13  1  1  0  0  0  0
 13 14  2  0  0  0  0
 15 14  1  0  0  0  0
 15 19  1  0  0  0  0
 16 15  2  0  0  0  0
 17 11  1  0  0  0  0
 18 12  1  0  0  0  0
 20 21  2  0  0  0  0
 22 20  1  0  0  0  0
 23 22  1  0  0  0  0
 25 26  2  0  0  0  0
 25 24  1  0  0  0  0
 27 28  1  0  0  0  0
M  END
>  <minimizedAffinity>
-4.76043463

$$$$

 OpenBabel03242517013D

 28 27  0  0  0  0  0  0  0  0999 V2000
   36.1740   29.6410   38.0010 C   0  0  0  0  0  0  0  0  0  0  0  0
   35.6860   29.4420   36.7240 C   0  0  0  0  0  0  0  0  0  0  0  0
   34.3910   28.9640   36.5680 C   0  0  0  0  0  0  0  0  0  0  0  0
   33.6240   28.6990   37.6650 C   0  0  0  0  0  0  0  0  0  0  0  0
   34.0610   28.8790   38.9410 C   0  0  0  0  0  0  0  0  0  0  0  0
   35.3690   29.3610   39.0570 C   0  0  0  0  0  0  0  0  0  0  0  0
   36.3150   29.6590   35.8560 H   0  0  0  0  0  0  0  0  0  0  0  0
   34.0630   28.8280   35.5490 H   0  0  0  0  0  0  0  0  0  0  0  0
   32.6260   28.3290   37.4630 H   0  0  0  0  0  0  0  0  0  0  0  0
   33.4570   28.6710   39.8130 H   0  0  0  0  0  0  0  0  0  0  0  0
   39.2720   31.7780   38.0070 C   0  0  0  0  0  0  0  0  0  0  0  0
   37.9020   31.4310   37.8550 C   0  0  0  0  0  0  0  0  0  0  0  0
   37.5330   30.1380   38.1150 C   0  0  0  0  0  0  0  0  0  0  0  0
   38.5040   29.2490   38.5070 N   0  0  0  0  0  0  0  0  0  0  0  0
   39.7990   29.5910   38.6470 C   0  0  0  0  0  0  0  0  0  0  0  0
   40.1900   30.8740   38.3930 N   0  0  0  0  0  0  0  0  0  0  0  0
   39.5720   32.7860   37.8070 H   0  0  0  0  0  0  0  0  0  0  0  0
   37.1660   32.1320   37.5510 H   0  0  0  0  0  0  0  0  0  0  0  0
   40.4460   28.7930   38.9590 H   0  0  0  0  0  0  0  0  0  0  0  0
   36.5860   28.8540   41.3520 C   0  0  0  0  0  3  0  0  0  0  0  0
   36.7500   27.6090   41.2940 O   0  0  0  0  0  0  0  0  0  0  0  0
   35.9480   29.5950   40.3310 N   0  0  0  0  0  0  0  0  0  0  0  0
   35.9180   30.5830   40.6520 H   0  0  0  0  0  0  0  0  0  0  0  0
   37.8000   29.2440   44.5460 H   0  0  0  0  0  0  0  0  0  0  0  0
   37.4200   28.7110   43.6600 C   0  0  0  0  0  3  0  0  0  0  0  0
   37.3010   27.4720   43.6780 O   0  0  0  0  0  0  0  0  0  0  0  0
   37.0920   29.5340   42.5390 N   0  0  0  0  0  1  0  0  0  0  0  0
   36.9370   28.5290   42.3960 H   0  0  0  0  0  0  0  0  0  0  0  0
  1 13  1  0  0  0  0
  1  6  1  0  0  0  0
  2  1  2  0  0  0  0
  3  2  1  0  0  0  0
  3  4  2  0  0  0  0
  4  5  1  0  0  0  0
  5  6  2  0  0  0  0
  5 10  1  0  0  0  0
  6 22  1  0  0  0  0
  7  2  1  0  0  0  0
  8  3  1  0  0  0  0
  9  4  1  0  0  0  0
 11 16  1  0  0  0  0
 12 11  2  0  0  0  0
 12 13  1  0  0  0  0
 13 14  2  0  0  0  0
 14 15  1  0  0  0  0
 15 19  1  0  0  0  0
 16 15  2  0  0  0  0
 17 11  1  0  0  0  0
 18 12  1  0  0  0  0
 21 20  2  0  0  0  0
 22 23  1  0  0  0  0
 22 20  1  0  0  0  0
 25 26  2  0  0  0  0
 25 24  1  0  0  0  0
 28 27  1  0  0  0  0
M  END
>  <minimizedAffinity>
-4.75639725

$$$$
