
 OpenBabel03252509193D

 39 41  0  0  1  0  0  0  0  0999 V2000
   47.8980   29.3410   47.7070 C   0  0  1  0  0  0  0  0  0  0  0  0
   47.8820   28.3810   46.5820 C   0  0  0  0  0  0  0  0  0  0  0  0
   49.1910   27.6800   46.3400 C   0  0  0  0  0  0  0  0  0  0  0  0
   49.8440   27.2050   47.6100 C   0  0  0  0  0  0  0  0  0  0  0  0
   49.8260   28.2490   48.6940 C   0  0  0  0  0  0  0  0  0  0  0  0
   49.3630   29.5920   48.1290 C   0  0  2  0  0  0  0  0  0  0  0  0
   47.4530   28.8480   48.5870 H   0  0  0  0  0  0  0  0  0  0  0  0
   47.6680   28.9520   45.6340 H   0  0  0  0  0  0  0  0  0  0  0  0
   47.0910   27.6240   46.7020 H   0  0  0  0  0  0  0  0  0  0  0  0
   48.9590   26.7850   45.7330 H   0  0  0  0  0  0  0  0  0  0  0  0
   49.8950   28.2860   45.7450 H   0  0  0  0  0  0  0  0  0  0  0  0
   50.8330   26.8050   47.3990 H   0  0  0  0  0  0  0  0  0  0  0  0
   49.2250   26.3380   47.9830 H   0  0  0  0  0  0  0  0  0  0  0  0
   49.1260   27.9890   49.5170 H   0  0  0  0  0  0  0  0  0  0  0  0
   50.8590   28.3730   49.0690 H   0  0  0  0  0  0  0  0  0  0  0  0
   49.9580   29.8640   47.2330 H   0  0  0  0  0  0  0  0  0  0  0  0
   46.1460   32.7220   46.2260 C   0  0  0  0  0  0  0  0  0  0  0  0
   45.8290   32.5070   47.5650 C   0  0  0  0  0  0  0  0  0  0  0  0
   46.3420   31.4280   48.1640 C   0  0  0  0  0  0  0  0  0  0  0  0
   47.1780   30.5430   47.4460 C   0  0  0  0  0  0  0  0  0  0  0  0
   47.2390   31.3000   45.7890 S   0  0  0  0  0  0  0  0  0  0  0  0
   45.1890   33.1930   48.1020 H   0  0  0  0  0  0  0  0  0  0  0  0
   46.2060   31.1050   49.1830 H   0  0  0  0  0  0  0  0  0  0  0  0
   44.5110   35.8060   44.9460 C   0  0  0  0  0  0  0  0  0  0  0  0
   45.0720   35.8930   43.6710 C   0  0  0  0  0  0  0  0  0  0  0  0
   45.9810   34.8920   43.3030 C   0  0  0  0  0  0  0  0  0  0  0  0
   46.2660   33.8950   44.2040 N   0  0  0  0  0  0  0  0  0  0  0  0
   45.6870   33.8740   45.4150 C   0  0  0  0  0  0  0  0  0  0  0  0
   44.8040   34.8320   45.7960 N   0  0  0  0  0  0  0  0  0  0  0  0
   43.7980   36.5730   45.2640 H   0  0  0  0  0  0  0  0  0  0  0  0
   44.8390   36.6840   42.9720 H   0  0  0  0  0  0  0  0  0  0  0  0
   46.4680   34.8710   42.3380 H   0  0  0  0  0  0  0  0  0  0  0  0
   49.4100   30.5990   49.1910 C   0  0  0  0  0  0  0  0  0  0  0  0
   49.0190   30.3730   50.3520 O   0  0  0  0  0  0  0  0  0  0  0  0
   51.0010   33.6670   49.8680 H   0  0  0  0  0  0  0  0  0  0  0  0
   50.9080   32.5780   49.9070 C   0  0  0  0  0  0  0  0  0  0  0  0
   51.7010   31.7840   50.4450 O   0  0  0  0  0  0  0  0  0  0  0  0
   49.8200   31.9230   49.3180 N   0  0  0  0  0  0  0  0  0  0  0  0
   49.1580   32.5600   48.8700 H   0  0  0  0  0  0  0  0  0  0  0  0
  1  6  1  0  0  0  0
  1  7  1  1  0  0  0
  2  9  1  0  0  0  0
  2  1  1  0  0  0  0
  3  2  1  0  0  0  0
  3  4  1  0  0  0  0
  4 13  1  0  0  0  0
  4  5  1  0  0  0  0
  5 15  1  0  0  0  0
  5 14  1  0  0  0  0
  6 16  1  6  0  0  0
  6  5  1  0  0  0  0
  6 33  1  0  0  0  0
  8  2  1  0  0  0  0
 10  3  1  0  0  0  0
 11  3  1  0  0  0  0
 12  4  1  0  0  0  0
 17 18  2  0  0  0  0
 18 22  1  0  0  0  0
 18 19  1  0  0  0  0
 19 23  1  0  0  0  0
 20  1  1  0  0  0  0
 20 19  2  0  0  0  0
 21 17  1  0  0  0  0
 21 20  1  0  0  0  0
 24 30  1  0  0  0  0
 24 29  1  0  0  0  0
 25 24  2  0  0  0  0
 26 25  1  0  0  0  0
 26 27  2  0  0  0  0
 27 28  1  0  0  0  0
 28 29  2  0  0  0  0
 28 17  1  0  0  0  0
 31 25  1  0  0  0  0
 32 26  1  0  0  0  0
 33 38  1  0  0  0  0
 33 34  2  0  0  0  0
 35 36  1  0  0  0  0
 36 37  2  0  0  0  0
 38 36  1  0  0  0  0
 39 38  1  0  0  0  0
M  END
>  <minimizedAffinity>
-5.19798136

>  <minimizedRMSD>
1.10076833

$$$$
