
 OpenBabel03252508063D

 36 38  0  0  0  0  0  0  0  0999 V2000
   39.5540   29.6710   38.1320 C   0  0  0  0  0  0  0  0  0  0  0  0
   38.7390   29.3650   39.2230 C   0  0  0  0  0  0  0  0  0  0  0  0
   39.2160   28.5130   40.2030 C   0  0  0  0  0  0  0  0  0  0  0  0
   40.4850   28.0130   40.0590 N   0  0  0  0  0  0  0  0  0  0  0  0
   41.2510   28.3210   39.0050 C   0  0  0  0  0  0  0  0  0  0  0  0
   40.7750   29.1470   38.0520 N   0  0  0  0  0  0  0  0  0  0  0  0
   39.2150   30.3340   37.3370 H   0  0  0  0  0  0  0  0  0  0  0  0
   42.2550   27.8970   38.9350 H   0  0  0  0  0  0  0  0  0  0  0  0
   38.4870   28.1210   41.3610 C   0  0  0  0  0  0  0  0  0  0  0  0
   38.3820   28.8550   42.5330 C   0  0  0  0  0  0  0  0  0  0  0  0
   37.7440   28.4090   43.6640 C   0  0  0  0  0  0  0  0  0  0  0  0
   37.1620   27.1600   43.6790 C   0  0  0  0  0  0  0  0  0  0  0  0
   37.2580   26.3940   42.4880 C   0  0  0  0  0  0  0  0  0  0  0  0
   36.6840   25.1530   42.4960 C   0  0  0  0  0  0  0  0  0  0  0  0
   36.7330   24.3510   41.3670 C   0  0  0  0  0  0  0  0  0  0  0  0
   37.3720   24.8230   40.2180 C   0  0  0  0  0  0  0  0  0  0  0  0
   37.9530   26.1040   40.2460 C   0  0  0  0  0  0  0  0  0  0  0  0
   37.8950   26.8740   41.3870 C   0  0  0  0  0  0  0  0  0  0  0  0
   38.8020   29.8120   42.6140 H   0  0  0  0  0  0  0  0  0  0  0  0
   37.6650   28.9870   44.5700 H   0  0  0  0  0  0  0  0  0  0  0  0
   36.6540   26.7760   44.5530 H   0  0  0  0  0  0  0  0  0  0  0  0
   36.1900   24.8150   43.4080 H   0  0  0  0  0  0  0  0  0  0  0  0
   36.2430   23.3780   41.4920 H   0  0  0  0  0  0  0  0  0  0  0  0
   37.3090   24.0790   39.4540 H   0  0  0  0  0  0  0  0  0  0  0  0
   38.3110   26.2080   39.2730 H   0  0  0  0  0  0  0  0  0  0  0  0
   37.5080   29.9460   39.2550 O   0  0  0  0  0  0  0  0  0  0  0  0
   36.8700   32.4730   38.9100 O   0  0  0  0  0  0  0  0  0  0  0  0
   37.2030   31.4670   39.9610 P   0  0  1  0  0  0  0  0  0  0  0  0
   35.8710   31.3860   41.0050 O   0  0  0  0  0  0  0  0  0  0  0  0
   35.0140   31.5630   40.5550 H   0  0  0  0  0  0  0  0  0  0  0  0
   38.5460   31.9360   40.8340 O   0  0  0  0  0  0  0  0  0  0  0  0
   39.3400   33.0490   40.6020 C   0  0  0  0  0  0  0  0  0  0  0  0
   40.1560   32.6780   39.7370 O   0  0  0  0  0  0  0  0  0  0  0  0
   38.9220   34.1600   41.4260 N   0  0  0  0  0  0  0  0  0  0  0  0
   39.4650   34.3850   42.2940 H   0  0  0  0  0  0  0  0  0  0  0  0
   38.0650   34.6940   41.0930 H   0  0  0  0  0  0  0  0  0  0  0  0
  1  2  1  0  0  0  0
  2 26  1  0  0  0  0
  2  3  2  0  0  0  0
  3  9  1  0  0  0  0
  4  3  1  0  0  0  0
  5  4  2  0  0  0  0
  6  1  2  0  0  0  0
  6  5  1  0  0  0  0
  7  1  1  0  0  0  0
  8  5  1  0  0  0  0
  9 18  2  0  0  0  0
  9 10  1  0  0  0  0
 10 19  1  0  0  0  0
 10 11  2  0  0  0  0
 11 12  1  0  0  0  0
 11 20  1  0  0  0  0
 12 21  1  0  0  0  0
 13 14  1  0  0  0  0
 13 12  2  0  0  0  0
 14 22  1  0  0  0  0
 15 23  1  0  0  0  0
 15 14  2  0  0  0  0
 16 17  2  0  0  0  0
 16 15  1  0  0  0  0
 17 18  1  0  0  0  0
 18 13  1  0  0  0  0
 24 16  1  0  0  0  0
 25 17  1  0  0  0  0
 26 28  1  0  0  0  0
 28 27  2  6  0  0  0
 28 31  1  0  0  0  0
 28 29  1  0  0  0  0
 30 29  1  0  0  0  0
 32 31  1  0  0  0  0
 32 34  1  0  0  0  0
 33 32  2  0  0  0  0
 34 35  1  0  0  0  0
 36 34  1  0  0  0  0
M  END
>  <minimizedAffinity>
-6.00131226

$$$$

 OpenBabel03252508063D

 36 38  0  0  0  0  0  0  0  0999 V2000
   38.0750   30.2010   37.8100 C   0  0  0  0  0  0  0  0  0  0  0  0
   38.2140   29.6510   39.0850 C   0  0  0  0  0  0  0  0  0  0  0  0
   37.0990   29.1360   39.7220 C   0  0  0  0  0  0  0  0  0  0  0  0
   35.9000   29.1810   39.0560 N   0  0  0  0  0  0  0  0  0  0  0  0
   35.7900   29.7120   37.8320 C   0  0  0  0  0  0  0  0  0  0  0  0
   36.8810   30.2180   37.2230 N   0  0  0  0  0  0  0  0  0  0  0  0
   38.9270   30.6210   37.2760 H   0  0  0  0  0  0  0  0  0  0  0  0
   34.8130   29.7250   37.3440 H   0  0  0  0  0  0  0  0  0  0  0  0
   37.1030   28.5500   41.0190 C   0  0  0  0  0  0  0  0  0  0  0  0
   37.2780   29.2370   42.2110 C   0  0  0  0  0  0  0  0  0  0  0  0
   37.3630   28.6310   43.4400 C   0  0  0  0  0  0  0  0  0  0  0  0
   37.2800   27.2590   43.5390 C   0  0  0  0  0  0  0  0  0  0  0  0
   37.1000   26.5390   42.3300 C   0  0  0  0  0  0  0  0  0  0  0  0
   37.0180   25.1780   42.4210 C   0  0  0  0  0  0  0  0  0  0  0  0
   36.8360   24.4090   41.2810 C   0  0  0  0  0  0  0  0  0  0  0  0
   36.7350   25.0400   40.0380 C   0  0  0  0  0  0  0  0  0  0  0  0
   36.8260   26.4420   39.9820 C   0  0  0  0  0  0  0  0  0  0  0  0
   37.0150   27.1770   41.1330 C   0  0  0  0  0  0  0  0  0  0  0  0
   37.3580   30.2820   42.2300 H   0  0  0  0  0  0  0  0  0  0  0  0
   37.4970   29.1730   44.3630 H   0  0  0  0  0  0  0  0  0  0  0  0
   37.3470   26.7490   44.4910 H   0  0  0  0  0  0  0  0  0  0  0  0
   37.0990   24.7160   43.4060 H   0  0  0  0  0  0  0  0  0  0  0  0
   36.7890   23.3310   41.4760 H   0  0  0  0  0  0  0  0  0  0  0  0
   36.5950   24.2970   39.2830 H   0  0  0  0  0  0  0  0  0  0  0  0
   36.6800   26.6350   38.9700 H   0  0  0  0  0  0  0  0  0  0  0  0
   39.4640   29.6490   39.6240 O   0  0  0  0  0  0  0  0  0  0  0  0
   41.3210   30.6590   41.1870 O   0  0  0  0  0  0  0  0  0  0  0  0
   40.2160   31.0400   40.2600 P   0  0  1  0  0  0  0  0  0  0  0  0
   40.9090   31.9670   39.0230 O   0  0  0  0  0  0  0  0  0  0  0  0
   41.8370   31.7100   38.8200 H   0  0  0  0  0  0  0  0  0  0  0  0
   39.0680   31.9620   41.0460 O   0  0  0  0  0  0  0  0  0  0  0  0
   38.3870   33.0560   40.5330 C   0  0  0  0  0  0  0  0  0  0  0  0
   39.2620   33.9310   40.3890 O   0  0  0  0  0  0  0  0  0  0  0  0
   36.9820   32.7590   40.3730 N   0  0  0  0  0  0  0  0  0  0  0  0
   36.3010   33.1100   41.0880 H   0  0  0  0  0  0  0  0  0  0  0  0
   36.7200   32.1850   39.5160 H   0  0  0  0  0  0  0  0  0  0  0  0
  1  2  1  0  0  0  0
  2 26  1  0  0  0  0
  2  3  2  0  0  0  0
  3  9  1  0  0  0  0
  4  3  1  0  0  0  0
  5  4  2  0  0  0  0
  6  1  2  0  0  0  0
  6  5  1  0  0  0  0
  7  1  1  0  0  0  0
  8  5  1  0  0  0  0
  9 18  2  0  0  0  0
  9 10  1  0  0  0  0
 10 19  1  0  0  0  0
 10 11  2  0  0  0  0
 11 12  1  0  0  0  0
 11 20  1  0  0  0  0
 12 21  1  0  0  0  0
 13 14  1  0  0  0  0
 13 12  2  0  0  0  0
 14 22  1  0  0  0  0
 15 23  1  0  0  0  0
 15 14  2  0  0  0  0
 16 15  1  0  0  0  0
 17 16  2  0  0  0  0
 17 18  1  0  0  0  0
 18 13  1  0  0  0  0
 24 16  1  0  0  0  0
 25 17  1  0  0  0  0
 26 28  1  0  0  0  0
 28 31  1  0  0  0  0
 28 27  2  1  0  0  0
 29 28  1  0  0  0  0
 30 29  1  0  0  0  0
 32 31  1  0  0  0  0
 33 32  2  0  0  0  0
 34 32  1  0  0  0  0
 34 35  1  0  0  0  0
 36 34  1  0  0  0  0
M  END
>  <minimizedAffinity>
-5.95137024

$$$$

 OpenBabel03252508063D

 36 38  0  0  0  0  0  0  0  0999 V2000
   37.4690   29.7660   37.2660 C   0  0  0  0  0  0  0  0  0  0  0  0
   37.7490   29.3340   38.5630 C   0  0  0  0  0  0  0  0  0  0  0  0
   36.7130   28.8870   39.3630 C   0  0  0  0  0  0  0  0  0  0  0  0
   35.4470   28.8810   38.8330 N   0  0  0  0  0  0  0  0  0  0  0  0
   35.2020   29.2980   37.5850 C   0  0  0  0  0  0  0  0  0  0  0  0
   36.2170   29.7380   36.8150 N   0  0  0  0  0  0  0  0  0  0  0  0
   38.2560   30.1280   36.6060 H   0  0  0  0  0  0  0  0  0  0  0  0
   34.1770   29.2740   37.2080 H   0  0  0  0  0  0  0  0  0  0  0  0
   36.8620   28.4230   40.7000 C   0  0  0  0  0  0  0  0  0  0  0  0
   37.0850   29.2240   41.8110 C   0  0  0  0  0  0  0  0  0  0  0  0
   37.3110   28.7380   43.0750 C   0  0  0  0  0  0  0  0  0  0  0  0
   37.3290   27.3780   43.2970 C   0  0  0  0  0  0  0  0  0  0  0  0
   37.1010   26.5420   42.1730 C   0  0  0  0  0  0  0  0  0  0  0  0
   37.1190   25.1920   42.3860 C   0  0  0  0  0  0  0  0  0  0  0  0
   36.8980   24.3140   41.3360 C   0  0  0  0  0  0  0  0  0  0  0  0
   36.6540   24.8220   40.0580 C   0  0  0  0  0  0  0  0  0  0  0  0
   36.6440   26.2170   39.8750 C   0  0  0  0  0  0  0  0  0  0  0  0
   36.8760   27.0630   40.9380 C   0  0  0  0  0  0  0  0  0  0  0  0
   37.0960   30.2690   41.7330 H   0  0  0  0  0  0  0  0  0  0  0  0
   37.4820   29.3680   43.9330 H   0  0  0  0  0  0  0  0  0  0  0  0
   37.5070   26.9610   44.2790 H   0  0  0  0  0  0  0  0  0  0  0  0
   37.3100   24.8270   43.3970 H   0  0  0  0  0  0  0  0  0  0  0  0
   36.9390   23.2570   41.6250 H   0  0  0  0  0  0  0  0  0  0  0  0
   36.5040   24.0070   39.3830 H   0  0  0  0  0  0  0  0  0  0  0  0
   36.4040   26.3080   38.8660 H   0  0  0  0  0  0  0  0  0  0  0  0
   39.0510   29.3720   38.9590 O   0  0  0  0  0  0  0  0  0  0  0  0
   38.8380   31.9040   39.6360 O   0  0  0  0  0  0  0  0  0  0  0  0
   39.8070   30.7700   39.5750 P   0  0  1  0  0  0  0  0  0  0  0  0
   40.3560   30.5070   41.1560 O   0  0  0  0  0  0  0  0  0  0  0  0
   39.6820   30.7210   41.8410 H   0  0  0  0  0  0  0  0  0  0  0  0
   41.1120   31.1490   38.6070 O   0  0  0  0  0  0  0  0  0  0  0  0
   41.0830   31.4410   37.2510 C   0  0  0  0  0  0  0  0  0  0  0  0
   42.0280   30.7850   36.7700 O   0  0  0  0  0  0  0  0  0  0  0  0
   40.0090   32.3560   36.9430 N   0  0  0  0  0  0  0  0  0  0  0  0
   40.2280   33.3710   36.8020 H   0  0  0  0  0  0  0  0  0  0  0  0
   39.0360   31.9310   36.8790 H   0  0  0  0  0  0  0  0  0  0  0  0
  1  2  1  0  0  0  0
  2 26  1  0  0  0  0
  2  3  2  0  0  0  0
  3  9  1  0  0  0  0
  4  3  1  0  0  0  0
  5  4  2  0  0  0  0
  6  1  2  0  0  0  0
  6  5  1  0  0  0  0
  7  1  1  0  0  0  0
  8  5  1  0  0  0  0
  9 18  2  0  0  0  0
  9 10  1  0  0  0  0
 10 11  2  0  0  0  0
 11 12  1  0  0  0  0
 11 20  1  0  0  0  0
 12 21  1  0  0  0  0
 13 14  1  0  0  0  0
 13 12  2  0  0  0  0
 14 22  1  0  0  0  0
 15 23  1  0  0  0  0
 15 14  2  0  0  0  0
 16 15  1  0  0  0  0
 17 16  2  0  0  0  0
 17 18  1  0  0  0  0
 18 13  1  0  0  0  0
 19 10  1  0  0  0  0
 24 16  1  0  0  0  0
 25 17  1  0  0  0  0
 26 28  1  0  0  0  0
 28 27  2  6  0  0  0
 28 29  1  0  0  0  0
 29 30  1  0  0  0  0
 31 28  1  0  0  0  0
 32 31  1  0  0  0  0
 33 32  2  0  0  0  0
 34 32  1  0  0  0  0
 35 34  1  0  0  0  0
 36 34  1  0  0  0  0
M  END
>  <minimizedAffinity>
-5.77737999

$$$$

 OpenBabel03252508063D

 36 38  0  0  0  0  0  0  0  0999 V2000
   42.3210   29.0430   40.6910 C   0  0  0  0  0  0  0  0  0  0  0  0
   40.9640   28.8270   40.9380 C   0  0  0  0  0  0  0  0  0  0  0  0
   40.5850   28.2010   42.1120 C   0  0  0  0  0  0  0  0  0  0  0  0
   41.5700   27.8290   42.9910 N   0  0  0  0  0  0  0  0  0  0  0  0
   42.8660   28.0480   42.7350 C   0  0  0  0  0  0  0  0  0  0  0  0
   43.2260   28.6520   41.5850 N   0  0  0  0  0  0  0  0  0  0  0  0
   42.6620   29.5280   39.7780 H   0  0  0  0  0  0  0  0  0  0  0  0
   43.6140   27.7330   43.4660 H   0  0  0  0  0  0  0  0  0  0  0  0
   39.2400   27.9210   42.4830 C   0  0  0  0  0  0  0  0  0  0  0  0
   38.4180   28.7560   43.2260 C   0  0  0  0  0  0  0  0  0  0  0  0
   37.1540   28.4180   43.6410 C   0  0  0  0  0  0  0  0  0  0  0  0
   36.6330   27.1820   43.3260 C   0  0  0  0  0  0  0  0  0  0  0  0
   37.4580   26.3140   42.5650 C   0  0  0  0  0  0  0  0  0  0  0  0
   36.9470   25.0860   42.2490 C   0  0  0  0  0  0  0  0  0  0  0  0
   37.6940   24.1870   41.5030 C   0  0  0  0  0  0  0  0  0  0  0  0
   38.9730   24.5490   41.0740 C   0  0  0  0  0  0  0  0  0  0  0  0
   39.4670   25.8210   41.4180 C   0  0  0  0  0  0  0  0  0  0  0  0
   38.7030   26.6880   42.1680 C   0  0  0  0  0  0  0  0  0  0  0  0
   38.7360   29.7110   43.5170 H   0  0  0  0  0  0  0  0  0  0  0  0
   36.5210   29.0750   44.2170 H   0  0  0  0  0  0  0  0  0  0  0  0
   35.6410   26.8830   43.6390 H   0  0  0  0  0  0  0  0  0  0  0  0
   35.9440   24.8340   42.5980 H   0  0  0  0  0  0  0  0  0  0  0  0
   37.1840   23.2340   41.3150 H   0  0  0  0  0  0  0  0  0  0  0  0
   39.3930   23.7420   40.5150 H   0  0  0  0  0  0  0  0  0  0  0  0
   40.3950   25.8350   40.9460 H   0  0  0  0  0  0  0  0  0  0  0  0
   40.0880   29.2640   39.9930 O   0  0  0  0  0  0  0  0  0  0  0  0
   39.8750   31.6020   41.1780 O   0  0  0  0  0  0  0  0  0  0  0  0
   39.3710   30.8100   40.0180 P   0  0  1  0  0  0  0  0  0  0  0  0
   39.7700   31.6790   38.6190 O   0  0  0  0  0  0  0  0  0  0  0  0
   40.6010   32.1990   38.7100 H   0  0  0  0  0  0  0  0  0  0  0  0
   37.7120   30.6350   40.0890 O   0  0  0  0  0  0  0  0  0  0  0  0
   36.8050   31.5290   40.6380 C   0  0  0  0  0  0  0  0  0  0  0  0
   36.0030   30.8140   41.2680 O   0  0  0  0  0  0  0  0  0  0  0  0
   37.1380   32.8880   40.2760 N   0  0  0  0  0  0  0  0  0  0  0  0
   36.6030   33.3560   39.5050 H   0  0  0  0  0  0  0  0  0  0  0  0
   37.9260   33.3400   40.8270 H   0  0  0  0  0  0  0  0  0  0  0  0
  1  2  2  0  0  0  0
  1  6  1  0  0  0  0
  2  3  1  0  0  0  0
  3  9  1  0  0  0  0
  3  4  2  0  0  0  0
  5  4  1  0  0  0  0
  5  8  1  0  0  0  0
  6  5  2  0  0  0  0
  7  1  1  0  0  0  0
  9 10  1  0  0  0  0
 10 19  1  0  0  0  0
 10 11  2  0  0  0  0
 11 20  1  0  0  0  0
 12 21  1  0  0  0  0
 12 11  1  0  0  0  0
 13 12  2  0  0  0  0
 14 13  1  0  0  0  0
 14 22  1  0  0  0  0
 15 14  2  0  0  0  0
 16 17  2  0  0  0  0
 16 15  1  0  0  0  0
 17 18  1  0  0  0  0
 18  9  2  0  0  0  0
 18 13  1  0  0  0  0
 23 15  1  0  0  0  0
 24 16  1  0  0  0  0
 25 17  1  0  0  0  0
 26 28  1  0  0  0  0
 26  2  1  0  0  0  0
 28 31  1  0  0  0  0
 28 27  2  1  0  0  0
 29 30  1  0  0  0  0
 29 28  1  0  0  0  0
 31 32  1  0  0  0  0
 32 33  2  0  0  0  0
 34 32  1  0  0  0  0
 34 36  1  0  0  0  0
 35 34  1  0  0  0  0
M  END
>  <minimizedAffinity>
-5.67562294

$$$$

 OpenBabel03252508063D

 36 38  0  0  0  0  0  0  0  0999 V2000
   35.3270   29.2810   38.1440 C   0  0  0  0  0  0  0  0  0  0  0  0
   35.9100   29.2330   39.4120 C   0  0  0  0  0  0  0  0  0  0  0  0
   36.3590   28.0200   39.9010 C   0  0  0  0  0  0  0  0  0  0  0  0
   36.2180   26.9120   39.1030 N   0  0  0  0  0  0  0  0  0  0  0  0
   35.6580   26.9820   37.8890 C   0  0  0  0  0  0  0  0  0  0  0  0
   35.2160   28.1680   37.4240 N   0  0  0  0  0  0  0  0  0  0  0  0
   34.9560   30.2160   37.7250 H   0  0  0  0  0  0  0  0  0  0  0  0
   35.5680   26.0720   37.2920 H   0  0  0  0  0  0  0  0  0  0  0  0
   36.9680   27.8330   41.1730 C   0  0  0  0  0  0  0  0  0  0  0  0
   36.2930   27.7030   42.3780 C   0  0  0  0  0  0  0  0  0  0  0  0
   36.9140   27.6110   43.5990 C   0  0  0  0  0  0  0  0  0  0  0  0
   38.2890   27.6520   43.6780 C   0  0  0  0  0  0  0  0  0  0  0  0
   38.9970   27.7840   42.4560 C   0  0  0  0  0  0  0  0  0  0  0  0
   40.3620   27.8260   42.5270 C   0  0  0  0  0  0  0  0  0  0  0  0
   41.1210   27.9480   41.3730 C   0  0  0  0  0  0  0  0  0  0  0  0
   40.4770   28.0240   40.1350 C   0  0  0  0  0  0  0  0  0  0  0  0
   39.0710   27.9790   40.1000 C   0  0  0  0  0  0  0  0  0  0  0  0
   38.3460   27.8660   41.2660 C   0  0  0  0  0  0  0  0  0  0  0  0
   35.2470   27.6700   42.4130 H   0  0  0  0  0  0  0  0  0  0  0  0
   36.3810   27.5080   44.5320 H   0  0  0  0  0  0  0  0  0  0  0  0
   38.8090   27.5850   44.6250 H   0  0  0  0  0  0  0  0  0  0  0  0
   40.8340   27.7610   43.5090 H   0  0  0  0  0  0  0  0  0  0  0  0
   42.2020   27.9740   41.5530 H   0  0  0  0  0  0  0  0  0  0  0  0
   41.2130   28.1100   39.3660 H   0  0  0  0  0  0  0  0  0  0  0  0
   38.8730   28.0130   39.0790 H   0  0  0  0  0  0  0  0  0  0  0  0
   36.0070   30.4090   40.0910 O   0  0  0  0  0  0  0  0  0  0  0  0
   37.8440   31.4330   38.5130 O   0  0  0  0  0  0  0  0  0  0  0  0
   37.3030   31.5000   39.9020 P   0  0  1  0  0  0  0  0  0  0  0  0
   36.7860   33.0930   40.1540 O   0  0  0  0  0  0  0  0  0  0  0  0
   36.4630   33.5300   39.3330 H   0  0  0  0  0  0  0  0  0  0  0  0
   38.4850   31.1330   41.0220 O   0  0  0  0  0  0  0  0  0  0  0  0
   39.4490   31.9940   41.5250 C   0  0  0  0  0  0  0  0  0  0  0  0
   39.4550   32.9550   40.7310 O   0  0  0  0  0  0  0  0  0  0  0  0
   40.0440   31.4560   42.7260 N   0  0  0  0  0  0  0  0  0  0  0  0
   40.9840   30.9960   42.6700 H   0  0  0  0  0  0  0  0  0  0  0  0
   39.4750   31.5630   43.6180 H   0  0  0  0  0  0  0  0  0  0  0  0
  1  2  1  0  0  0  0
  2  3  2  0  0  0  0
  2 26  1  0  0  0  0
  3  9  1  0  0  0  0
  4  3  1  0  0  0  0
  5  4  2  0  0  0  0
  6  5  1  0  0  0  0
  6  1  2  0  0  0  0
  7  1  1  0  0  0  0
  8  5  1  0  0  0  0
  9 18  2  0  0  0  0
  9 10  1  0  0  0  0
 10 19  1  0  0  0  0
 10 11  2  0  0  0  0
 11 12  1  0  0  0  0
 11 20  1  0  0  0  0
 12 21  1  0  0  0  0
 13 14  1  0  0  0  0
 13 12  2  0  0  0  0
 14 22  1  0  0  0  0
 15 23  1  0  0  0  0
 15 14  2  0  0  0  0
 16 15  1  0  0  0  0
 17 16  2  0  0  0  0
 17 18  1  0  0  0  0
 18 13  1  0  0  0  0
 24 16  1  0  0  0  0
 25 17  1  0  0  0  0
 28 27  2  6  0  0  0
 28 26  1  0  0  0  0
 28 29  1  0  0  0  0
 28 31  1  0  0  0  0
 30 29  1  0  0  0  0
 31 32  1  0  0  0  0
 32 34  1  0  0  0  0
 33 32  2  0  0  0  0
 34 36  1  0  0  0  0
 35 34  1  0  0  0  0
M  END
>  <minimizedAffinity>
-5.58227968

$$$$

 OpenBabel03252508063D

 36 38  0  0  0  0  0  0  0  0999 V2000
   37.2120   29.8110   37.2240 C   0  0  0  0  0  0  0  0  0  0  0  0
   38.0000   29.7270   38.3740 C   0  0  0  0  0  0  0  0  0  0  0  0
   38.3360   28.4800   38.8700 C   0  0  0  0  0  0  0  0  0  0  0  0
   37.8830   27.3750   38.1950 N   0  0  0  0  0  0  0  0  0  0  0  0
   37.1310   27.4790   37.0930 C   0  0  0  0  0  0  0  0  0  0  0  0
   36.8020   28.6980   36.6200 N   0  0  0  0  0  0  0  0  0  0  0  0
   36.9220   30.7730   36.8040 H   0  0  0  0  0  0  0  0  0  0  0  0
   36.7940   26.5690   36.5900 H   0  0  0  0  0  0  0  0  0  0  0  0
   39.1280   28.2560   40.0310 C   0  0  0  0  0  0  0  0  0  0  0  0
   40.5110   28.1440   40.0530 C   0  0  0  0  0  0  0  0  0  0  0  0
   41.2390   27.8410   41.1770 C   0  0  0  0  0  0  0  0  0  0  0  0
   40.5960   27.6240   42.3760 C   0  0  0  0  0  0  0  0  0  0  0  0
   39.1810   27.7360   42.3740 C   0  0  0  0  0  0  0  0  0  0  0  0
   38.5370   27.5210   43.5610 C   0  0  0  0  0  0  0  0  0  0  0  0
   37.1550   27.6190   43.6360 C   0  0  0  0  0  0  0  0  0  0  0  0
   36.4280   27.9430   42.4880 C   0  0  0  0  0  0  0  0  0  0  0  0
   37.1240   28.1560   41.2840 C   0  0  0  0  0  0  0  0  0  0  0  0
   38.4970   28.0430   41.2400 C   0  0  0  0  0  0  0  0  0  0  0  0
   41.0810   28.2850   39.1850 H   0  0  0  0  0  0  0  0  0  0  0  0
   42.3140   27.7580   41.1850 H   0  0  0  0  0  0  0  0  0  0  0  0
   41.1380   27.3810   43.2800 H   0  0  0  0  0  0  0  0  0  0  0  0
   39.1340   27.2730   44.4390 H   0  0  0  0  0  0  0  0  0  0  0  0
   36.7500   27.4230   44.6360 H   0  0  0  0  0  0  0  0  0  0  0  0
   35.3890   27.9780   42.7340 H   0  0  0  0  0  0  0  0  0  0  0  0
   36.3590   28.4140   40.6270 H   0  0  0  0  0  0  0  0  0  0  0  0
   38.4000   30.9010   38.9350 O   0  0  0  0  0  0  0  0  0  0  0  0
   40.9230   31.0400   38.2100 O   0  0  0  0  0  0  0  0  0  0  0  0
   39.6750   31.8500   38.3220 P   0  0  1  0  0  0  0  0  0  0  0  0
   39.3110   32.4110   36.7650 O   0  0  0  0  0  0  0  0  0  0  0  0
   39.5950   31.7930   36.0540 H   0  0  0  0  0  0  0  0  0  0  0  0
   39.9030   33.1620   39.3280 O   0  0  0  0  0  0  0  0  0  0  0  0
   39.8180   33.1720   40.7130 C   0  0  0  0  0  0  0  0  0  0  0  0
   40.7430   32.4260   41.0890 O   0  0  0  0  0  0  0  0  0  0  0  0
   38.7300   34.0130   41.1560 N   0  0  0  0  0  0  0  0  0  0  0  0
   37.8280   33.5680   41.4510 H   0  0  0  0  0  0  0  0  0  0  0  0
   38.9170   35.0600   41.1540 H   0  0  0  0  0  0  0  0  0  0  0  0
  1  2  1  0  0  0  0
  2  3  2  0  0  0  0
  2 26  1  0  0  0  0
  3  9  1  0  0  0  0
  4  3  1  0  0  0  0
  5  4  2  0  0  0  0
  6  5  1  0  0  0  0
  6  1  2  0  0  0  0
  7  1  1  0  0  0  0
  8  5  1  0  0  0  0
  9 10  2  0  0  0  0
  9 18  1  0  0  0  0
 10 11  1  0  0  0  0
 11 20  1  0  0  0  0
 11 12  2  0  0  0  0
 12 21  1  0  0  0  0
 13 12  1  0  0  0  0
 13 14  1  0  0  0  0
 14 15  2  0  0  0  0
 14 22  1  0  0  0  0
 15 23  1  0  0  0  0
 16 24  1  0  0  0  0
 16 15  1  0  0  0  0
 17 16  2  0  0  0  0
 18 17  1  0  0  0  0
 18 13  2  0  0  0  0
 19 10  1  0  0  0  0
 25 17  1  0  0  0  0
 28 27  2  6  0  0  0
 28 26  1  0  0  0  0
 28 31  1  0  0  0  0
 29 28  1  0  0  0  0
 30 29  1  0  0  0  0
 31 32  1  0  0  0  0
 32 33  2  0  0  0  0
 32 34  1  0  0  0  0
 34 35  1  0  0  0  0
 36 34  1  0  0  0  0
M  END
>  <minimizedAffinity>
-5.46736622

$$$$

 OpenBabel03252508063D

 36 38  0  0  0  0  0  0  0  0999 V2000
   36.7880   29.1560   36.8770 C   0  0  0  0  0  0  0  0  0  0  0  0
   37.2340   28.3240   37.9050 C   0  0  0  0  0  0  0  0  0  0  0  0
   36.3070   27.7450   38.7530 C   0  0  0  0  0  0  0  0  0  0  0  0
   34.9790   28.0110   38.5330 N   0  0  0  0  0  0  0  0  0  0  0  0
   34.5730   28.8110   37.5390 C   0  0  0  0  0  0  0  0  0  0  0  0
   35.4850   29.3760   36.7220 N   0  0  0  0  0  0  0  0  0  0  0  0
   37.4860   29.6350   36.1910 H   0  0  0  0  0  0  0  0  0  0  0  0
   33.5050   28.9930   37.4050 H   0  0  0  0  0  0  0  0  0  0  0  0
   36.6280   26.8810   39.8380 C   0  0  0  0  0  0  0  0  0  0  0  0
   36.5920   25.4950   39.8010 C   0  0  0  0  0  0  0  0  0  0  0  0
   36.8240   24.6920   40.8900 C   0  0  0  0  0  0  0  0  0  0  0  0
   37.1080   25.2570   42.1140 C   0  0  0  0  0  0  0  0  0  0  0  0
   37.1500   26.6750   42.1720 C   0  0  0  0  0  0  0  0  0  0  0  0
   37.4310   27.2420   43.3830 C   0  0  0  0  0  0  0  0  0  0  0  0
   37.4950   28.6210   43.5140 C   0  0  0  0  0  0  0  0  0  0  0  0
   37.2720   29.4260   42.3940 C   0  0  0  0  0  0  0  0  0  0  0  0
   36.9850   28.8080   41.1630 C   0  0  0  0  0  0  0  0  0  0  0  0
   36.9200   27.4340   41.0680 C   0  0  0  0  0  0  0  0  0  0  0  0
   36.3760   24.9810   38.9140 H   0  0  0  0  0  0  0  0  0  0  0  0
   36.7960   23.6150   40.8530 H   0  0  0  0  0  0  0  0  0  0  0  0
   37.2930   24.6540   42.9940 H   0  0  0  0  0  0  0  0  0  0  0  0
   37.6020   26.5850   44.2380 H   0  0  0  0  0  0  0  0  0  0  0  0
   37.7240   28.9610   44.5310 H   0  0  0  0  0  0  0  0  0  0  0  0
   37.3650   30.4510   42.6790 H   0  0  0  0  0  0  0  0  0  0  0  0
   36.9080   29.6210   40.5180 H   0  0  0  0  0  0  0  0  0  0  0  0
   38.5770   28.1260   38.0010 O   0  0  0  0  0  0  0  0  0  0  0  0
   40.7520   28.8780   39.2740 O   0  0  0  0  0  0  0  0  0  0  0  0
   39.6890   29.3700   38.3490 P   0  0  1  0  0  0  0  0  0  0  0  0
   40.4670   29.8920   36.9380 O   0  0  0  0  0  0  0  0  0  0  0  0
   41.2880   29.3850   36.7380 H   0  0  0  0  0  0  0  0  0  0  0  0
   38.8650   30.6590   39.0180 O   0  0  0  0  0  0  0  0  0  0  0  0
   39.3990   31.8830   39.3910 C   0  0  0  0  0  0  0  0  0  0  0  0
   39.3410   31.8840   40.6360 O   0  0  0  0  0  0  0  0  0  0  0  0
   39.7960   32.6460   38.2300 N   0  0  0  0  0  0  0  0  0  0  0  0
   39.1730   33.4150   37.8860 H   0  0  0  0  0  0  0  0  0  0  0  0
   40.7220   32.3710   37.7840 H   0  0  0  0  0  0  0  0  0  0  0  0
  1  2  1  0  0  0  0
  2 26  1  0  0  0  0
  2  3  2  0  0  0  0
  3  9  1  0  0  0  0
  4  3  1  0  0  0  0
  5  4  2  0  0  0  0
  6  1  2  0  0  0  0
  6  5  1  0  0  0  0
  7  1  1  0  0  0  0
  8  5  1  0  0  0  0
  9 18  1  0  0  0  0
 10  9  2  0  0  0  0
 10 11  1  0  0  0  0
 11 12  2  0  0  0  0
 12 13  1  0  0  0  0
 12 21  1  0  0  0  0
 13 14  1  0  0  0  0
 14 15  2  0  0  0  0
 14 22  1  0  0  0  0
 15 23  1  0  0  0  0
 16 24  1  0  0  0  0
 16 15  1  0  0  0  0
 17 16  2  0  0  0  0
 18 17  1  0  0  0  0
 18 13  2  0  0  0  0
 19 10  1  0  0  0  0
 20 11  1  0  0  0  0
 25 17  1  0  0  0  0
 26 28  1  0  0  0  0
 28 31  1  0  0  0  0
 28 27  2  1  0  0  0
 29 28  1  0  0  0  0
 30 29  1  0  0  0  0
 31 32  1  0  0  0  0
 32 33  2  0  0  0  0
 34 32  1  0  0  0  0
 35 34  1  0  0  0  0
 36 34  1  0  0  0  0
M  END
>  <minimizedAffinity>
-5.35214996

$$$$

 OpenBabel03252508063D

 36 38  0  0  0  0  0  0  0  0999 V2000
   36.7520   29.5160   37.1000 C   0  0  0  0  0  0  0  0  0  0  0  0
   37.1440   29.1160   38.3780 C   0  0  0  0  0  0  0  0  0  0  0  0
   36.2050   28.5580   39.2270 C   0  0  0  0  0  0  0  0  0  0  0  0
   34.9220   28.4140   38.7620 N   0  0  0  0  0  0  0  0  0  0  0  0
   34.5690   28.8040   37.5310 C   0  0  0  0  0  0  0  0  0  0  0  0
   35.4890   29.3530   36.7130 N   0  0  0  0  0  0  0  0  0  0  0  0
   37.4600   29.9640   36.4030 H   0  0  0  0  0  0  0  0  0  0  0  0
   33.5340   28.6690   37.2070 H   0  0  0  0  0  0  0  0  0  0  0  0
   36.4730   28.1110   40.5510 C   0  0  0  0  0  0  0  0  0  0  0  0
   36.6070   28.9260   41.6650 C   0  0  0  0  0  0  0  0  0  0  0  0
   36.9510   28.4710   42.9130 C   0  0  0  0  0  0  0  0  0  0  0  0
   37.1910   27.1290   43.1150 C   0  0  0  0  0  0  0  0  0  0  0  0
   37.0580   26.2780   41.9870 C   0  0  0  0  0  0  0  0  0  0  0  0
   37.2970   24.9450   42.1790 C   0  0  0  0  0  0  0  0  0  0  0  0
   37.1800   24.0530   41.1240 C   0  0  0  0  0  0  0  0  0  0  0  0
   36.8140   24.5280   39.8630 C   0  0  0  0  0  0  0  0  0  0  0  0
   36.5780   25.9060   39.7010 C   0  0  0  0  0  0  0  0  0  0  0  0
   36.7100   26.7680   40.7680 C   0  0  0  0  0  0  0  0  0  0  0  0
   36.4500   29.9610   41.6020 H   0  0  0  0  0  0  0  0  0  0  0  0
   37.0510   29.1120   43.7750 H   0  0  0  0  0  0  0  0  0  0  0  0
   37.4670   26.7360   44.0840 H   0  0  0  0  0  0  0  0  0  0  0  0
   37.5780   24.6060   43.1770 H   0  0  0  0  0  0  0  0  0  0  0  0
   37.3980   23.0130   41.3970 H   0  0  0  0  0  0  0  0  0  0  0  0
   36.7700   23.7060   39.1820 H   0  0  0  0  0  0  0  0  0  0  0  0
   36.2910   25.9670   38.7020 H   0  0  0  0  0  0  0  0  0  0  0  0
   38.4530   29.2950   38.7070 O   0  0  0  0  0  0  0  0  0  0  0  0
   40.1830   31.2560   38.4280 O   0  0  0  0  0  0  0  0  0  0  0  0
   39.0800   30.7630   39.3040 P   0  0  1  0  0  0  0  0  0  0  0  0
   37.8870   31.9650   39.3150 O   0  0  0  0  0  0  0  0  0  0  0  0
   37.8390   32.4720   38.4730 H   0  0  0  0  0  0  0  0  0  0  0  0
   39.6200   30.5240   40.8650 O   0  0  0  0  0  0  0  0  0  0  0  0
   39.8170   31.4960   41.8340 C   0  0  0  0  0  0  0  0  0  0  0  0
   39.7010   30.8880   42.9160 O   0  0  0  0  0  0  0  0  0  0  0  0
   40.0710   32.7830   41.2290 N   0  0  0  0  0  0  0  0  0  0  0  0
   39.2950   33.4850   41.1780 H   0  0  0  0  0  0  0  0  0  0  0  0
   41.0560   32.9410   40.8600 H   0  0  0  0  0  0  0  0  0  0  0  0
  1  2  1  0  0  0  0
  2 26  1  0  0  0  0
  2  3  2  0  0  0  0
  3  9  1  0  0  0  0
  4  3  1  0  0  0  0
  5  4  2  0  0  0  0
  6  1  2  0  0  0  0
  6  5  1  0  0  0  0
  7  1  1  0  0  0  0
  8  5  1  0  0  0  0
  9 18  2  0  0  0  0
  9 10  1  0  0  0  0
 10 11  2  0  0  0  0
 11 12  1  0  0  0  0
 11 20  1  0  0  0  0
 12 21  1  0  0  0  0
 13 14  1  0  0  0  0
 13 12  2  0  0  0  0
 14 22  1  0  0  0  0
 15 23  1  0  0  0  0
 15 14  2  0  0  0  0
 16 15  1  0  0  0  0
 17 16  2  0  0  0  0
 17 18  1  0  0  0  0
 18 13  1  0  0  0  0
 19 10  1  0  0  0  0
 24 16  1  0  0  0  0
 25 17  1  0  0  0  0
 26 28  1  0  0  0  0
 28 27  2  6  0  0  0
 28 29  1  0  0  0  0
 28 31  1  0  0  0  0
 30 29  1  0  0  0  0
 31 32  1  0  0  0  0
 32 33  2  0  0  0  0
 34 32  1  0  0  0  0
 35 34  1  0  0  0  0
 36 34  1  0  0  0  0
M  END
>  <minimizedAffinity>
-5.34122849

$$$$

 OpenBabel03252508063D

 36 38  0  0  0  0  0  0  0  0999 V2000
   37.9480   31.2600   38.4940 C   0  0  0  0  0  0  0  0  0  0  0  0
   39.0180   30.7600   39.2380 C   0  0  0  0  0  0  0  0  0  0  0  0
   38.9100   30.6980   40.6160 C   0  0  0  0  0  0  0  0  0  0  0  0
   37.7390   31.1260   41.1890 N   0  0  0  0  0  0  0  0  0  0  0  0
   36.7240   31.6000   40.4550 C   0  0  0  0  0  0  0  0  0  0  0  0
   36.8420   31.6630   39.1140 N   0  0  0  0  0  0  0  0  0  0  0  0
   37.9960   31.3290   37.4080 H   0  0  0  0  0  0  0  0  0  0  0  0
   35.8120   31.9300   40.9590 H   0  0  0  0  0  0  0  0  0  0  0  0
   39.9240   30.2130   41.4890 C   0  0  0  0  0  0  0  0  0  0  0  0
   41.1340   30.8400   41.7440 C   0  0  0  0  0  0  0  0  0  0  0  0
   42.1280   30.3020   42.5240 C   0  0  0  0  0  0  0  0  0  0  0  0
   41.9540   29.0650   43.1050 C   0  0  0  0  0  0  0  0  0  0  0  0
   40.7200   28.4080   42.8570 C   0  0  0  0  0  0  0  0  0  0  0  0
   40.5420   27.1790   43.4290 C   0  0  0  0  0  0  0  0  0  0  0  0
   39.3590   26.4810   43.2360 C   0  0  0  0  0  0  0  0  0  0  0  0
   38.3510   27.0470   42.4520 C   0  0  0  0  0  0  0  0  0  0  0  0
   38.5700   28.3120   41.8770 C   0  0  0  0  0  0  0  0  0  0  0  0
   39.7590   28.9770   42.0820 C   0  0  0  0  0  0  0  0  0  0  0  0
   41.3550   31.7800   41.3370 H   0  0  0  0  0  0  0  0  0  0  0  0
   43.0660   30.7970   42.7190 H   0  0  0  0  0  0  0  0  0  0  0  0
   42.7170   28.6100   43.7230 H   0  0  0  0  0  0  0  0  0  0  0  0
   41.3480   26.7670   44.0370 H   0  0  0  0  0  0  0  0  0  0  0  0
   39.3310   25.5080   43.7390 H   0  0  0  0  0  0  0  0  0  0  0  0
   37.5200   26.3760   42.4170 H   0  0  0  0  0  0  0  0  0  0  0  0
   37.6650   28.4990   41.3970 H   0  0  0  0  0  0  0  0  0  0  0  0
   40.1140   30.3490   38.5440 O   0  0  0  0  0  0  0  0  0  0  0  0
   41.9700   30.6200   36.7010 O   0  0  0  0  0  0  0  0  0  0  0  0
   41.0940   31.3980   37.6250 P   0  0  1  0  0  0  0  0  0  0  0  0
   40.1420   32.4150   36.6610 O   0  0  0  0  0  0  0  0  0  0  0  0
   39.9390   32.0330   35.7770 H   0  0  0  0  0  0  0  0  0  0  0  0
   42.0040   32.3350   38.6640 O   0  0  0  0  0  0  0  0  0  0  0  0
   42.5570   33.5780   38.3930 C   0  0  0  0  0  0  0  0  0  0  0  0
   42.5710   34.1610   39.4940 O   0  0  0  0  0  0  0  0  0  0  0  0
   42.8860   33.7010   36.9920 N   0  0  0  0  0  0  0  0  0  0  0  0
   42.2430   34.2360   36.3610 H   0  0  0  0  0  0  0  0  0  0  0  0
   43.7850   33.2260   36.6790 H   0  0  0  0  0  0  0  0  0  0  0  0
  1  6  2  0  0  0  0
  1  2  1  0  0  0  0
  2  3  2  0  0  0  0
  3  4  1  0  0  0  0
  3  9  1  0  0  0  0
  5  8  1  0  0  0  0
  5  4  2  0  0  0  0
  6  5  1  0  0  0  0
  7  1  1  0  0  0  0
  9 10  2  0  0  0  0
  9 18  1  0  0  0  0
 10 11  1  0  0  0  0
 11 20  1  0  0  0  0
 11 12  2  0  0  0  0
 12 21  1  0  0  0  0
 13 12  1  0  0  0  0
 13 14  1  0  0  0  0
 14 22  1  0  0  0  0
 15 14  2  0  0  0  0
 15 23  1  0  0  0  0
 16 15  1  0  0  0  0
 17 18  1  0  0  0  0
 17 16  2  0  0  0  0
 18 13  2  0  0  0  0
 19 10  1  0  0  0  0
 24 16  1  0  0  0  0
 25 17  1  0  0  0  0
 26  2  1  0  0  0  0
 28 27  2  6  0  0  0
 28 26  1  0  0  0  0
 28 31  1  0  0  0  0
 29 28  1  0  0  0  0
 30 29  1  0  0  0  0
 32 31  1  0  0  0  0
 32 33  2  0  0  0  0
 34 32  1  0  0  0  0
 35 34  1  0  0  0  0
 36 34  1  0  0  0  0
M  END
>  <minimizedAffinity>
-5.33201456

$$$$
