
 OpenBabel03252509303D

 23 23  0  0  0  0  0  0  0  0999 V2000
   47.0590   33.4150   43.0220 C   0  0  0  0  0  0  0  0  0  0  0  0
   46.6710   32.3680   42.9420 H   0  0  0  0  0  0  0  0  0  0  0  0
   46.9320   33.8510   42.0250 H   0  0  0  0  0  0  0  0  0  0  0  0
   45.0900   34.3030   46.0530 C   0  0  0  0  0  0  0  0  0  0  0  0
   45.9520   33.6090   45.2000 C   0  0  0  0  0  0  0  0  0  0  0  0
   46.1560   34.1230   43.9390 C   0  0  0  0  0  0  0  0  0  0  0  0
   45.5160   35.2750   43.5740 N   0  0  0  0  0  0  0  0  0  0  0  0
   44.6790   35.9250   44.4370 C   0  0  0  0  0  0  0  0  0  0  0  0
   44.4720   35.4390   45.6600 N   0  0  0  0  0  0  0  0  0  0  0  0
   44.9130   33.9160   47.0530 H   0  0  0  0  0  0  0  0  0  0  0  0
   46.4120   32.7000   45.5910 H   0  0  0  0  0  0  0  0  0  0  0  0
   44.2080   36.8370   44.0650 H   0  0  0  0  0  0  0  0  0  0  0  0
   48.3600   33.3970   43.4930 O   0  0  0  0  0  0  0  0  0  0  0  0
   49.9540   31.8760   42.0910 O   0  0  0  0  0  0  0  0  0  0  0  0
   49.3800   33.2610   42.1560 P   0  0  2  0  0  0  0  0  0  0  0  0
   50.5770   34.4480   42.3380 O   0  0  0  0  0  0  0  0  0  0  0  0
   50.1390   35.2570   42.7080 H   0  0  0  0  0  0  0  0  0  0  0  0
   48.4790   33.5440   40.7700 O   0  0  0  0  0  0  0  0  0  0  0  0
   48.5430   34.6850   39.9970 C   0  0  0  0  0  0  0  0  0  0  0  0
   48.7470   35.7230   40.7140 O   0  0  0  0  0  0  0  0  0  0  0  0
   48.4120   34.7930   38.5860 N   0  0  0  0  0  0  0  0  0  0  0  0
   49.3940   34.5400   38.2670 H   0  0  0  0  0  0  0  0  0  0  0  0
   47.4010   35.0780   38.4360 H   0  0  0  0  0  0  0  0  0  0  0  0
  1 13  1  0  0  0  0
  1  6  1  0  0  0  0
  2  1  1  0  0  0  0
  3  1  1  0  0  0  0
  4 10  1  0  0  0  0
  5 11  1  0  0  0  0
  5  4  2  0  0  0  0
  6  5  1  0  0  0  0
  7  6  2  0  0  0  0
  7  8  1  0  0  0  0
  8  9  2  0  0  0  0
  9  4  1  0  0  0  0
 12  8  1  0  0  0  0
 15 14  2  6  0  0  0
 15 16  1  0  0  0  0
 15 13  1  0  0  0  0
 16 17  1  0  0  0  0
 18 15  1  0  0  0  0
 19 20  2  0  0  0  0
 19 18  1  0  0  0  0
 21 19  1  0  0  0  0
 22 21  1  0  0  0  0
 23 21  1  0  0  0  0
M  END
>  <minimizedAffinity>
-4.09390306

>  <minimizedRMSD>
1.12166536

$$$$
