
 OpenBabel03252509303D

 23 23  0  0  0  0  0  0  0  0999 V2000
   46.9010   33.0470   43.1820 C   0  0  0  0  0  0  0  0  0  0  0  0
   46.3340   32.1170   43.4410 H   0  0  0  0  0  0  0  0  0  0  0  0
   46.9140   33.0870   42.0880 H   0  0  0  0  0  0  0  0  0  0  0  0
   44.7510   35.1810   45.3450 C   0  0  0  0  0  0  0  0  0  0  0  0
   45.5150   34.0950   44.9100 C   0  0  0  0  0  0  0  0  0  0  0  0
   46.0920   34.1740   43.6630 C   0  0  0  0  0  0  0  0  0  0  0  0
   45.8980   35.2970   42.9070 N   0  0  0  0  0  0  0  0  0  0  0  0
   45.1430   36.3390   43.3650 C   0  0  0  0  0  0  0  0  0  0  0  0
   44.5790   36.2760   44.5710 N   0  0  0  0  0  0  0  0  0  0  0  0
   44.2850   35.1410   46.3260 H   0  0  0  0  0  0  0  0  0  0  0  0
   45.6060   33.2480   45.5930 H   0  0  0  0  0  0  0  0  0  0  0  0
   45.0390   37.1970   42.6980 H   0  0  0  0  0  0  0  0  0  0  0  0
   48.1480   33.0150   43.7830 O   0  0  0  0  0  0  0  0  0  0  0  0
   50.3030   32.3530   42.4660 O   0  0  0  0  0  0  0  0  0  0  0  0
   49.2840   33.4440   42.6120 P   0  0  2  0  0  0  0  0  0  0  0  0
   49.9730   34.9080   43.1190 O   0  0  0  0  0  0  0  0  0  0  0  0
   49.2480   35.4560   43.5140 H   0  0  0  0  0  0  0  0  0  0  0  0
   48.4880   33.6470   41.1490 O   0  0  0  0  0  0  0  0  0  0  0  0
   48.5680   34.7650   40.3460 C   0  0  0  0  0  0  0  0  0  0  0  0
   48.0870   34.5410   39.1850 O   0  0  0  0  0  0  0  0  0  0  0  0
   49.1000   36.0420   40.6760 N   0  0  0  0  0  0  0  0  0  0  0  0
   48.2770   36.4840   41.1840 H   0  0  0  0  0  0  0  0  0  0  0  0
   50.0870   36.0260   40.2850 H   0  0  0  0  0  0  0  0  0  0  0  0
  1  2  1  0  0  0  0
  1  6  1  0  0  0  0
  1 13  1  0  0  0  0
  3  1  1  0  0  0  0
  4 10  1  0  0  0  0
  5  4  1  0  0  0  0
  5 11  1  0  0  0  0
  6  5  2  0  0  0  0
  7  8  2  0  0  0  0
  7  6  1  0  0  0  0
  8  9  1  0  0  0  0
  9  4  2  0  0  0  0
 12  8  1  0  0  0  0
 15 14  2  6  0  0  0
 15 16  1  0  0  0  0
 15 13  1  0  0  0  0
 16 17  1  0  0  0  0
 18 15  1  0  0  0  0
 19 21  1  0  0  0  0
 19 18  1  0  0  0  0
 20 19  2  0  0  0  0
 21 22  1  0  0  0  0
 23 21  1  0  0  0  0
M  END
>  <minimizedAffinity>
-4.3829236

>  <minimizedRMSD>
1.15222478

$$$$
