
 OpenBabel03242523553D

 41 43  0  0  1  0  0  0  0  0999 V2000
   42.8150   34.5100   38.7470 C   0  0  1  0  0  0  0  0  0  0  0  0
   42.9610   35.1750   40.1070 C   0  0  1  0  0  0  0  0  0  0  0  0
   41.6720   35.4050   40.6250 O   0  0  0  0  0  0  0  0  0  0  0  0
   40.7430   35.7470   39.6330 C   0  0  0  0  0  0  0  0  0  0  0  0
   40.4350   34.5740   38.7270 C   0  0  2  0  0  0  0  0  0  0  0  0
   41.6430   33.5920   38.8630 C   0  0  1  0  0  0  0  0  0  0  0  0
   43.7520   33.9670   38.5050 H   0  0  0  0  0  0  0  0  0  0  0  0
   43.5370   36.1140   40.0670 H   0  0  0  0  0  0  0  0  0  0  0  0
   41.0510   36.6460   39.0730 H   0  0  0  0  0  0  0  0  0  0  0  0
   39.8230   35.9940   40.1680 H   0  0  0  0  0  0  0  0  0  0  0  0
   39.5050   34.0490   39.0060 H   0  0  0  0  0  0  0  0  0  0  0  0
   41.4310   33.3130   39.9480 H   0  0  0  0  0  0  0  0  0  0  0  0
   42.6010   35.4680   37.7410 O   0  0  0  0  0  0  0  0  0  0  0  0
   43.1690   36.2690   37.9540 H   0  0  0  0  0  0  0  0  0  0  0  0
   40.4500   34.9810   37.4030 O   0  0  0  0  0  0  0  0  0  0  0  0
   40.5030   34.2420   36.7650 H   0  0  0  0  0  0  0  0  0  0  0  0
   43.4950   34.1890   40.9490 O   0  0  0  0  0  0  0  0  0  0  0  0
   44.5980   34.3300   41.6910 C   0  0  0  0  0  0  0  0  0  0  0  0
   45.8590   34.4380   41.0980 C   0  0  0  0  0  0  0  0  0  0  0  0
   46.9750   34.5850   41.9000 C   0  0  0  0  0  0  0  0  0  0  0  0
   46.8090   34.6190   43.2760 N   0  0  0  0  0  0  0  0  0  0  0  0
   45.5760   34.5110   43.8180 C   0  0  0  0  0  0  0  0  0  0  0  0
   44.4800   34.3670   43.0300 N   0  0  0  0  0  0  0  0  0  0  0  0
   45.9540   34.4080   40.0340 H   0  0  0  0  0  0  0  0  0  0  0  0
   45.4520   34.5380   44.8830 H   0  0  0  0  0  0  0  0  0  0  0  0
   48.3550   34.6860   41.3320 C   0  0  0  0  0  0  0  0  0  0  0  0
   49.0730   36.0220   41.5090 C   0  0  0  0  0  0  0  0  0  0  0  0
   49.5030   34.7030   42.1820 C   0  0  0  0  0  0  0  0  0  0  0  0
   48.4080   34.2470   40.3020 H   0  0  0  0  0  0  0  0  0  0  0  0
   49.7150   36.3090   40.6730 H   0  0  0  0  0  0  0  0  0  0  0  0
   48.5210   36.7650   42.1020 H   0  0  0  0  0  0  0  0  0  0  0  0
   50.4800   34.2900   41.9130 H   0  0  0  0  0  0  0  0  0  0  0  0
   49.3550   34.7390   43.2900 H   0  0  0  0  0  0  0  0  0  0  0  0
   41.5080   32.6410   37.9150 O   0  0  0  0  0  0  0  0  0  0  0  0
   40.8490   31.4850   37.9010 C   0  0  0  0  0  0  0  0  0  0  0  0
   39.5990   31.3830   37.4630 O   0  0  0  0  0  0  0  0  0  0  0  0
   40.7450   28.1540   39.0460 H   0  0  0  0  0  0  0  0  0  0  0  0
   40.3450   29.1250   38.7950 C   0  0  0  0  0  0  0  0  0  0  0  0
   39.1300   29.4150   38.9300 O   0  0  0  0  0  0  0  0  0  0  0  0
   41.2090   30.1210   38.2920 N   0  0  0  0  0  0  0  0  0  0  0  0
   42.1990   29.8430   38.1970 H   0  0  0  0  0  0  0  0  0  0  0  0
  1  7  1  6  0  0  0
  1  6  1  0  0  0  0
  1  2  1  0  0  0  0
  2  8  1  6  0  0  0
  2  3  1  0  0  0  0
  2 17  1  0  0  0  0
  4 10  1  0  0  0  0
  4  3  1  0  0  0  0
  5  6  1  0  0  0  0
  5 11  1  1  0  0  0
  5  4  1  0  0  0  0
  6 12  1  1  0  0  0
  9  4  1  0  0  0  0
 13 14  1  0  0  0  0
 13  1  1  0  0  0  0
 15  5  1  0  0  0  0
 16 15  1  0  0  0  0
 17 18  1  0  0  0  0
 18 23  1  0  0  0  0
 19 18  2  0  0  0  0
 19 20  1  0  0  0  0
 20 21  2  0  0  0  0
 21 22  1  0  0  0  0
 22 25  1  0  0  0  0
 23 22  2  0  0  0  0
 24 19  1  0  0  0  0
 26 27  1  0  0  0  0
 26 20  1  0  0  0  0
 26 28  1  0  0  0  0
 27 31  1  0  0  0  0
 27 28  1  0  0  0  0
 28 33  1  0  0  0  0
 29 26  1  0  0  0  0
 30 27  1  0  0  0  0
 32 28  1  0  0  0  0
 34  6  1  0  0  0  0
 35 34  1  0  0  0  0
 35 40  1  0  0  0  0
 36 35  2  0  0  0  0
 38 39  2  0  0  0  0
 38 37  1  0  0  0  0
 40 38  1  0  0  0  0
 41 40  1  0  0  0  0
M  END
>  <minimizedAffinity>
-5.8730731

>  <minimizedRMSD>
0.122387677

$$$$
