
 OpenBabel03252500493D

 24 25  0  0  0  0  0  0  0  0999 V2000
   44.7790   34.9170   45.1400 C   0  0  0  0  0  0  0  0  0  0  0  0
   44.7480   34.3580   43.8720 C   0  0  0  0  0  0  0  0  0  0  0  0
   45.2040   33.0630   43.6600 C   0  0  0  0  0  0  0  0  0  0  0  0
   45.6750   32.3950   44.7640 N   0  0  0  0  0  0  0  0  0  0  0  0
   45.7030   32.9370   45.9770 C   0  0  0  0  0  0  0  0  0  0  0  0
   45.2580   34.1880   46.1630 N   0  0  0  0  0  0  0  0  0  0  0  0
   44.4350   35.9240   45.3580 H   0  0  0  0  0  0  0  0  0  0  0  0
   45.1920   32.6010   42.6820 H   0  0  0  0  0  0  0  0  0  0  0  0
   46.2130   32.1890   47.1150 C   0  0  0  0  0  0  0  0  0  0  0  0
   47.4180   31.5620   47.0930 C   0  0  0  0  0  0  0  0  0  0  0  0
   47.9290   30.8470   48.1510 C   0  0  0  0  0  0  0  0  0  0  0  0
   47.1540   30.7870   49.2640 N   0  0  0  0  0  0  0  0  0  0  0  0
   45.9730   31.4050   49.2760 C   0  0  0  0  0  0  0  0  0  0  0  0
   45.4600   32.1090   48.2480 N   0  0  0  0  0  0  0  0  0  0  0  0
   47.9720   31.6620   46.1620 H   0  0  0  0  0  0  0  0  0  0  0  0
   48.9120   30.4000   47.9830 H   0  0  0  0  0  0  0  0  0  0  0  0
   45.4410   31.2880   50.2190 H   0  0  0  0  0  0  0  0  0  0  0  0
   44.2290   35.1540   42.7710 C   0  0  0  0  0  0  0  0  0  0  0  0
   43.2370   34.7160   42.1450 O   0  0  0  0  0  0  0  0  0  0  0  0
   46.9460   37.2150   42.2840 H   0  0  0  0  0  0  0  0  0  0  0  0
   46.3430   36.3190   42.4850 C   0  0  0  0  0  0  0  0  0  0  0  0
   46.9790   35.2550   42.7000 O   0  0  0  0  0  0  0  0  0  0  0  0
   44.9060   36.3820   42.4980 N   0  0  0  0  0  0  0  0  0  0  0  0
   44.4630   37.2930   42.3110 H   0  0  0  0  0  0  0  0  0  0  0  0
  1  7  1  0  0  0  0
  1  6  1  0  0  0  0
  2  1  2  0  0  0  0
  3  2  1  0  0  0  0
  3  4  2  0  0  0  0
  4  5  1  0  0  0  0
  5  6  2  0  0  0  0
  5  9  1  0  0  0  0
  8  3  1  0  0  0  0
  9 14  1  0  0  0  0
 10  9  2  0  0  0  0
 10 11  1  0  0  0  0
 11 12  2  0  0  0  0
 12 13  1  0  0  0  0
 13 17  1  0  0  0  0
 14 13  2  0  0  0  0
 15 10  1  0  0  0  0
 16 11  1  0  0  0  0
 18  2  1  0  0  0  0
 19 18  2  0  0  0  0
 20 21  1  0  0  0  0
 21 23  1  0  0  0  0
 21 22  2  0  0  0  0
 23 18  1  0  0  0  0
 24 23  1  0  0  0  0
M  END
>  <minimizedAffinity>
-3.40692782

>  <minimizedRMSD>
1.05554128

$$$$
