
 OpenBabel03242523553D

 41 43  0  0  1  0  0  0  0  0999 V2000
   42.7960   34.4380   38.8220 C   0  0  1  0  0  0  0  0  0  0  0  0
   42.9720   35.1770   40.1390 C   0  0  1  0  0  0  0  0  0  0  0  0
   41.6950   35.4890   40.6440 O   0  0  0  0  0  0  0  0  0  0  0  0
   40.7770   35.8060   39.6340 C   0  0  0  0  0  0  0  0  0  0  0  0
   40.4200   34.5930   38.8010 C   0  0  2  0  0  0  0  0  0  0  0  0
   41.5900   33.5740   38.9950 C   0  0  1  0  0  0  0  0  0  0  0  0
   43.7100   33.8450   38.6130 H   0  0  0  0  0  0  0  0  0  0  0  0
   43.5850   36.0890   40.0420 H   0  0  0  0  0  0  0  0  0  0  0  0
   41.1180   36.6560   39.0210 H   0  0  0  0  0  0  0  0  0  0  0  0
   39.8690   36.1210   40.1540 H   0  0  0  0  0  0  0  0  0  0  0  0
   39.4710   34.1230   39.1120 H   0  0  0  0  0  0  0  0  0  0  0  0
   41.3710   33.3710   40.0950 H   0  0  0  0  0  0  0  0  0  0  0  0
   42.6160   35.3410   37.7610 O   0  0  0  0  0  0  0  0  0  0  0  0
   43.2160   36.1300   37.9240 H   0  0  0  0  0  0  0  0  0  0  0  0
   40.4460   34.9180   37.4550 O   0  0  0  0  0  0  0  0  0  0  0  0
   40.4680   34.1410   36.8630 H   0  0  0  0  0  0  0  0  0  0  0  0
   43.4710   34.2240   41.0380 O   0  0  0  0  0  0  0  0  0  0  0  0
   44.5890   34.3590   41.7580 C   0  0  0  0  0  0  0  0  0  0  0  0
   45.8380   34.4630   41.1390 C   0  0  0  0  0  0  0  0  0  0  0  0
   46.9710   34.6040   41.9180 C   0  0  0  0  0  0  0  0  0  0  0  0
   46.8340   34.6380   43.2970 N   0  0  0  0  0  0  0  0  0  0  0  0
   45.6120   34.5350   43.8650 C   0  0  0  0  0  0  0  0  0  0  0  0
   44.4990   34.3960   43.0990 N   0  0  0  0  0  0  0  0  0  0  0  0
   45.9120   34.4330   40.0730 H   0  0  0  0  0  0  0  0  0  0  0  0
   45.5100   34.5610   44.9320 H   0  0  0  0  0  0  0  0  0  0  0  0
   48.3400   34.7000   41.3220 C   0  0  0  0  0  0  0  0  0  0  0  0
   49.0760   36.0250   41.5050 C   0  0  0  0  0  0  0  0  0  0  0  0
   49.5060   34.6900   42.1470 C   0  0  0  0  0  0  0  0  0  0  0  0
   48.3650   34.2780   40.2830 H   0  0  0  0  0  0  0  0  0  0  0  0
   49.7030   36.3200   40.6600 H   0  0  0  0  0  0  0  0  0  0  0  0
   48.5460   36.7640   42.1220 H   0  0  0  0  0  0  0  0  0  0  0  0
   50.4730   34.2720   41.8490 H   0  0  0  0  0  0  0  0  0  0  0  0
   49.3820   34.7100   43.2570 H   0  0  0  0  0  0  0  0  0  0  0  0
   41.4140   32.5750   38.1070 O   0  0  0  0  0  0  0  0  0  0  0  0
   40.6450   31.4890   38.1280 C   0  0  0  0  0  0  0  0  0  0  0  0
   39.5190   31.3990   37.4280 O   0  0  0  0  0  0  0  0  0  0  0  0
   39.9350   28.3330   39.5290 H   0  0  0  0  0  0  0  0  0  0  0  0
   39.7200   29.2490   38.9970 C   0  0  0  0  0  0  0  0  0  0  0  0
   38.5860   29.5130   38.5270 O   0  0  0  0  0  0  0  0  0  0  0  0
   40.7480   30.2000   38.8150 N   0  0  0  0  0  0  0  0  0  0  0  0
   41.6640   29.9450   39.2170 H   0  0  0  0  0  0  0  0  0  0  0  0
  1  7  1  6  0  0  0
  1  6  1  0  0  0  0
  1  2  1  0  0  0  0
  2  8  1  6  0  0  0
  2  3  1  0  0  0  0
  2 17  1  0  0  0  0
  4 10  1  0  0  0  0
  4  3  1  0  0  0  0
  5  6  1  0  0  0  0
  5 11  1  1  0  0  0
  5  4  1  0  0  0  0
  6 12  1  1  0  0  0
  9  4  1  0  0  0  0
 13 14  1  0  0  0  0
 13  1  1  0  0  0  0
 15  5  1  0  0  0  0
 16 15  1  0  0  0  0
 17 18  1  0  0  0  0
 18 23  1  0  0  0  0
 19 18  2  0  0  0  0
 19 20  1  0  0  0  0
 20 21  2  0  0  0  0
 21 22  1  0  0  0  0
 22 25  1  0  0  0  0
 23 22  2  0  0  0  0
 24 19  1  0  0  0  0
 26 27  1  0  0  0  0
 26 20  1  0  0  0  0
 26 28  1  0  0  0  0
 27 31  1  0  0  0  0
 27 28  1  0  0  0  0
 28 33  1  0  0  0  0
 29 26  1  0  0  0  0
 30 27  1  0  0  0  0
 32 28  1  0  0  0  0
 34 35  1  0  0  0  0
 34  6  1  0  0  0  0
 35 40  1  0  0  0  0
 36 35  2  0  0  0  0
 38 37  1  0  0  0  0
 39 38  2  0  0  0  0
 40 38  1  0  0  0  0
 40 41  1  0  0  0  0
M  END
>  <minimizedAffinity>
-5.89226484

>  <minimizedRMSD>
0.355370402

$$$$
