
 OpenBabel03252509193D

 39 41  0  0  1  0  0  0  0  0999 V2000
   47.8960   29.3060   47.8040 C   0  0  1  0  0  0  0  0  0  0  0  0
   47.8320   28.3220   46.7010 C   0  0  0  0  0  0  0  0  0  0  0  0
   49.1210   27.5880   46.4440 C   0  0  0  0  0  0  0  0  0  0  0  0
   49.7940   27.1270   47.7080 C   0  0  0  0  0  0  0  0  0  0  0  0
   49.8230   28.1940   48.7690 C   0  0  0  0  0  0  0  0  0  0  0  0
   49.3760   29.5340   48.1850 C   0  0  2  0  0  0  0  0  0  0  0  0
   47.4620   28.8420   48.7040 H   0  0  0  0  0  0  0  0  0  0  0  0
   47.6080   28.8770   45.7450 H   0  0  0  0  0  0  0  0  0  0  0  0
   47.0290   27.5850   46.8570 H   0  0  0  0  0  0  0  0  0  0  0  0
   48.8550   26.6860   45.8630 H   0  0  0  0  0  0  0  0  0  0  0  0
   49.8230   28.1650   45.8190 H   0  0  0  0  0  0  0  0  0  0  0  0
   50.7680   26.7010   47.4830 H   0  0  0  0  0  0  0  0  0  0  0  0
   49.1660   26.2820   48.1150 H   0  0  0  0  0  0  0  0  0  0  0  0
   49.1380   27.9670   49.6140 H   0  0  0  0  0  0  0  0  0  0  0  0
   50.8680   28.3050   49.1170 H   0  0  0  0  0  0  0  0  0  0  0  0
   49.9550   29.7740   47.2690 H   0  0  0  0  0  0  0  0  0  0  0  0
   46.1770   32.6890   46.2880 C   0  0  0  0  0  0  0  0  0  0  0  0
   45.8950   32.5140   47.6400 C   0  0  0  0  0  0  0  0  0  0  0  0
   46.4000   31.4390   48.2510 C   0  0  0  0  0  0  0  0  0  0  0  0
   47.1960   30.5180   47.5320 C   0  0  0  0  0  0  0  0  0  0  0  0
   47.2250   31.2310   45.8550 S   0  0  0  0  0  0  0  0  0  0  0  0
   45.2860   33.2280   48.1770 H   0  0  0  0  0  0  0  0  0  0  0  0
   46.2880   31.1440   49.2820 H   0  0  0  0  0  0  0  0  0  0  0  0
   44.5340   35.7480   44.9590 C   0  0  0  0  0  0  0  0  0  0  0  0
   45.1140   35.8310   43.6920 C   0  0  0  0  0  0  0  0  0  0  0  0
   46.0370   34.8350   43.3460 C   0  0  0  0  0  0  0  0  0  0  0  0
   46.3170   33.8470   44.2580 N   0  0  0  0  0  0  0  0  0  0  0  0
   45.7200   33.8300   45.4600 C   0  0  0  0  0  0  0  0  0  0  0  0
   44.8220   34.7830   45.8210 N   0  0  0  0  0  0  0  0  0  0  0  0
   43.8090   36.5100   45.2600 H   0  0  0  0  0  0  0  0  0  0  0  0
   44.8840   36.6140   42.9830 H   0  0  0  0  0  0  0  0  0  0  0  0
   46.5400   34.8110   42.3880 H   0  0  0  0  0  0  0  0  0  0  0  0
   49.4700   30.5640   49.2230 C   0  0  0  0  0  0  0  0  0  0  0  0
   49.1140   30.3670   50.4010 O   0  0  0  0  0  0  0  0  0  0  0  0
   51.0070   33.6510   49.9300 H   0  0  0  0  0  0  0  0  0  0  0  0
   50.8630   32.5730   50.0520 C   0  0  0  0  0  0  0  0  0  0  0  0
   51.4890   31.8240   50.8220 O   0  0  0  0  0  0  0  0  0  0  0  0
   49.8980   31.8850   49.3070 N   0  0  0  0  0  0  0  0  0  0  0  0
   49.3740   32.4860   48.6690 H   0  0  0  0  0  0  0  0  0  0  0  0
  1  6  1  0  0  0  0
  1  7  1  1  0  0  0
  2  9  1  0  0  0  0
  2  1  1  0  0  0  0
  3  2  1  0  0  0  0
  3  4  1  0  0  0  0
  4 13  1  0  0  0  0
  4  5  1  0  0  0  0
  5 15  1  0  0  0  0
  5 14  1  0  0  0  0
  6 16  1  6  0  0  0
  6  5  1  0  0  0  0
  6 33  1  0  0  0  0
  8  2  1  0  0  0  0
 10  3  1  0  0  0  0
 11  3  1  0  0  0  0
 12  4  1  0  0  0  0
 17 18  2  0  0  0  0
 18 22  1  0  0  0  0
 18 19  1  0  0  0  0
 19 23  1  0  0  0  0
 20  1  1  0  0  0  0
 20 19  2  0  0  0  0
 21 17  1  0  0  0  0
 21 20  1  0  0  0  0
 24 30  1  0  0  0  0
 24 29  1  0  0  0  0
 25 24  2  0  0  0  0
 26 25  1  0  0  0  0
 26 27  2  0  0  0  0
 27 28  1  0  0  0  0
 28 29  2  0  0  0  0
 28 17  1  0  0  0  0
 31 25  1  0  0  0  0
 32 26  1  0  0  0  0
 33 38  1  0  0  0  0
 33 34  2  0  0  0  0
 35 36  1  0  0  0  0
 36 37  2  0  0  0  0
 38 36  1  0  0  0  0
 39 38  1  0  0  0  0
M  END
>  <minimizedAffinity>
-5.23383951

>  <minimizedRMSD>
1.08447587

$$$$
