
 OpenBabel03252504463D

 23 23  0  0  0  0  0  0  0  0999 V2000
   45.4580   35.1020   43.9190 C   0  0  0  0  0  0  0  0  0  0  0  0
   46.5070   34.4410   43.2870 C   0  0  0  0  0  0  0  0  0  0  0  0
   47.1210   33.3960   44.0040 C   0  0  0  0  0  0  0  0  0  0  0  0
   46.6600   33.1040   45.2370 N   0  0  0  0  0  0  0  0  0  0  0  0
   45.6400   33.7760   45.8050 C   0  0  0  0  0  0  0  0  0  0  0  0
   45.0320   34.7880   45.1340 N   0  0  0  0  0  0  0  0  0  0  0  0
   46.8380   34.7100   42.3040 H   0  0  0  0  0  0  0  0  0  0  0  0
   47.9430   32.8560   43.5440 H   0  0  0  0  0  0  0  0  0  0  0  0
   44.8100   36.2150   43.1470 C   0  0  0  0  0  0  0  0  0  0  0  0
   44.1700   36.8260   43.8380 H   0  0  0  0  0  0  0  0  0  0  0  0
   44.1750   35.7900   42.3390 H   0  0  0  0  0  0  0  0  0  0  0  0
   45.5920   36.9090   42.7720 H   0  0  0  0  0  0  0  0  0  0  0  0
   45.2900   33.3550   47.0700 O   0  0  0  0  0  0  0  0  0  0  0  0
   45.3610   31.9960   49.2640 O   0  0  0  0  0  0  0  0  0  0  0  0
   45.7730   31.9170   47.7920 P   0  0  1  0  0  0  0  0  0  0  0  0
   45.0350   30.5510   47.1650 O   0  0  0  0  0  0  0  0  0  0  0  0
   45.6670   29.8860   46.7860 H   0  0  0  0  0  0  0  0  0  0  0  0
   47.4540   31.7100   47.6430 O   0  0  0  0  0  0  0  0  0  0  0  0
   48.2410   31.5040   48.7680 C   0  0  0  0  0  0  0  0  0  0  0  0
   49.2910   32.0710   49.1650 O   0  0  0  0  0  0  0  0  0  0  0  0
   47.7190   30.4440   49.5890 N   0  0  0  0  0  0  0  0  0  0  0  0
   47.3230   29.6880   50.1870 H   0  0  0  0  0  0  0  0  0  0  0  0
   48.2970   29.5600   49.6890 H   0  0  0  0  0  0  0  0  0  0  0  0
  1  6  1  0  0  0  0
  2  1  2  0  0  0  0
  2  3  1  0  0  0  0
  3  4  2  0  0  0  0
  4  5  1  0  0  0  0
  5 13  1  0  0  0  0
  6  5  2  0  0  0  0
  7  2  1  0  0  0  0
  8  3  1  0  0  0  0
  9 10  1  0  0  0  0
  9  1  1  0  0  0  0
 11  9  1  0  0  0  0
 12  9  1  0  0  0  0
 13 15  1  0  0  0  0
 15 14  2  1  0  0  0
 16 15  1  0  0  0  0
 17 16  1  0  0  0  0
 18 15  1  0  0  0  0
 18 19  1  0  0  0  0
 19 20  2  0  0  0  0
 19 21  1  0  0  0  0
 21 23  1  0  0  0  0
 21 22  1  0  0  0  0
M  END
>  <minimizedAffinity>
-4.70696592

>  <minimizedRMSD>
0.496655911

$$$$
