
 OpenBabel03252500493D

 24 25  0  0  0  0  0  0  0  0999 V2000
   44.3950   35.1690   45.3560 C   0  0  0  0  0  0  0  0  0  0  0  0
   44.9260   34.9950   44.0870 C   0  0  0  0  0  0  0  0  0  0  0  0
   45.8960   34.0280   43.8540 C   0  0  0  0  0  0  0  0  0  0  0  0
   46.2800   33.2780   44.9390 N   0  0  0  0  0  0  0  0  0  0  0  0
   45.7680   33.4500   46.1530 C   0  0  0  0  0  0  0  0  0  0  0  0
   44.8330   34.3870   46.3590 N   0  0  0  0  0  0  0  0  0  0  0  0
   43.6350   35.9090   45.5900 H   0  0  0  0  0  0  0  0  0  0  0  0
   46.3280   33.8710   42.8750 H   0  0  0  0  0  0  0  0  0  0  0  0
   46.2100   32.6300   47.2690 C   0  0  0  0  0  0  0  0  0  0  0  0
   47.4980   32.2210   47.4070 C   0  0  0  0  0  0  0  0  0  0  0  0
   47.9480   31.4460   48.4520 C   0  0  0  0  0  0  0  0  0  0  0  0
   47.0200   31.0890   49.3760 N   0  0  0  0  0  0  0  0  0  0  0  0
   45.7590   31.4950   49.2320 C   0  0  0  0  0  0  0  0  0  0  0  0
   45.3040   32.2540   48.2160 N   0  0  0  0  0  0  0  0  0  0  0  0
   48.1720   32.5530   46.6220 H   0  0  0  0  0  0  0  0  0  0  0  0
   49.0120   31.1980   48.4260 H   0  0  0  0  0  0  0  0  0  0  0  0
   45.1060   31.1490   50.0320 H   0  0  0  0  0  0  0  0  0  0  0  0
   44.4480   35.8450   43.0080 C   0  0  0  0  0  0  0  0  0  0  0  0
   43.3960   35.5100   42.4180 O   0  0  0  0  0  0  0  0  0  0  0  0
   45.9760   38.8650   43.6520 H   0  0  0  0  0  0  0  0  0  0  0  0
   45.3890   37.9460   43.7890 C   0  0  0  0  0  0  0  0  0  0  0  0
   44.8750   37.7750   44.9240 O   0  0  0  0  0  0  0  0  0  0  0  0
   45.2310   37.0030   42.7140 N   0  0  0  0  0  0  0  0  0  0  0  0
   45.6860   37.2190   41.8140 H   0  0  0  0  0  0  0  0  0  0  0  0
  1  7  1  0  0  0  0
  1  6  1  0  0  0  0
  2  1  2  0  0  0  0
  3  2  1  0  0  0  0
  3  4  2  0  0  0  0
  4  5  1  0  0  0  0
  5  6  2  0  0  0  0
  5  9  1  0  0  0  0
  8  3  1  0  0  0  0
  9 10  2  0  0  0  0
  9 14  1  0  0  0  0
 10 11  1  0  0  0  0
 11 12  2  0  0  0  0
 13 12  1  0  0  0  0
 13 17  1  0  0  0  0
 14 13  2  0  0  0  0
 15 10  1  0  0  0  0
 16 11  1  0  0  0  0
 18  2  1  0  0  0  0
 19 18  2  0  0  0  0
 20 21  1  0  0  0  0
 21 22  2  0  0  0  0
 23 18  1  0  0  0  0
 23 21  1  0  0  0  0
 24 23  1  0  0  0  0
M  END
>  <minimizedAffinity>
-3.80761123

>  <minimizedRMSD>
0.457227826

$$$$
