
 OpenBabel03252509323D

 23 23  0  0  0  0  0  0  0  0999 V2000
   36.8900   30.9830   38.7670 C   0  0  0  0  0  0  0  0  0  0  0  0
   35.8710   31.3800   39.0070 H   0  0  0  0  0  0  0  0  0  0  0  0
   36.9170   30.8840   37.6770 H   0  0  0  0  0  0  0  0  0  0  0  0
   40.0400   32.9350   39.1130 C   0  0  0  0  0  0  0  0  0  0  0  0
   39.1540   31.9210   38.7420 C   0  0  0  0  0  0  0  0  0  0  0  0
   37.8430   32.0350   39.1450 C   0  0  0  0  0  0  0  0  0  0  0  0
   37.4630   33.1210   39.8850 N   0  0  0  0  0  0  0  0  0  0  0  0
   38.3590   34.0930   40.2300 C   0  0  0  0  0  0  0  0  0  0  0  0
   39.6320   33.9960   39.8450 N   0  0  0  0  0  0  0  0  0  0  0  0
   41.0810   32.8670   38.8060 H   0  0  0  0  0  0  0  0  0  0  0  0
   39.5620   31.0980   38.1510 H   0  0  0  0  0  0  0  0  0  0  0  0
   37.9720   34.9250   40.8210 H   0  0  0  0  0  0  0  0  0  0  0  0
   37.1120   29.8120   39.4700 O   0  0  0  0  0  0  0  0  0  0  0  0
   34.5540   29.3010   39.6040 O   0  0  0  0  0  0  0  0  0  0  0  0
   35.7660   29.5500   40.4530 P   0  0  2  0  0  0  0  0  0  0  0  0
   35.6010   30.9280   41.4260 O   0  0  0  0  0  0  0  0  0  0  0  0
   36.5120   31.2210   41.6830 H   0  0  0  0  0  0  0  0  0  0  0  0
   36.0560   28.1950   41.3990 O   0  0  0  0  0  0  0  0  0  0  0  0
   36.7540   28.1890   42.5900 C   0  0  0  0  0  0  0  0  0  0  0  0
   36.9050   27.0010   43.0340 O   0  0  0  0  0  0  0  0  0  0  0  0
   37.2760   29.3020   43.3030 N   0  0  0  0  0  0  0  0  0  0  0  0
   38.1890   29.4690   42.7860 H   0  0  0  0  0  0  0  0  0  0  0  0
   36.5470   29.5030   44.0480 H   0  0  0  0  0  0  0  0  0  0  0  0
  1  2  1  0  0  0  0
  1  6  1  0  0  0  0
  1 13  1  0  0  0  0
  3  1  1  0  0  0  0
  4  9  1  0  0  0  0
  5  4  2  0  0  0  0
  5  6  1  0  0  0  0
  6  7  2  0  0  0  0
  7  8  1  0  0  0  0
  8 12  1  0  0  0  0
  9  8  2  0  0  0  0
 10  4  1  0  0  0  0
 11  5  1  0  0  0  0
 13 15  1  0  0  0  0
 15 14  2  6  0  0  0
 15 18  1  0  0  0  0
 15 16  1  0  0  0  0
 16 17  1  0  0  0  0
 18 19  1  0  0  0  0
 19 20  2  0  0  0  0
 19 21  1  0  0  0  0
 21 23  1  0  0  0  0
 22 21  1  0  0  0  0
M  END
>  <minimizedAffinity>
-4.54350948

$$$$

 OpenBabel03252509323D

 23 23  0  0  0  0  0  0  0  0999 V2000
   36.1610   29.9990   40.7150 C   0  0  0  0  0  0  0  0  0  0  0  0
   36.5950   29.8040   39.7020 H   0  0  0  0  0  0  0  0  0  0  0  0
   35.1070   29.7080   40.6440 H   0  0  0  0  0  0  0  0  0  0  0  0
   37.0940   26.8700   42.5040 C   0  0  0  0  0  0  0  0  0  0  0  0
   36.4490   27.7390   41.6190 C   0  0  0  0  0  0  0  0  0  0  0  0
   36.8210   29.0640   41.6360 C   0  0  0  0  0  0  0  0  0  0  0  0
   37.7940   29.4740   42.5060 N   0  0  0  0  0  0  0  0  0  0  0  0
   38.4010   28.5950   43.3570 C   0  0  0  0  0  0  0  0  0  0  0  0
   38.0510   27.3090   43.3520 N   0  0  0  0  0  0  0  0  0  0  0  0
   36.8160   25.8190   42.5090 H   0  0  0  0  0  0  0  0  0  0  0  0
   35.6870   27.3070   40.9680 H   0  0  0  0  0  0  0  0  0  0  0  0
   39.1670   29.0060   44.0180 H   0  0  0  0  0  0  0  0  0  0  0  0
   36.3840   31.3160   41.0740 O   0  0  0  0  0  0  0  0  0  0  0  0
   38.7400   31.7980   40.0570 O   0  0  0  0  0  0  0  0  0  0  0  0
   37.2760   32.0330   39.8330 P   0  0  2  0  0  0  0  0  0  0  0  0
   36.8770   33.6810   39.8400 O   0  0  0  0  0  0  0  0  0  0  0  0
   35.9070   33.7510   40.0300 H   0  0  0  0  0  0  0  0  0  0  0  0
   36.8250   31.3260   38.3800 O   0  0  0  0  0  0  0  0  0  0  0  0
   37.6200   31.2410   37.2550 C   0  0  0  0  0  0  0  0  0  0  0  0
   37.2030   30.3330   36.4590 O   0  0  0  0  0  0  0  0  0  0  0  0
   38.7660   32.0170   36.9340 N   0  0  0  0  0  0  0  0  0  0  0  0
   38.3190   32.8930   36.5330 H   0  0  0  0  0  0  0  0  0  0  0  0
   39.5860   31.4080   37.2230 H   0  0  0  0  0  0  0  0  0  0  0  0
  1 13  1  0  0  0  0
  1  6  1  0  0  0  0
  2  1  1  0  0  0  0
  3  1  1  0  0  0  0
  4 10  1  0  0  0  0
  4  9  1  0  0  0  0
  5  6  1  0  0  0  0
  5  4  2  0  0  0  0
  6  7  2  0  0  0  0
  7  8  1  0  0  0  0
  8 12  1  0  0  0  0
  9  8  2  0  0  0  0
 11  5  1  0  0  0  0
 15 16  1  0  0  0  0
 15 14  2  1  0  0  0
 15 13  1  0  0  0  0
 16 17  1  0  0  0  0
 18 15  1  0  0  0  0
 19 18  1  0  0  0  0
 20 19  2  0  0  0  0
 21 23  1  0  0  0  0
 21 19  1  0  0  0  0
 22 21  1  0  0  0  0
M  END
>  <minimizedAffinity>
-4.44597912

$$$$

 OpenBabel03252509323D

 23 23  0  0  0  0  0  0  0  0999 V2000
   39.2900   30.6910   41.1880 C   0  0  0  0  0  0  0  0  0  0  0  0
   40.2780   30.3960   41.6220 H   0  0  0  0  0  0  0  0  0  0  0  0
   39.3910   30.5520   40.1060 H   0  0  0  0  0  0  0  0  0  0  0  0
   37.4430   28.3580   43.4250 C   0  0  0  0  0  0  0  0  0  0  0  0
   38.3850   29.2920   42.9860 C   0  0  0  0  0  0  0  0  0  0  0  0
   38.3120   29.7090   41.6760 C   0  0  0  0  0  0  0  0  0  0  0  0
   37.3360   29.2000   40.8660 N   0  0  0  0  0  0  0  0  0  0  0  0
   36.4320   28.2870   41.3310 C   0  0  0  0  0  0  0  0  0  0  0  0
   36.4900   27.8750   42.5970 N   0  0  0  0  0  0  0  0  0  0  0  0
   37.4810   28.0140   44.4550 H   0  0  0  0  0  0  0  0  0  0  0  0
   39.1220   29.6340   43.7150 H   0  0  0  0  0  0  0  0  0  0  0  0
   35.6860   27.9320   40.6180 H   0  0  0  0  0  0  0  0  0  0  0  0
   38.9690   31.9770   41.5880 O   0  0  0  0  0  0  0  0  0  0  0  0
   39.3100   34.1580   40.1930 O   0  0  0  0  0  0  0  0  0  0  0  0
   38.5700   32.8520   40.2020 P   0  0  2  0  0  0  0  0  0  0  0  0
   36.8880   33.0630   40.2300 O   0  0  0  0  0  0  0  0  0  0  0  0
   36.4900   32.2230   40.5720 H   0  0  0  0  0  0  0  0  0  0  0  0
   39.0270   31.9570   38.8590 O   0  0  0  0  0  0  0  0  0  0  0  0
   38.2660   31.7790   37.7220 C   0  0  0  0  0  0  0  0  0  0  0  0
   37.1720   31.1730   37.9860 O   0  0  0  0  0  0  0  0  0  0  0  0
   38.5700   32.1820   36.3940 N   0  0  0  0  0  0  0  0  0  0  0  0
   38.2740   33.2030   36.4140 H   0  0  0  0  0  0  0  0  0  0  0  0
   38.9610   31.3080   35.9360 H   0  0  0  0  0  0  0  0  0  0  0  0
  1 13  1  0  0  0  0
  1  2  1  0  0  0  0
  1  6  1  0  0  0  0
  3  1  1  0  0  0  0
  4 10  1  0  0  0  0
  5  4  1  0  0  0  0
  5 11  1  0  0  0  0
  6  5  2  0  0  0  0
  7  8  2  0  0  0  0
  7  6  1  0  0  0  0
  8  9  1  0  0  0  0
  9  4  2  0  0  0  0
 12  8  1  0  0  0  0
 15 14  2  1  0  0  0
 15 16  1  0  0  0  0
 15 13  1  0  0  0  0
 16 17  1  0  0  0  0
 18 15  1  0  0  0  0
 19 20  2  0  0  0  0
 19 18  1  0  0  0  0
 21 22  1  0  0  0  0
 21 19  1  0  0  0  0
 23 21  1  0  0  0  0
M  END
>  <minimizedAffinity>
-4.32736349

$$$$

 OpenBabel03252509323D

 23 23  0  0  0  0  0  0  0  0999 V2000
   36.5840   27.9500   42.2830 C   0  0  0  0  0  0  0  0  0  0  0  0
   35.5540   27.5880   42.5280 H   0  0  0  0  0  0  0  0  0  0  0  0
   36.8260   28.6890   43.0540 H   0  0  0  0  0  0  0  0  0  0  0  0
   37.9430   24.4850   42.2170 C   0  0  0  0  0  0  0  0  0  0  0  0
   37.0700   25.5610   42.0320 C   0  0  0  0  0  0  0  0  0  0  0  0
   37.4810   26.8010   42.4650 C   0  0  0  0  0  0  0  0  0  0  0  0
   38.7100   26.9320   43.0510 N   0  0  0  0  0  0  0  0  0  0  0  0
   39.5360   25.8560   43.2150 C   0  0  0  0  0  0  0  0  0  0  0  0
   39.1510   24.6500   42.8010 N   0  0  0  0  0  0  0  0  0  0  0  0
   37.6410   23.4960   41.8830 H   0  0  0  0  0  0  0  0  0  0  0  0
   36.1130   25.3460   41.5530 H   0  0  0  0  0  0  0  0  0  0  0  0
   40.4980   26.0490   43.6930 H   0  0  0  0  0  0  0  0  0  0  0  0
   36.6150   28.4250   40.9840 O   0  0  0  0  0  0  0  0  0  0  0  0
   38.1390   30.2650   42.0380 O   0  0  0  0  0  0  0  0  0  0  0  0
   37.0260   30.0600   41.0530 P   0  0  2  0  0  0  0  0  0  0  0  0
   35.6160   30.8960   41.4890 O   0  0  0  0  0  0  0  0  0  0  0  0
   34.8580   30.4640   41.0190 H   0  0  0  0  0  0  0  0  0  0  0  0
   37.5470   30.5420   39.5330 O   0  0  0  0  0  0  0  0  0  0  0  0
   37.4580   31.8230   39.0280 C   0  0  0  0  0  0  0  0  0  0  0  0
   37.1500   32.6620   39.9420 O   0  0  0  0  0  0  0  0  0  0  0  0
   37.6640   32.2510   37.6890 N   0  0  0  0  0  0  0  0  0  0  0  0
   38.7230   32.3290   37.6570 H   0  0  0  0  0  0  0  0  0  0  0  0
   36.6870   32.3170   37.2800 H   0  0  0  0  0  0  0  0  0  0  0  0
  1  6  1  0  0  0  0
  1  2  1  0  0  0  0
  1  3  1  0  0  0  0
  4  9  1  0  0  0  0
  5  4  2  0  0  0  0
  5  6  1  0  0  0  0
  6  7  2  0  0  0  0
  7  8  1  0  0  0  0
  8 12  1  0  0  0  0
  9  8  2  0  0  0  0
 10  4  1  0  0  0  0
 11  5  1  0  0  0  0
 13 15  1  0  0  0  0
 13  1  1  0  0  0  0
 15 16  1  0  0  0  0
 15 14  2  1  0  0  0
 17 16  1  0  0  0  0
 18 15  1  0  0  0  0
 19 18  1  0  0  0  0
 19 20  2  0  0  0  0
 21 19  1  0  0  0  0
 22 21  1  0  0  0  0
 23 21  1  0  0  0  0
M  END
>  <minimizedAffinity>
-4.31374454

$$$$

 OpenBabel03252509323D

 23 23  0  0  0  0  0  0  0  0999 V2000
   40.3260   31.9860   39.5840 C   0  0  0  0  0  0  0  0  0  0  0  0
   40.8740   31.6750   38.6590 H   0  0  0  0  0  0  0  0  0  0  0  0
   39.8820   31.0690   39.9840 H   0  0  0  0  0  0  0  0  0  0  0  0
   42.7230   32.0480   42.4320 C   0  0  0  0  0  0  0  0  0  0  0  0
   41.7490   31.5900   41.5400 C   0  0  0  0  0  0  0  0  0  0  0  0
   41.3470   32.4430   40.5370 C   0  0  0  0  0  0  0  0  0  0  0  0
   41.9060   33.6880   40.4530 N   0  0  0  0  0  0  0  0  0  0  0  0
   42.8550   34.1010   41.3450 C   0  0  0  0  0  0  0  0  0  0  0  0
   43.2550   33.2860   42.3210 N   0  0  0  0  0  0  0  0  0  0  0  0
   43.0560   31.3930   43.2330 H   0  0  0  0  0  0  0  0  0  0  0  0
   41.3690   30.5790   41.6970 H   0  0  0  0  0  0  0  0  0  0  0  0
   43.2490   35.1090   41.2060 H   0  0  0  0  0  0  0  0  0  0  0  0
   39.4250   32.9900   39.2770 O   0  0  0  0  0  0  0  0  0  0  0  0
   37.4150   31.9560   37.9680 O   0  0  0  0  0  0  0  0  0  0  0  0
   37.8780   32.3190   39.3480 P   0  0  2  0  0  0  0  0  0  0  0  0
   36.8810   33.4790   40.0800 O   0  0  0  0  0  0  0  0  0  0  0  0
   37.4060   33.9100   40.8010 H   0  0  0  0  0  0  0  0  0  0  0  0
   37.9460   30.9290   40.2840 O   0  0  0  0  0  0  0  0  0  0  0  0
   37.0150   30.5610   41.2340 C   0  0  0  0  0  0  0  0  0  0  0  0
   37.5330   29.8050   42.1250 O   0  0  0  0  0  0  0  0  0  0  0  0
   35.6430   30.9240   41.3000 N   0  0  0  0  0  0  0  0  0  0  0  0
   35.7040   31.8830   41.7520 H   0  0  0  0  0  0  0  0  0  0  0  0
   35.1310   30.0970   40.8750 H   0  0  0  0  0  0  0  0  0  0  0  0
  1  3  1  0  0  0  0
  1  6  1  0  0  0  0
  2  1  1  0  0  0  0
  4 10  1  0  0  0  0
  5 11  1  0  0  0  0
  5  4  2  0  0  0  0
  6  5  1  0  0  0  0
  7  6  2  0  0  0  0
  7  8  1  0  0  0  0
  8  9  2  0  0  0  0
  9  4  1  0  0  0  0
 12  8  1  0  0  0  0
 13 15  1  0  0  0  0
 13  1  1  0  0  0  0
 15 14  2  6  0  0  0
 15 16  1  0  0  0  0
 15 18  1  0  0  0  0
 16 17  1  0  0  0  0
 18 19  1  0  0  0  0
 19 21  1  0  0  0  0
 19 20  2  0  0  0  0
 21 22  1  0  0  0  0
 23 21  1  0  0  0  0
M  END
>  <minimizedAffinity>
-4.11860991

$$$$

 OpenBabel03252509323D

 23 23  0  0  0  0  0  0  0  0999 V2000
   38.1100   30.2970   39.0300 C   0  0  0  0  0  0  0  0  0  0  0  0
   37.2870   30.7270   38.4050 H   0  0  0  0  0  0  0  0  0  0  0  0
   37.9710   29.2110   38.9890 H   0  0  0  0  0  0  0  0  0  0  0  0
   40.8420   32.2020   37.3660 C   0  0  0  0  0  0  0  0  0  0  0  0
   39.6400   31.9270   38.0250 C   0  0  0  0  0  0  0  0  0  0  0  0
   39.3660   30.6140   38.3360 C   0  0  0  0  0  0  0  0  0  0  0  0
   40.2660   29.6430   37.9940 N   0  0  0  0  0  0  0  0  0  0  0  0
   41.4310   29.9510   37.3500 C   0  0  0  0  0  0  0  0  0  0  0  0
   41.7100   31.2170   37.0420 N   0  0  0  0  0  0  0  0  0  0  0  0
   41.0800   33.2310   37.1100 H   0  0  0  0  0  0  0  0  0  0  0  0
   38.9930   32.7760   38.2510 H   0  0  0  0  0  0  0  0  0  0  0  0
   42.0930   29.1160   37.1140 H   0  0  0  0  0  0  0  0  0  0  0  0
   38.0700   30.8470   40.2990 O   0  0  0  0  0  0  0  0  0  0  0  0
   36.5210   28.7500   40.4440 O   0  0  0  0  0  0  0  0  0  0  0  0
   36.9130   29.9950   41.1830 P   0  0  2  0  0  0  0  0  0  0  0  0
   35.6050   31.0500   41.4100 O   0  0  0  0  0  0  0  0  0  0  0  0
   35.9770   31.9520   41.5790 H   0  0  0  0  0  0  0  0  0  0  0  0
   37.5840   29.5650   42.6590 O   0  0  0  0  0  0  0  0  0  0  0  0
   37.4060   28.3530   43.2930 C   0  0  0  0  0  0  0  0  0  0  0  0
   38.5210   27.8610   43.6770 O   0  0  0  0  0  0  0  0  0  0  0  0
   36.1870   27.6630   43.5350 N   0  0  0  0  0  0  0  0  0  0  0  0
   35.8420   28.1550   44.4110 H   0  0  0  0  0  0  0  0  0  0  0  0
   36.1270   26.9510   42.7500 H   0  0  0  0  0  0  0  0  0  0  0  0
  1 13  1  0  0  0  0
  2  1  1  0  0  0  0
  3  1  1  0  0  0  0
  4  5  1  0  0  0  0
  5 11  1  0  0  0  0
  5  6  2  0  0  0  0
  6  1  1  0  0  0  0
  7  6  1  0  0  0  0
  8  7  2  0  0  0  0
  9  8  1  0  0  0  0
  9  4  2  0  0  0  0
 10  4  1  0  0  0  0
 12  8  1  0  0  0  0
 13 15  1  0  0  0  0
 15 14  2  6  0  0  0
 15 16  1  0  0  0  0
 15 18  1  0  0  0  0
 16 17  1  0  0  0  0
 18 19  1  0  0  0  0
 19 21  1  0  0  0  0
 19 20  2  0  0  0  0
 21 22  1  0  0  0  0
 23 21  1  0  0  0  0
M  END
>  <minimizedAffinity>
-4.04419613

$$$$

 OpenBabel03252509323D

 23 23  0  0  0  0  0  0  0  0999 V2000
   37.0000   27.7780   41.2440 C   0  0  0  0  0  0  0  0  0  0  0  0
   36.1030   28.0010   41.8760 H   0  0  0  0  0  0  0  0  0  0  0  0
   37.8630   28.0980   41.8380 H   0  0  0  0  0  0  0  0  0  0  0  0
   36.7190   24.3430   39.8390 C   0  0  0  0  0  0  0  0  0  0  0  0
   36.6480   25.7350   39.9370 C   0  0  0  0  0  0  0  0  0  0  0  0
   37.0620   26.3160   41.1140 C   0  0  0  0  0  0  0  0  0  0  0  0
   37.5200   25.5210   42.1280 N   0  0  0  0  0  0  0  0  0  0  0  0
   37.5740   24.1620   41.9950 C   0  0  0  0  0  0  0  0  0  0  0  0
   37.1760   23.5860   40.8610 N   0  0  0  0  0  0  0  0  0  0  0  0
   36.3970   23.8610   38.9190 H   0  0  0  0  0  0  0  0  0  0  0  0
   36.2670   26.2750   39.0680 H   0  0  0  0  0  0  0  0  0  0  0  0
   37.9520   23.6030   42.8530 H   0  0  0  0  0  0  0  0  0  0  0  0
   36.8710   28.3990   40.0140 O   0  0  0  0  0  0  0  0  0  0  0  0
   36.4430   30.4630   41.5550 O   0  0  0  0  0  0  0  0  0  0  0  0
   36.0210   29.8350   40.2590 P   0  0  2  0  0  0  0  0  0  0  0  0
   34.3740   29.4320   40.2430 O   0  0  0  0  0  0  0  0  0  0  0  0
   34.2440   28.7440   39.5430 H   0  0  0  0  0  0  0  0  0  0  0  0
   36.3800   30.8860   39.0020 O   0  0  0  0  0  0  0  0  0  0  0  0
   37.0880   32.0640   39.1240 C   0  0  0  0  0  0  0  0  0  0  0  0
   37.9730   32.1720   38.2090 O   0  0  0  0  0  0  0  0  0  0  0  0
   36.9270   33.0820   40.1020 N   0  0  0  0  0  0  0  0  0  0  0  0
   36.1130   33.6320   39.6960 H   0  0  0  0  0  0  0  0  0  0  0  0
   37.6780   32.8770   40.8230 H   0  0  0  0  0  0  0  0  0  0  0  0
  1  3  1  0  0  0  0
  1  2  1  0  0  0  0
  4  5  2  0  0  0  0
  4  9  1  0  0  0  0
  5  6  1  0  0  0  0
  6  1  1  0  0  0  0
  6  7  2  0  0  0  0
  8  7  1  0  0  0  0
  8 12  1  0  0  0  0
  9  8  2  0  0  0  0
 10  4  1  0  0  0  0
 11  5  1  0  0  0  0
 13 15  1  0  0  0  0
 13  1  1  0  0  0  0
 15 14  2  1  0  0  0
 16 15  1  0  0  0  0
 17 16  1  0  0  0  0
 18 19  1  0  0  0  0
 18 15  1  0  0  0  0
 19 21  1  0  0  0  0
 20 19  2  0  0  0  0
 21 23  1  0  0  0  0
 22 21  1  0  0  0  0
M  END
>  <minimizedAffinity>
-3.99558544

$$$$

 OpenBabel03252509323D

 23 23  0  0  0  0  0  0  0  0999 V2000
   38.1270   27.9980   40.3180 C   0  0  0  0  0  0  0  0  0  0  0  0
   38.9320   28.6320   40.7690 H   0  0  0  0  0  0  0  0  0  0  0  0
   38.4310   27.8340   39.2790 H   0  0  0  0  0  0  0  0  0  0  0  0
   37.0860   24.7940   41.9020 C   0  0  0  0  0  0  0  0  0  0  0  0
   37.0070   26.0240   41.2430 C   0  0  0  0  0  0  0  0  0  0  0  0
   38.1810   26.7040   41.0100 C   0  0  0  0  0  0  0  0  0  0  0  0
   39.3630   26.1580   41.4270 N   0  0  0  0  0  0  0  0  0  0  0  0
   39.4010   24.9530   42.0690 C   0  0  0  0  0  0  0  0  0  0  0  0
   38.2720   24.2830   42.3010 N   0  0  0  0  0  0  0  0  0  0  0  0
   36.1720   24.2400   42.0970 H   0  0  0  0  0  0  0  0  0  0  0  0
   36.0120   26.3680   40.9530 H   0  0  0  0  0  0  0  0  0  0  0  0
   40.3860   24.5900   42.3680 H   0  0  0  0  0  0  0  0  0  0  0  0
   36.8990   28.6170   40.4810 O   0  0  0  0  0  0  0  0  0  0  0  0
   37.5280   29.5650   42.8310 O   0  0  0  0  0  0  0  0  0  0  0  0
   37.1450   29.9820   41.4410 P   0  0  2  0  0  0  0  0  0  0  0  0
   35.6980   30.8650   41.4080 O   0  0  0  0  0  0  0  0  0  0  0  0
   35.3380   30.8090   40.4860 H   0  0  0  0  0  0  0  0  0  0  0  0
   38.3960   30.8800   40.7770 O   0  0  0  0  0  0  0  0  0  0  0  0
   39.2250   31.7330   41.4770 C   0  0  0  0  0  0  0  0  0  0  0  0
   39.2170   32.9070   40.9730 O   0  0  0  0  0  0  0  0  0  0  0  0
   40.0200   31.4380   42.6170 N   0  0  0  0  0  0  0  0  0  0  0  0
   39.3020   31.5200   43.3970 H   0  0  0  0  0  0  0  0  0  0  0  0
   40.9900   31.2610   42.2250 H   0  0  0  0  0  0  0  0  0  0  0  0
  1 13  1  0  0  0  0
  1  2  1  0  0  0  0
  1  6  1  0  0  0  0
  3  1  1  0  0  0  0
  4 10  1  0  0  0  0
  4  9  1  0  0  0  0
  5  4  2  0  0  0  0
  6  5  1  0  0  0  0
  6  7  2  0  0  0  0
  7  8  1  0  0  0  0
  8  9  2  0  0  0  0
  8 12  1  0  0  0  0
 11  5  1  0  0  0  0
 13 15  1  0  0  0  0
 15 14  2  1  0  0  0
 16 15  1  0  0  0  0
 17 16  1  0  0  0  0
 18 15  1  0  0  0  0
 18 19  1  0  0  0  0
 19 21  1  0  0  0  0
 20 19  2  0  0  0  0
 21 22  1  0  0  0  0
 23 21  1  0  0  0  0
M  END
>  <minimizedAffinity>
-3.94262743

$$$$

 OpenBabel03252509323D

 23 23  0  0  0  0  0  0  0  0999 V2000
   39.6490   30.7060   42.3710 C   0  0  0  0  0  0  0  0  0  0  0  0
   39.9750   30.8080   43.4370 H   0  0  0  0  0  0  0  0  0  0  0  0
   40.5110   30.2900   41.8390 H   0  0  0  0  0  0  0  0  0  0  0  0
   37.6810   27.6410   43.1410 C   0  0  0  0  0  0  0  0  0  0  0  0
   38.7080   28.5890   43.1710 C   0  0  0  0  0  0  0  0  0  0  0  0
   38.5850   29.6930   42.3590 C   0  0  0  0  0  0  0  0  0  0  0  0
   37.4790   29.8180   41.5640 N   0  0  0  0  0  0  0  0  0  0  0  0
   36.4960   28.8690   41.5610 C   0  0  0  0  0  0  0  0  0  0  0  0
   36.6010   27.7950   42.3430 N   0  0  0  0  0  0  0  0  0  0  0  0
   37.7570   26.7600   43.7740 H   0  0  0  0  0  0  0  0  0  0  0  0
   39.5460   28.3910   43.8420 H   0  0  0  0  0  0  0  0  0  0  0  0
   35.6480   29.0470   40.8970 H   0  0  0  0  0  0  0  0  0  0  0  0
   39.2010   31.9270   41.9010 O   0  0  0  0  0  0  0  0  0  0  0  0
   41.1000   31.2190   40.2540 O   0  0  0  0  0  0  0  0  0  0  0  0
   40.1710   32.3490   40.5860 P   0  0  2  0  0  0  0  0  0  0  0  0
   41.0010   33.7590   41.0310 O   0  0  0  0  0  0  0  0  0  0  0  0
   40.3720   34.3240   41.5470 H   0  0  0  0  0  0  0  0  0  0  0  0
   39.1770   32.6450   39.2670 O   0  0  0  0  0  0  0  0  0  0  0  0
   37.8010   32.5470   39.2680 C   0  0  0  0  0  0  0  0  0  0  0  0
   37.3540   32.2620   38.1050 O   0  0  0  0  0  0  0  0  0  0  0  0
   36.9130   32.7200   40.3640 N   0  0  0  0  0  0  0  0  0  0  0  0
   36.9660   31.7660   40.8270 H   0  0  0  0  0  0  0  0  0  0  0  0
   36.5670   33.7190   40.2680 H   0  0  0  0  0  0  0  0  0  0  0  0
  1  2  1  0  0  0  0
  3  1  1  0  0  0  0
  4  5  1  0  0  0  0
  4 10  1  0  0  0  0
  5 11  1  0  0  0  0
  6  1  1  0  0  0  0
  6  5  2  0  0  0  0
  7  6  1  0  0  0  0
  8  7  2  0  0  0  0
  8  9  1  0  0  0  0
  9  4  2  0  0  0  0
 12  8  1  0  0  0  0
 13  1  1  0  0  0  0
 15 14  2  6  0  0  0
 15 16  1  0  0  0  0
 15 13  1  0  0  0  0
 16 17  1  0  0  0  0
 18 19  1  0  0  0  0
 18 15  1  0  0  0  0
 19 21  1  0  0  0  0
 20 19  2  0  0  0  0
 21 22  1  0  0  0  0
 23 21  1  0  0  0  0
M  END
>  <minimizedAffinity>
-3.92522693

$$$$
