
 OpenBabel03252500493D

 24 25  0  0  0  0  0  0  0  0999 V2000
   45.1120   34.4930   43.8830 C   0  0  0  0  0  0  0  0  0  0  0  0
   44.8810   33.5750   42.8700 C   0  0  0  0  0  0  0  0  0  0  0  0
   45.0710   32.2170   43.0900 C   0  0  0  0  0  0  0  0  0  0  0  0
   45.4910   31.8580   44.3480 N   0  0  0  0  0  0  0  0  0  0  0  0
   45.7120   32.7420   45.3150 C   0  0  0  0  0  0  0  0  0  0  0  0
   45.5230   34.0490   45.0840 N   0  0  0  0  0  0  0  0  0  0  0  0
   44.9790   35.5640   43.7620 H   0  0  0  0  0  0  0  0  0  0  0  0
   44.8990   31.4790   42.3180 H   0  0  0  0  0  0  0  0  0  0  0  0
   46.1580   32.3100   46.6290 C   0  0  0  0  0  0  0  0  0  0  0  0
   47.2860   31.5750   46.8110 C   0  0  0  0  0  0  0  0  0  0  0  0
   47.7350   31.1520   48.0400 C   0  0  0  0  0  0  0  0  0  0  0  0
   46.9800   31.5090   49.1100 N   0  0  0  0  0  0  0  0  0  0  0  0
   45.8760   32.2310   48.9220 C   0  0  0  0  0  0  0  0  0  0  0  0
   45.4230   32.6520   47.7250 N   0  0  0  0  0  0  0  0  0  0  0  0
   47.8290   31.3340   45.9000 H   0  0  0  0  0  0  0  0  0  0  0  0
   48.6590   30.5690   48.0250 H   0  0  0  0  0  0  0  0  0  0  0  0
   45.3520   32.4570   49.8500 H   0  0  0  0  0  0  0  0  0  0  0  0
   44.4380   34.0640   41.5740 C   0  0  0  0  0  0  0  0  0  0  0  0
   43.2170   33.9950   41.3050 O   0  0  0  0  0  0  0  0  0  0  0  0
   47.6480   34.6350   40.4590 H   0  0  0  0  0  0  0  0  0  0  0  0
   46.8060   34.2740   41.0670 C   0  0  0  0  0  0  0  0  0  0  0  0
   47.1010   33.5800   42.0740 O   0  0  0  0  0  0  0  0  0  0  0  0
   45.4480   34.5890   40.7110 N   0  0  0  0  0  0  0  0  0  0  0  0
   45.2930   35.1620   39.8690 H   0  0  0  0  0  0  0  0  0  0  0  0
  1  6  1  0  0  0  0
  2  3  1  0  0  0  0
  2  1  2  0  0  0  0
  3  4  2  0  0  0  0
  4  5  1  0  0  0  0
  5  9  1  0  0  0  0
  6  5  2  0  0  0  0
  7  1  1  0  0  0  0
  8  3  1  0  0  0  0
  9 10  2  0  0  0  0
  9 14  1  0  0  0  0
 10 11  1  0  0  0  0
 11 12  2  0  0  0  0
 13 12  1  0  0  0  0
 13 17  1  0  0  0  0
 14 13  2  0  0  0  0
 15 10  1  0  0  0  0
 16 11  1  0  0  0  0
 18  2  1  0  0  0  0
 19 18  2  0  0  0  0
 20 21  1  0  0  0  0
 21 22  2  0  0  0  0
 23 21  1  0  0  0  0
 23 18  1  0  0  0  0
 24 23  1  0  0  0  0
M  END
>  <minimizedAffinity>
-4.3529706

>  <minimizedRMSD>
2.16760826

$$$$
