
 OpenBabel03252508013D

 25 26  0  0  1  0  0  0  0  0999 V2000
   46.1820   34.6950   43.2880 C   0  0  0  0  0  0  0  0  0  0  0  0
   45.2640   35.7420   43.5960 C   0  0  0  0  0  0  0  0  0  0  0  0
   44.6230   35.6350   44.8260 C   0  0  0  0  0  0  0  0  0  0  0  0
   44.8970   34.5850   45.6310 N   0  0  0  0  0  0  0  0  0  0  0  0
   45.7960   33.6080   45.2690 C   0  0  0  0  0  0  0  0  0  0  0  0
   46.4350   33.6500   44.1190 N   0  0  0  0  0  0  0  0  0  0  0  0
   45.1150   36.5410   42.8830 H   0  0  0  0  0  0  0  0  0  0  0  0
   43.9220   36.4050   45.0990 H   0  0  0  0  0  0  0  0  0  0  0  0
   46.0500   32.4960   46.2250 C   0  0  1  0  0  0  0  0  0  0  0  0
   46.8580   32.7860   47.4730 C   0  0  0  0  0  0  0  0  0  0  0  0
   45.3650   32.6280   47.5270 C   0  0  1  0  0  0  0  0  0  0  0  0
   46.1820   31.4890   45.7860 H   0  0  0  0  0  0  0  0  0  0  0  0
   47.3100   33.7990   47.4590 H   0  0  0  0  0  0  0  0  0  0  0  0
   47.4580   31.9520   47.8820 H   0  0  0  0  0  0  0  0  0  0  0  0
   44.9870   31.7840   48.1150 H   0  0  0  0  0  0  0  0  0  0  0  0
   44.7010   33.8940   47.8650 N   0  0  0  0  0  0  0  0  0  0  0  0
   43.8090   33.7210   48.4060 H   0  0  0  0  0  0  0  0  0  0  0  0
   45.3070   34.4290   48.5300 H   0  0  0  0  0  0  0  0  0  0  0  0
   46.8620   34.8170   42.0150 C   0  0  0  0  0  0  0  0  0  0  0  0
   47.9060   35.5400   41.8420 O   0  0  0  0  0  0  0  0  0  0  0  0
   46.8390   33.4810   38.8110 H   0  0  0  0  0  0  0  0  0  0  0  0
   47.2470   34.0040   39.6600 C   0  0  0  0  0  0  0  0  0  0  0  0
   48.4060   34.5020   39.6820 O   0  0  0  0  0  0  0  0  0  0  0  0
   46.4390   34.1460   40.8260 N   0  0  0  0  0  0  0  0  0  0  0  0
   45.4740   33.7600   40.8720 H   0  0  0  0  0  0  0  0  0  0  0  0
  1  2  2  0  0  0  0
  1  6  1  0  0  0  0
  2  3  1  0  0  0  0
  3  8  1  0  0  0  0
  3  4  2  0  0  0  0
  5  4  1  0  0  0  0
  5  9  1  0  0  0  0
  6  5  2  0  0  0  0
  7  2  1  0  0  0  0
  9 12  1  6  0  0  0
  9 10  1  0  0  0  0
  9 11  1  0  0  0  0
 10 11  1  0  0  0  0
 10 14  1  0  0  0  0
 11 16  1  0  0  0  0
 11 15  1  1  0  0  0
 13 10  1  0  0  0  0
 16 17  1  0  0  0  0
 16 18  1  0  0  0  0
 19  1  1  0  0  0  0
 20 19  2  0  0  0  0
 21 22  1  0  0  0  0
 22 23  2  0  0  0  0
 22 24  1  0  0  0  0
 24 25  1  0  0  0  0
 24 19  1  0  0  0  0
M  END
>  <minimizedAffinity>
-5.27646351

>  <minimizedRMSD>
0.246931955

$$$$
