
 OpenBabel03252502283D

 31 32  0  0  0  0  0  0  0  0999 V2000
   45.0840   34.3380   41.1360 C   0  0  0  0  0  0  0  0  0  0  0  0
   45.5430   34.8090   42.3560 C   0  0  0  0  0  0  0  0  0  0  0  0
   46.9190   34.9960   42.4990 C   0  0  0  0  0  0  0  0  0  0  0  0
   47.7810   34.7170   41.4500 C   0  0  0  0  0  0  0  0  0  0  0  0
   47.3280   34.2550   40.2520 C   0  0  0  0  0  0  0  0  0  0  0  0
   45.9550   34.0780   40.1350 C   0  0  0  0  0  0  0  0  0  0  0  0
   44.8440   35.0220   43.1660 H   0  0  0  0  0  0  0  0  0  0  0  0
   47.2350   35.3650   43.4590 H   0  0  0  0  0  0  0  0  0  0  0  0
   48.8450   34.8790   41.6050 H   0  0  0  0  0  0  0  0  0  0  0  0
   47.9770   34.0230   39.4030 H   0  0  0  0  0  0  0  0  0  0  0  0
   45.7440   32.5990   37.9530 C   0  0  0  0  0  0  0  0  0  0  0  0
   46.7420   31.9350   37.9630 O   0  0  0  0  0  0  0  0  0  0  0  0
   45.3790   33.6340   38.9090 N   0  0  0  0  0  0  0  0  0  0  0  0
   44.5650   34.3520   38.9000 H   0  0  0  0  0  0  0  0  0  0  0  0
   42.6290   31.2430   37.9950 H   0  0  0  0  0  0  0  0  0  0  0  0
   43.5160   31.8500   37.7320 C   0  0  0  0  0  0  0  0  0  0  0  0
   43.7110   31.0520   38.7090 O   0  0  0  0  0  0  0  0  0  0  0  0
   44.5680   32.7650   37.2020 N   0  0  0  0  0  0  0  0  0  0  0  0
   43.7410   32.8830   36.6750 H   0  0  0  0  0  0  0  0  0  0  0  0
   41.3870   34.8400   40.5600 C   0  0  0  0  0  0  0  0  0  0  0  0
   42.7630   35.1500   40.6130 C   0  0  0  0  0  0  0  0  0  0  0  0
   43.6400   34.1610   41.0200 C   0  0  0  0  0  0  0  0  0  0  0  0
   43.1180   32.9510   41.3430 N   0  0  0  0  0  0  0  0  0  0  0  0
   41.8010   32.6670   41.2890 C   0  0  0  0  0  0  0  0  0  0  0  0
   40.9270   33.6340   40.8900 N   0  0  0  0  0  0  0  0  0  0  0  0
   43.1570   36.1120   40.3520 H   0  0  0  0  0  0  0  0  0  0  0  0
   41.4370   31.6830   41.5570 H   0  0  0  0  0  0  0  0  0  0  0  0
   40.4260   35.8860   40.1270 C   0  0  0  0  0  0  0  0  0  0  0  0
   39.1950   35.2600   39.9080 F   0  0  0  0  0  0  0  0  0  0  0  0
   40.8380   36.3250   38.8840 F   0  0  0  0  0  0  0  0  0  0  0  0
   40.2910   36.9100   41.0330 F   0  0  0  0  0  0  0  0  0  0  0  0
  1  2  1  0  0  0  0
  2  3  2  0  0  0  0
  2  7  1  0  0  0  0
  3  8  1  0  0  0  0
  4  9  1  0  0  0  0
  4  3  1  0  0  0  0
  5  4  2  0  0  0  0
  6  5  1  0  0  0  0
  6  1  2  0  0  0  0
 10  5  1  0  0  0  0
 11 12  2  0  0  0  0
 11 13  1  0  0  0  0
 13  6  1  0  0  0  0
 14 13  1  0  0  0  0
 16 15  1  0  0  0  0
 16 17  2  0  0  0  0
 18 16  1  0  0  0  0
 18 11  1  0  0  0  0
 19 18  1  0  0  0  0
 20 21  2  0  0  0  0
 20 25  1  0  0  0  0
 21 22  1  0  0  0  0
 22  1  1  0  0  0  0
 22 23  2  0  0  0  0
 24 23  1  0  0  0  0
 24 27  1  0  0  0  0
 25 24  2  0  0  0  0
 26 21  1  0  0  0  0
 28 20  1  0  0  0  0
 28 31  1  0  0  0  0
 29 28  1  0  0  0  0
 30 28  1  0  0  0  0
M  END
>  <minimizedAffinity>
-5.95926857

>  <minimizedRMSD>
0.516286314

$$$$
