
 OpenBabel03252508013D

 25 26  0  0  1  0  0  0  0  0999 V2000
   47.1480   33.0450   44.3840 C   0  0  0  0  0  0  0  0  0  0  0  0
   46.2620   34.1630   44.3830 C   0  0  0  0  0  0  0  0  0  0  0  0
   45.3470   34.2040   45.4310 C   0  0  0  0  0  0  0  0  0  0  0  0
   45.3500   33.2200   46.3570 N   0  0  0  0  0  0  0  0  0  0  0  0
   46.2360   32.1690   46.2950 C   0  0  0  0  0  0  0  0  0  0  0  0
   47.1260   32.0700   45.3300 N   0  0  0  0  0  0  0  0  0  0  0  0
   46.3390   34.8990   43.5950 H   0  0  0  0  0  0  0  0  0  0  0  0
   44.6590   35.0310   45.4690 H   0  0  0  0  0  0  0  0  0  0  0  0
   46.1820   31.1380   47.3680 C   0  0  1  0  0  0  0  0  0  0  0  0
   47.2230   31.1830   48.4670 C   0  0  0  0  0  0  0  0  0  0  0  0
   45.8160   31.6520   48.7040 C   0  0  1  0  0  0  0  0  0  0  0  0
   45.8380   30.1300   47.0670 H   0  0  0  0  0  0  0  0  0  0  0  0
   48.0280   31.9180   48.2590 H   0  0  0  0  0  0  0  0  0  0  0  0
   47.5050   30.2170   48.9240 H   0  0  0  0  0  0  0  0  0  0  0  0
   45.2360   31.0910   49.4440 H   0  0  0  0  0  0  0  0  0  0  0  0
   45.7630   33.1030   48.9260 N   0  0  0  0  0  0  0  0  0  0  0  0
   44.9710   33.3580   49.5800 H   0  0  0  0  0  0  0  0  0  0  0  0
   46.6250   33.4010   49.4380 H   0  0  0  0  0  0  0  0  0  0  0  0
   48.1110   33.0140   43.3020 C   0  0  0  0  0  0  0  0  0  0  0  0
   48.7230   34.0570   42.8760 O   0  0  0  0  0  0  0  0  0  0  0  0
   49.4030   30.8580   40.9090 H   0  0  0  0  0  0  0  0  0  0  0  0
   49.1720   31.8090   41.3600 C   0  0  0  0  0  0  0  0  0  0  0  0
   49.4850   32.9190   40.8470 O   0  0  0  0  0  0  0  0  0  0  0  0
   48.4760   31.8220   42.6030 N   0  0  0  0  0  0  0  0  0  0  0  0
   48.1900   30.9420   43.0790 H   0  0  0  0  0  0  0  0  0  0  0  0
  1  6  1  0  0  0  0
  2  1  2  0  0  0  0
  2  3  1  0  0  0  0
  3  8  1  0  0  0  0
  3  4  2  0  0  0  0
  5  4  1  0  0  0  0
  5  9  1  0  0  0  0
  6  5  2  0  0  0  0
  7  2  1  0  0  0  0
  9 12  1  6  0  0  0
  9 10  1  0  0  0  0
  9 11  1  0  0  0  0
 10 11  1  0  0  0  0
 10 14  1  0  0  0  0
 11 16  1  0  0  0  0
 11 15  1  1  0  0  0
 13 10  1  0  0  0  0
 16 18  1  0  0  0  0
 16 17  1  0  0  0  0
 19  1  1  0  0  0  0
 20 19  2  0  0  0  0
 21 22  1  0  0  0  0
 22 24  1  0  0  0  0
 23 22  2  0  0  0  0
 24 25  1  0  0  0  0
 24 19  1  0  0  0  0
M  END
>  <minimizedAffinity>
-3.89583874

>  <minimizedRMSD>
2.47476959

$$$$
