
 OpenBabel03252504003D

 30 32  0  0  0  0  0  0  0  0999 V2000
   46.1070   31.5250   45.1050 C   0  0  0  0  0  0  0  0  0  0  0  0
   45.9510   32.8780   45.4070 C   0  0  0  0  0  0  0  0  0  0  0  0
   45.6730   33.2510   46.6970 C   0  0  0  0  0  0  0  0  0  0  0  0
   45.5550   32.2760   47.6670 C   0  0  0  0  0  0  0  0  0  0  0  0
   45.2920   32.3380   48.9880 N   0  0  0  0  0  0  0  0  0  0  0  0
   45.2710   31.1210   49.5350 C   0  0  0  0  0  0  0  0  0  0  0  0
   45.5300   30.2100   48.5470 C   0  0  0  0  0  0  0  0  0  0  0  0
   45.7100   30.9220   47.3690 C   0  0  0  0  0  0  0  0  0  0  0  0
   45.9870   30.5580   46.0780 C   0  0  0  0  0  0  0  0  0  0  0  0
   46.3300   31.1230   44.1050 H   0  0  0  0  0  0  0  0  0  0  0  0
   45.5550   34.3070   46.9160 H   0  0  0  0  0  0  0  0  0  0  0  0
   45.1320   33.2420   49.4760 H   0  0  0  0  0  0  0  0  0  0  0  0
   45.0740   30.9680   50.5950 H   0  0  0  0  0  0  0  0  0  0  0  0
   45.5800   29.1350   48.6810 H   0  0  0  0  0  0  0  0  0  0  0  0
   46.0980   29.4950   45.9020 H   0  0  0  0  0  0  0  0  0  0  0  0
   47.3560   34.7200   42.5920 C   0  0  0  0  0  0  0  0  0  0  0  0
   46.3360   35.5940   42.2180 C   0  0  0  0  0  0  0  0  0  0  0  0
   45.1530   35.5400   42.9520 C   0  0  0  0  0  0  0  0  0  0  0  0
   45.0650   34.6550   43.9710 N   0  0  0  0  0  0  0  0  0  0  0  0
   46.0950   33.8170   44.2990 C   0  0  0  0  0  0  0  0  0  0  0  0
   47.2400   33.8470   43.6130 N   0  0  0  0  0  0  0  0  0  0  0  0
   46.4450   36.2890   41.3950 H   0  0  0  0  0  0  0  0  0  0  0  0
   44.3410   36.2040   42.6880 H   0  0  0  0  0  0  0  0  0  0  0  0
   48.5660   34.8140   41.7980 C   0  0  0  0  0  0  0  0  0  0  0  0
   49.2800   35.8510   41.6710 O   0  0  0  0  0  0  0  0  0  0  0  0
   48.8700   32.5370   39.1600 H   0  0  0  0  0  0  0  0  0  0  0  0
   48.5640   33.4100   39.7540 C   0  0  0  0  0  0  0  0  0  0  0  0
   47.7680   34.2200   39.1760 O   0  0  0  0  0  0  0  0  0  0  0  0
   49.0110   33.6500   41.0890 N   0  0  0  0  0  0  0  0  0  0  0  0
   49.6620   32.9280   41.4730 H   0  0  0  0  0  0  0  0  0  0  0  0
  1  2  2  0  0  0  0
  1  9  1  0  0  0  0
  2  3  1  0  0  0  0
  3 11  1  0  0  0  0
  3  4  2  0  0  0  0
  4  5  1  0  0  0  0
  5 12  1  0  0  0  0
  5  6  1  0  0  0  0
  6 13  1  0  0  0  0
  7 14  1  0  0  0  0
  7  6  2  0  0  0  0
  8  4  1  0  0  0  0
  8  7  1  0  0  0  0
  9  8  2  0  0  0  0
 10  1  1  0  0  0  0
 15  9  1  0  0  0  0
 16 21  1  0  0  0  0
 17 16  2  0  0  0  0
 17 18  1  0  0  0  0
 18 19  2  0  0  0  0
 19 20  1  0  0  0  0
 20  2  1  0  0  0  0
 21 20  2  0  0  0  0
 22 17  1  0  0  0  0
 23 18  1  0  0  0  0
 24 16  1  0  0  0  0
 25 24  2  0  0  0  0
 26 27  1  0  0  0  0
 27 29  1  0  0  0  0
 28 27  2  0  0  0  0
 29 30  1  0  0  0  0
 29 24  1  0  0  0  0
M  END
>  <minimizedAffinity>
-5.90711021

>  <minimizedRMSD>
0.672896624

$$$$
