
 OpenBabel03252502283D

 31 32  0  0  0  0  0  0  0  0999 V2000
   45.1540   34.4300   41.2400 C   0  0  0  0  0  0  0  0  0  0  0  0
   45.5530   35.0090   42.4340 C   0  0  0  0  0  0  0  0  0  0  0  0
   46.9180   35.2370   42.6150 C   0  0  0  0  0  0  0  0  0  0  0  0
   47.8280   34.8920   41.6280 C   0  0  0  0  0  0  0  0  0  0  0  0
   47.4340   34.3240   40.4550 C   0  0  0  0  0  0  0  0  0  0  0  0
   46.0700   34.1080   40.2990 C   0  0  0  0  0  0  0  0  0  0  0  0
   44.8180   35.2720   43.1950 H   0  0  0  0  0  0  0  0  0  0  0  0
   47.1880   35.6890   43.5540 H   0  0  0  0  0  0  0  0  0  0  0  0
   48.8820   35.0890   41.8120 H   0  0  0  0  0  0  0  0  0  0  0  0
   48.1210   34.0380   39.6550 H   0  0  0  0  0  0  0  0  0  0  0  0
   45.4900   32.1980   38.5640 C   0  0  0  0  0  0  0  0  0  0  0  0
   45.9970   31.2210   39.0380 O   0  0  0  0  0  0  0  0  0  0  0  0
   45.5530   33.5530   39.0920 N   0  0  0  0  0  0  0  0  0  0  0  0
   45.2290   34.4970   38.6630 H   0  0  0  0  0  0  0  0  0  0  0  0
   43.6040   30.5660   36.2550 H   0  0  0  0  0  0  0  0  0  0  0  0
   44.1160   31.3570   36.8370 C   0  0  0  0  0  0  0  0  0  0  0  0
   44.3430   30.1750   37.2640 O   0  0  0  0  0  0  0  0  0  0  0  0
   44.6990   32.5770   37.4660 N   0  0  0  0  0  0  0  0  0  0  0  0
   44.1430   32.8440   36.6950 H   0  0  0  0  0  0  0  0  0  0  0  0
   41.4580   34.8370   40.5850 C   0  0  0  0  0  0  0  0  0  0  0  0
   42.8220   35.1870   40.6820 C   0  0  0  0  0  0  0  0  0  0  0  0
   43.7190   34.2130   41.0820 C   0  0  0  0  0  0  0  0  0  0  0  0
   43.2270   32.9780   41.3540 N   0  0  0  0  0  0  0  0  0  0  0  0
   41.9220   32.6570   41.2580 C   0  0  0  0  0  0  0  0  0  0  0  0
   41.0280   33.6080   40.8660 N   0  0  0  0  0  0  0  0  0  0  0  0
   43.1920   36.1680   40.4610 H   0  0  0  0  0  0  0  0  0  0  0  0
   41.5810   31.6540   41.4880 H   0  0  0  0  0  0  0  0  0  0  0  0
   40.4760   35.8660   40.1590 C   0  0  0  0  0  0  0  0  0  0  0  0
   39.2470   35.2250   39.9770 F   0  0  0  0  0  0  0  0  0  0  0  0
   40.8550   36.2920   38.9020 F   0  0  0  0  0  0  0  0  0  0  0  0
   40.3500   36.9030   41.0540 F   0  0  0  0  0  0  0  0  0  0  0  0
  1  2  1  0  0  0  0
  2  3  2  0  0  0  0
  2  7  1  0  0  0  0
  3  8  1  0  0  0  0
  4  9  1  0  0  0  0
  4  3  1  0  0  0  0
  5  4  2  0  0  0  0
  6  5  1  0  0  0  0
  6  1  2  0  0  0  0
 10  5  1  0  0  0  0
 11 12  2  0  0  0  0
 11 13  1  0  0  0  0
 13  6  1  0  0  0  0
 14 13  1  0  0  0  0
 15 16  1  0  0  0  0
 16 17  2  0  0  0  0
 16 18  1  0  0  0  0
 18 11  1  0  0  0  0
 19 18  1  0  0  0  0
 20 21  2  0  0  0  0
 20 25  1  0  0  0  0
 21 22  1  0  0  0  0
 22  1  1  0  0  0  0
 22 23  2  0  0  0  0
 24 23  1  0  0  0  0
 24 27  1  0  0  0  0
 25 24  2  0  0  0  0
 26 21  1  0  0  0  0
 28 20  1  0  0  0  0
 28 31  1  0  0  0  0
 29 28  1  0  0  0  0
 30 28  1  0  0  0  0
M  END
>  <minimizedAffinity>
-5.82580614

>  <minimizedRMSD>
0.0750019252

$$$$
