
 OpenBabel03252508013D

 25 26  0  0  1  0  0  0  0  0999 V2000
   46.2380   34.7490   43.2470 C   0  0  0  0  0  0  0  0  0  0  0  0
   45.2830   35.7480   43.6020 C   0  0  0  0  0  0  0  0  0  0  0  0
   44.6470   35.5600   44.8250 C   0  0  0  0  0  0  0  0  0  0  0  0
   44.9580   34.4840   45.5810 N   0  0  0  0  0  0  0  0  0  0  0  0
   45.8910   33.5580   45.1740 C   0  0  0  0  0  0  0  0  0  0  0  0
   46.5290   33.6760   44.0290 N   0  0  0  0  0  0  0  0  0  0  0  0
   45.1050   36.5720   42.9270 H   0  0  0  0  0  0  0  0  0  0  0  0
   43.9180   36.2910   45.1330 H   0  0  0  0  0  0  0  0  0  0  0  0
   46.1870   32.4120   46.0780 C   0  0  1  0  0  0  0  0  0  0  0  0
   47.0270   32.6640   47.3130 C   0  0  0  0  0  0  0  0  0  0  0  0
   45.5380   32.4840   47.4030 C   0  0  1  0  0  0  0  0  0  0  0  0
   46.3170   31.4250   45.5960 H   0  0  0  0  0  0  0  0  0  0  0  0
   47.4680   33.6810   47.3260 H   0  0  0  0  0  0  0  0  0  0  0  0
   47.6480   31.8220   47.6700 H   0  0  0  0  0  0  0  0  0  0  0  0
   45.1870   31.6140   47.9680 H   0  0  0  0  0  0  0  0  0  0  0  0
   44.8710   33.7280   47.8100 N   0  0  0  0  0  0  0  0  0  0  0  0
   43.9970   33.5240   48.3690 H   0  0  0  0  0  0  0  0  0  0  0  0
   45.4890   34.2440   48.4780 H   0  0  0  0  0  0  0  0  0  0  0  0
   46.9120   34.9550   41.9810 C   0  0  0  0  0  0  0  0  0  0  0  0
   48.0380   35.5600   41.8750 O   0  0  0  0  0  0  0  0  0  0  0  0
   46.5940   33.3110   38.9400 H   0  0  0  0  0  0  0  0  0  0  0  0
   47.0660   33.5890   39.8680 C   0  0  0  0  0  0  0  0  0  0  0  0
   48.1880   33.1480   40.2400 O   0  0  0  0  0  0  0  0  0  0  0  0
   46.3940   34.5060   40.7270 N   0  0  0  0  0  0  0  0  0  0  0  0
   45.4660   34.9080   40.4790 H   0  0  0  0  0  0  0  0  0  0  0  0
  1  2  2  0  0  0  0
  1  6  1  0  0  0  0
  2  3  1  0  0  0  0
  3  8  1  0  0  0  0
  3  4  2  0  0  0  0
  5  4  1  0  0  0  0
  5  9  1  0  0  0  0
  6  5  2  0  0  0  0
  7  2  1  0  0  0  0
  9 12  1  6  0  0  0
  9 10  1  0  0  0  0
  9 11  1  0  0  0  0
 10 13  1  0  0  0  0
 10 11  1  0  0  0  0
 10 14  1  0  0  0  0
 11 16  1  0  0  0  0
 11 15  1  1  0  0  0
 16 17  1  0  0  0  0
 16 18  1  0  0  0  0
 19  1  1  0  0  0  0
 20 19  2  0  0  0  0
 21 22  1  0  0  0  0
 22 23  2  0  0  0  0
 22 24  1  0  0  0  0
 24 19  1  0  0  0  0
 25 24  1  0  0  0  0
M  END
>  <minimizedAffinity>
-5.26957369

>  <minimizedRMSD>
0.0395746008

$$$$
