
 OpenBabel03252503103D

 23 24  0  0  0  0  0  0  0  0999 V2000
   45.2630   36.1900   43.2390 C   0  0  0  0  0  0  0  0  0  0  0  0
   45.9040   34.9760   42.9270 C   0  0  0  0  0  0  0  0  0  0  0  0
   45.8600   34.0180   43.9160 C   0  0  0  0  0  0  0  0  0  0  0  0
   45.2420   34.2300   45.1060 N   0  0  0  0  0  0  0  0  0  0  0  0
   44.6330   35.4210   45.3650 C   0  0  0  0  0  0  0  0  0  0  0  0
   44.6500   36.3930   44.4260 N   0  0  0  0  0  0  0  0  0  0  0  0
   45.2200   37.0240   42.5580 H   0  0  0  0  0  0  0  0  0  0  0  0
   44.1560   35.5580   46.3090 H   0  0  0  0  0  0  0  0  0  0  0  0
   46.4660   32.7810   43.7050 C   0  0  0  0  0  0  0  0  0  0  0  0
   47.7370   32.3010   43.8520 C   0  0  0  0  0  0  0  0  0  0  0  0
   48.1160   31.0680   43.5830 C   0  0  0  0  0  0  0  0  0  0  0  0
   47.1250   30.2350   43.1240 C   0  0  0  0  0  0  0  0  0  0  0  0
   45.6360   31.3260   43.1050 S   0  0  0  0  0  0  0  0  0  0  0  0
   48.6080   32.8110   44.2350 H   0  0  0  0  0  0  0  0  0  0  0  0
   48.9810   30.4580   43.6010 H   0  0  0  0  0  0  0  0  0  0  0  0
   46.9170   29.2430   42.7940 H   0  0  0  0  0  0  0  0  0  0  0  0
   46.5160   34.7940   41.6640 C   0  0  0  0  0  0  0  0  0  0  0  0
   47.7780   35.0260   41.6400 O   0  0  0  0  0  0  0  0  0  0  0  0
   43.4770   33.9360   40.3910 H   0  0  0  0  0  0  0  0  0  0  0  0
   44.2540   34.2380   41.0780 C   0  0  0  0  0  0  0  0  0  0  0  0
   43.8840   34.4420   42.2850 O   0  0  0  0  0  0  0  0  0  0  0  0
   45.6110   34.3820   40.5940 N   0  0  0  0  0  0  0  0  0  0  0  0
   45.8800   34.2060   39.5980 H   0  0  0  0  0  0  0  0  0  0  0  0
  1  6  1  0  0  0  0
  2  1  2  0  0  0  0
  2  3  1  0  0  0  0
  3  4  2  0  0  0  0
  4  5  1  0  0  0  0
  5  8  1  0  0  0  0
  6  5  2  0  0  0  0
  7  1  1  0  0  0  0
  9 10  2  0  0  0  0
  9  3  1  0  0  0  0
 10 14  1  0  0  0  0
 11 15  1  0  0  0  0
 11 10  1  0  0  0  0
 12 11  2  0  0  0  0
 13 12  1  0  0  0  0
 13  9  1  0  0  0  0
 16 12  1  0  0  0  0
 17  2  1  0  0  0  0
 18 17  2  0  0  0  0
 19 20  1  0  0  0  0
 20 21  2  0  0  0  0
 22 20  1  0  0  0  0
 22 17  1  0  0  0  0
 23 22  1  0  0  0  0
M  END
>  <minimizedAffinity>
-4.35522509

>  <minimizedRMSD>
0.98671186

$$$$
