
 OpenBabel03252508013D

 25 26  0  0  1  0  0  0  0  0999 V2000
   46.2590   34.7380   43.2490 C   0  0  0  0  0  0  0  0  0  0  0  0
   45.3050   35.7640   43.5220 C   0  0  0  0  0  0  0  0  0  0  0  0
   44.6190   35.6380   44.7260 C   0  0  0  0  0  0  0  0  0  0  0  0
   44.8840   34.5900   45.5380 N   0  0  0  0  0  0  0  0  0  0  0  0
   45.8190   33.6360   45.2090 C   0  0  0  0  0  0  0  0  0  0  0  0
   46.5020   33.6970   44.0860 N   0  0  0  0  0  0  0  0  0  0  0  0
   45.1660   36.5610   42.8060 H   0  0  0  0  0  0  0  0  0  0  0  0
   43.8890   36.3900   44.9730 H   0  0  0  0  0  0  0  0  0  0  0  0
   46.0610   32.5260   46.1720 C   0  0  1  0  0  0  0  0  0  0  0  0
   46.8510   32.8200   47.4300 C   0  0  0  0  0  0  0  0  0  0  0  0
   45.3570   32.6610   47.4640 C   0  0  1  0  0  0  0  0  0  0  0  0
   46.1990   31.5180   45.7370 H   0  0  0  0  0  0  0  0  0  0  0  0
   47.3040   33.8330   47.4190 H   0  0  0  0  0  0  0  0  0  0  0  0
   47.4460   31.9880   47.8480 H   0  0  0  0  0  0  0  0  0  0  0  0
   44.9720   31.8200   48.0490 H   0  0  0  0  0  0  0  0  0  0  0  0
   44.6900   33.9290   47.7900 N   0  0  0  0  0  0  0  0  0  0  0  0
   43.7900   33.7570   48.3190 H   0  0  0  0  0  0  0  0  0  0  0  0
   45.2860   34.4650   48.4620 H   0  0  0  0  0  0  0  0  0  0  0  0
   46.9850   34.8810   42.0040 C   0  0  0  0  0  0  0  0  0  0  0  0
   48.1980   35.2920   41.9410 O   0  0  0  0  0  0  0  0  0  0  0  0
   45.0680   33.4350   39.4990 H   0  0  0  0  0  0  0  0  0  0  0  0
   45.4260   33.5910   40.5030 C   0  0  0  0  0  0  0  0  0  0  0  0
   45.0080   32.9410   41.5020 O   0  0  0  0  0  0  0  0  0  0  0  0
   46.4270   34.5790   40.7240 N   0  0  0  0  0  0  0  0  0  0  0  0
   46.8150   35.1490   39.9420 H   0  0  0  0  0  0  0  0  0  0  0  0
  1  2  2  0  0  0  0
  1  6  1  0  0  0  0
  2  3  1  0  0  0  0
  3  8  1  0  0  0  0
  3  4  2  0  0  0  0
  5  4  1  0  0  0  0
  5  9  1  0  0  0  0
  6  5  2  0  0  0  0
  7  2  1  0  0  0  0
  9 12  1  6  0  0  0
  9 10  1  0  0  0  0
  9 11  1  0  0  0  0
 10 11  1  0  0  0  0
 10 14  1  0  0  0  0
 11 16  1  0  0  0  0
 11 15  1  1  0  0  0
 13 10  1  0  0  0  0
 16 17  1  0  0  0  0
 16 18  1  0  0  0  0
 19  1  1  0  0  0  0
 20 19  2  0  0  0  0
 21 22  1  0  0  0  0
 22 24  1  0  0  0  0
 22 23  2  0  0  0  0
 24 19  1  0  0  0  0
 25 24  1  0  0  0  0
M  END
>  <minimizedAffinity>
-5.15669775

>  <minimizedRMSD>
0.179014057

$$$$
