
 OpenBabel03252502283D

 31 32  0  0  0  0  0  0  0  0999 V2000
   45.1920   34.3090   41.1120 C   0  0  0  0  0  0  0  0  0  0  0  0
   45.6120   35.1350   42.1420 C   0  0  0  0  0  0  0  0  0  0  0  0
   46.9840   35.3530   42.2770 C   0  0  0  0  0  0  0  0  0  0  0  0
   47.8820   34.7560   41.4040 C   0  0  0  0  0  0  0  0  0  0  0  0
   47.4670   33.9440   40.3930 C   0  0  0  0  0  0  0  0  0  0  0  0
   46.0970   33.7450   40.2800 C   0  0  0  0  0  0  0  0  0  0  0  0
   44.8860   35.5940   42.8150 H   0  0  0  0  0  0  0  0  0  0  0  0
   47.2700   36.0020   43.0860 H   0  0  0  0  0  0  0  0  0  0  0  0
   48.9410   34.9530   41.5460 H   0  0  0  0  0  0  0  0  0  0  0  0
   48.1440   33.4550   39.6870 H   0  0  0  0  0  0  0  0  0  0  0  0
   45.5670   31.5090   38.9690 C   0  0  0  0  0  0  0  0  0  0  0  0
   46.1660   30.6720   39.5830 O   0  0  0  0  0  0  0  0  0  0  0  0
   45.5610   32.9420   39.2310 N   0  0  0  0  0  0  0  0  0  0  0  0
   45.1490   33.7650   38.6570 H   0  0  0  0  0  0  0  0  0  0  0  0
   44.9050   33.8980   36.6440 H   0  0  0  0  0  0  0  0  0  0  0  0
   44.8900   32.9620   37.2340 C   0  0  0  0  0  0  0  0  0  0  0  0
   45.7210   33.8290   37.6670 O   0  0  0  0  0  0  0  0  0  0  0  0
   44.6970   31.6260   37.8720 N   0  0  0  0  0  0  0  0  0  0  0  0
   44.0850   31.7090   37.1010 H   0  0  0  0  0  0  0  0  0  0  0  0
   41.4880   34.7550   40.5380 C   0  0  0  0  0  0  0  0  0  0  0  0
   42.8590   35.0850   40.5890 C   0  0  0  0  0  0  0  0  0  0  0  0
   43.7510   34.1100   40.9980 C   0  0  0  0  0  0  0  0  0  0  0  0
   43.2470   32.8920   41.3220 N   0  0  0  0  0  0  0  0  0  0  0  0
   41.9350   32.5900   41.2690 C   0  0  0  0  0  0  0  0  0  0  0  0
   41.0460   33.5430   40.8690 N   0  0  0  0  0  0  0  0  0  0  0  0
   43.2390   36.0530   40.3270 H   0  0  0  0  0  0  0  0  0  0  0  0
   41.5840   31.6010   41.5390 H   0  0  0  0  0  0  0  0  0  0  0  0
   40.5110   35.7860   40.1040 C   0  0  0  0  0  0  0  0  0  0  0  0
   39.2880   35.1430   39.8910 F   0  0  0  0  0  0  0  0  0  0  0  0
   40.9140   36.2260   38.8580 F   0  0  0  0  0  0  0  0  0  0  0  0
   40.3650   36.8120   41.0070 F   0  0  0  0  0  0  0  0  0  0  0  0
  1  2  1  0  0  0  0
  2  3  2  0  0  0  0
  2  7  1  0  0  0  0
  3  8  1  0  0  0  0
  4  9  1  0  0  0  0
  4  3  1  0  0  0  0
  5  4  2  0  0  0  0
  6  5  1  0  0  0  0
  6  1  2  0  0  0  0
 10  5  1  0  0  0  0
 11 13  1  0  0  0  0
 11 12  2  0  0  0  0
 13  6  1  0  0  0  0
 14 13  1  0  0  0  0
 15 16  1  0  0  0  0
 16 17  2  0  0  0  0
 16 18  1  0  0  0  0
 18 11  1  0  0  0  0
 19 18  1  0  0  0  0
 20 21  2  0  0  0  0
 20 25  1  0  0  0  0
 21 22  1  0  0  0  0
 22  1  1  0  0  0  0
 22 23  2  0  0  0  0
 24 23  1  0  0  0  0
 24 27  1  0  0  0  0
 25 24  2  0  0  0  0
 26 21  1  0  0  0  0
 28 20  1  0  0  0  0
 28 31  1  0  0  0  0
 29 28  1  0  0  0  0
 30 28  1  0  0  0  0
M  END
>  <minimizedAffinity>
-5.7854166

>  <minimizedRMSD>
0.441444159

$$$$
