
 OpenBabel03252503103D

 23 24  0  0  0  0  0  0  0  0999 V2000
   36.5400   30.1920   38.1320 C   0  0  0  0  0  0  0  0  0  0  0  0
   36.5410   29.5640   39.3930 C   0  0  0  0  0  0  0  0  0  0  0  0
   37.5730   28.6760   39.6050 C   0  0  0  0  0  0  0  0  0  0  0  0
   38.5210   28.4270   38.6660 N   0  0  0  0  0  0  0  0  0  0  0  0
   38.4810   29.0580   37.4590 C   0  0  0  0  0  0  0  0  0  0  0  0
   37.4870   29.9380   37.2030 N   0  0  0  0  0  0  0  0  0  0  0  0
   35.7920   30.9080   37.8340 H   0  0  0  0  0  0  0  0  0  0  0  0
   39.2400   28.8410   36.7420 H   0  0  0  0  0  0  0  0  0  0  0  0
   37.6640   28.0020   40.8210 C   0  0  0  0  0  0  0  0  0  0  0  0
   37.0960   26.8690   41.3310 C   0  0  0  0  0  0  0  0  0  0  0  0
   37.3120   26.3910   42.5400 C   0  0  0  0  0  0  0  0  0  0  0  0
   38.1830   27.1200   43.3120 C   0  0  0  0  0  0  0  0  0  0  0  0
   38.6620   28.5150   42.2020 S   0  0  0  0  0  0  0  0  0  0  0  0
   36.4300   26.1720   40.8430 H   0  0  0  0  0  0  0  0  0  0  0  0
   37.0260   25.5840   43.1620 H   0  0  0  0  0  0  0  0  0  0  0  0
   38.6560   27.1690   44.2660 H   0  0  0  0  0  0  0  0  0  0  0  0
   35.5430   29.8740   40.3470 C   0  0  0  0  0  0  0  0  0  0  0  0
   34.5400   29.0730   40.3550 O   0  0  0  0  0  0  0  0  0  0  0  0
   37.4080   32.5470   41.3300 H   0  0  0  0  0  0  0  0  0  0  0  0
   37.0810   31.6610   40.8050 C   0  0  0  0  0  0  0  0  0  0  0  0
   37.8700   31.2240   39.8990 O   0  0  0  0  0  0  0  0  0  0  0  0
   35.8140   31.0570   41.1600 N   0  0  0  0  0  0  0  0  0  0  0  0
   35.1910   31.4410   41.9080 H   0  0  0  0  0  0  0  0  0  0  0  0
  1  2  1  0  0  0  0
  2  3  2  0  0  0  0
  2 17  1  0  0  0  0
  3  9  1  0  0  0  0
  4  3  1  0  0  0  0
  5  4  2  0  0  0  0
  6  5  1  0  0  0  0
  6  1  2  0  0  0  0
  7  1  1  0  0  0  0
  8  5  1  0  0  0  0
  9 10  2  0  0  0  0
  9 13  1  0  0  0  0
 10 11  1  0  0  0  0
 11 15  1  0  0  0  0
 11 12  2  0  0  0  0
 12 16  1  0  0  0  0
 13 12  1  0  0  0  0
 14 10  1  0  0  0  0
 17 18  2  0  0  0  0
 17 22  1  0  0  0  0
 20 22  1  0  0  0  0
 20 19  1  0  0  0  0
 21 20  2  0  0  0  0
 22 23  1  0  0  0  0
M  END
>  <minimizedAffinity>
-4.60076094

$$$$

 OpenBabel03252503103D

 23 24  0  0  0  0  0  0  0  0999 V2000
   35.8770   28.4900   40.7290 C   0  0  0  0  0  0  0  0  0  0  0  0
   36.7700   27.8070   41.5780 C   0  0  0  0  0  0  0  0  0  0  0  0
   37.6090   26.9130   40.9490 C   0  0  0  0  0  0  0  0  0  0  0  0
   37.5760   26.7060   39.6090 N   0  0  0  0  0  0  0  0  0  0  0  0
   36.6960   27.3900   38.8250 C   0  0  0  0  0  0  0  0  0  0  0  0
   35.8510   28.2780   39.3960 N   0  0  0  0  0  0  0  0  0  0  0  0
   35.1660   29.2170   41.0870 H   0  0  0  0  0  0  0  0  0  0  0  0
   36.6940   27.2060   37.7740 H   0  0  0  0  0  0  0  0  0  0  0  0
   38.5290   26.1860   41.7010 C   0  0  0  0  0  0  0  0  0  0  0  0
   38.5140   24.9630   42.3100 C   0  0  0  0  0  0  0  0  0  0  0  0
   39.5130   24.4470   42.9990 C   0  0  0  0  0  0  0  0  0  0  0  0
   40.6350   25.2340   43.0840 C   0  0  0  0  0  0  0  0  0  0  0  0
   40.1670   26.7390   42.1240 S   0  0  0  0  0  0  0  0  0  0  0  0
   37.7330   24.2180   42.3020 H   0  0  0  0  0  0  0  0  0  0  0  0
   39.7640   23.5760   43.5450 H   0  0  0  0  0  0  0  0  0  0  0  0
   41.6230   25.2860   43.4810 H   0  0  0  0  0  0  0  0  0  0  0  0
   36.7800   28.0730   42.9680 C   0  0  0  0  0  0  0  0  0  0  0  0
   36.1130   27.2390   43.6800 O   0  0  0  0  0  0  0  0  0  0  0  0
   38.7300   30.7980   42.3630 H   0  0  0  0  0  0  0  0  0  0  0  0
   38.1370   29.9070   42.2160 C   0  0  0  0  0  0  0  0  0  0  0  0
   38.0220   29.5050   41.0070 O   0  0  0  0  0  0  0  0  0  0  0  0
   37.5400   29.2560   43.3630 N   0  0  0  0  0  0  0  0  0  0  0  0
   37.6560   29.6120   44.3410 H   0  0  0  0  0  0  0  0  0  0  0  0
  1  7  1  0  0  0  0
  1  2  1  0  0  0  0
  2 17  1  0  0  0  0
  3  2  2  0  0  0  0
  3  9  1  0  0  0  0
  4  3  1  0  0  0  0
  5  6  1  0  0  0  0
  5  4  2  0  0  0  0
  6  1  2  0  0  0  0
  8  5  1  0  0  0  0
  9 13  1  0  0  0  0
  9 10  2  0  0  0  0
 10 11  1  0  0  0  0
 11 12  2  0  0  0  0
 11 15  1  0  0  0  0
 12 16  1  0  0  0  0
 13 12  1  0  0  0  0
 14 10  1  0  0  0  0
 17 22  1  0  0  0  0
 17 18  2  0  0  0  0
 20 19  1  0  0  0  0
 20 22  1  0  0  0  0
 21 20  2  0  0  0  0
 22 23  1  0  0  0  0
M  END
>  <minimizedAffinity>
-4.43884993

$$$$

 OpenBabel03252503103D

 23 24  0  0  0  0  0  0  0  0999 V2000
   39.5090   27.0250   43.0230 C   0  0  0  0  0  0  0  0  0  0  0  0
   38.6950   27.9280   42.3120 C   0  0  0  0  0  0  0  0  0  0  0  0
   38.4220   27.5710   41.0090 C   0  0  0  0  0  0  0  0  0  0  0  0
   38.9030   26.4310   40.4530 N   0  0  0  0  0  0  0  0  0  0  0  0
   39.6870   25.5850   41.1780 C   0  0  0  0  0  0  0  0  0  0  0  0
   39.9840   25.8920   42.4610 N   0  0  0  0  0  0  0  0  0  0  0  0
   39.8000   27.1790   44.0490 H   0  0  0  0  0  0  0  0  0  0  0  0
   40.0500   24.6970   40.7130 H   0  0  0  0  0  0  0  0  0  0  0  0
   37.6260   28.3980   40.2210 C   0  0  0  0  0  0  0  0  0  0  0  0
   36.2850   28.4780   39.9690 C   0  0  0  0  0  0  0  0  0  0  0  0
   35.7160   29.3520   39.1630 C   0  0  0  0  0  0  0  0  0  0  0  0
   36.5750   30.2320   38.5520 C   0  0  0  0  0  0  0  0  0  0  0  0
   38.2270   29.7270   39.2010 S   0  0  0  0  0  0  0  0  0  0  0  0
   35.4850   27.8920   40.3960 H   0  0  0  0  0  0  0  0  0  0  0  0
   34.7600   29.6270   38.8010 H   0  0  0  0  0  0  0  0  0  0  0  0
   36.6290   31.0550   37.8760 H   0  0  0  0  0  0  0  0  0  0  0  0
   38.1990   29.0930   42.9430 C   0  0  0  0  0  0  0  0  0  0  0  0
   38.9230   30.1410   42.7820 O   0  0  0  0  0  0  0  0  0  0  0  0
   35.5630   27.2690   44.0910 H   0  0  0  0  0  0  0  0  0  0  0  0
   36.4800   27.5450   43.5910 C   0  0  0  0  0  0  0  0  0  0  0  0
   37.0730   26.6090   42.9520 O   0  0  0  0  0  0  0  0  0  0  0  0
   36.9510   28.9120   43.6800 N   0  0  0  0  0  0  0  0  0  0  0  0
   36.4400   29.6550   44.2120 H   0  0  0  0  0  0  0  0  0  0  0  0
  1  7  1  0  0  0  0
  2 17  1  0  0  0  0
  2  1  2  0  0  0  0
  3  2  1  0  0  0  0
  4  3  2  0  0  0  0
  4  5  1  0  0  0  0
  5  6  2  0  0  0  0
  6  1  1  0  0  0  0
  8  5  1  0  0  0  0
  9  3  1  0  0  0  0
 10  9  2  0  0  0  0
 10 14  1  0  0  0  0
 11 10  1  0  0  0  0
 12 11  2  0  0  0  0
 12 13  1  0  0  0  0
 13  9  1  0  0  0  0
 15 11  1  0  0  0  0
 16 12  1  0  0  0  0
 17 22  1  0  0  0  0
 18 17  2  0  0  0  0
 20 22  1  0  0  0  0
 20 19  1  0  0  0  0
 21 20  2  0  0  0  0
 22 23  1  0  0  0  0
M  END
>  <minimizedAffinity>
-4.36835909

$$$$

 OpenBabel03252503103D

 23 24  0  0  0  0  0  0  0  0999 V2000
   37.9530   27.1620   40.7820 C   0  0  0  0  0  0  0  0  0  0  0  0
   37.6030   28.5260   40.7600 C   0  0  0  0  0  0  0  0  0  0  0  0
   38.3760   29.3170   39.9380 C   0  0  0  0  0  0  0  0  0  0  0  0
   39.4000   28.8160   39.2020 N   0  0  0  0  0  0  0  0  0  0  0  0
   39.7040   27.4880   39.2530 C   0  0  0  0  0  0  0  0  0  0  0  0
   38.9740   26.6710   40.0460 N   0  0  0  0  0  0  0  0  0  0  0  0
   37.4330   26.4320   41.3790 H   0  0  0  0  0  0  0  0  0  0  0  0
   40.5150   27.1250   38.6640 H   0  0  0  0  0  0  0  0  0  0  0  0
   38.1110   30.6810   39.8460 C   0  0  0  0  0  0  0  0  0  0  0  0
   37.2880   31.4450   39.0680 C   0  0  0  0  0  0  0  0  0  0  0  0
   37.1860   32.7580   39.1340 C   0  0  0  0  0  0  0  0  0  0  0  0
   37.9880   33.3620   40.0720 C   0  0  0  0  0  0  0  0  0  0  0  0
   38.8810   31.9410   40.8390 S   0  0  0  0  0  0  0  0  0  0  0  0
   36.5760   31.1220   38.3230 H   0  0  0  0  0  0  0  0  0  0  0  0
   36.6640   33.5600   38.6830 H   0  0  0  0  0  0  0  0  0  0  0  0
   38.2640   34.3020   40.4930 H   0  0  0  0  0  0  0  0  0  0  0  0
   36.5120   28.9960   41.5280 C   0  0  0  0  0  0  0  0  0  0  0  0
   35.3990   29.0670   40.8930 O   0  0  0  0  0  0  0  0  0  0  0  0
   38.6060   29.2980   44.1950 H   0  0  0  0  0  0  0  0  0  0  0  0
   38.2300   29.0930   43.2030 C   0  0  0  0  0  0  0  0  0  0  0  0
   39.0840   28.6460   42.3630 O   0  0  0  0  0  0  0  0  0  0  0  0
   36.8320   29.3310   42.9130 N   0  0  0  0  0  0  0  0  0  0  0  0
   36.1590   29.6980   43.6260 H   0  0  0  0  0  0  0  0  0  0  0  0
  1  7  1  0  0  0  0
  2  1  1  0  0  0  0
  2 17  1  0  0  0  0
  3  2  2  0  0  0  0
  4  5  2  0  0  0  0
  4  3  1  0  0  0  0
  5  6  1  0  0  0  0
  6  1  2  0  0  0  0
  8  5  1  0  0  0  0
  9  3  1  0  0  0  0
  9 13  1  0  0  0  0
 10 11  1  0  0  0  0
 10  9  2  0  0  0  0
 11 12  2  0  0  0  0
 12 16  1  0  0  0  0
 12 13  1  0  0  0  0
 14 10  1  0  0  0  0
 15 11  1  0  0  0  0
 17 22  1  0  0  0  0
 18 17  2  0  0  0  0
 20 19  1  0  0  0  0
 21 20  2  0  0  0  0
 22 20  1  0  0  0  0
 22 23  1  0  0  0  0
M  END
>  <minimizedAffinity>
-4.31385422

$$$$

 OpenBabel03252503103D

 23 24  0  0  0  0  0  0  0  0999 V2000
   36.5220   27.8520   42.3630 C   0  0  0  0  0  0  0  0  0  0  0  0
   36.5440   28.6850   41.2270 C   0  0  0  0  0  0  0  0  0  0  0  0
   37.4890   29.6870   41.2520 C   0  0  0  0  0  0  0  0  0  0  0  0
   38.3380   29.8570   42.2970 N   0  0  0  0  0  0  0  0  0  0  0  0
   38.2830   29.0270   43.3760 C   0  0  0  0  0  0  0  0  0  0  0  0
   37.3710   28.0280   43.3980 N   0  0  0  0  0  0  0  0  0  0  0  0
   35.8350   27.0300   42.4750 H   0  0  0  0  0  0  0  0  0  0  0  0
   38.9630   29.1860   44.1810 H   0  0  0  0  0  0  0  0  0  0  0  0
   37.5910   30.5650   40.1760 C   0  0  0  0  0  0  0  0  0  0  0  0
   37.0160   31.7640   39.8620 C   0  0  0  0  0  0  0  0  0  0  0  0
   37.2470   32.4500   38.7600 C   0  0  0  0  0  0  0  0  0  0  0  0
   38.1410   31.8770   37.8890 C   0  0  0  0  0  0  0  0  0  0  0  0
   38.6200   30.3140   38.7460 S   0  0  0  0  0  0  0  0  0  0  0  0
   36.3320   32.3570   40.4520 H   0  0  0  0  0  0  0  0  0  0  0  0
   36.9600   33.3500   38.2840 H   0  0  0  0  0  0  0  0  0  0  0  0
   38.6310   32.0020   36.9510 H   0  0  0  0  0  0  0  0  0  0  0  0
   35.6510   28.4530   40.1530 C   0  0  0  0  0  0  0  0  0  0  0  0
   34.5900   29.1750   40.1710 O   0  0  0  0  0  0  0  0  0  0  0  0
   37.7980   26.0910   38.9680 H   0  0  0  0  0  0  0  0  0  0  0  0
   37.3600   26.8640   39.5820 C   0  0  0  0  0  0  0  0  0  0  0  0
   38.0380   27.2150   40.6080 O   0  0  0  0  0  0  0  0  0  0  0  0
   36.0800   27.4260   39.2070 N   0  0  0  0  0  0  0  0  0  0  0  0
   35.5500   27.1160   38.3590 H   0  0  0  0  0  0  0  0  0  0  0  0
  1  7  1  0  0  0  0
  1  6  1  0  0  0  0
  2  3  1  0  0  0  0
  2  1  2  0  0  0  0
  3  4  2  0  0  0  0
  4  5  1  0  0  0  0
  5  6  2  0  0  0  0
  5  8  1  0  0  0  0
  9  3  1  0  0  0  0
 10  9  2  0  0  0  0
 10 14  1  0  0  0  0
 11 10  1  0  0  0  0
 12 13  1  0  0  0  0
 12 11  2  0  0  0  0
 13  9  1  0  0  0  0
 15 11  1  0  0  0  0
 16 12  1  0  0  0  0
 17 18  2  0  0  0  0
 17  2  1  0  0  0  0
 19 20  1  0  0  0  0
 20 21  2  0  0  0  0
 22 20  1  0  0  0  0
 22 17  1  0  0  0  0
 23 22  1  0  0  0  0
M  END
>  <minimizedAffinity>
-4.24305344

$$$$

 OpenBabel03252503103D

 23 24  0  0  0  0  0  0  0  0999 V2000
   37.0090   25.0160   41.7150 C   0  0  0  0  0  0  0  0  0  0  0  0
   37.0420   26.4210   41.8160 C   0  0  0  0  0  0  0  0  0  0  0  0
   36.8410   27.0990   40.6340 C   0  0  0  0  0  0  0  0  0  0  0  0
   36.6250   26.4600   39.4570 N   0  0  0  0  0  0  0  0  0  0  0  0
   36.6000   25.0980   39.4050 C   0  0  0  0  0  0  0  0  0  0  0  0
   36.7930   24.3870   40.5390 N   0  0  0  0  0  0  0  0  0  0  0  0
   37.1510   24.3630   42.5590 H   0  0  0  0  0  0  0  0  0  0  0  0
   36.4290   24.6240   38.4650 H   0  0  0  0  0  0  0  0  0  0  0  0
   36.8560   28.4920   40.6280 C   0  0  0  0  0  0  0  0  0  0  0  0
   35.9020   29.4590   40.7730 C   0  0  0  0  0  0  0  0  0  0  0  0
   36.1260   30.7580   40.7270 C   0  0  0  0  0  0  0  0  0  0  0  0
   37.4330   31.1200   40.5160 C   0  0  0  0  0  0  0  0  0  0  0  0
   38.3040   29.4980   40.3910 S   0  0  0  0  0  0  0  0  0  0  0  0
   34.8490   29.3390   40.9820 H   0  0  0  0  0  0  0  0  0  0  0  0
   35.6090   31.6780   40.8020 H   0  0  0  0  0  0  0  0  0  0  0  0
   38.0900   31.9530   40.4060 H   0  0  0  0  0  0  0  0  0  0  0  0
   37.2490   27.0420   43.0710 C   0  0  0  0  0  0  0  0  0  0  0  0
   36.1750   27.4030   43.6740 O   0  0  0  0  0  0  0  0  0  0  0  0
   40.6030   26.6550   42.6350 H   0  0  0  0  0  0  0  0  0  0  0  0
   39.5360   26.6230   42.4700 C   0  0  0  0  0  0  0  0  0  0  0  0
   39.1560   26.0820   41.3750 O   0  0  0  0  0  0  0  0  0  0  0  0
   38.6470   27.1770   43.4690 N   0  0  0  0  0  0  0  0  0  0  0  0
   38.9920   27.6130   44.3560 H   0  0  0  0  0  0  0  0  0  0  0  0
  1  2  1  0  0  0  0
  1  7  1  0  0  0  0
  2 17  1  0  0  0  0
  3  2  2  0  0  0  0
  4  3  1  0  0  0  0
  5  4  2  0  0  0  0
  5  6  1  0  0  0  0
  6  1  2  0  0  0  0
  8  5  1  0  0  0  0
  9  3  1  0  0  0  0
  9 10  2  0  0  0  0
 10 14  1  0  0  0  0
 11 10  1  0  0  0  0
 11 15  1  0  0  0  0
 12 11  2  0  0  0  0
 13 12  1  0  0  0  0
 13  9  1  0  0  0  0
 16 12  1  0  0  0  0
 17 22  1  0  0  0  0
 17 18  2  0  0  0  0
 20 19  1  0  0  0  0
 20 22  1  0  0  0  0
 21 20  2  0  0  0  0
 22 23  1  0  0  0  0
M  END
>  <minimizedAffinity>
-4.23155308

$$$$

 OpenBabel03252503103D

 23 24  0  0  0  0  0  0  0  0999 V2000
   37.3200   33.1690   39.7550 C   0  0  0  0  0  0  0  0  0  0  0  0
   37.5400   31.8660   40.2420 C   0  0  0  0  0  0  0  0  0  0  0  0
   38.7350   31.6800   40.9020 C   0  0  0  0  0  0  0  0  0  0  0  0
   39.6340   32.6820   41.0710 N   0  0  0  0  0  0  0  0  0  0  0  0
   39.3800   33.9290   40.5840 C   0  0  0  0  0  0  0  0  0  0  0  0
   38.2210   34.1610   39.9270 N   0  0  0  0  0  0  0  0  0  0  0  0
   36.4290   33.4540   39.2200 H   0  0  0  0  0  0  0  0  0  0  0  0
   40.1060   34.6960   40.7320 H   0  0  0  0  0  0  0  0  0  0  0  0
   39.0470   30.4260   41.4210 C   0  0  0  0  0  0  0  0  0  0  0  0
   38.8390   29.8090   42.6230 C   0  0  0  0  0  0  0  0  0  0  0  0
   39.2300   28.5880   42.9250 C   0  0  0  0  0  0  0  0  0  0  0  0
   39.8940   27.9200   41.9260 C   0  0  0  0  0  0  0  0  0  0  0  0
   39.9180   29.1450   40.5460 S   0  0  0  0  0  0  0  0  0  0  0  0
   38.3050   30.1800   43.4850 H   0  0  0  0  0  0  0  0  0  0  0  0
   39.2070   27.8980   43.7280 H   0  0  0  0  0  0  0  0  0  0  0  0
   40.3740   27.0010   41.6730 H   0  0  0  0  0  0  0  0  0  0  0  0
   36.5620   30.8600   40.0590 C   0  0  0  0  0  0  0  0  0  0  0  0
   35.7780   30.6860   41.0610 O   0  0  0  0  0  0  0  0  0  0  0  0
   37.8180   30.2950   36.9460 H   0  0  0  0  0  0  0  0  0  0  0  0
   37.6690   30.7070   37.9340 C   0  0  0  0  0  0  0  0  0  0  0  0
   38.4670   31.6460   38.2740 O   0  0  0  0  0  0  0  0  0  0  0  0
   36.6090   30.1810   38.7670 N   0  0  0  0  0  0  0  0  0  0  0  0
   35.9720   29.4110   38.4560 H   0  0  0  0  0  0  0  0  0  0  0  0
  1  6  2  0  0  0  0
  1  2  1  0  0  0  0
  2  3  2  0  0  0  0
  3  4  1  0  0  0  0
  3  9  1  0  0  0  0
  5  8  1  0  0  0  0
  5  4  2  0  0  0  0
  6  5  1  0  0  0  0
  7  1  1  0  0  0  0
  9 10  2  0  0  0  0
 10 11  1  0  0  0  0
 10 14  1  0  0  0  0
 11 15  1  0  0  0  0
 12 11  2  0  0  0  0
 13  9  1  0  0  0  0
 13 12  1  0  0  0  0
 16 12  1  0  0  0  0
 17  2  1  0  0  0  0
 17 18  2  0  0  0  0
 19 20  1  0  0  0  0
 20 21  2  0  0  0  0
 20 22  1  0  0  0  0
 22 17  1  0  0  0  0
 23 22  1  0  0  0  0
M  END
>  <minimizedAffinity>
-4.20765543

$$$$

 OpenBabel03252503103D

 23 24  0  0  0  0  0  0  0  0999 V2000
   36.9020   27.3610   41.0920 C   0  0  0  0  0  0  0  0  0  0  0  0
   37.1850   28.5800   40.4460 C   0  0  0  0  0  0  0  0  0  0  0  0
   37.5200   29.6240   41.2810 C   0  0  0  0  0  0  0  0  0  0  0  0
   37.5720   29.4860   42.6290 N   0  0  0  0  0  0  0  0  0  0  0  0
   37.2910   28.2870   43.2130 C   0  0  0  0  0  0  0  0  0  0  0  0
   36.9560   27.2330   42.4360 N   0  0  0  0  0  0  0  0  0  0  0  0
   36.6270   26.4650   40.5620 H   0  0  0  0  0  0  0  0  0  0  0  0
   37.3400   28.2100   44.2760 H   0  0  0  0  0  0  0  0  0  0  0  0
   37.8180   30.8710   40.7380 C   0  0  0  0  0  0  0  0  0  0  0  0
   37.0740   31.9590   40.3760 C   0  0  0  0  0  0  0  0  0  0  0  0
   37.5600   33.0710   39.8600 C   0  0  0  0  0  0  0  0  0  0  0  0
   38.9230   33.0930   39.6920 C   0  0  0  0  0  0  0  0  0  0  0  0
   39.4500   31.4380   40.3140 S   0  0  0  0  0  0  0  0  0  0  0  0
   36.0100   32.1120   40.4810 H   0  0  0  0  0  0  0  0  0  0  0  0
   37.2380   34.0150   39.5070 H   0  0  0  0  0  0  0  0  0  0  0  0
   39.7390   33.6880   39.3510 H   0  0  0  0  0  0  0  0  0  0  0  0
   37.1390   28.6680   39.0340 C   0  0  0  0  0  0  0  0  0  0  0  0
   38.2650   28.4830   38.4470 O   0  0  0  0  0  0  0  0  0  0  0  0
   33.8020   29.3080   39.2510 H   0  0  0  0  0  0  0  0  0  0  0  0
   34.8260   29.0910   39.5210 C   0  0  0  0  0  0  0  0  0  0  0  0
   35.0590   28.9680   40.7720 O   0  0  0  0  0  0  0  0  0  0  0  0
   35.8210   28.9610   38.4780 N   0  0  0  0  0  0  0  0  0  0  0  0
   35.5950   29.0680   37.4610 H   0  0  0  0  0  0  0  0  0  0  0  0
  1  6  1  0  0  0  0
  2  1  2  0  0  0  0
  2  3  1  0  0  0  0
  3  4  2  0  0  0  0
  4  5  1  0  0  0  0
  5  8  1  0  0  0  0
  6  5  2  0  0  0  0
  7  1  1  0  0  0  0
  9  3  1  0  0  0  0
 10 14  1  0  0  0  0
 10  9  2  0  0  0  0
 11 10  1  0  0  0  0
 12 11  2  0  0  0  0
 12 13  1  0  0  0  0
 13  9  1  0  0  0  0
 15 11  1  0  0  0  0
 16 12  1  0  0  0  0
 17  2  1  0  0  0  0
 18 17  2  0  0  0  0
 19 20  1  0  0  0  0
 20 21  2  0  0  0  0
 22 17  1  0  0  0  0
 22 20  1  0  0  0  0
 23 22  1  0  0  0  0
M  END
>  <minimizedAffinity>
-4.19648361

$$$$

 OpenBabel03252503103D

 23 24  0  0  0  0  0  0  0  0999 V2000
   39.0210   31.7520   38.0350 C   0  0  0  0  0  0  0  0  0  0  0  0
   38.4200   31.1770   39.1720 C   0  0  0  0  0  0  0  0  0  0  0  0
   39.2210   30.3140   39.8870 C   0  0  0  0  0  0  0  0  0  0  0  0
   40.4990   30.0400   39.5230 N   0  0  0  0  0  0  0  0  0  0  0  0
   41.0420   30.6200   38.4150 C   0  0  0  0  0  0  0  0  0  0  0  0
   40.2940   31.4730   37.6790 N   0  0  0  0  0  0  0  0  0  0  0  0
   38.5090   32.4430   37.3860 H   0  0  0  0  0  0  0  0  0  0  0  0
   42.0490   30.3850   38.1540 H   0  0  0  0  0  0  0  0  0  0  0  0
   38.7190   29.6940   41.0280 C   0  0  0  0  0  0  0  0  0  0  0  0
   38.6980   30.0090   42.3580 C   0  0  0  0  0  0  0  0  0  0  0  0
   38.1650   29.2630   43.3050 C   0  0  0  0  0  0  0  0  0  0  0  0
   37.5980   28.0870   42.8770 C   0  0  0  0  0  0  0  0  0  0  0  0
   37.8780   28.1260   41.0530 S   0  0  0  0  0  0  0  0  0  0  0  0
   39.0610   30.9020   42.8430 H   0  0  0  0  0  0  0  0  0  0  0  0
   38.0140   29.2580   44.3520 H   0  0  0  0  0  0  0  0  0  0  0  0
   37.0840   27.2110   43.1990 H   0  0  0  0  0  0  0  0  0  0  0  0
   37.0900   31.5120   39.5240 C   0  0  0  0  0  0  0  0  0  0  0  0
   36.1990   30.6910   39.0990 O   0  0  0  0  0  0  0  0  0  0  0  0
   38.2800   34.2680   41.1300 H   0  0  0  0  0  0  0  0  0  0  0  0
   38.2360   33.3500   40.5600 C   0  0  0  0  0  0  0  0  0  0  0  0
   39.3580   32.8870   40.1590 O   0  0  0  0  0  0  0  0  0  0  0  0
   36.9490   32.7380   40.3050 N   0  0  0  0  0  0  0  0  0  0  0  0
   36.0480   33.1450   40.6490 H   0  0  0  0  0  0  0  0  0  0  0  0
  1  2  1  0  0  0  0
  2 17  1  0  0  0  0
  2  3  2  0  0  0  0
  3  9  1  0  0  0  0
  4  3  1  0  0  0  0
  5  4  2  0  0  0  0
  6  1  2  0  0  0  0
  6  5  1  0  0  0  0
  7  1  1  0  0  0  0
  8  5  1  0  0  0  0
  9 13  1  0  0  0  0
  9 10  2  0  0  0  0
 10 14  1  0  0  0  0
 10 11  1  0  0  0  0
 11 15  1  0  0  0  0
 12 16  1  0  0  0  0
 12 11  2  0  0  0  0
 13 12  1  0  0  0  0
 17 22  1  0  0  0  0
 18 17  2  0  0  0  0
 20 19  1  0  0  0  0
 21 20  2  0  0  0  0
 22 20  1  0  0  0  0
 22 23  1  0  0  0  0
M  END
>  <minimizedAffinity>
-4.19229364

$$$$
