
 OpenBabel03252504013D

 30 32  0  0  0  0  0  0  0  0999 V2000
   46.0630   31.7190   45.1420 C   0  0  0  0  0  0  0  0  0  0  0  0
   45.8100   33.0300   45.5440 C   0  0  0  0  0  0  0  0  0  0  0  0
   45.5240   33.2870   46.8600 C   0  0  0  0  0  0  0  0  0  0  0  0
   45.4940   32.2390   47.7570 C   0  0  0  0  0  0  0  0  0  0  0  0
   45.2460   32.1850   49.0810 N   0  0  0  0  0  0  0  0  0  0  0  0
   45.3250   30.9340   49.5380 C   0  0  0  0  0  0  0  0  0  0  0  0
   45.6380   30.1180   48.4840 C   0  0  0  0  0  0  0  0  0  0  0  0
   45.7460   30.9260   47.3590 C   0  0  0  0  0  0  0  0  0  0  0  0
   46.0310   30.6780   46.0430 C   0  0  0  0  0  0  0  0  0  0  0  0
   46.3010   31.4080   44.1140 H   0  0  0  0  0  0  0  0  0  0  0  0
   45.3300   34.3120   47.1570 H   0  0  0  0  0  0  0  0  0  0  0  0
   45.0250   33.0360   49.6350 H   0  0  0  0  0  0  0  0  0  0  0  0
   45.1550   30.6900   50.5860 H   0  0  0  0  0  0  0  0  0  0  0  0
   45.7700   29.0440   48.5390 H   0  0  0  0  0  0  0  0  0  0  0  0
   46.2190   29.6410   45.7880 H   0  0  0  0  0  0  0  0  0  0  0  0
   46.8950   34.9790   42.6600 C   0  0  0  0  0  0  0  0  0  0  0  0
   45.9460   35.9970   42.5630 C   0  0  0  0  0  0  0  0  0  0  0  0
   44.9240   36.0020   43.5100 C   0  0  0  0  0  0  0  0  0  0  0  0
   44.9120   35.0330   44.4540 N   0  0  0  0  0  0  0  0  0  0  0  0
   45.8670   34.0560   44.5060 C   0  0  0  0  0  0  0  0  0  0  0  0
   46.8580   34.0260   43.6120 N   0  0  0  0  0  0  0  0  0  0  0  0
   45.9900   36.7550   41.7930 H   0  0  0  0  0  0  0  0  0  0  0  0
   44.1700   36.7760   43.4650 H   0  0  0  0  0  0  0  0  0  0  0  0
   47.9380   35.0170   41.6520 C   0  0  0  0  0  0  0  0  0  0  0  0
   49.1030   35.4790   41.8220 O   0  0  0  0  0  0  0  0  0  0  0  0
   46.2270   33.2380   39.1730 H   0  0  0  0  0  0  0  0  0  0  0  0
   46.5010   33.6690   40.1470 C   0  0  0  0  0  0  0  0  0  0  0  0
   45.7180   33.3900   41.1140 O   0  0  0  0  0  0  0  0  0  0  0  0
   47.6500   34.4920   40.3490 N   0  0  0  0  0  0  0  0  0  0  0  0
   48.2280   34.6620   39.4950 H   0  0  0  0  0  0  0  0  0  0  0  0
  1  2  2  0  0  0  0
  1  9  1  0  0  0  0
  2  3  1  0  0  0  0
  3 11  1  0  0  0  0
  3  4  2  0  0  0  0
  4  5  1  0  0  0  0
  5  6  1  0  0  0  0
  5 12  1  0  0  0  0
  6 13  1  0  0  0  0
  7 14  1  0  0  0  0
  7  6  2  0  0  0  0
  8  4  1  0  0  0  0
  8  7  1  0  0  0  0
  9  8  2  0  0  0  0
 10  1  1  0  0  0  0
 15  9  1  0  0  0  0
 16 21  1  0  0  0  0
 17 16  2  0  0  0  0
 17 18  1  0  0  0  0
 18 19  2  0  0  0  0
 19 20  1  0  0  0  0
 20  2  1  0  0  0  0
 21 20  2  0  0  0  0
 22 17  1  0  0  0  0
 23 18  1  0  0  0  0
 24 25  2  0  0  0  0
 24 16  1  0  0  0  0
 26 27  1  0  0  0  0
 27 29  1  0  0  0  0
 27 28  2  0  0  0  0
 29 24  1  0  0  0  0
 30 29  1  0  0  0  0
M  END
>  <minimizedAffinity>
-5.78238964

>  <minimizedRMSD>
0.484019488

$$$$
