
 OpenBabel03252508013D

 25 26  0  0  1  0  0  0  0  0999 V2000
   46.1190   34.4880   43.4940 C   0  0  0  0  0  0  0  0  0  0  0  0
   45.2120   35.5100   43.9030 C   0  0  0  0  0  0  0  0  0  0  0  0
   44.6840   35.3660   45.1830 C   0  0  0  0  0  0  0  0  0  0  0  0
   45.0460   34.3050   45.9380 N   0  0  0  0  0  0  0  0  0  0  0  0
   45.9280   33.3540   45.4770 C   0  0  0  0  0  0  0  0  0  0  0  0
   46.4630   33.4320   44.2770 N   0  0  0  0  0  0  0  0  0  0  0  0
   44.9860   36.3190   43.2240 H   0  0  0  0  0  0  0  0  0  0  0  0
   43.9940   36.1150   45.5320 H   0  0  0  0  0  0  0  0  0  0  0  0
   46.2860   32.2290   46.3830 C   0  0  1  0  0  0  0  0  0  0  0  0
   47.1550   32.5200   47.5890 C   0  0  0  0  0  0  0  0  0  0  0  0
   45.6760   32.2950   47.7270 C   0  0  1  0  0  0  0  0  0  0  0  0
   46.4330   31.2410   45.9070 H   0  0  0  0  0  0  0  0  0  0  0  0
   47.5630   33.5510   47.5790 H   0  0  0  0  0  0  0  0  0  0  0  0
   47.8130   31.7020   47.9360 H   0  0  0  0  0  0  0  0  0  0  0  0
   45.3700   31.4210   48.3100 H   0  0  0  0  0  0  0  0  0  0  0  0
   44.9820   33.5220   48.1410 N   0  0  0  0  0  0  0  0  0  0  0  0
   44.1320   33.2960   48.7280 H   0  0  0  0  0  0  0  0  0  0  0  0
   45.6030   34.0640   48.7850 H   0  0  0  0  0  0  0  0  0  0  0  0
   46.6820   34.6490   42.1690 C   0  0  0  0  0  0  0  0  0  0  0  0
   47.5390   35.5560   41.8760 O   0  0  0  0  0  0  0  0  0  0  0  0
   44.9460   33.2350   39.5170 H   0  0  0  0  0  0  0  0  0  0  0  0
   45.1120   33.9070   40.3420 C   0  0  0  0  0  0  0  0  0  0  0  0
   44.2750   34.7750   40.7140 O   0  0  0  0  0  0  0  0  0  0  0  0
   46.3400   33.8170   41.0590 N   0  0  0  0  0  0  0  0  0  0  0  0
   47.0740   33.1230   40.8020 H   0  0  0  0  0  0  0  0  0  0  0  0
  1  2  2  0  0  0  0
  1  6  1  0  0  0  0
  2  3  1  0  0  0  0
  3  8  1  0  0  0  0
  3  4  2  0  0  0  0
  5  4  1  0  0  0  0
  5  9  1  0  0  0  0
  6  5  2  0  0  0  0
  7  2  1  0  0  0  0
  9 12  1  6  0  0  0
  9 10  1  0  0  0  0
  9 11  1  0  0  0  0
 10 11  1  0  0  0  0
 10 14  1  0  0  0  0
 11 16  1  0  0  0  0
 11 15  1  1  0  0  0
 13 10  1  0  0  0  0
 16 17  1  0  0  0  0
 16 18  1  0  0  0  0
 19  1  1  0  0  0  0
 20 19  2  0  0  0  0
 21 22  1  0  0  0  0
 22 23  2  0  0  0  0
 22 24  1  0  0  0  0
 24 19  1  0  0  0  0
 25 24  1  0  0  0  0
M  END
>  <minimizedAffinity>
-4.96127987

>  <minimizedRMSD>
0.697161257

$$$$
