
 OpenBabel03252502283D

 31 32  0  0  0  0  0  0  0  0999 V2000
   45.1490   34.4300   41.2300 C   0  0  0  0  0  0  0  0  0  0  0  0
   45.5550   35.0110   42.4200 C   0  0  0  0  0  0  0  0  0  0  0  0
   46.9210   35.2380   42.5950 C   0  0  0  0  0  0  0  0  0  0  0  0
   47.8260   34.8880   41.6050 C   0  0  0  0  0  0  0  0  0  0  0  0
   47.4250   34.3180   40.4350 C   0  0  0  0  0  0  0  0  0  0  0  0
   46.0600   34.1040   40.2860 C   0  0  0  0  0  0  0  0  0  0  0  0
   44.8230   35.2780   43.1840 H   0  0  0  0  0  0  0  0  0  0  0  0
   47.1950   35.6920   43.5310 H   0  0  0  0  0  0  0  0  0  0  0  0
   48.8800   35.0840   41.7830 H   0  0  0  0  0  0  0  0  0  0  0  0
   48.1080   34.0280   39.6330 H   0  0  0  0  0  0  0  0  0  0  0  0
   45.6320   32.2300   38.4690 C   0  0  0  0  0  0  0  0  0  0  0  0
   46.3120   31.3150   38.8400 O   0  0  0  0  0  0  0  0  0  0  0  0
   45.5370   33.5470   39.0820 N   0  0  0  0  0  0  0  0  0  0  0  0
   45.0460   34.4530   38.7420 H   0  0  0  0  0  0  0  0  0  0  0  0
   44.7500   30.8740   35.4810 H   0  0  0  0  0  0  0  0  0  0  0  0
   44.8090   31.5320   36.3690 C   0  0  0  0  0  0  0  0  0  0  0  0
   45.6300   30.5530   36.3990 O   0  0  0  0  0  0  0  0  0  0  0  0
   44.7100   32.5460   37.4580 N   0  0  0  0  0  0  0  0  0  0  0  0
   44.0620   32.7700   36.7460 H   0  0  0  0  0  0  0  0  0  0  0  0
   41.4500   34.8420   40.5910 C   0  0  0  0  0  0  0  0  0  0  0  0
   42.8150   35.1890   40.6810 C   0  0  0  0  0  0  0  0  0  0  0  0
   43.7130   34.2150   41.0790 C   0  0  0  0  0  0  0  0  0  0  0  0
   43.2200   32.9810   41.3560 N   0  0  0  0  0  0  0  0  0  0  0  0
   41.9140   32.6620   41.2670 C   0  0  0  0  0  0  0  0  0  0  0  0
   41.0200   33.6140   40.8770 N   0  0  0  0  0  0  0  0  0  0  0  0
   43.1870   36.1700   40.4560 H   0  0  0  0  0  0  0  0  0  0  0  0
   41.5730   31.6600   41.4990 H   0  0  0  0  0  0  0  0  0  0  0  0
   40.4680   35.8720   40.1680 C   0  0  0  0  0  0  0  0  0  0  0  0
   39.2390   35.2310   39.9870 F   0  0  0  0  0  0  0  0  0  0  0  0
   40.8450   36.2990   38.9100 F   0  0  0  0  0  0  0  0  0  0  0  0
   40.3440   36.9070   41.0640 F   0  0  0  0  0  0  0  0  0  0  0  0
  1  2  1  0  0  0  0
  2  3  2  0  0  0  0
  2  7  1  0  0  0  0
  3  8  1  0  0  0  0
  4  9  1  0  0  0  0
  4  3  1  0  0  0  0
  5  4  2  0  0  0  0
  6  5  1  0  0  0  0
  6  1  2  0  0  0  0
 10  5  1  0  0  0  0
 11 12  2  0  0  0  0
 11 13  1  0  0  0  0
 13  6  1  0  0  0  0
 14 13  1  0  0  0  0
 15 16  1  0  0  0  0
 16 17  2  0  0  0  0
 16 18  1  0  0  0  0
 18 11  1  0  0  0  0
 19 18  1  0  0  0  0
 20 21  2  0  0  0  0
 20 25  1  0  0  0  0
 21 22  1  0  0  0  0
 22  1  1  0  0  0  0
 22 23  2  0  0  0  0
 24 23  1  0  0  0  0
 24 27  1  0  0  0  0
 25 24  2  0  0  0  0
 26 21  1  0  0  0  0
 28 20  1  0  0  0  0
 28 31  1  0  0  0  0
 29 28  1  0  0  0  0
 30 28  1  0  0  0  0
M  END
>  <minimizedAffinity>
-5.87102365

>  <minimizedRMSD>
0.171088532

$$$$
