
 OpenBabel03242513513D

 30 31  0  0  1  0  0  0  0  0999 V2000
   35.9950   28.1520   40.5440 C   0  0  2  0  0  0  0  0  0  0  0  0
   36.3620   27.6570   39.1550 C   0  0  0  0  0  0  0  0  0  0  0  0
   35.0910   28.0370   38.4220 C   0  0  0  0  0  0  0  0  0  0  0  0
   34.6830   29.3240   39.0190 C   0  0  0  0  0  0  0  0  0  0  0  0
   35.6230   29.5660   40.2920 C   0  0  2  0  0  0  0  0  0  0  0  0
   35.1070   27.6260   40.9040 H   0  0  0  0  0  0  0  0  0  0  0  0
   37.2030   28.2330   38.7420 H   0  0  0  0  0  0  0  0  0  0  0  0
   36.5030   26.5830   39.0810 H   0  0  0  0  0  0  0  0  0  0  0  0
   34.3150   27.2460   38.5110 H   0  0  0  0  0  0  0  0  0  0  0  0
   35.3420   28.2280   37.3400 H   0  0  0  0  0  0  0  0  0  0  0  0
   33.6500   29.2270   39.3960 H   0  0  0  0  0  0  0  0  0  0  0  0
   34.7900   30.2220   38.4130 H   0  0  0  0  0  0  0  0  0  0  0  0
   34.9080   30.1520   40.7960 H   0  0  0  0  0  0  0  0  0  0  0  0
   38.0830   28.0870   43.6800 C   0  0  0  0  0  0  0  0  0  0  0  0
   36.9470   28.2350   42.8620 C   0  0  0  0  0  0  0  0  0  0  0  0
   37.1030   28.0280   41.5240 C   0  0  0  0  0  0  0  0  0  0  0  0
   38.3510   27.6890   41.0690 N   0  0  0  0  0  0  0  0  0  0  0  0
   39.4200   27.5510   41.8530 C   0  0  0  0  0  0  0  0  0  0  0  0
   39.2880   27.7490   43.1550 N   0  0  0  0  0  0  0  0  0  0  0  0
   37.8740   28.2710   44.7420 H   0  0  0  0  0  0  0  0  0  0  0  0
   35.9760   28.4990   43.2180 H   0  0  0  0  0  0  0  0  0  0  0  0
   40.3800   27.2810   41.4230 H   0  0  0  0  0  0  0  0  0  0  0  0
   36.7020   30.3300   39.8030 O   0  0  0  0  0  0  0  0  0  0  0  0
   37.1540   31.5470   40.2060 C   0  0  0  0  0  0  0  0  0  0  0  0
   38.1000   31.3570   41.0520 O   0  0  0  0  0  0  0  0  0  0  0  0
   37.6920   34.9720   40.2050 H   0  0  0  0  0  0  0  0  0  0  0  0
   38.0740   33.9420   40.3080 C   0  0  0  0  0  0  0  0  0  0  0  0
   39.2230   33.5270   40.5370 O   0  0  0  0  0  0  0  0  0  0  0  0
   37.0920   32.9660   40.1520 N   0  0  0  0  0  0  0  0  0  0  0  0
   36.1030   33.2210   39.9590 H   0  0  0  0  0  0  0  0  0  0  0  0
  1  6  1  1  0  0  0
  1 16  1  0  0  0  0
  2  1  1  0  0  0  0
  3  9  1  0  0  0  0
  3  4  1  0  0  0  0
  3  2  1  0  0  0  0
  4 11  1  0  0  0  0
  4  5  1  0  0  0  0
  5  1  1  0  0  0  0
  5 13  1  1  0  0  0
  7  2  1  0  0  0  0
  8  2  1  0  0  0  0
 10  3  1  0  0  0  0
 12  4  1  0  0  0  0
 14 20  1  0  0  0  0
 15 21  1  0  0  0  0
 15 14  2  0  0  0  0
 16 15  1  0  0  0  0
 17 16  2  0  0  0  0
 17 18  1  0  0  0  0
 18 19  2  0  0  0  0
 19 14  1  0  0  0  0
 22 18  1  0  0  0  0
 23 24  1  0  0  0  0
 23  5  1  0  0  0  0
 24 25  2  0  0  0  0
 26 27  1  0  0  0  0
 27 28  2  0  0  0  0
 29 24  1  0  0  0  0
 29 27  1  0  0  0  0
 30 29  1  0  0  0  0
M  END
>  <minimizedAffinity>
-4.63680315

$$$$

 OpenBabel03242513513D

 30 31  0  0  1  0  0  0  0  0999 V2000
   35.9500   28.1600   40.5000 C   0  0  2  0  0  0  0  0  0  0  0  0
   36.2670   27.6710   39.0970 C   0  0  0  0  0  0  0  0  0  0  0  0
   34.9530   28.0090   38.4230 C   0  0  0  0  0  0  0  0  0  0  0  0
   34.5340   29.2860   39.0340 C   0  0  0  0  0  0  0  0  0  0  0  0
   35.5240   29.5610   40.2620 C   0  0  2  0  0  0  0  0  0  0  0  0
   35.0960   27.6090   40.9020 H   0  0  0  0  0  0  0  0  0  0  0  0
   37.0700   28.2710   38.6440 H   0  0  0  0  0  0  0  0  0  0  0  0
   36.4380   26.6020   39.0190 H   0  0  0  0  0  0  0  0  0  0  0  0
   34.2070   27.1960   38.5500 H   0  0  0  0  0  0  0  0  0  0  0  0
   35.1480   28.2030   37.3290 H   0  0  0  0  0  0  0  0  0  0  0  0
   33.5230   29.1600   39.4580 H   0  0  0  0  0  0  0  0  0  0  0  0
   34.5860   30.1840   38.4210 H   0  0  0  0  0  0  0  0  0  0  0  0
   34.8150   30.1280   40.7970 H   0  0  0  0  0  0  0  0  0  0  0  0
   39.3320   27.5530   42.0460 C   0  0  0  0  0  0  0  0  0  0  0  0
   38.3230   27.5790   41.0660 C   0  0  0  0  0  0  0  0  0  0  0  0
   37.1050   28.0740   41.4280 C   0  0  0  0  0  0  0  0  0  0  0  0
   36.9490   28.5120   42.7180 N   0  0  0  0  0  0  0  0  0  0  0  0
   37.9130   28.4820   43.6380 C   0  0  0  0  0  0  0  0  0  0  0  0
   39.1010   28.0040   43.3050 N   0  0  0  0  0  0  0  0  0  0  0  0
   40.2800   27.1410   41.6760 H   0  0  0  0  0  0  0  0  0  0  0  0
   38.4460   27.2380   40.0610 H   0  0  0  0  0  0  0  0  0  0  0  0
   37.7170   28.8450   44.6430 H   0  0  0  0  0  0  0  0  0  0  0  0
   36.5550   30.3560   39.7210 O   0  0  0  0  0  0  0  0  0  0  0  0
   36.9790   31.5940   40.0890 C   0  0  0  0  0  0  0  0  0  0  0  0
   37.8130   31.4560   41.0550 O   0  0  0  0  0  0  0  0  0  0  0  0
   37.5760   35.0050   39.9140 H   0  0  0  0  0  0  0  0  0  0  0  0
   37.9230   33.9810   40.1340 C   0  0  0  0  0  0  0  0  0  0  0  0
   39.0290   33.5720   40.5290 O   0  0  0  0  0  0  0  0  0  0  0  0
   36.9500   33.0070   39.9300 N   0  0  0  0  0  0  0  0  0  0  0  0
   35.9960   33.2560   39.6010 H   0  0  0  0  0  0  0  0  0  0  0  0
  1  6  1  1  0  0  0
  1 16  1  0  0  0  0
  2  1  1  0  0  0  0
  3  9  1  0  0  0  0
  3  4  1  0  0  0  0
  3  2  1  0  0  0  0
  4 11  1  0  0  0  0
  4  5  1  0  0  0  0
  5  1  1  0  0  0  0
  5 13  1  1  0  0  0
  7  2  1  0  0  0  0
  8  2  1  0  0  0  0
 10  3  1  0  0  0  0
 12  4  1  0  0  0  0
 14 19  1  0  0  0  0
 15 16  1  0  0  0  0
 15 14  2  0  0  0  0
 16 17  2  0  0  0  0
 17 18  1  0  0  0  0
 18 22  1  0  0  0  0
 19 18  2  0  0  0  0
 20 14  1  0  0  0  0
 21 15  1  0  0  0  0
 23 24  1  0  0  0  0
 23  5  1  0  0  0  0
 24 25  2  0  0  0  0
 26 27  1  0  0  0  0
 27 28  2  0  0  0  0
 29 24  1  0  0  0  0
 29 27  1  0  0  0  0
 30 29  1  0  0  0  0
M  END
>  <minimizedAffinity>
-4.61353922

$$$$

 OpenBabel03242513513D

 30 31  0  0  1  0  0  0  0  0999 V2000
   37.3360   29.5200   42.1650 C   0  0  2  0  0  0  0  0  0  0  0  0
   38.5730   28.8240   42.7060 C   0  0  0  0  0  0  0  0  0  0  0  0
   37.9060   27.8730   43.6800 C   0  0  0  0  0  0  0  0  0  0  0  0
   36.6600   27.4560   43.0060 C   0  0  0  0  0  0  0  0  0  0  0  0
   36.5010   28.3820   41.7080 C   0  0  2  0  0  0  0  0  0  0  0  0
   36.8080   30.0240   42.9780 H   0  0  0  0  0  0  0  0  0  0  0  0
   39.0720   28.2400   41.9170 H   0  0  0  0  0  0  0  0  0  0  0  0
   39.2520   29.4690   43.2540 H   0  0  0  0  0  0  0  0  0  0  0  0
   37.7320   28.3540   44.6660 H   0  0  0  0  0  0  0  0  0  0  0  0
   38.5550   26.9580   43.7920 H   0  0  0  0  0  0  0  0  0  0  0  0
   35.8070   27.6830   43.6680 H   0  0  0  0  0  0  0  0  0  0  0  0
   36.6010   26.4350   42.6340 H   0  0  0  0  0  0  0  0  0  0  0  0
   35.4510   28.3060   41.6980 H   0  0  0  0  0  0  0  0  0  0  0  0
   37.1010   32.1200   39.4490 C   0  0  0  0  0  0  0  0  0  0  0  0
   36.6840   31.2590   40.4800 C   0  0  0  0  0  0  0  0  0  0  0  0
   37.6320   30.4750   41.0680 C   0  0  0  0  0  0  0  0  0  0  0  0
   38.9210   30.5810   40.6150 N   0  0  0  0  0  0  0  0  0  0  0  0
   39.3050   31.4000   39.6360 C   0  0  0  0  0  0  0  0  0  0  0  0
   38.3980   32.1690   39.0540 N   0  0  0  0  0  0  0  0  0  0  0  0
   36.2800   32.7160   39.0290 H   0  0  0  0  0  0  0  0  0  0  0  0
   35.6790   31.1790   40.8330 H   0  0  0  0  0  0  0  0  0  0  0  0
   40.3460   31.4310   39.3280 H   0  0  0  0  0  0  0  0  0  0  0  0
   37.1080   27.6490   40.6680 O   0  0  0  0  0  0  0  0  0  0  0  0
   37.1590   26.3050   40.4700 C   0  0  0  0  0  0  0  0  0  0  0  0
   38.3940   25.9610   40.4170 O   0  0  0  0  0  0  0  0  0  0  0  0
   36.1170   23.0010   40.3470 H   0  0  0  0  0  0  0  0  0  0  0  0
   36.8620   23.7600   40.6380 C   0  0  0  0  0  0  0  0  0  0  0  0
   37.9540   23.6370   41.2190 O   0  0  0  0  0  0  0  0  0  0  0  0
   36.5010   25.0590   40.2860 N   0  0  0  0  0  0  0  0  0  0  0  0
   35.6060   25.2560   39.7960 H   0  0  0  0  0  0  0  0  0  0  0  0
  1  2  1  0  0  0  0
  1  6  1  1  0  0  0
  2  8  1  0  0  0  0
  2  3  1  0  0  0  0
  3 10  1  0  0  0  0
  3  9  1  0  0  0  0
  4 11  1  0  0  0  0
  4  3  1  0  0  0  0
  5 13  1  6  0  0  0
  5  1  1  0  0  0  0
  5  4  1  0  0  0  0
  7  2  1  0  0  0  0
 12  4  1  0  0  0  0
 14 15  1  0  0  0  0
 15 21  1  0  0  0  0
 15 16  2  0  0  0  0
 16  1  1  0  0  0  0
 17 16  1  0  0  0  0
 18 17  2  0  0  0  0
 19 14  2  0  0  0  0
 19 18  1  0  0  0  0
 20 14  1  0  0  0  0
 22 18  1  0  0  0  0
 23  5  1  0  0  0  0
 24 23  1  0  0  0  0
 25 24  2  0  0  0  0
 26 27  1  0  0  0  0
 27 28  2  0  0  0  0
 29 24  1  0  0  0  0
 29 27  1  0  0  0  0
 30 29  1  0  0  0  0
M  END
>  <minimizedAffinity>
-4.49817371

$$$$

 OpenBabel03242513513D

 30 31  0  0  1  0  0  0  0  0999 V2000
   37.8320   25.6550   41.1020 C   0  0  2  0  0  0  0  0  0  0  0  0
   37.1450   24.5530   41.8900 C   0  0  0  0  0  0  0  0  0  0  0  0
   37.4050   23.3910   40.9530 C   0  0  0  0  0  0  0  0  0  0  0  0
   38.7620   23.6320   40.4220 C   0  0  0  0  0  0  0  0  0  0  0  0
   39.1920   25.1010   40.8940 C   0  0  2  0  0  0  0  0  0  0  0  0
   37.3570   25.7650   40.1240 H   0  0  0  0  0  0  0  0  0  0  0  0
   37.6630   24.3710   42.8440 H   0  0  0  0  0  0  0  0  0  0  0  0
   36.0730   24.6800   42.0040 H   0  0  0  0  0  0  0  0  0  0  0  0
   36.6300   23.3230   40.1600 H   0  0  0  0  0  0  0  0  0  0  0  0
   37.4400   22.4400   41.5590 H   0  0  0  0  0  0  0  0  0  0  0  0
   38.7130   23.6490   39.3210 H   0  0  0  0  0  0  0  0  0  0  0  0
   39.5640   22.9790   40.7630 H   0  0  0  0  0  0  0  0  0  0  0  0
   39.8390   25.2490   40.0760 H   0  0  0  0  0  0  0  0  0  0  0  0
   37.4140   28.4350   43.6110 C   0  0  0  0  0  0  0  0  0  0  0  0
   37.3200   27.1470   43.0510 C   0  0  0  0  0  0  0  0  0  0  0  0
   37.8590   26.9570   41.8140 C   0  0  0  0  0  0  0  0  0  0  0  0
   38.4550   28.0310   41.2030 N   0  0  0  0  0  0  0  0  0  0  0  0
   38.5380   29.2470   41.7430 C   0  0  0  0  0  0  0  0  0  0  0  0
   38.0190   29.4500   42.9440 N   0  0  0  0  0  0  0  0  0  0  0  0
   36.9570   28.5040   44.6070 H   0  0  0  0  0  0  0  0  0  0  0  0
   36.8560   26.3120   43.5280 H   0  0  0  0  0  0  0  0  0  0  0  0
   39.0240   30.0520   41.2000 H   0  0  0  0  0  0  0  0  0  0  0  0
   39.8860   24.9010   42.1050 O   0  0  0  0  0  0  0  0  0  0  0  0
   41.1920   25.1330   42.4030 C   0  0  0  0  0  0  0  0  0  0  0  0
   41.5190   26.2640   41.8910 O   0  0  0  0  0  0  0  0  0  0  0  0
   44.2620   24.8360   43.9870 H   0  0  0  0  0  0  0  0  0  0  0  0
   43.4450   25.4620   43.5900 C   0  0  0  0  0  0  0  0  0  0  0  0
   43.3100   26.6980   43.5750 O   0  0  0  0  0  0  0  0  0  0  0  0
   42.4090   24.7290   43.0170 N   0  0  0  0  0  0  0  0  0  0  0  0
   42.4360   23.6900   42.9830 H   0  0  0  0  0  0  0  0  0  0  0  0
  1  6  1  6  0  0  0
  1 16  1  0  0  0  0
  1  2  1  0  0  0  0
  2  8  1  0  0  0  0
  2  7  1  0  0  0  0
  3 10  1  0  0  0  0
  3  2  1  0  0  0  0
  4 12  1  0  0  0  0
  4  5  1  0  0  0  0
  4  3  1  0  0  0  0
  5 13  1  6  0  0  0
  5  1  1  0  0  0  0
  5 23  1  0  0  0  0
  9  3  1  0  0  0  0
 11  4  1  0  0  0  0
 14 20  1  0  0  0  0
 15 21  1  0  0  0  0
 15 14  1  0  0  0  0
 16 15  2  0  0  0  0
 17 18  2  0  0  0  0
 17 16  1  0  0  0  0
 18 19  1  0  0  0  0
 19 14  2  0  0  0  0
 22 18  1  0  0  0  0
 23 24  1  0  0  0  0
 24 29  1  0  0  0  0
 25 24  2  0  0  0  0
 27 26  1  0  0  0  0
 28 27  2  0  0  0  0
 29 27  1  0  0  0  0
 30 29  1  0  0  0  0
M  END
>  <minimizedAffinity>
-4.49558878

$$$$

 OpenBabel03242513513D

 30 31  0  0  1  0  0  0  0  0999 V2000
   37.5130   27.8310   41.4570 C   0  0  2  0  0  0  0  0  0  0  0  0
   36.8550   27.8640   42.8260 C   0  0  0  0  0  0  0  0  0  0  0  0
   38.0650   27.5400   43.6800 C   0  0  0  0  0  0  0  0  0  0  0  0
   39.1880   28.2370   43.0220 C   0  0  0  0  0  0  0  0  0  0  0  0
   38.6400   28.7810   41.6190 C   0  0  2  0  0  0  0  0  0  0  0  0
   37.9290   26.8390   41.2680 H   0  0  0  0  0  0  0  0  0  0  0  0
   36.5040   28.8790   43.0680 H   0  0  0  0  0  0  0  0  0  0  0  0
   36.0990   27.1020   42.9830 H   0  0  0  0  0  0  0  0  0  0  0  0
   38.2200   26.4440   43.7690 H   0  0  0  0  0  0  0  0  0  0  0  0
   37.9240   28.0060   44.6970 H   0  0  0  0  0  0  0  0  0  0  0  0
   39.9770   27.5000   42.7950 H   0  0  0  0  0  0  0  0  0  0  0  0
   39.6060   29.1090   43.5200 H   0  0  0  0  0  0  0  0  0  0  0  0
   39.5870   28.7540   41.1600 H   0  0  0  0  0  0  0  0  0  0  0  0
   35.9450   28.4920   38.0950 C   0  0  0  0  0  0  0  0  0  0  0  0
   36.9020   28.0710   39.0360 C   0  0  0  0  0  0  0  0  0  0  0  0
   36.5990   28.2270   40.3560 C   0  0  0  0  0  0  0  0  0  0  0  0
   35.3840   28.7790   40.6730 N   0  0  0  0  0  0  0  0  0  0  0  0
   34.4840   29.1740   39.7730 C   0  0  0  0  0  0  0  0  0  0  0  0
   34.7620   29.0310   38.4860 N   0  0  0  0  0  0  0  0  0  0  0  0
   36.2640   28.3330   37.0570 H   0  0  0  0  0  0  0  0  0  0  0  0
   37.8470   27.6410   38.7880 H   0  0  0  0  0  0  0  0  0  0  0  0
   33.5420   29.6040   40.0970 H   0  0  0  0  0  0  0  0  0  0  0  0
   38.2060   30.0950   41.8880 O   0  0  0  0  0  0  0  0  0  0  0  0
   38.5830   31.2670   41.3110 C   0  0  0  0  0  0  0  0  0  0  0  0
   38.1590   31.2660   40.1000 O   0  0  0  0  0  0  0  0  0  0  0  0
   39.6900   34.5420   41.0390 H   0  0  0  0  0  0  0  0  0  0  0  0
   38.9870   33.7410   40.7540 C   0  0  0  0  0  0  0  0  0  0  0  0
   38.0230   33.7560   39.9680 O   0  0  0  0  0  0  0  0  0  0  0  0
   39.2370   32.5280   41.3900 N   0  0  0  0  0  0  0  0  0  0  0  0
   40.0220   32.4220   42.0620 H   0  0  0  0  0  0  0  0  0  0  0  0
  1  6  1  6  0  0  0
  1  5  1  0  0  0  0
  1  2  1  0  0  0  0
  2  8  1  0  0  0  0
  2  7  1  0  0  0  0
  2  3  1  0  0  0  0
  3  9  1  0  0  0  0
  3 10  1  0  0  0  0
  4 12  1  0  0  0  0
  4  3  1  0  0  0  0
  5 13  1  6  0  0  0
  5 23  1  0  0  0  0
  5  4  1  0  0  0  0
 11  4  1  0  0  0  0
 14 19  2  0  0  0  0
 14 15  1  0  0  0  0
 15 16  2  0  0  0  0
 16 17  1  0  0  0  0
 16  1  1  0  0  0  0
 18 22  1  0  0  0  0
 18 17  2  0  0  0  0
 19 18  1  0  0  0  0
 20 14  1  0  0  0  0
 21 15  1  0  0  0  0
 24 29  1  0  0  0  0
 24 23  1  0  0  0  0
 25 24  2  0  0  0  0
 27 26  1  0  0  0  0
 27 29  1  0  0  0  0
 28 27  2  0  0  0  0
 29 30  1  0  0  0  0
M  END
>  <minimizedAffinity>
-4.43550158

$$$$

 OpenBabel03242513513D

 30 31  0  0  1  0  0  0  0  0999 V2000
   38.2560   30.7300   38.2860 C   0  0  2  0  0  0  0  0  0  0  0  0
   36.9720   30.8380   37.4810 C   0  0  0  0  0  0  0  0  0  0  0  0
   36.9180   29.4280   36.9260 C   0  0  0  0  0  0  0  0  0  0  0  0
   37.4180   28.5730   38.0210 C   0  0  0  0  0  0  0  0  0  0  0  0
   37.9940   29.5530   39.1500 C   0  0  2  0  0  0  0  0  0  0  0  0
   39.0910   30.4870   37.6240 H   0  0  0  0  0  0  0  0  0  0  0  0
   36.1060   30.9990   38.1410 H   0  0  0  0  0  0  0  0  0  0  0  0
   37.0140   31.5400   36.6540 H   0  0  0  0  0  0  0  0  0  0  0  0
   37.5100   29.3340   35.9910 H   0  0  0  0  0  0  0  0  0  0  0  0
   35.8400   29.1530   36.7450 H   0  0  0  0  0  0  0  0  0  0  0  0
   38.2680   27.9800   37.6460 H   0  0  0  0  0  0  0  0  0  0  0  0
   36.7010   27.9380   38.5370 H   0  0  0  0  0  0  0  0  0  0  0  0
   38.6830   28.8430   39.5120 H   0  0  0  0  0  0  0  0  0  0  0  0
   38.0740   34.0490   40.0590 C   0  0  0  0  0  0  0  0  0  0  0  0
   37.6540   32.9460   39.2930 C   0  0  0  0  0  0  0  0  0  0  0  0
   38.5590   31.9490   39.0750 C   0  0  0  0  0  0  0  0  0  0  0  0
   39.8110   32.0910   39.6160 N   0  0  0  0  0  0  0  0  0  0  0  0
   40.1970   33.1410   40.3410 C   0  0  0  0  0  0  0  0  0  0  0  0
   39.3320   34.1190   40.5620 N   0  0  0  0  0  0  0  0  0  0  0  0
   37.2890   34.8060   40.1880 H   0  0  0  0  0  0  0  0  0  0  0  0
   36.6790   32.8370   38.8730 H   0  0  0  0  0  0  0  0  0  0  0  0
   41.2070   33.1870   40.7380 H   0  0  0  0  0  0  0  0  0  0  0  0
   36.9150   29.7590   40.0330 O   0  0  0  0  0  0  0  0  0  0  0  0
   36.7530   29.3390   41.3160 C   0  0  0  0  0  0  0  0  0  0  0  0
   35.7640   28.5210   41.3420 O   0  0  0  0  0  0  0  0  0  0  0  0
   37.4890   28.7320   44.6490 H   0  0  0  0  0  0  0  0  0  0  0  0
   37.0940   28.3910   43.6770 C   0  0  0  0  0  0  0  0  0  0  0  0
   36.6170   27.2930   43.3410 O   0  0  0  0  0  0  0  0  0  0  0  0
   37.1480   29.3630   42.6810 N   0  0  0  0  0  0  0  0  0  0  0  0
   37.5300   30.3100   42.8720 H   0  0  0  0  0  0  0  0  0  0  0  0
  1  6  1  6  0  0  0
  1 16  1  0  0  0  0
  1  5  1  0  0  0  0
  2  7  1  0  0  0  0
  2  1  1  0  0  0  0
  3  2  1  0  0  0  0
  3  4  1  0  0  0  0
  4 12  1  0  0  0  0
  4  5  1  0  0  0  0
  5 13  1  1  0  0  0
  5 23  1  0  0  0  0
  8  2  1  0  0  0  0
  9  3  1  0  0  0  0
 10  3  1  0  0  0  0
 11  4  1  0  0  0  0
 14 20  1  0  0  0  0
 14 19  1  0  0  0  0
 15 14  2  0  0  0  0
 16 15  1  0  0  0  0
 16 17  2  0  0  0  0
 17 18  1  0  0  0  0
 18 19  2  0  0  0  0
 18 22  1  0  0  0  0
 21 15  1  0  0  0  0
 23 24  1  0  0  0  0
 24 25  2  0  0  0  0
 24 29  1  0  0  0  0
 27 26  1  0  0  0  0
 28 27  2  0  0  0  0
 29 30  1  0  0  0  0
 29 27  1  0  0  0  0
M  END
>  <minimizedAffinity>
-4.41038513

$$$$

 OpenBabel03242513513D

 30 31  0  0  1  0  0  0  0  0999 V2000
   36.7930   28.6440   41.8520 C   0  0  2  0  0  0  0  0  0  0  0  0
   36.2950   28.4560   40.4290 C   0  0  0  0  0  0  0  0  0  0  0  0
   35.4490   29.7080   40.3050 C   0  0  0  0  0  0  0  0  0  0  0  0
   36.1990   30.7450   41.0400 C   0  0  0  0  0  0  0  0  0  0  0  0
   37.3940   30.0000   41.8050 C   0  0  2  0  0  0  0  0  0  0  0  0
   35.9470   28.6710   42.5420 H   0  0  0  0  0  0  0  0  0  0  0  0
   37.1270   28.5110   39.7110 H   0  0  0  0  0  0  0  0  0  0  0  0
   35.6620   27.5870   40.2830 H   0  0  0  0  0  0  0  0  0  0  0  0
   34.4220   29.5470   40.6970 H   0  0  0  0  0  0  0  0  0  0  0  0
   35.4170   30.0150   39.2200 H   0  0  0  0  0  0  0  0  0  0  0  0
   35.5420   31.1750   41.8140 H   0  0  0  0  0  0  0  0  0  0  0  0
   36.6800   31.5310   40.4620 H   0  0  0  0  0  0  0  0  0  0  0  0
   37.4430   30.7190   42.5730 H   0  0  0  0  0  0  0  0  0  0  0  0
   39.4260   26.6630   43.6800 C   0  0  0  0  0  0  0  0  0  0  0  0
   38.5350   27.7150   43.3990 C   0  0  0  0  0  0  0  0  0  0  0  0
   37.7720   27.6110   42.2730 C   0  0  0  0  0  0  0  0  0  0  0  0
   37.9250   26.4920   41.4970 N   0  0  0  0  0  0  0  0  0  0  0  0
   38.7730   25.5010   41.7730 C   0  0  0  0  0  0  0  0  0  0  0  0
   39.5220   25.5840   42.8610 N   0  0  0  0  0  0  0  0  0  0  0  0
   40.0020   26.8220   44.6010 H   0  0  0  0  0  0  0  0  0  0  0  0
   38.4160   28.5860   44.0050 H   0  0  0  0  0  0  0  0  0  0  0  0
   38.8420   24.6430   41.1110 H   0  0  0  0  0  0  0  0  0  0  0  0
   38.4890   30.0770   40.9210 O   0  0  0  0  0  0  0  0  0  0  0  0
   39.0910   31.1690   40.3810 C   0  0  0  0  0  0  0  0  0  0  0  0
   39.5330   31.8940   41.3430 O   0  0  0  0  0  0  0  0  0  0  0  0
   40.5830   33.2130   38.0100 H   0  0  0  0  0  0  0  0  0  0  0  0
   40.5690   32.7680   39.0190 C   0  0  0  0  0  0  0  0  0  0  0  0
   41.3590   32.9010   39.9700 O   0  0  0  0  0  0  0  0  0  0  0  0
   39.4810   31.9270   39.2430 N   0  0  0  0  0  0  0  0  0  0  0  0
   38.7690   31.7580   38.5050 H   0  0  0  0  0  0  0  0  0  0  0  0
  1 16  1  0  0  0  0
  1  6  1  1  0  0  0
  2  1  1  0  0  0  0
  3  2  1  0  0  0  0
  3  9  1  0  0  0  0
  3  4  1  0  0  0  0
  4  5  1  0  0  0  0
  4 11  1  0  0  0  0
  5  1  1  0  0  0  0
  5 13  1  1  0  0  0
  7  2  1  0  0  0  0
  8  2  1  0  0  0  0
 10  3  1  0  0  0  0
 12  4  1  0  0  0  0
 14 20  1  0  0  0  0
 15 14  1  0  0  0  0
 15 21  1  0  0  0  0
 16 15  2  0  0  0  0
 17 18  2  0  0  0  0
 17 16  1  0  0  0  0
 18 19  1  0  0  0  0
 19 14  2  0  0  0  0
 22 18  1  0  0  0  0
 23  5  1  0  0  0  0
 24 23  1  0  0  0  0
 24 25  2  0  0  0  0
 26 27  1  0  0  0  0
 27 29  1  0  0  0  0
 27 28  2  0  0  0  0
 29 24  1  0  0  0  0
 30 29  1  0  0  0  0
M  END
>  <minimizedAffinity>
-4.39161301

$$$$

 OpenBabel03242513513D

 30 31  0  0  1  0  0  0  0  0999 V2000
   36.9500   31.1840   38.4270 C   0  0  2  0  0  0  0  0  0  0  0  0
   38.4250   31.5490   38.4350 C   0  0  0  0  0  0  0  0  0  0  0  0
   38.3560   32.8030   39.2850 C   0  0  0  0  0  0  0  0  0  0  0  0
   37.3270   32.5120   40.3030 C   0  0  0  0  0  0  0  0  0  0  0  0
   36.6230   31.1390   39.8740 C   0  0  2  0  0  0  0  0  0  0  0  0
   36.3700   31.9910   37.9730 H   0  0  0  0  0  0  0  0  0  0  0  0
   39.0160   30.7870   38.9650 H   0  0  0  0  0  0  0  0  0  0  0  0
   38.8330   31.8050   37.4630 H   0  0  0  0  0  0  0  0  0  0  0  0
   38.1260   33.7000   38.6720 H   0  0  0  0  0  0  0  0  0  0  0  0
   39.3400   32.9280   39.8220 H   0  0  0  0  0  0  0  0  0  0  0  0
   36.5540   33.2970   40.2580 H   0  0  0  0  0  0  0  0  0  0  0  0
   37.6570   32.3530   41.3280 H   0  0  0  0  0  0  0  0  0  0  0  0
   35.7120   31.3790   40.3440 H   0  0  0  0  0  0  0  0  0  0  0  0
   35.3170   28.0660   37.0840 C   0  0  0  0  0  0  0  0  0  0  0  0
   35.4470   29.2880   37.7700 C   0  0  0  0  0  0  0  0  0  0  0  0
   36.6670   29.8960   37.7470 C   0  0  0  0  0  0  0  0  0  0  0  0
   37.6790   29.2770   37.0590 N   0  0  0  0  0  0  0  0  0  0  0  0
   37.5440   28.1200   36.4120 C   0  0  0  0  0  0  0  0  0  0  0  0
   36.3660   27.5140   36.4240 N   0  0  0  0  0  0  0  0  0  0  0  0
   34.3070   27.6420   37.1500 H   0  0  0  0  0  0  0  0  0  0  0  0
   34.6590   29.7680   38.3050 H   0  0  0  0  0  0  0  0  0  0  0  0
   38.3900   27.6870   35.8870 H   0  0  0  0  0  0  0  0  0  0  0  0
   37.3400   30.1370   40.5600 O   0  0  0  0  0  0  0  0  0  0  0  0
   36.9540   29.3570   41.6040 C   0  0  0  0  0  0  0  0  0  0  0  0
   36.1950   28.4300   41.1460 O   0  0  0  0  0  0  0  0  0  0  0  0
   36.9370   27.9570   44.7760 H   0  0  0  0  0  0  0  0  0  0  0  0
   36.8860   27.8470   43.6800 C   0  0  0  0  0  0  0  0  0  0  0  0
   36.7620   26.8300   42.9760 O   0  0  0  0  0  0  0  0  0  0  0  0
   36.9760   29.0560   42.9930 N   0  0  0  0  0  0  0  0  0  0  0  0
   37.0810   29.9580   43.4990 H   0  0  0  0  0  0  0  0  0  0  0  0
  1  6  1  6  0  0  0
  1  2  1  0  0  0  0
  1  5  1  0  0  0  0
  2  7  1  0  0  0  0
  2  3  1  0  0  0  0
  3 10  1  0  0  0  0
  3  4  1  0  0  0  0
  4 12  1  0  0  0  0
  5  4  1  0  0  0  0
  5 13  1  1  0  0  0
  5 23  1  0  0  0  0
  8  2  1  0  0  0  0
  9  3  1  0  0  0  0
 11  4  1  0  0  0  0
 14 20  1  0  0  0  0
 14 15  1  0  0  0  0
 15 21  1  0  0  0  0
 16 15  2  0  0  0  0
 16  1  1  0  0  0  0
 17 16  1  0  0  0  0
 18 19  1  0  0  0  0
 18 17  2  0  0  0  0
 19 14  2  0  0  0  0
 22 18  1  0  0  0  0
 23 24  1  0  0  0  0
 24 29  1  0  0  0  0
 25 24  2  0  0  0  0
 27 26  1  0  0  0  0
 28 27  2  0  0  0  0
 29 30  1  0  0  0  0
 29 27  1  0  0  0  0
M  END
>  <minimizedAffinity>
-4.36561441

$$$$

 OpenBabel03242513513D

 30 31  0  0  1  0  0  0  0  0999 V2000
   36.5390   29.7030   40.1740 C   0  0  2  0  0  0  0  0  0  0  0  0
   37.2640   29.7340   38.8400 C   0  0  0  0  0  0  0  0  0  0  0  0
   36.9390   31.1550   38.4240 C   0  0  0  0  0  0  0  0  0  0  0  0
   36.9850   31.9340   39.6770 C   0  0  0  0  0  0  0  0  0  0  0  0
   37.1090   30.8800   40.8760 C   0  0  2  0  0  0  0  0  0  0  0  0
   35.4720   29.8820   40.0230 H   0  0  0  0  0  0  0  0  0  0  0  0
   38.3510   29.6400   38.9800 H   0  0  0  0  0  0  0  0  0  0  0  0
   36.8690   29.0510   38.0950 H   0  0  0  0  0  0  0  0  0  0  0  0
   35.9580   31.2150   37.9060 H   0  0  0  0  0  0  0  0  0  0  0  0
   37.7660   31.5340   37.7570 H   0  0  0  0  0  0  0  0  0  0  0  0
   36.0200   32.4540   39.8060 H   0  0  0  0  0  0  0  0  0  0  0  0
   37.8160   32.6220   39.8180 H   0  0  0  0  0  0  0  0  0  0  0  0
   36.6400   31.5130   41.5740 H   0  0  0  0  0  0  0  0  0  0  0  0
   37.2880   26.1480   41.1740 C   0  0  0  0  0  0  0  0  0  0  0  0
   37.1240   27.2700   40.3410 C   0  0  0  0  0  0  0  0  0  0  0  0
   36.7510   28.4430   40.9290 C   0  0  0  0  0  0  0  0  0  0  0  0
   36.5630   28.4470   42.2870 N   0  0  0  0  0  0  0  0  0  0  0  0
   36.7210   27.3780   43.0670 C   0  0  0  0  0  0  0  0  0  0  0  0
   37.0830   26.2300   42.5130 N   0  0  0  0  0  0  0  0  0  0  0  0
   37.5880   25.2460   40.6260 H   0  0  0  0  0  0  0  0  0  0  0  0
   37.2710   27.2660   39.2840 H   0  0  0  0  0  0  0  0  0  0  0  0
   36.5540   27.4540   44.1370 H   0  0  0  0  0  0  0  0  0  0  0  0
   38.4950   30.7550   41.1030 O   0  0  0  0  0  0  0  0  0  0  0  0
   39.4840   31.6760   40.9510 C   0  0  0  0  0  0  0  0  0  0  0  0
   40.3560   31.1890   40.1450 O   0  0  0  0  0  0  0  0  0  0  0  0
   41.1110   34.7360   41.0400 H   0  0  0  0  0  0  0  0  0  0  0  0
   40.8380   33.8110   40.5040 C   0  0  0  0  0  0  0  0  0  0  0  0
   41.1230   33.4300   39.3560 O   0  0  0  0  0  0  0  0  0  0  0  0
   40.0450   32.9460   41.2550 N   0  0  0  0  0  0  0  0  0  0  0  0
   39.7580   33.1810   42.2260 H   0  0  0  0  0  0  0  0  0  0  0  0
  1  6  1  6  0  0  0
  1  5  1  0  0  0  0
  1 16  1  0  0  0  0
  2  7  1  0  0  0  0
  2  1  1  0  0  0  0
  3  2  1  0  0  0  0
  3  4  1  0  0  0  0
  4 11  1  0  0  0  0
  4 12  1  0  0  0  0
  4  5  1  0  0  0  0
  5 23  1  0  0  0  0
  5 13  1  1  0  0  0
  8  2  1  0  0  0  0
  9  3  1  0  0  0  0
 10  3  1  0  0  0  0
 14 19  1  0  0  0  0
 15 16  1  0  0  0  0
 15 14  2  0  0  0  0
 16 17  2  0  0  0  0
 17 18  1  0  0  0  0
 18 22  1  0  0  0  0
 19 18  2  0  0  0  0
 20 14  1  0  0  0  0
 21 15  1  0  0  0  0
 24 23  1  0  0  0  0
 24 29  1  0  0  0  0
 25 24  2  0  0  0  0
 27 26  1  0  0  0  0
 27 29  1  0  0  0  0
 28 27  2  0  0  0  0
 29 30  1  0  0  0  0
M  END
>  <minimizedAffinity>
-4.32467365

$$$$
