
 OpenBabel03252508013D

 25 26  0  0  1  0  0  0  0  0999 V2000
   46.2860   34.6360   43.2860 C   0  0  0  0  0  0  0  0  0  0  0  0
   45.3440   35.6770   43.5410 C   0  0  0  0  0  0  0  0  0  0  0  0
   44.6540   35.5790   44.7460 C   0  0  0  0  0  0  0  0  0  0  0  0
   44.9060   34.5420   45.5750 N   0  0  0  0  0  0  0  0  0  0  0  0
   45.8300   33.5710   45.2630 C   0  0  0  0  0  0  0  0  0  0  0  0
   46.5160   33.6050   44.1400 N   0  0  0  0  0  0  0  0  0  0  0  0
   45.2150   36.4640   42.8120 H   0  0  0  0  0  0  0  0  0  0  0  0
   43.9340   36.3440   44.9790 H   0  0  0  0  0  0  0  0  0  0  0  0
   46.0580   32.4750   46.2440 C   0  0  1  0  0  0  0  0  0  0  0  0
   46.8460   32.7810   47.5010 C   0  0  0  0  0  0  0  0  0  0  0  0
   45.3510   32.6370   47.5310 C   0  0  1  0  0  0  0  0  0  0  0  0
   46.1880   31.4590   45.8260 H   0  0  0  0  0  0  0  0  0  0  0  0
   47.3080   33.7890   47.4760 H   0  0  0  0  0  0  0  0  0  0  0  0
   47.4310   31.9490   47.9350 H   0  0  0  0  0  0  0  0  0  0  0  0
   44.9550   31.8080   48.1270 H   0  0  0  0  0  0  0  0  0  0  0  0
   44.6940   33.9150   47.8340 N   0  0  0  0  0  0  0  0  0  0  0  0
   43.7910   33.7610   48.3630 H   0  0  0  0  0  0  0  0  0  0  0  0
   45.2920   34.4570   48.5000 H   0  0  0  0  0  0  0  0  0  0  0  0
   47.0150   34.7500   42.0390 C   0  0  0  0  0  0  0  0  0  0  0  0
   47.9760   35.5800   41.8610 O   0  0  0  0  0  0  0  0  0  0  0  0
   47.1700   33.4080   38.8420 H   0  0  0  0  0  0  0  0  0  0  0  0
   47.4520   34.0550   39.6560 C   0  0  0  0  0  0  0  0  0  0  0  0
   48.3830   34.9040   39.5840 O   0  0  0  0  0  0  0  0  0  0  0  0
   46.7400   33.9510   40.8870 N   0  0  0  0  0  0  0  0  0  0  0  0
   45.9620   33.2710   41.0120 H   0  0  0  0  0  0  0  0  0  0  0  0
  1  2  2  0  0  0  0
  1  6  1  0  0  0  0
  2  3  1  0  0  0  0
  3  8  1  0  0  0  0
  3  4  2  0  0  0  0
  5  4  1  0  0  0  0
  5  9  1  0  0  0  0
  6  5  2  0  0  0  0
  7  2  1  0  0  0  0
  9 12  1  6  0  0  0
  9 10  1  0  0  0  0
  9 11  1  0  0  0  0
 10 11  1  0  0  0  0
 10 14  1  0  0  0  0
 11 16  1  0  0  0  0
 11 15  1  1  0  0  0
 13 10  1  0  0  0  0
 16 17  1  0  0  0  0
 16 18  1  0  0  0  0
 19  1  1  0  0  0  0
 20 19  2  0  0  0  0
 21 22  1  0  0  0  0
 22 24  1  0  0  0  0
 23 22  2  0  0  0  0
 24 25  1  0  0  0  0
 24 19  1  0  0  0  0
M  END
>  <minimizedAffinity>
-5.27318859

>  <minimizedRMSD>
0.351240247

$$$$
