
 OpenBabel03252504003D

 30 32  0  0  0  0  0  0  0  0999 V2000
   45.9910   31.7630   45.2200 C   0  0  0  0  0  0  0  0  0  0  0  0
   45.6720   33.0530   45.6460 C   0  0  0  0  0  0  0  0  0  0  0  0
   45.3930   33.2740   46.9710 C   0  0  0  0  0  0  0  0  0  0  0  0
   45.4350   32.2120   47.8520 C   0  0  0  0  0  0  0  0  0  0  0  0
   45.2120   32.1260   49.1780 N   0  0  0  0  0  0  0  0  0  0  0  0
   45.3660   30.8740   49.6150 C   0  0  0  0  0  0  0  0  0  0  0  0
   45.7070   30.0930   48.5430 C   0  0  0  0  0  0  0  0  0  0  0  0
   45.7520   30.9210   47.4300 C   0  0  0  0  0  0  0  0  0  0  0  0
   46.0300   30.7090   46.1050 C   0  0  0  0  0  0  0  0  0  0  0  0
   46.2290   31.4810   44.1840 H   0  0  0  0  0  0  0  0  0  0  0  0
   45.1480   34.2820   47.2860 H   0  0  0  0  0  0  0  0  0  0  0  0
   44.9540   32.9550   49.7490 H   0  0  0  0  0  0  0  0  0  0  0  0
   45.2270   30.6060   50.6600 H   0  0  0  0  0  0  0  0  0  0  0  0
   45.8990   29.0270   48.5790 H   0  0  0  0  0  0  0  0  0  0  0  0
   46.2710   29.6880   45.8320 H   0  0  0  0  0  0  0  0  0  0  0  0
   46.3640   34.9080   42.5850 C   0  0  0  0  0  0  0  0  0  0  0  0
   45.6040   36.0710   42.7160 C   0  0  0  0  0  0  0  0  0  0  0  0
   44.8480   36.2060   43.8780 C   0  0  0  0  0  0  0  0  0  0  0  0
   44.8940   35.2160   44.7990 N   0  0  0  0  0  0  0  0  0  0  0  0
   45.6560   34.0940   44.6230 C   0  0  0  0  0  0  0  0  0  0  0  0
   46.3910   33.9370   43.5190 N   0  0  0  0  0  0  0  0  0  0  0  0
   45.5930   36.8420   41.9560 H   0  0  0  0  0  0  0  0  0  0  0  0
   44.2460   37.0950   44.0120 H   0  0  0  0  0  0  0  0  0  0  0  0
   47.1330   34.8140   41.3580 C   0  0  0  0  0  0  0  0  0  0  0  0
   48.3230   35.2140   41.2080 O   0  0  0  0  0  0  0  0  0  0  0  0
   46.8980   33.0570   38.3430 H   0  0  0  0  0  0  0  0  0  0  0  0
   47.3120   33.5310   39.2440 C   0  0  0  0  0  0  0  0  0  0  0  0
   48.5730   33.4310   39.3890 O   0  0  0  0  0  0  0  0  0  0  0  0
   46.5150   34.2210   40.2080 N   0  0  0  0  0  0  0  0  0  0  0  0
   45.4930   34.2480   39.9980 H   0  0  0  0  0  0  0  0  0  0  0  0
  1  2  2  0  0  0  0
  1  9  1  0  0  0  0
  2  3  1  0  0  0  0
  3 11  1  0  0  0  0
  3  4  2  0  0  0  0
  4  5  1  0  0  0  0
  5  6  1  0  0  0  0
  5 12  1  0  0  0  0
  6 13  1  0  0  0  0
  7 14  1  0  0  0  0
  7  6  2  0  0  0  0
  8  4  1  0  0  0  0
  8  7  1  0  0  0  0
  9  8  2  0  0  0  0
 10  1  1  0  0  0  0
 15  9  1  0  0  0  0
 16 17  2  0  0  0  0
 16 21  1  0  0  0  0
 17 18  1  0  0  0  0
 18 23  1  0  0  0  0
 18 19  2  0  0  0  0
 20 19  1  0  0  0  0
 20  2  1  0  0  0  0
 21 20  2  0  0  0  0
 22 17  1  0  0  0  0
 24 16  1  0  0  0  0
 25 24  2  0  0  0  0
 26 27  1  0  0  0  0
 27 28  2  0  0  0  0
 27 29  1  0  0  0  0
 29 24  1  0  0  0  0
 30 29  1  0  0  0  0
M  END
>  <minimizedAffinity>
-5.81884718

>  <minimizedRMSD>
0.805884182

$$$$
