
 OpenBabel03252504003D

 30 32  0  0  0  0  0  0  0  0999 V2000
   46.1020   31.5510   45.0620 C   0  0  0  0  0  0  0  0  0  0  0  0
   45.9740   32.9050   45.3700 C   0  0  0  0  0  0  0  0  0  0  0  0
   45.7190   33.2790   46.6650 C   0  0  0  0  0  0  0  0  0  0  0  0
   45.5960   32.3030   47.6330 C   0  0  0  0  0  0  0  0  0  0  0  0
   45.3500   32.3650   48.9570 N   0  0  0  0  0  0  0  0  0  0  0  0
   45.3140   31.1470   49.5010 C   0  0  0  0  0  0  0  0  0  0  0  0
   45.5440   30.2350   48.5060 C   0  0  0  0  0  0  0  0  0  0  0  0
   45.7220   30.9480   47.3290 C   0  0  0  0  0  0  0  0  0  0  0  0
   45.9760   30.5830   46.0330 C   0  0  0  0  0  0  0  0  0  0  0  0
   46.3040   31.1490   44.0580 H   0  0  0  0  0  0  0  0  0  0  0  0
   45.6230   34.3360   46.8890 H   0  0  0  0  0  0  0  0  0  0  0  0
   45.2130   33.2700   49.4500 H   0  0  0  0  0  0  0  0  0  0  0  0
   45.1270   30.9930   50.5620 H   0  0  0  0  0  0  0  0  0  0  0  0
   45.5760   29.1590   48.6370 H   0  0  0  0  0  0  0  0  0  0  0  0
   46.0650   29.5180   45.8520 H   0  0  0  0  0  0  0  0  0  0  0  0
   47.4050   34.7870   42.5950 C   0  0  0  0  0  0  0  0  0  0  0  0
   46.3680   35.6240   42.1840 C   0  0  0  0  0  0  0  0  0  0  0  0
   45.1650   35.5310   42.8790 C   0  0  0  0  0  0  0  0  0  0  0  0
   45.0740   34.6460   43.8990 N   0  0  0  0  0  0  0  0  0  0  0  0
   46.1210   33.8460   44.2630 C   0  0  0  0  0  0  0  0  0  0  0  0
   47.2870   33.9140   43.6150 N   0  0  0  0  0  0  0  0  0  0  0  0
   46.4790   36.3200   41.3630 H   0  0  0  0  0  0  0  0  0  0  0  0
   44.3390   36.1650   42.5870 H   0  0  0  0  0  0  0  0  0  0  0  0
   48.6370   34.9210   41.8390 C   0  0  0  0  0  0  0  0  0  0  0  0
   49.3170   35.9810   41.7320 O   0  0  0  0  0  0  0  0  0  0  0  0
   48.8670   32.4540   39.3700 H   0  0  0  0  0  0  0  0  0  0  0  0
   48.5250   33.3270   39.9430 C   0  0  0  0  0  0  0  0  0  0  0  0
   47.5170   33.9420   39.4620 O   0  0  0  0  0  0  0  0  0  0  0  0
   49.1450   33.7700   41.1500 N   0  0  0  0  0  0  0  0  0  0  0  0
   49.9630   33.2000   41.4610 H   0  0  0  0  0  0  0  0  0  0  0  0
  1  2  2  0  0  0  0
  1  9  1  0  0  0  0
  2  3  1  0  0  0  0
  3 11  1  0  0  0  0
  3  4  2  0  0  0  0
  4  5  1  0  0  0  0
  5 12  1  0  0  0  0
  5  6  1  0  0  0  0
  6 13  1  0  0  0  0
  7 14  1  0  0  0  0
  7  6  2  0  0  0  0
  8  4  1  0  0  0  0
  8  7  1  0  0  0  0
  9  8  2  0  0  0  0
 10  1  1  0  0  0  0
 15  9  1  0  0  0  0
 16 21  1  0  0  0  0
 17 16  2  0  0  0  0
 17 18  1  0  0  0  0
 18 19  2  0  0  0  0
 19 20  1  0  0  0  0
 20  2  1  0  0  0  0
 21 20  2  0  0  0  0
 22 17  1  0  0  0  0
 23 18  1  0  0  0  0
 24 16  1  0  0  0  0
 25 24  2  0  0  0  0
 26 27  1  0  0  0  0
 27 29  1  0  0  0  0
 28 27  2  0  0  0  0
 29 30  1  0  0  0  0
 29 24  1  0  0  0  0
M  END
>  <minimizedAffinity>
-5.96855116

>  <minimizedRMSD>
0.738667309

$$$$
