
 OpenBabel03252507173D

 25 26  0  0  0  0  0  0  0  0999 V2000
   44.6000   35.5790   43.2880 C   0  0  0  0  0  0  0  0  0  0  0  0
   45.3760   34.4190   43.0660 C   0  0  0  0  0  0  0  0  0  0  0  0
   45.7820   33.7050   44.1860 C   0  0  0  0  0  0  0  0  0  0  0  0
   45.4380   34.1210   45.4160 N   0  0  0  0  0  0  0  0  0  0  0  0
   44.6860   35.2470   45.6050 C   0  0  0  0  0  0  0  0  0  0  0  0
   44.2880   35.9430   44.5520 N   0  0  0  0  0  0  0  0  0  0  0  0
   44.3000   36.1130   42.3890 H   0  0  0  0  0  0  0  0  0  0  0  0
   44.4070   35.5850   46.5980 H   0  0  0  0  0  0  0  0  0  0  0  0
   46.5850   32.5010   43.9760 C   0  0  0  0  0  0  0  0  0  0  0  0
   46.0940   31.2720   44.3820 C   0  0  0  0  0  0  0  0  0  0  0  0
   46.8840   30.1630   44.1650 C   0  0  0  0  0  0  0  0  0  0  0  0
   48.1340   30.1970   43.5680 C   0  0  0  0  0  0  0  0  0  0  0  0
   48.5530   31.4680   43.1890 C   0  0  0  0  0  0  0  0  0  0  0  0
   47.7840   32.5620   43.4000 N   0  0  0  0  0  0  0  0  0  0  0  0
   45.1150   31.1510   44.8630 H   0  0  0  0  0  0  0  0  0  0  0  0
   46.5170   29.1950   44.4760 H   0  0  0  0  0  0  0  0  0  0  0  0
   48.7390   29.3210   43.4050 H   0  0  0  0  0  0  0  0  0  0  0  0
   49.4960   31.6260   42.7190 H   0  0  0  0  0  0  0  0  0  0  0  0
   45.7150   34.0160   41.7460 C   0  0  0  0  0  0  0  0  0  0  0  0
   46.5750   34.6920   41.1160 O   0  0  0  0  0  0  0  0  0  0  0  0
   43.5040   32.1970   39.8570 H   0  0  0  0  0  0  0  0  0  0  0  0
   44.0110   33.0730   40.2520 C   0  0  0  0  0  0  0  0  0  0  0  0
   43.7290   34.2580   39.8940 O   0  0  0  0  0  0  0  0  0  0  0  0
   45.0450   32.8570   41.2220 N   0  0  0  0  0  0  0  0  0  0  0  0
   45.2550   31.8550   41.5000 H   0  0  0  0  0  0  0  0  0  0  0  0
  1  6  1  0  0  0  0
  2  1  2  0  0  0  0
  2  3  1  0  0  0  0
  3  4  2  0  0  0  0
  4  5  1  0  0  0  0
  5  8  1  0  0  0  0
  6  5  2  0  0  0  0
  7  1  1  0  0  0  0
  9  3  1  0  0  0  0
  9 10  1  0  0  0  0
 10 15  1  0  0  0  0
 11 10  2  0  0  0  0
 11 16  1  0  0  0  0
 12 11  1  0  0  0  0
 13 14  1  0  0  0  0
 13 12  2  0  0  0  0
 14  9  2  0  0  0  0
 17 12  1  0  0  0  0
 18 13  1  0  0  0  0
 19  2  1  0  0  0  0
 20 19  2  0  0  0  0
 21 22  1  0  0  0  0
 22 24  1  0  0  0  0
 23 22  2  0  0  0  0
 24 25  1  0  0  0  0
 24 19  1  0  0  0  0
M  END
>  <minimizedAffinity>
-3.83372688

>  <minimizedRMSD>
1.09988296

$$$$
