
 OpenBabel03252502283D

 31 32  0  0  0  0  0  0  0  0999 V2000
   44.5800   34.3130   41.4690 C   0  0  0  0  0  0  0  0  0  0  0  0
   44.8730   35.1960   42.4960 C   0  0  0  0  0  0  0  0  0  0  0  0
   46.2160   35.5010   42.7230 C   0  0  0  0  0  0  0  0  0  0  0  0
   47.2090   34.9320   41.9400 C   0  0  0  0  0  0  0  0  0  0  0  0
   46.9200   34.0650   40.9320 C   0  0  0  0  0  0  0  0  0  0  0  0
   45.5760   33.7790   40.7270 C   0  0  0  0  0  0  0  0  0  0  0  0
   44.0730   35.6310   43.0970 H   0  0  0  0  0  0  0  0  0  0  0  0
   46.4010   36.1920   43.5270 H   0  0  0  0  0  0  0  0  0  0  0  0
   48.2420   35.1990   42.1520 H   0  0  0  0  0  0  0  0  0  0  0  0
   47.6750   33.5960   40.2950 H   0  0  0  0  0  0  0  0  0  0  0  0
   44.6420   31.5540   39.6430 C   0  0  0  0  0  0  0  0  0  0  0  0
   44.5400   30.8070   40.5740 O   0  0  0  0  0  0  0  0  0  0  0  0
   45.1680   32.9120   39.6710 N   0  0  0  0  0  0  0  0  0  0  0  0
   45.4020   33.5980   38.8640 H   0  0  0  0  0  0  0  0  0  0  0  0
   43.8060   33.9780   37.4120 H   0  0  0  0  0  0  0  0  0  0  0  0
   44.0600   33.0040   37.8720 C   0  0  0  0  0  0  0  0  0  0  0  0
   44.0310   33.9720   38.7040 O   0  0  0  0  0  0  0  0  0  0  0  0
   44.3800   31.6000   38.2630 N   0  0  0  0  0  0  0  0  0  0  0  0
   44.1970   31.6320   37.2930 H   0  0  0  0  0  0  0  0  0  0  0  0
   40.9160   34.5030   40.5790 C   0  0  0  0  0  0  0  0  0  0  0  0
   42.2590   34.9160   40.7140 C   0  0  0  0  0  0  0  0  0  0  0  0
   43.1660   34.0230   41.2570 C   0  0  0  0  0  0  0  0  0  0  0  0
   42.7020   32.8020   41.6260 N   0  0  0  0  0  0  0  0  0  0  0  0
   41.4170   32.4200   41.4920 C   0  0  0  0  0  0  0  0  0  0  0  0
   40.5140   33.2920   40.9590 N   0  0  0  0  0  0  0  0  0  0  0  0
   42.6080   35.8850   40.4150 H   0  0  0  0  0  0  0  0  0  0  0  0
   41.0990   31.4320   41.8020 H   0  0  0  0  0  0  0  0  0  0  0  0
   39.9250   35.4450   40.0000 C   0  0  0  0  0  0  0  0  0  0  0  0
   38.7030   34.7710   39.9180 F   0  0  0  0  0  0  0  0  0  0  0  0
   40.3020   35.6770   38.6920 F   0  0  0  0  0  0  0  0  0  0  0  0
   39.7870   36.6050   40.7250 F   0  0  0  0  0  0  0  0  0  0  0  0
  1  2  1  0  0  0  0
  2  3  2  0  0  0  0
  2  7  1  0  0  0  0
  3  8  1  0  0  0  0
  4  9  1  0  0  0  0
  4  3  1  0  0  0  0
  5  4  2  0  0  0  0
  6  5  1  0  0  0  0
  6  1  2  0  0  0  0
 10  5  1  0  0  0  0
 11 13  1  0  0  0  0
 11 12  2  0  0  0  0
 13  6  1  0  0  0  0
 14 13  1  0  0  0  0
 15 16  1  0  0  0  0
 16 18  1  0  0  0  0
 16 17  2  0  0  0  0
 18 11  1  0  0  0  0
 19 18  1  0  0  0  0
 20 21  2  0  0  0  0
 20 25  1  0  0  0  0
 21 22  1  0  0  0  0
 22  1  1  0  0  0  0
 22 23  2  0  0  0  0
 24 23  1  0  0  0  0
 24 27  1  0  0  0  0
 25 24  2  0  0  0  0
 26 21  1  0  0  0  0
 28 20  1  0  0  0  0
 28 31  1  0  0  0  0
 29 28  1  0  0  0  0
 30 28  1  0  0  0  0
M  END
>  <minimizedAffinity>
-5.33184814

>  <minimizedRMSD>
0.869387627

$$$$
