
 OpenBabel03252502283D

 31 32  0  0  0  0  0  0  0  0999 V2000
   45.1120   34.3430   41.0930 C   0  0  0  0  0  0  0  0  0  0  0  0
   45.5900   34.8650   42.2840 C   0  0  0  0  0  0  0  0  0  0  0  0
   46.9680   35.0530   42.3990 C   0  0  0  0  0  0  0  0  0  0  0  0
   47.8150   34.7240   41.3520 C   0  0  0  0  0  0  0  0  0  0  0  0
   47.3430   34.2110   40.1820 C   0  0  0  0  0  0  0  0  0  0  0  0
   45.9680   34.0350   40.0920 C   0  0  0  0  0  0  0  0  0  0  0  0
   44.9030   35.1170   43.0930 H   0  0  0  0  0  0  0  0  0  0  0  0
   47.2990   35.4630   43.3380 H   0  0  0  0  0  0  0  0  0  0  0  0
   48.8810   34.8880   41.4850 H   0  0  0  0  0  0  0  0  0  0  0  0
   47.9790   33.9380   39.3360 H   0  0  0  0  0  0  0  0  0  0  0  0
   45.5000   32.2870   38.1630 C   0  0  0  0  0  0  0  0  0  0  0  0
   46.2730   31.4000   38.3910 O   0  0  0  0  0  0  0  0  0  0  0  0
   45.3730   33.5390   38.8950 N   0  0  0  0  0  0  0  0  0  0  0  0
   44.7910   34.4300   38.6810 H   0  0  0  0  0  0  0  0  0  0  0  0
   42.2710   31.3200   37.7290 H   0  0  0  0  0  0  0  0  0  0  0  0
   43.2510   31.8200   37.6120 C   0  0  0  0  0  0  0  0  0  0  0  0
   43.2140   30.9810   38.5740 O   0  0  0  0  0  0  0  0  0  0  0  0
   44.4670   32.6140   37.2680 N   0  0  0  0  0  0  0  0  0  0  0  0
   43.7410   32.8440   36.6390 H   0  0  0  0  0  0  0  0  0  0  0  0
   41.4050   34.8450   40.5790 C   0  0  0  0  0  0  0  0  0  0  0  0
   42.7820   35.1530   40.6040 C   0  0  0  0  0  0  0  0  0  0  0  0
   43.6660   34.1670   41.0050 C   0  0  0  0  0  0  0  0  0  0  0  0
   43.1480   32.9600   41.3490 N   0  0  0  0  0  0  0  0  0  0  0  0
   41.8300   32.6790   41.3210 C   0  0  0  0  0  0  0  0  0  0  0  0
   40.9500   33.6430   40.9290 N   0  0  0  0  0  0  0  0  0  0  0  0
   43.1730   36.1120   40.3270 H   0  0  0  0  0  0  0  0  0  0  0  0
   41.4690   31.6980   41.6060 H   0  0  0  0  0  0  0  0  0  0  0  0
   40.4380   35.8880   40.1530 C   0  0  0  0  0  0  0  0  0  0  0  0
   39.2050   35.2610   39.9510 F   0  0  0  0  0  0  0  0  0  0  0  0
   40.8350   36.3230   38.9050 F   0  0  0  0  0  0  0  0  0  0  0  0
   40.3120   36.9160   41.0580 F   0  0  0  0  0  0  0  0  0  0  0  0
  1  2  1  0  0  0  0
  2  3  2  0  0  0  0
  2  7  1  0  0  0  0
  3  8  1  0  0  0  0
  4  9  1  0  0  0  0
  4  3  1  0  0  0  0
  5  4  2  0  0  0  0
  6  5  1  0  0  0  0
  6  1  2  0  0  0  0
 10  5  1  0  0  0  0
 11 12  2  0  0  0  0
 11 13  1  0  0  0  0
 13  6  1  0  0  0  0
 14 13  1  0  0  0  0
 16 15  1  0  0  0  0
 16 17  2  0  0  0  0
 18 16  1  0  0  0  0
 18 11  1  0  0  0  0
 19 18  1  0  0  0  0
 20 21  2  0  0  0  0
 20 25  1  0  0  0  0
 21 22  1  0  0  0  0
 22  1  1  0  0  0  0
 22 23  2  0  0  0  0
 24 23  1  0  0  0  0
 24 27  1  0  0  0  0
 25 24  2  0  0  0  0
 26 21  1  0  0  0  0
 28 20  1  0  0  0  0
 28 31  1  0  0  0  0
 29 28  1  0  0  0  0
 30 28  1  0  0  0  0
M  END
>  <minimizedAffinity>
-5.90965033

>  <minimizedRMSD>
0.276645988

$$$$
