
 OpenBabel03242510523D

 18 17  0  0  0  0  0  0  0  0999 V2000
   38.8170   27.8480   43.3490 C   0  0  0  0  0  0  0  0  0  0  0  0
   37.9760   26.8310   42.8820 C   0  0  0  0  0  0  0  0  0  0  0  0
   37.0190   27.1560   41.8960 C   0  0  0  0  0  0  0  0  0  0  0  0
   36.9550   28.4290   41.4450 N   0  0  0  0  0  0  0  0  0  0  0  0
   37.7930   29.3750   41.9340 C   0  0  0  0  0  0  0  0  0  0  0  0
   38.7070   29.0770   42.8720 N   0  0  0  0  0  0  0  0  0  0  0  0
   36.4510   31.0090   40.7360 C   0  0  0  0  0  0  0  0  0  0  0  0
   35.5260   30.2310   40.5100 O   0  0  0  0  0  0  0  0  0  0  0  0
   37.7110   30.7350   41.4500 N   0  0  0  0  0  0  0  0  0  0  0  0
   39.5030   27.4950   44.0940 H   0  0  0  0  0  0  0  0  0  0  0  0
   37.8990   25.7910   43.1310 H   0  0  0  0  0  0  0  0  0  0  0  0
   36.3050   26.4590   41.4470 H   0  0  0  0  0  0  0  0  0  0  0  0
   38.5710   31.3410   41.6920 H   0  0  0  0  0  0  0  0  0  0  0  0
   37.5010   32.8250   38.0480 H   0  0  0  0  0  0  0  0  0  0  0  0
   37.1870   32.5250   39.0670 C   0  0  0  0  0  2  0  0  0  0  0  0
   37.1740   31.5500   38.2490 O   0  0  0  0  0  1  0  0  0  0  0  0
   36.8020   32.3670   40.5000 N   0  0  0  0  0  2  0  0  0  0  0  0
   37.0380   33.2790   40.3400 H   0  0  0  0  0  0  0  0  0  0  0  0
  1 10  1  0  0  0  0
  2 11  1  0  0  0  0
  2  1  1  0  0  0  0
  3  2  2  0  0  0  0
  4  3  1  0  0  0  0
  4  5  2  0  0  0  0
  5  6  1  0  0  0  0
  6  1  2  0  0  0  0
  7  9  1  0  0  0  0
  8  7  2  0  0  0  0
  9 13  1  0  0  0  0
  9  5  1  0  0  0  0
 12  3  1  0  0  0  0
 14 15  1  0  0  0  0
 16 15  1  0  0  0  0
 17  7  1  0  0  0  0
 18 17  1  0  0  0  0
M  END
>  <minimizedAffinity>
-4.40768337

$$$$

 OpenBabel03242510523D

 18 17  0  0  0  0  0  0  0  0999 V2000
   37.1650   25.4970   42.3060 C   0  0  0  0  0  0  0  0  0  0  0  0
   37.0060   24.9200   41.0410 C   0  0  0  0  0  0  0  0  0  0  0  0
   36.6520   25.7600   39.9630 C   0  0  0  0  0  0  0  0  0  0  0  0
   36.4820   27.0810   40.1950 N   0  0  0  0  0  0  0  0  0  0  0  0
   36.6480   27.5870   41.4410 C   0  0  0  0  0  0  0  0  0  0  0  0
   36.9850   26.7970   42.4740 N   0  0  0  0  0  0  0  0  0  0  0  0
   35.7310   29.6680   40.5850 C   0  0  0  0  0  0  0  0  0  0  0  0
   35.3130   29.1710   39.5410 O   0  0  0  0  0  0  0  0  0  0  0  0
   36.4560   29.0000   41.6800 N   0  0  0  0  0  0  0  0  0  0  0  0
   37.4320   24.7730   43.0510 H   0  0  0  0  0  0  0  0  0  0  0  0
   37.1020   23.9090   40.6950 H   0  0  0  0  0  0  0  0  0  0  0  0
   36.4980   25.4380   38.9280 H   0  0  0  0  0  0  0  0  0  0  0  0
   36.8610   29.3470   42.6190 H   0  0  0  0  0  0  0  0  0  0  0  0
   37.4720   32.5750   40.2040 H   0  0  0  0  0  0  0  0  0  0  0  0
   36.7720   31.7990   40.5730 C   0  0  0  0  0  2  0  0  0  0  0  0
   37.4540   31.4030   39.5740 O   0  0  0  0  0  1  0  0  0  0  0  0
   35.7630   30.9290   41.2430 N   0  0  0  0  0  2  0  0  0  0  0  0
   35.7850   31.7770   41.6850 H   0  0  0  0  0  0  0  0  0  0  0  0
  1  6  1  0  0  0  0
  1 10  1  0  0  0  0
  2  1  2  0  0  0  0
  3  4  2  0  0  0  0
  3  2  1  0  0  0  0
  4  5  1  0  0  0  0
  5  9  1  0  0  0  0
  5  6  2  0  0  0  0
  7 17  1  0  0  0  0
  7  9  1  0  0  0  0
  8  7  2  0  0  0  0
  9 13  1  0  0  0  0
 11  2  1  0  0  0  0
 12  3  1  0  0  0  0
 14 15  1  0  0  0  0
 16 15  1  0  0  0  0
 17 18  1  0  0  0  0
M  END
>  <minimizedAffinity>
-4.36384487

$$$$

 OpenBabel03242510523D

 18 17  0  0  0  0  0  0  0  0999 V2000
   37.3200   32.3340   39.1470 C   0  0  0  0  0  0  0  0  0  0  0  0
   38.5960   32.0110   38.6700 C   0  0  0  0  0  0  0  0  0  0  0  0
   39.3160   30.9880   39.3250 C   0  0  0  0  0  0  0  0  0  0  0  0
   38.7470   30.3660   40.3820 N   0  0  0  0  0  0  0  0  0  0  0  0
   37.5080   30.7200   40.8030 C   0  0  0  0  0  0  0  0  0  0  0  0
   36.8140   31.6910   40.1870 N   0  0  0  0  0  0  0  0  0  0  0  0
   37.8970   29.3070   42.7420 C   0  0  0  0  0  0  0  0  0  0  0  0
   39.1050   29.1900   42.5390 O   0  0  0  0  0  0  0  0  0  0  0  0
   36.9120   30.0530   41.9400 N   0  0  0  0  0  0  0  0  0  0  0  0
   36.8630   33.1210   38.5800 H   0  0  0  0  0  0  0  0  0  0  0  0
   39.1800   32.4010   37.8590 H   0  0  0  0  0  0  0  0  0  0  0  0
   40.3170   30.6400   39.0550 H   0  0  0  0  0  0  0  0  0  0  0  0
   35.8470   30.2090   42.0330 H   0  0  0  0  0  0  0  0  0  0  0  0
   36.2560   26.3940   43.4130 H   0  0  0  0  0  0  0  0  0  0  0  0
   36.6070   27.4450   43.4430 C   0  0  0  0  0  2  0  0  0  0  0  0
   37.1780   26.7690   42.5290 O   0  0  0  0  0  1  0  0  0  0  0  0
   36.9140   28.8850   43.6800 N   0  0  0  0  0  2  0  0  0  0  0  0
   36.2530   28.6010   44.3100 H   0  0  0  0  0  0  0  0  0  0  0  0
  1  6  1  0  0  0  0
  2  1  2  0  0  0  0
  2  3  1  0  0  0  0
  3  4  2  0  0  0  0
  4  5  1  0  0  0  0
  5  9  1  0  0  0  0
  6  5  2  0  0  0  0
  7 17  1  0  0  0  0
  8  7  2  0  0  0  0
  9 13  1  0  0  0  0
  9  7  1  0  0  0  0
 10  1  1  0  0  0  0
 11  2  1  0  0  0  0
 12  3  1  0  0  0  0
 14 15  1  0  0  0  0
 16 15  1  0  0  0  0
 17 18  1  0  0  0  0
M  END
>  <minimizedAffinity>
-4.27228069

$$$$

 OpenBabel03242510523D

 18 17  0  0  0  0  0  0  0  0999 V2000
   39.1950   34.1590   40.2410 C   0  0  0  0  0  0  0  0  0  0  0  0
   40.3480   33.4870   40.6620 C   0  0  0  0  0  0  0  0  0  0  0  0
   40.2350   32.1290   41.0310 C   0  0  0  0  0  0  0  0  0  0  0  0
   39.0220   31.5360   40.9620 N   0  0  0  0  0  0  0  0  0  0  0  0
   37.9370   32.2340   40.5480 C   0  0  0  0  0  0  0  0  0  0  0  0
   38.0340   33.5250   40.1950 N   0  0  0  0  0  0  0  0  0  0  0  0
   36.5980   30.3290   41.2460 C   0  0  0  0  0  0  0  0  0  0  0  0
   37.5080   29.7950   41.8780 O   0  0  0  0  0  0  0  0  0  0  0  0
   36.6430   31.5900   40.4850 N   0  0  0  0  0  0  0  0  0  0  0  0
   39.3920   35.1820   39.9870 H   0  0  0  0  0  0  0  0  0  0  0  0
   41.3670   33.8070   40.7720 H   0  0  0  0  0  0  0  0  0  0  0  0
   41.0540   31.4920   41.3760 H   0  0  0  0  0  0  0  0  0  0  0  0
   35.9110   32.1310   39.9050 H   0  0  0  0  0  0  0  0  0  0  0  0
   34.8820   28.2580   39.1510 H   0  0  0  0  0  0  0  0  0  0  0  0
   35.1380   29.0310   39.9020 C   0  0  0  0  0  2  0  0  0  0  0  0
   36.1680   28.4480   39.4360 O   0  0  0  0  0  1  0  0  0  0  0  0
   35.2290   30.1090   40.9290 N   0  0  0  0  0  2  0  0  0  0  0  0
   34.3090   29.9610   40.7150 H   0  0  0  0  0  0  0  0  0  0  0  0
  1  2  1  0  0  0  0
  2 11  1  0  0  0  0
  2  3  2  0  0  0  0
  3 12  1  0  0  0  0
  4  3  1  0  0  0  0
  5  4  2  0  0  0  0
  6  1  2  0  0  0  0
  6  5  1  0  0  0  0
  7  8  2  0  0  0  0
  9  5  1  0  0  0  0
  9  7  1  0  0  0  0
 10  1  1  0  0  0  0
 13  9  1  0  0  0  0
 14 15  1  0  0  0  0
 16 15  1  0  0  0  0
 17  7  1  0  0  0  0
 18 17  1  0  0  0  0
M  END
>  <minimizedAffinity>
-4.23898935

$$$$

 OpenBabel03242510523D

 18 17  0  0  0  0  0  0  0  0999 V2000
   37.6690   27.8630   43.5100 C   0  0  0  0  0  0  0  0  0  0  0  0
   36.5820   27.6730   42.6500 C   0  0  0  0  0  0  0  0  0  0  0  0
   36.4100   28.5770   41.5790 C   0  0  0  0  0  0  0  0  0  0  0  0
   37.2980   29.5850   41.4290 N   0  0  0  0  0  0  0  0  0  0  0  0
   38.3330   29.7230   42.2930 C   0  0  0  0  0  0  0  0  0  0  0  0
   38.5070   28.8690   43.3140 N   0  0  0  0  0  0  0  0  0  0  0  0
   38.7670   31.8690   41.2370 C   0  0  0  0  0  0  0  0  0  0  0  0
   37.6920   31.9060   40.6420 O   0  0  0  0  0  0  0  0  0  0  0  0
   39.2740   30.8100   42.1270 N   0  0  0  0  0  0  0  0  0  0  0  0
   37.7060   27.1240   44.2860 H   0  0  0  0  0  0  0  0  0  0  0  0
   35.8010   26.9380   42.6310 H   0  0  0  0  0  0  0  0  0  0  0  0
   35.6060   28.5410   40.8380 H   0  0  0  0  0  0  0  0  0  0  0  0
   40.1910   30.6860   42.6840 H   0  0  0  0  0  0  0  0  0  0  0  0
   41.4980   32.6070   39.3330 H   0  0  0  0  0  0  0  0  0  0  0  0
   40.7640   32.5620   40.1620 C   0  0  0  0  0  2  0  0  0  0  0  0
   40.4070   31.8640   39.1600 O   0  0  0  0  0  1  0  0  0  0  0  0
   39.9390   32.6590   41.4010 N   0  0  0  0  0  2  0  0  0  0  0  0
   40.7260   33.1900   41.5100 H   0  0  0  0  0  0  0  0  0  0  0  0
  1 10  1  0  0  0  0
  2  1  2  0  0  0  0
  3  2  1  0  0  0  0
  4  3  2  0  0  0  0
  4  5  1  0  0  0  0
  5  6  2  0  0  0  0
  6  1  1  0  0  0  0
  7 17  1  0  0  0  0
  7  9  1  0  0  0  0
  8  7  2  0  0  0  0
  9  5  1  0  0  0  0
  9 13  1  0  0  0  0
 11  2  1  0  0  0  0
 12  3  1  0  0  0  0
 14 15  1  0  0  0  0
 16 15  1  0  0  0  0
 17 18  1  0  0  0  0
M  END
>  <minimizedAffinity>
-3.8747201

$$$$

 OpenBabel03242510523D

 18 17  0  0  0  0  0  0  0  0999 V2000
   41.8110   27.1720   43.3980 C   0  0  0  0  0  0  0  0  0  0  0  0
   41.3900   25.8670   43.6800 C   0  0  0  0  0  0  0  0  0  0  0  0
   40.0110   25.5770   43.5970 C   0  0  0  0  0  0  0  0  0  0  0  0
   39.1580   26.5660   43.2500 N   0  0  0  0  0  0  0  0  0  0  0  0
   39.6200   27.8130   42.9890 C   0  0  0  0  0  0  0  0  0  0  0  0
   40.9290   28.1000   43.0650 N   0  0  0  0  0  0  0  0  0  0  0  0
   37.2990   28.5330   42.9500 C   0  0  0  0  0  0  0  0  0  0  0  0
   36.8650   27.4980   43.4540 O   0  0  0  0  0  0  0  0  0  0  0  0
   38.6970   28.8660   42.6260 N   0  0  0  0  0  0  0  0  0  0  0  0
   42.8740   27.2830   43.4920 H   0  0  0  0  0  0  0  0  0  0  0  0
   41.9290   24.9840   43.9640 H   0  0  0  0  0  0  0  0  0  0  0  0
   39.5520   24.6030   43.7900 H   0  0  0  0  0  0  0  0  0  0  0  0
   39.1680   29.7320   42.1860 H   0  0  0  0  0  0  0  0  0  0  0  0
   35.6190   29.6060   40.1840 H   0  0  0  0  0  0  0  0  0  0  0  0
   36.1480   29.5740   41.1570 C   0  0  0  0  0  2  0  0  0  0  0  0
   36.0570   28.4260   40.6150 O   0  0  0  0  0  1  0  0  0  0  0  0
   36.8190   29.7840   42.4720 N   0  0  0  0  0  2  0  0  0  0  0  0
   36.4970   30.6240   42.1500 H   0  0  0  0  0  0  0  0  0  0  0  0
  1 10  1  0  0  0  0
  1  2  1  0  0  0  0
  2 11  1  0  0  0  0
  3  2  2  0  0  0  0
  3 12  1  0  0  0  0
  4  3  1  0  0  0  0
  5  6  1  0  0  0  0
  5  4  2  0  0  0  0
  6  1  2  0  0  0  0
  7  8  2  0  0  0  0
  9  7  1  0  0  0  0
  9  5  1  0  0  0  0
 13  9  1  0  0  0  0
 14 15  1  0  0  0  0
 16 15  1  0  0  0  0
 17  7  1  0  0  0  0
 18 17  1  0  0  0  0
M  END
>  <minimizedAffinity>
-3.84990358

$$$$

 OpenBabel03242510523D

 18 17  0  0  0  0  0  0  0  0999 V2000
   35.4710   29.2880   37.7030 C   0  0  0  0  0  0  0  0  0  0  0  0
   36.6340   29.7940   37.1120 C   0  0  0  0  0  0  0  0  0  0  0  0
   37.7510   30.0410   37.9400 C   0  0  0  0  0  0  0  0  0  0  0  0
   37.6520   29.7800   39.2620 N   0  0  0  0  0  0  0  0  0  0  0  0
   36.5000   29.2920   39.7820 C   0  0  0  0  0  0  0  0  0  0  0  0
   35.4320   29.0530   39.0050 N   0  0  0  0  0  0  0  0  0  0  0  0
   37.4730   29.6740   41.9770 C   0  0  0  0  0  0  0  0  0  0  0  0
   38.3960   30.3690   41.5560 O   0  0  0  0  0  0  0  0  0  0  0  0
   36.4030   29.0230   41.2000 N   0  0  0  0  0  0  0  0  0  0  0  0
   34.6860   29.1380   36.9880 H   0  0  0  0  0  0  0  0  0  0  0  0
   36.8720   30.0510   36.0980 H   0  0  0  0  0  0  0  0  0  0  0  0
   38.7170   30.4330   37.6060 H   0  0  0  0  0  0  0  0  0  0  0  0
   35.5640   28.4010   41.4740 H   0  0  0  0  0  0  0  0  0  0  0  0
   38.3860   27.2330   44.1750 H   0  0  0  0  0  0  0  0  0  0  0  0
   37.8510   28.0670   43.6800 C   0  0  0  0  0  2  0  0  0  0  0  0
   38.8720   27.6860   43.0230 O   0  0  0  0  0  1  0  0  0  0  0  0
   36.9710   29.1770   43.2110 N   0  0  0  0  0  2  0  0  0  0  0  0
   36.6340   28.8420   44.0410 H   0  0  0  0  0  0  0  0  0  0  0  0
  1  6  1  0  0  0  0
  2  1  2  0  0  0  0
  2  3  1  0  0  0  0
  3  4  2  0  0  0  0
  4  5  1  0  0  0  0
  5  9  1  0  0  0  0
  6  5  2  0  0  0  0
  7 17  1  0  0  0  0
  8  7  2  0  0  0  0
  9 13  1  0  0  0  0
  9  7  1  0  0  0  0
 10  1  1  0  0  0  0
 11  2  1  0  0  0  0
 12  3  1  0  0  0  0
 15 14  1  0  0  0  0
 16 15  1  0  0  0  0
 17 18  1  0  0  0  0
M  END
>  <minimizedAffinity>
-3.72151518

$$$$

 OpenBabel03242510523D

 18 17  0  0  0  0  0  0  0  0999 V2000
   44.9710   30.2170   35.6850 C   0  0  0  0  0  0  0  0  0  0  0  0
   45.7880   30.9950   36.5130 C   0  0  0  0  0  0  0  0  0  0  0  0
   45.1700   31.9210   37.3820 C   0  0  0  0  0  0  0  0  0  0  0  0
   43.8220   32.0170   37.3790 N   0  0  0  0  0  0  0  0  0  0  0  0
   43.0790   31.2390   36.5550 C   0  0  0  0  0  0  0  0  0  0  0  0
   43.6560   30.3550   35.7240 N   0  0  0  0  0  0  0  0  0  0  0  0
   41.1670   32.5920   37.2020 C   0  0  0  0  0  0  0  0  0  0  0  0
   41.8430   33.4750   37.7270 O   0  0  0  0  0  0  0  0  0  0  0  0
   41.6380   31.3550   36.5550 N   0  0  0  0  0  0  0  0  0  0  0  0
   45.5400   29.5500   35.0660 H   0  0  0  0  0  0  0  0  0  0  0  0
   46.8530   31.0410   36.6340 H   0  0  0  0  0  0  0  0  0  0  0  0
   45.6900   32.5860   38.0780 H   0  0  0  0  0  0  0  0  0  0  0  0
   41.1300   30.5310   36.0760 H   0  0  0  0  0  0  0  0  0  0  0  0
   38.5230   31.5000   39.0580 H   0  0  0  0  0  0  0  0  0  0  0  0
   39.1580   31.8460   38.2180 C   0  0  0  0  0  2  0  0  0  0  0  0
   39.7970   31.7850   39.3170 O   0  0  0  0  0  1  0  0  0  0  0  0
   39.8020   32.2860   36.9460 N   0  0  0  0  0  2  0  0  0  0  0  0
   38.8840   32.0800   36.7750 H   0  0  0  0  0  0  0  0  0  0  0  0
  1  6  2  0  0  0  0
  1  2  1  0  0  0  0
  2 11  1  0  0  0  0
  2  3  2  0  0  0  0
  3 12  1  0  0  0  0
  4  3  1  0  0  0  0
  5  9  1  0  0  0  0
  5  4  2  0  0  0  0
  6  5  1  0  0  0  0
  7  8  2  0  0  0  0
  9  7  1  0  0  0  0
 10  1  1  0  0  0  0
 13  9  1  0  0  0  0
 15 14  1  0  0  0  0
 15 16  1  0  0  0  0
 17  7  1  0  0  0  0
 18 17  1  0  0  0  0
M  END
>  <minimizedAffinity>
-3.72039628

$$$$

 OpenBabel03242510523D

 18 17  0  0  0  0  0  0  0  0999 V2000
   42.0900   32.8580   37.3320 C   0  0  0  0  0  0  0  0  0  0  0  0
   42.9050   33.1180   38.4400 C   0  0  0  0  0  0  0  0  0  0  0  0
   42.3010   33.1700   39.7160 C   0  0  0  0  0  0  0  0  0  0  0  0
   40.9690   32.9670   39.8140 N   0  0  0  0  0  0  0  0  0  0  0  0
   40.2270   32.7200   38.7070 C   0  0  0  0  0  0  0  0  0  0  0  0
   40.7900   32.6680   37.4890 N   0  0  0  0  0  0  0  0  0  0  0  0
   38.2630   32.9670   40.1160 C   0  0  0  0  0  0  0  0  0  0  0  0
   38.8780   33.4630   41.0590 O   0  0  0  0  0  0  0  0  0  0  0  0
   38.8000   32.5110   38.8230 N   0  0  0  0  0  0  0  0  0  0  0  0
   42.6480   32.8410   36.4160 H   0  0  0  0  0  0  0  0  0  0  0  0
   43.9580   33.2990   38.5320 H   0  0  0  0  0  0  0  0  0  0  0  0
   42.8210   33.3630   40.6590 H   0  0  0  0  0  0  0  0  0  0  0  0
   38.3480   32.0670   37.9480 H   0  0  0  0  0  0  0  0  0  0  0  0
   36.1150   30.4550   40.9560 H   0  0  0  0  0  0  0  0  0  0  0  0
   36.5590   31.3620   40.5000 C   0  0  0  0  0  2  0  0  0  0  0  0
   37.3600   30.7780   41.2980 O   0  0  0  0  0  1  0  0  0  0  0  0
   36.9320   32.6070   39.7660 N   0  0  0  0  0  2  0  0  0  0  0  0
   36.0380   32.3630   39.5310 H   0  0  0  0  0  0  0  0  0  0  0  0
  1  6  2  0  0  0  0
  1  2  1  0  0  0  0
  2 11  1  0  0  0  0
  2  3  2  0  0  0  0
  3  4  1  0  0  0  0
  3 12  1  0  0  0  0
  5  9  1  0  0  0  0
  5  4  2  0  0  0  0
  6  5  1  0  0  0  0
  7  8  2  0  0  0  0
  9  7  1  0  0  0  0
 10  1  1  0  0  0  0
 13  9  1  0  0  0  0
 15 14  1  0  0  0  0
 15 16  1  0  0  0  0
 17  7  1  0  0  0  0
 18 17  1  0  0  0  0
M  END
>  <minimizedAffinity>
-3.69488049

$$$$
