
 OpenBabel03252504003D

 30 32  0  0  0  0  0  0  0  0999 V2000
   45.9830   31.7470   45.1970 C   0  0  0  0  0  0  0  0  0  0  0  0
   45.6790   33.0430   45.6130 C   0  0  0  0  0  0  0  0  0  0  0  0
   45.4100   33.2790   46.9370 C   0  0  0  0  0  0  0  0  0  0  0  0
   45.4490   32.2260   47.8280 C   0  0  0  0  0  0  0  0  0  0  0  0
   45.2340   32.1530   49.1570 N   0  0  0  0  0  0  0  0  0  0  0  0
   45.3800   30.9050   49.6040 C   0  0  0  0  0  0  0  0  0  0  0  0
   45.7070   30.1110   48.5380 C   0  0  0  0  0  0  0  0  0  0  0  0
   45.7520   30.9280   47.4160 C   0  0  0  0  0  0  0  0  0  0  0  0
   46.0190   30.7000   46.0920 C   0  0  0  0  0  0  0  0  0  0  0  0
   46.2120   31.4530   44.1620 H   0  0  0  0  0  0  0  0  0  0  0  0
   45.1760   34.2930   47.2440 H   0  0  0  0  0  0  0  0  0  0  0  0
   44.9860   32.9910   49.7210 H   0  0  0  0  0  0  0  0  0  0  0  0
   45.2450   30.6480   50.6530 H   0  0  0  0  0  0  0  0  0  0  0  0
   45.8900   29.0430   48.5830 H   0  0  0  0  0  0  0  0  0  0  0  0
   46.2490   29.6750   45.8270 H   0  0  0  0  0  0  0  0  0  0  0  0
   46.3540   34.8570   42.5230 C   0  0  0  0  0  0  0  0  0  0  0  0
   45.6170   36.0340   42.6550 C   0  0  0  0  0  0  0  0  0  0  0  0
   44.8820   36.1940   43.8280 C   0  0  0  0  0  0  0  0  0  0  0  0
   44.9260   35.2120   44.7570 N   0  0  0  0  0  0  0  0  0  0  0  0
   45.6650   34.0750   44.5800 C   0  0  0  0  0  0  0  0  0  0  0  0
   46.3790   33.8940   43.4660 N   0  0  0  0  0  0  0  0  0  0  0  0
   45.6080   36.7980   41.8880 H   0  0  0  0  0  0  0  0  0  0  0  0
   44.2990   37.0950   43.9630 H   0  0  0  0  0  0  0  0  0  0  0  0
   47.1010   34.7370   41.2850 C   0  0  0  0  0  0  0  0  0  0  0  0
   48.2400   35.2410   41.0670 O   0  0  0  0  0  0  0  0  0  0  0  0
   46.8380   33.2900   38.1120 H   0  0  0  0  0  0  0  0  0  0  0  0
   47.2280   33.8490   38.9740 C   0  0  0  0  0  0  0  0  0  0  0  0
   48.3750   34.3820   38.8130 O   0  0  0  0  0  0  0  0  0  0  0  0
   46.5220   33.9890   40.2070 N   0  0  0  0  0  0  0  0  0  0  0  0
   45.5920   33.5160   40.2390 H   0  0  0  0  0  0  0  0  0  0  0  0
  1  2  2  0  0  0  0
  1  9  1  0  0  0  0
  2  3  1  0  0  0  0
  3 11  1  0  0  0  0
  3  4  2  0  0  0  0
  4  5  1  0  0  0  0
  5  6  1  0  0  0  0
  5 12  1  0  0  0  0
  6 13  1  0  0  0  0
  7 14  1  0  0  0  0
  7  6  2  0  0  0  0
  8  4  1  0  0  0  0
  8  7  1  0  0  0  0
  9  8  2  0  0  0  0
 10  1  1  0  0  0  0
 15  9  1  0  0  0  0
 16 17  2  0  0  0  0
 16 21  1  0  0  0  0
 17 18  1  0  0  0  0
 18 23  1  0  0  0  0
 18 19  2  0  0  0  0
 20 19  1  0  0  0  0
 20  2  1  0  0  0  0
 21 20  2  0  0  0  0
 22 17  1  0  0  0  0
 24 16  1  0  0  0  0
 25 24  2  0  0  0  0
 26 27  1  0  0  0  0
 27 29  1  0  0  0  0
 28 27  2  0  0  0  0
 29 30  1  0  0  0  0
 29 24  1  0  0  0  0
M  END
>  <minimizedAffinity>
-5.74422312

>  <minimizedRMSD>
0.735216856

$$$$
