
 OpenBabel03252502283D

 31 32  0  0  0  0  0  0  0  0999 V2000
   45.1520   34.4350   41.2370 C   0  0  0  0  0  0  0  0  0  0  0  0
   45.5550   35.0170   42.4280 C   0  0  0  0  0  0  0  0  0  0  0  0
   46.9200   35.2460   42.6060 C   0  0  0  0  0  0  0  0  0  0  0  0
   47.8280   34.8970   41.6170 C   0  0  0  0  0  0  0  0  0  0  0  0
   47.4300   34.3250   40.4470 C   0  0  0  0  0  0  0  0  0  0  0  0
   46.0670   34.1090   40.2950 C   0  0  0  0  0  0  0  0  0  0  0  0
   44.8210   35.2830   43.1900 H   0  0  0  0  0  0  0  0  0  0  0  0
   47.1920   35.7010   43.5420 H   0  0  0  0  0  0  0  0  0  0  0  0
   48.8820   35.0940   41.7980 H   0  0  0  0  0  0  0  0  0  0  0  0
   48.1160   34.0360   39.6460 H   0  0  0  0  0  0  0  0  0  0  0  0
   45.6400   32.2310   38.4820 C   0  0  0  0  0  0  0  0  0  0  0  0
   46.3160   31.3160   38.8580 O   0  0  0  0  0  0  0  0  0  0  0  0
   45.5470   33.5510   39.0910 N   0  0  0  0  0  0  0  0  0  0  0  0
   45.0600   34.4570   38.7460 H   0  0  0  0  0  0  0  0  0  0  0  0
   45.1730   31.2760   35.2540 H   0  0  0  0  0  0  0  0  0  0  0  0
   45.0640   31.7710   36.2380 C   0  0  0  0  0  0  0  0  0  0  0  0
   46.0520   30.9650   36.1750 O   0  0  0  0  0  0  0  0  0  0  0  0
   44.7230   32.5480   37.4650 N   0  0  0  0  0  0  0  0  0  0  0  0
   44.0790   32.7720   36.7500 H   0  0  0  0  0  0  0  0  0  0  0  0
   41.4550   34.8410   40.5900 C   0  0  0  0  0  0  0  0  0  0  0  0
   42.8190   35.1900   40.6830 C   0  0  0  0  0  0  0  0  0  0  0  0
   43.7180   34.2170   41.0830 C   0  0  0  0  0  0  0  0  0  0  0  0
   43.2260   32.9830   41.3590 N   0  0  0  0  0  0  0  0  0  0  0  0
   41.9200   32.6610   41.2670 C   0  0  0  0  0  0  0  0  0  0  0  0
   41.0260   33.6120   40.8750 N   0  0  0  0  0  0  0  0  0  0  0  0
   43.1890   36.1710   40.4590 H   0  0  0  0  0  0  0  0  0  0  0  0
   41.5800   31.6590   41.4990 H   0  0  0  0  0  0  0  0  0  0  0  0
   40.4720   35.8690   40.1650 C   0  0  0  0  0  0  0  0  0  0  0  0
   39.2430   35.2270   39.9850 F   0  0  0  0  0  0  0  0  0  0  0  0
   40.8490   36.2940   38.9070 F   0  0  0  0  0  0  0  0  0  0  0  0
   40.3470   36.9060   41.0590 F   0  0  0  0  0  0  0  0  0  0  0  0
  1  2  1  0  0  0  0
  2  3  2  0  0  0  0
  2  7  1  0  0  0  0
  3  8  1  0  0  0  0
  4  9  1  0  0  0  0
  4  3  1  0  0  0  0
  5  4  2  0  0  0  0
  6  5  1  0  0  0  0
  6  1  2  0  0  0  0
 10  5  1  0  0  0  0
 11 12  2  0  0  0  0
 11 13  1  0  0  0  0
 13  6  1  0  0  0  0
 14 13  1  0  0  0  0
 15 16  1  0  0  0  0
 16 18  1  0  0  0  0
 17 16  2  0  0  0  0
 18 11  1  0  0  0  0
 19 18  1  0  0  0  0
 20 21  2  0  0  0  0
 20 25  1  0  0  0  0
 21 22  1  0  0  0  0
 22  1  1  0  0  0  0
 22 23  2  0  0  0  0
 24 23  1  0  0  0  0
 24 27  1  0  0  0  0
 25 24  2  0  0  0  0
 26 21  1  0  0  0  0
 28 20  1  0  0  0  0
 28 31  1  0  0  0  0
 29 28  1  0  0  0  0
 30 28  1  0  0  0  0
M  END
>  <minimizedAffinity>
-5.90127897

>  <minimizedRMSD>
0.174272045

$$$$
