
 OpenBabel03252501333D

 20 19  0  0  0  0  0  0  0  0999 V2000
   36.3330   28.8070   41.3320 C   0  0  0  0  0  0  0  0  0  0  0  0
   36.9420   28.2860   42.4660 C   0  0  0  0  0  0  0  0  0  0  0  0
   37.3760   26.9700   42.3970 C   0  0  0  0  0  0  0  0  0  0  0  0
   37.1740   26.3090   41.2430 N   0  0  0  0  0  0  0  0  0  0  0  0
   36.5830   26.8320   40.1550 C   0  0  0  0  0  0  0  0  0  0  0  0
   36.1490   28.1130   40.1930 N   0  0  0  0  0  0  0  0  0  0  0  0
   37.8380   26.5900   43.2750 H   0  0  0  0  0  0  0  0  0  0  0  0
   36.4650   26.2190   39.2720 H   0  0  0  0  0  0  0  0  0  0  0  0
   36.8670   31.0070   40.7530 C   0  0  0  0  0  0  0  0  0  0  0  0
   37.9600   30.3940   40.5980 O   0  0  0  0  0  0  0  0  0  0  0  0
   35.8100   30.1570   41.1940 N   0  0  0  0  0  0  0  0  0  0  0  0
   34.8590   30.5230   41.3630 H   0  0  0  0  0  0  0  0  0  0  0  0
   37.1390   34.0220   39.0510 H   0  0  0  0  0  0  0  0  0  0  0  0
   37.2190   32.9650   39.3410 C   0  0  0  0  0  2  0  0  0  0  0  0
   37.8700   32.3010   38.4740 O   0  0  0  0  0  1  0  0  0  0  0  0
   36.6750   32.3980   40.5230 N   0  0  0  0  0  2  0  0  0  0  0  0
   37.1940   31.7520   39.8790 H   0  0  0  0  0  0  0  0  0  0  0  0
   37.0480   29.1640   43.5690 N   0  0  0  0  0  0  0  0  0  0  0  0
   37.9830   29.4780   43.2940 H   0  0  0  0  0  0  0  0  0  0  0  0
   36.1000   28.9350   43.9690 H   0  0  0  0  0  0  0  0  0  0  0  0
  1  2  1  0  0  0  0
  2 18  1  0  0  0  0
  3  2  2  0  0  0  0
  3  7  1  0  0  0  0
  4  3  1  0  0  0  0
  5  6  1  0  0  0  0
  5  4  2  0  0  0  0
  6  1  2  0  0  0  0
  8  5  1  0  0  0  0
  9 11  1  0  0  0  0
 10  9  2  0  0  0  0
 11  1  1  0  0  0  0
 11 12  1  0  0  0  0
 13 14  1  0  0  0  0
 15 14  1  0  0  0  0
 16  9  1  0  0  0  0
 17 16  1  0  0  0  0
 18 20  1  0  0  0  0
 19 18  1  0  0  0  0
M  END
>  <minimizedAffinity>
-5.03820705

$$$$

 OpenBabel03252501333D

 20 19  0  0  0  0  0  0  0  0999 V2000
   38.1940   30.5680   40.1850 C   0  0  0  0  0  0  0  0  0  0  0  0
   37.3850   31.5160   39.5750 C   0  0  0  0  0  0  0  0  0  0  0  0
   37.3930   31.5500   38.1880 C   0  0  0  0  0  0  0  0  0  0  0  0
   38.1800   30.6650   37.5490 N   0  0  0  0  0  0  0  0  0  0  0  0
   38.9560   29.7530   38.1590 C   0  0  0  0  0  0  0  0  0  0  0  0
   38.9690   29.6970   39.5110 N   0  0  0  0  0  0  0  0  0  0  0  0
   36.7680   32.2830   37.7410 H   0  0  0  0  0  0  0  0  0  0  0  0
   39.5560   29.0840   37.5580 H   0  0  0  0  0  0  0  0  0  0  0  0
   37.3100   29.4640   42.0460 C   0  0  0  0  0  0  0  0  0  0  0  0
   36.5660   29.0800   41.1010 O   0  0  0  0  0  0  0  0  0  0  0  0
   38.3300   30.3650   41.6190 N   0  0  0  0  0  0  0  0  0  0  0  0
   39.0130   30.7610   42.2850 H   0  0  0  0  0  0  0  0  0  0  0  0
   36.8370   27.2530   44.6820 H   0  0  0  0  0  0  0  0  0  0  0  0
   36.9580   27.6860   43.6800 C   0  0  0  0  0  2  0  0  0  0  0  0
   36.8770   26.7900   42.7810 O   0  0  0  0  0  1  0  0  0  0  0  0
   37.1740   29.0620   43.4040 N   0  0  0  0  0  2  0  0  0  0  0  0
   37.1260   28.4130   42.5810 H   0  0  0  0  0  0  0  0  0  0  0  0
   36.6400   32.3460   40.4440 N   0  0  0  0  0  0  0  0  0  0  0  0
   35.8240   31.7290   40.4170 H   0  0  0  0  0  0  0  0  0  0  0  0
   37.3990   33.0670   40.5660 H   0  0  0  0  0  0  0  0  0  0  0  0
  1 11  1  0  0  0  0
  2  1  1  0  0  0  0
  2 18  1  0  0  0  0
  3  2  2  0  0  0  0
  4  5  2  0  0  0  0
  4  3  1  0  0  0  0
  5  6  1  0  0  0  0
  6  1  2  0  0  0  0
  7  3  1  0  0  0  0
  8  5  1  0  0  0  0
  9 16  1  0  0  0  0
 10  9  2  0  0  0  0
 11  9  1  0  0  0  0
 11 12  1  0  0  0  0
 14 13  1  0  0  0  0
 15 14  1  0  0  0  0
 17 16  1  0  0  0  0
 18 20  1  0  0  0  0
 19 18  1  0  0  0  0
M  END
>  <minimizedAffinity>
-4.36567879

$$$$

 OpenBabel03252501333D

 20 19  0  0  0  0  0  0  0  0999 V2000
   37.3230   31.3500   38.8070 C   0  0  0  0  0  0  0  0  0  0  0  0
   36.8920   31.8170   40.0410 C   0  0  0  0  0  0  0  0  0  0  0  0
   36.2120   30.9180   40.8500 C   0  0  0  0  0  0  0  0  0  0  0  0
   36.0250   29.6730   40.3750 N   0  0  0  0  0  0  0  0  0  0  0  0
   36.4500   29.2410   39.1760 C   0  0  0  0  0  0  0  0  0  0  0  0
   37.1170   30.0950   38.3650 N   0  0  0  0  0  0  0  0  0  0  0  0
   35.8900   31.2950   41.7900 H   0  0  0  0  0  0  0  0  0  0  0  0
   36.2510   28.2200   38.8810 H   0  0  0  0  0  0  0  0  0  0  0  0
   39.4440   32.0510   38.1170 C   0  0  0  0  0  0  0  0  0  0  0  0
   39.6880   31.3530   39.1410 O   0  0  0  0  0  0  0  0  0  0  0  0
   38.0510   32.1250   37.8140 N   0  0  0  0  0  0  0  0  0  0  0  0
   37.7040   32.6630   37.0030 H   0  0  0  0  0  0  0  0  0  0  0  0
   42.4270   32.3830   36.3720 H   0  0  0  0  0  0  0  0  0  0  0  0
   41.5990   31.9880   36.9760 C   0  0  0  0  0  2  0  0  0  0  0  0
   41.8220   30.7870   37.3280 O   0  0  0  0  0  1  0  0  0  0  0  0
   40.4270   32.7080   37.3270 N   0  0  0  0  0  2  0  0  0  0  0  0
   40.5020   31.7210   37.6740 H   0  0  0  0  0  0  0  0  0  0  0  0
   37.2000   33.1650   40.3340 N   0  0  0  0  0  0  0  0  0  0  0  0
   38.0730   32.9180   40.8080 H   0  0  0  0  0  0  0  0  0  0  0  0
   36.3370   33.5640   39.8790 H   0  0  0  0  0  0  0  0  0  0  0  0
  1  2  1  0  0  0  0
  2 18  1  0  0  0  0
  2  3  2  0  0  0  0
  3  7  1  0  0  0  0
  4  3  1  0  0  0  0
  5  4  2  0  0  0  0
  6  1  2  0  0  0  0
  6  5  1  0  0  0  0
  8  5  1  0  0  0  0
  9 10  2  0  0  0  0
 11  9  1  0  0  0  0
 11  1  1  0  0  0  0
 12 11  1  0  0  0  0
 13 14  1  0  0  0  0
 14 15  1  0  0  0  0
 16 17  1  0  0  0  0
 16  9  1  0  0  0  0
 18 19  1  0  0  0  0
 20 18  1  0  0  0  0
M  END
>  <minimizedAffinity>
-4.35841513

$$$$

 OpenBabel03252501333D

 20 19  0  0  0  0  0  0  0  0999 V2000
   36.6510   31.2520   39.2520 C   0  0  0  0  0  0  0  0  0  0  0  0
   36.0150   30.3470   40.0900 C   0  0  0  0  0  0  0  0  0  0  0  0
   35.8280   29.0620   39.6010 C   0  0  0  0  0  0  0  0  0  0  0  0
   36.2750   28.7990   38.3600 N   0  0  0  0  0  0  0  0  0  0  0  0
   36.8890   29.6900   37.5630 C   0  0  0  0  0  0  0  0  0  0  0  0
   37.0860   30.9510   38.0130 N   0  0  0  0  0  0  0  0  0  0  0  0
   35.3390   28.3850   40.2580 H   0  0  0  0  0  0  0  0  0  0  0  0
   37.2130   29.3830   36.5780 H   0  0  0  0  0  0  0  0  0  0  0  0
   38.1710   32.6870   40.2960 C   0  0  0  0  0  0  0  0  0  0  0  0
   38.6800   31.5460   40.4770 O   0  0  0  0  0  0  0  0  0  0  0  0
   36.9440   32.6410   39.5690 N   0  0  0  0  0  0  0  0  0  0  0  0
   36.4170   33.5010   39.3470 H   0  0  0  0  0  0  0  0  0  0  0  0
   40.6750   35.0230   40.8740 H   0  0  0  0  0  0  0  0  0  0  0  0
   40.1250   34.1240   40.5650 C   0  0  0  0  0  2  0  0  0  0  0  0
   40.8990   33.2830   40.0090 O   0  0  0  0  0  1  0  0  0  0  0  0
   38.7340   33.9110   40.7550 N   0  0  0  0  0  2  0  0  0  0  0  0
   39.2740   33.1450   40.2820 H   0  0  0  0  0  0  0  0  0  0  0  0
   35.6290   30.8430   41.3560 N   0  0  0  0  0  0  0  0  0  0  0  0
   36.5000   30.5390   41.7990 H   0  0  0  0  0  0  0  0  0  0  0  0
   34.6930   31.2090   41.0370 H   0  0  0  0  0  0  0  0  0  0  0  0
  1 11  1  0  0  0  0
  1  2  1  0  0  0  0
  2 18  1  0  0  0  0
  3  2  2  0  0  0  0
  3  7  1  0  0  0  0
  4  3  1  0  0  0  0
  5  6  1  0  0  0  0
  5  4  2  0  0  0  0
  6  1  2  0  0  0  0
  8  5  1  0  0  0  0
  9 10  2  0  0  0  0
  9 16  1  0  0  0  0
 11  9  1  0  0  0  0
 12 11  1  0  0  0  0
 14 13  1  0  0  0  0
 15 14  1  0  0  0  0
 17 16  1  0  0  0  0
 18 19  1  0  0  0  0
 20 18  1  0  0  0  0
M  END
>  <minimizedAffinity>
-4.33584213

$$$$

 OpenBabel03252501333D

 20 19  0  0  0  0  0  0  0  0999 V2000
   36.4750   30.8420   40.1490 C   0  0  0  0  0  0  0  0  0  0  0  0
   36.5120   30.5300   38.7970 C   0  0  0  0  0  0  0  0  0  0  0  0
   37.2520   31.3720   37.9790 C   0  0  0  0  0  0  0  0  0  0  0  0
   37.8700   32.4170   38.5590 N   0  0  0  0  0  0  0  0  0  0  0  0
   37.8210   32.7010   39.8720 C   0  0  0  0  0  0  0  0  0  0  0  0
   37.1070   31.8980   40.6940 N   0  0  0  0  0  0  0  0  0  0  0  0
   37.2670   31.1170   36.9480 H   0  0  0  0  0  0  0  0  0  0  0  0
   38.3520   33.5660   40.2450 H   0  0  0  0  0  0  0  0  0  0  0  0
   36.5870   29.0070   41.5930 C   0  0  0  0  0  0  0  0  0  0  0  0
   37.6950   28.9690   40.9890 O   0  0  0  0  0  0  0  0  0  0  0  0
   35.7620   30.0930   41.1730 N   0  0  0  0  0  0  0  0  0  0  0  0
   34.8260   30.2490   41.5820 H   0  0  0  0  0  0  0  0  0  0  0  0
   36.8990   27.0250   44.4270 H   0  0  0  0  0  0  0  0  0  0  0  0
   37.0990   27.7250   43.6050 C   0  0  0  0  0  2  0  0  0  0  0  0
   38.2830   28.1850   43.6720 O   0  0  0  0  0  1  0  0  0  0  0  0
   36.1710   28.0830   42.5910 N   0  0  0  0  0  2  0  0  0  0  0  0
   37.1210   28.5260   42.5460 H   0  0  0  0  0  0  0  0  0  0  0  0
   35.7860   29.3820   38.4070 N   0  0  0  0  0  0  0  0  0  0  0  0
   36.6020   28.7700   38.5020 H   0  0  0  0  0  0  0  0  0  0  0  0
   34.8710   29.8860   38.2680 H   0  0  0  0  0  0  0  0  0  0  0  0
  1  6  1  0  0  0  0
  1 11  1  0  0  0  0
  2  1  2  0  0  0  0
  3  4  2  0  0  0  0
  3  2  1  0  0  0  0
  4  5  1  0  0  0  0
  5  8  1  0  0  0  0
  5  6  2  0  0  0  0
  7  3  1  0  0  0  0
  9 16  1  0  0  0  0
 10  9  2  0  0  0  0
 11 12  1  0  0  0  0
 11  9  1  0  0  0  0
 14 15  1  0  0  0  0
 14 13  1  0  0  0  0
 17 16  1  0  0  0  0
 18 19  1  0  0  0  0
 18  2  1  0  0  0  0
 20 18  1  0  0  0  0
M  END
>  <minimizedAffinity>
-4.28228569

$$$$

 OpenBabel03252501333D

 20 19  0  0  0  0  0  0  0  0999 V2000
   37.6860   29.6380   41.3760 C   0  0  0  0  0  0  0  0  0  0  0  0
   36.3330   29.6660   41.0630 C   0  0  0  0  0  0  0  0  0  0  0  0
   35.7980   28.5240   40.4850 C   0  0  0  0  0  0  0  0  0  0  0  0
   36.6280   27.4870   40.2750 N   0  0  0  0  0  0  0  0  0  0  0  0
   37.9360   27.4790   40.5850 C   0  0  0  0  0  0  0  0  0  0  0  0
   38.4860   28.5780   41.1500 N   0  0  0  0  0  0  0  0  0  0  0  0
   34.7620   28.5670   40.2540 H   0  0  0  0  0  0  0  0  0  0  0  0
   38.5220   26.5950   40.3760 H   0  0  0  0  0  0  0  0  0  0  0  0
   38.7840   31.6590   40.9640 C   0  0  0  0  0  0  0  0  0  0  0  0
   38.3630   31.3210   39.8230 O   0  0  0  0  0  0  0  0  0  0  0  0
   38.4390   30.7230   41.9840 N   0  0  0  0  0  0  0  0  0  0  0  0
   38.7180   30.8700   42.9680 H   0  0  0  0  0  0  0  0  0  0  0  0
   39.5750   35.0360   40.8010 H   0  0  0  0  0  0  0  0  0  0  0  0
   39.0890   34.0610   40.6640 C   0  0  0  0  0  2  0  0  0  0  0  0
   38.0670   34.1610   39.9140 O   0  0  0  0  0  1  0  0  0  0  0  0
   39.5280   32.8400   41.2410 N   0  0  0  0  0  2  0  0  0  0  0  0
   38.6700   32.8010   40.6370 H   0  0  0  0  0  0  0  0  0  0  0  0
   35.6530   30.8660   41.3730 N   0  0  0  0  0  0  0  0  0  0  0  0
   35.3640   30.5260   42.2950 H   0  0  0  0  0  0  0  0  0  0  0  0
   35.8770   31.3450   40.4610 H   0  0  0  0  0  0  0  0  0  0  0  0
  1 11  1  0  0  0  0
  2 18  1  0  0  0  0
  2  1  2  0  0  0  0
  3  2  1  0  0  0  0
  4  3  2  0  0  0  0
  4  5  1  0  0  0  0
  5  6  2  0  0  0  0
  6  1  1  0  0  0  0
  7  3  1  0  0  0  0
  8  5  1  0  0  0  0
  9 16  1  0  0  0  0
  9 11  1  0  0  0  0
 10  9  2  0  0  0  0
 11 12  1  0  0  0  0
 14 13  1  0  0  0  0
 15 14  1  0  0  0  0
 17 16  1  0  0  0  0
 18 19  1  0  0  0  0
 20 18  1  0  0  0  0
M  END
>  <minimizedAffinity>
-4.23568535

$$$$

 OpenBabel03252501333D

 20 19  0  0  0  0  0  0  0  0999 V2000
   37.4060   29.9570   41.9460 C   0  0  0  0  0  0  0  0  0  0  0  0
   36.5970   30.6470   41.0540 C   0  0  0  0  0  0  0  0  0  0  0  0
   37.1620   31.7360   40.4060 C   0  0  0  0  0  0  0  0  0  0  0  0
   38.4420   32.0350   40.6950 N   0  0  0  0  0  0  0  0  0  0  0  0
   39.2090   31.3530   41.5620 C   0  0  0  0  0  0  0  0  0  0  0  0
   38.6850   30.2860   42.2090 N   0  0  0  0  0  0  0  0  0  0  0  0
   36.5260   32.2510   39.7290 H   0  0  0  0  0  0  0  0  0  0  0  0
   40.2290   31.6720   41.7280 H   0  0  0  0  0  0  0  0  0  0  0  0
   37.2390   27.6260   41.9340 C   0  0  0  0  0  0  0  0  0  0  0  0
   37.7110   27.8880   40.7920 O   0  0  0  0  0  0  0  0  0  0  0  0
   37.0120   28.7920   42.7230 N   0  0  0  0  0  0  0  0  0  0  0  0
   36.6280   28.7290   43.6800 H   0  0  0  0  0  0  0  0  0  0  0  0
   37.8110   24.2510   42.5230 H   0  0  0  0  0  0  0  0  0  0  0  0
   37.9150   25.2960   42.2010 C   0  0  0  0  0  2  0  0  0  0  0  0
   39.0210   25.4830   41.6040 O   0  0  0  0  0  1  0  0  0  0  0  0
   36.9520   26.3180   42.4140 N   0  0  0  0  0  2  0  0  0  0  0  0
   37.8310   26.5890   41.9090 H   0  0  0  0  0  0  0  0  0  0  0  0
   35.2800   30.1550   40.9060 N   0  0  0  0  0  0  0  0  0  0  0  0
   35.5350   29.5610   40.1120 H   0  0  0  0  0  0  0  0  0  0  0  0
   34.8770   30.7110   41.7060 H   0  0  0  0  0  0  0  0  0  0  0  0
  1  6  1  0  0  0  0
  1 11  1  0  0  0  0
  2  1  2  0  0  0  0
  3  4  2  0  0  0  0
  3  2  1  0  0  0  0
  4  5  1  0  0  0  0
  5  8  1  0  0  0  0
  5  6  2  0  0  0  0
  7  3  1  0  0  0  0
  9 16  1  0  0  0  0
  9 11  1  0  0  0  0
 10  9  2  0  0  0  0
 11 12  1  0  0  0  0
 14 13  1  0  0  0  0
 15 14  1  0  0  0  0
 17 16  1  0  0  0  0
 18  2  1  0  0  0  0
 18 20  1  0  0  0  0
 19 18  1  0  0  0  0
M  END
>  <minimizedAffinity>
-4.23292351

$$$$

 OpenBabel03252501333D

 20 19  0  0  0  0  0  0  0  0999 V2000
   37.0340   31.8450   39.9300 C   0  0  0  0  0  0  0  0  0  0  0  0
   37.0500   31.4060   38.6130 C   0  0  0  0  0  0  0  0  0  0  0  0
   36.4680   30.1730   38.3550 C   0  0  0  0  0  0  0  0  0  0  0  0
   35.9380   29.5060   39.3960 N   0  0  0  0  0  0  0  0  0  0  0  0
   35.9320   29.9500   40.6650 C   0  0  0  0  0  0  0  0  0  0  0  0
   36.4920   31.1490   40.9470 N   0  0  0  0  0  0  0  0  0  0  0  0
   36.4920   29.8550   37.3420 H   0  0  0  0  0  0  0  0  0  0  0  0
   35.4810   29.3390   41.4350 H   0  0  0  0  0  0  0  0  0  0  0  0
   38.9800   32.9180   40.6530 C   0  0  0  0  0  0  0  0  0  0  0  0
   39.3730   31.7460   40.3970 O   0  0  0  0  0  0  0  0  0  0  0  0
   37.5860   33.1020   40.4110 N   0  0  0  0  0  0  0  0  0  0  0  0
   37.1250   34.0120   40.5770 H   0  0  0  0  0  0  0  0  0  0  0  0
   41.8030   34.9340   40.7980 H   0  0  0  0  0  0  0  0  0  0  0  0
   41.0750   34.1610   40.5190 C   0  0  0  0  0  2  0  0  0  0  0  0
   41.5100   33.4480   39.5610 O   0  0  0  0  0  1  0  0  0  0  0  0
   39.8100   33.9690   41.1340 N   0  0  0  0  0  2  0  0  0  0  0  0
   40.0630   33.3180   40.3510 H   0  0  0  0  0  0  0  0  0  0  0  0
   37.6630   32.2730   37.6790 N   0  0  0  0  0  0  0  0  0  0  0  0
   36.7780   32.7300   37.4450 H   0  0  0  0  0  0  0  0  0  0  0  0
   38.6380   31.8960   37.8200 H   0  0  0  0  0  0  0  0  0  0  0  0
  1 11  1  0  0  0  0
  1  6  1  0  0  0  0
  2  1  2  0  0  0  0
  3  2  1  0  0  0  0
  3  4  2  0  0  0  0
  4  5  1  0  0  0  0
  5  6  2  0  0  0  0
  5  8  1  0  0  0  0
  7  3  1  0  0  0  0
  9 16  1  0  0  0  0
 10  9  2  0  0  0  0
 11 12  1  0  0  0  0
 11  9  1  0  0  0  0
 14 13  1  0  0  0  0
 15 14  1  0  0  0  0
 17 16  1  0  0  0  0
 18 20  1  0  0  0  0
 18  2  1  0  0  0  0
 19 18  1  0  0  0  0
M  END
>  <minimizedAffinity>
-4.21460867

$$$$

 OpenBabel03252501333D

 20 19  0  0  0  0  0  0  0  0999 V2000
   36.0890   28.7150   40.7890 C   0  0  0  0  0  0  0  0  0  0  0  0
   35.9840   27.8900   39.6780 C   0  0  0  0  0  0  0  0  0  0  0  0
   36.4660   26.5950   39.8090 C   0  0  0  0  0  0  0  0  0  0  0  0
   36.9940   26.2470   40.9970 N   0  0  0  0  0  0  0  0  0  0  0  0
   37.0860   27.0620   42.0610 C   0  0  0  0  0  0  0  0  0  0  0  0
   36.6250   28.3300   41.9630 N   0  0  0  0  0  0  0  0  0  0  0  0
   36.3760   25.9810   38.9480 H   0  0  0  0  0  0  0  0  0  0  0  0
   37.5290   26.6890   42.9750 H   0  0  0  0  0  0  0  0  0  0  0  0
   36.7600   30.9440   40.5760 C   0  0  0  0  0  0  0  0  0  0  0  0
   37.8190   30.2980   40.3380 O   0  0  0  0  0  0  0  0  0  0  0  0
   35.6470   30.0990   40.8630 N   0  0  0  0  0  0  0  0  0  0  0  0
   34.7140   30.4900   41.0760 H   0  0  0  0  0  0  0  0  0  0  0  0
   37.2400   34.1680   39.3800 H   0  0  0  0  0  0  0  0  0  0  0  0
   37.2530   33.0760   39.4980 C   0  0  0  0  0  2  0  0  0  0  0  0
   37.8840   32.5200   38.5440 O   0  0  0  0  0  1  0  0  0  0  0  0
   36.6530   32.3630   40.5680 N   0  0  0  0  0  2  0  0  0  0  0  0
   37.1470   31.7970   39.8360 H   0  0  0  0  0  0  0  0  0  0  0  0
   35.3930   28.4680   38.5320 N   0  0  0  0  0  0  0  0  0  0  0  0
   34.4570   28.1370   38.7830 H   0  0  0  0  0  0  0  0  0  0  0  0
   36.2900   28.8710   38.1510 H   0  0  0  0  0  0  0  0  0  0  0  0
  1 11  1  0  0  0  0
  1  6  1  0  0  0  0
  2  3  1  0  0  0  0
  2  1  2  0  0  0  0
  3  4  2  0  0  0  0
  4  5  1  0  0  0  0
  5  8  1  0  0  0  0
  6  5  2  0  0  0  0
  7  3  1  0  0  0  0
  9 11  1  0  0  0  0
 10  9  2  0  0  0  0
 11 12  1  0  0  0  0
 13 14  1  0  0  0  0
 15 14  1  0  0  0  0
 16  9  1  0  0  0  0
 17 16  1  0  0  0  0
 18 19  1  0  0  0  0
 18  2  1  0  0  0  0
 20 18  1  0  0  0  0
M  END
>  <minimizedAffinity>
-4.20283175

$$$$
