
 OpenBabel03252502283D

 31 32  0  0  0  0  0  0  0  0999 V2000
   45.1390   34.4450   41.2600 C   0  0  0  0  0  0  0  0  0  0  0  0
   45.5380   35.0460   42.4420 C   0  0  0  0  0  0  0  0  0  0  0  0
   46.9040   35.2750   42.6220 C   0  0  0  0  0  0  0  0  0  0  0  0
   47.8140   34.9090   41.6420 C   0  0  0  0  0  0  0  0  0  0  0  0
   47.4200   34.3190   40.4800 C   0  0  0  0  0  0  0  0  0  0  0  0
   46.0560   34.1030   40.3260 C   0  0  0  0  0  0  0  0  0  0  0  0
   44.8020   35.3250   43.1980 H   0  0  0  0  0  0  0  0  0  0  0  0
   47.1730   35.7460   43.5520 H   0  0  0  0  0  0  0  0  0  0  0  0
   48.8680   35.1080   41.8240 H   0  0  0  0  0  0  0  0  0  0  0  0
   48.1080   34.0160   39.6870 H   0  0  0  0  0  0  0  0  0  0  0  0
   45.4820   32.1620   38.6250 C   0  0  0  0  0  0  0  0  0  0  0  0
   45.9930   31.1950   39.1150 O   0  0  0  0  0  0  0  0  0  0  0  0
   45.5400   33.5260   39.1300 N   0  0  0  0  0  0  0  0  0  0  0  0
   45.2120   34.4600   38.6860 H   0  0  0  0  0  0  0  0  0  0  0  0
   46.0760   33.1890   35.4410 H   0  0  0  0  0  0  0  0  0  0  0  0
   45.5740   32.8880   36.3800 C   0  0  0  0  0  0  0  0  0  0  0  0
   46.8490   32.8740   36.4520 O   0  0  0  0  0  0  0  0  0  0  0  0
   44.6870   32.5190   37.5220 N   0  0  0  0  0  0  0  0  0  0  0  0
   44.1290   32.7710   36.7470 H   0  0  0  0  0  0  0  0  0  0  0  0
   41.4440   34.8490   40.6010 C   0  0  0  0  0  0  0  0  0  0  0  0
   42.8080   35.1980   40.6950 C   0  0  0  0  0  0  0  0  0  0  0  0
   43.7050   34.2280   41.1040 C   0  0  0  0  0  0  0  0  0  0  0  0
   43.2110   32.9960   41.3880 N   0  0  0  0  0  0  0  0  0  0  0  0
   41.9060   32.6740   41.2950 C   0  0  0  0  0  0  0  0  0  0  0  0
   41.0130   33.6230   40.8940 N   0  0  0  0  0  0  0  0  0  0  0  0
   43.1790   36.1770   40.4640 H   0  0  0  0  0  0  0  0  0  0  0  0
   41.5650   31.6740   41.5340 H   0  0  0  0  0  0  0  0  0  0  0  0
   40.4630   35.8750   40.1660 C   0  0  0  0  0  0  0  0  0  0  0  0
   39.2370   35.2300   39.9770 F   0  0  0  0  0  0  0  0  0  0  0  0
   40.8490   36.2990   38.9100 F   0  0  0  0  0  0  0  0  0  0  0  0
   40.3280   36.9130   41.0570 F   0  0  0  0  0  0  0  0  0  0  0  0
  1  2  1  0  0  0  0
  2  3  2  0  0  0  0
  2  7  1  0  0  0  0
  3  8  1  0  0  0  0
  4  9  1  0  0  0  0
  4  3  1  0  0  0  0
  5  4  2  0  0  0  0
  6  5  1  0  0  0  0
  6  1  2  0  0  0  0
 10  5  1  0  0  0  0
 11 12  2  0  0  0  0
 11 13  1  0  0  0  0
 13  6  1  0  0  0  0
 14 13  1  0  0  0  0
 15 16  1  0  0  0  0
 16 17  2  0  0  0  0
 16 18  1  0  0  0  0
 18 11  1  0  0  0  0
 19 18  1  0  0  0  0
 20 21  2  0  0  0  0
 20 25  1  0  0  0  0
 21 22  1  0  0  0  0
 22  1  1  0  0  0  0
 22 23  2  0  0  0  0
 24 23  1  0  0  0  0
 24 27  1  0  0  0  0
 25 24  2  0  0  0  0
 26 21  1  0  0  0  0
 28 20  1  0  0  0  0
 28 31  1  0  0  0  0
 29 28  1  0  0  0  0
 30 28  1  0  0  0  0
M  END
>  <minimizedAffinity>
-6.02957201

>  <minimizedRMSD>
0.0662920251

$$$$
