
 OpenBabel03252508353D

 27 28  0  0  0  0  0  0  0  0999 V2000
   46.6110   33.7940   40.2490 C   0  0  0  0  0  0  0  0  0  0  0  0
   47.9530   33.9390   39.9420 C   0  0  0  0  0  0  0  0  0  0  0  0
   48.6930   34.7660   40.7340 C   0  0  0  0  0  0  0  0  0  0  0  0
   48.1710   35.4570   41.8140 C   0  0  0  0  0  0  0  0  0  0  0  0
   46.8220   35.2890   42.0920 C   0  0  0  0  0  0  0  0  0  0  0  0
   46.0510   34.4660   41.3190 C   0  0  0  0  0  0  0  0  0  0  0  0
   49.7430   34.8880   40.5060 H   0  0  0  0  0  0  0  0  0  0  0  0
   48.8190   36.0970   42.4000 H   0  0  0  0  0  0  0  0  0  0  0  0
   46.3910   35.8200   42.9340 H   0  0  0  0  0  0  0  0  0  0  0  0
   48.7990   32.9020   36.4140 C   0  0  0  0  0  0  0  0  0  0  0  0
   48.2920   33.6540   37.4950 C   0  0  0  0  0  0  0  0  0  0  0  0
   48.4610   33.1950   38.8000 C   0  0  0  0  0  0  0  0  0  0  0  0
   49.1200   32.0220   38.9380 N   0  0  0  0  0  0  0  0  0  0  0  0
   49.5960   31.3200   37.9060 C   0  0  0  0  0  0  0  0  0  0  0  0
   49.4330   31.7610   36.6510 N   0  0  0  0  0  0  0  0  0  0  0  0
   48.5950   33.4200   35.1080 N   0  0  0  0  0  0  0  0  0  0  0  0
   47.7590   34.6000   37.3720 H   0  0  0  0  0  0  0  0  0  0  0  0
   50.1260   30.3750   38.0430 H   0  0  0  0  0  0  0  0  0  0  0  0
   48.0490   32.7310   34.5180 H   0  0  0  0  0  0  0  0  0  0  0  0
   49.0430   34.3710   35.0450 H   0  0  0  0  0  0  0  0  0  0  0  0
   43.4600   33.2180   43.1150 H   0  0  0  0  0  0  0  0  0  0  0  0
   44.4570   33.4460   42.7450 C   0  0  0  0  0  0  0  0  0  0  0  0
   45.1250   32.7640   43.5650 O   0  0  0  0  0  0  0  0  0  0  0  0
   44.6810   34.3110   41.6220 N   0  0  0  0  0  0  0  0  0  0  0  0
   43.8040   34.6870   41.2110 H   0  0  0  0  0  0  0  0  0  0  0  0
   45.0710   32.2500   38.8210 N   0  0  0  0  0  0  0  0  0  0  0  0
   45.7650   32.9390   39.4590 C   0  0  0  0  0  0  0  0  0  0  0  0
  1  6  1  0  0  0  0
  2  1  2  0  0  0  0
  2  3  1  0  0  0  0
  3  4  2  0  0  0  0
  4  5  1  0  0  0  0
  4  8  1  0  0  0  0
  5  9  1  0  0  0  0
  6 24  1  0  0  0  0
  6  5  2  0  0  0  0
  7  3  1  0  0  0  0
 10 15  2  0  0  0  0
 10 11  1  0  0  0  0
 11 12  2  0  0  0  0
 12 13  1  0  0  0  0
 12  2  1  0  0  0  0
 14 18  1  0  0  0  0
 14 13  2  0  0  0  0
 15 14  1  0  0  0  0
 16 10  1  0  0  0  0
 17 11  1  0  0  0  0
 19 16  1  0  0  0  0
 20 16  1  0  0  0  0
 22 21  1  0  0  0  0
 22 23  2  0  0  0  0
 24 22  1  0  0  0  0
 25 24  1  0  0  0  0
 26 27  3  0  0  0  0
 27  1  1  0  0  0  0
M  END
>  <minimizedAffinity>
-4.28319407

>  <minimizedRMSD>
6.00254965

$$$$
