
 OpenBabel03252507303D

 45 47  0  0  1  0  0  0  0  0999 V2000
   47.5990   31.7290   46.3720 C   0  0  2  0  0  0  0  0  0  0  0  0
   47.3320   30.3000   45.8170 C   0  0  0  0  0  0  0  0  0  0  0  0
   48.1370   29.3070   46.5850 C   0  0  0  0  0  0  0  0  0  0  0  0
   48.1560   29.4850   48.0630 C   0  0  0  0  0  0  0  0  0  0  0  0
   48.1670   30.8530   48.5090 C   0  0  0  0  0  0  0  0  0  0  0  0
   47.1720   31.7670   47.7570 C   0  0  2  0  0  0  0  0  0  0  0  0
   48.6930   31.8230   46.2580 H   0  0  0  0  0  0  0  0  0  0  0  0
   47.6730   30.3560   44.7630 H   0  0  0  0  0  0  0  0  0  0  0  0
   46.2730   30.0520   45.8050 H   0  0  0  0  0  0  0  0  0  0  0  0
   49.1160   29.2440   46.0730 H   0  0  0  0  0  0  0  0  0  0  0  0
   47.6590   28.3040   46.3920 H   0  0  0  0  0  0  0  0  0  0  0  0
   49.2690   29.2160   48.2640 H   0  0  0  0  0  0  0  0  0  0  0  0
   47.7900   28.6620   48.6860 H   0  0  0  0  0  0  0  0  0  0  0  0
   49.1250   31.4270   48.4930 H   0  0  0  0  0  0  0  0  0  0  0  0
   47.8370   30.9120   49.5840 H   0  0  0  0  0  0  0  0  0  0  0  0
   47.2870   32.6980   48.3150 H   0  0  0  0  0  0  0  0  0  0  0  0
   46.9550   32.7410   45.5590 C   0  0  0  0  0  0  0  0  0  0  0  0
   45.8610   33.4000   46.1070 C   0  0  0  0  0  0  0  0  0  0  0  0
   45.1860   34.3800   45.3410 C   0  0  0  0  0  0  0  0  0  0  0  0
   45.6820   34.6190   44.0610 N   0  0  0  0  0  0  0  0  0  0  0  0
   46.7430   33.9490   43.5970 C   0  0  0  0  0  0  0  0  0  0  0  0
   47.3650   33.0290   44.3290 N   0  0  0  0  0  0  0  0  0  0  0  0
   45.3500   33.4030   47.0440 H   0  0  0  0  0  0  0  0  0  0  0  0
   44.3460   34.9740   45.5870 H   0  0  0  0  0  0  0  0  0  0  0  0
   47.2240   34.2650   42.2480 C   0  0  0  0  0  0  0  0  0  0  0  0
   48.3070   35.0920   42.0560 C   0  0  0  0  0  0  0  0  0  0  0  0
   48.8330   35.4510   40.8410 C   0  0  0  0  0  0  0  0  0  0  0  0
   48.1770   34.9030   39.7690 C   0  0  0  0  0  0  0  0  0  0  0  0
   47.0750   34.0600   39.9230 C   0  0  0  0  0  0  0  0  0  0  0  0
   46.6050   33.7470   41.1750 N   0  0  0  0  0  0  0  0  0  0  0  0
   48.7690   35.4840   42.9730 H   0  0  0  0  0  0  0  0  0  0  0  0
   49.6730   36.0920   40.7000 H   0  0  0  0  0  0  0  0  0  0  0  0
   48.4910   35.1060   38.7530 H   0  0  0  0  0  0  0  0  0  0  0  0
   47.2470   32.9980   36.7160 H   0  0  0  0  0  0  0  0  0  0  0  0
   47.4310   33.3850   37.7300 C   0  0  0  0  0  0  0  0  0  0  0  0
   48.6280   33.7210   37.9530 O   0  0  0  0  0  0  0  0  0  0  0  0
   46.4400   33.5260   38.7680 N   0  0  0  0  0  0  0  0  0  0  0  0
   45.4820   33.2380   38.5320 H   0  0  0  0  0  0  0  0  0  0  0  0
   45.8300   31.1940   47.8830 N   0  0  0  0  0  0  0  0  0  0  0  0
   45.1470   30.6520   48.9850 C   0  0  0  0  0  0  0  0  0  0  0  0
   44.6110   31.3780   49.8980 O   0  0  0  0  0  0  0  0  0  0  0  0
   45.0850   29.2260   49.0130 N   0  0  0  0  0  0  0  0  0  0  0  0
   45.1830   31.0600   47.0170 H   0  0  0  0  0  0  0  0  0  0  0  0
   44.7350   28.5530   48.2930 H   0  0  0  0  0  0  0  0  0  0  0  0
   45.3810   28.5550   49.7660 H   0  0  0  0  0  0  0  0  0  0  0  0
  1  7  1  6  0  0  0
  1  6  1  0  0  0  0
  2  1  1  0  0  0  0
  2  3  1  0  0  0  0
  3  4  1  0  0  0  0
  4 12  1  0  0  0  0
  4  5  1  0  0  0  0
  4 13  1  0  0  0  0
  5 15  1  0  0  0  0
  6 39  1  0  0  0  0
  6 16  1  1  0  0  0
  6  5  1  0  0  0  0
  8  2  1  0  0  0  0
  9  2  1  0  0  0  0
 10  3  1  0  0  0  0
 11  3  1  0  0  0  0
 14  5  1  0  0  0  0
 17 18  1  0  0  0  0
 17  1  1  0  0  0  0
 18 23  1  0  0  0  0
 19 24  1  0  0  0  0
 19 18  2  0  0  0  0
 20 19  1  0  0  0  0
 21 20  2  0  0  0  0
 21 22  1  0  0  0  0
 22 17  2  0  0  0  0
 25 21  1  0  0  0  0
 26 25  1  0  0  0  0
 26 31  1  0  0  0  0
 27 26  2  0  0  0  0
 28 29  2  0  0  0  0
 28 27  1  0  0  0  0
 29 30  1  0  0  0  0
 30 25  2  0  0  0  0
 32 27  1  0  0  0  0
 33 28  1  0  0  0  0
 34 35  1  0  0  0  0
 35 36  2  0  0  0  0
 35 37  1  0  0  0  0
 37 29  1  0  0  0  0
 38 37  1  0  0  0  0
 39 40  1  0  0  0  0
 40 42  1  0  0  0  0
 40 41  2  0  0  0  0
 42 45  1  0  0  0  0
 43 39  1  0  0  0  0
 44 42  1  0  0  0  0
M  END
>  <minimizedAffinity>
-6.46996021

>  <minimizedRMSD>
0.294584513

$$$$
