
 OpenBabel03252506303D

 28 29  0  0  1  0  0  0  0  0999 V2000
   44.4750   35.7410   45.0090 C   0  0  0  0  0  0  0  0  0  0  0  0
   45.1130   35.7070   43.7580 C   0  0  0  0  0  0  0  0  0  0  0  0
   46.0290   34.6940   43.4990 C   0  0  0  0  0  0  0  0  0  0  0  0
   46.2560   33.7890   44.4810 N   0  0  0  0  0  0  0  0  0  0  0  0
   45.6430   33.8380   45.6610 C   0  0  0  0  0  0  0  0  0  0  0  0
   44.7600   34.8010   45.9300 N   0  0  0  0  0  0  0  0  0  0  0  0
   45.9410   32.8470   46.6360 N   0  0  0  0  0  0  0  0  0  0  0  0
   45.1500   32.5770   47.8350 C   0  0  0  0  0  0  0  0  0  0  0  0
   46.2170   32.2460   48.8420 C   0  0  0  0  0  0  0  0  0  0  0  0
   47.5070   32.0550   48.0770 C   0  0  0  0  0  0  0  0  0  0  0  0
   47.0590   31.9170   46.6560 C   0  0  1  0  0  0  0  0  0  0  0  0
   43.7470   36.4910   45.3020 H   0  0  0  0  0  0  0  0  0  0  0  0
   46.4910   34.6970   42.5450 H   0  0  0  0  0  0  0  0  0  0  0  0
   44.4930   31.7080   47.6620 H   0  0  0  0  0  0  0  0  0  0  0  0
   44.6250   33.4930   48.1160 H   0  0  0  0  0  0  0  0  0  0  0  0
   45.9750   31.3040   49.3520 H   0  0  0  0  0  0  0  0  0  0  0  0
   46.3430   33.0900   49.5600 H   0  0  0  0  0  0  0  0  0  0  0  0
   48.0570   31.1600   48.3980 H   0  0  0  0  0  0  0  0  0  0  0  0
   48.1550   32.9780   48.1460 H   0  0  0  0  0  0  0  0  0  0  0  0
   47.8380   32.2620   45.9690 H   0  0  0  0  0  0  0  0  0  0  0  0
   46.9530   28.5250   45.6870 H   0  0  0  0  0  0  0  0  0  0  0  0
   47.3660   29.5070   45.8490 C   0  0  0  0  0  0  0  0  0  0  0  0
   48.5740   29.7720   45.5510 O   0  0  0  0  0  0  0  0  0  0  0  0
   46.6060   30.5610   46.3960 N   0  0  0  0  0  0  0  0  0  0  0  0
   45.6150   30.4130   46.6610 H   0  0  0  0  0  0  0  0  0  0  0  0
   44.7500   36.7470   42.8340 N   0  0  0  0  0  0  0  0  0  0  0  0
   43.7470   36.6080   42.5740 H   0  0  0  0  0  0  0  0  0  0  0  0
   45.3180   37.5260   42.4470 H   0  0  0  0  0  0  0  0  0  0  0  0
  1 12  1  0  0  0  0
  1  6  1  0  0  0  0
  2  1  2  0  0  0  0
  3  2  1  0  0  0  0
  3  4  2  0  0  0  0
  4  5  1  0  0  0  0
  5  6  2  0  0  0  0
  5  7  1  0  0  0  0
  7 11  1  0  0  0  0
  7  8  1  0  0  0  0
  8 15  1  0  0  0  0
  8  9  1  0  0  0  0
  9 16  1  0  0  0  0
  9 17  1  0  0  0  0
 10 19  1  0  0  0  0
 10 18  1  0  0  0  0
 10  9  1  0  0  0  0
 11 20  1  6  0  0  0
 11 10  1  0  0  0  0
 13  3  1  0  0  0  0
 14  8  1  0  0  0  0
 21 22  1  0  0  0  0
 22 24  1  0  0  0  0
 23 22  2  0  0  0  0
 24 11  1  0  0  0  0
 24 25  1  0  0  0  0
 26  2  1  0  0  0  0
 27 26  1  0  0  0  0
 28 26  1  0  0  0  0
M  END
>  <minimizedAffinity>
-4.99038649

>  <minimizedRMSD>
0.325519353

$$$$
