
 OpenBabel03252509323D

 36 37  0  0  1  0  0  0  0  0999 V2000
   46.1680   35.1360   43.3540 O   0  0  0  0  0  0  0  0  0  0  0  0
   46.8280   34.4580   42.3260 C   0  0  1  0  0  0  0  0  0  0  0  0
   46.0600   34.4470   41.0320 C   0  0  0  0  0  0  0  0  0  0  0  0
   47.1110   33.9870   40.0540 C   0  0  0  0  0  0  0  0  0  0  0  0
   48.4260   34.4800   40.6200 C   0  0  0  0  0  0  0  0  0  0  0  0
   48.0660   35.2460   41.8910 C   0  0  2  0  0  0  0  0  0  0  0  0
   47.1780   33.4640   42.6150 H   0  0  0  0  0  0  0  0  0  0  0  0
   45.1810   33.7710   41.0900 H   0  0  0  0  0  0  0  0  0  0  0  0
   45.7870   35.4880   40.7630 H   0  0  0  0  0  0  0  0  0  0  0  0
   47.1410   32.8670   40.1240 H   0  0  0  0  0  0  0  0  0  0  0  0
   46.9390   34.3320   39.0270 H   0  0  0  0  0  0  0  0  0  0  0  0
   49.1370   33.6600   40.8240 H   0  0  0  0  0  0  0  0  0  0  0  0
   48.8110   35.2380   39.9080 H   0  0  0  0  0  0  0  0  0  0  0  0
   47.8550   36.2980   41.7340 H   0  0  0  0  0  0  0  0  0  0  0  0
   50.8860   33.7220   43.2780 H   0  0  0  0  0  0  0  0  0  0  0  0
   50.0600   33.8930   42.5830 C   0  0  0  0  0  0  0  0  0  0  0  0
   49.9520   33.0910   41.6310 O   0  0  0  0  0  0  0  0  0  0  0  0
   49.1700   35.0020   42.8020 N   0  0  0  0  0  0  0  0  0  0  0  0
   49.2730   35.6630   43.6040 H   0  0  0  0  0  0  0  0  0  0  0  0
   44.9290   34.7290   45.5910 O   0  0  0  0  0  0  0  0  0  0  0  0
   45.5930   34.0090   44.4650 P   0  0  1  0  0  0  0  0  0  0  0  0
   44.5990   32.8700   43.7410 O   0  0  0  0  0  0  0  0  0  0  0  0
   44.8420   32.7050   42.7920 H   0  0  0  0  0  0  0  0  0  0  0  0
   46.9310   33.1490   45.0580 O   0  0  0  0  0  0  0  0  0  0  0  0
   46.5620   31.8450   45.2190 C   0  0  0  0  0  0  0  0  0  0  0  0
   45.7950   31.4340   44.5790 H   0  0  0  0  0  0  0  0  0  0  0  0
   47.4870   31.2350   44.9990 H   0  0  0  0  0  0  0  0  0  0  0  0
   46.3960   32.0060   48.9280 C   0  0  0  0  0  0  0  0  0  0  0  0
   46.7380   32.3270   47.6070 C   0  0  0  0  0  0  0  0  0  0  0  0
   46.2150   31.5260   46.6070 C   0  0  0  0  0  0  0  0  0  0  0  0
   45.3970   30.4690   46.9500 N   0  0  0  0  0  0  0  0  0  0  0  0
   45.0970   30.2010   48.2410 C   0  0  0  0  0  0  0  0  0  0  0  0
   45.6010   30.9740   49.2130 N   0  0  0  0  0  0  0  0  0  0  0  0
   46.7790   32.6020   49.7570 H   0  0  0  0  0  0  0  0  0  0  0  0
   47.3780   33.1640   47.4370 H   0  0  0  0  0  0  0  0  0  0  0  0
   44.4460   29.3510   48.4340 H   0  0  0  0  0  0  0  0  0  0  0  0
  1 21  1  0  0  0  0
  2  7  1  1  0  0  0
  2  1  1  0  0  0  0
  3  8  1  0  0  0  0
  3  2  1  0  0  0  0
  4 10  1  0  0  0  0
  4  5  1  0  0  0  0
  4  3  1  0  0  0  0
  5 12  1  0  0  0  0
  5  6  1  0  0  0  0
  6 14  1  6  0  0  0
  6  2  1  0  0  0  0
  6 18  1  0  0  0  0
  9  3  1  0  0  0  0
 11  4  1  0  0  0  0
 13  5  1  0  0  0  0
 16 18  1  0  0  0  0
 16 15  1  0  0  0  0
 17 16  2  0  0  0  0
 18 19  1  0  0  0  0
 21 24  1  0  0  0  0
 21 20  2  1  0  0  0
 22 21  1  0  0  0  0
 23 22  1  0  0  0  0
 24 25  1  0  0  0  0
 25 30  1  0  0  0  0
 26 25  1  0  0  0  0
 27 25  1  0  0  0  0
 28 33  1  0  0  0  0
 28 34  1  0  0  0  0
 29 28  2  0  0  0  0
 30 31  2  0  0  0  0
 30 29  1  0  0  0  0
 31 32  1  0  0  0  0
 32 36  1  0  0  0  0
 32 33  2  0  0  0  0
 35 29  1  0  0  0  0
M  END
>  <minimizedAffinity>
-5.29377985

>  <minimizedRMSD>
0.891779959

$$$$
