
 OpenBabel03252509323D

 36 37  0  0  1  0  0  0  0  0999 V2000
   46.1400   35.2200   43.3270 O   0  0  0  0  0  0  0  0  0  0  0  0
   46.6370   34.4550   42.2680 C   0  0  1  0  0  0  0  0  0  0  0  0
   45.7030   34.3940   41.0900 C   0  0  0  0  0  0  0  0  0  0  0  0
   46.6000   33.8350   40.0150 C   0  0  0  0  0  0  0  0  0  0  0  0
   47.9930   34.3100   40.3700 C   0  0  0  0  0  0  0  0  0  0  0  0
   47.8290   35.1660   41.6240 C   0  0  2  0  0  0  0  0  0  0  0  0
   46.9920   33.4680   42.5740 H   0  0  0  0  0  0  0  0  0  0  0  0
   44.8190   33.7580   41.3080 H   0  0  0  0  0  0  0  0  0  0  0  0
   45.4280   35.4270   40.7910 H   0  0  0  0  0  0  0  0  0  0  0  0
   46.6050   32.7210   40.1540 H   0  0  0  0  0  0  0  0  0  0  0  0
   46.3030   34.1230   38.9990 H   0  0  0  0  0  0  0  0  0  0  0  0
   48.6990   33.4770   40.5320 H   0  0  0  0  0  0  0  0  0  0  0  0
   48.3020   35.0080   39.5650 H   0  0  0  0  0  0  0  0  0  0  0  0
   47.6320   36.2140   41.4270 H   0  0  0  0  0  0  0  0  0  0  0  0
   50.2930   33.4480   43.4060 H   0  0  0  0  0  0  0  0  0  0  0  0
   49.3800   33.6050   42.8250 C   0  0  0  0  0  0  0  0  0  0  0  0
   48.6920   32.5940   42.5750 O   0  0  0  0  0  0  0  0  0  0  0  0
   49.0370   34.9350   42.3960 N   0  0  0  0  0  0  0  0  0  0  0  0
   49.6230   35.7710   42.6130 H   0  0  0  0  0  0  0  0  0  0  0  0
   44.6910   34.9920   45.4610 O   0  0  0  0  0  0  0  0  0  0  0  0
   45.4680   34.1870   44.4740 P   0  0  1  0  0  0  0  0  0  0  0  0
   44.5580   32.9720   43.7610 O   0  0  0  0  0  0  0  0  0  0  0  0
   44.8940   32.7270   42.8600 H   0  0  0  0  0  0  0  0  0  0  0  0
   46.7470   33.4040   45.2680 O   0  0  0  0  0  0  0  0  0  0  0  0
   46.4520   32.0730   45.3430 C   0  0  0  0  0  0  0  0  0  0  0  0
   45.7480   31.6520   44.6410 H   0  0  0  0  0  0  0  0  0  0  0  0
   47.4240   31.5320   45.1460 H   0  0  0  0  0  0  0  0  0  0  0  0
   45.9130   32.1200   49.0190 C   0  0  0  0  0  0  0  0  0  0  0  0
   46.3020   32.5320   47.7380 C   0  0  0  0  0  0  0  0  0  0  0  0
   46.0520   31.6620   46.6920 C   0  0  0  0  0  0  0  0  0  0  0  0
   45.4420   30.4510   46.9540 N   0  0  0  0  0  0  0  0  0  0  0  0
   45.0860   30.1010   48.2110 C   0  0  0  0  0  0  0  0  0  0  0  0
   45.3260   30.9400   49.2270 N   0  0  0  0  0  0  0  0  0  0  0  0
   46.0850   32.7650   49.8820 H   0  0  0  0  0  0  0  0  0  0  0  0
   46.7670   33.4860   47.6300 H   0  0  0  0  0  0  0  0  0  0  0  0
   44.6100   29.1300   48.3400 H   0  0  0  0  0  0  0  0  0  0  0  0
  1 21  1  0  0  0  0
  2  7  1  1  0  0  0
  2  1  1  0  0  0  0
  3  8  1  0  0  0  0
  3  2  1  0  0  0  0
  4 10  1  0  0  0  0
  4  5  1  0  0  0  0
  4  3  1  0  0  0  0
  5 12  1  0  0  0  0
  5  6  1  0  0  0  0
  6 14  1  6  0  0  0
  6  2  1  0  0  0  0
  6 18  1  0  0  0  0
  9  3  1  0  0  0  0
 11  4  1  0  0  0  0
 13  5  1  0  0  0  0
 16 15  1  0  0  0  0
 17 16  2  0  0  0  0
 18 19  1  0  0  0  0
 18 16  1  0  0  0  0
 21 24  1  0  0  0  0
 21 20  2  1  0  0  0
 22 21  1  0  0  0  0
 23 22  1  0  0  0  0
 24 25  1  0  0  0  0
 25 30  1  0  0  0  0
 26 25  1  0  0  0  0
 27 25  1  0  0  0  0
 28 33  1  0  0  0  0
 28 34  1  0  0  0  0
 29 28  2  0  0  0  0
 30 31  2  0  0  0  0
 30 29  1  0  0  0  0
 31 32  1  0  0  0  0
 32 36  1  0  0  0  0
 32 33  2  0  0  0  0
 35 29  1  0  0  0  0
M  END
>  <minimizedAffinity>
-5.07629061

>  <minimizedRMSD>
1.11650562

$$$$
