
 OpenBabel03252507343D

 45 47  0  0  1  0  0  0  0  0999 V2000
   37.9660   25.7420   41.0210 C   0  0  2  0  0  0  0  0  0  0  0  0
   37.2300   24.5590   41.7130 C   0  0  0  0  0  0  0  0  0  0  0  0
   37.3320   23.3390   40.8620 C   0  0  0  0  0  0  0  0  0  0  0  0
   38.6690   23.0690   40.2650 C   0  0  0  0  0  0  0  0  0  0  0  0
   39.3980   24.2420   39.8580 C   0  0  0  0  0  0  0  0  0  0  0  0
   39.3670   25.3920   40.8890 C   0  0  2  0  0  0  0  0  0  0  0  0
   37.4470   25.8030   40.0490 H   0  0  0  0  0  0  0  0  0  0  0  0
   36.1790   24.9060   41.7840 H   0  0  0  0  0  0  0  0  0  0  0  0
   37.5860   24.3860   42.7260 H   0  0  0  0  0  0  0  0  0  0  0  0
   36.4700   23.3750   40.1690 H   0  0  0  0  0  0  0  0  0  0  0  0
   37.1050   22.4670   41.5410 H   0  0  0  0  0  0  0  0  0  0  0  0
   38.3280   22.6910   39.2200 H   0  0  0  0  0  0  0  0  0  0  0  0
   39.1600   22.1210   40.5080 H   0  0  0  0  0  0  0  0  0  0  0  0
   39.1390   24.7390   38.8910 H   0  0  0  0  0  0  0  0  0  0  0  0
   40.4920   23.9970   39.7480 H   0  0  0  0  0  0  0  0  0  0  0  0
   40.0430   26.1080   40.4190 H   0  0  0  0  0  0  0  0  0  0  0  0
   37.7640   26.9850   41.7390 C   0  0  0  0  0  0  0  0  0  0  0  0
   37.3680   26.8970   43.0690 C   0  0  0  0  0  0  0  0  0  0  0  0
   37.1350   28.0840   43.8030 C   0  0  0  0  0  0  0  0  0  0  0  0
   37.3280   29.2840   43.1220 N   0  0  0  0  0  0  0  0  0  0  0  0
   37.7140   29.2950   41.8400 C   0  0  0  0  0  0  0  0  0  0  0  0
   37.9260   28.1700   41.1640 N   0  0  0  0  0  0  0  0  0  0  0  0
   37.2000   26.1150   43.7750 H   0  0  0  0  0  0  0  0  0  0  0  0
   36.8310   28.2120   44.8080 H   0  0  0  0  0  0  0  0  0  0  0  0
   37.9170   30.5950   41.1920 C   0  0  0  0  0  0  0  0  0  0  0  0
   36.9940   31.0970   40.3030 C   0  0  0  0  0  0  0  0  0  0  0  0
   37.0900   32.2970   39.6440 C   0  0  0  0  0  0  0  0  0  0  0  0
   38.2250   33.0050   39.9430 C   0  0  0  0  0  0  0  0  0  0  0  0
   39.1840   32.5290   40.8400 C   0  0  0  0  0  0  0  0  0  0  0  0
   39.0180   31.3150   41.4620 N   0  0  0  0  0  0  0  0  0  0  0  0
   36.1170   30.4600   40.1250 H   0  0  0  0  0  0  0  0  0  0  0  0
   36.3700   32.6790   38.9560 H   0  0  0  0  0  0  0  0  0  0  0  0
   38.4230   33.9690   39.4920 H   0  0  0  0  0  0  0  0  0  0  0  0
   40.9990   35.3350   40.3130 H   0  0  0  0  0  0  0  0  0  0  0  0
   40.2540   34.5250   40.3250 C   0  0  0  0  0  0  0  0  0  0  0  0
   39.2570   34.7200   39.5730 O   0  0  0  0  0  0  0  0  0  0  0  0
   40.3390   33.3150   41.1050 N   0  0  0  0  0  0  0  0  0  0  0  0
   41.1710   33.2070   41.6980 H   0  0  0  0  0  0  0  0  0  0  0  0
   39.8780   24.8840   42.1650 N   0  0  0  0  0  0  0  0  0  0  0  0
   40.8720   25.3710   43.0310 C   0  0  0  0  0  0  0  0  0  0  0  0
   40.6800   26.3580   43.8280 O   0  0  0  0  0  0  0  0  0  0  0  0
   42.1190   24.6790   42.9640 N   0  0  0  0  0  0  0  0  0  0  0  0
   39.5390   23.9360   42.5790 H   0  0  0  0  0  0  0  0  0  0  0  0
   42.3310   23.6610   43.0740 H   0  0  0  0  0  0  0  0  0  0  0  0
   43.0860   25.0510   42.7900 H   0  0  0  0  0  0  0  0  0  0  0  0
  1  7  1  6  0  0  0
  1  2  1  0  0  0  0
  1 17  1  0  0  0  0
  2  8  1  0  0  0  0
  2  9  1  0  0  0  0
  3 11  1  0  0  0  0
  3  2  1  0  0  0  0
  4 13  1  0  0  0  0
  4  3  1  0  0  0  0
  5  4  1  0  0  0  0
  5  6  1  0  0  0  0
  6 16  1  6  0  0  0
  6  1  1  0  0  0  0
  6 39  1  0  0  0  0
 10  3  1  0  0  0  0
 12  4  1  0  0  0  0
 14  5  1  0  0  0  0
 15  5  1  0  0  0  0
 17 18  1  0  0  0  0
 18 23  1  0  0  0  0
 18 19  2  0  0  0  0
 19 24  1  0  0  0  0
 20 19  1  0  0  0  0
 21 20  2  0  0  0  0
 22 17  2  0  0  0  0
 22 21  1  0  0  0  0
 25 30  1  0  0  0  0
 25 21  1  0  0  0  0
 26 25  2  0  0  0  0
 27 28  2  0  0  0  0
 27 26  1  0  0  0  0
 28 29  1  0  0  0  0
 29 37  1  0  0  0  0
 29 30  2  0  0  0  0
 31 26  1  0  0  0  0
 32 27  1  0  0  0  0
 33 28  1  0  0  0  0
 34 35  1  0  0  0  0
 35 37  1  0  0  0  0
 36 35  2  0  0  0  0
 37 38  1  0  0  0  0
 39 43  1  0  0  0  0
 39 40  1  0  0  0  0
 40 41  2  0  0  0  0
 42 40  1  0  0  0  0
 42 44  1  0  0  0  0
 45 42  1  0  0  0  0
M  END
>  <minimizedAffinity>
-7.15292883

$$$$

 OpenBabel03252507343D

 45 47  0  0  1  0  0  0  0  0999 V2000
   39.0930   27.9810   43.0450 C   0  0  2  0  0  0  0  0  0  0  0  0
   38.5470   26.8840   42.0860 C   0  0  0  0  0  0  0  0  0  0  0  0
   37.3550   26.2320   42.6990 C   0  0  0  0  0  0  0  0  0  0  0  0
   36.3690   27.1440   43.3420 C   0  0  0  0  0  0  0  0  0  0  0  0
   36.9450   28.2760   44.0210 C   0  0  0  0  0  0  0  0  0  0  0  0
   38.0630   28.9850   43.2240 C   0  0  2  0  0  0  0  0  0  0  0  0
   39.2950   27.4050   43.9660 H   0  0  0  0  0  0  0  0  0  0  0  0
   39.3880   26.1670   41.9950 H   0  0  0  0  0  0  0  0  0  0  0  0
   38.3400   27.2730   41.0910 H   0  0  0  0  0  0  0  0  0  0  0  0
   37.7430   25.3970   43.3130 H   0  0  0  0  0  0  0  0  0  0  0  0
   36.8100   25.7220   41.8520 H   0  0  0  0  0  0  0  0  0  0  0  0
   36.0960   26.4940   44.2660 H   0  0  0  0  0  0  0  0  0  0  0  0
   35.3410   27.1390   42.9670 H   0  0  0  0  0  0  0  0  0  0  0  0
   37.3850   28.1380   45.0390 H   0  0  0  0  0  0  0  0  0  0  0  0
   36.1640   29.0740   44.1710 H   0  0  0  0  0  0  0  0  0  0  0  0
   38.2700   29.8370   43.8740 H   0  0  0  0  0  0  0  0  0  0  0  0
   40.3410   28.5360   42.5590 C   0  0  0  0  0  0  0  0  0  0  0  0
   41.5030   28.1850   43.2360 C   0  0  0  0  0  0  0  0  0  0  0  0
   42.7410   28.7220   42.8110 C   0  0  0  0  0  0  0  0  0  0  0  0
   42.7030   29.5830   41.7160 N   0  0  0  0  0  0  0  0  0  0  0  0
   41.5470   29.8770   41.1090 C   0  0  0  0  0  0  0  0  0  0  0  0
   40.3910   29.3650   41.5220 N   0  0  0  0  0  0  0  0  0  0  0  0
   41.7610   27.5400   44.0450 H   0  0  0  0  0  0  0  0  0  0  0  0
   43.7140   28.5740   43.1990 H   0  0  0  0  0  0  0  0  0  0  0  0
   41.5830   30.7750   39.9510 C   0  0  0  0  0  0  0  0  0  0  0  0
   40.7820   30.5510   38.8540 C   0  0  0  0  0  0  0  0  0  0  0  0
   40.7420   31.3280   37.7230 C   0  0  0  0  0  0  0  0  0  0  0  0
   41.5950   32.4010   37.7560 C   0  0  0  0  0  0  0  0  0  0  0  0
   42.4220   32.6600   38.8510 C   0  0  0  0  0  0  0  0  0  0  0  0
   42.4070   31.8350   39.9490 N   0  0  0  0  0  0  0  0  0  0  0  0
   40.1320   29.6680   38.9170 H   0  0  0  0  0  0  0  0  0  0  0  0
   40.1190   31.1480   36.8770 H   0  0  0  0  0  0  0  0  0  0  0  0
   41.6600   33.0930   36.9260 H   0  0  0  0  0  0  0  0  0  0  0  0
   43.6210   35.3820   37.2380 H   0  0  0  0  0  0  0  0  0  0  0  0
   43.0950   34.4710   37.5600 C   0  0  0  0  0  0  0  0  0  0  0  0
   42.2640   34.0200   36.7200 O   0  0  0  0  0  0  0  0  0  0  0  0
   43.2840   33.7910   38.8190 N   0  0  0  0  0  0  0  0  0  0  0  0
   43.9710   34.1990   39.4640 H   0  0  0  0  0  0  0  0  0  0  0  0
   37.5230   29.3840   41.9220 N   0  0  0  0  0  0  0  0  0  0  0  0
   37.1170   30.6340   41.4250 C   0  0  0  0  0  0  0  0  0  0  0  0
   37.9460   31.5330   41.0360 O   0  0  0  0  0  0  0  0  0  0  0  0
   35.7040   30.8310   41.3780 N   0  0  0  0  0  0  0  0  0  0  0  0
   37.3010   28.6510   41.1470 H   0  0  0  0  0  0  0  0  0  0  0  0
   34.9580   30.2560   40.9220 H   0  0  0  0  0  0  0  0  0  0  0  0
   35.1170   31.5990   41.7930 H   0  0  0  0  0  0  0  0  0  0  0  0
  1  6  1  0  0  0  0
  1  7  1  1  0  0  0
  2  3  1  0  0  0  0
  2  1  1  0  0  0  0
  3 10  1  0  0  0  0
  3  4  1  0  0  0  0
  4  5  1  0  0  0  0
  4 12  1  0  0  0  0
  5 15  1  0  0  0  0
  5 14  1  0  0  0  0
  6 16  1  1  0  0  0
  6  5  1  0  0  0  0
  8  2  1  0  0  0  0
  9  2  1  0  0  0  0
 11  3  1  0  0  0  0
 13  4  1  0  0  0  0
 17  1  1  0  0  0  0
 17 18  1  0  0  0  0
 18 23  1  0  0  0  0
 19 24  1  0  0  0  0
 19 18  2  0  0  0  0
 20 19  1  0  0  0  0
 21 22  1  0  0  0  0
 21 20  2  0  0  0  0
 22 17  2  0  0  0  0
 25 21  1  0  0  0  0
 26 31  1  0  0  0  0
 26 25  2  0  0  0  0
 27 28  2  0  0  0  0
 27 26  1  0  0  0  0
 28 29  1  0  0  0  0
 29 30  2  0  0  0  0
 30 25  1  0  0  0  0
 32 27  1  0  0  0  0
 33 28  1  0  0  0  0
 34 35  1  0  0  0  0
 35 37  1  0  0  0  0
 36 35  2  0  0  0  0
 37 29  1  0  0  0  0
 37 38  1  0  0  0  0
 39  6  1  0  0  0  0
 40 39  1  0  0  0  0
 41 40  2  0  0  0  0
 42 40  1  0  0  0  0
 42 45  1  0  0  0  0
 43 39  1  0  0  0  0
 44 42  1  0  0  0  0
M  END
>  <minimizedAffinity>
-6.79408216

$$$$

 OpenBabel03252507343D

 45 47  0  0  1  0  0  0  0  0999 V2000
   38.3880   31.6570   40.9670 C   0  0  2  0  0  0  0  0  0  0  0  0
   37.3170   32.3570   40.0820 C   0  0  0  0  0  0  0  0  0  0  0  0
   37.6600   33.8000   39.9280 C   0  0  0  0  0  0  0  0  0  0  0  0
   39.0920   34.1060   39.6560 C   0  0  0  0  0  0  0  0  0  0  0  0
   40.0320   33.2560   40.3380 C   0  0  0  0  0  0  0  0  0  0  0  0
   39.6690   31.7550   40.2950 C   0  0  2  0  0  0  0  0  0  0  0  0
   38.3460   32.2510   41.8970 H   0  0  0  0  0  0  0  0  0  0  0  0
   36.3760   32.2320   40.6550 H   0  0  0  0  0  0  0  0  0  0  0  0
   37.1850   31.8600   39.1230 H   0  0  0  0  0  0  0  0  0  0  0  0
   37.1880   34.3210   40.7830 H   0  0  0  0  0  0  0  0  0  0  0  0
   37.0820   34.1630   39.0300 H   0  0  0  0  0  0  0  0  0  0  0  0
   39.1990   35.0620   40.3090 H   0  0  0  0  0  0  0  0  0  0  0  0
   39.3380   34.6420   38.7350 H   0  0  0  0  0  0  0  0  0  0  0  0
   40.2630   33.4470   41.4150 H   0  0  0  0  0  0  0  0  0  0  0  0
   41.0380   33.3120   39.8350 H   0  0  0  0  0  0  0  0  0  0  0  0
   40.5460   31.3180   40.7760 H   0  0  0  0  0  0  0  0  0  0  0  0
   38.0150   30.2900   41.2680 C   0  0  0  0  0  0  0  0  0  0  0  0
   36.6700   29.9550   41.1560 C   0  0  0  0  0  0  0  0  0  0  0  0
   36.2560   28.6370   41.4630 C   0  0  0  0  0  0  0  0  0  0  0  0
   37.2520   27.7490   41.8620 N   0  0  0  0  0  0  0  0  0  0  0  0
   38.5300   28.1390   41.9460 C   0  0  0  0  0  0  0  0  0  0  0  0
   38.9030   29.3820   41.6560 N   0  0  0  0  0  0  0  0  0  0  0  0
   35.7750   30.4460   40.8460 H   0  0  0  0  0  0  0  0  0  0  0  0
   35.2900   28.2070   41.4380 H   0  0  0  0  0  0  0  0  0  0  0  0
   39.5290   27.1460   42.3550 C   0  0  0  0  0  0  0  0  0  0  0  0
   39.1570   25.8700   42.7130 C   0  0  0  0  0  0  0  0  0  0  0  0
   40.0100   24.8710   43.1100 C   0  0  0  0  0  0  0  0  0  0  0  0
   41.3290   25.2430   43.1280 C   0  0  0  0  0  0  0  0  0  0  0  0
   41.7460   26.5270   42.7710 C   0  0  0  0  0  0  0  0  0  0  0  0
   40.8300   27.4750   42.3840 N   0  0  0  0  0  0  0  0  0  0  0  0
   38.0790   25.6640   42.6680 H   0  0  0  0  0  0  0  0  0  0  0  0
   39.7140   23.8850   43.3860 H   0  0  0  0  0  0  0  0  0  0  0  0
   42.1060   24.5480   43.4220 H   0  0  0  0  0  0  0  0  0  0  0  0
   44.9440   25.6080   43.3820 H   0  0  0  0  0  0  0  0  0  0  0  0
   43.8530   25.6760   43.2490 C   0  0  0  0  0  0  0  0  0  0  0  0
   43.2260   24.6120   43.5160 O   0  0  0  0  0  0  0  0  0  0  0  0
   43.1310   26.8460   42.8130 N   0  0  0  0  0  0  0  0  0  0  0  0
   43.6900   27.6840   42.6110 H   0  0  0  0  0  0  0  0  0  0  0  0
   39.5310   31.3510   38.8940 N   0  0  0  0  0  0  0  0  0  0  0  0
   40.4550   31.3220   37.8360 C   0  0  0  0  0  0  0  0  0  0  0  0
   41.3470   30.4070   37.7140 O   0  0  0  0  0  0  0  0  0  0  0  0
   40.3270   32.3900   36.8970 N   0  0  0  0  0  0  0  0  0  0  0  0
   38.5670   31.0610   38.4760 H   0  0  0  0  0  0  0  0  0  0  0  0
   39.4980   32.7030   36.3420 H   0  0  0  0  0  0  0  0  0  0  0  0
   41.0430   33.0850   36.5670 H   0  0  0  0  0  0  0  0  0  0  0  0
  1 17  1  0  0  0  0
  1  7  1  1  0  0  0
  2  8  1  0  0  0  0
  2  1  1  0  0  0  0
  3  2  1  0  0  0  0
  3 10  1  0  0  0  0
  4  3  1  0  0  0  0
  4 12  1  0  0  0  0
  4  5  1  0  0  0  0
  5 14  1  0  0  0  0
  6  5  1  0  0  0  0
  6 16  1  1  0  0  0
  6  1  1  0  0  0  0
  9  2  1  0  0  0  0
 11  3  1  0  0  0  0
 13  4  1  0  0  0  0
 15  5  1  0  0  0  0
 17 22  1  0  0  0  0
 18 17  2  0  0  0  0
 18 19  1  0  0  0  0
 19 20  2  0  0  0  0
 20 21  1  0  0  0  0
 21 25  1  0  0  0  0
 22 21  2  0  0  0  0
 23 18  1  0  0  0  0
 24 19  1  0  0  0  0
 25 30  2  0  0  0  0
 25 26  1  0  0  0  0
 26 27  2  0  0  0  0
 27 28  1  0  0  0  0
 27 32  1  0  0  0  0
 28 33  1  0  0  0  0
 29 37  1  0  0  0  0
 29 28  2  0  0  0  0
 30 29  1  0  0  0  0
 31 26  1  0  0  0  0
 35 34  1  0  0  0  0
 35 36  2  0  0  0  0
 37 35  1  0  0  0  0
 38 37  1  0  0  0  0
 39  6  1  0  0  0  0
 40 39  1  0  0  0  0
 41 40  2  0  0  0  0
 42 40  1  0  0  0  0
 43 39  1  0  0  0  0
 44 42  1  0  0  0  0
 45 42  1  0  0  0  0
M  END
>  <minimizedAffinity>
-6.67022085

$$$$

 OpenBabel03252507343D

 45 47  0  0  1  0  0  0  0  0999 V2000
   38.4150   27.4440   40.8980 C   0  0  2  0  0  0  0  0  0  0  0  0
   37.2360   26.4310   40.9670 C   0  0  0  0  0  0  0  0  0  0  0  0
   36.9730   26.0650   42.3880 C   0  0  0  0  0  0  0  0  0  0  0  0
   36.9790   27.1890   43.3640 C   0  0  0  0  0  0  0  0  0  0  0  0
   37.9530   28.2160   43.0990 C   0  0  0  0  0  0  0  0  0  0  0  0
   38.0280   28.6430   41.6160 C   0  0  2  0  0  0  0  0  0  0  0  0
   39.2280   26.8890   41.3970 H   0  0  0  0  0  0  0  0  0  0  0  0
   37.6030   25.5560   40.3930 H   0  0  0  0  0  0  0  0  0  0  0  0
   36.3440   26.8000   40.4640 H   0  0  0  0  0  0  0  0  0  0  0  0
   37.6300   25.2020   42.6090 H   0  0  0  0  0  0  0  0  0  0  0  0
   35.9320   25.6310   42.4100 H   0  0  0  0  0  0  0  0  0  0  0  0
   37.5100   26.6560   44.2510 H   0  0  0  0  0  0  0  0  0  0  0  0
   36.0710   27.3700   43.9470 H   0  0  0  0  0  0  0  0  0  0  0  0
   39.0200   28.0460   43.3860 H   0  0  0  0  0  0  0  0  0  0  0  0
   37.6760   29.1610   43.6460 H   0  0  0  0  0  0  0  0  0  0  0  0
   38.7390   29.4690   41.6760 H   0  0  0  0  0  0  0  0  0  0  0  0
   38.8040   27.7120   39.5270 C   0  0  0  0  0  0  0  0  0  0  0  0
   38.2930   26.8730   38.5430 C   0  0  0  0  0  0  0  0  0  0  0  0
   38.6640   27.0820   37.1940 C   0  0  0  0  0  0  0  0  0  0  0  0
   39.5340   28.1410   36.9450 N   0  0  0  0  0  0  0  0  0  0  0  0
   39.9850   28.9120   37.9410 C   0  0  0  0  0  0  0  0  0  0  0  0
   39.6290   28.7010   39.2050 N   0  0  0  0  0  0  0  0  0  0  0  0
   37.6100   26.0540   38.5040 H   0  0  0  0  0  0  0  0  0  0  0  0
   38.3820   26.5520   36.3230 H   0  0  0  0  0  0  0  0  0  0  0  0
   40.8820   30.0220   37.6040 C   0  0  0  0  0  0  0  0  0  0  0  0
   42.0060   29.8180   36.8360 C   0  0  0  0  0  0  0  0  0  0  0  0
   42.9070   30.7850   36.4660 C   0  0  0  0  0  0  0  0  0  0  0  0
   42.6020   32.0360   36.9350 C   0  0  0  0  0  0  0  0  0  0  0  0
   41.4710   32.2820   37.7170 C   0  0  0  0  0  0  0  0  0  0  0  0
   40.6140   31.2610   38.0470 N   0  0  0  0  0  0  0  0  0  0  0  0
   42.1690   28.7830   36.5060 H   0  0  0  0  0  0  0  0  0  0  0  0
   43.7760   30.6190   35.8710 H   0  0  0  0  0  0  0  0  0  0  0  0
   43.2310   32.8890   36.7160 H   0  0  0  0  0  0  0  0  0  0  0  0
   42.3440   35.5470   37.8670 H   0  0  0  0  0  0  0  0  0  0  0  0
   42.2630   34.4650   37.6820 C   0  0  0  0  0  0  0  0  0  0  0  0
   43.1950   33.9830   36.9770 O   0  0  0  0  0  0  0  0  0  0  0  0
   41.2130   33.6050   38.1710 N   0  0  0  0  0  0  0  0  0  0  0  0
   40.4820   34.0490   38.7400 H   0  0  0  0  0  0  0  0  0  0  0  0
   36.6950   29.0740   41.1890 N   0  0  0  0  0  0  0  0  0  0  0  0
   36.2640   30.2100   40.4840 C   0  0  0  0  0  0  0  0  0  0  0  0
   36.3980   30.3340   39.2140 O   0  0  0  0  0  0  0  0  0  0  0  0
   35.6560   31.2210   41.2870 N   0  0  0  0  0  0  0  0  0  0  0  0
   35.8000   28.5180   41.4670 H   0  0  0  0  0  0  0  0  0  0  0  0
   34.8500   31.1600   41.9500 H   0  0  0  0  0  0  0  0  0  0  0  0
   35.8940   32.2410   41.3790 H   0  0  0  0  0  0  0  0  0  0  0  0
  1  2  1  0  0  0  0
  1  7  1  1  0  0  0
  1  6  1  0  0  0  0
  2  3  1  0  0  0  0
  3 11  1  0  0  0  0
  3 10  1  0  0  0  0
  3  4  1  0  0  0  0
  4 13  1  0  0  0  0
  4 12  1  0  0  0  0
  5  4  1  0  0  0  0
  5 14  1  0  0  0  0
  5 15  1  0  0  0  0
  6 16  1  6  0  0  0
  6  5  1  0  0  0  0
  8  2  1  0  0  0  0
  9  2  1  0  0  0  0
 17  1  1  0  0  0  0
 18 17  2  0  0  0  0
 19 18  1  0  0  0  0
 20 19  2  0  0  0  0
 20 21  1  0  0  0  0
 21 22  2  0  0  0  0
 22 17  1  0  0  0  0
 23 18  1  0  0  0  0
 24 19  1  0  0  0  0
 25 21  1  0  0  0  0
 25 30  1  0  0  0  0
 26 25  2  0  0  0  0
 27 26  1  0  0  0  0
 27 28  2  0  0  0  0
 28 29  1  0  0  0  0
 29 30  2  0  0  0  0
 29 37  1  0  0  0  0
 31 26  1  0  0  0  0
 32 27  1  0  0  0  0
 33 28  1  0  0  0  0
 35 34  1  0  0  0  0
 35 37  1  0  0  0  0
 36 35  2  0  0  0  0
 37 38  1  0  0  0  0
 39 43  1  0  0  0  0
 39  6  1  0  0  0  0
 40 39  1  0  0  0  0
 40 42  1  0  0  0  0
 41 40  2  0  0  0  0
 42 45  1  0  0  0  0
 42 44  1  0  0  0  0
M  END
>  <minimizedAffinity>
-6.41564226

$$$$

 OpenBabel03252507343D

 45 47  0  0  1  0  0  0  0  0999 V2000
   36.8020   25.8440   40.8560 C   0  0  2  0  0  0  0  0  0  0  0  0
   37.8940   24.7540   41.0560 C   0  0  0  0  0  0  0  0  0  0  0  0
   37.4730   23.4940   40.3790 C   0  0  0  0  0  0  0  0  0  0  0  0
   36.8870   23.6480   39.0190 C   0  0  0  0  0  0  0  0  0  0  0  0
   36.0670   24.8170   38.8410 C   0  0  0  0  0  0  0  0  0  0  0  0
   36.6750   26.1070   39.4360 C   0  0  2  0  0  0  0  0  0  0  0  0
   35.9070   25.3580   41.2830 H   0  0  0  0  0  0  0  0  0  0  0  0
   37.9360   24.6180   42.1560 H   0  0  0  0  0  0  0  0  0  0  0  0
   38.8770   25.0890   40.7300 H   0  0  0  0  0  0  0  0  0  0  0  0
   36.8780   22.9300   41.1220 H   0  0  0  0  0  0  0  0  0  0  0  0
   38.4110   22.8800   40.2530 H   0  0  0  0  0  0  0  0  0  0  0  0
   36.0500   22.8440   39.0910 H   0  0  0  0  0  0  0  0  0  0  0  0
   37.3790   23.1370   38.1850 H   0  0  0  0  0  0  0  0  0  0  0  0
   35.0170   24.8140   39.2230 H   0  0  0  0  0  0  0  0  0  0  0  0
   35.9530   25.0460   37.7440 H   0  0  0  0  0  0  0  0  0  0  0  0
   35.9470   26.8500   39.1050 H   0  0  0  0  0  0  0  0  0  0  0  0
   37.0990   27.0370   41.6240 C   0  0  0  0  0  0  0  0  0  0  0  0
   37.1670   26.9070   43.0070 C   0  0  0  0  0  0  0  0  0  0  0  0
   37.4300   28.0490   43.7990 C   0  0  0  0  0  0  0  0  0  0  0  0
   37.6090   29.2500   43.1170 N   0  0  0  0  0  0  0  0  0  0  0  0
   37.5330   29.3040   41.7820 C   0  0  0  0  0  0  0  0  0  0  0  0
   37.2820   28.2210   41.0510 N   0  0  0  0  0  0  0  0  0  0  0  0
   37.1000   26.1080   43.7120 H   0  0  0  0  0  0  0  0  0  0  0  0
   37.5150   28.1420   44.8490 H   0  0  0  0  0  0  0  0  0  0  0  0
   37.7510   30.5990   41.1290 C   0  0  0  0  0  0  0  0  0  0  0  0
   36.8670   31.0780   40.1890 C   0  0  0  0  0  0  0  0  0  0  0  0
   36.9800   32.2720   39.5220 C   0  0  0  0  0  0  0  0  0  0  0  0
   38.0900   32.9980   39.8690 C   0  0  0  0  0  0  0  0  0  0  0  0
   39.0090   32.5450   40.8170 C   0  0  0  0  0  0  0  0  0  0  0  0
   38.8280   31.3370   41.4440 N   0  0  0  0  0  0  0  0  0  0  0  0
   36.0080   30.4280   39.9760 H   0  0  0  0  0  0  0  0  0  0  0  0
   36.2910   32.6370   38.7950 H   0  0  0  0  0  0  0  0  0  0  0  0
   38.2980   33.9600   39.4160 H   0  0  0  0  0  0  0  0  0  0  0  0
   40.8120   35.3690   40.3480 H   0  0  0  0  0  0  0  0  0  0  0  0
   40.0780   34.5500   40.3320 C   0  0  0  0  0  0  0  0  0  0  0  0
   39.1170   34.7230   39.5290 O   0  0  0  0  0  0  0  0  0  0  0  0
   40.1400   33.3500   41.1300 N   0  0  0  0  0  0  0  0  0  0  0  0
   40.9420   33.2600   41.7650 H   0  0  0  0  0  0  0  0  0  0  0  0
   38.0000   26.3110   38.8450 N   0  0  0  0  0  0  0  0  0  0  0  0
   38.4290   27.1090   37.7710 C   0  0  0  0  0  0  0  0  0  0  0  0
   38.5920   28.3790   37.8670 O   0  0  0  0  0  0  0  0  0  0  0  0
   38.6780   26.4000   36.5580 N   0  0  0  0  0  0  0  0  0  0  0  0
   38.8690   25.7480   39.1840 H   0  0  0  0  0  0  0  0  0  0  0  0
   39.3000   25.5800   36.3720 H   0  0  0  0  0  0  0  0  0  0  0  0
   38.2870   26.5570   35.5940 H   0  0  0  0  0  0  0  0  0  0  0  0
  1  2  1  0  0  0  0
  1  7  1  1  0  0  0
  1 17  1  0  0  0  0
  2  8  1  0  0  0  0
  3  2  1  0  0  0  0
  3 10  1  0  0  0  0
  4 12  1  0  0  0  0
  4  3  1  0  0  0  0
  5  4  1  0  0  0  0
  5 14  1  0  0  0  0
  5  6  1  0  0  0  0
  6 16  1  6  0  0  0
  6  1  1  0  0  0  0
  9  2  1  0  0  0  0
 11  3  1  0  0  0  0
 13  4  1  0  0  0  0
 15  5  1  0  0  0  0
 17 18  1  0  0  0  0
 18 23  1  0  0  0  0
 18 19  2  0  0  0  0
 19 24  1  0  0  0  0
 20 19  1  0  0  0  0
 21 20  2  0  0  0  0
 22 17  2  0  0  0  0
 22 21  1  0  0  0  0
 25 30  1  0  0  0  0
 25 21  1  0  0  0  0
 26 25  2  0  0  0  0
 27 28  2  0  0  0  0
 27 26  1  0  0  0  0
 28 29  1  0  0  0  0
 29 37  1  0  0  0  0
 29 30  2  0  0  0  0
 31 26  1  0  0  0  0
 32 27  1  0  0  0  0
 33 28  1  0  0  0  0
 35 34  1  0  0  0  0
 35 37  1  0  0  0  0
 36 35  2  0  0  0  0
 37 38  1  0  0  0  0
 39 43  1  0  0  0  0
 39  6  1  0  0  0  0
 40 41  2  0  0  0  0
 40 39  1  0  0  0  0
 42 40  1  0  0  0  0
 44 42  1  0  0  0  0
 45 42  1  0  0  0  0
M  END
>  <minimizedAffinity>
-6.32211256

$$$$

 OpenBabel03252507343D

 45 47  0  0  1  0  0  0  0  0999 V2000
   39.0340   32.3200   40.8670 C   0  0  2  0  0  0  0  0  0  0  0  0
   38.4360   33.5910   40.1990 C   0  0  0  0  0  0  0  0  0  0  0  0
   39.3970   34.7240   40.3280 C   0  0  0  0  0  0  0  0  0  0  0  0
   40.8250   34.4030   40.0530 C   0  0  0  0  0  0  0  0  0  0  0  0
   41.2490   33.1010   40.4980 C   0  0  0  0  0  0  0  0  0  0  0  0
   40.2530   31.9670   40.1660 C   0  0  2  0  0  0  0  0  0  0  0  0
   39.2180   32.6640   41.9000 H   0  0  0  0  0  0  0  0  0  0  0  0
   37.5120   33.7880   40.7810 H   0  0  0  0  0  0  0  0  0  0  0  0
   38.1410   33.4150   39.1670 H   0  0  0  0  0  0  0  0  0  0  0  0
   39.1680   35.2130   41.2940 H   0  0  0  0  0  0  0  0  0  0  0  0
   39.0880   35.4830   39.5530 H   0  0  0  0  0  0  0  0  0  0  0  0
   41.3190   35.0510   40.8820 H   0  0  0  0  0  0  0  0  0  0  0  0
   41.3300   34.9480   39.2500 H   0  0  0  0  0  0  0  0  0  0  0  0
   41.4890   32.9420   41.5780 H   0  0  0  0  0  0  0  0  0  0  0  0
   42.1970   32.8010   39.9670 H   0  0  0  0  0  0  0  0  0  0  0  0
   40.8160   31.0950   40.5020 H   0  0  0  0  0  0  0  0  0  0  0  0
   38.0720   31.2360   40.9000 C   0  0  0  0  0  0  0  0  0  0  0  0
   36.7440   31.5530   40.6360 C   0  0  0  0  0  0  0  0  0  0  0  0
   35.7660   30.5310   40.6800 C   0  0  0  0  0  0  0  0  0  0  0  0
   36.2190   29.2500   40.9890 N   0  0  0  0  0  0  0  0  0  0  0  0
   37.5140   29.0150   41.2290 C   0  0  0  0  0  0  0  0  0  0  0  0
   38.4210   29.9870   41.1860 N   0  0  0  0  0  0  0  0  0  0  0  0
   36.1990   32.4250   40.3530 H   0  0  0  0  0  0  0  0  0  0  0  0
   34.7230   30.5830   40.5130 H   0  0  0  0  0  0  0  0  0  0  0  0
   37.9220   27.6390   41.5290 C   0  0  0  0  0  0  0  0  0  0  0  0
   38.7110   27.3540   42.6200 C   0  0  0  0  0  0  0  0  0  0  0  0
   39.1480   26.1060   42.9860 C   0  0  0  0  0  0  0  0  0  0  0  0
   38.7250   25.1030   42.1520 C   0  0  0  0  0  0  0  0  0  0  0  0
   37.9240   25.3530   41.0350 C   0  0  0  0  0  0  0  0  0  0  0  0
   37.5270   26.6330   40.7330 N   0  0  0  0  0  0  0  0  0  0  0  0
   39.0010   28.2200   43.2310 H   0  0  0  0  0  0  0  0  0  0  0  0
   39.7590   25.8930   43.8340 H   0  0  0  0  0  0  0  0  0  0  0  0
   38.9990   24.0710   42.3280 H   0  0  0  0  0  0  0  0  0  0  0  0
   37.9430   22.0420   40.3420 H   0  0  0  0  0  0  0  0  0  0  0  0
   38.0760   23.0520   40.7580 C   0  0  0  0  0  0  0  0  0  0  0  0
   38.7840   23.0990   41.8030 O   0  0  0  0  0  0  0  0  0  0  0  0
   37.5210   24.2660   40.2110 N   0  0  0  0  0  0  0  0  0  0  0  0
   36.9550   24.1710   39.3600 H   0  0  0  0  0  0  0  0  0  0  0  0
   40.0160   31.9670   38.7210 N   0  0  0  0  0  0  0  0  0  0  0  0
   39.9150   30.9160   37.7930 C   0  0  0  0  0  0  0  0  0  0  0  0
   38.8640   30.1880   37.6770 O   0  0  0  0  0  0  0  0  0  0  0  0
   41.0710   30.7190   36.9790 N   0  0  0  0  0  0  0  0  0  0  0  0
   39.9520   32.8940   38.1520 H   0  0  0  0  0  0  0  0  0  0  0  0
   41.5840   31.3920   36.3650 H   0  0  0  0  0  0  0  0  0  0  0  0
   41.6470   29.8530   36.8270 H   0  0  0  0  0  0  0  0  0  0  0  0
  1 17  1  0  0  0  0
  1  7  1  1  0  0  0
  2  3  1  0  0  0  0
  2  8  1  0  0  0  0
  2  1  1  0  0  0  0
  3 10  1  0  0  0  0
  4  3  1  0  0  0  0
  4  5  1  0  0  0  0
  4 12  1  0  0  0  0
  5 14  1  0  0  0  0
  6  5  1  0  0  0  0
  6 16  1  1  0  0  0
  6  1  1  0  0  0  0
  9  2  1  0  0  0  0
 11  3  1  0  0  0  0
 13  4  1  0  0  0  0
 15  5  1  0  0  0  0
 17 22  1  0  0  0  0
 18 19  1  0  0  0  0
 18 17  2  0  0  0  0
 19 20  2  0  0  0  0
 20 21  1  0  0  0  0
 21 25  1  0  0  0  0
 22 21  2  0  0  0  0
 23 18  1  0  0  0  0
 24 19  1  0  0  0  0
 25 26  1  0  0  0  0
 26 27  2  0  0  0  0
 26 31  1  0  0  0  0
 27 32  1  0  0  0  0
 28 33  1  0  0  0  0
 28 27  1  0  0  0  0
 29 28  2  0  0  0  0
 30 29  1  0  0  0  0
 30 25  2  0  0  0  0
 34 35  1  0  0  0  0
 35 36  2  0  0  0  0
 37 35  1  0  0  0  0
 37 29  1  0  0  0  0
 38 37  1  0  0  0  0
 39  6  1  0  0  0  0
 40 39  1  0  0  0  0
 41 40  2  0  0  0  0
 42 40  1  0  0  0  0
 43 39  1  0  0  0  0
 44 42  1  0  0  0  0
 45 42  1  0  0  0  0
M  END
>  <minimizedAffinity>
-6.09883404

$$$$

 OpenBabel03252507343D

 45 47  0  0  1  0  0  0  0  0999 V2000
   38.0950   32.0930   40.5470 C   0  0  2  0  0  0  0  0  0  0  0  0
   37.5010   33.3150   39.7890 C   0  0  0  0  0  0  0  0  0  0  0  0
   38.3160   34.5300   40.0830 C   0  0  0  0  0  0  0  0  0  0  0  0
   39.7930   34.3480   40.0560 C   0  0  0  0  0  0  0  0  0  0  0  0
   40.2570   33.0830   40.5640 C   0  0  0  0  0  0  0  0  0  0  0  0
   39.4440   31.8680   40.0640 C   0  0  2  0  0  0  0  0  0  0  0  0
   38.0680   32.4340   41.5970 H   0  0  0  0  0  0  0  0  0  0  0  0
   36.4780   33.4140   40.2040 H   0  0  0  0  0  0  0  0  0  0  0  0
   37.4050   33.1320   38.7210 H   0  0  0  0  0  0  0  0  0  0  0  0
   37.8800   34.9780   40.9960 H   0  0  0  0  0  0  0  0  0  0  0  0
   38.0720   35.2710   39.2680 H   0  0  0  0  0  0  0  0  0  0  0  0
   40.0750   35.0240   40.9580 H   0  0  0  0  0  0  0  0  0  0  0  0
   40.3740   34.9520   39.3520 H   0  0  0  0  0  0  0  0  0  0  0  0
   40.3230   32.9280   41.6690 H   0  0  0  0  0  0  0  0  0  0  0  0
   41.3050   32.8830   40.2020 H   0  0  0  0  0  0  0  0  0  0  0  0
   40.0210   31.0460   40.4900 H   0  0  0  0  0  0  0  0  0  0  0  0
   37.2490   30.9240   40.4120 C   0  0  0  0  0  0  0  0  0  0  0  0
   37.1470   30.0790   41.5110 C   0  0  0  0  0  0  0  0  0  0  0  0
   36.3500   28.9140   41.4180 C   0  0  0  0  0  0  0  0  0  0  0  0
   35.7090   28.6950   40.2000 N   0  0  0  0  0  0  0  0  0  0  0  0
   35.8490   29.5530   39.1830 C   0  0  0  0  0  0  0  0  0  0  0  0
   36.6030   30.6430   39.2860 N   0  0  0  0  0  0  0  0  0  0  0  0
   37.5080   30.0700   42.5150 H   0  0  0  0  0  0  0  0  0  0  0  0
   36.1590   28.1630   42.1380 H   0  0  0  0  0  0  0  0  0  0  0  0
   35.1290   29.2700   37.9370 C   0  0  0  0  0  0  0  0  0  0  0  0
   35.7600   29.3540   36.7170 C   0  0  0  0  0  0  0  0  0  0  0  0
   35.1790   29.1130   35.4980 C   0  0  0  0  0  0  0  0  0  0  0  0
   33.8560   28.7610   35.5740 C   0  0  0  0  0  0  0  0  0  0  0  0
   33.1810   28.6640   36.7930 C   0  0  0  0  0  0  0  0  0  0  0  0
   33.8320   28.9230   37.9750 N   0  0  0  0  0  0  0  0  0  0  0  0
   36.8200   29.6430   36.7540 H   0  0  0  0  0  0  0  0  0  0  0  0
   35.6750   29.1800   34.5570 H   0  0  0  0  0  0  0  0  0  0  0  0
   33.2790   28.5420   34.6850 H   0  0  0  0  0  0  0  0  0  0  0  0
   30.3760   27.7910   35.1160 H   0  0  0  0  0  0  0  0  0  0  0  0
   31.3860   28.0850   35.4370 C   0  0  0  0  0  0  0  0  0  0  0  0
   32.2120   28.2410   34.4920 O   0  0  0  0  0  0  0  0  0  0  0  0
   31.8070   28.2940   36.8010 N   0  0  0  0  0  0  0  0  0  0  0  0
   31.0970   28.1540   37.5290 H   0  0  0  0  0  0  0  0  0  0  0  0
   39.4570   31.8720   38.6000 N   0  0  0  0  0  0  0  0  0  0  0  0
   40.5030   31.7010   37.6770 C   0  0  0  0  0  0  0  0  0  0  0  0
   41.0030   30.5540   37.3930 O   0  0  0  0  0  0  0  0  0  0  0  0
   40.9690   32.9050   37.0670 N   0  0  0  0  0  0  0  0  0  0  0  0
   38.5620   32.0970   38.0210 H   0  0  0  0  0  0  0  0  0  0  0  0
   40.4440   33.6410   36.5410 H   0  0  0  0  0  0  0  0  0  0  0  0
   41.9420   33.3030   37.0210 H   0  0  0  0  0  0  0  0  0  0  0  0
  1  7  1  1  0  0  0
  2  3  1  0  0  0  0
  2  8  1  0  0  0  0
  2  1  1  0  0  0  0
  3 10  1  0  0  0  0
  4  3  1  0  0  0  0
  4  5  1  0  0  0  0
  4 12  1  0  0  0  0
  5 14  1  0  0  0  0
  6 16  1  1  0  0  0
  6  1  1  0  0  0  0
  6  5  1  0  0  0  0
  9  2  1  0  0  0  0
 11  3  1  0  0  0  0
 13  4  1  0  0  0  0
 15  5  1  0  0  0  0
 17  1  1  0  0  0  0
 17 18  1  0  0  0  0
 18 23  1  0  0  0  0
 19 18  2  0  0  0  0
 19 24  1  0  0  0  0
 20 19  1  0  0  0  0
 21 22  1  0  0  0  0
 21 20  2  0  0  0  0
 22 17  2  0  0  0  0
 25 30  1  0  0  0  0
 25 21  1  0  0  0  0
 26 31  1  0  0  0  0
 26 25  2  0  0  0  0
 27 28  2  0  0  0  0
 27 26  1  0  0  0  0
 28 29  1  0  0  0  0
 29 37  1  0  0  0  0
 29 30  2  0  0  0  0
 32 27  1  0  0  0  0
 33 28  1  0  0  0  0
 34 35  1  0  0  0  0
 35 37  1  0  0  0  0
 36 35  2  0  0  0  0
 37 38  1  0  0  0  0
 39  6  1  0  0  0  0
 40 39  1  0  0  0  0
 41 40  2  0  0  0  0
 42 40  1  0  0  0  0
 43 39  1  0  0  0  0
 44 42  1  0  0  0  0
 45 42  1  0  0  0  0
M  END
>  <minimizedAffinity>
-6.08098984

$$$$

 OpenBabel03252507343D

 45 47  0  0  1  0  0  0  0  0999 V2000
   37.2640   29.1490   41.4200 C   0  0  2  0  0  0  0  0  0  0  0  0
   37.8680   29.4210   42.8280 C   0  0  0  0  0  0  0  0  0  0  0  0
   37.3840   28.3860   43.7870 C   0  0  0  0  0  0  0  0  0  0  0  0
   37.3870   26.9830   43.2900 C   0  0  0  0  0  0  0  0  0  0  0  0
   37.0410   26.8320   41.9010 C   0  0  0  0  0  0  0  0  0  0  0  0
   37.7280   27.8520   40.9670 C   0  0  2  0  0  0  0  0  0  0  0  0
   36.1800   29.1690   41.6230 H   0  0  0  0  0  0  0  0  0  0  0  0
   37.4770   30.4230   43.0960 H   0  0  0  0  0  0  0  0  0  0  0  0
   38.9530   29.4880   42.8060 H   0  0  0  0  0  0  0  0  0  0  0  0
   36.4330   28.7720   44.2010 H   0  0  0  0  0  0  0  0  0  0  0  0
   38.0980   28.4150   44.6610 H   0  0  0  0  0  0  0  0  0  0  0  0
   36.3910   26.6190   43.7690 H   0  0  0  0  0  0  0  0  0  0  0  0
   37.9810   26.2440   43.8360 H   0  0  0  0  0  0  0  0  0  0  0  0
   35.9660   26.8690   41.5970 H   0  0  0  0  0  0  0  0  0  0  0  0
   37.3910   25.8300   41.5230 H   0  0  0  0  0  0  0  0  0  0  0  0
   37.4000   27.4910   39.9910 H   0  0  0  0  0  0  0  0  0  0  0  0
   37.5860   30.2160   40.4920 C   0  0  0  0  0  0  0  0  0  0  0  0
   36.6460   30.5140   39.5120 C   0  0  0  0  0  0  0  0  0  0  0  0
   36.9260   31.5320   38.5700 C   0  0  0  0  0  0  0  0  0  0  0  0
   38.1550   32.1770   38.6990 N   0  0  0  0  0  0  0  0  0  0  0  0
   39.0120   31.8400   39.6690 C   0  0  0  0  0  0  0  0  0  0  0  0
   38.7340   30.8800   40.5460 N   0  0  0  0  0  0  0  0  0  0  0  0
   35.6630   30.1850   39.2580 H   0  0  0  0  0  0  0  0  0  0  0  0
   36.3420   31.8900   37.7640 H   0  0  0  0  0  0  0  0  0  0  0  0
   40.2780   32.5750   39.7570 C   0  0  0  0  0  0  0  0  0  0  0  0
   40.8590   33.1270   38.6380 C   0  0  0  0  0  0  0  0  0  0  0  0
   42.0380   33.8290   38.6130 C   0  0  0  0  0  0  0  0  0  0  0  0
   42.6340   33.9550   39.8410 C   0  0  0  0  0  0  0  0  0  0  0  0
   42.0760   33.4100   40.9990 C   0  0  0  0  0  0  0  0  0  0  0  0
   40.8900   32.7180   40.9440 N   0  0  0  0  0  0  0  0  0  0  0  0
   40.3090   32.9740   37.6990 H   0  0  0  0  0  0  0  0  0  0  0  0
   42.4810   34.2530   37.7410 H   0  0  0  0  0  0  0  0  0  0  0  0
   43.5690   34.4870   39.9610 H   0  0  0  0  0  0  0  0  0  0  0  0
   44.6860   34.6270   42.7730 H   0  0  0  0  0  0  0  0  0  0  0  0
   43.9530   34.3360   42.0070 C   0  0  0  0  0  0  0  0  0  0  0  0
   44.2360   34.7210   40.8370 O   0  0  0  0  0  0  0  0  0  0  0  0
   42.7480   33.5780   42.2410 N   0  0  0  0  0  0  0  0  0  0  0  0
   42.5660   33.2900   43.2100 H   0  0  0  0  0  0  0  0  0  0  0  0
   39.1780   27.7470   41.1520 N   0  0  0  0  0  0  0  0  0  0  0  0
   40.0900   26.7340   40.8120 C   0  0  0  0  0  0  0  0  0  0  0  0
   40.5180   26.5550   39.6150 O   0  0  0  0  0  0  0  0  0  0  0  0
   40.5140   25.9170   41.9020 N   0  0  0  0  0  0  0  0  0  0  0  0
   39.7410   28.5080   41.6920 H   0  0  0  0  0  0  0  0  0  0  0  0
   40.9450   26.1840   42.8160 H   0  0  0  0  0  0  0  0  0  0  0  0
   40.4820   24.8710   42.0120 H   0  0  0  0  0  0  0  0  0  0  0  0
  1  7  1  1  0  0  0
  1  2  1  0  0  0  0
  2  8  1  0  0  0  0
  2  3  1  0  0  0  0
  3 10  1  0  0  0  0
  3 11  1  0  0  0  0
  4 12  1  0  0  0  0
  4  3  1  0  0  0  0
  4 13  1  0  0  0  0
  5  4  1  0  0  0  0
  6 16  1  6  0  0  0
  6 39  1  0  0  0  0
  6  1  1  0  0  0  0
  6  5  1  0  0  0  0
  9  2  1  0  0  0  0
 14  5  1  0  0  0  0
 15  5  1  0  0  0  0
 17 22  1  0  0  0  0
 17  1  1  0  0  0  0
 18 17  2  0  0  0  0
 19 20  2  0  0  0  0
 19 18  1  0  0  0  0
 20 21  1  0  0  0  0
 21 25  1  0  0  0  0
 21 22  2  0  0  0  0
 23 18  1  0  0  0  0
 24 19  1  0  0  0  0
 25 30  1  0  0  0  0
 26 25  2  0  0  0  0
 27 26  1  0  0  0  0
 27 28  2  0  0  0  0
 28 33  1  0  0  0  0
 28 29  1  0  0  0  0
 29 37  1  0  0  0  0
 30 29  2  0  0  0  0
 31 26  1  0  0  0  0
 32 27  1  0  0  0  0
 35 37  1  0  0  0  0
 35 34  1  0  0  0  0
 36 35  2  0  0  0  0
 37 38  1  0  0  0  0
 39 43  1  0  0  0  0
 40 39  1  0  0  0  0
 40 42  1  0  0  0  0
 41 40  2  0  0  0  0
 42 45  1  0  0  0  0
 42 44  1  0  0  0  0
M  END
>  <minimizedAffinity>
-6.06362629

$$$$

 OpenBabel03252507343D

 45 47  0  0  1  0  0  0  0  0999 V2000
   39.0240   25.7390   40.9240 C   0  0  2  0  0  0  0  0  0  0  0  0
   37.9840   25.9120   39.7800 C   0  0  0  0  0  0  0  0  0  0  0  0
   37.0450   24.7540   39.7780 C   0  0  0  0  0  0  0  0  0  0  0  0
   36.5440   24.3170   41.1110 C   0  0  0  0  0  0  0  0  0  0  0  0
   37.5050   24.4070   42.1780 C   0  0  0  0  0  0  0  0  0  0  0  0
   38.3130   25.7240   42.1880 C   0  0  2  0  0  0  0  0  0  0  0  0
   39.4810   24.7650   40.6780 H   0  0  0  0  0  0  0  0  0  0  0  0
   38.6010   25.9230   38.8590 H   0  0  0  0  0  0  0  0  0  0  0  0
   37.4630   26.8660   39.8360 H   0  0  0  0  0  0  0  0  0  0  0  0
   37.5110   23.9810   39.1380 H   0  0  0  0  0  0  0  0  0  0  0  0
   36.1400   25.0890   39.1930 H   0  0  0  0  0  0  0  0  0  0  0  0
   36.5610   23.1670   40.9420 H   0  0  0  0  0  0  0  0  0  0  0  0
   35.4630   24.3300   41.2840 H   0  0  0  0  0  0  0  0  0  0  0  0
   38.2840   23.6120   42.2820 H   0  0  0  0  0  0  0  0  0  0  0  0
   36.9790   24.3980   43.1740 H   0  0  0  0  0  0  0  0  0  0  0  0
   38.8870   25.6060   43.1090 H   0  0  0  0  0  0  0  0  0  0  0  0
   40.0480   26.7640   40.8680 C   0  0  0  0  0  0  0  0  0  0  0  0
   41.3380   26.3980   41.2340 C   0  0  0  0  0  0  0  0  0  0  0  0
   42.3650   27.3710   41.2180 C   0  0  0  0  0  0  0  0  0  0  0  0
   41.9990   28.6560   40.8230 N   0  0  0  0  0  0  0  0  0  0  0  0
   40.7360   28.9380   40.4800 C   0  0  0  0  0  0  0  0  0  0  0  0
   39.7820   28.0120   40.5030 N   0  0  0  0  0  0  0  0  0  0  0  0
   41.8330   25.4990   41.5250 H   0  0  0  0  0  0  0  0  0  0  0  0
   43.3900   27.2790   41.4630 H   0  0  0  0  0  0  0  0  0  0  0  0
   40.4260   30.3070   40.0560 C   0  0  0  0  0  0  0  0  0  0  0  0
   40.7170   30.7390   38.7820 C   0  0  0  0  0  0  0  0  0  0  0  0
   40.4690   31.9950   38.2880 C   0  0  0  0  0  0  0  0  0  0  0  0
   39.8790   32.8400   39.1920 C   0  0  0  0  0  0  0  0  0  0  0  0
   39.5680   32.4380   40.4930 C   0  0  0  0  0  0  0  0  0  0  0  0
   39.8480   31.1620   40.9150 N   0  0  0  0  0  0  0  0  0  0  0  0
   41.1890   29.9930   38.1280 H   0  0  0  0  0  0  0  0  0  0  0  0
   40.6980   32.3220   37.3000 H   0  0  0  0  0  0  0  0  0  0  0  0
   39.6300   33.8600   38.9300 H   0  0  0  0  0  0  0  0  0  0  0  0
   38.3350   35.5290   41.1010 H   0  0  0  0  0  0  0  0  0  0  0  0
   38.7810   34.6160   40.6800 C   0  0  0  0  0  0  0  0  0  0  0  0
   39.1570   34.7220   39.4780 O   0  0  0  0  0  0  0  0  0  0  0  0
   38.9570   33.3670   41.3800 N   0  0  0  0  0  0  0  0  0  0  0  0
   38.6350   33.3360   42.3550 H   0  0  0  0  0  0  0  0  0  0  0  0
   37.3730   26.8450   42.2460 N   0  0  0  0  0  0  0  0  0  0  0  0
   37.1750   27.8480   43.2100 C   0  0  0  0  0  0  0  0  0  0  0  0
   37.9500   28.8640   43.3280 O   0  0  0  0  0  0  0  0  0  0  0  0
   36.0390   27.6560   44.0520 N   0  0  0  0  0  0  0  0  0  0  0  0
   36.6040   26.9850   41.4860 H   0  0  0  0  0  0  0  0  0  0  0  0
   35.0340   27.5080   43.8050 H   0  0  0  0  0  0  0  0  0  0  0  0
   35.9770   27.6240   45.1020 H   0  0  0  0  0  0  0  0  0  0  0  0
  1  7  1  6  0  0  0
  1  6  1  0  0  0  0
  2  9  1  0  0  0  0
  2  1  1  0  0  0  0
  3  2  1  0  0  0  0
  3  4  1  0  0  0  0
  4 13  1  0  0  0  0
  4  5  1  0  0  0  0
  5  6  1  0  0  0  0
  5 14  1  0  0  0  0
  5 15  1  0  0  0  0
  6 39  1  0  0  0  0
  6 16  1  1  0  0  0
  8  2  1  0  0  0  0
 10  3  1  0  0  0  0
 11  3  1  0  0  0  0
 12  4  1  0  0  0  0
 17  1  1  0  0  0  0
 17 18  1  0  0  0  0
 18 23  1  0  0  0  0
 19 18  2  0  0  0  0
 19 24  1  0  0  0  0
 20 19  1  0  0  0  0
 21 22  1  0  0  0  0
 21 20  2  0  0  0  0
 22 17  2  0  0  0  0
 25 21  1  0  0  0  0
 25 30  1  0  0  0  0
 26 25  2  0  0  0  0
 27 26  1  0  0  0  0
 27 28  2  0  0  0  0
 28 29  1  0  0  0  0
 29 30  2  0  0  0  0
 29 37  1  0  0  0  0
 31 26  1  0  0  0  0
 32 27  1  0  0  0  0
 33 28  1  0  0  0  0
 35 34  1  0  0  0  0
 35 37  1  0  0  0  0
 36 35  2  0  0  0  0
 37 38  1  0  0  0  0
 39 40  1  0  0  0  0
 40 41  2  0  0  0  0
 40 42  1  0  0  0  0
 42 45  1  0  0  0  0
 43 39  1  0  0  0  0
 44 42  1  0  0  0  0
M  END
>  <minimizedAffinity>
-6.04562902

$$$$
