
 OpenBabel03252500523D

 31 32  0  0  0  0  0  0  0  0999 V2000
   39.5410   28.7060   42.2590 C   0  0  0  0  0  0  0  0  0  0  0  0
   38.4050   27.9410   42.3460 C   0  0  0  0  0  0  0  0  0  0  0  0
   37.1460   28.4420   41.9370 C   0  0  0  0  0  0  0  0  0  0  0  0
   37.1240   29.7300   41.4500 N   0  0  0  0  0  0  0  0  0  0  0  0
   38.2320   30.4530   41.3740 C   0  0  0  0  0  0  0  0  0  0  0  0
   39.4190   29.9530   41.7700 N   0  0  0  0  0  0  0  0  0  0  0  0
   40.5140   28.3860   42.5510 H   0  0  0  0  0  0  0  0  0  0  0  0
   36.2410   27.8540   41.9980 H   0  0  0  0  0  0  0  0  0  0  0  0
   38.1910   31.8170   40.8540 C   0  0  0  0  0  0  0  0  0  0  0  0
   37.2280   32.2350   39.9870 C   0  0  0  0  0  0  0  0  0  0  0  0
   37.1760   33.5180   39.4900 C   0  0  0  0  0  0  0  0  0  0  0  0
   38.1370   34.3700   39.8990 N   0  0  0  0  0  0  0  0  0  0  0  0
   39.0710   33.9540   40.7430 C   0  0  0  0  0  0  0  0  0  0  0  0
   39.1590   32.7120   41.2530 N   0  0  0  0  0  0  0  0  0  0  0  0
   36.4630   31.5330   39.6700 H   0  0  0  0  0  0  0  0  0  0  0  0
   36.4040   33.8190   38.8070 H   0  0  0  0  0  0  0  0  0  0  0  0
   39.7970   34.7200   41.0100 H   0  0  0  0  0  0  0  0  0  0  0  0
   38.4920   26.5830   42.8710 C   0  0  0  0  0  0  0  0  0  0  0  0
   37.5960   25.7690   42.5650 O   0  0  0  0  0  0  0  0  0  0  0  0
   39.3970   25.9540   43.6810 O   0  0  0  0  0  0  0  0  0  0  0  0
   40.1030   24.8320   43.3130 C   0  0  0  0  0  0  0  0  0  0  0  0
   39.5350   23.9620   42.9440 H   0  0  0  0  0  0  0  0  0  0  0  0
   40.5620   24.4370   44.2700 H   0  0  0  0  0  0  0  0  0  0  0  0
   41.3200   25.1180   42.4440 C   0  0  0  0  0  0  0  0  0  0  0  0
   41.3350   26.2120   42.2600 H   0  0  0  0  0  0  0  0  0  0  0  0
   41.1680   24.6260   41.4670 H   0  0  0  0  0  0  0  0  0  0  0  0
   44.2890   25.6500   44.1560 H   0  0  0  0  0  0  0  0  0  0  0  0
   43.3390   25.8330   43.6340 C   0  0  0  0  0  0  0  0  0  0  0  0
   42.8920   26.9990   43.4680 O   0  0  0  0  0  0  0  0  0  0  0  0
   42.5390   24.7780   43.1070 N   0  0  0  0  0  0  0  0  0  0  0  0
   42.9210   23.8130   43.2500 H   0  0  0  0  0  0  0  0  0  0  0  0
  1  2  1  0  0  0  0
  1  7  1  0  0  0  0
  2 18  1  0  0  0  0
  3  8  1  0  0  0  0
  3  2  2  0  0  0  0
  4  3  1  0  0  0  0
  5  4  2  0  0  0  0
  5  6  1  0  0  0  0
  6  1  2  0  0  0  0
  9 14  1  0  0  0  0
  9  5  1  0  0  0  0
 10  9  2  0  0  0  0
 11 12  2  0  0  0  0
 11 10  1  0  0  0  0
 12 13  1  0  0  0  0
 13 17  1  0  0  0  0
 13 14  2  0  0  0  0
 15 10  1  0  0  0  0
 16 11  1  0  0  0  0
 18 20  1  0  0  0  0
 19 18  2  0  0  0  0
 21 20  1  0  0  0  0
 21 23  1  0  0  0  0
 22 21  1  0  0  0  0
 24 30  1  0  0  0  0
 24 21  1  0  0  0  0
 25 24  1  0  0  0  0
 26 24  1  0  0  0  0
 28 27  1  0  0  0  0
 29 28  2  0  0  0  0
 30 31  1  0  0  0  0
 30 28  1  0  0  0  0
M  END
>  <minimizedAffinity>
-4.64503479

$$$$

 OpenBabel03252500523D

 31 32  0  0  0  0  0  0  0  0999 V2000
   37.6050   28.9810   40.6550 C   0  0  0  0  0  0  0  0  0  0  0  0
   37.7200   28.4520   41.9160 C   0  0  0  0  0  0  0  0  0  0  0  0
   38.4350   29.1270   42.9350 C   0  0  0  0  0  0  0  0  0  0  0  0
   39.0030   30.3330   42.5940 N   0  0  0  0  0  0  0  0  0  0  0  0
   38.8810   30.8280   41.3710 C   0  0  0  0  0  0  0  0  0  0  0  0
   38.1950   30.1660   40.4170 N   0  0  0  0  0  0  0  0  0  0  0  0
   37.0820   28.5230   39.8490 H   0  0  0  0  0  0  0  0  0  0  0  0
   38.5360   28.7250   43.9350 H   0  0  0  0  0  0  0  0  0  0  0  0
   39.4900   32.1090   41.0260 C   0  0  0  0  0  0  0  0  0  0  0  0
   38.7550   33.2440   40.8710 C   0  0  0  0  0  0  0  0  0  0  0  0
   39.3160   34.4590   40.5470 C   0  0  0  0  0  0  0  0  0  0  0  0
   40.6540   34.4890   40.3830 N   0  0  0  0  0  0  0  0  0  0  0  0
   41.3610   33.3800   40.5360 C   0  0  0  0  0  0  0  0  0  0  0  0
   40.8550   32.1730   40.8520 N   0  0  0  0  0  0  0  0  0  0  0  0
   37.6790   33.1980   41.0070 H   0  0  0  0  0  0  0  0  0  0  0  0
   38.7100   35.3380   40.4310 H   0  0  0  0  0  0  0  0  0  0  0  0
   42.4310   33.5140   40.3830 H   0  0  0  0  0  0  0  0  0  0  0  0
   37.0950   27.1690   42.2170 C   0  0  0  0  0  0  0  0  0  0  0  0
   36.5580   27.0180   43.3340 O   0  0  0  0  0  0  0  0  0  0  0  0
   36.9550   26.0120   41.5020 O   0  0  0  0  0  0  0  0  0  0  0  0
   37.0020   24.7570   42.0620 C   0  0  0  0  0  0  0  0  0  0  0  0
   36.1200   24.1040   41.9420 H   0  0  0  0  0  0  0  0  0  0  0  0
   37.0320   24.9250   43.1810 H   0  0  0  0  0  0  0  0  0  0  0  0
   38.2970   24.0020   41.7960 C   0  0  0  0  0  0  0  0  0  0  0  0
   38.8510   24.5750   41.0230 H   0  0  0  0  0  0  0  0  0  0  0  0
   38.0410   23.0230   41.3540 H   0  0  0  0  0  0  0  0  0  0  0  0
   40.8760   24.8860   43.9400 H   0  0  0  0  0  0  0  0  0  0  0  0
   40.1970   24.8720   43.0760 C   0  0  0  0  0  0  0  0  0  0  0  0
   40.3240   25.6890   42.1250 O   0  0  0  0  0  0  0  0  0  0  0  0
   39.1250   23.9400   42.9590 N   0  0  0  0  0  0  0  0  0  0  0  0
   39.0300   23.2660   43.7550 H   0  0  0  0  0  0  0  0  0  0  0  0
  1  2  1  0  0  0  0
  2 18  1  0  0  0  0
  2  3  2  0  0  0  0
  3  8  1  0  0  0  0
  4  3  1  0  0  0  0
  5  4  2  0  0  0  0
  6  1  2  0  0  0  0
  6  5  1  0  0  0  0
  7  1  1  0  0  0  0
  9  5  1  0  0  0  0
 10 15  1  0  0  0  0
 10  9  1  0  0  0  0
 11 10  2  0  0  0  0
 12 13  2  0  0  0  0
 12 11  1  0  0  0  0
 13 14  1  0  0  0  0
 14  9  2  0  0  0  0
 16 11  1  0  0  0  0
 17 13  1  0  0  0  0
 18 19  2  0  0  0  0
 20 21  1  0  0  0  0
 20 18  1  0  0  0  0
 21 23  1  0  0  0  0
 22 21  1  0  0  0  0
 24 21  1  0  0  0  0
 24 30  1  0  0  0  0
 25 24  1  0  0  0  0
 26 24  1  0  0  0  0
 28 27  1  0  0  0  0
 29 28  2  0  0  0  0
 30 28  1  0  0  0  0
 30 31  1  0  0  0  0
M  END
>  <minimizedAffinity>
-4.56826544

$$$$

 OpenBabel03252500523D

 31 32  0  0  0  0  0  0  0  0999 V2000
   38.6500   30.2300   40.4420 C   0  0  0  0  0  0  0  0  0  0  0  0
   37.5890   31.0920   40.5610 C   0  0  0  0  0  0  0  0  0  0  0  0
   36.2830   30.6200   40.8360 C   0  0  0  0  0  0  0  0  0  0  0  0
   36.1370   29.2580   40.9750 N   0  0  0  0  0  0  0  0  0  0  0  0
   37.1740   28.4410   40.8560 C   0  0  0  0  0  0  0  0  0  0  0  0
   38.4080   28.9160   40.5950 N   0  0  0  0  0  0  0  0  0  0  0  0
   39.6530   30.5240   40.2370 H   0  0  0  0  0  0  0  0  0  0  0  0
   35.4350   31.2850   40.9330 H   0  0  0  0  0  0  0  0  0  0  0  0
   37.0010   26.9990   41.0080 C   0  0  0  0  0  0  0  0  0  0  0  0
   37.1060   26.3780   42.2140 C   0  0  0  0  0  0  0  0  0  0  0  0
   36.9450   25.0200   42.3720 C   0  0  0  0  0  0  0  0  0  0  0  0
   36.6730   24.3050   41.2620 N   0  0  0  0  0  0  0  0  0  0  0  0
   36.5730   24.9180   40.0920 C   0  0  0  0  0  0  0  0  0  0  0  0
   36.7230   26.2400   39.8920 N   0  0  0  0  0  0  0  0  0  0  0  0
   37.3260   26.9720   43.0960 H   0  0  0  0  0  0  0  0  0  0  0  0
   37.0340   24.5580   43.3370 H   0  0  0  0  0  0  0  0  0  0  0  0
   36.3510   24.2500   39.2610 H   0  0  0  0  0  0  0  0  0  0  0  0
   37.8070   32.5260   40.4030 C   0  0  0  0  0  0  0  0  0  0  0  0
   37.1060   33.1450   39.5760 O   0  0  0  0  0  0  0  0  0  0  0  0
   38.6670   33.4080   40.9970 O   0  0  0  0  0  0  0  0  0  0  0  0
   39.1540   34.5360   40.3790 C   0  0  0  0  0  0  0  0  0  0  0  0
   38.9530   35.5120   40.8510 H   0  0  0  0  0  0  0  0  0  0  0  0
   38.5860   34.6150   39.4020 H   0  0  0  0  0  0  0  0  0  0  0  0
   40.6020   34.4210   39.9210 C   0  0  0  0  0  0  0  0  0  0  0  0
   41.1100   33.7350   40.6300 H   0  0  0  0  0  0  0  0  0  0  0  0
   41.0770   35.4120   40.0330 H   0  0  0  0  0  0  0  0  0  0  0  0
   41.3250   32.0120   37.5340 H   0  0  0  0  0  0  0  0  0  0  0  0
   41.2160   32.5210   38.5020 C   0  0  0  0  0  0  0  0  0  0  0  0
   41.5380   31.9580   39.5830 O   0  0  0  0  0  0  0  0  0  0  0  0
   40.7060   33.8470   38.6180 N   0  0  0  0  0  0  0  0  0  0  0  0
   40.4410   34.3040   37.7130 H   0  0  0  0  0  0  0  0  0  0  0  0
  1  2  2  0  0  0  0
  1  6  1  0  0  0  0
  2  3  1  0  0  0  0
  3  8  1  0  0  0  0
  3  4  2  0  0  0  0
  5  4  1  0  0  0  0
  5  9  1  0  0  0  0
  6  5  2  0  0  0  0
  7  1  1  0  0  0  0
  9 10  1  0  0  0  0
 10 11  2  0  0  0  0
 10 15  1  0  0  0  0
 11 16  1  0  0  0  0
 12 11  1  0  0  0  0
 13 12  2  0  0  0  0
 14 13  1  0  0  0  0
 14  9  2  0  0  0  0
 17 13  1  0  0  0  0
 18  2  1  0  0  0  0
 18 20  1  0  0  0  0
 19 18  2  0  0  0  0
 21 22  1  0  0  0  0
 21 20  1  0  0  0  0
 23 21  1  0  0  0  0
 24 26  1  0  0  0  0
 24 21  1  0  0  0  0
 24 25  1  0  0  0  0
 27 28  1  0  0  0  0
 28 30  1  0  0  0  0
 28 29  2  0  0  0  0
 30 24  1  0  0  0  0
 31 30  1  0  0  0  0
M  END
>  <minimizedAffinity>
-4.38066626

$$$$

 OpenBabel03252500523D

 31 32  0  0  0  0  0  0  0  0999 V2000
   36.5360   30.7800   41.1240 C   0  0  0  0  0  0  0  0  0  0  0  0
   37.6520   31.2670   40.4900 C   0  0  0  0  0  0  0  0  0  0  0  0
   38.6530   30.3990   39.9910 C   0  0  0  0  0  0  0  0  0  0  0  0
   38.4480   29.0500   40.1760 N   0  0  0  0  0  0  0  0  0  0  0  0
   37.3640   28.5990   40.7910 C   0  0  0  0  0  0  0  0  0  0  0  0
   36.4240   29.4470   41.2560 N   0  0  0  0  0  0  0  0  0  0  0  0
   35.7510   31.3810   41.5190 H   0  0  0  0  0  0  0  0  0  0  0  0
   39.5390   30.7640   39.4890 H   0  0  0  0  0  0  0  0  0  0  0  0
   37.1610   27.1660   40.9770 C   0  0  0  0  0  0  0  0  0  0  0  0
   36.9090   26.3260   39.9360 C   0  0  0  0  0  0  0  0  0  0  0  0
   36.7170   24.9730   40.0970 C   0  0  0  0  0  0  0  0  0  0  0  0
   36.7880   24.4920   41.3550 N   0  0  0  0  0  0  0  0  0  0  0  0
   37.0330   25.3160   42.3620 C   0  0  0  0  0  0  0  0  0  0  0  0
   37.2280   26.6430   42.2500 N   0  0  0  0  0  0  0  0  0  0  0  0
   36.8560   26.7340   38.9310 H   0  0  0  0  0  0  0  0  0  0  0  0
   36.5190   24.3350   39.2570 H   0  0  0  0  0  0  0  0  0  0  0  0
   37.0710   24.8260   43.3340 H   0  0  0  0  0  0  0  0  0  0  0  0
   37.8140   32.7070   40.3240 C   0  0  0  0  0  0  0  0  0  0  0  0
   37.0390   33.3060   39.5490 O   0  0  0  0  0  0  0  0  0  0  0  0
   38.6830   33.6140   40.8630 O   0  0  0  0  0  0  0  0  0  0  0  0
   39.4240   34.5010   40.1170 C   0  0  0  0  0  0  0  0  0  0  0  0
   39.0180   35.5160   39.9680 H   0  0  0  0  0  0  0  0  0  0  0  0
   39.4280   34.0820   39.0650 H   0  0  0  0  0  0  0  0  0  0  0  0
   40.9030   34.5360   40.4760 C   0  0  0  0  0  0  0  0  0  0  0  0
   41.0210   35.2930   41.2800 H   0  0  0  0  0  0  0  0  0  0  0  0
   41.4610   34.9050   39.5980 H   0  0  0  0  0  0  0  0  0  0  0  0
   43.0420   32.3140   42.0610 H   0  0  0  0  0  0  0  0  0  0  0  0
   42.6270   33.2390   41.6370 C   0  0  0  0  0  0  0  0  0  0  0  0
   43.2550   34.3300   41.6940 O   0  0  0  0  0  0  0  0  0  0  0  0
   41.3550   33.2850   40.9950 N   0  0  0  0  0  0  0  0  0  0  0  0
   40.8420   32.3720   40.9540 H   0  0  0  0  0  0  0  0  0  0  0  0
  1  6  1  0  0  0  0
  1  7  1  0  0  0  0
  2  1  2  0  0  0  0
  3  4  2  0  0  0  0
  3  2  1  0  0  0  0
  4  5  1  0  0  0  0
  5  9  1  0  0  0  0
  5  6  2  0  0  0  0
  8  3  1  0  0  0  0
  9 14  1  0  0  0  0
 10 11  1  0  0  0  0
 10  9  2  0  0  0  0
 11 12  2  0  0  0  0
 12 13  1  0  0  0  0
 13 17  1  0  0  0  0
 14 13  2  0  0  0  0
 15 10  1  0  0  0  0
 16 11  1  0  0  0  0
 18  2  1  0  0  0  0
 18 20  1  0  0  0  0
 19 18  2  0  0  0  0
 21 24  1  0  0  0  0
 21 20  1  0  0  0  0
 22 21  1  0  0  0  0
 23 21  1  0  0  0  0
 24 30  1  0  0  0  0
 24 25  1  0  0  0  0
 26 24  1  0  0  0  0
 28 29  2  0  0  0  0
 28 27  1  0  0  0  0
 30 28  1  0  0  0  0
 31 30  1  0  0  0  0
M  END
>  <minimizedAffinity>
-4.34591246

$$$$

 OpenBabel03252500523D

 31 32  0  0  0  0  0  0  0  0999 V2000
   35.9240   29.5000   37.3570 C   0  0  0  0  0  0  0  0  0  0  0  0
   34.9680   28.8720   38.1150 C   0  0  0  0  0  0  0  0  0  0  0  0
   34.8010   29.1750   39.4880 C   0  0  0  0  0  0  0  0  0  0  0  0
   35.6430   30.1280   40.0160 N   0  0  0  0  0  0  0  0  0  0  0  0
   36.5590   30.7240   39.2670 C   0  0  0  0  0  0  0  0  0  0  0  0
   36.6990   30.4180   37.9620 N   0  0  0  0  0  0  0  0  0  0  0  0
   36.0970   29.3160   36.3230 H   0  0  0  0  0  0  0  0  0  0  0  0
   34.0530   28.6900   40.1010 H   0  0  0  0  0  0  0  0  0  0  0  0
   37.4440   31.7330   39.8430 C   0  0  0  0  0  0  0  0  0  0  0  0
   37.3420   33.0530   39.5290 C   0  0  0  0  0  0  0  0  0  0  0  0
   38.1680   34.0150   40.0640 C   0  0  0  0  0  0  0  0  0  0  0  0
   39.1080   33.5960   40.9340 N   0  0  0  0  0  0  0  0  0  0  0  0
   39.2010   32.3090   41.2340 C   0  0  0  0  0  0  0  0  0  0  0  0
   38.4150   31.3360   40.7360 N   0  0  0  0  0  0  0  0  0  0  0  0
   36.5770   33.3700   38.8250 H   0  0  0  0  0  0  0  0  0  0  0  0
   38.0640   35.0490   39.7960 H   0  0  0  0  0  0  0  0  0  0  0  0
   39.9920   32.0770   41.9460 H   0  0  0  0  0  0  0  0  0  0  0  0
   34.1050   27.8700   37.4990 C   0  0  0  0  0  0  0  0  0  0  0  0
   34.4790   26.6790   37.5060 O   0  0  0  0  0  0  0  0  0  0  0  0
   32.8940   27.9460   36.8690 O   0  0  0  0  0  0  0  0  0  0  0  0
   32.3680   29.1100   36.3590 C   0  0  0  0  0  0  0  0  0  0  0  0
   32.4230   29.2680   35.2690 H   0  0  0  0  0  0  0  0  0  0  0  0
   33.0250   29.9400   36.7600 H   0  0  0  0  0  0  0  0  0  0  0  0
   30.9940   29.4680   36.9090 C   0  0  0  0  0  0  0  0  0  0  0  0
   30.3340   28.5960   36.7190 H   0  0  0  0  0  0  0  0  0  0  0  0
   30.5960   30.3110   36.3180 H   0  0  0  0  0  0  0  0  0  0  0  0
   29.7460   30.1720   40.0670 H   0  0  0  0  0  0  0  0  0  0  0  0
   29.8020   29.9940   38.9840 C   0  0  0  0  0  0  0  0  0  0  0  0
   28.7780   30.0520   38.2530 O   0  0  0  0  0  0  0  0  0  0  0  0
   31.0250   29.6830   38.3210 N   0  0  0  0  0  0  0  0  0  0  0  0
   31.8700   29.6370   38.9400 H   0  0  0  0  0  0  0  0  0  0  0  0
  1  6  2  0  0  0  0
  1  2  1  0  0  0  0
  2  3  2  0  0  0  0
  3  4  1  0  0  0  0
  3  8  1  0  0  0  0
  5  9  1  0  0  0  0
  5  4  2  0  0  0  0
  6  5  1  0  0  0  0
  7  1  1  0  0  0  0
  9 14  1  0  0  0  0
 10  9  2  0  0  0  0
 10 11  1  0  0  0  0
 11 12  2  0  0  0  0
 12 13  1  0  0  0  0
 13 17  1  0  0  0  0
 14 13  2  0  0  0  0
 15 10  1  0  0  0  0
 16 11  1  0  0  0  0
 18 19  2  0  0  0  0
 18  2  1  0  0  0  0
 20 18  1  0  0  0  0
 21 23  1  0  0  0  0
 21 20  1  0  0  0  0
 21 24  1  0  0  0  0
 22 21  1  0  0  0  0
 24 30  1  0  0  0  0
 25 24  1  0  0  0  0
 26 24  1  0  0  0  0
 28 27  1  0  0  0  0
 29 28  2  0  0  0  0
 30 31  1  0  0  0  0
 30 28  1  0  0  0  0
M  END
>  <minimizedAffinity>
-4.24800873

$$$$

 OpenBabel03252500523D

 31 32  0  0  0  0  0  0  0  0999 V2000
   40.3450   30.4860   39.9360 C   0  0  0  0  0  0  0  0  0  0  0  0
   40.2190   31.4350   40.9200 C   0  0  0  0  0  0  0  0  0  0  0  0
   39.6700   31.1150   42.1850 C   0  0  0  0  0  0  0  0  0  0  0  0
   39.2730   29.8110   42.3730 N   0  0  0  0  0  0  0  0  0  0  0  0
   39.4020   28.9090   41.4100 C   0  0  0  0  0  0  0  0  0  0  0  0
   39.9290   29.2380   40.2140 N   0  0  0  0  0  0  0  0  0  0  0  0
   40.7490   30.6650   38.9670 H   0  0  0  0  0  0  0  0  0  0  0  0
   39.5620   31.8500   42.9720 H   0  0  0  0  0  0  0  0  0  0  0  0
   38.9760   27.5290   41.6270 C   0  0  0  0  0  0  0  0  0  0  0  0
   37.7450   27.2180   42.1160 C   0  0  0  0  0  0  0  0  0  0  0  0
   37.3300   25.9220   42.3250 C   0  0  0  0  0  0  0  0  0  0  0  0
   38.2060   24.9440   42.0220 N   0  0  0  0  0  0  0  0  0  0  0  0
   39.4030   25.2560   41.5460 C   0  0  0  0  0  0  0  0  0  0  0  0
   39.8490   26.5070   41.3270 N   0  0  0  0  0  0  0  0  0  0  0  0
   37.0530   28.0210   42.3540 H   0  0  0  0  0  0  0  0  0  0  0  0
   36.3520   25.7070   42.7120 H   0  0  0  0  0  0  0  0  0  0  0  0
   40.0320   24.3940   41.3340 H   0  0  0  0  0  0  0  0  0  0  0  0
   40.6580   32.8010   40.6600 C   0  0  0  0  0  0  0  0  0  0  0  0
   41.8280   33.1170   40.9630 O   0  0  0  0  0  0  0  0  0  0  0  0
   40.0350   33.8930   40.1230 O   0  0  0  0  0  0  0  0  0  0  0  0
   38.7920   34.3340   40.5140 C   0  0  0  0  0  0  0  0  0  0  0  0
   38.6590   35.4140   40.6950 H   0  0  0  0  0  0  0  0  0  0  0  0
   38.6220   33.8900   41.5420 H   0  0  0  0  0  0  0  0  0  0  0  0
   37.6410   33.7570   39.7010 C   0  0  0  0  0  0  0  0  0  0  0  0
   38.0890   33.2690   38.8100 H   0  0  0  0  0  0  0  0  0  0  0  0
   37.0230   34.5960   39.3350 H   0  0  0  0  0  0  0  0  0  0  0  0
   36.1840   30.6670   40.2990 H   0  0  0  0  0  0  0  0  0  0  0  0
   36.7230   31.4870   39.8040 C   0  0  0  0  0  0  0  0  0  0  0  0
   37.2010   31.3580   38.6460 O   0  0  0  0  0  0  0  0  0  0  0  0
   36.9270   32.7540   40.4250 N   0  0  0  0  0  0  0  0  0  0  0  0
   36.5240   32.8500   41.3880 H   0  0  0  0  0  0  0  0  0  0  0  0
  1  6  2  0  0  0  0
  1  2  1  0  0  0  0
  2  3  2  0  0  0  0
  3  4  1  0  0  0  0
  3  8  1  0  0  0  0
  5  9  1  0  0  0  0
  5  4  2  0  0  0  0
  6  5  1  0  0  0  0
  7  1  1  0  0  0  0
  9 10  1  0  0  0  0
 10 11  2  0  0  0  0
 10 15  1  0  0  0  0
 11 16  1  0  0  0  0
 12 11  1  0  0  0  0
 13 12  2  0  0  0  0
 14 13  1  0  0  0  0
 14  9  2  0  0  0  0
 17 13  1  0  0  0  0
 18  2  1  0  0  0  0
 18 19  2  0  0  0  0
 20 21  1  0  0  0  0
 20 18  1  0  0  0  0
 21 22  1  0  0  0  0
 21 23  1  0  0  0  0
 24 30  1  0  0  0  0
 24 21  1  0  0  0  0
 25 24  1  0  0  0  0
 26 24  1  0  0  0  0
 28 27  1  0  0  0  0
 28 30  1  0  0  0  0
 29 28  2  0  0  0  0
 30 31  1  0  0  0  0
M  END
>  <minimizedAffinity>
-4.22744465

$$$$

 OpenBabel03252500523D

 31 32  0  0  0  0  0  0  0  0999 V2000
   37.6030   27.9610   40.7550 C   0  0  0  0  0  0  0  0  0  0  0  0
   37.9950   27.6270   42.0270 C   0  0  0  0  0  0  0  0  0  0  0  0
   38.4370   28.6110   42.9440 C   0  0  0  0  0  0  0  0  0  0  0  0
   38.4520   29.9110   42.4920 N   0  0  0  0  0  0  0  0  0  0  0  0
   38.0690   30.2140   41.2600 C   0  0  0  0  0  0  0  0  0  0  0  0
   37.6520   29.2580   40.4060 N   0  0  0  0  0  0  0  0  0  0  0  0
   37.2610   27.2670   40.0230 H   0  0  0  0  0  0  0  0  0  0  0  0
   38.7500   28.3670   43.9500 H   0  0  0  0  0  0  0  0  0  0  0  0
   38.0910   31.5990   40.7980 C   0  0  0  0  0  0  0  0  0  0  0  0
   37.1770   32.0830   39.9130 C   0  0  0  0  0  0  0  0  0  0  0  0
   37.1840   33.3860   39.4690 C   0  0  0  0  0  0  0  0  0  0  0  0
   38.1540   34.1890   39.9510 N   0  0  0  0  0  0  0  0  0  0  0  0
   39.0390   33.7090   40.8110 C   0  0  0  0  0  0  0  0  0  0  0  0
   39.0690   32.4450   41.2720 N   0  0  0  0  0  0  0  0  0  0  0  0
   36.4040   31.4200   39.5360 H   0  0  0  0  0  0  0  0  0  0  0  0
   36.4500   33.7400   38.7700 H   0  0  0  0  0  0  0  0  0  0  0  0
   39.7780   34.4400   41.1390 H   0  0  0  0  0  0  0  0  0  0  0  0
   37.9570   26.2310   42.4480 C   0  0  0  0  0  0  0  0  0  0  0  0
   38.9510   25.7620   43.0410 O   0  0  0  0  0  0  0  0  0  0  0  0
   37.0130   25.2490   42.3310 O   0  0  0  0  0  0  0  0  0  0  0  0
   37.1260   24.1760   41.4780 C   0  0  0  0  0  0  0  0  0  0  0  0
   36.9200   23.1700   41.8820 H   0  0  0  0  0  0  0  0  0  0  0  0
   38.2250   24.1130   41.2140 H   0  0  0  0  0  0  0  0  0  0  0  0
   36.4620   24.3830   40.1240 C   0  0  0  0  0  0  0  0  0  0  0  0
   37.2330   24.1760   39.3520 H   0  0  0  0  0  0  0  0  0  0  0  0
   36.1910   25.4500   40.0330 H   0  0  0  0  0  0  0  0  0  0  0  0
   34.8090   21.6370   38.7990 H   0  0  0  0  0  0  0  0  0  0  0  0
   35.5890   22.3810   39.0120 C   0  0  0  0  0  0  0  0  0  0  0  0
   36.7250   22.3200   38.4700 O   0  0  0  0  0  0  0  0  0  0  0  0
   35.3860   23.4680   39.9120 N   0  0  0  0  0  0  0  0  0  0  0  0
   34.4380   23.5080   40.3560 H   0  0  0  0  0  0  0  0  0  0  0  0
  1  2  1  0  0  0  0
  2 18  1  0  0  0  0
  2  3  2  0  0  0  0
  3  8  1  0  0  0  0
  4  3  1  0  0  0  0
  5  4  2  0  0  0  0
  6  1  2  0  0  0  0
  6  5  1  0  0  0  0
  7  1  1  0  0  0  0
  9  5  1  0  0  0  0
  9 14  1  0  0  0  0
 10  9  2  0  0  0  0
 11 10  1  0  0  0  0
 11 12  2  0  0  0  0
 12 13  1  0  0  0  0
 13 17  1  0  0  0  0
 13 14  2  0  0  0  0
 15 10  1  0  0  0  0
 16 11  1  0  0  0  0
 18 19  2  0  0  0  0
 20 18  1  0  0  0  0
 21 22  1  0  0  0  0
 21 20  1  0  0  0  0
 23 21  1  0  0  0  0
 24 21  1  0  0  0  0
 25 24  1  0  0  0  0
 26 24  1  0  0  0  0
 27 28  1  0  0  0  0
 28 30  1  0  0  0  0
 29 28  2  0  0  0  0
 30 24  1  0  0  0  0
 30 31  1  0  0  0  0
M  END
>  <minimizedAffinity>
-4.19425917

$$$$

 OpenBabel03252500523D

 31 32  0  0  0  0  0  0  0  0999 V2000
   38.6340   27.8080   40.3530 C   0  0  0  0  0  0  0  0  0  0  0  0
   37.8640   28.0420   41.4650 C   0  0  0  0  0  0  0  0  0  0  0  0
   37.2500   26.9810   42.1730 C   0  0  0  0  0  0  0  0  0  0  0  0
   37.4670   25.7110   41.6890 N   0  0  0  0  0  0  0  0  0  0  0  0
   38.2130   25.5050   40.6140 C   0  0  0  0  0  0  0  0  0  0  0  0
   38.7880   26.5320   39.9570 N   0  0  0  0  0  0  0  0  0  0  0  0
   39.1200   28.5620   39.7810 H   0  0  0  0  0  0  0  0  0  0  0  0
   36.6400   27.1470   43.0510 H   0  0  0  0  0  0  0  0  0  0  0  0
   38.4330   24.1500   40.1140 C   0  0  0  0  0  0  0  0  0  0  0  0
   39.2770   23.8860   39.0800 C   0  0  0  0  0  0  0  0  0  0  0  0
   39.4940   22.6150   38.5990 C   0  0  0  0  0  0  0  0  0  0  0  0
   38.8240   21.6120   39.2010 N   0  0  0  0  0  0  0  0  0  0  0  0
   38.0040   21.8780   40.2060 C   0  0  0  0  0  0  0  0  0  0  0  0
   37.7630   23.1040   40.7080 N   0  0  0  0  0  0  0  0  0  0  0  0
   39.8080   24.7080   38.6080 H   0  0  0  0  0  0  0  0  0  0  0  0
   40.1670   22.4370   37.7810 H   0  0  0  0  0  0  0  0  0  0  0  0
   37.5150   20.9990   40.6220 H   0  0  0  0  0  0  0  0  0  0  0  0
   37.6720   29.4110   41.9300 C   0  0  0  0  0  0  0  0  0  0  0  0
   38.5880   29.9500   42.5860 O   0  0  0  0  0  0  0  0  0  0  0  0
   36.6420   30.3020   41.8020 O   0  0  0  0  0  0  0  0  0  0  0  0
   36.0650   30.6370   40.6000 C   0  0  0  0  0  0  0  0  0  0  0  0
   35.0090   30.9550   40.6030 H   0  0  0  0  0  0  0  0  0  0  0  0
   36.0290   29.6760   40.0020 H   0  0  0  0  0  0  0  0  0  0  0  0
   36.9210   31.5470   39.7290 C   0  0  0  0  0  0  0  0  0  0  0  0
   36.3650   31.7020   38.7810 H   0  0  0  0  0  0  0  0  0  0  0  0
   37.8500   31.0050   39.4750 H   0  0  0  0  0  0  0  0  0  0  0  0
   38.6710   34.1920   41.1330 H   0  0  0  0  0  0  0  0  0  0  0  0
   38.4430   33.2210   40.6700 C   0  0  0  0  0  0  0  0  0  0  0  0
   39.3490   32.3860   40.4090 O   0  0  0  0  0  0  0  0  0  0  0  0
   37.1160   32.8290   40.3280 N   0  0  0  0  0  0  0  0  0  0  0  0
   36.3710   33.5310   40.5500 H   0  0  0  0  0  0  0  0  0  0  0  0
  1  2  1  0  0  0  0
  2 18  1  0  0  0  0
  2  3  2  0  0  0  0
  3  8  1  0  0  0  0
  4  3  1  0  0  0  0
  5  4  2  0  0  0  0
  6  1  2  0  0  0  0
  6  5  1  0  0  0  0
  7  1  1  0  0  0  0
  9  5  1  0  0  0  0
  9 14  1  0  0  0  0
 10  9  2  0  0  0  0
 11 10  1  0  0  0  0
 11 12  2  0  0  0  0
 12 13  1  0  0  0  0
 13 17  1  0  0  0  0
 13 14  2  0  0  0  0
 15 10  1  0  0  0  0
 16 11  1  0  0  0  0
 18 19  2  0  0  0  0
 20 18  1  0  0  0  0
 21 22  1  0  0  0  0
 21 20  1  0  0  0  0
 23 21  1  0  0  0  0
 24 30  1  0  0  0  0
 24 21  1  0  0  0  0
 25 24  1  0  0  0  0
 26 24  1  0  0  0  0
 28 27  1  0  0  0  0
 29 28  2  0  0  0  0
 30 31  1  0  0  0  0
 30 28  1  0  0  0  0
M  END
>  <minimizedAffinity>
-4.16865396

$$$$

 OpenBabel03252500523D

 31 32  0  0  0  0  0  0  0  0999 V2000
   35.6970   27.5730   38.2560 C   0  0  0  0  0  0  0  0  0  0  0  0
   34.7010   28.5100   38.3720 C   0  0  0  0  0  0  0  0  0  0  0  0
   34.4790   29.2030   39.5860 C   0  0  0  0  0  0  0  0  0  0  0  0
   35.3110   28.8890   40.6360 N   0  0  0  0  0  0  0  0  0  0  0  0
   36.2680   27.9810   40.5050 C   0  0  0  0  0  0  0  0  0  0  0  0
   36.4590   27.3350   39.3380 N   0  0  0  0  0  0  0  0  0  0  0  0
   35.9120   27.0210   37.3720 H   0  0  0  0  0  0  0  0  0  0  0  0
   33.6980   29.9450   39.6950 H   0  0  0  0  0  0  0  0  0  0  0  0
   37.1420   27.6600   41.6290 C   0  0  0  0  0  0  0  0  0  0  0  0
   38.1890   26.7980   41.5120 C   0  0  0  0  0  0  0  0  0  0  0  0
   39.0210   26.4860   42.5630 C   0  0  0  0  0  0  0  0  0  0  0  0
   38.7600   27.0780   43.7450 N   0  0  0  0  0  0  0  0  0  0  0  0
   37.7390   27.9160   43.8500 C   0  0  0  0  0  0  0  0  0  0  0  0
   36.9010   28.2490   42.8510 N   0  0  0  0  0  0  0  0  0  0  0  0
   38.3830   26.3310   40.5510 H   0  0  0  0  0  0  0  0  0  0  0  0
   39.8390   25.8010   42.4410 H   0  0  0  0  0  0  0  0  0  0  0  0
   37.6160   28.3390   44.8460 H   0  0  0  0  0  0  0  0  0  0  0  0
   33.8510   28.8000   37.2220 C   0  0  0  0  0  0  0  0  0  0  0  0
   34.3970   29.0790   36.1350 O   0  0  0  0  0  0  0  0  0  0  0  0
   32.4940   28.8400   37.0540 O   0  0  0  0  0  0  0  0  0  0  0  0
   31.8220   29.9030   36.4980 C   0  0  0  0  0  0  0  0  0  0  0  0
   32.1240   30.2350   35.4900 H   0  0  0  0  0  0  0  0  0  0  0  0
   32.0880   30.7980   37.1400 H   0  0  0  0  0  0  0  0  0  0  0  0
   30.3080   29.8250   36.6330 C   0  0  0  0  0  0  0  0  0  0  0  0
   29.9340   29.2710   35.7460 H   0  0  0  0  0  0  0  0  0  0  0  0
   29.9040   30.8500   36.5700 H   0  0  0  0  0  0  0  0  0  0  0  0
   28.9370   29.3020   39.7760 H   0  0  0  0  0  0  0  0  0  0  0  0
   29.2690   29.7970   38.8520 C   0  0  0  0  0  0  0  0  0  0  0  0
   29.0990   31.0320   38.6680 O   0  0  0  0  0  0  0  0  0  0  0  0
   29.9140   29.0920   37.7940 N   0  0  0  0  0  0  0  0  0  0  0  0
   30.0500   28.0660   37.9590 H   0  0  0  0  0  0  0  0  0  0  0  0
  1  2  2  0  0  0  0
  1  6  1  0  0  0  0
  2  3  1  0  0  0  0
  3  8  1  0  0  0  0
  3  4  2  0  0  0  0
  5  4  1  0  0  0  0
  5  9  1  0  0  0  0
  6  5  2  0  0  0  0
  7  1  1  0  0  0  0
  9 14  1  0  0  0  0
 10  9  2  0  0  0  0
 10 11  1  0  0  0  0
 11 12  2  0  0  0  0
 12 13  1  0  0  0  0
 13 17  1  0  0  0  0
 14 13  2  0  0  0  0
 15 10  1  0  0  0  0
 16 11  1  0  0  0  0
 18  2  1  0  0  0  0
 19 18  2  0  0  0  0
 20 18  1  0  0  0  0
 21 24  1  0  0  0  0
 21 20  1  0  0  0  0
 21 23  1  0  0  0  0
 22 21  1  0  0  0  0
 24 30  1  0  0  0  0
 25 24  1  0  0  0  0
 26 24  1  0  0  0  0
 28 27  1  0  0  0  0
 29 28  2  0  0  0  0
 30 31  1  0  0  0  0
 30 28  1  0  0  0  0
M  END
>  <minimizedAffinity>
-4.13814974

$$$$
