
 OpenBabel03252506493D

 25 26  0  0  0  0  0  0  0  0999 V2000
   37.8730   26.3700   42.7250 C   0  0  0  0  0  0  0  0  0  0  0  0
   37.2090   25.3400   42.0540 C   0  0  0  0  0  0  0  0  0  0  0  0
   37.9130   24.1500   41.7880 C   0  0  0  0  0  0  0  0  0  0  0  0
   39.1970   24.0730   42.1990 N   0  0  0  0  0  0  0  0  0  0  0  0
   39.8060   25.0880   42.8440 C   0  0  0  0  0  0  0  0  0  0  0  0
   39.1600   26.2550   43.1190 N   0  0  0  0  0  0  0  0  0  0  0  0
   36.1860   25.4230   41.7360 H   0  0  0  0  0  0  0  0  0  0  0  0
   37.3880   23.3740   41.2760 H   0  0  0  0  0  0  0  0  0  0  0  0
   43.2900   24.8870   43.1100 H   0  0  0  0  0  0  0  0  0  0  0  0
   42.3830   25.1410   42.5780 C   0  0  0  0  0  0  0  0  0  0  0  0
   42.1820   25.6470   41.4270 O   0  0  0  0  0  0  0  0  0  0  0  0
   41.1620   24.8880   43.2260 N   0  0  0  0  0  0  0  0  0  0  0  0
   41.1550   24.4660   44.1940 H   0  0  0  0  0  0  0  0  0  0  0  0
   36.9010   27.8480   43.0210 S   0  0  0  0  0  0  0  0  0  0  0  0
   35.5210   29.5100   40.6560 Cl  0  0  0  0  0  0  0  0  0  0  0  0
   37.0730   30.0600   41.2770 C   0  0  0  0  0  0  0  0  0  0  0  0
   37.5930   29.3010   42.2800 C   0  0  0  0  0  0  0  0  0  0  0  0
   38.8200   29.6830   42.8160 C   0  0  0  0  0  0  0  0  0  0  0  0
   39.4700   30.8110   42.3190 C   0  0  0  0  0  0  0  0  0  0  0  0
   38.9300   31.5830   41.2910 C   0  0  0  0  0  0  0  0  0  0  0  0
   37.7100   31.1800   40.7770 C   0  0  0  0  0  0  0  0  0  0  0  0
   36.9280   32.0670   39.4830 Cl  0  0  0  0  0  0  0  0  0  0  0  0
   39.3220   29.1690   43.5990 H   0  0  0  0  0  0  0  0  0  0  0  0
   40.4290   31.1310   42.7190 H   0  0  0  0  0  0  0  0  0  0  0  0
   39.3840   32.4520   40.8750 H   0  0  0  0  0  0  0  0  0  0  0  0
  1 14  1  0  0  0  0
  1  6  1  0  0  0  0
  2  1  2  0  0  0  0
  3  2  1  0  0  0  0
  3  4  2  0  0  0  0
  4  5  1  0  0  0  0
  5  6  2  0  0  0  0
  5 12  1  0  0  0  0
  7  2  1  0  0  0  0
  8  3  1  0  0  0  0
 10  9  1  0  0  0  0
 10 12  1  0  0  0  0
 11 10  2  0  0  0  0
 12 13  1  0  0  0  0
 15 16  1  0  0  0  0
 16 17  1  0  0  0  0
 17 18  2  0  0  0  0
 17 14  1  0  0  0  0
 18 23  1  0  0  0  0
 19 24  1  0  0  0  0
 19 18  1  0  0  0  0
 20 19  2  0  0  0  0
 21 16  2  0  0  0  0
 21 20  1  0  0  0  0
 22 21  1  0  0  0  0
 25 20  1  0  0  0  0
M  END
>  <minimizedAffinity>
-5.14545727

$$$$

 OpenBabel03252506493D

 25 26  0  0  0  0  0  0  0  0999 V2000
   37.8130   26.1640   42.6370 C   0  0  0  0  0  0  0  0  0  0  0  0
   37.2030   25.1750   41.8610 C   0  0  0  0  0  0  0  0  0  0  0  0
   37.9750   24.0720   41.4520 C   0  0  0  0  0  0  0  0  0  0  0  0
   39.2690   24.0320   41.8350 N   0  0  0  0  0  0  0  0  0  0  0  0
   39.8260   25.0050   42.5850 C   0  0  0  0  0  0  0  0  0  0  0  0
   39.1120   26.0880   43.0000 N   0  0  0  0  0  0  0  0  0  0  0  0
   36.1700   25.2270   41.5670 H   0  0  0  0  0  0  0  0  0  0  0  0
   37.4900   23.3260   40.8610 H   0  0  0  0  0  0  0  0  0  0  0  0
   43.3190   25.0020   42.7820 H   0  0  0  0  0  0  0  0  0  0  0  0
   42.3880   25.2550   42.2950 C   0  0  0  0  0  0  0  0  0  0  0  0
   42.1320   25.8750   41.2120 O   0  0  0  0  0  0  0  0  0  0  0  0
   41.1980   24.8520   42.9250 N   0  0  0  0  0  0  0  0  0  0  0  0
   41.2370   24.3230   43.8380 H   0  0  0  0  0  0  0  0  0  0  0  0
   36.7560   27.5320   43.1130 S   0  0  0  0  0  0  0  0  0  0  0  0
   38.8840   29.9260   43.0630 Cl  0  0  0  0  0  0  0  0  0  0  0  0
   37.6130   29.9030   41.8450 C   0  0  0  0  0  0  0  0  0  0  0  0
   36.7500   28.8550   41.9340 C   0  0  0  0  0  0  0  0  0  0  0  0
   35.7210   28.7780   40.9990 C   0  0  0  0  0  0  0  0  0  0  0  0
   35.6050   29.7600   40.0170 C   0  0  0  0  0  0  0  0  0  0  0  0
   36.4940   30.8310   39.9340 C   0  0  0  0  0  0  0  0  0  0  0  0
   37.5070   30.8830   40.8760 C   0  0  0  0  0  0  0  0  0  0  0  0
   38.6870   32.1780   40.8770 Cl  0  0  0  0  0  0  0  0  0  0  0  0
   34.9890   28.0080   40.9690 H   0  0  0  0  0  0  0  0  0  0  0  0
   34.8120   29.7240   39.2750 H   0  0  0  0  0  0  0  0  0  0  0  0
   36.4520   31.6070   39.2050 H   0  0  0  0  0  0  0  0  0  0  0  0
  1  6  1  0  0  0  0
  1 14  1  0  0  0  0
  2  1  2  0  0  0  0
  3  4  2  0  0  0  0
  3  2  1  0  0  0  0
  4  5  1  0  0  0  0
  5 12  1  0  0  0  0
  5  6  2  0  0  0  0
  7  2  1  0  0  0  0
  8  3  1  0  0  0  0
 10  9  1  0  0  0  0
 10 12  1  0  0  0  0
 11 10  2  0  0  0  0
 12 13  1  0  0  0  0
 16 17  1  0  0  0  0
 16 15  1  0  0  0  0
 17 14  1  0  0  0  0
 18 17  2  0  0  0  0
 19 18  1  0  0  0  0
 20 19  2  0  0  0  0
 20 21  1  0  0  0  0
 21 22  1  0  0  0  0
 21 16  2  0  0  0  0
 23 18  1  0  0  0  0
 24 19  1  0  0  0  0
 25 20  1  0  0  0  0
M  END
>  <minimizedAffinity>
-5.135221

$$$$

 OpenBabel03252506493D

 25 26  0  0  0  0  0  0  0  0999 V2000
   37.9950   31.4100   39.7500 C   0  0  0  0  0  0  0  0  0  0  0  0
   37.3060   32.6100   39.9480 C   0  0  0  0  0  0  0  0  0  0  0  0
   38.0470   33.8050   40.0110 C   0  0  0  0  0  0  0  0  0  0  0  0
   39.3880   33.7240   39.8770 N   0  0  0  0  0  0  0  0  0  0  0  0
   40.0190   32.5470   39.6870 C   0  0  0  0  0  0  0  0  0  0  0  0
   39.3380   31.3700   39.6210 N   0  0  0  0  0  0  0  0  0  0  0  0
   36.2370   32.6520   40.0520 H   0  0  0  0  0  0  0  0  0  0  0  0
   37.5020   34.7120   40.1610 H   0  0  0  0  0  0  0  0  0  0  0  0
   43.4920   32.5650   40.1200 H   0  0  0  0  0  0  0  0  0  0  0  0
   42.4800   32.5040   40.4960 C   0  0  0  0  0  0  0  0  0  0  0  0
   42.0150   32.3630   41.6740 O   0  0  0  0  0  0  0  0  0  0  0  0
   41.4350   32.5890   39.5600 N   0  0  0  0  0  0  0  0  0  0  0  0
   41.6540   32.7080   38.5350 H   0  0  0  0  0  0  0  0  0  0  0  0
   36.9730   29.9390   39.6820 S   0  0  0  0  0  0  0  0  0  0  0  0
   36.4520   26.7780   39.6780 Cl  0  0  0  0  0  0  0  0  0  0  0  0
   36.9630   27.5450   41.1770 C   0  0  0  0  0  0  0  0  0  0  0  0
   37.1630   28.8880   41.0970 C   0  0  0  0  0  0  0  0  0  0  0  0
   37.5690   29.5560   42.2490 C   0  0  0  0  0  0  0  0  0  0  0  0
   37.7550   28.8420   43.4320 C   0  0  0  0  0  0  0  0  0  0  0  0
   37.5470   27.4660   43.5050 C   0  0  0  0  0  0  0  0  0  0  0  0
   37.1440   26.8280   42.3450 C   0  0  0  0  0  0  0  0  0  0  0  0
   36.8510   25.1000   42.3080 Cl  0  0  0  0  0  0  0  0  0  0  0  0
   37.7550   30.6000   42.3080 H   0  0  0  0  0  0  0  0  0  0  0  0
   38.0720   29.3380   44.3460 H   0  0  0  0  0  0  0  0  0  0  0  0
   37.6750   26.8730   44.3810 H   0  0  0  0  0  0  0  0  0  0  0  0
  1  2  1  0  0  0  0
  2  3  2  0  0  0  0
  2  7  1  0  0  0  0
  3  8  1  0  0  0  0
  4  3  1  0  0  0  0
  5  4  2  0  0  0  0
  6  5  1  0  0  0  0
  6  1  2  0  0  0  0
  9 10  1  0  0  0  0
 10 11  2  0  0  0  0
 12  5  1  0  0  0  0
 12 10  1  0  0  0  0
 13 12  1  0  0  0  0
 14  1  1  0  0  0  0
 14 17  1  0  0  0  0
 15 16  1  0  0  0  0
 16 21  1  0  0  0  0
 17 16  2  0  0  0  0
 17 18  1  0  0  0  0
 18 23  1  0  0  0  0
 18 19  2  0  0  0  0
 19 20  1  0  0  0  0
 19 24  1  0  0  0  0
 20 25  1  0  0  0  0
 21 20  2  0  0  0  0
 22 21  1  0  0  0  0
M  END
>  <minimizedAffinity>
-5.08163452

$$$$

 OpenBabel03252506493D

 25 26  0  0  0  0  0  0  0  0999 V2000
   38.7440   32.2660   39.8410 C   0  0  0  0  0  0  0  0  0  0  0  0
   39.1680   33.4380   40.4740 C   0  0  0  0  0  0  0  0  0  0  0  0
   40.2320   34.1610   39.9020 C   0  0  0  0  0  0  0  0  0  0  0  0
   40.7850   33.6780   38.7690 N   0  0  0  0  0  0  0  0  0  0  0  0
   40.3500   32.5420   38.1860 C   0  0  0  0  0  0  0  0  0  0  0  0
   39.3240   31.8140   38.7080 N   0  0  0  0  0  0  0  0  0  0  0  0
   38.7120   33.8050   41.3750 H   0  0  0  0  0  0  0  0  0  0  0  0
   40.5400   35.0550   40.3990 H   0  0  0  0  0  0  0  0  0  0  0  0
   42.4290   31.1660   35.7310 H   0  0  0  0  0  0  0  0  0  0  0  0
   42.1300   31.3140   36.7590 C   0  0  0  0  0  0  0  0  0  0  0  0
   42.6050   30.8780   37.8580 O   0  0  0  0  0  0  0  0  0  0  0  0
   41.0130   32.1340   36.9960 N   0  0  0  0  0  0  0  0  0  0  0  0
   40.5020   32.5760   36.1850 H   0  0  0  0  0  0  0  0  0  0  0  0
   37.3840   31.4100   40.6380 S   0  0  0  0  0  0  0  0  0  0  0  0
   35.6200   28.7610   41.0010 Cl  0  0  0  0  0  0  0  0  0  0  0  0
   37.2110   28.8240   41.7540 C   0  0  0  0  0  0  0  0  0  0  0  0
   37.8960   29.9820   41.5520 C   0  0  0  0  0  0  0  0  0  0  0  0
   39.1620   30.0960   42.1210 C   0  0  0  0  0  0  0  0  0  0  0  0
   39.6810   29.0390   42.8680 C   0  0  0  0  0  0  0  0  0  0  0  0
   38.9720   27.8570   43.0690 C   0  0  0  0  0  0  0  0  0  0  0  0
   37.7160   27.7710   42.4920 C   0  0  0  0  0  0  0  0  0  0  0  0
   36.7250   26.3370   42.6720 Cl  0  0  0  0  0  0  0  0  0  0  0  0
   39.7890   30.9490   42.0330 H   0  0  0  0  0  0  0  0  0  0  0  0
   40.6670   29.1010   43.3230 H   0  0  0  0  0  0  0  0  0  0  0  0
   39.3210   27.0200   43.6290 H   0  0  0  0  0  0  0  0  0  0  0  0
  1  2  1  0  0  0  0
  1 14  1  0  0  0  0
  2  7  1  0  0  0  0
  3  8  1  0  0  0  0
  3  2  2  0  0  0  0
  4  3  1  0  0  0  0
  5  6  1  0  0  0  0
  5  4  2  0  0  0  0
  6  1  2  0  0  0  0
  9 10  1  0  0  0  0
 10 12  1  0  0  0  0
 10 11  2  0  0  0  0
 12  5  1  0  0  0  0
 13 12  1  0  0  0  0
 14 17  1  0  0  0  0
 15 16  1  0  0  0  0
 16 21  1  0  0  0  0
 17 16  2  0  0  0  0
 17 18  1  0  0  0  0
 18 19  2  0  0  0  0
 19 20  1  0  0  0  0
 19 24  1  0  0  0  0
 20 25  1  0  0  0  0
 21 22  1  0  0  0  0
 21 20  2  0  0  0  0
 23 18  1  0  0  0  0
M  END
>  <minimizedAffinity>
-5.07098913

$$$$

 OpenBabel03252506493D

 25 26  0  0  0  0  0  0  0  0999 V2000
   38.4520   31.0780   39.5300 C   0  0  0  0  0  0  0  0  0  0  0  0
   38.2270   31.9470   40.6000 C   0  0  0  0  0  0  0  0  0  0  0  0
   38.8760   33.1960   40.5980 C   0  0  0  0  0  0  0  0  0  0  0  0
   39.6850   33.4840   39.5550 N   0  0  0  0  0  0  0  0  0  0  0  0
   39.8790   32.6190   38.5390 C   0  0  0  0  0  0  0  0  0  0  0  0
   39.2700   31.4020   38.5050 N   0  0  0  0  0  0  0  0  0  0  0  0
   37.5780   31.6980   41.4200 H   0  0  0  0  0  0  0  0  0  0  0  0
   38.6890   33.8470   41.4240 H   0  0  0  0  0  0  0  0  0  0  0  0
   42.5600   33.3200   36.4020 H   0  0  0  0  0  0  0  0  0  0  0  0
   42.1400   32.9000   37.3050 C   0  0  0  0  0  0  0  0  0  0  0  0
   42.6690   32.2760   38.2820 O   0  0  0  0  0  0  0  0  0  0  0  0
   40.7550   33.0350   37.4980 N   0  0  0  0  0  0  0  0  0  0  0  0
   40.1680   33.5320   36.7750 H   0  0  0  0  0  0  0  0  0  0  0  0
   37.5850   29.5110   39.6150 S   0  0  0  0  0  0  0  0  0  0  0  0
   40.4000   28.6700   40.8920 Cl  0  0  0  0  0  0  0  0  0  0  0  0
   38.9270   28.3010   41.7830 C   0  0  0  0  0  0  0  0  0  0  0  0
   37.7740   28.6900   41.1740 C   0  0  0  0  0  0  0  0  0  0  0  0
   36.5730   28.4270   41.8270 C   0  0  0  0  0  0  0  0  0  0  0  0
   36.5850   27.7840   43.0630 C   0  0  0  0  0  0  0  0  0  0  0  0
   37.7700   27.3880   43.6800 C   0  0  0  0  0  0  0  0  0  0  0  0
   38.9500   27.6620   43.0080 C   0  0  0  0  0  0  0  0  0  0  0  0
   40.5060   27.2150   43.6790 Cl  0  0  0  0  0  0  0  0  0  0  0  0
   35.6130   28.6830   41.4500 H   0  0  0  0  0  0  0  0  0  0  0  0
   35.6610   27.5670   43.5940 H   0  0  0  0  0  0  0  0  0  0  0  0
   37.8370   26.8950   44.6220 H   0  0  0  0  0  0  0  0  0  0  0  0
  1 14  1  0  0  0  0
  1  2  1  0  0  0  0
  2  7  1  0  0  0  0
  3  2  2  0  0  0  0
  3  8  1  0  0  0  0
  4  3  1  0  0  0  0
  5  4  2  0  0  0  0
  6  5  1  0  0  0  0
  6  1  2  0  0  0  0
  9 10  1  0  0  0  0
 10 12  1  0  0  0  0
 10 11  2  0  0  0  0
 12  5  1  0  0  0  0
 13 12  1  0  0  0  0
 14 17  1  0  0  0  0
 15 16  1  0  0  0  0
 16 21  1  0  0  0  0
 17 16  2  0  0  0  0
 17 18  1  0  0  0  0
 18 19  2  0  0  0  0
 19 24  1  0  0  0  0
 19 20  1  0  0  0  0
 20 25  1  0  0  0  0
 21 22  1  0  0  0  0
 21 20  2  0  0  0  0
 23 18  1  0  0  0  0
M  END
>  <minimizedAffinity>
-4.94512367

$$$$

 OpenBabel03252506493D

 25 26  0  0  0  0  0  0  0  0999 V2000
   36.7210   27.7700   41.3770 C   0  0  0  0  0  0  0  0  0  0  0  0
   36.9110   28.0120   42.7400 C   0  0  0  0  0  0  0  0  0  0  0  0
   37.7970   27.1810   43.4510 C   0  0  0  0  0  0  0  0  0  0  0  0
   38.4160   26.1920   42.7720 N   0  0  0  0  0  0  0  0  0  0  0  0
   38.2090   25.9880   41.4550 C   0  0  0  0  0  0  0  0  0  0  0  0
   37.3600   26.7690   40.7320 N   0  0  0  0  0  0  0  0  0  0  0  0
   36.4070   28.8060   43.2610 H   0  0  0  0  0  0  0  0  0  0  0  0
   37.9290   27.3830   44.4920 H   0  0  0  0  0  0  0  0  0  0  0  0
   39.3530   22.9440   40.1620 H   0  0  0  0  0  0  0  0  0  0  0  0
   38.6170   23.5540   40.6670 C   0  0  0  0  0  0  0  0  0  0  0  0
   37.4720   23.2800   41.1560 O   0  0  0  0  0  0  0  0  0  0  0  0
   38.9190   24.9140   40.8500 N   0  0  0  0  0  0  0  0  0  0  0  0
   39.8360   25.3020   40.5000 H   0  0  0  0  0  0  0  0  0  0  0  0
   35.5770   28.8750   40.5500 S   0  0  0  0  0  0  0  0  0  0  0  0
   36.1710   29.2630   37.4260 Cl  0  0  0  0  0  0  0  0  0  0  0  0
   36.6510   30.5390   38.5400 C   0  0  0  0  0  0  0  0  0  0  0  0
   36.3640   30.2990   39.8480 C   0  0  0  0  0  0  0  0  0  0  0  0
   36.7170   31.2710   40.7800 C   0  0  0  0  0  0  0  0  0  0  0  0
   37.3440   32.4410   40.3550 C   0  0  0  0  0  0  0  0  0  0  0  0
   37.6350   32.6780   39.0130 C   0  0  0  0  0  0  0  0  0  0  0  0
   37.2730   31.6960   38.1070 C   0  0  0  0  0  0  0  0  0  0  0  0
   37.5830   31.8760   36.3920 Cl  0  0  0  0  0  0  0  0  0  0  0  0
   36.5450   31.1940   41.8260 H   0  0  0  0  0  0  0  0  0  0  0  0
   37.6310   33.2150   41.0620 H   0  0  0  0  0  0  0  0  0  0  0  0
   38.1110   33.5530   38.6340 H   0  0  0  0  0  0  0  0  0  0  0  0
  1  2  1  0  0  0  0
  2  7  1  0  0  0  0
  2  3  2  0  0  0  0
  3  8  1  0  0  0  0
  4  3  1  0  0  0  0
  5  4  2  0  0  0  0
  6  1  2  0  0  0  0
  6  5  1  0  0  0  0
  9 10  1  0  0  0  0
 10 12  1  0  0  0  0
 10 11  2  0  0  0  0
 12  5  1  0  0  0  0
 13 12  1  0  0  0  0
 14  1  1  0  0  0  0
 15 16  1  0  0  0  0
 16 17  1  0  0  0  0
 17 14  1  0  0  0  0
 17 18  2  0  0  0  0
 18 23  1  0  0  0  0
 19 18  1  0  0  0  0
 19 24  1  0  0  0  0
 20 19  2  0  0  0  0
 21 16  2  0  0  0  0
 21 20  1  0  0  0  0
 22 21  1  0  0  0  0
 25 20  1  0  0  0  0
M  END
>  <minimizedAffinity>
-4.91844702

$$$$

 OpenBabel03252506493D

 25 26  0  0  0  0  0  0  0  0999 V2000
   38.4300   26.6540   42.7260 C   0  0  0  0  0  0  0  0  0  0  0  0
   39.4240   26.4180   43.6800 C   0  0  0  0  0  0  0  0  0  0  0  0
   40.4080   25.4520   43.3970 C   0  0  0  0  0  0  0  0  0  0  0  0
   40.3350   24.8060   42.2140 N   0  0  0  0  0  0  0  0  0  0  0  0
   39.3610   25.0600   41.3170 C   0  0  0  0  0  0  0  0  0  0  0  0
   38.3910   25.9860   41.5530 N   0  0  0  0  0  0  0  0  0  0  0  0
   39.4630   26.9450   44.6160 H   0  0  0  0  0  0  0  0  0  0  0  0
   41.1600   25.2880   44.1380 H   0  0  0  0  0  0  0  0  0  0  0  0
   39.0040   22.7410   38.7200 H   0  0  0  0  0  0  0  0  0  0  0  0
   38.8200   23.0860   39.7280 C   0  0  0  0  0  0  0  0  0  0  0  0
   38.1590   22.5830   40.6950 O   0  0  0  0  0  0  0  0  0  0  0  0
   39.3900   24.3130   40.1060 N   0  0  0  0  0  0  0  0  0  0  0  0
   39.9710   24.8600   39.4150 H   0  0  0  0  0  0  0  0  0  0  0  0
   37.2190   27.9000   43.1690 S   0  0  0  0  0  0  0  0  0  0  0  0
   39.2670   30.3350   42.8030 Cl  0  0  0  0  0  0  0  0  0  0  0  0
   37.8730   30.2400   41.7330 C   0  0  0  0  0  0  0  0  0  0  0  0
   37.0520   29.1770   41.9520 C   0  0  0  0  0  0  0  0  0  0  0  0
   35.9300   29.0430   41.1390 C   0  0  0  0  0  0  0  0  0  0  0  0
   35.6830   29.9850   40.1410 C   0  0  0  0  0  0  0  0  0  0  0  0
   36.5300   31.0710   39.9240 C   0  0  0  0  0  0  0  0  0  0  0  0
   37.6380   31.1800   40.7470 C   0  0  0  0  0  0  0  0  0  0  0  0
   38.7770   32.4990   40.5740 Cl  0  0  0  0  0  0  0  0  0  0  0  0
   35.2190   28.2580   41.2160 H   0  0  0  0  0  0  0  0  0  0  0  0
   34.8150   29.9040   39.4920 H   0  0  0  0  0  0  0  0  0  0  0  0
   36.3890   31.8180   39.1770 H   0  0  0  0  0  0  0  0  0  0  0  0
  1 14  1  0  0  0  0
  1  2  1  0  0  0  0
  2  7  1  0  0  0  0
  3  2  2  0  0  0  0
  3  8  1  0  0  0  0
  4  3  1  0  0  0  0
  5  6  1  0  0  0  0
  5  4  2  0  0  0  0
  6  1  2  0  0  0  0
  9 10  1  0  0  0  0
 10 12  1  0  0  0  0
 10 11  2  0  0  0  0
 12  5  1  0  0  0  0
 13 12  1  0  0  0  0
 16 17  1  0  0  0  0
 16 15  1  0  0  0  0
 17 14  1  0  0  0  0
 18 23  1  0  0  0  0
 18 17  2  0  0  0  0
 19 18  1  0  0  0  0
 20 19  2  0  0  0  0
 20 21  1  0  0  0  0
 21 16  2  0  0  0  0
 22 21  1  0  0  0  0
 24 19  1  0  0  0  0
 25 20  1  0  0  0  0
M  END
>  <minimizedAffinity>
-4.88427925

$$$$

 OpenBabel03252506493D

 25 26  0  0  0  0  0  0  0  0999 V2000
   38.4840   30.6260   40.9230 C   0  0  0  0  0  0  0  0  0  0  0  0
   37.2150   31.1780   40.7280 C   0  0  0  0  0  0  0  0  0  0  0  0
   36.9000   31.7030   39.4600 C   0  0  0  0  0  0  0  0  0  0  0  0
   37.8470   31.6420   38.5000 N   0  0  0  0  0  0  0  0  0  0  0  0
   39.0620   31.1010   38.7240 C   0  0  0  0  0  0  0  0  0  0  0  0
   39.4050   30.5840   39.9360 N   0  0  0  0  0  0  0  0  0  0  0  0
   36.4760   31.2160   41.5080 H   0  0  0  0  0  0  0  0  0  0  0  0
   35.9250   32.1190   39.3320 H   0  0  0  0  0  0  0  0  0  0  0  0
   41.5150   31.7530   36.3160 H   0  0  0  0  0  0  0  0  0  0  0  0
   40.9440   32.0140   37.1960 C   0  0  0  0  0  0  0  0  0  0  0  0
   40.9690   33.0350   37.9580 O   0  0  0  0  0  0  0  0  0  0  0  0
   39.9750   31.0950   37.6330 N   0  0  0  0  0  0  0  0  0  0  0  0
   39.8280   30.1920   37.1070 H   0  0  0  0  0  0  0  0  0  0  0  0
   38.7990   29.9810   42.5660 S   0  0  0  0  0  0  0  0  0  0  0  0
   36.3780   27.9400   42.0820 Cl  0  0  0  0  0  0  0  0  0  0  0  0
   37.9780   27.2860   42.4150 C   0  0  0  0  0  0  0  0  0  0  0  0
   38.9510   28.2170   42.6080 C   0  0  0  0  0  0  0  0  0  0  0  0
   40.2400   27.7640   42.8750 C   0  0  0  0  0  0  0  0  0  0  0  0
   40.4930   26.3950   42.9370 C   0  0  0  0  0  0  0  0  0  0  0  0
   39.4900   25.4480   42.7380 C   0  0  0  0  0  0  0  0  0  0  0  0
   38.2170   25.9260   42.4740 C   0  0  0  0  0  0  0  0  0  0  0  0
   36.8710   24.8360   42.2050 Cl  0  0  0  0  0  0  0  0  0  0  0  0
   41.0790   28.3950   43.0440 H   0  0  0  0  0  0  0  0  0  0  0  0
   41.4900   26.0150   43.1440 H   0  0  0  0  0  0  0  0  0  0  0  0
   39.6280   24.3920   42.7730 H   0  0  0  0  0  0  0  0  0  0  0  0
  1 14  1  0  0  0  0
  2  1  1  0  0  0  0
  2  7  1  0  0  0  0
  3  2  2  0  0  0  0
  4  5  2  0  0  0  0
  4  3  1  0  0  0  0
  5  6  1  0  0  0  0
  6  1  2  0  0  0  0
  8  3  1  0  0  0  0
  9 10  1  0  0  0  0
 10 12  1  0  0  0  0
 10 11  2  0  0  0  0
 12  5  1  0  0  0  0
 13 12  1  0  0  0  0
 14 17  1  0  0  0  0
 15 16  1  0  0  0  0
 16 21  2  0  0  0  0
 16 17  1  0  0  0  0
 17 18  2  0  0  0  0
 18 19  1  0  0  0  0
 18 23  1  0  0  0  0
 19 24  1  0  0  0  0
 20 25  1  0  0  0  0
 20 19  2  0  0  0  0
 21 20  1  0  0  0  0
 22 21  1  0  0  0  0
M  END
>  <minimizedAffinity>
-4.88342047

$$$$

 OpenBabel03252506493D

 25 26  0  0  0  0  0  0  0  0999 V2000
   38.2500   31.9480   39.9670 C   0  0  0  0  0  0  0  0  0  0  0  0
   38.6850   33.0630   40.6890 C   0  0  0  0  0  0  0  0  0  0  0  0
   39.7990   33.7780   40.2100 C   0  0  0  0  0  0  0  0  0  0  0  0
   40.3860   33.3430   39.0750 N   0  0  0  0  0  0  0  0  0  0  0  0
   39.9390   32.2630   38.4040 C   0  0  0  0  0  0  0  0  0  0  0  0
   38.8650   31.5440   38.8350 N   0  0  0  0  0  0  0  0  0  0  0  0
   38.2010   33.3920   41.5910 H   0  0  0  0  0  0  0  0  0  0  0  0
   40.1150   34.6280   40.7750 H   0  0  0  0  0  0  0  0  0  0  0  0
   42.0790   30.9590   35.9620 H   0  0  0  0  0  0  0  0  0  0  0  0
   41.7380   31.0560   36.9830 C   0  0  0  0  0  0  0  0  0  0  0  0
   42.1460   30.5360   38.0730 O   0  0  0  0  0  0  0  0  0  0  0  0
   40.6410   31.9010   37.2210 N   0  0  0  0  0  0  0  0  0  0  0  0
   40.1840   32.4110   36.4180 H   0  0  0  0  0  0  0  0  0  0  0  0
   36.8250   31.0990   40.6490 S   0  0  0  0  0  0  0  0  0  0  0  0
   38.8190   30.0650   42.9330 Cl  0  0  0  0  0  0  0  0  0  0  0  0
   37.9630   28.8740   41.9600 C   0  0  0  0  0  0  0  0  0  0  0  0
   37.1360   29.3920   41.0130 C   0  0  0  0  0  0  0  0  0  0  0  0
   36.4290   28.5030   40.2090 C   0  0  0  0  0  0  0  0  0  0  0  0
   36.5860   27.1300   40.3940 C   0  0  0  0  0  0  0  0  0  0  0  0
   37.4350   26.6070   41.3670 C   0  0  0  0  0  0  0  0  0  0  0  0
   38.1260   27.5150   42.1520 C   0  0  0  0  0  0  0  0  0  0  0  0
   39.2250   26.9830   43.4100 Cl  0  0  0  0  0  0  0  0  0  0  0  0
   35.7560   28.7890   39.4380 H   0  0  0  0  0  0  0  0  0  0  0  0
   36.0450   26.4130   39.7800 H   0  0  0  0  0  0  0  0  0  0  0  0
   37.5920   25.5690   41.5510 H   0  0  0  0  0  0  0  0  0  0  0  0
  1 14  1  0  0  0  0
  1  2  1  0  0  0  0
  2  7  1  0  0  0  0
  3  2  2  0  0  0  0
  3  8  1  0  0  0  0
  4  3  1  0  0  0  0
  5  6  1  0  0  0  0
  5  4  2  0  0  0  0
  6  1  2  0  0  0  0
  9 10  1  0  0  0  0
 10 12  1  0  0  0  0
 10 11  2  0  0  0  0
 12  5  1  0  0  0  0
 13 12  1  0  0  0  0
 14 17  1  0  0  0  0
 16 21  1  0  0  0  0
 16 15  1  0  0  0  0
 17 16  2  0  0  0  0
 18 19  2  0  0  0  0
 18 17  1  0  0  0  0
 19 20  1  0  0  0  0
 20 25  1  0  0  0  0
 20 21  2  0  0  0  0
 21 22  1  0  0  0  0
 23 18  1  0  0  0  0
 24 19  1  0  0  0  0
M  END
>  <minimizedAffinity>
-4.85725832

$$$$
