
 OpenBabel03242514523D

 28 29  0  0  1  0  0  0  0  0999 V2000
   44.5780   33.5710   42.4670 N   0  0  0  0  0  0  0  0  0  0  0  0
   43.5530   32.7310   41.9140 C   0  0  0  0  0  0  0  0  0  0  0  0
   43.0220   33.1930   40.6100 C   0  0  0  0  0  0  0  0  0  0  0  0
   42.8750   34.5720   40.4420 N   0  0  0  0  0  0  0  0  0  0  0  0
   43.6520   35.4350   41.2220 C   0  0  0  0  0  0  0  0  0  0  0  0
   44.9150   34.7330   41.7030 C   0  0  2  0  0  0  0  0  0  0  0  0
   43.8730   31.6700   41.7890 H   0  0  0  0  0  0  0  0  0  0  0  0
   42.7290   32.6920   42.6620 H   0  0  0  0  0  0  0  0  0  0  0  0
   41.9960   32.7270   40.4880 H   0  0  0  0  0  0  0  0  0  0  0  0
   43.6120   32.7120   39.7780 H   0  0  0  0  0  0  0  0  0  0  0  0
   42.9550   34.8430   39.4350 H   0  0  0  0  0  0  0  0  0  0  0  0
   43.0780   35.6930   42.1390 H   0  0  0  0  0  0  0  0  0  0  0  0
   43.9370   36.3830   40.7480 H   0  0  0  0  0  0  0  0  0  0  0  0
   45.4750   35.4890   42.2620 H   0  0  0  0  0  0  0  0  0  0  0  0
   45.2630   34.1460   44.6870 C   0  0  0  0  0  0  0  0  0  0  0  0
   45.1580   33.1880   43.6870 C   0  0  0  0  0  0  0  0  0  0  0  0
   45.6440   31.9030   43.9630 C   0  0  0  0  0  0  0  0  0  0  0  0
   46.1930   31.6610   45.1930 N   0  0  0  0  0  0  0  0  0  0  0  0
   46.2750   32.6220   46.1340 C   0  0  0  0  0  0  0  0  0  0  0  0
   45.8120   33.8620   45.8850 N   0  0  0  0  0  0  0  0  0  0  0  0
   44.9470   35.1770   44.6640 H   0  0  0  0  0  0  0  0  0  0  0  0
   45.5630   31.1550   43.1860 H   0  0  0  0  0  0  0  0  0  0  0  0
   46.7370   32.2660   47.0550 H   0  0  0  0  0  0  0  0  0  0  0  0
   48.0190   34.1820   40.0780 H   0  0  0  0  0  0  0  0  0  0  0  0
   47.1440   34.3900   40.7140 C   0  0  0  0  0  0  0  0  0  0  0  0
   47.9750   34.6520   41.6490 O   0  0  0  0  0  0  0  0  0  0  0  0
   45.7130   34.3640   40.5240 N   0  0  0  0  0  0  0  0  0  0  0  0
   45.6670   34.0690   39.5310 H   0  0  0  0  0  0  0  0  0  0  0  0
  1 16  1  0  0  0  0
  2  1  1  0  0  0  0
  2  8  1  0  0  0  0
  3  2  1  0  0  0  0
  4  3  1  0  0  0  0
  4  5  1  0  0  0  0
  5  6  1  0  0  0  0
  5 12  1  0  0  0  0
  6 14  1  1  0  0  0
  6  1  1  0  0  0  0
  7  2  1  0  0  0  0
  9  3  1  0  0  0  0
 10  3  1  0  0  0  0
 11  4  1  0  0  0  0
 13  5  1  0  0  0  0
 15 20  1  0  0  0  0
 16 17  1  0  0  0  0
 16 15  2  0  0  0  0
 17 18  2  0  0  0  0
 18 19  1  0  0  0  0
 19 23  1  0  0  0  0
 20 19  2  0  0  0  0
 21 15  1  0  0  0  0
 22 17  1  0  0  0  0
 24 25  1  0  0  0  0
 25 26  2  0  0  0  0
 27 25  1  0  0  0  0
 27  6  1  0  0  0  0
 28 27  1  0  0  0  0
M  END
>  <minimizedAffinity>
-3.84330106

>  <minimizedRMSD>
1.36618328

$$$$
