
 OpenBabel03242512553D

 24 25  0  0  0  0  0  0  0  0999 V2000
   45.1180   33.5730   41.1380 F   0  0  0  0  0  0  0  0  0  0  0  0
   46.3440   34.1720   41.0630 C   0  0  0  0  0  0  0  0  0  0  0  0
   46.8920   34.8450   42.1260 C   0  0  0  0  0  0  0  0  0  0  0  0
   48.1250   35.4070   41.9400 C   0  0  0  0  0  0  0  0  0  0  0  0
   48.8340   35.3380   40.7700 C   0  0  0  0  0  0  0  0  0  0  0  0
   48.2450   34.6530   39.7300 C   0  0  0  0  0  0  0  0  0  0  0  0
   47.0090   34.0670   39.8570 C   0  0  0  0  0  0  0  0  0  0  0  0
   48.5570   35.9400   42.7840 H   0  0  0  0  0  0  0  0  0  0  0  0
   49.8090   35.8180   40.7190 H   0  0  0  0  0  0  0  0  0  0  0  0
   48.8030   34.5950   38.8000 H   0  0  0  0  0  0  0  0  0  0  0  0
   44.4560   35.9390   44.8180 C   0  0  0  0  0  0  0  0  0  0  0  0
   45.1870   35.9090   43.6200 C   0  0  0  0  0  0  0  0  0  0  0  0
   46.1140   34.9040   43.3660 C   0  0  0  0  0  0  0  0  0  0  0  0
   46.2540   33.9760   44.3450 N   0  0  0  0  0  0  0  0  0  0  0  0
   45.5520   34.0120   45.4860 C   0  0  0  0  0  0  0  0  0  0  0  0
   44.6650   34.9740   45.7280 N   0  0  0  0  0  0  0  0  0  0  0  0
   43.7640   36.7640   44.9090 H   0  0  0  0  0  0  0  0  0  0  0  0
   45.0760   36.6430   42.8450 H   0  0  0  0  0  0  0  0  0  0  0  0
   45.7800   33.2000   46.1640 H   0  0  0  0  0  0  0  0  0  0  0  0
   46.2880   32.8270   36.6660 H   0  0  0  0  0  0  0  0  0  0  0  0
   46.8040   33.3970   37.4090 C   0  0  0  0  0  0  0  0  0  0  0  0
   47.7670   34.0850   36.9550 O   0  0  0  0  0  0  0  0  0  0  0  0
   46.4090   33.3570   38.7650 N   0  0  0  0  0  0  0  0  0  0  0  0
   45.5870   32.7410   39.0100 H   0  0  0  0  0  0  0  0  0  0  0  0
  2  1  1  0  0  0  0
  2  3  1  0  0  0  0
  3 13  1  0  0  0  0
  4  3  2  0  0  0  0
  4  8  1  0  0  0  0
  5  4  1  0  0  0  0
  6  7  1  0  0  0  0
  6  5  2  0  0  0  0
  7  2  2  0  0  0  0
  9  5  1  0  0  0  0
 10  6  1  0  0  0  0
 11 17  1  0  0  0  0
 11 16  1  0  0  0  0
 12 11  2  0  0  0  0
 13 12  1  0  0  0  0
 13 14  2  0  0  0  0
 14 15  1  0  0  0  0
 15 16  2  0  0  0  0
 15 19  1  0  0  0  0
 18 12  1  0  0  0  0
 20 21  1  0  0  0  0
 21 23  1  0  0  0  0
 22 21  2  0  0  0  0
 23 24  1  0  0  0  0
 23  7  1  0  0  0  0
M  END
>  <minimizedAffinity>
-5.45749521

>  <minimizedRMSD>
0.522578359

$$$$
