
 OpenBabel03252502223D

 29 30  0  0  1  0  0  0  0  0999 V2000
   36.9220   30.6540   39.5770 N   0  0  0  0  0  0  0  0  0  0  0  0
   37.1420   29.9260   38.3320 C   0  0  0  0  0  0  0  0  0  0  0  0
   35.7270   29.6370   37.8080 C   0  0  0  0  0  0  0  0  0  0  0  0
   35.0250   28.6990   38.7300 C   0  0  0  0  0  0  0  0  0  0  0  0
   35.2220   28.9900   40.1660 C   0  0  0  0  0  0  0  0  0  0  0  0
   35.8770   30.3020   40.4940 C   0  0  1  0  0  0  0  0  0  0  0  0
   37.5780   28.9250   38.5260 H   0  0  0  0  0  0  0  0  0  0  0  0
   37.6940   30.5480   37.6280 H   0  0  0  0  0  0  0  0  0  0  0  0
   35.1420   30.5990   37.7840 H   0  0  0  0  0  0  0  0  0  0  0  0
   35.7660   29.2220   36.7870 H   0  0  0  0  0  0  0  0  0  0  0  0
   33.9620   28.6290   38.4010 H   0  0  0  0  0  0  0  0  0  0  0  0
   35.4460   27.6810   38.5140 H   0  0  0  0  0  0  0  0  0  0  0  0
   35.7670   28.1950   40.7170 H   0  0  0  0  0  0  0  0  0  0  0  0
   34.2010   28.9970   40.6400 H   0  0  0  0  0  0  0  0  0  0  0  0
   35.0860   31.0880   40.3960 H   0  0  0  0  0  0  0  0  0  0  0  0
   38.2410   34.1170   40.0510 C   0  0  0  0  0  0  0  0  0  0  0  0
   37.3510   33.0920   39.6910 C   0  0  0  0  0  0  0  0  0  0  0  0
   37.7630   31.7540   39.9140 C   0  0  0  0  0  0  0  0  0  0  0  0
   38.9900   31.5500   40.4600 N   0  0  0  0  0  0  0  0  0  0  0  0
   39.8180   32.5840   40.7920 C   0  0  0  0  0  0  0  0  0  0  0  0
   39.4290   33.8550   40.5810 N   0  0  0  0  0  0  0  0  0  0  0  0
   37.9730   35.1500   39.9010 H   0  0  0  0  0  0  0  0  0  0  0  0
   36.4000   33.2860   39.2670 H   0  0  0  0  0  0  0  0  0  0  0  0
   40.7450   32.2050   41.2110 H   0  0  0  0  0  0  0  0  0  0  0  0
   37.5500   29.1900   43.2700 H   0  0  0  0  0  0  0  0  0  0  0  0
   37.2080   29.1520   42.2250 C   0  0  0  0  0  0  0  0  0  0  0  0
   37.5290   28.2180   41.4560 O   0  0  0  0  0  0  0  0  0  0  0  0
   36.3800   30.2560   41.8490 N   0  0  0  0  0  0  0  0  0  0  0  0
   36.1160   31.0300   42.4940 H   0  0  0  0  0  0  0  0  0  0  0  0
  1 18  1  0  0  0  0
  1  6  1  0  0  0  0
  2  7  1  0  0  0  0
  2  1  1  0  0  0  0
  3  2  1  0  0  0  0
  3  4  1  0  0  0  0
  4  5  1  0  0  0  0
  5  6  1  0  0  0  0
  5 14  1  0  0  0  0
  5 13  1  0  0  0  0
  6 15  1  6  0  0  0
  6 28  1  0  0  0  0
  8  2  1  0  0  0  0
  9  3  1  0  0  0  0
 10  3  1  0  0  0  0
 11  4  1  0  0  0  0
 12  4  1  0  0  0  0
 16 21  1  0  0  0  0
 17 18  1  0  0  0  0
 17 16  2  0  0  0  0
 18 19  2  0  0  0  0
 19 20  1  0  0  0  0
 20 24  1  0  0  0  0
 21 20  2  0  0  0  0
 22 16  1  0  0  0  0
 23 17  1  0  0  0  0
 26 25  1  0  0  0  0
 27 26  2  0  0  0  0
 28 26  1  0  0  0  0
 28 29  1  0  0  0  0
M  END
>  <minimizedAffinity>
-4.52801943

$$$$

 OpenBabel03252502223D

 29 30  0  0  1  0  0  0  0  0999 V2000
   37.7910   29.6720   41.7450 N   0  0  0  0  0  0  0  0  0  0  0  0
   38.6800   29.6340   42.9010 C   0  0  0  0  0  0  0  0  0  0  0  0
   38.9280   28.1370   43.1390 C   0  0  0  0  0  0  0  0  0  0  0  0
   37.6600   27.4710   43.5570 C   0  0  0  0  0  0  0  0  0  0  0  0
   36.4660   27.8990   42.7950 C   0  0  0  0  0  0  0  0  0  0  0  0
   36.7210   28.7330   41.5720 C   0  0  1  0  0  0  0  0  0  0  0  0
   38.1590   29.9810   43.8170 H   0  0  0  0  0  0  0  0  0  0  0  0
   39.6140   30.1470   42.6720 H   0  0  0  0  0  0  0  0  0  0  0  0
   39.2640   27.6630   42.1750 H   0  0  0  0  0  0  0  0  0  0  0  0
   39.7130   27.9860   43.8990 H   0  0  0  0  0  0  0  0  0  0  0  0
   37.8420   26.3730   43.5760 H   0  0  0  0  0  0  0  0  0  0  0  0
   37.5080   27.7440   44.6350 H   0  0  0  0  0  0  0  0  0  0  0  0
   35.7040   28.4250   43.4080 H   0  0  0  0  0  0  0  0  0  0  0  0
   35.9420   26.9610   42.4590 H   0  0  0  0  0  0  0  0  0  0  0  0
   37.0410   28.0270   40.7640 H   0  0  0  0  0  0  0  0  0  0  0  0
   39.0410   31.5290   38.7530 C   0  0  0  0  0  0  0  0  0  0  0  0
   38.9230   30.4990   39.7000 C   0  0  0  0  0  0  0  0  0  0  0  0
   37.9750   30.6670   40.7420 C   0  0  0  0  0  0  0  0  0  0  0  0
   37.2430   31.8110   40.7550 N   0  0  0  0  0  0  0  0  0  0  0  0
   37.3970   32.7830   39.8070 C   0  0  0  0  0  0  0  0  0  0  0  0
   38.2960   32.6260   38.8190 N   0  0  0  0  0  0  0  0  0  0  0  0
   39.7460   31.4470   37.9430 H   0  0  0  0  0  0  0  0  0  0  0  0
   39.5100   29.6180   39.6600 H   0  0  0  0  0  0  0  0  0  0  0  0
   36.7200   33.6090   40.0010 H   0  0  0  0  0  0  0  0  0  0  0  0
   33.9830   29.6480   39.7260 H   0  0  0  0  0  0  0  0  0  0  0  0
   34.9060   29.0890   39.9380 C   0  0  0  0  0  0  0  0  0  0  0  0
   35.3730   28.2510   39.1320 O   0  0  0  0  0  0  0  0  0  0  0  0
   35.5010   29.4130   41.1980 N   0  0  0  0  0  0  0  0  0  0  0  0
   35.1070   30.1110   41.8630 H   0  0  0  0  0  0  0  0  0  0  0  0
  1  2  1  0  0  0  0
  2  3  1  0  0  0  0
  2  7  1  0  0  0  0
  3  4  1  0  0  0  0
  3 10  1  0  0  0  0
  4 11  1  0  0  0  0
  4 12  1  0  0  0  0
  5 13  1  0  0  0  0
  5  4  1  0  0  0  0
  6 15  1  6  0  0  0
  6  1  1  0  0  0  0
  6  5  1  0  0  0  0
  8  2  1  0  0  0  0
  9  3  1  0  0  0  0
 14  5  1  0  0  0  0
 16 21  2  0  0  0  0
 16 17  1  0  0  0  0
 17 18  2  0  0  0  0
 18 19  1  0  0  0  0
 18  1  1  0  0  0  0
 20 24  1  0  0  0  0
 20 19  2  0  0  0  0
 21 20  1  0  0  0  0
 22 16  1  0  0  0  0
 23 17  1  0  0  0  0
 25 26  1  0  0  0  0
 26 28  1  0  0  0  0
 27 26  2  0  0  0  0
 28  6  1  0  0  0  0
 28 29  1  0  0  0  0
M  END
>  <minimizedAffinity>
-4.47114563

$$$$

 OpenBabel03252502223D

 29 30  0  0  1  0  0  0  0  0999 V2000
   37.9740   30.7450   41.2840 N   0  0  0  0  0  0  0  0  0  0  0  0
   36.6810   31.2090   40.7930 C   0  0  0  0  0  0  0  0  0  0  0  0
   37.0220   32.0110   39.5290 C   0  0  0  0  0  0  0  0  0  0  0  0
   37.7990   33.2310   39.8940 C   0  0  0  0  0  0  0  0  0  0  0  0
   38.8440   33.0060   40.9160 C   0  0  0  0  0  0  0  0  0  0  0  0
   39.1440   31.5740   41.2560 C   0  0  1  0  0  0  0  0  0  0  0  0
   36.2340   31.9520   41.4850 H   0  0  0  0  0  0  0  0  0  0  0  0
   36.0460   30.3570   40.5490 H   0  0  0  0  0  0  0  0  0  0  0  0
   37.6680   31.3800   38.8570 H   0  0  0  0  0  0  0  0  0  0  0  0
   36.1050   32.2850   38.9800 H   0  0  0  0  0  0  0  0  0  0  0  0
   38.1530   33.7050   38.9500 H   0  0  0  0  0  0  0  0  0  0  0  0
   37.0520   33.9610   40.3050 H   0  0  0  0  0  0  0  0  0  0  0  0
   38.6670   33.5480   41.8690 H   0  0  0  0  0  0  0  0  0  0  0  0
   39.7930   33.4620   40.5170 H   0  0  0  0  0  0  0  0  0  0  0  0
   39.7970   31.1800   40.4360 H   0  0  0  0  0  0  0  0  0  0  0  0
   38.6660   27.0890   41.6170 C   0  0  0  0  0  0  0  0  0  0  0  0
   38.5720   28.3550   41.0170 C   0  0  0  0  0  0  0  0  0  0  0  0
   38.1010   29.4290   41.8140 C   0  0  0  0  0  0  0  0  0  0  0  0
   37.7730   29.1640   43.1050 N   0  0  0  0  0  0  0  0  0  0  0  0
   37.8830   27.9130   43.6410 C   0  0  0  0  0  0  0  0  0  0  0  0
   38.3290   26.8920   42.8860 N   0  0  0  0  0  0  0  0  0  0  0  0
   39.0180   26.2420   41.0520 H   0  0  0  0  0  0  0  0  0  0  0  0
   38.8370   28.5270   40.0050 H   0  0  0  0  0  0  0  0  0  0  0  0
   37.5710   27.9190   44.6810 H   0  0  0  0  0  0  0  0  0  0  0  0
   41.6620   31.0940   43.5300 H   0  0  0  0  0  0  0  0  0  0  0  0
   41.2060   31.1080   42.5290 C   0  0  0  0  0  0  0  0  0  0  0  0
   41.8490   30.7850   41.5040 O   0  0  0  0  0  0  0  0  0  0  0  0
   39.8380   31.5220   42.5240 N   0  0  0  0  0  0  0  0  0  0  0  0
   39.3090   31.7890   43.3800 H   0  0  0  0  0  0  0  0  0  0  0  0
  1 18  1  0  0  0  0
  2  1  1  0  0  0  0
  2  7  1  0  0  0  0
  3  4  1  0  0  0  0
  3  2  1  0  0  0  0
  4 12  1  0  0  0  0
  4  5  1  0  0  0  0
  5  6  1  0  0  0  0
  5 13  1  0  0  0  0
  6 15  1  6  0  0  0
  6  1  1  0  0  0  0
  6 28  1  0  0  0  0
  8  2  1  0  0  0  0
  9  3  1  0  0  0  0
 10  3  1  0  0  0  0
 11  4  1  0  0  0  0
 14  5  1  0  0  0  0
 16 21  1  0  0  0  0
 17 16  2  0  0  0  0
 17 18  1  0  0  0  0
 18 19  2  0  0  0  0
 19 20  1  0  0  0  0
 20 24  1  0  0  0  0
 21 20  2  0  0  0  0
 22 16  1  0  0  0  0
 23 17  1  0  0  0  0
 26 25  1  0  0  0  0
 27 26  2  0  0  0  0
 28 26  1  0  0  0  0
 28 29  1  0  0  0  0
M  END
>  <minimizedAffinity>
-4.29550123

$$$$

 OpenBabel03252502223D

 29 30  0  0  1  0  0  0  0  0999 V2000
   37.4030   27.9410   40.7590 N   0  0  0  0  0  0  0  0  0  0  0  0
   38.0530   26.6830   40.4050 C   0  0  0  0  0  0  0  0  0  0  0  0
   37.0620   25.6030   40.8650 C   0  0  0  0  0  0  0  0  0  0  0  0
   36.9480   25.6180   42.3520 C   0  0  0  0  0  0  0  0  0  0  0  0
   36.8760   26.9700   42.9460 C   0  0  0  0  0  0  0  0  0  0  0  0
   36.6800   28.1080   41.9860 C   0  0  1  0  0  0  0  0  0  0  0  0
   38.9590   26.5140   41.0220 H   0  0  0  0  0  0  0  0  0  0  0  0
   38.2050   26.6320   39.3270 H   0  0  0  0  0  0  0  0  0  0  0  0
   36.0460   25.8320   40.4390 H   0  0  0  0  0  0  0  0  0  0  0  0
   37.3770   24.6080   40.5100 H   0  0  0  0  0  0  0  0  0  0  0  0
   36.1190   24.9300   42.6370 H   0  0  0  0  0  0  0  0  0  0  0  0
   37.8720   25.1100   42.7380 H   0  0  0  0  0  0  0  0  0  0  0  0
   37.7400   27.2240   43.5960 H   0  0  0  0  0  0  0  0  0  0  0  0
   35.9980   26.9700   43.6500 H   0  0  0  0  0  0  0  0  0  0  0  0
   35.5930   28.1180   41.7190 H   0  0  0  0  0  0  0  0  0  0  0  0
   36.5500   30.5040   38.1780 C   0  0  0  0  0  0  0  0  0  0  0  0
   36.3930   29.3940   39.0240 C   0  0  0  0  0  0  0  0  0  0  0  0
   37.4780   29.0520   39.8700 C   0  0  0  0  0  0  0  0  0  0  0  0
   38.5960   29.8200   39.8090 N   0  0  0  0  0  0  0  0  0  0  0  0
   38.6980   30.8910   38.9680 C   0  0  0  0  0  0  0  0  0  0  0  0
   37.6700   31.2170   38.1630 N   0  0  0  0  0  0  0  0  0  0  0  0
   35.7540   30.8030   37.5170 H   0  0  0  0  0  0  0  0  0  0  0  0
   35.5050   28.8160   39.0460 H   0  0  0  0  0  0  0  0  0  0  0  0
   39.6680   31.3640   39.0750 H   0  0  0  0  0  0  0  0  0  0  0  0
   38.5630   30.4080   43.6900 H   0  0  0  0  0  0  0  0  0  0  0  0
   38.3550   29.4370   43.2180 C   0  0  0  0  0  0  0  0  0  0  0  0
   39.1990   28.5120   43.2060 O   0  0  0  0  0  0  0  0  0  0  0  0
   37.0530   29.3460   42.6340 N   0  0  0  0  0  0  0  0  0  0  0  0
   36.3560   30.1200   42.6470 H   0  0  0  0  0  0  0  0  0  0  0  0
  1  6  1  0  0  0  0
  2  1  1  0  0  0  0
  2  3  1  0  0  0  0
  2  7  1  0  0  0  0
  3  4  1  0  0  0  0
  4 11  1  0  0  0  0
  4 12  1  0  0  0  0
  4  5  1  0  0  0  0
  5 13  1  0  0  0  0
  5 14  1  0  0  0  0
  6 15  1  6  0  0  0
  6 28  1  0  0  0  0
  6  5  1  0  0  0  0
  8  2  1  0  0  0  0
  9  3  1  0  0  0  0
 10  3  1  0  0  0  0
 16 17  1  0  0  0  0
 17 23  1  0  0  0  0
 17 18  2  0  0  0  0
 18  1  1  0  0  0  0
 19 18  1  0  0  0  0
 20 24  1  0  0  0  0
 20 19  2  0  0  0  0
 21 16  2  0  0  0  0
 21 20  1  0  0  0  0
 22 16  1  0  0  0  0
 26 25  1  0  0  0  0
 27 26  2  0  0  0  0
 28 29  1  0  0  0  0
 28 26  1  0  0  0  0
M  END
>  <minimizedAffinity>
-4.21394682

$$$$

 OpenBabel03252502223D

 29 30  0  0  1  0  0  0  0  0999 V2000
   36.7240   27.1870   40.4200 N   0  0  0  0  0  0  0  0  0  0  0  0
   36.0340   27.0660   39.1390 C   0  0  0  0  0  0  0  0  0  0  0  0
   36.2040   28.4460   38.4860 C   0  0  0  0  0  0  0  0  0  0  0  0
   35.4630   29.4750   39.2710 C   0  0  0  0  0  0  0  0  0  0  0  0
   35.6020   29.3430   40.7380 C   0  0  0  0  0  0  0  0  0  0  0  0
   36.6430   28.3740   41.2210 C   0  0  1  0  0  0  0  0  0  0  0  0
   34.9400   26.9570   39.2830 H   0  0  0  0  0  0  0  0  0  0  0  0
   36.5050   26.2930   38.5330 H   0  0  0  0  0  0  0  0  0  0  0  0
   37.2940   28.7250   38.4960 H   0  0  0  0  0  0  0  0  0  0  0  0
   35.8540   28.4290   37.4410 H   0  0  0  0  0  0  0  0  0  0  0  0
   35.7270   30.4750   38.8580 H   0  0  0  0  0  0  0  0  0  0  0  0
   34.3800   29.3450   39.0060 H   0  0  0  0  0  0  0  0  0  0  0  0
   34.6530   29.1060   41.2620 H   0  0  0  0  0  0  0  0  0  0  0  0
   35.8820   30.3600   41.1310 H   0  0  0  0  0  0  0  0  0  0  0  0
   37.6310   28.8920   41.1280 H   0  0  0  0  0  0  0  0  0  0  0  0
   37.8050   23.7870   41.5280 C   0  0  0  0  0  0  0  0  0  0  0  0
   36.9640   24.7990   41.0380 C   0  0  0  0  0  0  0  0  0  0  0  0
   37.5070   26.1030   40.9080 C   0  0  0  0  0  0  0  0  0  0  0  0
   38.8050   26.2880   41.2660 N   0  0  0  0  0  0  0  0  0  0  0  0
   39.5800   25.2670   41.7390 C   0  0  0  0  0  0  0  0  0  0  0  0
   39.0670   24.0300   41.8630 N   0  0  0  0  0  0  0  0  0  0  0  0
   37.4380   22.7820   41.6440 H   0  0  0  0  0  0  0  0  0  0  0  0
   35.9550   24.6210   40.7670 H   0  0  0  0  0  0  0  0  0  0  0  0
   40.5790   25.6270   41.9650 H   0  0  0  0  0  0  0  0  0  0  0  0
   37.0130   28.2140   44.6240 H   0  0  0  0  0  0  0  0  0  0  0  0
   37.2860   28.5100   43.6000 C   0  0  0  0  0  0  0  0  0  0  0  0
   38.3040   29.1970   43.3580 O   0  0  0  0  0  0  0  0  0  0  0  0
   36.3760   28.0390   42.6030 N   0  0  0  0  0  0  0  0  0  0  0  0
   35.5300   27.4680   42.8110 H   0  0  0  0  0  0  0  0  0  0  0  0
  1 18  1  0  0  0  0
  1  6  1  0  0  0  0
  2  7  1  0  0  0  0
  2  1  1  0  0  0  0
  3  9  1  0  0  0  0
  3  2  1  0  0  0  0
  3  4  1  0  0  0  0
  4  5  1  0  0  0  0
  5 14  1  0  0  0  0
  5  6  1  0  0  0  0
  5 13  1  0  0  0  0
  6 15  1  6  0  0  0
  6 28  1  0  0  0  0
  8  2  1  0  0  0  0
 10  3  1  0  0  0  0
 11  4  1  0  0  0  0
 12  4  1  0  0  0  0
 16 22  1  0  0  0  0
 16 21  1  0  0  0  0
 17 16  2  0  0  0  0
 18 17  1  0  0  0  0
 18 19  2  0  0  0  0
 19 20  1  0  0  0  0
 20 21  2  0  0  0  0
 20 24  1  0  0  0  0
 23 17  1  0  0  0  0
 26 25  1  0  0  0  0
 27 26  2  0  0  0  0
 28 29  1  0  0  0  0
 28 26  1  0  0  0  0
M  END
>  <minimizedAffinity>
-4.1560297

$$$$

 OpenBabel03252502223D

 29 30  0  0  1  0  0  0  0  0999 V2000
   39.3660   31.5270   40.8560 N   0  0  0  0  0  0  0  0  0  0  0  0
   40.6890   31.4480   40.2450 C   0  0  0  0  0  0  0  0  0  0  0  0
   41.3950   32.7320   40.7040 C   0  0  0  0  0  0  0  0  0  0  0  0
   40.7230   33.9230   40.1080 C   0  0  0  0  0  0  0  0  0  0  0  0
   39.2450   33.8610   40.1230 C   0  0  0  0  0  0  0  0  0  0  0  0
   38.6340   32.7570   40.9370 C   0  0  1  0  0  0  0  0  0  0  0  0
   40.6250   31.5420   39.1410 H   0  0  0  0  0  0  0  0  0  0  0  0
   41.2170   30.5670   40.6090 H   0  0  0  0  0  0  0  0  0  0  0  0
   41.3140   32.8150   41.8240 H   0  0  0  0  0  0  0  0  0  0  0  0
   42.4620   32.7110   40.4280 H   0  0  0  0  0  0  0  0  0  0  0  0
   41.1640   34.8330   40.5760 H   0  0  0  0  0  0  0  0  0  0  0  0
   41.0650   33.9690   39.0400 H   0  0  0  0  0  0  0  0  0  0  0  0
   38.7850   33.8290   39.1130 H   0  0  0  0  0  0  0  0  0  0  0  0
   38.8830   34.8360   40.5540 H   0  0  0  0  0  0  0  0  0  0  0  0
   38.6760   33.0860   42.0060 H   0  0  0  0  0  0  0  0  0  0  0  0
   38.2290   28.8750   43.2300 C   0  0  0  0  0  0  0  0  0  0  0  0
   38.8500   30.0510   42.7800 C   0  0  0  0  0  0  0  0  0  0  0  0
   38.7640   30.3540   41.3970 C   0  0  0  0  0  0  0  0  0  0  0  0
   38.0860   29.4890   40.5990 N   0  0  0  0  0  0  0  0  0  0  0  0
   37.4990   28.3570   41.0890 C   0  0  0  0  0  0  0  0  0  0  0  0
   37.5800   28.0670   42.4000 N   0  0  0  0  0  0  0  0  0  0  0  0
   38.2670   28.6030   44.2710 H   0  0  0  0  0  0  0  0  0  0  0  0
   39.3710   30.7060   43.4300 H   0  0  0  0  0  0  0  0  0  0  0  0
   37.0130   27.8080   40.2880 H   0  0  0  0  0  0  0  0  0  0  0  0
   35.9390   32.1810   38.8990 H   0  0  0  0  0  0  0  0  0  0  0  0
   37.0050   32.3180   39.1350 C   0  0  0  0  0  0  0  0  0  0  0  0
   37.8920   32.2600   38.2530 O   0  0  0  0  0  0  0  0  0  0  0  0
   37.2620   32.5630   40.5200 N   0  0  0  0  0  0  0  0  0  0  0  0
   36.5200   32.6100   41.2490 H   0  0  0  0  0  0  0  0  0  0  0  0
  1  6  1  0  0  0  0
  1 18  1  0  0  0  0
  2  8  1  0  0  0  0
  2  3  1  0  0  0  0
  2  1  1  0  0  0  0
  3  9  1  0  0  0  0
  4  5  1  0  0  0  0
  4 11  1  0  0  0  0
  4  3  1  0  0  0  0
  5 14  1  0  0  0  0
  5  6  1  0  0  0  0
  6 15  1  1  0  0  0
  7  2  1  0  0  0  0
 10  3  1  0  0  0  0
 12  4  1  0  0  0  0
 13  5  1  0  0  0  0
 16 22  1  0  0  0  0
 17 16  1  0  0  0  0
 17 23  1  0  0  0  0
 18 17  2  0  0  0  0
 19 20  2  0  0  0  0
 19 18  1  0  0  0  0
 20 21  1  0  0  0  0
 21 16  2  0  0  0  0
 24 20  1  0  0  0  0
 25 26  1  0  0  0  0
 26 28  1  0  0  0  0
 27 26  2  0  0  0  0
 28  6  1  0  0  0  0
 28 29  1  0  0  0  0
M  END
>  <minimizedAffinity>
-4.13544798

$$$$

 OpenBabel03252502223D

 29 30  0  0  1  0  0  0  0  0999 V2000
   38.7500   28.7010   42.1680 N   0  0  0  0  0  0  0  0  0  0  0  0
   39.3030   27.5880   42.9320 C   0  0  0  0  0  0  0  0  0  0  0  0
   38.5710   26.3530   42.3830 C   0  0  0  0  0  0  0  0  0  0  0  0
   37.1220   26.4260   42.7270 C   0  0  0  0  0  0  0  0  0  0  0  0
   36.5190   27.7650   42.5540 C   0  0  0  0  0  0  0  0  0  0  0  0
   37.3570   28.7830   41.8360 C   0  0  1  0  0  0  0  0  0  0  0  0
   38.9980   27.6430   43.9970 H   0  0  0  0  0  0  0  0  0  0  0  0
   40.3750   27.5100   42.7550 H   0  0  0  0  0  0  0  0  0  0  0  0
   38.6590   26.3440   41.2600 H   0  0  0  0  0  0  0  0  0  0  0  0
   39.0180   25.4260   42.7780 H   0  0  0  0  0  0  0  0  0  0  0  0
   36.6030   25.5980   42.1920 H   0  0  0  0  0  0  0  0  0  0  0  0
   37.0480   26.1410   43.8100 H   0  0  0  0  0  0  0  0  0  0  0  0
   36.1650   28.2260   43.4990 H   0  0  0  0  0  0  0  0  0  0  0  0
   35.5770   27.6220   41.9530 H   0  0  0  0  0  0  0  0  0  0  0  0
   37.2740   28.5540   40.7430 H   0  0  0  0  0  0  0  0  0  0  0  0
   41.3100   31.4220   42.1060 C   0  0  0  0  0  0  0  0  0  0  0  0
   40.5040   30.3930   42.6200 C   0  0  0  0  0  0  0  0  0  0  0  0
   39.6040   29.7540   41.7300 C   0  0  0  0  0  0  0  0  0  0  0  0
   39.5800   30.1770   40.4390 N   0  0  0  0  0  0  0  0  0  0  0  0
   40.3870   31.1840   39.9900 C   0  0  0  0  0  0  0  0  0  0  0  0
   41.2410   31.7920   40.8330 N   0  0  0  0  0  0  0  0  0  0  0  0
   42.0100   31.9360   42.7430 H   0  0  0  0  0  0  0  0  0  0  0  0
   40.5480   30.0860   43.6330 H   0  0  0  0  0  0  0  0  0  0  0  0
   40.2100   31.3650   38.9340 H   0  0  0  0  0  0  0  0  0  0  0  0
   35.7970   31.7980   41.3610 H   0  0  0  0  0  0  0  0  0  0  0  0
   36.1580   30.8000   41.0690 C   0  0  0  0  0  0  0  0  0  0  0  0
   35.9740   30.3380   39.9200 O   0  0  0  0  0  0  0  0  0  0  0  0
   36.8420   30.1060   42.1160 N   0  0  0  0  0  0  0  0  0  0  0  0
   36.9920   30.4950   43.0700 H   0  0  0  0  0  0  0  0  0  0  0  0
  1  2  1  0  0  0  0
  2  7  1  0  0  0  0
  3  4  1  0  0  0  0
  3 10  1  0  0  0  0
  3  2  1  0  0  0  0
  4 12  1  0  0  0  0
  5  4  1  0  0  0  0
  5 13  1  0  0  0  0
  6 15  1  6  0  0  0
  6 28  1  0  0  0  0
  6  1  1  0  0  0  0
  6  5  1  0  0  0  0
  8  2  1  0  0  0  0
  9  3  1  0  0  0  0
 11  4  1  0  0  0  0
 14  5  1  0  0  0  0
 16 17  1  0  0  0  0
 16 22  1  0  0  0  0
 17 23  1  0  0  0  0
 18  1  1  0  0  0  0
 18 17  2  0  0  0  0
 19 18  1  0  0  0  0
 20 19  2  0  0  0  0
 20 21  1  0  0  0  0
 21 16  2  0  0  0  0
 24 20  1  0  0  0  0
 26 25  1  0  0  0  0
 26 28  1  0  0  0  0
 27 26  2  0  0  0  0
 28 29  1  0  0  0  0
M  END
>  <minimizedAffinity>
-4.0912118

$$$$

 OpenBabel03252502223D

 29 30  0  0  1  0  0  0  0  0999 V2000
   38.1180   30.6140   41.0700 N   0  0  0  0  0  0  0  0  0  0  0  0
   39.3600   31.0880   40.4680 C   0  0  0  0  0  0  0  0  0  0  0  0
   39.3240   32.6090   40.6780 C   0  0  0  0  0  0  0  0  0  0  0  0
   38.2120   33.2070   39.8830 C   0  0  0  0  0  0  0  0  0  0  0  0
   36.9500   32.4380   39.9240 C   0  0  0  0  0  0  0  0  0  0  0  0
   36.8810   31.3270   40.9330 C   0  0  1  0  0  0  0  0  0  0  0  0
   39.3460   30.9570   39.3670 H   0  0  0  0  0  0  0  0  0  0  0  0
   40.2150   30.6490   40.9810 H   0  0  0  0  0  0  0  0  0  0  0  0
   39.1250   32.8250   41.7650 H   0  0  0  0  0  0  0  0  0  0  0  0
   40.2890   33.0650   40.3990 H   0  0  0  0  0  0  0  0  0  0  0  0
   38.1250   34.2790   40.1720 H   0  0  0  0  0  0  0  0  0  0  0  0
   38.5740   33.2370   38.8210 H   0  0  0  0  0  0  0  0  0  0  0  0
   36.6430   32.0200   38.9420 H   0  0  0  0  0  0  0  0  0  0  0  0
   36.1310   33.1700   40.1740 H   0  0  0  0  0  0  0  0  0  0  0  0
   36.6760   31.8060   41.9230 H   0  0  0  0  0  0  0  0  0  0  0  0
   38.8310   27.1350   42.2290 C   0  0  0  0  0  0  0  0  0  0  0  0
   38.8970   28.2890   41.4320 C   0  0  0  0  0  0  0  0  0  0  0  0
   38.1110   29.4040   41.8220 C   0  0  0  0  0  0  0  0  0  0  0  0
   37.3480   29.2830   42.9390 N   0  0  0  0  0  0  0  0  0  0  0  0
   37.3210   28.1360   43.6800 C   0  0  0  0  0  0  0  0  0  0  0  0
   38.0650   27.0770   43.3120 N   0  0  0  0  0  0  0  0  0  0  0  0
   39.4100   26.2630   41.9740 H   0  0  0  0  0  0  0  0  0  0  0  0
   39.5040   28.3500   40.5660 H   0  0  0  0  0  0  0  0  0  0  0  0
   36.6500   28.2490   44.5260 H   0  0  0  0  0  0  0  0  0  0  0  0
   34.9790   29.1670   39.0730 H   0  0  0  0  0  0  0  0  0  0  0  0
   35.8270   29.8390   39.2690 C   0  0  0  0  0  0  0  0  0  0  0  0
   36.7130   30.0560   38.4120 O   0  0  0  0  0  0  0  0  0  0  0  0
   35.8090   30.4250   40.5740 N   0  0  0  0  0  0  0  0  0  0  0  0
   35.0680   30.2410   41.2820 H   0  0  0  0  0  0  0  0  0  0  0  0
  1 18  1  0  0  0  0
  2  3  1  0  0  0  0
  2  8  1  0  0  0  0
  2  1  1  0  0  0  0
  3  9  1  0  0  0  0
  4  5  1  0  0  0  0
  4 11  1  0  0  0  0
  4  3  1  0  0  0  0
  5 14  1  0  0  0  0
  5  6  1  0  0  0  0
  6  1  1  0  0  0  0
  6 15  1  1  0  0  0
  7  2  1  0  0  0  0
 10  3  1  0  0  0  0
 12  4  1  0  0  0  0
 13  5  1  0  0  0  0
 16 21  1  0  0  0  0
 17 18  1  0  0  0  0
 17 16  2  0  0  0  0
 18 19  2  0  0  0  0
 19 20  1  0  0  0  0
 20 24  1  0  0  0  0
 21 20  2  0  0  0  0
 22 16  1  0  0  0  0
 23 17  1  0  0  0  0
 25 26  1  0  0  0  0
 26 28  1  0  0  0  0
 27 26  2  0  0  0  0
 28  6  1  0  0  0  0
 28 29  1  0  0  0  0
M  END
>  <minimizedAffinity>
-4.08746338

$$$$

 OpenBabel03252502223D

 29 30  0  0  1  0  0  0  0  0999 V2000
   36.1500   28.1230   39.7500 N   0  0  0  0  0  0  0  0  0  0  0  0
   37.3090   27.2380   39.7030 C   0  0  0  0  0  0  0  0  0  0  0  0
   37.1280   26.3140   40.9160 C   0  0  0  0  0  0  0  0  0  0  0  0
   37.2470   27.1010   42.1770 C   0  0  0  0  0  0  0  0  0  0  0  0
   36.5550   28.4080   42.1500 C   0  0  0  0  0  0  0  0  0  0  0  0
   35.6410   28.6510   40.9820 C   0  0  1  0  0  0  0  0  0  0  0  0
   38.2460   27.7940   39.9110 H   0  0  0  0  0  0  0  0  0  0  0  0
   37.3030   26.6630   38.7770 H   0  0  0  0  0  0  0  0  0  0  0  0
   36.0960   25.8660   40.8860 H   0  0  0  0  0  0  0  0  0  0  0  0
   37.8680   25.4960   40.8980 H   0  0  0  0  0  0  0  0  0  0  0  0
   36.9660   26.4330   43.0240 H   0  0  0  0  0  0  0  0  0  0  0  0
   38.3440   27.2840   42.3250 H   0  0  0  0  0  0  0  0  0  0  0  0
   37.2360   29.2810   42.2310 H   0  0  0  0  0  0  0  0  0  0  0  0
   35.9280   28.4640   43.0830 H   0  0  0  0  0  0  0  0  0  0  0  0
   34.6910   28.1000   41.1990 H   0  0  0  0  0  0  0  0  0  0  0  0
   35.4830   29.1080   36.2080 C   0  0  0  0  0  0  0  0  0  0  0  0
   36.2140   28.7530   37.3530 C   0  0  0  0  0  0  0  0  0  0  0  0
   35.4880   28.4890   38.5430 C   0  0  0  0  0  0  0  0  0  0  0  0
   34.1340   28.5950   38.4960 N   0  0  0  0  0  0  0  0  0  0  0  0
   33.4710   28.9440   37.3540 C   0  0  0  0  0  0  0  0  0  0  0  0
   34.1580   29.1960   36.2250 N   0  0  0  0  0  0  0  0  0  0  0  0
   35.9900   29.3180   35.2810 H   0  0  0  0  0  0  0  0  0  0  0  0
   37.2710   28.6790   37.3550 H   0  0  0  0  0  0  0  0  0  0  0  0
   32.4010   28.9710   37.5330 H   0  0  0  0  0  0  0  0  0  0  0  0
   36.2380   32.0150   40.7180 H   0  0  0  0  0  0  0  0  0  0  0  0
   36.5120   30.9540   40.8070 C   0  0  0  0  0  0  0  0  0  0  0  0
   37.7060   30.5790   40.8520 O   0  0  0  0  0  0  0  0  0  0  0  0
   35.3890   30.0700   40.8640 N   0  0  0  0  0  0  0  0  0  0  0  0
   34.3980   30.3880   40.8260 H   0  0  0  0  0  0  0  0  0  0  0  0
  1  6  1  0  0  0  0
  2  1  1  0  0  0  0
  2  7  1  0  0  0  0
  2  3  1  0  0  0  0
  3  4  1  0  0  0  0
  4 12  1  0  0  0  0
  4 11  1  0  0  0  0
  5  4  1  0  0  0  0
  5 13  1  0  0  0  0
  5 14  1  0  0  0  0
  6 15  1  1  0  0  0
  6  5  1  0  0  0  0
  8  2  1  0  0  0  0
  9  3  1  0  0  0  0
 10  3  1  0  0  0  0
 16 21  2  0  0  0  0
 16 17  1  0  0  0  0
 17 23  1  0  0  0  0
 17 18  2  0  0  0  0
 18  1  1  0  0  0  0
 19 18  1  0  0  0  0
 20 24  1  0  0  0  0
 20 19  2  0  0  0  0
 21 20  1  0  0  0  0
 22 16  1  0  0  0  0
 25 26  1  0  0  0  0
 26 27  2  0  0  0  0
 26 28  1  0  0  0  0
 28  6  1  0  0  0  0
 29 28  1  0  0  0  0
M  END
>  <minimizedAffinity>
-4.05065823

$$$$
