
 OpenBabel03242522013D

 28 29  0  0  1  0  0  0  0  0999 V2000
   38.3820   30.8280   39.1290 N   0  0  0  0  0  0  0  0  0  0  0  0
   37.3880   31.5270   38.3360 C   0  0  0  0  0  0  0  0  0  0  0  0
   37.8150   31.7150   36.9120 C   0  0  0  0  0  0  0  0  0  0  0  0
   39.1220   32.2820   36.7670 N   0  0  0  0  0  0  0  0  0  0  0  0
   40.0890   31.8980   37.7140 C   0  0  2  0  0  0  0  0  0  0  0  0
   39.7290   30.8250   38.6750 C   0  0  0  0  0  0  0  0  0  0  0  0
   37.0500   32.4580   38.8280 H   0  0  0  0  0  0  0  0  0  0  0  0
   36.4950   30.8430   38.3350 H   0  0  0  0  0  0  0  0  0  0  0  0
   37.7980   30.7080   36.4140 H   0  0  0  0  0  0  0  0  0  0  0  0
   37.0630   32.3540   36.4190 H   0  0  0  0  0  0  0  0  0  0  0  0
   39.1090   33.3030   36.5480 H   0  0  0  0  0  0  0  0  0  0  0  0
   41.0110   31.5520   37.1820 H   0  0  0  0  0  0  0  0  0  0  0  0
   40.4380   30.8380   39.5280 H   0  0  0  0  0  0  0  0  0  0  0  0
   39.9030   29.8410   38.1580 H   0  0  0  0  0  0  0  0  0  0  0  0
   36.6380   28.7300   41.7040 C   0  0  0  0  0  0  0  0  0  0  0  0
   36.9000   29.3320   40.4660 C   0  0  0  0  0  0  0  0  0  0  0  0
   38.0170   30.1680   40.3260 C   0  0  0  0  0  0  0  0  0  0  0  0
   38.7850   30.3360   41.4360 N   0  0  0  0  0  0  0  0  0  0  0  0
   38.5230   29.7490   42.6280 C   0  0  0  0  0  0  0  0  0  0  0  0
   37.4470   28.9470   42.7520 N   0  0  0  0  0  0  0  0  0  0  0  0
   35.7410   28.1050   41.6770 H   0  0  0  0  0  0  0  0  0  0  0  0
   36.3320   29.2380   39.5570 H   0  0  0  0  0  0  0  0  0  0  0  0
   39.1620   29.9130   43.4810 H   0  0  0  0  0  0  0  0  0  0  0  0
   41.9110   34.7390   38.7440 H   0  0  0  0  0  0  0  0  0  0  0  0
   41.5990   33.9000   38.1720 C   0  0  0  0  0  0  0  0  0  0  0  0
   42.2360   33.6190   37.1010 O   0  0  0  0  0  0  0  0  0  0  0  0
   40.5160   33.0450   38.4940 N   0  0  0  0  0  0  0  0  0  0  0  0
   39.9730   33.2560   39.3760 H   0  0  0  0  0  0  0  0  0  0  0  0
  1 17  1  0  0  0  0
  2  7  1  0  0  0  0
  2  1  1  0  0  0  0
  3  2  1  0  0  0  0
  4  3  1  0  0  0  0
  4  5  1  0  0  0  0
  5 12  1  6  0  0  0
  5 27  1  0  0  0  0
  5  6  1  0  0  0  0
  6  1  1  0  0  0  0
  6 13  1  0  0  0  0
  8  2  1  0  0  0  0
  9  3  1  0  0  0  0
 10  3  1  0  0  0  0
 11  4  1  0  0  0  0
 14  6  1  0  0  0  0
 15 20  1  0  0  0  0
 16 15  2  0  0  0  0
 17 16  1  0  0  0  0
 17 18  2  0  0  0  0
 18 19  1  0  0  0  0
 19 20  2  0  0  0  0
 19 23  1  0  0  0  0
 21 15  1  0  0  0  0
 22 16  1  0  0  0  0
 25 27  1  0  0  0  0
 25 24  1  0  0  0  0
 26 25  2  0  0  0  0
 27 28  1  0  0  0  0
M  END
>  <minimizedAffinity>
-4.30989742

$$$$

 OpenBabel03242522013D

 28 29  0  0  1  0  0  0  0  0999 V2000
   38.2790   29.9520   41.5390 N   0  0  0  0  0  0  0  0  0  0  0  0
   36.8510   30.0230   41.7810 C   0  0  0  0  0  0  0  0  0  0  0  0
   36.0970   30.6010   40.6210 C   0  0  0  0  0  0  0  0  0  0  0  0
   36.6310   31.8410   40.1430 N   0  0  0  0  0  0  0  0  0  0  0  0
   38.0290   31.9860   40.1760 C   0  0  2  0  0  0  0  0  0  0  0  0
   38.8400   30.7980   40.5440 C   0  0  0  0  0  0  0  0  0  0  0  0
   36.6210   30.5080   42.7490 H   0  0  0  0  0  0  0  0  0  0  0  0
   36.5290   28.9510   41.8940 H   0  0  0  0  0  0  0  0  0  0  0  0
   36.1230   29.8480   39.7880 H   0  0  0  0  0  0  0  0  0  0  0  0
   35.0480   30.7310   40.9350 H   0  0  0  0  0  0  0  0  0  0  0  0
   36.0980   32.6770   40.4740 H   0  0  0  0  0  0  0  0  0  0  0  0
   38.3910   32.3180   39.1700 H   0  0  0  0  0  0  0  0  0  0  0  0
   39.8640   31.1200   40.8250 H   0  0  0  0  0  0  0  0  0  0  0  0
   38.9660   30.1780   39.6140 H   0  0  0  0  0  0  0  0  0  0  0  0
   39.5210   27.1320   43.6790 C   0  0  0  0  0  0  0  0  0  0  0  0
   38.6190   27.9440   42.9810 C   0  0  0  0  0  0  0  0  0  0  0  0
   39.0930   29.0610   42.2790 C   0  0  0  0  0  0  0  0  0  0  0  0
   40.4350   29.2770   42.3290 N   0  0  0  0  0  0  0  0  0  0  0  0
   41.3000   28.4850   43.0070 C   0  0  0  0  0  0  0  0  0  0  0  0
   40.8320   27.4130   43.6790 N   0  0  0  0  0  0  0  0  0  0  0  0
   39.0220   26.2980   44.1830 H   0  0  0  0  0  0  0  0  0  0  0  0
   37.5510   27.8260   42.9050 H   0  0  0  0  0  0  0  0  0  0  0  0
   42.3570   28.6970   43.0170 H   0  0  0  0  0  0  0  0  0  0  0  0
   39.5410   34.9200   41.4240 H   0  0  0  0  0  0  0  0  0  0  0  0
   39.2660   34.1370   40.7610 C   0  0  0  0  0  0  0  0  0  0  0  0
   39.7360   34.1470   39.5740 O   0  0  0  0  0  0  0  0  0  0  0  0
   38.4060   33.0570   41.0800 N   0  0  0  0  0  0  0  0  0  0  0  0
   38.0030   33.0260   42.0570 H   0  0  0  0  0  0  0  0  0  0  0  0
  1  2  1  0  0  0  0
  1 17  1  0  0  0  0
  2  8  1  0  0  0  0
  2  7  1  0  0  0  0
  3 10  1  0  0  0  0
  3  2  1  0  0  0  0
  4  5  1  0  0  0  0
  4 11  1  0  0  0  0
  4  3  1  0  0  0  0
  5 12  1  6  0  0  0
  5  6  1  0  0  0  0
  5 27  1  0  0  0  0
  6 13  1  0  0  0  0
  6  1  1  0  0  0  0
  9  3  1  0  0  0  0
 14  6  1  0  0  0  0
 15 21  1  0  0  0  0
 16 15  2  0  0  0  0
 17 18  2  0  0  0  0
 17 16  1  0  0  0  0
 18 19  1  0  0  0  0
 19 23  1  0  0  0  0
 19 20  2  0  0  0  0
 20 15  1  0  0  0  0
 22 16  1  0  0  0  0
 25 27  1  0  0  0  0
 25 24  1  0  0  0  0
 26 25  2  0  0  0  0
 27 28  1  0  0  0  0
M  END
>  <minimizedAffinity>
-4.1610508

$$$$

 OpenBabel03242522013D

 28 29  0  0  1  0  0  0  0  0999 V2000
   38.1750   30.9390   40.7060 N   0  0  0  0  0  0  0  0  0  0  0  0
   37.2630   32.0380   40.4560 C   0  0  0  0  0  0  0  0  0  0  0  0
   37.6170   32.8140   39.2230 C   0  0  0  0  0  0  0  0  0  0  0  0
   38.9890   33.2230   39.1700 N   0  0  0  0  0  0  0  0  0  0  0  0
   39.9390   32.3320   39.7000 C   0  0  2  0  0  0  0  0  0  0  0  0
   39.4690   30.9870   40.1170 C   0  0  0  0  0  0  0  0  0  0  0  0
   37.1210   32.6680   41.3550 H   0  0  0  0  0  0  0  0  0  0  0  0
   36.2690   31.5450   40.2710 H   0  0  0  0  0  0  0  0  0  0  0  0
   37.3970   32.1640   38.3350 H   0  0  0  0  0  0  0  0  0  0  0  0
   36.9530   33.6930   39.1790 H   0  0  0  0  0  0  0  0  0  0  0  0
   39.1330   34.2240   39.4360 H   0  0  0  0  0  0  0  0  0  0  0  0
   40.7510   32.1660   38.9480 H   0  0  0  0  0  0  0  0  0  0  0  0
   40.2260   30.5180   40.7790 H   0  0  0  0  0  0  0  0  0  0  0  0
   39.4380   30.3430   39.1950 H   0  0  0  0  0  0  0  0  0  0  0  0
   37.8510   28.4560   43.4990 C   0  0  0  0  0  0  0  0  0  0  0  0
   38.3150   29.5690   42.7850 C   0  0  0  0  0  0  0  0  0  0  0  0
   37.7860   29.8470   41.5170 C   0  0  0  0  0  0  0  0  0  0  0  0
   36.8330   28.9910   41.0620 N   0  0  0  0  0  0  0  0  0  0  0  0
   36.3910   27.9170   41.7600 C   0  0  0  0  0  0  0  0  0  0  0  0
   36.9060   27.6590   42.9790 N   0  0  0  0  0  0  0  0  0  0  0  0
   38.3450   28.3530   44.4700 H   0  0  0  0  0  0  0  0  0  0  0  0
   39.0640   30.2800   43.0910 H   0  0  0  0  0  0  0  0  0  0  0  0
   35.6320   27.2660   41.3570 H   0  0  0  0  0  0  0  0  0  0  0  0
   42.1710   34.2780   41.6200 H   0  0  0  0  0  0  0  0  0  0  0  0
   41.6830   33.8440   40.7820 C   0  0  0  0  0  0  0  0  0  0  0  0
   42.0830   34.1610   39.6110 O   0  0  0  0  0  0  0  0  0  0  0  0
   40.6060   32.9260   40.8450 N   0  0  0  0  0  0  0  0  0  0  0  0
   40.2570   32.6470   41.8020 H   0  0  0  0  0  0  0  0  0  0  0  0
  1 17  1  0  0  0  0
  2  1  1  0  0  0  0
  2  7  1  0  0  0  0
  3  2  1  0  0  0  0
  4  3  1  0  0  0  0
  4 11  1  0  0  0  0
  4  5  1  0  0  0  0
  5 12  1  6  0  0  0
  5  6  1  0  0  0  0
  5 27  1  0  0  0  0
  6  1  1  0  0  0  0
  6 13  1  0  0  0  0
  8  2  1  0  0  0  0
  9  3  1  0  0  0  0
 10  3  1  0  0  0  0
 14  6  1  0  0  0  0
 15 21  1  0  0  0  0
 16 22  1  0  0  0  0
 16 15  2  0  0  0  0
 17 16  1  0  0  0  0
 18 17  2  0  0  0  0
 18 19  1  0  0  0  0
 19 20  2  0  0  0  0
 20 15  1  0  0  0  0
 23 19  1  0  0  0  0
 25 27  1  0  0  0  0
 25 24  1  0  0  0  0
 26 25  2  0  0  0  0
 27 28  1  0  0  0  0
M  END
>  <minimizedAffinity>
-4.15587807

$$$$

 OpenBabel03242522013D

 28 29  0  0  1  0  0  0  0  0999 V2000
   37.5140   26.9110   41.8130 N   0  0  0  0  0  0  0  0  0  0  0  0
   38.1340   27.3910   43.0330 C   0  0  0  0  0  0  0  0  0  0  0  0
   37.3560   28.4990   43.6780 C   0  0  0  0  0  0  0  0  0  0  0  0
   37.0170   29.5660   42.7840 N   0  0  0  0  0  0  0  0  0  0  0  0
   36.7090   29.2110   41.4590 C   0  0  2  0  0  0  0  0  0  0  0  0
   36.6000   27.7650   41.1370 C   0  0  0  0  0  0  0  0  0  0  0  0
   39.2050   27.6240   42.8870 H   0  0  0  0  0  0  0  0  0  0  0  0
   38.1070   26.5090   43.7300 H   0  0  0  0  0  0  0  0  0  0  0  0
   36.4110   28.0570   44.0920 H   0  0  0  0  0  0  0  0  0  0  0  0
   37.9560   28.8820   44.5210 H   0  0  0  0  0  0  0  0  0  0  0  0
   37.6400   30.3990   42.8780 H   0  0  0  0  0  0  0  0  0  0  0  0
   35.7320   29.6740   41.1680 H   0  0  0  0  0  0  0  0  0  0  0  0
   36.6600   27.6240   40.0380 H   0  0  0  0  0  0  0  0  0  0  0  0
   35.5630   27.4360   41.4240 H   0  0  0  0  0  0  0  0  0  0  0  0
   37.3590   23.2930   40.8340 C   0  0  0  0  0  0  0  0  0  0  0  0
   36.9510   24.5220   41.3690 C   0  0  0  0  0  0  0  0  0  0  0  0
   37.8150   25.6240   41.3080 C   0  0  0  0  0  0  0  0  0  0  0  0
   39.0210   25.4110   40.7150 N   0  0  0  0  0  0  0  0  0  0  0  0
   39.4050   24.2180   40.2000 C   0  0  0  0  0  0  0  0  0  0  0  0
   38.5660   23.1650   40.2640 N   0  0  0  0  0  0  0  0  0  0  0  0
   36.5930   22.5200   40.9480 H   0  0  0  0  0  0  0  0  0  0  0  0
   36.0150   24.7520   41.8490 H   0  0  0  0  0  0  0  0  0  0  0  0
   40.3720   24.0970   39.7390 H   0  0  0  0  0  0  0  0  0  0  0  0
   38.4870   31.5670   39.5260 H   0  0  0  0  0  0  0  0  0  0  0  0
   37.7770   31.1510   40.1970 C   0  0  0  0  0  0  0  0  0  0  0  0
   36.9280   31.9300   40.7490 O   0  0  0  0  0  0  0  0  0  0  0  0
   37.6800   29.7810   40.5430 N   0  0  0  0  0  0  0  0  0  0  0  0
   38.3700   29.1150   40.0990 H   0  0  0  0  0  0  0  0  0  0  0  0
  1  2  1  0  0  0  0
  2  3  1  0  0  0  0
  2  8  1  0  0  0  0
  3  9  1  0  0  0  0
  3 10  1  0  0  0  0
  4 11  1  0  0  0  0
  4  3  1  0  0  0  0
  5 12  1  6  0  0  0
  5  4  1  0  0  0  0
  6 14  1  0  0  0  0
  6  5  1  0  0  0  0
  6  1  1  0  0  0  0
  7  2  1  0  0  0  0
 13  6  1  0  0  0  0
 15 21  1  0  0  0  0
 15 16  1  0  0  0  0
 16 22  1  0  0  0  0
 17 16  2  0  0  0  0
 17  1  1  0  0  0  0
 18 17  1  0  0  0  0
 19 20  1  0  0  0  0
 19 18  2  0  0  0  0
 20 15  2  0  0  0  0
 23 19  1  0  0  0  0
 24 25  1  0  0  0  0
 25 27  1  0  0  0  0
 25 26  2  0  0  0  0
 27  5  1  0  0  0  0
 28 27  1  0  0  0  0
M  END
>  <minimizedAffinity>
-4.13398981

$$$$

 OpenBabel03242522013D

 28 29  0  0  1  0  0  0  0  0999 V2000
   37.8650   29.8960   41.7060 N   0  0  0  0  0  0  0  0  0  0  0  0
   37.0220   28.8670   41.1280 C   0  0  0  0  0  0  0  0  0  0  0  0
   36.5730   27.8550   42.1390 C   0  0  0  0  0  0  0  0  0  0  0  0
   37.6390   27.3080   42.9250 N   0  0  0  0  0  0  0  0  0  0  0  0
   38.6880   28.1790   43.2660 C   0  0  2  0  0  0  0  0  0  0  0  0
   38.5310   29.6170   42.9310 C   0  0  0  0  0  0  0  0  0  0  0  0
   37.4770   28.4230   40.2230 H   0  0  0  0  0  0  0  0  0  0  0  0
   36.1080   29.4170   40.7710 H   0  0  0  0  0  0  0  0  0  0  0  0
   35.8380   28.3560   42.8230 H   0  0  0  0  0  0  0  0  0  0  0  0
   36.0460   27.0520   41.5960 H   0  0  0  0  0  0  0  0  0  0  0  0
   37.9450   26.3610   42.6060 H   0  0  0  0  0  0  0  0  0  0  0  0
   38.8680   28.1290   44.3700 H   0  0  0  0  0  0  0  0  0  0  0  0
   39.5210   30.1180   42.9700 H   0  0  0  0  0  0  0  0  0  0  0  0
   37.9260   30.0880   43.7530 H   0  0  0  0  0  0  0  0  0  0  0  0
   37.3270   32.9840   39.6440 C   0  0  0  0  0  0  0  0  0  0  0  0
   37.0620   31.7380   40.2260 C   0  0  0  0  0  0  0  0  0  0  0  0
   38.0200   31.1480   41.0640 C   0  0  0  0  0  0  0  0  0  0  0  0
   39.1680   31.8520   41.2540 N   0  0  0  0  0  0  0  0  0  0  0  0
   39.4130   33.0570   40.6860 C   0  0  0  0  0  0  0  0  0  0  0  0
   38.4860   33.6150   39.8830 N   0  0  0  0  0  0  0  0  0  0  0  0
   36.5010   33.3290   39.0150 H   0  0  0  0  0  0  0  0  0  0  0  0
   36.1780   31.1340   40.1140 H   0  0  0  0  0  0  0  0  0  0  0  0
   40.3400   33.5780   40.8670 H   0  0  0  0  0  0  0  0  0  0  0  0
   41.4560   26.1500   42.4440 H   0  0  0  0  0  0  0  0  0  0  0  0
   40.5450   26.4750   42.8840 C   0  0  0  0  0  0  0  0  0  0  0  0
   39.9350   25.6840   43.6790 O   0  0  0  0  0  0  0  0  0  0  0  0
   39.9320   27.7330   42.6650 N   0  0  0  0  0  0  0  0  0  0  0  0
   40.4180   28.4060   42.0110 H   0  0  0  0  0  0  0  0  0  0  0  0
  1  6  1  0  0  0  0
  2  1  1  0  0  0  0
  2  3  1  0  0  0  0
  3  9  1  0  0  0  0
  3  4  1  0  0  0  0
  4  5  1  0  0  0  0
  5 12  1  1  0  0  0
  6 13  1  0  0  0  0
  6  5  1  0  0  0  0
  6 14  1  0  0  0  0
  7  2  1  0  0  0  0
  8  2  1  0  0  0  0
 10  3  1  0  0  0  0
 11  4  1  0  0  0  0
 15 20  2  0  0  0  0
 15 16  1  0  0  0  0
 16 17  2  0  0  0  0
 17 18  1  0  0  0  0
 17  1  1  0  0  0  0
 19 23  1  0  0  0  0
 19 18  2  0  0  0  0
 20 19  1  0  0  0  0
 21 15  1  0  0  0  0
 22 16  1  0  0  0  0
 24 25  1  0  0  0  0
 25 26  2  0  0  0  0
 27 25  1  0  0  0  0
 27  5  1  0  0  0  0
 28 27  1  0  0  0  0
M  END
>  <minimizedAffinity>
-4.11197376

$$$$

 OpenBabel03242522013D

 28 29  0  0  1  0  0  0  0  0999 V2000
   38.1570   30.9980   41.0310 N   0  0  0  0  0  0  0  0  0  0  0  0
   39.0650   32.1270   40.9650 C   0  0  0  0  0  0  0  0  0  0  0  0
   38.4170   33.3560   40.4030 C   0  0  0  0  0  0  0  0  0  0  0  0
   37.7320   33.1360   39.1650 N   0  0  0  0  0  0  0  0  0  0  0  0
   37.0770   31.9010   39.0110 C   0  0  2  0  0  0  0  0  0  0  0  0
   37.0090   31.0020   40.1910 C   0  0  0  0  0  0  0  0  0  0  0  0
   40.0190   31.8600   40.4720 H   0  0  0  0  0  0  0  0  0  0  0  0
   39.3270   32.3420   42.0380 H   0  0  0  0  0  0  0  0  0  0  0  0
   37.6810   33.7330   41.1640 H   0  0  0  0  0  0  0  0  0  0  0  0
   39.2020   34.1200   40.2760 H   0  0  0  0  0  0  0  0  0  0  0  0
   38.2760   33.4480   38.3290 H   0  0  0  0  0  0  0  0  0  0  0  0
   36.0210   32.0790   38.6870 H   0  0  0  0  0  0  0  0  0  0  0  0
   36.7530   29.9750   39.8610 H   0  0  0  0  0  0  0  0  0  0  0  0
   36.1390   31.3400   40.8190 H   0  0  0  0  0  0  0  0  0  0  0  0
   39.7980   28.2640   43.0080 C   0  0  0  0  0  0  0  0  0  0  0  0
   39.6680   29.3320   42.1100 C   0  0  0  0  0  0  0  0  0  0  0  0
   38.4100   29.9170   41.9090 C   0  0  0  0  0  0  0  0  0  0  0  0
   37.3800   29.3900   42.6230 N   0  0  0  0  0  0  0  0  0  0  0  0
   37.5170   28.3570   43.4900 C   0  0  0  0  0  0  0  0  0  0  0  0
   38.7310   27.8010   43.6760 N   0  0  0  0  0  0  0  0  0  0  0  0
   40.8280   27.9010   43.0710 H   0  0  0  0  0  0  0  0  0  0  0  0
   40.4410   29.7910   41.5190 H   0  0  0  0  0  0  0  0  0  0  0  0
   36.6690   27.9720   44.0340 H   0  0  0  0  0  0  0  0  0  0  0  0
   37.4630   29.5840   36.3780 H   0  0  0  0  0  0  0  0  0  0  0  0
   37.0240   30.1390   37.1700 C   0  0  0  0  0  0  0  0  0  0  0  0
   35.8090   29.9010   37.4830 O   0  0  0  0  0  0  0  0  0  0  0  0
   37.6760   31.1420   37.9290 N   0  0  0  0  0  0  0  0  0  0  0  0
   38.6830   31.3580   37.6900 H   0  0  0  0  0  0  0  0  0  0  0  0
  1 17  1  0  0  0  0
  2  1  1  0  0  0  0
  2  8  1  0  0  0  0
  3  2  1  0  0  0  0
  3  9  1  0  0  0  0
  4  3  1  0  0  0  0
  5 12  1  6  0  0  0
  5  4  1  0  0  0  0
  5  6  1  0  0  0  0
  6 14  1  0  0  0  0
  6  1  1  0  0  0  0
  7  2  1  0  0  0  0
 10  3  1  0  0  0  0
 11  4  1  0  0  0  0
 13  6  1  0  0  0  0
 15 21  1  0  0  0  0
 15 20  1  0  0  0  0
 16 15  2  0  0  0  0
 17 16  1  0  0  0  0
 17 18  2  0  0  0  0
 18 19  1  0  0  0  0
 19 20  2  0  0  0  0
 19 23  1  0  0  0  0
 22 16  1  0  0  0  0
 24 25  1  0  0  0  0
 25 26  2  0  0  0  0
 25 27  1  0  0  0  0
 27  5  1  0  0  0  0
 28 27  1  0  0  0  0
M  END
>  <minimizedAffinity>
-4.08259153

$$$$

 OpenBabel03242522013D

 28 29  0  0  1  0  0  0  0  0999 V2000
   38.4860   30.5660   40.1820 N   0  0  0  0  0  0  0  0  0  0  0  0
   37.0730   30.7050   39.8850 C   0  0  0  0  0  0  0  0  0  0  0  0
   36.2390   30.8850   41.1170 C   0  0  0  0  0  0  0  0  0  0  0  0
   36.4880   29.9080   42.1340 N   0  0  0  0  0  0  0  0  0  0  0  0
   37.8150   29.4650   42.2790 C   0  0  2  0  0  0  0  0  0  0  0  0
   38.8650   30.1560   41.4890 C   0  0  0  0  0  0  0  0  0  0  0  0
   36.7120   29.9000   39.2160 H   0  0  0  0  0  0  0  0  0  0  0  0
   37.0010   31.6530   39.2850 H   0  0  0  0  0  0  0  0  0  0  0  0
   36.4580   31.9050   41.5320 H   0  0  0  0  0  0  0  0  0  0  0  0
   35.1800   30.8590   40.8120 H   0  0  0  0  0  0  0  0  0  0  0  0
   35.7700   29.1490   42.1650 H   0  0  0  0  0  0  0  0  0  0  0  0
   38.1190   29.5480   43.3530 H   0  0  0  0  0  0  0  0  0  0  0  0
   39.7810   29.5300   41.4610 H   0  0  0  0  0  0  0  0  0  0  0  0
   39.1550   31.0830   42.0570 H   0  0  0  0  0  0  0  0  0  0  0  0
   40.5010   32.1320   37.4320 C   0  0  0  0  0  0  0  0  0  0  0  0
   39.4830   31.9760   38.3810 C   0  0  0  0  0  0  0  0  0  0  0  0
   39.4610   30.8320   39.1920 C   0  0  0  0  0  0  0  0  0  0  0  0
   40.4620   29.9330   38.9900 N   0  0  0  0  0  0  0  0  0  0  0  0
   41.4430   30.0940   38.0690 C   0  0  0  0  0  0  0  0  0  0  0  0
   41.4540   31.1980   37.2950 N   0  0  0  0  0  0  0  0  0  0  0  0
   40.4010   33.0640   36.8690 H   0  0  0  0  0  0  0  0  0  0  0  0
   38.6680   32.6480   38.5870 H   0  0  0  0  0  0  0  0  0  0  0  0
   42.2160   29.3530   37.9460 H   0  0  0  0  0  0  0  0  0  0  0  0
   37.2370   25.9850   42.3740 H   0  0  0  0  0  0  0  0  0  0  0  0
   37.1650   27.0210   42.5980 C   0  0  0  0  0  0  0  0  0  0  0  0
   36.3440   27.3940   43.5030 O   0  0  0  0  0  0  0  0  0  0  0  0
   37.9120   28.0490   41.9730 N   0  0  0  0  0  0  0  0  0  0  0  0
   38.5980   27.7660   41.2210 H   0  0  0  0  0  0  0  0  0  0  0  0
  1  6  1  0  0  0  0
  2  1  1  0  0  0  0
  2  3  1  0  0  0  0
  3  9  1  0  0  0  0
  3  4  1  0  0  0  0
  4 11  1  0  0  0  0
  4  5  1  0  0  0  0
  5 12  1  1  0  0  0
  6 14  1  0  0  0  0
  6  5  1  0  0  0  0
  7  2  1  0  0  0  0
  8  2  1  0  0  0  0
 10  3  1  0  0  0  0
 13  6  1  0  0  0  0
 15 16  1  0  0  0  0
 16 22  1  0  0  0  0
 16 17  2  0  0  0  0
 17  1  1  0  0  0  0
 18 17  1  0  0  0  0
 19 18  2  0  0  0  0
 20 15  2  0  0  0  0
 20 19  1  0  0  0  0
 21 15  1  0  0  0  0
 23 19  1  0  0  0  0
 24 25  1  0  0  0  0
 25 26  2  0  0  0  0
 27  5  1  0  0  0  0
 27 25  1  0  0  0  0
 28 27  1  0  0  0  0
M  END
>  <minimizedAffinity>
-3.97152853

$$$$

 OpenBabel03242522013D

 28 29  0  0  1  0  0  0  0  0999 V2000
   38.0230   30.4250   39.5540 N   0  0  0  0  0  0  0  0  0  0  0  0
   39.3400   30.9920   39.3340 C   0  0  0  0  0  0  0  0  0  0  0  0
   39.3280   32.1080   38.3330 C   0  0  0  0  0  0  0  0  0  0  0  0
   38.6660   31.7790   37.1060 N   0  0  0  0  0  0  0  0  0  0  0  0
   37.5380   30.9450   37.1970 C   0  0  2  0  0  0  0  0  0  0  0  0
   37.0310   30.6100   38.5520 C   0  0  0  0  0  0  0  0  0  0  0  0
   40.0950   30.2110   39.1240 H   0  0  0  0  0  0  0  0  0  0  0  0
   39.6280   31.4320   40.3290 H   0  0  0  0  0  0  0  0  0  0  0  0
   38.8080   32.9840   38.8040 H   0  0  0  0  0  0  0  0  0  0  0  0
   40.3750   32.3940   38.1390 H   0  0  0  0  0  0  0  0  0  0  0  0
   39.3250   31.5380   36.3310 H   0  0  0  0  0  0  0  0  0  0  0  0
   36.6840   31.4150   36.6460 H   0  0  0  0  0  0  0  0  0  0  0  0
   36.3580   29.7300   38.4900 H   0  0  0  0  0  0  0  0  0  0  0  0
   36.3780   31.4630   38.8850 H   0  0  0  0  0  0  0  0  0  0  0  0
   36.5450   28.0730   42.0760 C   0  0  0  0  0  0  0  0  0  0  0  0
   36.7400   28.7230   40.8500 C   0  0  0  0  0  0  0  0  0  0  0  0
   37.7350   29.7040   40.7370 C   0  0  0  0  0  0  0  0  0  0  0  0
   38.4600   29.9580   41.8600 N   0  0  0  0  0  0  0  0  0  0  0  0
   38.2630   29.3240   43.0410 C   0  0  0  0  0  0  0  0  0  0  0  0
   37.3040   28.3820   43.1380 N   0  0  0  0  0  0  0  0  0  0  0  0
   35.7410   27.3340   42.0280 H   0  0  0  0  0  0  0  0  0  0  0  0
   36.2020   28.5670   39.9310 H   0  0  0  0  0  0  0  0  0  0  0  0
   38.8640   29.5600   43.9050 H   0  0  0  0  0  0  0  0  0  0  0  0
   37.0580   28.1390   35.1110 H   0  0  0  0  0  0  0  0  0  0  0  0
   36.8810   29.0570   35.6150 C   0  0  0  0  0  0  0  0  0  0  0  0
   35.7730   29.6600   35.4130 O   0  0  0  0  0  0  0  0  0  0  0  0
   37.7790   29.6900   36.5080 N   0  0  0  0  0  0  0  0  0  0  0  0
   38.7030   29.2110   36.6920 H   0  0  0  0  0  0  0  0  0  0  0  0
  1 17  1  0  0  0  0
  2  1  1  0  0  0  0
  2  8  1  0  0  0  0
  3  9  1  0  0  0  0
  3  2  1  0  0  0  0
  4  5  1  0  0  0  0
  4  3  1  0  0  0  0
  5 12  1  6  0  0  0
  5  6  1  0  0  0  0
  6 14  1  0  0  0  0
  6  1  1  0  0  0  0
  7  2  1  0  0  0  0
 10  3  1  0  0  0  0
 11  4  1  0  0  0  0
 13  6  1  0  0  0  0
 15 20  1  0  0  0  0
 16 15  2  0  0  0  0
 17 16  1  0  0  0  0
 17 18  2  0  0  0  0
 18 19  1  0  0  0  0
 19 20  2  0  0  0  0
 19 23  1  0  0  0  0
 21 15  1  0  0  0  0
 22 16  1  0  0  0  0
 24 25  1  0  0  0  0
 25 27  1  0  0  0  0
 26 25  2  0  0  0  0
 27 28  1  0  0  0  0
 27  5  1  0  0  0  0
M  END
>  <minimizedAffinity>
-3.94578791

$$$$

 OpenBabel03242522013D

 28 29  0  0  1  0  0  0  0  0999 V2000
   37.5860   30.7500   40.7310 N   0  0  0  0  0  0  0  0  0  0  0  0
   36.5190   30.3260   39.8450 C   0  0  0  0  0  0  0  0  0  0  0  0
   35.4180   29.6120   40.5690 C   0  0  0  0  0  0  0  0  0  0  0  0
   35.8730   28.5530   41.4190 N   0  0  0  0  0  0  0  0  0  0  0  0
   37.0950   28.7530   42.0850 C   0  0  2  0  0  0  0  0  0  0  0  0
   37.7270   30.0930   41.9850 C   0  0  0  0  0  0  0  0  0  0  0  0
   36.9080   29.7740   38.9680 H   0  0  0  0  0  0  0  0  0  0  0  0
   36.0920   31.2830   39.4370 H   0  0  0  0  0  0  0  0  0  0  0  0
   34.8710   30.3700   41.1930 H   0  0  0  0  0  0  0  0  0  0  0  0
   34.7180   29.2220   39.8120 H   0  0  0  0  0  0  0  0  0  0  0  0
   35.7570   27.6040   40.9970 H   0  0  0  0  0  0  0  0  0  0  0  0
   36.9620   28.5460   43.1760 H   0  0  0  0  0  0  0  0  0  0  0  0
   38.7940   30.0240   42.2810 H   0  0  0  0  0  0  0  0  0  0  0  0
   37.2430   30.7490   42.7600 H   0  0  0  0  0  0  0  0  0  0  0  0
   40.5360   32.7120   39.4960 C   0  0  0  0  0  0  0  0  0  0  0  0
   39.7530   31.6000   39.8340 C   0  0  0  0  0  0  0  0  0  0  0  0
   38.4660   31.7930   40.3550 C   0  0  0  0  0  0  0  0  0  0  0  0
   38.0610   33.0840   40.4950 N   0  0  0  0  0  0  0  0  0  0  0  0
   38.8250   34.1520   40.1650 C   0  0  0  0  0  0  0  0  0  0  0  0
   40.0620   33.9550   39.6650 N   0  0  0  0  0  0  0  0  0  0  0  0
   41.5150   32.4230   39.1030 H   0  0  0  0  0  0  0  0  0  0  0  0
   40.0170   30.5600   39.7470 H   0  0  0  0  0  0  0  0  0  0  0  0
   38.4600   35.1580   40.2940 H   0  0  0  0  0  0  0  0  0  0  0  0
   38.7280   25.6750   41.5260 H   0  0  0  0  0  0  0  0  0  0  0  0
   38.0080   26.3840   41.8520 C   0  0  0  0  0  0  0  0  0  0  0  0
   36.9840   25.9660   42.4920 O   0  0  0  0  0  0  0  0  0  0  0  0
   38.0790   27.7830   41.6390 N   0  0  0  0  0  0  0  0  0  0  0  0
   38.9160   28.1540   41.1130 H   0  0  0  0  0  0  0  0  0  0  0  0
  1  6  1  0  0  0  0
  2  3  1  0  0  0  0
  2  1  1  0  0  0  0
  3  9  1  0  0  0  0
  3  4  1  0  0  0  0
  4  5  1  0  0  0  0
  5 12  1  1  0  0  0
  6  5  1  0  0  0  0
  6 13  1  0  0  0  0
  6 14  1  0  0  0  0
  7  2  1  0  0  0  0
  8  2  1  0  0  0  0
 10  3  1  0  0  0  0
 11  4  1  0  0  0  0
 15 20  2  0  0  0  0
 15 16  1  0  0  0  0
 16 17  2  0  0  0  0
 17 18  1  0  0  0  0
 17  1  1  0  0  0  0
 19 23  1  0  0  0  0
 19 18  2  0  0  0  0
 20 19  1  0  0  0  0
 21 15  1  0  0  0  0
 22 16  1  0  0  0  0
 24 25  1  0  0  0  0
 25 26  2  0  0  0  0
 27 25  1  0  0  0  0
 27  5  1  0  0  0  0
 28 27  1  0  0  0  0
M  END
>  <minimizedAffinity>
-3.89774799

$$$$
