
 OpenBabel03252509253D

 26 27  0  0  1  0  0  0  0  0999 V2000
   46.8730   35.1220   41.8390 C   0  0  1  0  0  0  0  0  0  0  0  0
   48.3640   35.5510   41.9230 C   0  0  0  0  0  0  0  0  0  0  0  0
   47.8080   34.2650   41.2380 C   0  0  2  0  0  0  0  0  0  0  0  0
   46.2450   35.8370   41.2670 H   0  0  0  0  0  0  0  0  0  0  0  0
   48.6410   36.3700   41.2640 H   0  0  0  0  0  0  0  0  0  0  0  0
   48.9000   35.4480   42.8630 H   0  0  0  0  0  0  0  0  0  0  0  0
   48.1230   33.3400   41.8150 H   0  0  0  0  0  0  0  0  0  0  0  0
   44.8190   35.1320   44.9790 C   0  0  0  0  0  0  0  0  0  0  0  0
   45.3050   35.5330   43.7060 C   0  0  0  0  0  0  0  0  0  0  0  0
   46.3410   34.8100   43.2200 C   0  0  0  0  0  0  0  0  0  0  0  0
   46.8920   33.7580   43.9150 N   0  0  0  0  0  0  0  0  0  0  0  0
   46.4040   33.4050   45.1250 C   0  0  0  0  0  0  0  0  0  0  0  0
   45.3610   34.0970   45.6590 N   0  0  0  0  0  0  0  0  0  0  0  0
   43.9910   35.6720   45.4170 H   0  0  0  0  0  0  0  0  0  0  0  0
   46.9250   32.5660   45.5610 H   0  0  0  0  0  0  0  0  0  0  0  0
   44.7630   36.6340   43.0250 N   0  0  0  0  0  0  0  0  0  0  0  0
   44.7530   37.5260   43.5790 H   0  0  0  0  0  0  0  0  0  0  0  0
   44.4510   36.4080   42.0700 H   0  0  0  0  0  0  0  0  0  0  0  0
   47.9200   34.1440   39.7380 C   0  0  0  0  0  0  0  0  0  0  0  0
   48.1520   35.1410   39.3060 H   0  0  0  0  0  0  0  0  0  0  0  0
   46.9770   33.7310   39.3160 H   0  0  0  0  0  0  0  0  0  0  0  0
   49.4970   31.2060   38.6510 H   0  0  0  0  0  0  0  0  0  0  0  0
   48.7310   31.9280   38.9230 C   0  0  0  0  0  0  0  0  0  0  0  0
   47.5080   31.5900   38.8180 O   0  0  0  0  0  0  0  0  0  0  0  0
   49.0080   33.2410   39.3960 N   0  0  0  0  0  0  0  0  0  0  0  0
   50.0330   33.5010   39.4760 H   0  0  0  0  0  0  0  0  0  0  0  0
  1  4  1  6  0  0  0
  1  2  1  0  0  0  0
  1 10  1  0  0  0  0
  2  6  1  0  0  0  0
  3  7  1  1  0  0  0
  3  1  1  0  0  0  0
  3  2  1  0  0  0  0
  5  2  1  0  0  0  0
  8 14  1  0  0  0  0
  8 13  1  0  0  0  0
  9  8  2  0  0  0  0
 10  9  1  0  0  0  0
 10 11  2  0  0  0  0
 11 12  1  0  0  0  0
 12 15  1  0  0  0  0
 12 13  2  0  0  0  0
 16 17  1  0  0  0  0
 16  9  1  0  0  0  0
 18 16  1  0  0  0  0
 19  3  1  0  0  0  0
 20 19  1  0  0  0  0
 21 19  1  0  0  0  0
 22 23  1  0  0  0  0
 23 25  1  0  0  0  0
 24 23  2  0  0  0  0
 25 26  1  0  0  0  0
 25 19  1  0  0  0  0
M  END
>  <minimizedAffinity>
-4.35246229

>  <minimizedRMSD>
0.901513636

$$$$
