
 OpenBabel03252509253D

 26 27  0  0  1  0  0  0  0  0999 V2000
   46.7590   35.0750   41.8770 C   0  0  1  0  0  0  0  0  0  0  0  0
   48.2690   35.4360   41.9340 C   0  0  0  0  0  0  0  0  0  0  0  0
   47.6440   34.1640   41.2810 C   0  0  2  0  0  0  0  0  0  0  0  0
   46.1560   35.8080   41.3010 H   0  0  0  0  0  0  0  0  0  0  0  0
   48.5750   36.2290   41.2570 H   0  0  0  0  0  0  0  0  0  0  0  0
   48.8130   35.3240   42.8690 H   0  0  0  0  0  0  0  0  0  0  0  0
   47.9240   33.2360   41.8700 H   0  0  0  0  0  0  0  0  0  0  0  0
   44.7510   35.2360   45.0430 C   0  0  0  0  0  0  0  0  0  0  0  0
   45.2360   35.5900   43.7570 C   0  0  0  0  0  0  0  0  0  0  0  0
   46.2320   34.8120   43.2710 C   0  0  0  0  0  0  0  0  0  0  0  0
   46.7440   33.7490   43.9780 N   0  0  0  0  0  0  0  0  0  0  0  0
   46.2570   33.4410   45.2010 C   0  0  0  0  0  0  0  0  0  0  0  0
   45.2540   34.1900   45.7350 N   0  0  0  0  0  0  0  0  0  0  0  0
   43.9540   35.8200   45.4810 H   0  0  0  0  0  0  0  0  0  0  0  0
   46.7460   32.5870   45.6460 H   0  0  0  0  0  0  0  0  0  0  0  0
   44.7350   36.7030   43.0610 N   0  0  0  0  0  0  0  0  0  0  0  0
   44.7730   37.6040   43.5990 H   0  0  0  0  0  0  0  0  0  0  0  0
   44.4000   36.4730   42.1150 H   0  0  0  0  0  0  0  0  0  0  0  0
   47.7300   34.0110   39.7810 C   0  0  0  0  0  0  0  0  0  0  0  0
   48.7620   34.2560   39.4460 H   0  0  0  0  0  0  0  0  0  0  0  0
   46.9790   34.6660   39.2870 H   0  0  0  0  0  0  0  0  0  0  0  0
   45.9000   31.2600   38.6050 H   0  0  0  0  0  0  0  0  0  0  0  0
   46.1730   32.2700   38.9010 C   0  0  0  0  0  0  0  0  0  0  0  0
   45.3040   33.1950   38.7920 O   0  0  0  0  0  0  0  0  0  0  0  0
   47.4510   32.6340   39.4090 N   0  0  0  0  0  0  0  0  0  0  0  0
   48.1600   31.8490   39.4910 H   0  0  0  0  0  0  0  0  0  0  0  0
  1  4  1  6  0  0  0
  1  2  1  0  0  0  0
  1 10  1  0  0  0  0
  2  6  1  0  0  0  0
  3  7  1  1  0  0  0
  3  1  1  0  0  0  0
  3  2  1  0  0  0  0
  5  2  1  0  0  0  0
  8 14  1  0  0  0  0
  8 13  1  0  0  0  0
  9  8  2  0  0  0  0
 10  9  1  0  0  0  0
 10 11  2  0  0  0  0
 11 12  1  0  0  0  0
 12 15  1  0  0  0  0
 12 13  2  0  0  0  0
 16 17  1  0  0  0  0
 16  9  1  0  0  0  0
 18 16  1  0  0  0  0
 19  3  1  0  0  0  0
 20 19  1  0  0  0  0
 21 19  1  0  0  0  0
 22 23  1  0  0  0  0
 23 25  1  0  0  0  0
 24 23  2  0  0  0  0
 25 26  1  0  0  0  0
 25 19  1  0  0  0  0
M  END
>  <minimizedAffinity>
-4.13860464

>  <minimizedRMSD>
1.52533448

$$$$
