
 OpenBabel03252509253D

 26 27  0  0  1  0  0  0  0  0999 V2000
   46.7050   35.0950   41.9270 C   0  0  1  0  0  0  0  0  0  0  0  0
   48.2200   35.4350   41.9810 C   0  0  0  0  0  0  0  0  0  0  0  0
   47.5780   34.1690   41.3350 C   0  0  2  0  0  0  0  0  0  0  0  0
   46.1120   35.8330   41.3470 H   0  0  0  0  0  0  0  0  0  0  0  0
   48.5360   36.2200   41.2990 H   0  0  0  0  0  0  0  0  0  0  0  0
   48.7630   35.3210   42.9160 H   0  0  0  0  0  0  0  0  0  0  0  0
   47.8450   33.2400   41.9300 H   0  0  0  0  0  0  0  0  0  0  0  0
   44.6940   35.2940   45.0900 C   0  0  0  0  0  0  0  0  0  0  0  0
   45.1830   35.6350   43.8000 C   0  0  0  0  0  0  0  0  0  0  0  0
   46.1760   34.8470   43.3220 C   0  0  0  0  0  0  0  0  0  0  0  0
   46.6820   33.7880   44.0400 N   0  0  0  0  0  0  0  0  0  0  0  0
   46.1920   33.4930   45.2650 C   0  0  0  0  0  0  0  0  0  0  0  0
   45.1920   34.2510   45.7910 N   0  0  0  0  0  0  0  0  0  0  0  0
   43.9000   35.8860   45.5210 H   0  0  0  0  0  0  0  0  0  0  0  0
   46.6760   32.6410   45.7180 H   0  0  0  0  0  0  0  0  0  0  0  0
   44.6890   36.7430   43.0950 N   0  0  0  0  0  0  0  0  0  0  0  0
   44.7300   37.6490   43.6240 H   0  0  0  0  0  0  0  0  0  0  0  0
   44.3530   36.5070   42.1500 H   0  0  0  0  0  0  0  0  0  0  0  0
   47.6600   34.0060   39.8360 C   0  0  0  0  0  0  0  0  0  0  0  0
   48.2410   34.8520   39.4080 H   0  0  0  0  0  0  0  0  0  0  0  0
   46.6380   33.9570   39.4010 H   0  0  0  0  0  0  0  0  0  0  0  0
   48.1730   30.8180   38.4690 H   0  0  0  0  0  0  0  0  0  0  0  0
   47.7100   31.7620   38.7450 C   0  0  0  0  0  0  0  0  0  0  0  0
   46.5170   31.9910   38.3660 O   0  0  0  0  0  0  0  0  0  0  0  0
   48.3560   32.7720   39.5120 N   0  0  0  0  0  0  0  0  0  0  0  0
   49.3500   32.5610   39.8180 H   0  0  0  0  0  0  0  0  0  0  0  0
  1  4  1  6  0  0  0
  1  2  1  0  0  0  0
  1 10  1  0  0  0  0
  2  6  1  0  0  0  0
  3  1  1  0  0  0  0
  3  7  1  1  0  0  0
  3  2  1  0  0  0  0
  5  2  1  0  0  0  0
  8 14  1  0  0  0  0
  8 13  1  0  0  0  0
  9  8  2  0  0  0  0
 10  9  1  0  0  0  0
 10 11  2  0  0  0  0
 11 12  1  0  0  0  0
 12 15  1  0  0  0  0
 12 13  2  0  0  0  0
 16 17  1  0  0  0  0
 16  9  1  0  0  0  0
 18 16  1  0  0  0  0
 19  3  1  0  0  0  0
 20 19  1  0  0  0  0
 21 19  1  0  0  0  0
 22 23  1  0  0  0  0
 23 25  1  0  0  0  0
 24 23  2  0  0  0  0
 25 26  1  0  0  0  0
 25 19  1  0  0  0  0
M  END
>  <minimizedAffinity>
-4.12473774

>  <minimizedRMSD>
0.170159966

$$$$
