
 OpenBabel03252509253D

 26 27  0  0  1  0  0  0  0  0999 V2000
   47.0670   35.1710   41.7370 C   0  0  1  0  0  0  0  0  0  0  0  0
   48.5720   35.5480   41.8290 C   0  0  0  0  0  0  0  0  0  0  0  0
   47.9640   34.3490   41.0370 C   0  0  2  0  0  0  0  0  0  0  0  0
   46.4500   35.9550   41.2500 H   0  0  0  0  0  0  0  0  0  0  0  0
   48.8610   36.4180   41.2450 H   0  0  0  0  0  0  0  0  0  0  0  0
   49.1220   35.3400   42.7430 H   0  0  0  0  0  0  0  0  0  0  0  0
   48.2620   33.3650   41.5160 H   0  0  0  0  0  0  0  0  0  0  0  0
   45.0000   34.8510   44.8530 C   0  0  0  0  0  0  0  0  0  0  0  0
   45.4610   35.3570   43.6080 C   0  0  0  0  0  0  0  0  0  0  0  0
   46.5530   34.7430   43.0930 C   0  0  0  0  0  0  0  0  0  0  0  0
   47.1780   33.6990   43.7360 N   0  0  0  0  0  0  0  0  0  0  0  0
   46.7120   33.2440   44.9190 C   0  0  0  0  0  0  0  0  0  0  0  0
   45.6160   33.8240   45.4800 N   0  0  0  0  0  0  0  0  0  0  0  0
   44.1300   35.3010   45.3100 H   0  0  0  0  0  0  0  0  0  0  0  0
   47.2930   32.4240   45.3140 H   0  0  0  0  0  0  0  0  0  0  0  0
   44.8400   36.4500   42.9820 N   0  0  0  0  0  0  0  0  0  0  0  0
   44.7590   37.3070   43.5850 H   0  0  0  0  0  0  0  0  0  0  0  0
   44.5520   36.2530   42.0140 H   0  0  0  0  0  0  0  0  0  0  0  0
   48.0440   34.3690   39.5300 C   0  0  0  0  0  0  0  0  0  0  0  0
   48.5750   35.2890   39.2030 H   0  0  0  0  0  0  0  0  0  0  0  0
   47.0220   34.3160   39.0930 H   0  0  0  0  0  0  0  0  0  0  0  0
   49.6100   32.2050   37.2570 H   0  0  0  0  0  0  0  0  0  0  0  0
   49.0520   33.0410   37.6720 C   0  0  0  0  0  0  0  0  0  0  0  0
   48.5870   33.9210   36.8780 O   0  0  0  0  0  0  0  0  0  0  0  0
   48.8020   33.2200   39.0610 N   0  0  0  0  0  0  0  0  0  0  0  0
   49.1960   32.4760   39.7060 H   0  0  0  0  0  0  0  0  0  0  0  0
  1  4  1  6  0  0  0
  1  2  1  0  0  0  0
  1 10  1  0  0  0  0
  2  6  1  0  0  0  0
  3  7  1  1  0  0  0
  3  1  1  0  0  0  0
  3  2  1  0  0  0  0
  5  2  1  0  0  0  0
  8 14  1  0  0  0  0
  8 13  1  0  0  0  0
  9  8  2  0  0  0  0
 10  9  1  0  0  0  0
 10 11  2  0  0  0  0
 11 12  1  0  0  0  0
 12 15  1  0  0  0  0
 12 13  2  0  0  0  0
 16 17  1  0  0  0  0
 16  9  1  0  0  0  0
 18 16  1  0  0  0  0
 19  3  1  0  0  0  0
 20 19  1  0  0  0  0
 21 19  1  0  0  0  0
 22 23  1  0  0  0  0
 23 25  1  0  0  0  0
 24 23  2  0  0  0  0
 25 19  1  0  0  0  0
 25 26  1  0  0  0  0
M  END
>  <minimizedAffinity>
-4.49894285

>  <minimizedRMSD>
0.838603556

$$$$
