
 OpenBabel03252508163D

 43 46  0  0  1  0  0  0  0  0999 V2000
   46.8490   31.0000   46.8690 C   0  0  0  0  0  0  0  0  0  0  0  0
   47.8550   30.6510   46.7230 H   0  0  0  0  0  0  0  0  0  0  0  0
   46.1300   30.1960   46.5610 H   0  0  0  0  0  0  0  0  0  0  0  0
   46.4460   31.4840   48.2200 C   0  0  1  0  0  0  0  0  0  0  0  0
   46.2930   30.4050   49.2400 C   0  0  0  0  0  0  0  0  0  0  0  0
   47.3790   31.3730   49.3540 C   0  0  1  0  0  0  0  0  0  0  0  0
   45.5230   32.1310   48.2310 H   0  0  0  0  0  0  0  0  0  0  0  0
   46.6050   29.3600   48.9880 H   0  0  0  0  0  0  0  0  0  0  0  0
   45.4750   30.4030   49.9860 H   0  0  0  0  0  0  0  0  0  0  0  0
   47.2730   32.1320   50.1570 H   0  0  0  0  0  0  0  0  0  0  0  0
   48.8000   31.0040   49.0660 C   0  0  2  0  0  0  0  0  0  0  0  0
   49.4410   30.1070   50.1560 C   0  0  0  0  0  0  0  0  0  0  0  0
   49.8700   31.5070   50.0350 C   0  0  1  0  0  0  0  0  0  0  0  0
   49.1250   30.6690   48.0690 H   0  0  0  0  0  0  0  0  0  0  0  0
   48.8240   29.8860   51.0640 H   0  0  0  0  0  0  0  0  0  0  0  0
   50.0590   29.2610   49.8760 H   0  0  0  0  0  0  0  0  0  0  0  0
   49.5010   32.2600   50.7670 H   0  0  0  0  0  0  0  0  0  0  0  0
   52.8420   33.1160   49.5310 H   0  0  0  0  0  0  0  0  0  0  0  0
   51.9140   32.9630   50.0670 C   0  0  0  0  0  0  0  0  0  0  0  0
   51.4810   33.5710   51.0540 O   0  0  0  0  0  0  0  0  0  0  0  0
   51.1530   31.8890   49.4780 N   0  0  0  0  0  0  0  0  0  0  0  0
   51.4660   31.3300   48.6340 H   0  0  0  0  0  0  0  0  0  0  0  0
   45.9040   33.0460   46.1810 C   0  0  0  0  0  0  0  0  0  0  0  0
   46.6490   32.0840   45.8360 C   0  0  0  0  0  0  0  0  0  0  0  0
   44.5390   36.0200   44.4830 C   0  0  0  0  0  0  0  0  0  0  0  0
   45.2070   36.0180   43.2630 C   0  0  0  0  0  0  0  0  0  0  0  0
   46.0880   35.0110   43.0650 C   0  0  0  0  0  0  0  0  0  0  0  0
   46.2920   34.0640   44.0250 N   0  0  0  0  0  0  0  0  0  0  0  0
   45.6260   34.0990   45.1990 C   0  0  0  0  0  0  0  0  0  0  0  0
   44.7660   35.0810   45.3930 N   0  0  0  0  0  0  0  0  0  0  0  0
   43.8220   36.8100   44.6860 H   0  0  0  0  0  0  0  0  0  0  0  0
   45.0310   36.7780   42.5150 H   0  0  0  0  0  0  0  0  0  0  0  0
   46.8640   34.8740   41.8330 C   0  0  0  0  0  0  0  0  0  0  0  0
   48.0820   35.4570   41.6090 C   0  0  0  0  0  0  0  0  0  0  0  0
   48.8030   35.3200   40.4420 C   0  0  0  0  0  0  0  0  0  0  0  0
   48.2960   34.5520   39.4110 C   0  0  0  0  0  0  0  0  0  0  0  0
   47.0810   33.9430   39.5780 C   0  0  0  0  0  0  0  0  0  0  0  0
   46.3980   34.1160   40.7730 C   0  0  0  0  0  0  0  0  0  0  0  0
   48.5130   36.0720   42.4040 H   0  0  0  0  0  0  0  0  0  0  0  0
   49.7670   35.7960   40.2960 H   0  0  0  0  0  0  0  0  0  0  0  0
   48.8030   34.4060   38.4870 H   0  0  0  0  0  0  0  0  0  0  0  0
   46.6700   33.3480   38.8000 H   0  0  0  0  0  0  0  0  0  0  0  0
   45.4350   33.6110   40.8560 H   0  0  0  0  0  0  0  0  0  0  0  0
  1  4  1  0  0  0  0
  2  1  1  0  0  0  0
  3  1  1  0  0  0  0
  4  7  1  1  0  0  0
  4  5  1  0  0  0  0
  4  6  1  0  0  0  0
  5  6  1  0  0  0  0
  5  9  1  0  0  0  0
  6 10  1  1  0  0  0
  8  5  1  0  0  0  0
 11 14  1  6  0  0  0
 11  6  1  0  0  0  0
 11 13  1  0  0  0  0
 11 12  1  0  0  0  0
 12 15  1  0  0  0  0
 13 12  1  0  0  0  0
 13 17  1  1  0  0  0
 16 12  1  0  0  0  0
 18 19  1  0  0  0  0
 19 20  2  0  0  0  0
 21 13  1  0  0  0  0
 21 19  1  0  0  0  0
 22 21  1  0  0  0  0
 24 23  2  0  0  0  0
 24  1  1  0  0  0  0
 25 31  1  0  0  0  0
 25 30  1  0  0  0  0
 26 25  2  0  0  0  0
 27 26  1  0  0  0  0
 27 28  2  0  0  0  0
 28 29  1  0  0  0  0
 29 30  2  0  0  0  0
 29 23  1  0  0  0  0
 32 26  1  0  0  0  0
 33 27  1  0  0  0  0
 34 33  1  0  0  0  0
 34 39  1  0  0  0  0
 35 34  2  0  0  0  0
 36 37  2  0  0  0  0
 36 35  1  0  0  0  0
 37 38  1  0  0  0  0
 38 43  1  0  0  0  0
 38 33  2  0  0  0  0
 40 35  1  0  0  0  0
 41 36  1  0  0  0  0
 42 37  1  0  0  0  0
M  END
>  <minimizedAffinity>
-6.28055906

>  <minimizedRMSD>
0.904117286

$$$$
