
 OpenBabel03242519533D

 36 37  0  0  1  0  0  0  0  0999 V2000
   47.1380   34.0450   42.4980 C   0  0  2  0  0  0  0  0  0  0  0  0
   48.5140   34.5920   42.6000 C   0  0  0  0  0  0  0  0  0  0  0  0
   48.8120   35.5990   41.5420 C   0  0  0  0  0  0  0  0  0  0  0  0
   48.5700   35.0740   40.1410 C   0  0  0  0  0  0  0  0  0  0  0  0
   47.3740   34.1480   40.0260 C   0  0  2  0  0  0  0  0  0  0  0  0
   46.4650   34.3470   41.2010 C   0  0  0  0  0  0  0  0  0  0  0  0
   47.2450   32.9220   42.5800 H   0  0  0  0  0  0  0  0  0  0  0  0
   48.5820   35.1330   43.5760 H   0  0  0  0  0  0  0  0  0  0  0  0
   49.2860   33.8150   42.6040 H   0  0  0  0  0  0  0  0  0  0  0  0
   48.3070   36.5540   41.7250 H   0  0  0  0  0  0  0  0  0  0  0  0
   49.9100   35.8250   41.5900 H   0  0  0  0  0  0  0  0  0  0  0  0
   49.4660   34.6120   39.6840 H   0  0  0  0  0  0  0  0  0  0  0  0
   48.3380   35.9750   39.5370 H   0  0  0  0  0  0  0  0  0  0  0  0
   46.7540   34.4310   39.1230 H   0  0  0  0  0  0  0  0  0  0  0  0
   45.5700   33.7260   41.0900 H   0  0  0  0  0  0  0  0  0  0  0  0
   46.1200   35.4000   41.1060 H   0  0  0  0  0  0  0  0  0  0  0  0
   46.2710   34.4320   43.6130 C   0  0  0  0  0  0  0  0  0  0  0  0
   45.5140   35.5730   43.3610 C   0  0  0  0  0  0  0  0  0  0  0  0
   44.6260   36.0540   44.3340 C   0  0  0  0  0  0  0  0  0  0  0  0
   44.5700   35.3350   45.5130 N   0  0  0  0  0  0  0  0  0  0  0  0
   45.3160   34.2370   45.7260 C   0  0  0  0  0  0  0  0  0  0  0  0
   46.1420   33.8160   44.7770 N   0  0  0  0  0  0  0  0  0  0  0  0
   45.3750   36.2960   42.5710 H   0  0  0  0  0  0  0  0  0  0  0  0
   43.9580   36.8750   44.3840 H   0  0  0  0  0  0  0  0  0  0  0  0
   45.2580   33.6890   46.6550 H   0  0  0  0  0  0  0  0  0  0  0  0
   47.8560   32.7780   39.8040 C   0  0  0  0  0  0  0  0  0  0  0  0
   47.9390   32.2750   40.8030 H   0  0  0  0  0  0  0  0  0  0  0  0
   47.0450   32.1730   39.2920 H   0  0  0  0  0  0  0  0  0  0  0  0
   49.0760   32.6140   39.0050 C   0  0  0  0  0  0  0  0  0  0  0  0
   48.8000   32.0420   38.0820 H   0  0  0  0  0  0  0  0  0  0  0  0
   49.3680   33.6250   38.6150 H   0  0  0  0  0  0  0  0  0  0  0  0
   52.0140   31.0680   38.3300 H   0  0  0  0  0  0  0  0  0  0  0  0
   51.0720   31.5640   38.5150 C   0  0  0  0  0  0  0  0  0  0  0  0
   51.0820   31.5670   37.2460 O   0  0  0  0  0  0  0  0  0  0  0  0
   50.2140   32.0100   39.5970 N   0  0  0  0  0  0  0  0  0  0  0  0
   50.8770   31.6600   40.3550 H   0  0  0  0  0  0  0  0  0  0  0  0
  1  7  1  1  0  0  0
  1  2  1  0  0  0  0
  1 17  1  0  0  0  0
  2  9  1  0  0  0  0
  2  8  1  0  0  0  0
  3 11  1  0  0  0  0
  3 10  1  0  0  0  0
  3  2  1  0  0  0  0
  4  3  1  0  0  0  0
  5 14  1  6  0  0  0
  5  4  1  0  0  0  0
  5  6  1  0  0  0  0
  6  1  1  0  0  0  0
 12  4  1  0  0  0  0
 13  4  1  0  0  0  0
 15  6  1  0  0  0  0
 16  6  1  0  0  0  0
 17 22  1  0  0  0  0
 18 17  2  0  0  0  0
 18 19  1  0  0  0  0
 19 24  1  0  0  0  0
 19 20  2  0  0  0  0
 20 21  1  0  0  0  0
 21 25  1  0  0  0  0
 22 21  2  0  0  0  0
 23 18  1  0  0  0  0
 26  5  1  0  0  0  0
 26 27  1  0  0  0  0
 28 26  1  0  0  0  0
 29 35  1  0  0  0  0
 29 26  1  0  0  0  0
 30 29  1  0  0  0  0
 31 29  1  0  0  0  0
 32 33  1  0  0  0  0
 33 35  1  0  0  0  0
 34 33  2  0  0  0  0
 35 36  1  0  0  0  0
M  END
>  <minimizedAffinity>
-5.19449854

>  <minimizedRMSD>
2.25859404

$$$$
