
 OpenBabel03252509253D

 26 27  0  0  1  0  0  0  0  0999 V2000
   46.6240   35.0570   41.9460 C   0  0  1  0  0  0  0  0  0  0  0  0
   48.1360   35.4110   41.9950 C   0  0  0  0  0  0  0  0  0  0  0  0
   47.5080   34.1100   41.4070 C   0  0  2  0  0  0  0  0  0  0  0  0
   46.0310   35.7610   41.3250 H   0  0  0  0  0  0  0  0  0  0  0  0
   48.4520   36.1650   41.2780 H   0  0  0  0  0  0  0  0  0  0  0  0
   48.6710   35.3480   42.9390 H   0  0  0  0  0  0  0  0  0  0  0  0
   47.7780   33.2140   42.0480 H   0  0  0  0  0  0  0  0  0  0  0  0
   44.6210   35.4330   45.0960 C   0  0  0  0  0  0  0  0  0  0  0  0
   45.1230   35.7140   43.7980 C   0  0  0  0  0  0  0  0  0  0  0  0
   46.0850   34.8740   43.3470 C   0  0  0  0  0  0  0  0  0  0  0  0
   46.5480   33.8180   44.0980 N   0  0  0  0  0  0  0  0  0  0  0  0
   46.0460   33.5810   45.3300 C   0  0  0  0  0  0  0  0  0  0  0  0
   45.0760   34.3940   45.8310 N   0  0  0  0  0  0  0  0  0  0  0  0
   43.8500   36.0700   45.5080 H   0  0  0  0  0  0  0  0  0  0  0  0
   46.4960   32.7250   45.8110 H   0  0  0  0  0  0  0  0  0  0  0  0
   44.6730   36.8190   43.0570 N   0  0  0  0  0  0  0  0  0  0  0  0
   44.7500   37.7390   43.5580 H   0  0  0  0  0  0  0  0  0  0  0  0
   44.3290   36.5670   42.1200 H   0  0  0  0  0  0  0  0  0  0  0  0
   47.6050   33.8750   39.9180 C   0  0  0  0  0  0  0  0  0  0  0  0
   48.0160   34.7850   39.4300 H   0  0  0  0  0  0  0  0  0  0  0  0
   46.6060   33.6120   39.5080 H   0  0  0  0  0  0  0  0  0  0  0  0
   48.6330   30.6430   39.0300 H   0  0  0  0  0  0  0  0  0  0  0  0
   48.0090   31.5060   39.2440 C   0  0  0  0  0  0  0  0  0  0  0  0
   46.7470   31.3910   39.1280 O   0  0  0  0  0  0  0  0  0  0  0  0
   48.5140   32.7720   39.6520 N   0  0  0  0  0  0  0  0  0  0  0  0
   49.5690   32.8460   39.7430 H   0  0  0  0  0  0  0  0  0  0  0  0
  1  4  1  6  0  0  0
  1  2  1  0  0  0  0
  1 10  1  0  0  0  0
  2  6  1  0  0  0  0
  3  1  1  0  0  0  0
  3  2  1  0  0  0  0
  3  7  1  1  0  0  0
  5  2  1  0  0  0  0
  8 14  1  0  0  0  0
  8 13  1  0  0  0  0
  9  8  2  0  0  0  0
 10  9  1  0  0  0  0
 10 11  2  0  0  0  0
 11 12  1  0  0  0  0
 12 15  1  0  0  0  0
 12 13  2  0  0  0  0
 16 17  1  0  0  0  0
 16  9  1  0  0  0  0
 18 16  1  0  0  0  0
 19  3  1  0  0  0  0
 20 19  1  0  0  0  0
 21 19  1  0  0  0  0
 22 23  1  0  0  0  0
 23 25  1  0  0  0  0
 24 23  2  0  0  0  0
 25 26  1  0  0  0  0
 25 19  1  0  0  0  0
M  END
>  <minimizedAffinity>
-4.12398434

>  <minimizedRMSD>
0.174465224

$$$$
