
 OpenBabel03252508193D

 43 46  0  0  1  0  0  0  0  0999 V2000
   36.7310   31.2260   40.6830 C   0  0  0  0  0  0  0  0  0  0  0  0
   36.8790   31.7760   41.5950 H   0  0  0  0  0  0  0  0  0  0  0  0
   35.6340   31.0600   40.5240 H   0  0  0  0  0  0  0  0  0  0  0  0
   37.3020   31.7680   39.4170 C   0  0  1  0  0  0  0  0  0  0  0  0
   37.0650   33.2270   39.2110 C   0  0  0  0  0  0  0  0  0  0  0  0
   38.4140   32.7320   39.4600 C   0  0  1  0  0  0  0  0  0  0  0  0
   36.9930   31.2120   38.4870 H   0  0  0  0  0  0  0  0  0  0  0  0
   36.6140   33.8340   40.0360 H   0  0  0  0  0  0  0  0  0  0  0  0
   36.8080   33.6540   38.2220 H   0  0  0  0  0  0  0  0  0  0  0  0
   39.1030   32.7320   38.5900 H   0  0  0  0  0  0  0  0  0  0  0  0
   39.1070   32.9520   40.7680 C   0  0  2  0  0  0  0  0  0  0  0  0
   40.5700   33.4430   40.6200 C   0  0  0  0  0  0  0  0  0  0  0  0
   40.3170   32.0720   41.0830 C   0  0  1  0  0  0  0  0  0  0  0  0
   38.6220   33.4770   41.6050 H   0  0  0  0  0  0  0  0  0  0  0  0
   40.9820   33.5150   39.5810 H   0  0  0  0  0  0  0  0  0  0  0  0
   40.9500   34.2340   41.2580 H   0  0  0  0  0  0  0  0  0  0  0  0
   40.4530   31.2200   40.3780 H   0  0  0  0  0  0  0  0  0  0  0  0
   41.6430   30.6540   43.8940 H   0  0  0  0  0  0  0  0  0  0  0  0
   41.6550   30.8710   42.8330 C   0  0  0  0  0  0  0  0  0  0  0  0
   42.4890   30.5360   41.9840 O   0  0  0  0  0  0  0  0  0  0  0  0
   40.5070   31.6610   42.4600 N   0  0  0  0  0  0  0  0  0  0  0  0
   39.7580   31.9810   43.1360 H   0  0  0  0  0  0  0  0  0  0  0  0
   37.6550   29.6260   42.1460 C   0  0  0  0  0  3  0  0  0  0  0  0
   37.2730   29.8440   40.9600 C   0  0  0  0  0  3  0  0  0  0  0  0
   39.6880   26.9370   43.6390 C   0  0  0  0  0  0  0  0  0  0  0  0
   39.2630   25.8050   42.9510 C   0  0  0  0  0  0  0  0  0  0  0  0
   38.3110   25.9990   42.0110 C   0  0  0  0  0  0  0  0  0  0  0  0
   37.8100   27.2450   41.7710 N   0  0  0  0  0  0  0  0  0  0  0  0
   38.2450   28.3210   42.4600 C   0  0  0  0  0  0  0  0  0  0  0  0
   39.1750   28.1340   43.3780 N   0  0  0  0  0  0  0  0  0  0  0  0
   40.4520   26.8290   44.4030 H   0  0  0  0  0  0  0  0  0  0  0  0
   39.6730   24.8260   43.1560 H   0  0  0  0  0  0  0  0  0  0  0  0
   37.7660   24.9070   41.2050 C   0  0  0  0  0  0  0  0  0  0  0  0
   38.2640   23.6330   41.1780 C   0  0  0  0  0  0  0  0  0  0  0  0
   37.7410   22.6120   40.4140 C   0  0  0  0  0  0  0  0  0  0  0  0
   36.6410   22.8530   39.6120 C   0  0  0  0  0  0  0  0  0  0  0  0
   36.0980   24.1100   39.5980 C   0  0  0  0  0  0  0  0  0  0  0  0
   36.6660   25.1000   40.3860 C   0  0  0  0  0  0  0  0  0  0  0  0
   39.1340   23.4060   41.8020 H   0  0  0  0  0  0  0  0  0  0  0  0
   38.1600   21.6110   40.4150 H   0  0  0  0  0  0  0  0  0  0  0  0
   36.1900   22.1100   38.9990 H   0  0  0  0  0  0  0  0  0  0  0  0
   35.2530   24.3210   38.9890 H   0  0  0  0  0  0  0  0  0  0  0  0
   36.1970   26.0830   40.3400 H   0  0  0  0  0  0  0  0  0  0  0  0
  1 24  1  0  0  0  0
  1  2  1  0  0  0  0
  3  1  1  0  0  0  0
  4  7  1  6  0  0  0
  4  6  1  0  0  0  0
  4  1  1  0  0  0  0
  5  4  1  0  0  0  0
  5  6  1  0  0  0  0
  5  8  1  0  0  0  0
  6 10  1  6  0  0  0
  6 11  1  0  0  0  0
  9  5  1  0  0  0  0
 11 13  1  0  0  0  0
 11 14  1  1  0  0  0
 12 11  1  0  0  0  0
 12 13  1  0  0  0  0
 12 16  1  0  0  0  0
 13 17  1  6  0  0  0
 13 21  1  0  0  0  0
 15 12  1  0  0  0  0
 19 18  1  0  0  0  0
 20 19  2  0  0  0  0
 21 19  1  0  0  0  0
 21 22  1  0  0  0  0
 23 29  1  0  0  0  0
 24 23  2  0  0  0  0
 25 31  1  0  0  0  0
 26 32  1  0  0  0  0
 26 25  2  0  0  0  0
 27 26  1  0  0  0  0
 28 27  2  0  0  0  0
 28 29  1  0  0  0  0
 29 30  2  0  0  0  0
 30 25  1  0  0  0  0
 33 27  1  0  0  0  0
 34 33  1  0  0  0  0
 34 39  1  0  0  0  0
 35 40  1  0  0  0  0
 35 34  2  0  0  0  0
 36 35  1  0  0  0  0
 37 36  2  0  0  0  0
 37 38  1  0  0  0  0
 38 33  2  0  0  0  0
 41 36  1  0  0  0  0
 42 37  1  0  0  0  0
 43 38  1  0  0  0  0
M  END
>  <minimizedAffinity>
-5.46363974

$$$$

 OpenBabel03252508193D

 43 46  0  0  1  0  0  0  0  0999 V2000
   33.9140   27.7650   37.0900 C   0  0  0  0  0  0  0  0  0  0  0  0
   32.9350   27.6700   37.5230 H   0  0  0  0  0  0  0  0  0  0  0  0
   34.1920   26.8020   36.5870 H   0  0  0  0  0  0  0  0  0  0  0  0
   34.1680   28.8750   36.1280 C   0  0  1  0  0  0  0  0  0  0  0  0
   33.8420   28.5470   34.7090 C   0  0  0  0  0  0  0  0  0  0  0  0
   33.0430   29.5270   35.4370 C   0  0  1  0  0  0  0  0  0  0  0  0
   35.2080   29.3080   36.1740 H   0  0  0  0  0  0  0  0  0  0  0  0
   33.3230   27.5840   34.4710 H   0  0  0  0  0  0  0  0  0  0  0  0
   34.4770   28.8730   33.8620 H   0  0  0  0  0  0  0  0  0  0  0  0
   33.1890   30.5890   35.1470 H   0  0  0  0  0  0  0  0  0  0  0  0
   31.6540   29.2230   35.9060 C   0  0  2  0  0  0  0  0  0  0  0  0
   30.6620   30.3970   35.7060 C   0  0  0  0  0  0  0  0  0  0  0  0
   31.1030   30.0540   37.0640 C   0  0  1  0  0  0  0  0  0  0  0  0
   31.1560   28.2700   35.6740 H   0  0  0  0  0  0  0  0  0  0  0  0
   31.0780   31.3570   35.3080 H   0  0  0  0  0  0  0  0  0  0  0  0
   29.6600   30.2100   35.3320 H   0  0  0  0  0  0  0  0  0  0  0  0
   31.8660   30.6890   37.5700 H   0  0  0  0  0  0  0  0  0  0  0  0
   28.7110   29.4800   39.4350 H   0  0  0  0  0  0  0  0  0  0  0  0
   29.2620   30.1300   38.7680 C   0  0  0  0  0  0  0  0  0  0  0  0
   29.1390   31.3490   38.5990 O   0  0  0  0  0  0  0  0  0  0  0  0
   30.2460   29.3850   38.0220 N   0  0  0  0  0  0  0  0  0  0  0  0
   30.4030   28.3420   38.1200 H   0  0  0  0  0  0  0  0  0  0  0  0
   34.7480   28.8790   38.9920 C   0  0  0  0  0  3  0  0  0  0  0  0
   34.8620   27.8520   38.2620 C   0  0  0  0  0  3  0  0  0  0  0  0
   36.7860   30.3210   41.7040 C   0  0  0  0  0  0  0  0  0  0  0  0
   37.4570   29.2150   42.2140 C   0  0  0  0  0  0  0  0  0  0  0  0
   37.1930   28.0290   41.6190 C   0  0  0  0  0  0  0  0  0  0  0  0
   36.3140   27.9500   40.5780 N   0  0  0  0  0  0  0  0  0  0  0  0
   35.6800   29.0470   40.1100 C   0  0  0  0  0  0  0  0  0  0  0  0
   35.9360   30.2040   40.6900 N   0  0  0  0  0  0  0  0  0  0  0  0
   36.9660   31.2950   42.1510 H   0  0  0  0  0  0  0  0  0  0  0  0
   38.1500   29.2980   43.0390 H   0  0  0  0  0  0  0  0  0  0  0  0
   37.8210   26.7790   42.0420 C   0  0  0  0  0  0  0  0  0  0  0  0
   37.3540   25.5280   41.7410 C   0  0  0  0  0  0  0  0  0  0  0  0
   37.9560   24.3570   42.1470 C   0  0  0  0  0  0  0  0  0  0  0  0
   39.1080   24.4090   42.9080 C   0  0  0  0  0  0  0  0  0  0  0  0
   39.6240   25.6330   43.2410 C   0  0  0  0  0  0  0  0  0  0  0  0
   38.9760   26.7800   42.8060 C   0  0  0  0  0  0  0  0  0  0  0  0
   36.4430   25.4500   41.1390 H   0  0  0  0  0  0  0  0  0  0  0  0
   37.5590   23.3800   41.8910 H   0  0  0  0  0  0  0  0  0  0  0  0
   39.6210   23.5430   43.2530 H   0  0  0  0  0  0  0  0  0  0  0  0
   40.5090   25.6990   43.8260 H   0  0  0  0  0  0  0  0  0  0  0  0
   39.4270   27.7290   43.0970 H   0  0  0  0  0  0  0  0  0  0  0  0
  1  2  1  0  0  0  0
  1 24  1  0  0  0  0
  3  1  1  0  0  0  0
  4  7  1  1  0  0  0
  4  1  1  0  0  0  0
  5  6  1  0  0  0  0
  5  4  1  0  0  0  0
  6 10  1  6  0  0  0
  6 11  1  0  0  0  0
  6  4  1  0  0  0  0
  8  5  1  0  0  0  0
  9  5  1  0  0  0  0
 11 14  1  6  0  0  0
 11 13  1  0  0  0  0
 12 11  1  0  0  0  0
 12 13  1  0  0  0  0
 13 17  1  1  0  0  0
 13 21  1  0  0  0  0
 15 12  1  0  0  0  0
 16 12  1  0  0  0  0
 19 18  1  0  0  0  0
 20 19  2  0  0  0  0
 21 22  1  0  0  0  0
 21 19  1  0  0  0  0
 23 29  1  0  0  0  0
 24 23  2  0  0  0  0
 25 31  1  0  0  0  0
 25 26  1  0  0  0  0
 26 32  1  0  0  0  0
 27 33  1  0  0  0  0
 27 26  2  0  0  0  0
 28 27  1  0  0  0  0
 29 28  2  0  0  0  0
 29 30  1  0  0  0  0
 30 25  2  0  0  0  0
 33 38  1  0  0  0  0
 34 33  2  0  0  0  0
 34 35  1  0  0  0  0
 35 36  2  0  0  0  0
 36 37  1  0  0  0  0
 36 41  1  0  0  0  0
 37 42  1  0  0  0  0
 38 43  1  0  0  0  0
 38 37  2  0  0  0  0
 39 34  1  0  0  0  0
 40 35  1  0  0  0  0
M  END
>  <minimizedAffinity>
-5.393538

$$$$

 OpenBabel03252508193D

 43 46  0  0  1  0  0  0  0  0999 V2000
   37.0810   25.4980   39.9340 C   0  0  0  0  0  0  0  0  0  0  0  0
   38.0530   25.4440   39.4780 H   0  0  0  0  0  0  0  0  0  0  0  0
   36.2960   25.3250   39.1530 H   0  0  0  0  0  0  0  0  0  0  0  0
   36.7810   24.6090   41.0920 C   0  0  1  0  0  0  0  0  0  0  0  0
   37.5070   23.3050   41.0710 C   0  0  0  0  0  0  0  0  0  0  0  0
   37.8280   24.3050   42.0830 C   0  0  1  0  0  0  0  0  0  0  0  0
   35.6840   24.4140   41.2620 H   0  0  0  0  0  0  0  0  0  0  0  0
   38.3000   23.1280   40.3010 H   0  0  0  0  0  0  0  0  0  0  0  0
   37.0280   22.3520   41.3700 H   0  0  0  0  0  0  0  0  0  0  0  0
   37.4830   24.0840   43.1140 H   0  0  0  0  0  0  0  0  0  0  0  0
   39.0960   25.0990   42.0360 C   0  0  2  0  0  0  0  0  0  0  0  0
   39.9700   24.9470   43.3070 C   0  0  0  0  0  0  0  0  0  0  0  0
   39.2680   26.2150   43.0660 C   0  0  1  0  0  0  0  0  0  0  0  0
   39.7380   25.1200   41.1420 H   0  0  0  0  0  0  0  0  0  0  0  0
   39.5510   24.3340   44.1450 H   0  0  0  0  0  0  0  0  0  0  0  0
   41.0440   24.8270   43.2210 H   0  0  0  0  0  0  0  0  0  0  0  0
   38.3430   26.4490   43.6400 H   0  0  0  0  0  0  0  0  0  0  0  0
   39.9830   29.5020   42.4680 H   0  0  0  0  0  0  0  0  0  0  0  0
   39.3420   28.7130   42.8410 C   0  0  0  0  0  0  0  0  0  0  0  0
   38.2320   28.8070   43.3760 O   0  0  0  0  0  0  0  0  0  0  0  0
   39.9510   27.4210   42.6410 N   0  0  0  0  0  0  0  0  0  0  0  0
   40.8970   27.2720   42.1890 H   0  0  0  0  0  0  0  0  0  0  0  0
   37.4150   27.7970   39.5340 C   0  0  0  0  0  3  0  0  0  0  0  0
   36.9010   26.9480   40.3180 C   0  0  0  0  0  3  0  0  0  0  0  0
   36.2990   31.0280   40.9130 C   0  0  0  0  0  0  0  0  0  0  0  0
   37.2820   31.9100   40.4770 C   0  0  0  0  0  0  0  0  0  0  0  0
   38.2790   31.3760   39.7350 C   0  0  0  0  0  0  0  0  0  0  0  0
   38.2950   30.0440   39.4440 N   0  0  0  0  0  0  0  0  0  0  0  0
   37.3240   29.2170   39.8860 C   0  0  0  0  0  0  0  0  0  0  0  0
   36.3510   29.7360   40.6100 N   0  0  0  0  0  0  0  0  0  0  0  0
   35.4790   31.4120   41.5130 H   0  0  0  0  0  0  0  0  0  0  0  0
   37.2510   32.9640   40.7190 H   0  0  0  0  0  0  0  0  0  0  0  0
   39.3810   32.1770   39.2050 C   0  0  0  0  0  0  0  0  0  0  0  0
   39.8470   33.3340   39.7670 C   0  0  0  0  0  0  0  0  0  0  0  0
   40.8880   34.0810   39.2570 C   0  0  0  0  0  0  0  0  0  0  0  0
   41.5280   33.6630   38.1060 C   0  0  0  0  0  0  0  0  0  0  0  0
   41.1060   32.5110   37.4980 C   0  0  0  0  0  0  0  0  0  0  0  0
   40.0530   31.8000   38.0540 C   0  0  0  0  0  0  0  0  0  0  0  0
   39.3630   33.6940   40.6810 H   0  0  0  0  0  0  0  0  0  0  0  0
   41.2330   34.9950   39.7280 H   0  0  0  0  0  0  0  0  0  0  0  0
   42.3370   34.1920   37.6620 H   0  0  0  0  0  0  0  0  0  0  0  0
   41.5810   32.1690   36.6110 H   0  0  0  0  0  0  0  0  0  0  0  0
   39.7550   30.8900   37.5320 H   0  0  0  0  0  0  0  0  0  0  0  0
  1 24  1  0  0  0  0
  1  4  1  0  0  0  0
  2  1  1  0  0  0  0
  3  1  1  0  0  0  0
  4  7  1  1  0  0  0
  4  6  1  0  0  0  0
  5  4  1  0  0  0  0
  5  9  1  0  0  0  0
  5  6  1  0  0  0  0
  6 10  1  1  0  0  0
  8  5  1  0  0  0  0
 11 14  1  6  0  0  0
 11  6  1  0  0  0  0
 11 13  1  0  0  0  0
 11 12  1  0  0  0  0
 12 15  1  0  0  0  0
 13 12  1  0  0  0  0
 13 17  1  1  0  0  0
 16 12  1  0  0  0  0
 18 19  1  0  0  0  0
 19 20  2  0  0  0  0
 21 19  1  0  0  0  0
 21 13  1  0  0  0  0
 22 21  1  0  0  0  0
 23 29  1  0  0  0  0
 23 24  2  0  0  0  0
 25 31  1  0  0  0  0
 26 32  1  0  0  0  0
 26 25  2  0  0  0  0
 27 26  1  0  0  0  0
 28 27  2  0  0  0  0
 28 29  1  0  0  0  0
 29 30  2  0  0  0  0
 30 25  1  0  0  0  0
 33 27  1  0  0  0  0
 33 34  1  0  0  0  0
 34 39  1  0  0  0  0
 35 40  1  0  0  0  0
 35 34  2  0  0  0  0
 36 35  1  0  0  0  0
 37 38  1  0  0  0  0
 37 36  2  0  0  0  0
 38 33  2  0  0  0  0
 41 36  1  0  0  0  0
 42 37  1  0  0  0  0
 43 38  1  0  0  0  0
M  END
>  <minimizedAffinity>
-5.3806963

$$$$

 OpenBabel03252508193D

 43 46  0  0  1  0  0  0  0  0999 V2000
   37.6090   26.8000   39.3020 C   0  0  0  0  0  0  0  0  0  0  0  0
   37.8440   27.7230   39.8000 H   0  0  0  0  0  0  0  0  0  0  0  0
   38.5420   26.3770   38.8470 H   0  0  0  0  0  0  0  0  0  0  0  0
   36.9420   25.7150   40.0770 C   0  0  1  0  0  0  0  0  0  0  0  0
   37.8750   24.8700   40.8800 C   0  0  0  0  0  0  0  0  0  0  0  0
   36.9300   25.7580   41.5490 C   0  0  1  0  0  0  0  0  0  0  0  0
   36.2750   25.0430   39.4650 H   0  0  0  0  0  0  0  0  0  0  0  0
   38.9520   25.1640   40.9620 H   0  0  0  0  0  0  0  0  0  0  0  0
   37.7570   23.7730   40.9670 H   0  0  0  0  0  0  0  0  0  0  0  0
   36.0700   25.2660   42.0500 H   0  0  0  0  0  0  0  0  0  0  0  0
   37.3710   27.0190   42.2220 C   0  0  2  0  0  0  0  0  0  0  0  0
   36.5690   27.3490   43.5070 C   0  0  0  0  0  0  0  0  0  0  0  0
   36.3630   28.1650   42.3040 C   0  0  1  0  0  0  0  0  0  0  0  0
   38.4340   27.2580   42.3750 H   0  0  0  0  0  0  0  0  0  0  0  0
   35.7150   26.6730   43.7640 H   0  0  0  0  0  0  0  0  0  0  0  0
   37.0800   27.7040   44.3960 H   0  0  0  0  0  0  0  0  0  0  0  0
   35.4490   28.0100   41.6850 H   0  0  0  0  0  0  0  0  0  0  0  0
   36.8210   31.3720   41.2190 H   0  0  0  0  0  0  0  0  0  0  0  0
   36.3310   30.4080   41.1780 C   0  0  0  0  0  0  0  0  0  0  0  0
   35.4290   30.0300   40.4210 O   0  0  0  0  0  0  0  0  0  0  0  0
   36.8710   29.5160   42.1750 N   0  0  0  0  0  0  0  0  0  0  0  0
   37.6420   29.7770   42.8520 H   0  0  0  0  0  0  0  0  0  0  0  0
   35.5190   27.2420   38.3060 C   0  0  0  0  0  3  0  0  0  0  0  0
   36.7680   27.1930   38.1100 C   0  0  0  0  0  3  0  0  0  0  0  0
   33.9470   27.3160   34.9720 C   0  0  0  0  0  0  0  0  0  0  0  0
   32.9310   28.2530   35.1260 C   0  0  0  0  0  0  0  0  0  0  0  0
   32.8210   28.8210   36.3490 C   0  0  0  0  0  0  0  0  0  0  0  0
   33.6720   28.4760   37.3580 N   0  0  0  0  0  0  0  0  0  0  0  0
   34.6480   27.5610   37.1710 C   0  0  0  0  0  0  0  0  0  0  0  0
   34.7560   27.0060   35.9790 N   0  0  0  0  0  0  0  0  0  0  0  0
   34.0730   26.8340   34.0070 H   0  0  0  0  0  0  0  0  0  0  0  0
   32.2670   28.5130   34.3140 H   0  0  0  0  0  0  0  0  0  0  0  0
   31.8030   29.8220   36.6630 C   0  0  0  0  0  0  0  0  0  0  0  0
   31.3980   30.8170   35.8150 C   0  0  0  0  0  0  0  0  0  0  0  0
   30.4370   31.7560   36.1240 C   0  0  0  0  0  0  0  0  0  0  0  0
   29.8190   31.7200   37.3600 C   0  0  0  0  0  0  0  0  0  0  0  0
   30.1840   30.7460   38.2510 C   0  0  0  0  0  0  0  0  0  0  0  0
   31.1570   29.8280   37.8880 C   0  0  0  0  0  0  0  0  0  0  0  0
   31.8650   30.8740   34.8270 H   0  0  0  0  0  0  0  0  0  0  0  0
   30.1380   32.5320   35.4280 H   0  0  0  0  0  0  0  0  0  0  0  0
   29.0710   32.4140   37.6600 H   0  0  0  0  0  0  0  0  0  0  0  0
   29.7240   30.6980   39.2080 H   0  0  0  0  0  0  0  0  0  0  0  0
   31.4120   29.0730   38.6320 H   0  0  0  0  0  0  0  0  0  0  0  0
  1  2  1  0  0  0  0
  1  4  1  0  0  0  0
  3  1  1  0  0  0  0
  4  7  1  6  0  0  0
  4  5  1  0  0  0  0
  4  6  1  0  0  0  0
  5  8  1  0  0  0  0
  5  9  1  0  0  0  0
  5  6  1  0  0  0  0
  6 10  1  1  0  0  0
  6 11  1  0  0  0  0
 11 13  1  0  0  0  0
 11 14  1  6  0  0  0
 11 12  1  0  0  0  0
 12 15  1  0  0  0  0
 12 16  1  0  0  0  0
 13 17  1  6  0  0  0
 13 12  1  0  0  0  0
 19 18  1  0  0  0  0
 19 21  1  0  0  0  0
 20 19  2  0  0  0  0
 21 13  1  0  0  0  0
 21 22  1  0  0  0  0
 24 23  2  0  0  0  0
 24  1  1  0  0  0  0
 25 26  2  0  0  0  0
 25 30  1  0  0  0  0
 26 27  1  0  0  0  0
 27 33  1  0  0  0  0
 27 28  2  0  0  0  0
 29 28  1  0  0  0  0
 29 23  1  0  0  0  0
 30 29  2  0  0  0  0
 31 25  1  0  0  0  0
 32 26  1  0  0  0  0
 33 38  1  0  0  0  0
 34 35  1  0  0  0  0
 34 33  2  0  0  0  0
 35 36  2  0  0  0  0
 36 41  1  0  0  0  0
 36 37  1  0  0  0  0
 37 42  1  0  0  0  0
 38 37  2  0  0  0  0
 38 43  1  0  0  0  0
 39 34  1  0  0  0  0
 40 35  1  0  0  0  0
M  END
>  <minimizedAffinity>
-5.38018513

$$$$

 OpenBabel03252508193D

 43 46  0  0  1  0  0  0  0  0999 V2000
   36.9300   27.6120   39.8490 C   0  0  0  0  0  0  0  0  0  0  0  0
   37.7560   28.1070   39.3720 H   0  0  0  0  0  0  0  0  0  0  0  0
   37.2350   26.5710   40.1310 H   0  0  0  0  0  0  0  0  0  0  0  0
   36.3050   28.2480   41.0440 C   0  0  1  0  0  0  0  0  0  0  0  0
   36.8580   27.7810   42.3490 C   0  0  0  0  0  0  0  0  0  0  0  0
   37.0940   29.1490   41.9000 C   0  0  1  0  0  0  0  0  0  0  0  0
   35.1800   28.1790   41.0770 H   0  0  0  0  0  0  0  0  0  0  0  0
   37.7580   27.1160   42.3600 H   0  0  0  0  0  0  0  0  0  0  0  0
   36.2180   27.5940   43.2330 H   0  0  0  0  0  0  0  0  0  0  0  0
   36.5310   29.9420   42.4340 H   0  0  0  0  0  0  0  0  0  0  0  0
   38.4330   29.5990   41.4060 C   0  0  2  0  0  0  0  0  0  0  0  0
   39.1940   30.4990   42.4120 C   0  0  0  0  0  0  0  0  0  0  0  0
   38.6390   31.0980   41.1910 C   0  0  1  0  0  0  0  0  0  0  0  0
   39.1370   28.9080   40.9180 H   0  0  0  0  0  0  0  0  0  0  0  0
   38.6580   30.7800   43.3550 H   0  0  0  0  0  0  0  0  0  0  0  0
   40.2560   30.3540   42.5830 H   0  0  0  0  0  0  0  0  0  0  0  0
   37.7020   31.6970   41.2500 H   0  0  0  0  0  0  0  0  0  0  0  0
   40.4230   33.0280   39.0090 H   0  0  0  0  0  0  0  0  0  0  0  0
   39.8030   32.8980   39.8870 C   0  0  0  0  0  0  0  0  0  0  0  0
   39.3930   33.7550   40.6780 O   0  0  0  0  0  0  0  0  0  0  0  0
   39.4650   31.5080   40.0730 N   0  0  0  0  0  0  0  0  0  0  0  0
   39.7830   30.7270   39.4330 H   0  0  0  0  0  0  0  0  0  0  0  0
   35.0590   28.3380   38.6140 C   0  0  0  0  0  3  0  0  0  0  0  0
   35.9040   27.4080   38.7590 C   0  0  0  0  0  3  0  0  0  0  0  0
   32.8270   26.9350   36.0370 C   0  0  0  0  0  0  0  0  0  0  0  0
   31.9690   27.9940   35.7550 C   0  0  0  0  0  0  0  0  0  0  0  0
   32.1830   29.1370   36.4460 C   0  0  0  0  0  0  0  0  0  0  0  0
   33.1900   29.2200   37.3640 N   0  0  0  0  0  0  0  0  0  0  0  0
   34.0020   28.1700   37.6110 C   0  0  0  0  0  0  0  0  0  0  0  0
   33.7950   27.0550   36.9380 N   0  0  0  0  0  0  0  0  0  0  0  0
   32.6930   25.9970   35.5060 H   0  0  0  0  0  0  0  0  0  0  0  0
   31.1770   27.9080   35.0250 H   0  0  0  0  0  0  0  0  0  0  0  0
   31.3660   30.3340   36.2590 C   0  0  0  0  0  0  0  0  0  0  0  0
   30.5730   30.8980   37.2220 C   0  0  0  0  0  0  0  0  0  0  0  0
   29.8070   32.0280   37.0330 C   0  0  0  0  0  0  0  0  0  0  0  0
   29.8150   32.6610   35.8050 C   0  0  0  0  0  0  0  0  0  0  0  0
   30.5910   32.1430   34.8010 C   0  0  0  0  0  0  0  0  0  0  0  0
   31.3410   31.0030   35.0470 C   0  0  0  0  0  0  0  0  0  0  0  0
   30.5430   30.4220   38.2080 H   0  0  0  0  0  0  0  0  0  0  0  0
   29.1890   32.4490   37.8190 H   0  0  0  0  0  0  0  0  0  0  0  0
   29.2480   33.5350   35.5940 H   0  0  0  0  0  0  0  0  0  0  0  0
   30.6130   32.6120   33.8480 H   0  0  0  0  0  0  0  0  0  0  0  0
   31.9410   30.6310   34.2160 H   0  0  0  0  0  0  0  0  0  0  0  0
  1  3  1  0  0  0  0
  1  4  1  0  0  0  0
  2  1  1  0  0  0  0
  4  7  1  6  0  0  0
  4  6  1  0  0  0  0
  4  5  1  0  0  0  0
  5  8  1  0  0  0  0
  5  9  1  0  0  0  0
  6  5  1  0  0  0  0
  6 10  1  1  0  0  0
 11 14  1  6  0  0  0
 11  6  1  0  0  0  0
 11 12  1  0  0  0  0
 12 16  1  0  0  0  0
 12 15  1  0  0  0  0
 13 17  1  1  0  0  0
 13 11  1  0  0  0  0
 13 12  1  0  0  0  0
 18 19  1  0  0  0  0
 19 21  1  0  0  0  0
 19 20  2  0  0  0  0
 21 13  1  0  0  0  0
 22 21  1  0  0  0  0
 23 24  2  0  0  0  0
 24  1  1  0  0  0  0
 25 30  1  0  0  0  0
 26 25  2  0  0  0  0
 26 27  1  0  0  0  0
 27 28  2  0  0  0  0
 28 29  1  0  0  0  0
 29 23  1  0  0  0  0
 30 29  2  0  0  0  0
 31 25  1  0  0  0  0
 32 26  1  0  0  0  0
 33 27  1  0  0  0  0
 33 34  1  0  0  0  0
 34 39  1  0  0  0  0
 35 34  2  0  0  0  0
 35 40  1  0  0  0  0
 36 35  1  0  0  0  0
 37 38  1  0  0  0  0
 37 36  2  0  0  0  0
 38 33  2  0  0  0  0
 41 36  1  0  0  0  0
 42 37  1  0  0  0  0
 43 38  1  0  0  0  0
M  END
>  <minimizedAffinity>
-5.35432291

$$$$

 OpenBabel03252508193D

 43 46  0  0  1  0  0  0  0  0999 V2000
   36.7620   28.3450   39.0230 C   0  0  0  0  0  0  0  0  0  0  0  0
   37.6190   28.2180   38.3870 H   0  0  0  0  0  0  0  0  0  0  0  0
   36.5580   27.3850   39.5650 H   0  0  0  0  0  0  0  0  0  0  0  0
   36.7690   29.4470   40.0260 C   0  0  1  0  0  0  0  0  0  0  0  0
   35.4490   29.6980   40.6750 C   0  0  0  0  0  0  0  0  0  0  0  0
   36.5550   29.1510   41.4530 C   0  0  1  0  0  0  0  0  0  0  0  0
   37.1820   30.4250   39.6460 H   0  0  0  0  0  0  0  0  0  0  0  0
   34.6000   28.9940   40.4860 H   0  0  0  0  0  0  0  0  0  0  0  0
   35.0760   30.7180   40.8900 H   0  0  0  0  0  0  0  0  0  0  0  0
   37.0310   29.8430   42.1790 H   0  0  0  0  0  0  0  0  0  0  0  0
   36.5840   27.7190   41.8890 C   0  0  2  0  0  0  0  0  0  0  0  0
   36.5800   27.5400   43.4280 C   0  0  0  0  0  0  0  0  0  0  0  0
   37.8060   27.2450   42.6750 C   0  0  1  0  0  0  0  0  0  0  0  0
   35.9430   26.9550   41.4230 H   0  0  0  0  0  0  0  0  0  0  0  0
   36.6280   28.4690   44.0520 H   0  0  0  0  0  0  0  0  0  0  0  0
   35.9590   26.7800   43.8900 H   0  0  0  0  0  0  0  0  0  0  0  0
   38.6470   27.9740   42.6880 H   0  0  0  0  0  0  0  0  0  0  0  0
   39.7260   24.4200   42.7160 H   0  0  0  0  0  0  0  0  0  0  0  0
   39.5290   25.4480   42.9900 C   0  0  0  0  0  0  0  0  0  0  0  0
   40.2190   26.2120   43.6750 O   0  0  0  0  0  0  0  0  0  0  0  0
   38.2740   25.8950   42.4360 N   0  0  0  0  0  0  0  0  0  0  0  0
   37.6370   25.2920   41.8420 H   0  0  0  0  0  0  0  0  0  0  0  0
   34.9590   27.4260   37.8150 C   0  0  0  0  0  3  0  0  0  0  0  0
   35.5880   28.4900   38.0840 C   0  0  0  0  0  3  0  0  0  0  0  0
   32.4280   26.5750   35.2740 C   0  0  0  0  0  0  0  0  0  0  0  0
   31.7300   27.7680   35.1150 C   0  0  0  0  0  0  0  0  0  0  0  0
   32.1460   28.8090   35.8720 C   0  0  0  0  0  0  0  0  0  0  0  0
   33.1930   28.6700   36.7360 N   0  0  0  0  0  0  0  0  0  0  0  0
   33.8460   27.4950   36.8630 C   0  0  0  0  0  0  0  0  0  0  0  0
   33.4420   26.4790   36.1260 N   0  0  0  0  0  0  0  0  0  0  0  0
   32.1290   25.7120   34.6860 H   0  0  0  0  0  0  0  0  0  0  0  0
   30.9030   27.8580   34.4250 H   0  0  0  0  0  0  0  0  0  0  0  0
   31.5130   30.1260   35.8160 C   0  0  0  0  0  0  0  0  0  0  0  0
   31.5330   30.9560   34.7280 C   0  0  0  0  0  0  0  0  0  0  0  0
   30.9310   32.1960   34.6870 C   0  0  0  0  0  0  0  0  0  0  0  0
   30.2540   32.6630   35.7980 C   0  0  0  0  0  0  0  0  0  0  0  0
   30.2000   31.8760   36.9170 C   0  0  0  0  0  0  0  0  0  0  0  0
   30.8240   30.6370   36.9030 C   0  0  0  0  0  0  0  0  0  0  0  0
   32.0600   30.6170   33.8300 H   0  0  0  0  0  0  0  0  0  0  0  0
   30.9660   32.8300   33.8080 H   0  0  0  0  0  0  0  0  0  0  0  0
   29.7690   33.6100   35.8320 H   0  0  0  0  0  0  0  0  0  0  0  0
   29.6860   32.2130   37.7840 H   0  0  0  0  0  0  0  0  0  0  0  0
   30.7510   30.0490   37.8170 H   0  0  0  0  0  0  0  0  0  0  0  0
  1  3  1  0  0  0  0
  1  4  1  0  0  0  0
  2  1  1  0  0  0  0
  4  7  1  6  0  0  0
  4  5  1  0  0  0  0
  4  6  1  0  0  0  0
  5  9  1  0  0  0  0
  5  6  1  0  0  0  0
  6 11  1  0  0  0  0
  6 10  1  1  0  0  0
  8  5  1  0  0  0  0
 11 14  1  6  0  0  0
 11 13  1  0  0  0  0
 11 12  1  0  0  0  0
 12 16  1  0  0  0  0
 12 15  1  0  0  0  0
 13 17  1  1  0  0  0
 13 12  1  0  0  0  0
 18 19  1  0  0  0  0
 19 20  2  0  0  0  0
 21 13  1  0  0  0  0
 21 19  1  0  0  0  0
 22 21  1  0  0  0  0
 23 24  2  0  0  0  0
 24  1  1  0  0  0  0
 25 30  1  0  0  0  0
 26 25  2  0  0  0  0
 26 27  1  0  0  0  0
 27 28  2  0  0  0  0
 28 29  1  0  0  0  0
 29 23  1  0  0  0  0
 30 29  2  0  0  0  0
 31 25  1  0  0  0  0
 32 26  1  0  0  0  0
 33 27  1  0  0  0  0
 33 38  1  0  0  0  0
 34 33  2  0  0  0  0
 35 34  1  0  0  0  0
 35 36  2  0  0  0  0
 36 41  1  0  0  0  0
 36 37  1  0  0  0  0
 37 42  1  0  0  0  0
 38 37  2  0  0  0  0
 38 43  1  0  0  0  0
 39 34  1  0  0  0  0
 40 35  1  0  0  0  0
M  END
>  <minimizedAffinity>
-5.29709053

$$$$

 OpenBabel03252508193D

 43 46  0  0  1  0  0  0  0  0999 V2000
   39.1470   26.8000   43.6130 C   0  0  0  0  0  0  0  0  0  0  0  0
   38.1440   26.4920   43.8500 H   0  0  0  0  0  0  0  0  0  0  0  0
   39.6770   27.0930   44.5570 H   0  0  0  0  0  0  0  0  0  0  0  0
   40.0280   25.8590   42.8640 C   0  0  1  0  0  0  0  0  0  0  0  0
   39.9190   24.4350   43.2990 C   0  0  0  0  0  0  0  0  0  0  0  0
   39.4400   24.8380   41.9810 C   0  0  1  0  0  0  0  0  0  0  0  0
   41.1160   26.1530   42.8430 H   0  0  0  0  0  0  0  0  0  0  0  0
   39.1250   24.1420   44.0300 H   0  0  0  0  0  0  0  0  0  0  0  0
   40.8000   23.7710   43.3850 H   0  0  0  0  0  0  0  0  0  0  0  0
   40.0580   24.5160   41.1170 H   0  0  0  0  0  0  0  0  0  0  0  0
   37.9800   24.9340   41.6660 C   0  0  2  0  0  0  0  0  0  0  0  0
   37.4280   23.7020   40.9050 C   0  0  0  0  0  0  0  0  0  0  0  0
   37.5780   24.9770   40.1920 C   0  0  1  0  0  0  0  0  0  0  0  0
   37.2430   25.2720   42.4100 H   0  0  0  0  0  0  0  0  0  0  0  0
   38.1650   22.9120   40.6070 H   0  0  0  0  0  0  0  0  0  0  0  0
   36.4700   23.2720   41.1780 H   0  0  0  0  0  0  0  0  0  0  0  0
   38.4330   25.1190   39.4930 H   0  0  0  0  0  0  0  0  0  0  0  0
   35.7150   27.6090   39.0640 H   0  0  0  0  0  0  0  0  0  0  0  0
   36.6590   27.1260   39.2780 C   0  0  0  0  0  0  0  0  0  0  0  0
   37.8050   27.5590   39.1080 O   0  0  0  0  0  0  0  0  0  0  0  0
   36.4480   25.8100   39.8290 N   0  0  0  0  0  0  0  0  0  0  0  0
   35.4950   25.3820   39.9990 H   0  0  0  0  0  0  0  0  0  0  0  0
   37.8100   28.4800   42.6430 C   0  0  0  0  0  3  0  0  0  0  0  0
   38.9970   28.1000   42.8600 C   0  0  0  0  0  3  0  0  0  0  0  0
   36.2710   31.2200   40.7140 C   0  0  0  0  0  0  0  0  0  0  0  0
   37.3550   32.0390   40.4150 C   0  0  0  0  0  0  0  0  0  0  0  0
   38.5590   31.6290   40.8760 C   0  0  0  0  0  0  0  0  0  0  0  0
   38.6770   30.4740   41.5920 N   0  0  0  0  0  0  0  0  0  0  0  0
   37.6010   29.7050   41.8640 C   0  0  0  0  0  0  0  0  0  0  0  0
   36.4260   30.1030   41.4160 N   0  0  0  0  0  0  0  0  0  0  0  0
   35.2850   31.5080   40.3650 H   0  0  0  0  0  0  0  0  0  0  0  0
   37.2410   32.9500   39.8460 H   0  0  0  0  0  0  0  0  0  0  0  0
   39.7890   32.3830   40.6410 C   0  0  0  0  0  0  0  0  0  0  0  0
   39.8990   33.4580   39.8010 C   0  0  0  0  0  0  0  0  0  0  0  0
   41.0650   34.1610   39.5880 C   0  0  0  0  0  0  0  0  0  0  0  0
   42.2200   33.7850   40.2480 C   0  0  0  0  0  0  0  0  0  0  0  0
   42.1720   32.7160   41.1030 C   0  0  0  0  0  0  0  0  0  0  0  0
   40.9710   32.0440   41.2790 C   0  0  0  0  0  0  0  0  0  0  0  0
   39.0030   33.7840   39.2620 H   0  0  0  0  0  0  0  0  0  0  0  0
   41.1180   35.0100   38.9140 H   0  0  0  0  0  0  0  0  0  0  0  0
   43.1510   34.2850   40.1290 H   0  0  0  0  0  0  0  0  0  0  0  0
   43.0460   32.4070   41.6220 H   0  0  0  0  0  0  0  0  0  0  0  0
   40.9850   31.2010   41.9690 H   0  0  0  0  0  0  0  0  0  0  0  0
  1  2  1  0  0  0  0
  1  3  1  0  0  0  0
  4  7  1  6  0  0  0
  4  5  1  0  0  0  0
  4  1  1  0  0  0  0
  5  9  1  0  0  0  0
  5  8  1  0  0  0  0
  6 10  1  6  0  0  0
  6  4  1  0  0  0  0
  6  5  1  0  0  0  0
 11  6  1  0  0  0  0
 11 14  1  1  0  0  0
 12 16  1  0  0  0  0
 12 11  1  0  0  0  0
 13 17  1  6  0  0  0
 13 12  1  0  0  0  0
 13 11  1  0  0  0  0
 15 12  1  0  0  0  0
 18 19  1  0  0  0  0
 19 21  1  0  0  0  0
 20 19  2  0  0  0  0
 21 22  1  0  0  0  0
 21 13  1  0  0  0  0
 23 24  2  0  0  0  0
 24  1  1  0  0  0  0
 25 30  1  0  0  0  0
 26 25  2  0  0  0  0
 26 27  1  0  0  0  0
 27 28  2  0  0  0  0
 28 29  1  0  0  0  0
 29 23  1  0  0  0  0
 30 29  2  0  0  0  0
 31 25  1  0  0  0  0
 32 26  1  0  0  0  0
 33 27  1  0  0  0  0
 33 38  1  0  0  0  0
 34 33  2  0  0  0  0
 35 34  1  0  0  0  0
 35 36  2  0  0  0  0
 36 37  1  0  0  0  0
 37 38  2  0  0  0  0
 37 42  1  0  0  0  0
 38 43  1  0  0  0  0
 39 34  1  0  0  0  0
 40 35  1  0  0  0  0
 41 36  1  0  0  0  0
M  END
>  <minimizedAffinity>
-5.28502131

$$$$

 OpenBabel03252508193D

 43 46  0  0  1  0  0  0  0  0999 V2000
   37.3560   32.6680   39.6820 C   0  0  0  0  0  0  0  0  0  0  0  0
   37.0850   32.9220   40.6900 H   0  0  0  0  0  0  0  0  0  0  0  0
   36.8590   33.3800   38.9730 H   0  0  0  0  0  0  0  0  0  0  0  0
   38.8020   32.5980   39.3250 C   0  0  1  0  0  0  0  0  0  0  0  0
   39.6350   33.6890   39.9110 C   0  0  0  0  0  0  0  0  0  0  0  0
   39.8080   32.3120   40.3620 C   0  0  1  0  0  0  0  0  0  0  0  0
   39.0090   32.5330   38.2190 H   0  0  0  0  0  0  0  0  0  0  0  0
   39.1810   34.3870   40.6580 H   0  0  0  0  0  0  0  0  0  0  0  0
   40.4440   34.1890   39.3440 H   0  0  0  0  0  0  0  0  0  0  0  0
   40.7340   31.8010   40.0260 H   0  0  0  0  0  0  0  0  0  0  0  0
   39.3280   31.8540   41.7030 C   0  0  2  0  0  0  0  0  0  0  0  0
   40.3860   31.0460   42.4970 C   0  0  0  0  0  0  0  0  0  0  0  0
   39.2210   30.3470   41.9380 C   0  0  1  0  0  0  0  0  0  0  0  0
   38.7790   32.5210   42.3860 H   0  0  0  0  0  0  0  0  0  0  0  0
   41.3540   30.8260   41.9810 H   0  0  0  0  0  0  0  0  0  0  0  0
   40.5290   31.2250   43.5580 H   0  0  0  0  0  0  0  0  0  0  0  0
   39.3390   29.7360   41.0150 H   0  0  0  0  0  0  0  0  0  0  0  0
   37.2960   28.3820   43.9630 H   0  0  0  0  0  0  0  0  0  0  0  0
   38.1940   28.5800   43.3930 C   0  0  0  0  0  0  0  0  0  0  0  0
   39.1910   27.8630   43.2480 O   0  0  0  0  0  0  0  0  0  0  0  0
   38.1240   29.8720   42.7560 N   0  0  0  0  0  0  0  0  0  0  0  0
   37.3000   30.5330   42.8400 H   0  0  0  0  0  0  0  0  0  0  0  0
   37.0700   30.7260   38.3770 C   0  0  0  0  0  3  0  0  0  0  0  0
   36.6780   31.3470   39.4080 C   0  0  0  0  0  3  0  0  0  0  0  0
   35.0250   28.1600   36.6970 C   0  0  0  0  0  0  0  0  0  0  0  0
   35.2290   27.0320   37.4850 C   0  0  0  0  0  0  0  0  0  0  0  0
   36.0470   27.1870   38.5510 C   0  0  0  0  0  0  0  0  0  0  0  0
   36.6270   28.3930   38.8160 N   0  0  0  0  0  0  0  0  0  0  0  0
   36.4070   29.4670   38.0280 C   0  0  0  0  0  0  0  0  0  0  0  0
   35.6090   29.3170   36.9870 N   0  0  0  0  0  0  0  0  0  0  0  0
   34.3760   28.0830   35.8300 H   0  0  0  0  0  0  0  0  0  0  0  0
   34.7590   26.0850   37.2580 H   0  0  0  0  0  0  0  0  0  0  0  0
   36.3560   26.0940   39.4710 C   0  0  0  0  0  0  0  0  0  0  0  0
   36.1310   24.7690   39.2140 C   0  0  0  0  0  0  0  0  0  0  0  0
   36.4270   23.7470   40.0910 C   0  0  0  0  0  0  0  0  0  0  0  0
   36.9900   24.0420   41.3180 C   0  0  0  0  0  0  0  0  0  0  0  0
   37.2390   25.3520   41.6320 C   0  0  0  0  0  0  0  0  0  0  0  0
   36.9200   26.3390   40.7120 C   0  0  0  0  0  0  0  0  0  0  0  0
   35.6870   24.4990   38.2510 H   0  0  0  0  0  0  0  0  0  0  0  0
   36.2360   22.7060   39.8560 H   0  0  0  0  0  0  0  0  0  0  0  0
   37.2420   23.3010   42.0390 H   0  0  0  0  0  0  0  0  0  0  0  0
   37.6710   25.6040   42.5700 H   0  0  0  0  0  0  0  0  0  0  0  0
   37.1380   27.3650   41.0090 H   0  0  0  0  0  0  0  0  0  0  0  0
  1  2  1  0  0  0  0
  3  1  1  0  0  0  0
  4  7  1  6  0  0  0
  4  1  1  0  0  0  0
  4  5  1  0  0  0  0
  4  6  1  0  0  0  0
  5  6  1  0  0  0  0
  5  8  1  0  0  0  0
  6 10  1  6  0  0  0
  6 11  1  0  0  0  0
  9  5  1  0  0  0  0
 11 13  1  0  0  0  0
 11 14  1  1  0  0  0
 11 12  1  0  0  0  0
 12 16  1  0  0  0  0
 13 17  1  6  0  0  0
 13 12  1  0  0  0  0
 13 21  1  0  0  0  0
 15 12  1  0  0  0  0
 19 18  1  0  0  0  0
 20 19  2  0  0  0  0
 21 22  1  0  0  0  0
 21 19  1  0  0  0  0
 23 24  2  0  0  0  0
 24  1  1  0  0  0  0
 25 30  2  0  0  0  0
 25 26  1  0  0  0  0
 26 27  2  0  0  0  0
 27 28  1  0  0  0  0
 27 33  1  0  0  0  0
 29 23  1  0  0  0  0
 29 28  2  0  0  0  0
 30 29  1  0  0  0  0
 31 25  1  0  0  0  0
 32 26  1  0  0  0  0
 33 38  1  0  0  0  0
 34 33  2  0  0  0  0
 34 35  1  0  0  0  0
 35 36  2  0  0  0  0
 36 37  1  0  0  0  0
 36 41  1  0  0  0  0
 37 42  1  0  0  0  0
 38 43  1  0  0  0  0
 38 37  2  0  0  0  0
 39 34  1  0  0  0  0
 40 35  1  0  0  0  0
M  END
>  <minimizedAffinity>
-5.24639702

$$$$

 OpenBabel03252508193D

 43 46  0  0  1  0  0  0  0  0999 V2000
   34.2310   28.9220   38.6240 C   0  0  0  0  0  0  0  0  0  0  0  0
   33.9150   29.8000   38.0910 H   0  0  0  0  0  0  0  0  0  0  0  0
   33.4510   28.6490   39.3820 H   0  0  0  0  0  0  0  0  0  0  0  0
   34.5670   27.6940   37.8480 C   0  0  1  0  0  0  0  0  0  0  0  0
   33.6940   27.4580   36.6600 C   0  0  0  0  0  0  0  0  0  0  0  0
   35.1000   27.8060   36.4790 C   0  0  1  0  0  0  0  0  0  0  0  0
   34.6140   26.7500   38.4610 H   0  0  0  0  0  0  0  0  0  0  0  0
   32.9600   28.2440   36.3510 H   0  0  0  0  0  0  0  0  0  0  0  0
   33.3350   26.4500   36.3770 H   0  0  0  0  0  0  0  0  0  0  0  0
   35.7660   26.9860   36.1390 H   0  0  0  0  0  0  0  0  0  0  0  0
   35.5230   29.1580   35.9950 C   0  0  2  0  0  0  0  0  0  0  0  0
   36.4910   29.1070   34.7850 C   0  0  0  0  0  0  0  0  0  0  0  0
   37.0060   29.5120   36.1000 C   0  0  1  0  0  0  0  0  0  0  0  0
   34.8050   29.9820   35.8640 H   0  0  0  0  0  0  0  0  0  0  0  0
   36.8290   28.0970   34.4430 H   0  0  0  0  0  0  0  0  0  0  0  0
   36.3630   29.7900   33.9520 H   0  0  0  0  0  0  0  0  0  0  0  0
   37.6030   28.7900   36.7020 H   0  0  0  0  0  0  0  0  0  0  0  0
   38.4720   32.2410   37.5400 H   0  0  0  0  0  0  0  0  0  0  0  0
   38.3400   31.1730   37.4260 C   0  0  0  0  0  0  0  0  0  0  0  0
   38.9120   30.2550   38.0260 O   0  0  0  0  0  0  0  0  0  0  0  0
   37.3470   30.8840   36.4210 N   0  0  0  0  0  0  0  0  0  0  0  0
   36.8220   31.6220   35.8730 H   0  0  0  0  0  0  0  0  0  0  0  0
   35.7020   28.6240   40.4400 C   0  0  0  0  0  3  0  0  0  0  0  0
   35.4110   29.3630   39.4550 C   0  0  0  0  0  3  0  0  0  0  0  0
   38.1320   28.8050   43.2070 C   0  0  0  0  0  0  0  0  0  0  0  0
   38.9030   29.9130   42.8740 C   0  0  0  0  0  0  0  0  0  0  0  0
   38.5690   30.5530   41.7300 C   0  0  0  0  0  0  0  0  0  0  0  0
   37.5290   30.1150   40.9640 N   0  0  0  0  0  0  0  0  0  0  0  0
   36.8020   29.0340   41.3190 C   0  0  0  0  0  0  0  0  0  0  0  0
   37.1270   28.4080   42.4340 N   0  0  0  0  0  0  0  0  0  0  0  0
   38.3640   28.2600   44.1170 H   0  0  0  0  0  0  0  0  0  0  0  0
   39.7240   30.2450   43.4950 H   0  0  0  0  0  0  0  0  0  0  0  0
   39.2860   31.7330   41.2500 C   0  0  0  0  0  0  0  0  0  0  0  0
   40.6480   31.8540   41.2030 C   0  0  0  0  0  0  0  0  0  0  0  0
   41.3120   32.9730   40.7470 C   0  0  0  0  0  0  0  0  0  0  0  0
   40.5880   34.0620   40.3000 C   0  0  0  0  0  0  0  0  0  0  0  0
   39.2210   33.9990   40.3220 C   0  0  0  0  0  0  0  0  0  0  0  0
   38.6050   32.8490   40.7920 C   0  0  0  0  0  0  0  0  0  0  0  0
   41.2530   31.0100   41.5490 H   0  0  0  0  0  0  0  0  0  0  0  0
   42.3950   33.0370   40.7230 H   0  0  0  0  0  0  0  0  0  0  0  0
   41.0390   34.9540   39.9360 H   0  0  0  0  0  0  0  0  0  0  0  0
   38.6420   34.8240   39.9840 H   0  0  0  0  0  0  0  0  0  0  0  0
   37.5150   32.8490   40.7890 H   0  0  0  0  0  0  0  0  0  0  0  0
  1  3  1  0  0  0  0
  1 24  1  0  0  0  0
  2  1  1  0  0  0  0
  4  7  1  1  0  0  0
  4  1  1  0  0  0  0
  5  4  1  0  0  0  0
  6 10  1  6  0  0  0
  6  5  1  0  0  0  0
  6  4  1  0  0  0  0
  8  5  1  0  0  0  0
  9  5  1  0  0  0  0
 11 14  1  1  0  0  0
 11 13  1  0  0  0  0
 11  6  1  0  0  0  0
 12 11  1  0  0  0  0
 12 13  1  0  0  0  0
 13 21  1  0  0  0  0
 13 17  1  1  0  0  0
 15 12  1  0  0  0  0
 16 12  1  0  0  0  0
 19 18  1  0  0  0  0
 19 20  2  0  0  0  0
 21 19  1  0  0  0  0
 22 21  1  0  0  0  0
 23 29  1  0  0  0  0
 24 23  2  0  0  0  0
 25 31  1  0  0  0  0
 26 25  1  0  0  0  0
 26 32  1  0  0  0  0
 27 26  2  0  0  0  0
 28 29  2  0  0  0  0
 28 27  1  0  0  0  0
 29 30  1  0  0  0  0
 30 25  2  0  0  0  0
 33 27  1  0  0  0  0
 34 33  1  0  0  0  0
 34 39  1  0  0  0  0
 35 34  2  0  0  0  0
 36 37  2  0  0  0  0
 36 35  1  0  0  0  0
 37 38  1  0  0  0  0
 38 33  2  0  0  0  0
 40 35  1  0  0  0  0
 41 36  1  0  0  0  0
 42 37  1  0  0  0  0
 43 38  1  0  0  0  0
M  END
>  <minimizedAffinity>
-5.1890173

$$$$
