
 OpenBabel03252509123D

 27 29  0  0  0  0  0  0  0  0999 V2000
   39.5200   30.3010   41.6760 C   0  0  0  0  0  0  0  0  0  0  0  0
   38.1880   29.9610   41.5890 C   0  0  0  0  0  0  0  0  0  0  0  0
   37.2470   30.8370   41.0960 C   0  0  0  0  0  0  0  0  0  0  0  0
   37.6050   32.1050   40.6650 C   0  0  0  0  0  0  0  0  0  0  0  0
   36.9470   33.1820   40.1410 N   0  0  0  0  0  0  0  0  0  0  0  0
   37.8830   34.1610   39.9170 C   0  0  0  0  0  0  0  0  0  0  0  0
   39.0960   33.6630   40.3080 N   0  0  0  0  0  0  0  0  0  0  0  0
   38.9500   32.4140   40.7660 C   0  0  0  0  0  0  0  0  0  0  0  0
   39.9110   31.5700   41.2510 C   0  0  0  0  0  0  0  0  0  0  0  0
   40.2060   29.5570   42.0770 H   0  0  0  0  0  0  0  0  0  0  0  0
   35.9220   33.1800   39.9730 H   0  0  0  0  0  0  0  0  0  0  0  0
   37.5430   35.0920   39.5010 H   0  0  0  0  0  0  0  0  0  0  0  0
   40.9560   31.8330   41.3200 H   0  0  0  0  0  0  0  0  0  0  0  0
   36.5770   27.3030   43.5480 C   0  0  0  0  0  0  0  0  0  0  0  0
   36.9560   26.1440   42.8340 C   0  0  0  0  0  0  0  0  0  0  0  0
   37.7680   26.2780   41.6760 C   0  0  0  0  0  0  0  0  0  0  0  0
   38.1220   27.5560   41.3430 N   0  0  0  0  0  0  0  0  0  0  0  0
   37.7570   28.6430   42.0270 C   0  0  0  0  0  0  0  0  0  0  0  0
   36.9850   28.5160   43.1280 N   0  0  0  0  0  0  0  0  0  0  0  0
   35.9600   27.1700   44.4240 H   0  0  0  0  0  0  0  0  0  0  0  0
   36.6480   25.1390   43.1380 H   0  0  0  0  0  0  0  0  0  0  0  0
   38.0770   25.4240   41.1050 H   0  0  0  0  0  0  0  0  0  0  0  0
   34.4560   29.5160   39.5130 H   0  0  0  0  0  0  0  0  0  0  0  0
   35.4390   29.8440   39.8090 C   0  0  0  0  0  0  0  0  0  0  0  0
   36.1760   29.4670   38.8450 O   0  0  0  0  0  0  0  0  0  0  0  0
   35.8540   30.5320   40.9840 N   0  0  0  0  0  0  0  0  0  0  0  0
   35.0730   30.7440   41.6480 H   0  0  0  0  0  0  0  0  0  0  0  0
  1 10  1  0  0  0  0
  2  1  1  0  0  0  0
  2 18  1  0  0  0  0
  3  2  2  0  0  0  0
  4  8  2  0  0  0  0
  4  3  1  0  0  0  0
  5  4  1  0  0  0  0
  6  5  1  0  0  0  0
  6  7  2  0  0  0  0
  7  8  1  0  0  0  0
  8  9  1  0  0  0  0
  9 13  1  0  0  0  0
  9  1  2  0  0  0  0
 11  5  1  0  0  0  0
 12  6  1  0  0  0  0
 14 20  1  0  0  0  0
 15 21  1  0  0  0  0
 15 14  2  0  0  0  0
 16 15  1  0  0  0  0
 17 16  2  0  0  0  0
 17 18  1  0  0  0  0
 18 19  2  0  0  0  0
 19 14  1  0  0  0  0
 22 16  1  0  0  0  0
 23 24  1  0  0  0  0
 24 26  1  0  0  0  0
 25 24  2  0  0  0  0
 26  3  1  0  0  0  0
 26 27  1  0  0  0  0
M  END
>  <minimizedAffinity>
-5.37496614

$$$$

 OpenBabel03252509123D

 27 29  0  0  0  0  0  0  0  0999 V2000
   40.1720   29.8990   42.2430 C   0  0  0  0  0  0  0  0  0  0  0  0
   39.1860   30.6220   41.6100 C   0  0  0  0  0  0  0  0  0  0  0  0
   37.8660   30.2310   41.6410 C   0  0  0  0  0  0  0  0  0  0  0  0
   37.4750   29.0850   42.3160 C   0  0  0  0  0  0  0  0  0  0  0  0
   36.2940   28.4350   42.5360 N   0  0  0  0  0  0  0  0  0  0  0  0
   36.5740   27.3280   43.2980 C   0  0  0  0  0  0  0  0  0  0  0  0
   37.9220   27.3220   43.5290 N   0  0  0  0  0  0  0  0  0  0  0  0
   38.4900   28.3820   42.9410 C   0  0  0  0  0  0  0  0  0  0  0  0
   39.8100   28.7410   42.9300 C   0  0  0  0  0  0  0  0  0  0  0  0
   41.1930   30.2700   42.1750 H   0  0  0  0  0  0  0  0  0  0  0  0
   35.3890   28.7810   42.1600 H   0  0  0  0  0  0  0  0  0  0  0  0
   35.7540   26.6900   43.5740 H   0  0  0  0  0  0  0  0  0  0  0  0
   40.5860   28.1770   43.4260 H   0  0  0  0  0  0  0  0  0  0  0  0
   40.8710   32.9200   39.2910 C   0  0  0  0  0  0  0  0  0  0  0  0
   40.1910   34.1350   39.5370 C   0  0  0  0  0  0  0  0  0  0  0  0
   39.1490   34.1610   40.5040 C   0  0  0  0  0  0  0  0  0  0  0  0
   38.8890   32.9730   41.1300 N   0  0  0  0  0  0  0  0  0  0  0  0
   39.5400   31.8330   40.8870 C   0  0  0  0  0  0  0  0  0  0  0  0
   40.5300   31.8080   39.9690 N   0  0  0  0  0  0  0  0  0  0  0  0
   41.6580   32.9310   38.5510 H   0  0  0  0  0  0  0  0  0  0  0  0
   40.4340   35.0620   39.0100 H   0  0  0  0  0  0  0  0  0  0  0  0
   38.6080   35.0610   40.7200 H   0  0  0  0  0  0  0  0  0  0  0  0
   35.7730   30.9930   38.9810 H   0  0  0  0  0  0  0  0  0  0  0  0
   36.5160   30.5950   39.6520 C   0  0  0  0  0  0  0  0  0  0  0  0
   37.1000   29.7100   38.9510 O   0  0  0  0  0  0  0  0  0  0  0  0
   36.8050   30.9460   41.0010 N   0  0  0  0  0  0  0  0  0  0  0  0
   36.1950   31.7060   41.3800 H   0  0  0  0  0  0  0  0  0  0  0  0
  1  9  1  0  0  0  0
  2  3  1  0  0  0  0
  2  1  2  0  0  0  0
  3  4  2  0  0  0  0
  4  5  1  0  0  0  0
  4  8  1  0  0  0  0
  5  6  1  0  0  0  0
  6  7  2  0  0  0  0
  6 12  1  0  0  0  0
  8  7  1  0  0  0  0
  9  8  2  0  0  0  0
  9 13  1  0  0  0  0
 10  1  1  0  0  0  0
 11  5  1  0  0  0  0
 14 15  2  0  0  0  0
 14 19  1  0  0  0  0
 15 16  1  0  0  0  0
 16 22  1  0  0  0  0
 16 17  2  0  0  0  0
 18 17  1  0  0  0  0
 18  2  1  0  0  0  0
 19 18  2  0  0  0  0
 20 14  1  0  0  0  0
 21 15  1  0  0  0  0
 23 24  1  0  0  0  0
 24 26  1  0  0  0  0
 25 24  2  0  0  0  0
 26 27  1  0  0  0  0
 26  3  1  0  0  0  0
M  END
>  <minimizedAffinity>
-5.03443432

$$$$

 OpenBabel03252509123D

 27 29  0  0  0  0  0  0  0  0999 V2000
   36.7140   30.9970   40.5320 C   0  0  0  0  0  0  0  0  0  0  0  0
   37.6970   30.3150   41.2140 C   0  0  0  0  0  0  0  0  0  0  0  0
   38.9290   30.8770   41.4650 C   0  0  0  0  0  0  0  0  0  0  0  0
   39.2300   32.1620   41.0390 C   0  0  0  0  0  0  0  0  0  0  0  0
   40.3140   32.9890   41.1180 N   0  0  0  0  0  0  0  0  0  0  0  0
   39.9790   34.1610   40.4850 C   0  0  0  0  0  0  0  0  0  0  0  0
   38.6950   34.0270   40.0310 N   0  0  0  0  0  0  0  0  0  0  0  0
   38.2200   32.8190   40.3580 C   0  0  0  0  0  0  0  0  0  0  0  0
   36.9870   32.2910   40.0900 C   0  0  0  0  0  0  0  0  0  0  0  0
   35.7660   30.4880   40.3710 H   0  0  0  0  0  0  0  0  0  0  0  0
   41.1970   32.7080   41.5890 H   0  0  0  0  0  0  0  0  0  0  0  0
   40.7190   34.9390   40.4490 H   0  0  0  0  0  0  0  0  0  0  0  0
   36.2140   32.8230   39.5560 H   0  0  0  0  0  0  0  0  0  0  0  0
   36.8240   27.5110   43.4220 C   0  0  0  0  0  0  0  0  0  0  0  0
   36.9490   26.4040   42.5520 C   0  0  0  0  0  0  0  0  0  0  0  0
   37.3340   26.6250   41.2020 C   0  0  0  0  0  0  0  0  0  0  0  0
   37.5570   27.9280   40.8520 N   0  0  0  0  0  0  0  0  0  0  0  0
   37.4350   28.9650   41.6850 C   0  0  0  0  0  0  0  0  0  0  0  0
   37.0700   28.7560   42.9680 N   0  0  0  0  0  0  0  0  0  0  0  0
   36.5300   27.3120   44.4420 H   0  0  0  0  0  0  0  0  0  0  0  0
   36.7600   25.3770   42.8760 H   0  0  0  0  0  0  0  0  0  0  0  0
   37.4400   25.8130   40.5090 H   0  0  0  0  0  0  0  0  0  0  0  0
   41.7480   28.8680   41.6960 H   0  0  0  0  0  0  0  0  0  0  0  0
   40.8920   29.4450   41.3880 C   0  0  0  0  0  0  0  0  0  0  0  0
   40.8710   29.2870   40.1270 O   0  0  0  0  0  0  0  0  0  0  0  0
   39.9820   30.2130   42.1690 N   0  0  0  0  0  0  0  0  0  0  0  0
   40.1920   30.2030   43.1940 H   0  0  0  0  0  0  0  0  0  0  0  0
  1  2  1  0  0  0  0
  2  3  2  0  0  0  0
  2 18  1  0  0  0  0
  3 26  1  0  0  0  0
  4  5  1  0  0  0  0
  4  3  1  0  0  0  0
  5 11  1  0  0  0  0
  6  5  1  0  0  0  0
  7  8  1  0  0  0  0
  7  6  2  0  0  0  0
  8  4  2  0  0  0  0
  9  8  1  0  0  0  0
  9  1  2  0  0  0  0
 10  1  1  0  0  0  0
 12  6  1  0  0  0  0
 13  9  1  0  0  0  0
 14 20  1  0  0  0  0
 15 21  1  0  0  0  0
 15 14  2  0  0  0  0
 16 15  1  0  0  0  0
 17 16  2  0  0  0  0
 17 18  1  0  0  0  0
 18 19  2  0  0  0  0
 19 14  1  0  0  0  0
 22 16  1  0  0  0  0
 24 23  1  0  0  0  0
 24 26  1  0  0  0  0
 25 24  2  0  0  0  0
 26 27  1  0  0  0  0
M  END
>  <minimizedAffinity>
-4.8375926

$$$$

 OpenBabel03252509123D

 27 29  0  0  0  0  0  0  0  0999 V2000
   36.5640   26.6710   39.5000 C   0  0  0  0  0  0  0  0  0  0  0  0
   36.0380   27.9400   39.3990 C   0  0  0  0  0  0  0  0  0  0  0  0
   36.0800   28.8280   40.4500 C   0  0  0  0  0  0  0  0  0  0  0  0
   36.6560   28.4780   41.6610 C   0  0  0  0  0  0  0  0  0  0  0  0
   36.8570   29.0950   42.8630 N   0  0  0  0  0  0  0  0  0  0  0  0
   37.5000   28.1980   43.6800 C   0  0  0  0  0  0  0  0  0  0  0  0
   37.6800   27.0480   42.9600 N   0  0  0  0  0  0  0  0  0  0  0  0
   37.1750   27.1970   41.7290 C   0  0  0  0  0  0  0  0  0  0  0  0
   37.1500   26.2890   40.7060 C   0  0  0  0  0  0  0  0  0  0  0  0
   36.4940   26.0240   38.6280 H   0  0  0  0  0  0  0  0  0  0  0  0
   36.5490   30.0700   43.0480 H   0  0  0  0  0  0  0  0  0  0  0  0
   37.7430   28.5140   44.6780 H   0  0  0  0  0  0  0  0  0  0  0  0
   37.5620   25.2940   40.7820 H   0  0  0  0  0  0  0  0  0  0  0  0
   33.4930   28.6770   36.8540 C   0  0  0  0  0  0  0  0  0  0  0  0
   34.2810   29.1600   35.7840 C   0  0  0  0  0  0  0  0  0  0  0  0
   35.6910   29.2320   35.9410 C   0  0  0  0  0  0  0  0  0  0  0  0
   36.1780   28.8150   37.1490 N   0  0  0  0  0  0  0  0  0  0  0  0
   35.4220   28.3610   38.1510 C   0  0  0  0  0  0  0  0  0  0  0  0
   34.0810   28.2920   38.0030 N   0  0  0  0  0  0  0  0  0  0  0  0
   32.4240   28.6340   36.7050 H   0  0  0  0  0  0  0  0  0  0  0  0
   33.8470   29.4840   34.8330 H   0  0  0  0  0  0  0  0  0  0  0  0
   36.3250   29.5930   35.1540 H   0  0  0  0  0  0  0  0  0  0  0  0
   36.2770   32.2500   39.9110 H   0  0  0  0  0  0  0  0  0  0  0  0
   36.4490   31.1920   40.0170 C   0  0  0  0  0  0  0  0  0  0  0  0
   37.6790   31.0650   39.7200 O   0  0  0  0  0  0  0  0  0  0  0  0
   35.5500   30.1560   40.3960 N   0  0  0  0  0  0  0  0  0  0  0  0
   34.5800   30.4910   40.5970 H   0  0  0  0  0  0  0  0  0  0  0  0
  1  9  1  0  0  0  0
  2  1  2  0  0  0  0
  2  3  1  0  0  0  0
  3  4  2  0  0  0  0
  4  8  1  0  0  0  0
  4  5  1  0  0  0  0
  5 11  1  0  0  0  0
  5  6  1  0  0  0  0
  6 12  1  0  0  0  0
  7  6  2  0  0  0  0
  8  7  1  0  0  0  0
  9 13  1  0  0  0  0
  9  8  2  0  0  0  0
 10  1  1  0  0  0  0
 14 19  1  0  0  0  0
 15 16  1  0  0  0  0
 15 14  2  0  0  0  0
 16 17  2  0  0  0  0
 17 18  1  0  0  0  0
 18  2  1  0  0  0  0
 19 18  2  0  0  0  0
 20 14  1  0  0  0  0
 21 15  1  0  0  0  0
 22 16  1  0  0  0  0
 23 24  1  0  0  0  0
 24 26  1  0  0  0  0
 25 24  2  0  0  0  0
 26  3  1  0  0  0  0
 26 27  1  0  0  0  0
M  END
>  <minimizedAffinity>
-4.76410675

$$$$

 OpenBabel03252509123D

 27 29  0  0  0  0  0  0  0  0999 V2000
   39.1600   28.9120   40.1720 C   0  0  0  0  0  0  0  0  0  0  0  0
   37.8550   28.6490   40.5230 C   0  0  0  0  0  0  0  0  0  0  0  0
   36.9220   29.6530   40.6510 C   0  0  0  0  0  0  0  0  0  0  0  0
   37.2620   30.9790   40.4310 C   0  0  0  0  0  0  0  0  0  0  0  0
   36.6060   32.1770   40.4720 N   0  0  0  0  0  0  0  0  0  0  0  0
   37.5160   33.1510   40.1470 C   0  0  0  0  0  0  0  0  0  0  0  0
   38.7130   32.5300   39.9130 N   0  0  0  0  0  0  0  0  0  0  0  0
   38.5810   31.2090   40.0800 C   0  0  0  0  0  0  0  0  0  0  0  0
   39.5330   30.2360   39.9440 C   0  0  0  0  0  0  0  0  0  0  0  0
   39.8410   28.0670   40.0890 H   0  0  0  0  0  0  0  0  0  0  0  0
   35.5980   32.2520   40.7150 H   0  0  0  0  0  0  0  0  0  0  0  0
   37.1740   34.1700   40.1270 H   0  0  0  0  0  0  0  0  0  0  0  0
   40.5570   30.4390   39.6680 H   0  0  0  0  0  0  0  0  0  0  0  0
   36.6080   25.2410   39.9500 C   0  0  0  0  0  0  0  0  0  0  0  0
   36.6670   24.6860   41.2490 C   0  0  0  0  0  0  0  0  0  0  0  0
   37.1380   25.4880   42.3230 C   0  0  0  0  0  0  0  0  0  0  0  0
   37.5040   26.7650   41.9970 N   0  0  0  0  0  0  0  0  0  0  0  0
   37.4430   27.2760   40.7650 C   0  0  0  0  0  0  0  0  0  0  0  0
   36.9950   26.5140   39.7440 N   0  0  0  0  0  0  0  0  0  0  0  0
   36.2460   24.6070   39.1540 H   0  0  0  0  0  0  0  0  0  0  0  0
   36.3640   23.6570   41.4640 H   0  0  0  0  0  0  0  0  0  0  0  0
   37.1990   25.1050   43.3240 H   0  0  0  0  0  0  0  0  0  0  0  0
   33.5730   29.0400   39.9790 H   0  0  0  0  0  0  0  0  0  0  0  0
   34.6350   29.2220   39.9470 C   0  0  0  0  0  0  0  0  0  0  0  0
   34.8970   29.2070   38.7030 O   0  0  0  0  0  0  0  0  0  0  0  0
   35.5550   29.4330   41.0120 N   0  0  0  0  0  0  0  0  0  0  0  0
   35.1170   29.4030   41.9620 H   0  0  0  0  0  0  0  0  0  0  0  0
  1  2  1  0  0  0  0
  2  3  2  0  0  0  0
  2 18  1  0  0  0  0
  3 26  1  0  0  0  0
  4  5  1  0  0  0  0
  4  3  1  0  0  0  0
  5 11  1  0  0  0  0
  6  5  1  0  0  0  0
  7  8  1  0  0  0  0
  7  6  2  0  0  0  0
  8  4  2  0  0  0  0
  9  8  1  0  0  0  0
  9  1  2  0  0  0  0
 10  1  1  0  0  0  0
 12  6  1  0  0  0  0
 13  9  1  0  0  0  0
 14 15  1  0  0  0  0
 15 21  1  0  0  0  0
 15 16  2  0  0  0  0
 16 22  1  0  0  0  0
 17 16  1  0  0  0  0
 18 17  2  0  0  0  0
 19 14  2  0  0  0  0
 19 18  1  0  0  0  0
 20 14  1  0  0  0  0
 24 23  1  0  0  0  0
 24 26  1  0  0  0  0
 25 24  2  0  0  0  0
 26 27  1  0  0  0  0
M  END
>  <minimizedAffinity>
-4.67884874

$$$$

 OpenBabel03252509123D

 27 29  0  0  0  0  0  0  0  0999 V2000
   39.8950   29.5940   40.9700 C   0  0  0  0  0  0  0  0  0  0  0  0
   38.6080   30.0820   41.0080 C   0  0  0  0  0  0  0  0  0  0  0  0
   37.5510   29.3070   41.4300 C   0  0  0  0  0  0  0  0  0  0  0  0
   37.7410   27.9950   41.8360 C   0  0  0  0  0  0  0  0  0  0  0  0
   36.9420   26.9870   42.2940 N   0  0  0  0  0  0  0  0  0  0  0  0
   37.7480   25.9010   42.5290 C   0  0  0  0  0  0  0  0  0  0  0  0
   39.0270   26.2670   42.2090 N   0  0  0  0  0  0  0  0  0  0  0  0
   39.0460   27.5360   41.7860 C   0  0  0  0  0  0  0  0  0  0  0  0
   40.1190   28.2780   41.3720 C   0  0  0  0  0  0  0  0  0  0  0  0
   40.6800   30.2650   40.6260 H   0  0  0  0  0  0  0  0  0  0  0  0
   35.9160   27.1010   42.4160 H   0  0  0  0  0  0  0  0  0  0  0  0
   37.2860   25.0050   42.8990 H   0  0  0  0  0  0  0  0  0  0  0  0
   41.1300   27.8980   41.3410 H   0  0  0  0  0  0  0  0  0  0  0  0
   37.1910   32.9680   39.2300 C   0  0  0  0  0  0  0  0  0  0  0  0
   37.8820   34.0470   39.8270 C   0  0  0  0  0  0  0  0  0  0  0  0
   38.8370   33.7790   40.8440 C   0  0  0  0  0  0  0  0  0  0  0  0
   39.0100   32.4610   41.1670 N   0  0  0  0  0  0  0  0  0  0  0  0
   38.3500   31.4520   40.5940 C   0  0  0  0  0  0  0  0  0  0  0  0
   37.4420   31.7050   39.6270 N   0  0  0  0  0  0  0  0  0  0  0  0
   36.4710   33.2020   38.4600 H   0  0  0  0  0  0  0  0  0  0  0  0
   37.7100   35.0880   39.5370 H   0  0  0  0  0  0  0  0  0  0  0  0
   39.3830   34.5690   41.3240 H   0  0  0  0  0  0  0  0  0  0  0  0
   34.2410   29.4140   40.3930 H   0  0  0  0  0  0  0  0  0  0  0  0
   35.2910   29.2200   40.5360 C   0  0  0  0  0  0  0  0  0  0  0  0
   35.5560   28.3630   39.6340 O   0  0  0  0  0  0  0  0  0  0  0  0
   36.1970   29.7660   41.4890 N   0  0  0  0  0  0  0  0  0  0  0  0
   35.7590   30.4580   42.1390 H   0  0  0  0  0  0  0  0  0  0  0  0
  1  2  2  0  0  0  0
  1  9  1  0  0  0  0
  2  3  1  0  0  0  0
  3 26  1  0  0  0  0
  3  4  2  0  0  0  0
  4  5  1  0  0  0  0
  5 11  1  0  0  0  0
  5  6  1  0  0  0  0
  6 12  1  0  0  0  0
  7  6  2  0  0  0  0
  8  4  1  0  0  0  0
  8  7  1  0  0  0  0
  9  8  2  0  0  0  0
 10  1  1  0  0  0  0
 13  9  1  0  0  0  0
 14 19  2  0  0  0  0
 14 15  1  0  0  0  0
 15 16  2  0  0  0  0
 16 17  1  0  0  0  0
 16 22  1  0  0  0  0
 18  2  1  0  0  0  0
 18 17  2  0  0  0  0
 19 18  1  0  0  0  0
 20 14  1  0  0  0  0
 21 15  1  0  0  0  0
 23 24  1  0  0  0  0
 24 26  1  0  0  0  0
 25 24  2  0  0  0  0
 26 27  1  0  0  0  0
M  END
>  <minimizedAffinity>
-4.62796354

$$$$

 OpenBabel03252509123D

 27 29  0  0  0  0  0  0  0  0999 V2000
   37.0140   30.1810   36.9600 C   0  0  0  0  0  0  0  0  0  0  0  0
   36.1540   29.6580   37.9000 C   0  0  0  0  0  0  0  0  0  0  0  0
   36.0220   30.2150   39.1520 C   0  0  0  0  0  0  0  0  0  0  0  0
   36.7560   31.3320   39.5200 C   0  0  0  0  0  0  0  0  0  0  0  0
   36.8620   32.1070   40.6400 N   0  0  0  0  0  0  0  0  0  0  0  0
   37.7840   33.0880   40.3700 C   0  0  0  0  0  0  0  0  0  0  0  0
   38.2220   32.8950   39.0890 N   0  0  0  0  0  0  0  0  0  0  0  0
   37.6100   31.8320   38.5530 C   0  0  0  0  0  0  0  0  0  0  0  0
   37.7660   31.3040   37.3010 C   0  0  0  0  0  0  0  0  0  0  0  0
   37.0650   29.6870   35.9920 H   0  0  0  0  0  0  0  0  0  0  0  0
   36.3110   31.9200   41.5010 H   0  0  0  0  0  0  0  0  0  0  0  0
   37.9980   33.8000   41.1460 H   0  0  0  0  0  0  0  0  0  0  0  0
   38.4400   31.7120   36.5610 H   0  0  0  0  0  0  0  0  0  0  0  0
   35.1290   26.1530   37.4920 C   0  0  0  0  0  0  0  0  0  0  0  0
   33.8400   26.2890   36.9310 C   0  0  0  0  0  0  0  0  0  0  0  0
   33.3220   27.5910   36.6930 C   0  0  0  0  0  0  0  0  0  0  0  0
   34.1420   28.6300   37.0380 N   0  0  0  0  0  0  0  0  0  0  0  0
   35.3590   28.4860   37.5680 C   0  0  0  0  0  0  0  0  0  0  0  0
   35.8520   27.2490   37.7940 N   0  0  0  0  0  0  0  0  0  0  0  0
   35.4960   25.1510   37.6620 H   0  0  0  0  0  0  0  0  0  0  0  0
   33.2170   25.4280   36.6700 H   0  0  0  0  0  0  0  0  0  0  0  0
   32.3470   27.7380   36.2690 H   0  0  0  0  0  0  0  0  0  0  0  0
   35.2250   28.2650   41.9100 H   0  0  0  0  0  0  0  0  0  0  0  0
   35.6910   28.7710   41.0810 C   0  0  0  0  0  0  0  0  0  0  0  0
   36.8830   28.3290   41.1010 O   0  0  0  0  0  0  0  0  0  0  0  0
   35.1430   29.7110   40.1630 N   0  0  0  0  0  0  0  0  0  0  0  0
   34.1350   29.9310   40.3350 H   0  0  0  0  0  0  0  0  0  0  0  0
  1  9  2  0  0  0  0
  1  2  1  0  0  0  0
  2  3  2  0  0  0  0
  3  4  1  0  0  0  0
  3 26  1  0  0  0  0
  4  5  1  0  0  0  0
  5 11  1  0  0  0  0
  6  5  1  0  0  0  0
  6 12  1  0  0  0  0
  7  6  2  0  0  0  0
  8  7  1  0  0  0  0
  8  4  2  0  0  0  0
  9  8  1  0  0  0  0
 10  1  1  0  0  0  0
 13  9  1  0  0  0  0
 14 20  1  0  0  0  0
 14 19  1  0  0  0  0
 15 14  2  0  0  0  0
 16 15  1  0  0  0  0
 16 17  2  0  0  0  0
 17 18  1  0  0  0  0
 18 19  2  0  0  0  0
 18  2  1  0  0  0  0
 21 15  1  0  0  0  0
 22 16  1  0  0  0  0
 24 25  2  0  0  0  0
 24 23  1  0  0  0  0
 26 27  1  0  0  0  0
 26 24  1  0  0  0  0
M  END
>  <minimizedAffinity>
-4.57265282

$$$$

 OpenBabel03252509123D

 27 29  0  0  0  0  0  0  0  0999 V2000
   37.8010   29.2730   42.8590 C   0  0  0  0  0  0  0  0  0  0  0  0
   37.8180   29.5360   41.5070 C   0  0  0  0  0  0  0  0  0  0  0  0
   37.6190   28.5450   40.5730 C   0  0  0  0  0  0  0  0  0  0  0  0
   37.3920   27.2320   40.9580 C   0  0  0  0  0  0  0  0  0  0  0  0
   37.1650   26.0490   40.3140 N   0  0  0  0  0  0  0  0  0  0  0  0
   37.0140   25.0830   41.2770 C   0  0  0  0  0  0  0  0  0  0  0  0
   37.1510   25.6950   42.4930 N   0  0  0  0  0  0  0  0  0  0  0  0
   37.3810   27.0020   42.3230 C   0  0  0  0  0  0  0  0  0  0  0  0
   37.5760   27.9620   43.2780 C   0  0  0  0  0  0  0  0  0  0  0  0
   37.9670   30.1070   43.5380 H   0  0  0  0  0  0  0  0  0  0  0  0
   37.1290   25.9770   39.2780 H   0  0  0  0  0  0  0  0  0  0  0  0
   36.8250   24.0760   40.9510 H   0  0  0  0  0  0  0  0  0  0  0  0
   37.5630   27.7590   44.3380 H   0  0  0  0  0  0  0  0  0  0  0  0
   39.4690   32.7560   40.8700 C   0  0  0  0  0  0  0  0  0  0  0  0
   38.4670   33.4640   40.1670 C   0  0  0  0  0  0  0  0  0  0  0  0
   37.2220   32.8290   39.9120 C   0  0  0  0  0  0  0  0  0  0  0  0
   37.0970   31.5520   40.3830 N   0  0  0  0  0  0  0  0  0  0  0  0
   38.0520   30.8950   41.0460 C   0  0  0  0  0  0  0  0  0  0  0  0
   39.2360   31.4970   41.2890 N   0  0  0  0  0  0  0  0  0  0  0  0
   40.4050   33.2640   41.0490 H   0  0  0  0  0  0  0  0  0  0  0  0
   38.6120   34.4870   39.8080 H   0  0  0  0  0  0  0  0  0  0  0  0
   36.4360   33.3310   39.3810 H   0  0  0  0  0  0  0  0  0  0  0  0
   36.1360   28.8360   37.4490 H   0  0  0  0  0  0  0  0  0  0  0  0
   36.3700   28.7050   38.4930 C   0  0  0  0  0  0  0  0  0  0  0  0
   35.2360   28.4760   39.0200 O   0  0  0  0  0  0  0  0  0  0  0  0
   37.6260   28.7660   39.1590 N   0  0  0  0  0  0  0  0  0  0  0  0
   38.4320   28.9690   38.5240 H   0  0  0  0  0  0  0  0  0  0  0  0
  1  9  1  0  0  0  0
  1 10  1  0  0  0  0
  2  1  2  0  0  0  0
  3  4  2  0  0  0  0
  3  2  1  0  0  0  0
  4  8  1  0  0  0  0
  5  4  1  0  0  0  0
  5  6  1  0  0  0  0
  6  7  2  0  0  0  0
  8  7  1  0  0  0  0
  8  9  2  0  0  0  0
  9 13  1  0  0  0  0
 11  5  1  0  0  0  0
 12  6  1  0  0  0  0
 14 20  1  0  0  0  0
 14 19  1  0  0  0  0
 15 14  2  0  0  0  0
 16 15  1  0  0  0  0
 16 17  2  0  0  0  0
 17 18  1  0  0  0  0
 18 19  2  0  0  0  0
 18  2  1  0  0  0  0
 21 15  1  0  0  0  0
 22 16  1  0  0  0  0
 23 24  1  0  0  0  0
 24 25  2  0  0  0  0
 24 26  1  0  0  0  0
 26  3  1  0  0  0  0
 27 26  1  0  0  0  0
M  END
>  <minimizedAffinity>
-4.55659723

$$$$

 OpenBabel03252509123D

 27 29  0  0  0  0  0  0  0  0999 V2000
   39.7180   29.3930   38.0570 C   0  0  0  0  0  0  0  0  0  0  0  0
   38.7900   30.3610   38.3700 C   0  0  0  0  0  0  0  0  0  0  0  0
   39.0780   31.7030   38.2620 C   0  0  0  0  0  0  0  0  0  0  0  0
   40.3230   32.1360   37.8320 C   0  0  0  0  0  0  0  0  0  0  0  0
   40.9170   33.3480   37.6210 N   0  0  0  0  0  0  0  0  0  0  0  0
   42.1960   33.1040   37.1840 C   0  0  0  0  0  0  0  0  0  0  0  0
   42.3580   31.7460   37.1370 N   0  0  0  0  0  0  0  0  0  0  0  0
   41.2320   31.1380   37.5260 C   0  0  0  0  0  0  0  0  0  0  0  0
   40.9800   29.7970   37.6220 C   0  0  0  0  0  0  0  0  0  0  0  0
   39.4190   28.3520   38.1670 H   0  0  0  0  0  0  0  0  0  0  0  0
   40.4230   34.2470   37.7850 H   0  0  0  0  0  0  0  0  0  0  0  0
   42.8200   33.9510   36.9640 H   0  0  0  0  0  0  0  0  0  0  0  0
   41.7050   29.0350   37.3780 H   0  0  0  0  0  0  0  0  0  0  0  0
   35.2560   29.3590   38.3340 C   0  0  0  0  0  0  0  0  0  0  0  0
   34.9780   29.2160   39.7120 C   0  0  0  0  0  0  0  0  0  0  0  0
   36.0120   29.4650   40.6550 C   0  0  0  0  0  0  0  0  0  0  0  0
   37.2200   29.8320   40.1310 N   0  0  0  0  0  0  0  0  0  0  0  0
   37.4680   29.9630   38.8260 C   0  0  0  0  0  0  0  0  0  0  0  0
   36.4870   29.7270   37.9290 N   0  0  0  0  0  0  0  0  0  0  0  0
   34.4510   29.1630   37.6400 H   0  0  0  0  0  0  0  0  0  0  0  0
   33.9940   28.9190   40.0870 H   0  0  0  0  0  0  0  0  0  0  0  0
   35.8430   29.3680   41.7110 H   0  0  0  0  0  0  0  0  0  0  0  0
   37.5850   34.0340   40.3550 H   0  0  0  0  0  0  0  0  0  0  0  0
   38.1810   33.2600   39.9010 C   0  0  0  0  0  0  0  0  0  0  0  0
   38.9480   32.8890   40.8450 O   0  0  0  0  0  0  0  0  0  0  0  0
   38.1510   32.7470   38.5730 N   0  0  0  0  0  0  0  0  0  0  0  0
   37.4350   33.2020   37.9610 H   0  0  0  0  0  0  0  0  0  0  0  0
  1 10  1  0  0  0  0
  1  2  1  0  0  0  0
  2 18  1  0  0  0  0
  3  2  2  0  0  0  0
  3 26  1  0  0  0  0
  4  3  1  0  0  0  0
  5 11  1  0  0  0  0
  5  4  1  0  0  0  0
  6  5  1  0  0  0  0
  7  6  2  0  0  0  0
  7  8  1  0  0  0  0
  8  9  1  0  0  0  0
  8  4  2  0  0  0  0
  9  1  2  0  0  0  0
 12  6  1  0  0  0  0
 13  9  1  0  0  0  0
 14 15  1  0  0  0  0
 15 21  1  0  0  0  0
 15 16  2  0  0  0  0
 16 22  1  0  0  0  0
 17 16  1  0  0  0  0
 18 17  2  0  0  0  0
 19 14  2  0  0  0  0
 19 18  1  0  0  0  0
 20 14  1  0  0  0  0
 24 23  1  0  0  0  0
 24 25  2  0  0  0  0
 26 24  1  0  0  0  0
 27 26  1  0  0  0  0
M  END
>  <minimizedAffinity>
-4.51274729

$$$$
