
 OpenBabel03252509253D

 26 27  0  0  1  0  0  0  0  0999 V2000
   46.8740   35.1220   41.8380 C   0  0  1  0  0  0  0  0  0  0  0  0
   48.3650   35.5510   41.9220 C   0  0  0  0  0  0  0  0  0  0  0  0
   47.8080   34.2650   41.2380 C   0  0  2  0  0  0  0  0  0  0  0  0
   46.2450   35.8370   41.2660 H   0  0  0  0  0  0  0  0  0  0  0  0
   48.6420   36.3700   41.2630 H   0  0  0  0  0  0  0  0  0  0  0  0
   48.9010   35.4480   42.8620 H   0  0  0  0  0  0  0  0  0  0  0  0
   48.1230   33.3400   41.8150 H   0  0  0  0  0  0  0  0  0  0  0  0
   44.8200   35.1330   44.9780 C   0  0  0  0  0  0  0  0  0  0  0  0
   45.3050   35.5330   43.7050 C   0  0  0  0  0  0  0  0  0  0  0  0
   46.3420   34.8100   43.2190 C   0  0  0  0  0  0  0  0  0  0  0  0
   46.8920   33.7580   43.9140 N   0  0  0  0  0  0  0  0  0  0  0  0
   46.4040   33.4050   45.1240 C   0  0  0  0  0  0  0  0  0  0  0  0
   45.3610   34.0980   45.6580 N   0  0  0  0  0  0  0  0  0  0  0  0
   43.9920   35.6730   45.4160 H   0  0  0  0  0  0  0  0  0  0  0  0
   46.9250   32.5660   45.5600 H   0  0  0  0  0  0  0  0  0  0  0  0
   44.7640   36.6350   43.0240 N   0  0  0  0  0  0  0  0  0  0  0  0
   44.7540   37.5270   43.5780 H   0  0  0  0  0  0  0  0  0  0  0  0
   44.4510   36.4080   42.0690 H   0  0  0  0  0  0  0  0  0  0  0  0
   47.9210   34.1430   39.7370 C   0  0  0  0  0  0  0  0  0  0  0  0
   48.1530   35.1410   39.3050 H   0  0  0  0  0  0  0  0  0  0  0  0
   46.9780   33.7300   39.3160 H   0  0  0  0  0  0  0  0  0  0  0  0
   49.4970   31.2050   38.6500 H   0  0  0  0  0  0  0  0  0  0  0  0
   48.7320   31.9270   38.9230 C   0  0  0  0  0  0  0  0  0  0  0  0
   47.5090   31.5910   38.8170 O   0  0  0  0  0  0  0  0  0  0  0  0
   49.0080   33.2410   39.3950 N   0  0  0  0  0  0  0  0  0  0  0  0
   50.0340   33.5000   39.4760 H   0  0  0  0  0  0  0  0  0  0  0  0
  1  4  1  6  0  0  0
  1  2  1  0  0  0  0
  1 10  1  0  0  0  0
  2  6  1  0  0  0  0
  3  7  1  1  0  0  0
  3  1  1  0  0  0  0
  3  2  1  0  0  0  0
  5  2  1  0  0  0  0
  8 14  1  0  0  0  0
  8 13  1  0  0  0  0
  9  8  2  0  0  0  0
 10  9  1  0  0  0  0
 10 11  2  0  0  0  0
 11 12  1  0  0  0  0
 12 15  1  0  0  0  0
 12 13  2  0  0  0  0
 16 17  1  0  0  0  0
 16  9  1  0  0  0  0
 18 16  1  0  0  0  0
 19  3  1  0  0  0  0
 20 19  1  0  0  0  0
 21 19  1  0  0  0  0
 22 23  1  0  0  0  0
 23 25  1  0  0  0  0
 24 23  2  0  0  0  0
 25 26  1  0  0  0  0
 25 19  1  0  0  0  0
M  END
>  <minimizedAffinity>
-4.35249567

>  <minimizedRMSD>
0.663992584

$$$$
