
 OpenBabel03252508553D

 39 41  0  0  1  0  0  0  0  0999 V2000
   39.1140   29.0120   40.4380 C   0  0  0  0  0  0  0  0  0  0  0  0
   39.6570   27.8710   40.3990 O   0  0  0  0  0  0  0  0  0  0  0  0
   38.7680   29.0750   41.8520 N   0  0  0  0  0  0  0  0  0  0  0  0
   39.9000   28.9760   42.7550 C   0  0  0  0  0  0  0  0  0  0  0  0
   39.8950   27.5220   43.2280 C   0  0  0  0  0  0  0  0  0  0  0  0
   38.4380   27.0930   43.3480 C   0  0  0  0  0  0  0  0  0  0  0  0
   37.5290   28.2790   43.6800 C   0  0  0  0  0  0  0  0  0  0  0  0
   37.4570   29.2200   42.4800 C   0  0  2  0  0  0  0  0  0  0  0  0
   40.8530   29.2540   42.2730 H   0  0  0  0  0  0  0  0  0  0  0  0
   39.7390   29.6130   43.6580 H   0  0  0  0  0  0  0  0  0  0  0  0
   40.4210   27.4080   44.2050 H   0  0  0  0  0  0  0  0  0  0  0  0
   40.3980   26.9340   42.4350 H   0  0  0  0  0  0  0  0  0  0  0  0
   38.0680   26.5900   42.4450 H   0  0  0  0  0  0  0  0  0  0  0  0
   38.3830   26.4270   44.2420 H   0  0  0  0  0  0  0  0  0  0  0  0
   36.5240   27.8680   43.8100 H   0  0  0  0  0  0  0  0  0  0  0  0
   37.8920   28.7890   44.5860 H   0  0  0  0  0  0  0  0  0  0  0  0
   37.3480   30.2400   42.8730 H   0  0  0  0  0  0  0  0  0  0  0  0
   34.8910   29.8280   40.1590 H   0  0  0  0  0  0  0  0  0  0  0  0
   35.7160   29.9330   40.8610 C   0  0  0  0  0  0  0  0  0  0  0  0
   36.1560   31.1140   41.0720 O   0  0  0  0  0  0  0  0  0  0  0  0
   36.3840   28.8920   41.5950 N   0  0  0  0  0  0  0  0  0  0  0  0
   36.0350   27.9420   41.4300 H   0  0  0  0  0  0  0  0  0  0  0  0
   38.9270   29.9020   39.4160 O   0  0  0  0  0  0  0  0  0  0  0  0
   39.8930   30.4100   38.5850 C   0  0  0  0  0  0  0  0  0  0  0  0
   39.9850   31.8010   38.4690 C   0  0  0  0  0  0  0  0  0  0  0  0
   40.9830   32.3060   37.6120 C   0  0  0  0  0  0  0  0  0  0  0  0
   41.7860   31.4200   36.9560 N   0  0  0  0  0  0  0  0  0  0  0  0
   41.6530   30.1020   37.1040 C   0  0  0  0  0  0  0  0  0  0  0  0
   40.7050   29.5870   37.9210 N   0  0  0  0  0  0  0  0  0  0  0  0
   41.0500   33.3710   37.5270 H   0  0  0  0  0  0  0  0  0  0  0  0
   42.2930   29.4100   36.5820 H   0  0  0  0  0  0  0  0  0  0  0  0
   39.0770   32.6630   39.2140 C   0  0  0  0  0  0  0  0  0  0  0  0
   39.4820   33.4220   40.2930 C   0  0  0  0  0  0  0  0  0  0  0  0
   38.3210   34.0680   40.6840 C   0  0  0  0  0  0  0  0  0  0  0  0
   37.2940   33.7170   39.8890 N   0  0  0  0  0  0  0  0  0  0  0  0
   37.7720   32.8650   39.0050 N   0  0  0  0  0  0  0  0  0  0  0  0
   40.4770   33.5150   40.7570 H   0  0  0  0  0  0  0  0  0  0  0  0
   38.2610   34.7630   41.5210 H   0  0  0  0  0  0  0  0  0  0  0  0
   36.3100   34.0640   39.9740 H   0  0  0  0  0  0  0  0  0  0  0  0
  1  3  1  0  0  0  0
  2  1  2  0  0  0  0
  3  8  1  0  0  0  0
  3  4  1  0  0  0  0
  4  5  1  0  0  0  0
  4 10  1  0  0  0  0
  5  6  1  0  0  0  0
  5 11  1  0  0  0  0
  6  7  1  0  0  0  0
  6 14  1  0  0  0  0
  7 15  1  0  0  0  0
  7 16  1  0  0  0  0
  8 17  1  1  0  0  0
  8  7  1  0  0  0  0
  9  4  1  0  0  0  0
 12  5  1  0  0  0  0
 13  6  1  0  0  0  0
 18 19  1  0  0  0  0
 19 20  2  0  0  0  0
 19 21  1  0  0  0  0
 21  8  1  0  0  0  0
 22 21  1  0  0  0  0
 23  1  1  0  0  0  0
 24 23  1  0  0  0  0
 25 24  1  0  0  0  0
 25 32  1  0  0  0  0
 26 25  2  0  0  0  0
 27 28  2  0  0  0  0
 27 26  1  0  0  0  0
 28 29  1  0  0  0  0
 29 24  2  0  0  0  0
 30 26  1  0  0  0  0
 31 28  1  0  0  0  0
 32 33  1  0  0  0  0
 33 34  2  0  0  0  0
 33 37  1  0  0  0  0
 34 38  1  0  0  0  0
 35 39  1  0  0  0  0
 35 34  1  0  0  0  0
 36 32  2  0  0  0  0
 36 35  1  0  0  0  0
M  END
>  <minimizedAffinity>
-5.69357586

$$$$

 OpenBabel03252508553D

 39 41  0  0  1  0  0  0  0  0999 V2000
   39.2360   28.7830   40.8270 C   0  0  0  0  0  0  0  0  0  0  0  0
   39.8140   27.6660   40.7110 O   0  0  0  0  0  0  0  0  0  0  0  0
   38.4210   28.5210   42.0060 N   0  0  0  0  0  0  0  0  0  0  0  0
   39.1750   28.1690   43.1950 C   0  0  0  0  0  0  0  0  0  0  0  0
   39.0780   26.6460   43.2800 C   0  0  0  0  0  0  0  0  0  0  0  0
   37.6910   26.2540   42.7830 C   0  0  0  0  0  0  0  0  0  0  0  0
   36.6670   27.3600   43.0490 C   0  0  0  0  0  0  0  0  0  0  0  0
   36.9670   28.5610   42.1560 C   0  0  2  0  0  0  0  0  0  0  0  0
   40.2200   28.5180   43.1520 H   0  0  0  0  0  0  0  0  0  0  0  0
   38.6810   28.5790   44.1090 H   0  0  0  0  0  0  0  0  0  0  0  0
   39.2400   26.2830   44.3230 H   0  0  0  0  0  0  0  0  0  0  0  0
   39.8520   26.2440   42.5960 H   0  0  0  0  0  0  0  0  0  0  0  0
   37.6810   25.9940   41.7160 H   0  0  0  0  0  0  0  0  0  0  0  0
   37.3640   25.3970   43.4190 H   0  0  0  0  0  0  0  0  0  0  0  0
   35.7000   26.9670   42.7220 H   0  0  0  0  0  0  0  0  0  0  0  0
   36.6700   27.6270   44.1170 H   0  0  0  0  0  0  0  0  0  0  0  0
   36.6800   29.4620   42.7150 H   0  0  0  0  0  0  0  0  0  0  0  0
   35.1040   29.7590   39.4300 H   0  0  0  0  0  0  0  0  0  0  0  0
   35.6540   29.6680   40.3640 C   0  0  0  0  0  0  0  0  0  0  0  0
   35.7630   30.7200   41.0820 O   0  0  0  0  0  0  0  0  0  0  0  0
   36.2830   28.4930   40.9030 N   0  0  0  0  0  0  0  0  0  0  0  0
   36.1990   27.6450   40.3310 H   0  0  0  0  0  0  0  0  0  0  0  0
   39.3690   29.8970   40.0440 O   0  0  0  0  0  0  0  0  0  0  0  0
   38.6690   30.1810   38.8990 C   0  0  0  0  0  0  0  0  0  0  0  0
   38.3820   31.5240   38.6290 C   0  0  0  0  0  0  0  0  0  0  0  0
   37.6630   31.7990   37.4490 C   0  0  0  0  0  0  0  0  0  0  0  0
   37.2950   30.7540   36.6540 N   0  0  0  0  0  0  0  0  0  0  0  0
   37.5950   29.4920   36.9610 C   0  0  0  0  0  0  0  0  0  0  0  0
   38.2860   29.1960   38.0870 N   0  0  0  0  0  0  0  0  0  0  0  0
   37.4470   32.8270   37.2460 H   0  0  0  0  0  0  0  0  0  0  0  0
   37.3000   28.6730   36.3260 H   0  0  0  0  0  0  0  0  0  0  0  0
   38.8210   32.5690   39.5440 C   0  0  0  0  0  0  0  0  0  0  0  0
   40.0030   33.2620   39.3770 C   0  0  0  0  0  0  0  0  0  0  0  0
   40.0170   34.1360   40.4530 C   0  0  0  0  0  0  0  0  0  0  0  0
   38.9150   33.9720   41.2070 N   0  0  0  0  0  0  0  0  0  0  0  0
   38.2040   33.0190   40.6410 N   0  0  0  0  0  0  0  0  0  0  0  0
   40.7710   33.1690   38.5940 H   0  0  0  0  0  0  0  0  0  0  0  0
   40.8140   34.8510   40.6480 H   0  0  0  0  0  0  0  0  0  0  0  0
   38.6850   34.5100   42.0760 H   0  0  0  0  0  0  0  0  0  0  0  0
  1  3  1  0  0  0  0
  2  1  2  0  0  0  0
  3  8  1  0  0  0  0
  3  4  1  0  0  0  0
  4  5  1  0  0  0  0
  4 10  1  0  0  0  0
  5 11  1  0  0  0  0
  6  7  1  0  0  0  0
  6  5  1  0  0  0  0
  6 14  1  0  0  0  0
  7 16  1  0  0  0  0
  8 17  1  1  0  0  0
  8  7  1  0  0  0  0
  9  4  1  0  0  0  0
 12  5  1  0  0  0  0
 13  6  1  0  0  0  0
 15  7  1  0  0  0  0
 18 19  1  0  0  0  0
 19 21  1  0  0  0  0
 19 20  2  0  0  0  0
 21  8  1  0  0  0  0
 22 21  1  0  0  0  0
 23  1  1  0  0  0  0
 24 23  1  0  0  0  0
 25 24  1  0  0  0  0
 25 32  1  0  0  0  0
 26 25  2  0  0  0  0
 27 28  2  0  0  0  0
 27 26  1  0  0  0  0
 28 29  1  0  0  0  0
 29 24  2  0  0  0  0
 30 26  1  0  0  0  0
 31 28  1  0  0  0  0
 32 36  2  0  0  0  0
 33 32  1  0  0  0  0
 33 34  2  0  0  0  0
 34 38  1  0  0  0  0
 34 35  1  0  0  0  0
 35 39  1  0  0  0  0
 36 35  1  0  0  0  0
 37 33  1  0  0  0  0
M  END
>  <minimizedAffinity>
-5.61645126

$$$$

 OpenBabel03252508553D

 39 41  0  0  1  0  0  0  0  0999 V2000
   39.5090   30.6290   40.3290 C   0  0  0  0  0  0  0  0  0  0  0  0
   40.2970   31.3260   41.0300 O   0  0  0  0  0  0  0  0  0  0  0  0
   38.8200   31.6870   39.6020 N   0  0  0  0  0  0  0  0  0  0  0  0
   39.6850   32.5210   38.7870 C   0  0  0  0  0  0  0  0  0  0  0  0
   39.9050   33.7840   39.6200 C   0  0  0  0  0  0  0  0  0  0  0  0
   38.6060   34.0630   40.3670 C   0  0  0  0  0  0  0  0  0  0  0  0
   37.3910   33.5500   39.5900 C   0  0  0  0  0  0  0  0  0  0  0  0
   37.3980   32.0240   39.5800 C   0  0  2  0  0  0  0  0  0  0  0  0
   40.6340   32.0220   38.5290 H   0  0  0  0  0  0  0  0  0  0  0  0
   39.1610   32.8340   37.8520 H   0  0  0  0  0  0  0  0  0  0  0  0
   40.1860   34.6530   38.9790 H   0  0  0  0  0  0  0  0  0  0  0  0
   40.7110   33.5460   40.3420 H   0  0  0  0  0  0  0  0  0  0  0  0
   38.5990   33.6390   41.3800 H   0  0  0  0  0  0  0  0  0  0  0  0
   38.4900   35.1730   40.3850 H   0  0  0  0  0  0  0  0  0  0  0  0
   36.5100   33.8500   40.1650 H   0  0  0  0  0  0  0  0  0  0  0  0
   37.3890   33.9710   38.5720 H   0  0  0  0  0  0  0  0  0  0  0  0
   36.9590   31.7020   38.6250 H   0  0  0  0  0  0  0  0  0  0  0  0
   35.2740   29.7760   41.2460 H   0  0  0  0  0  0  0  0  0  0  0  0
   35.8670   30.3000   40.4990 C   0  0  0  0  0  0  0  0  0  0  0  0
   35.8450   29.8370   39.3080 O   0  0  0  0  0  0  0  0  0  0  0  0
   36.6840   31.4680   40.6860 N   0  0  0  0  0  0  0  0  0  0  0  0
   36.7050   31.8440   41.6400 H   0  0  0  0  0  0  0  0  0  0  0  0
   39.3750   29.2680   40.2950 O   0  0  0  0  0  0  0  0  0  0  0  0
   40.2420   28.3470   40.8250 C   0  0  0  0  0  0  0  0  0  0  0  0
   39.8460   27.6720   41.9850 C   0  0  0  0  0  0  0  0  0  0  0  0
   40.7490   26.7290   42.5160 C   0  0  0  0  0  0  0  0  0  0  0  0
   41.9370   26.5350   41.8760 N   0  0  0  0  0  0  0  0  0  0  0  0
   42.2640   27.2070   40.7730 C   0  0  0  0  0  0  0  0  0  0  0  0
   41.4180   28.1190   40.2380 N   0  0  0  0  0  0  0  0  0  0  0  0
   40.4400   26.2150   43.4030 H   0  0  0  0  0  0  0  0  0  0  0  0
   43.2060   27.0470   40.2740 H   0  0  0  0  0  0  0  0  0  0  0  0
   38.5520   27.9530   42.5930 C   0  0  0  0  0  0  0  0  0  0  0  0
   37.4840   27.0820   42.5150 C   0  0  0  0  0  0  0  0  0  0  0  0
   36.4840   27.7380   43.2140 C   0  0  0  0  0  0  0  0  0  0  0  0
   36.9300   28.9200   43.6780 N   0  0  0  0  0  0  0  0  0  0  0  0
   38.1840   29.0320   43.2910 N   0  0  0  0  0  0  0  0  0  0  0  0
   37.4090   26.0990   42.0240 H   0  0  0  0  0  0  0  0  0  0  0  0
   35.4810   27.3410   43.3620 H   0  0  0  0  0  0  0  0  0  0  0  0
   36.3700   29.6060   44.2380 H   0  0  0  0  0  0  0  0  0  0  0  0
  1  2  2  0  0  0  0
  3  1  1  0  0  0  0
  4  3  1  0  0  0  0
  4  5  1  0  0  0  0
  5 12  1  0  0  0  0
  5  6  1  0  0  0  0
  6 14  1  0  0  0  0
  6 13  1  0  0  0  0
  7 15  1  0  0  0  0
  7  6  1  0  0  0  0
  8 17  1  6  0  0  0
  8  7  1  0  0  0  0
  8  3  1  0  0  0  0
  8 21  1  0  0  0  0
  9  4  1  0  0  0  0
 10  4  1  0  0  0  0
 11  5  1  0  0  0  0
 16  7  1  0  0  0  0
 19 21  1  0  0  0  0
 19 18  1  0  0  0  0
 20 19  2  0  0  0  0
 21 22  1  0  0  0  0
 23  1  1  0  0  0  0
 23 24  1  0  0  0  0
 24 25  1  0  0  0  0
 25 26  2  0  0  0  0
 25 32  1  0  0  0  0
 26 30  1  0  0  0  0
 27 26  1  0  0  0  0
 28 27  2  0  0  0  0
 29 28  1  0  0  0  0
 29 24  2  0  0  0  0
 31 28  1  0  0  0  0
 32 36  2  0  0  0  0
 33 32  1  0  0  0  0
 33 34  2  0  0  0  0
 34 38  1  0  0  0  0
 34 35  1  0  0  0  0
 35 39  1  0  0  0  0
 36 35  1  0  0  0  0
 37 33  1  0  0  0  0
M  END
>  <minimizedAffinity>
-5.4205761

$$$$

 OpenBabel03252508553D

 39 41  0  0  1  0  0  0  0  0999 V2000
   37.7230   27.9250   40.0280 C   0  0  0  0  0  0  0  0  0  0  0  0
   36.5420   27.4790   40.0810 O   0  0  0  0  0  0  0  0  0  0  0  0
   38.2060   27.5110   41.3390 N   0  0  0  0  0  0  0  0  0  0  0  0
   38.1730   26.0780   41.5690 C   0  0  0  0  0  0  0  0  0  0  0  0
   36.9110   25.8480   42.4020 C   0  0  0  0  0  0  0  0  0  0  0  0
   36.7600   27.0470   43.3310 C   0  0  0  0  0  0  0  0  0  0  0  0
   38.1170   27.6620   43.6800 C   0  0  0  0  0  0  0  0  0  0  0  0
   38.7120   28.3260   42.4410 C   0  0  2  0  0  0  0  0  0  0  0  0
   38.1630   25.4980   40.6310 H   0  0  0  0  0  0  0  0  0  0  0  0
   39.0400   25.7610   42.1960 H   0  0  0  0  0  0  0  0  0  0  0  0
   36.9760   24.9010   42.9890 H   0  0  0  0  0  0  0  0  0  0  0  0
   36.0660   25.8150   41.6870 H   0  0  0  0  0  0  0  0  0  0  0  0
   36.1020   27.8230   42.9170 H   0  0  0  0  0  0  0  0  0  0  0  0
   36.3670   26.6450   44.2950 H   0  0  0  0  0  0  0  0  0  0  0  0
   37.9160   28.4650   44.3940 H   0  0  0  0  0  0  0  0  0  0  0  0
   38.7840   26.8900   44.0960 H   0  0  0  0  0  0  0  0  0  0  0  0
   39.8040   28.2200   42.5060 H   0  0  0  0  0  0  0  0  0  0  0  0
   39.1970   31.8030   42.3040 H   0  0  0  0  0  0  0  0  0  0  0  0
   39.3400   30.7270   42.3780 C   0  0  0  0  0  0  0  0  0  0  0  0
   40.5380   30.3070   42.5300 O   0  0  0  0  0  0  0  0  0  0  0  0
   38.3350   29.7000   42.3260 N   0  0  0  0  0  0  0  0  0  0  0  0
   37.3720   30.0320   42.2050 H   0  0  0  0  0  0  0  0  0  0  0  0
   38.3340   28.6000   39.0060 O   0  0  0  0  0  0  0  0  0  0  0  0
   37.8060   28.8620   37.7680 C   0  0  0  0  0  0  0  0  0  0  0  0
   37.1950   30.1050   37.5710 C   0  0  0  0  0  0  0  0  0  0  0  0
   36.6580   30.3580   36.2930 C   0  0  0  0  0  0  0  0  0  0  0  0
   36.7660   29.3890   35.3390 N   0  0  0  0  0  0  0  0  0  0  0  0
   37.3590   28.2210   35.5820 C   0  0  0  0  0  0  0  0  0  0  0  0
   37.8840   27.9480   36.8000 N   0  0  0  0  0  0  0  0  0  0  0  0
   36.1920   31.3110   36.1470 H   0  0  0  0  0  0  0  0  0  0  0  0
   37.4380   27.4610   34.8220 H   0  0  0  0  0  0  0  0  0  0  0  0
   37.1320   31.0740   38.6570 C   0  0  0  0  0  0  0  0  0  0  0  0
   37.8970   32.2230   38.6800 C   0  0  0  0  0  0  0  0  0  0  0  0
   37.5240   32.8320   39.8670 C   0  0  0  0  0  0  0  0  0  0  0  0
   36.5980   32.0940   40.5060 N   0  0  0  0  0  0  0  0  0  0  0  0
   36.3740   31.0330   39.7580 N   0  0  0  0  0  0  0  0  0  0  0  0
   38.6330   32.5950   37.9510 H   0  0  0  0  0  0  0  0  0  0  0  0
   37.9310   33.7780   40.2220 H   0  0  0  0  0  0  0  0  0  0  0  0
   36.1530   32.3330   41.4230 H   0  0  0  0  0  0  0  0  0  0  0  0
  1  2  2  0  0  0  0
  1  3  1  0  0  0  0
  3  4  1  0  0  0  0
  3  8  1  0  0  0  0
  4 10  1  0  0  0  0
  4  5  1  0  0  0  0
  5 11  1  0  0  0  0
  5  6  1  0  0  0  0
  6  7  1  0  0  0  0
  6 14  1  0  0  0  0
  7 16  1  0  0  0  0
  7 15  1  0  0  0  0
  8 17  1  1  0  0  0
  8  7  1  0  0  0  0
  9  4  1  0  0  0  0
 12  5  1  0  0  0  0
 13  6  1  0  0  0  0
 18 19  1  0  0  0  0
 19 20  2  0  0  0  0
 21 19  1  0  0  0  0
 21  8  1  0  0  0  0
 22 21  1  0  0  0  0
 23  1  1  0  0  0  0
 24 23  1  0  0  0  0
 25 24  1  0  0  0  0
 25 32  1  0  0  0  0
 26 25  2  0  0  0  0
 27 28  2  0  0  0  0
 27 26  1  0  0  0  0
 28 29  1  0  0  0  0
 29 24  2  0  0  0  0
 30 26  1  0  0  0  0
 31 28  1  0  0  0  0
 32 33  1  0  0  0  0
 32 36  2  0  0  0  0
 33 34  2  0  0  0  0
 34 38  1  0  0  0  0
 34 35  1  0  0  0  0
 35 39  1  0  0  0  0
 36 35  1  0  0  0  0
 37 33  1  0  0  0  0
M  END
>  <minimizedAffinity>
-5.41102839

$$$$

 OpenBabel03252508553D

 39 41  0  0  1  0  0  0  0  0999 V2000
   39.2370   28.5270   40.7910 C   0  0  0  0  0  0  0  0  0  0  0  0
   39.6760   27.3600   40.5850 O   0  0  0  0  0  0  0  0  0  0  0  0
   38.4670   28.2930   42.0050 N   0  0  0  0  0  0  0  0  0  0  0  0
   39.2430   27.7940   43.1260 C   0  0  0  0  0  0  0  0  0  0  0  0
   38.9780   26.2890   43.1440 C   0  0  0  0  0  0  0  0  0  0  0  0
   37.5290   26.0810   42.7180 C   0  0  0  0  0  0  0  0  0  0  0  0
   36.6550   27.2780   43.1010 C   0  0  0  0  0  0  0  0  0  0  0  0
   37.0380   28.4850   42.2500 C   0  0  2  0  0  0  0  0  0  0  0  0
   40.3170   28.0270   43.0340 H   0  0  0  0  0  0  0  0  0  0  0  0
   38.8530   28.2060   44.0880 H   0  0  0  0  0  0  0  0  0  0  0  0
   39.1570   25.8540   44.1560 H   0  0  0  0  0  0  0  0  0  0  0  0
   39.6600   25.8420   42.3930 H   0  0  0  0  0  0  0  0  0  0  0  0
   37.4270   25.8830   41.6430 H   0  0  0  0  0  0  0  0  0  0  0  0
   37.1440   25.2330   43.3320 H   0  0  0  0  0  0  0  0  0  0  0  0
   35.6320   27.0140   42.8180 H   0  0  0  0  0  0  0  0  0  0  0  0
   36.7500   27.4840   44.1790 H   0  0  0  0  0  0  0  0  0  0  0  0
   36.8890   29.3810   42.8680 H   0  0  0  0  0  0  0  0  0  0  0  0
   35.1960   30.0360   39.6920 H   0  0  0  0  0  0  0  0  0  0  0  0
   35.7820   29.8320   40.5860 C   0  0  0  0  0  0  0  0  0  0  0  0
   36.0710   30.8280   41.3330 O   0  0  0  0  0  0  0  0  0  0  0  0
   36.2800   28.5630   41.0410 N   0  0  0  0  0  0  0  0  0  0  0  0
   36.0500   27.7590   40.4450 H   0  0  0  0  0  0  0  0  0  0  0  0
   39.4510   29.6600   40.0560 O   0  0  0  0  0  0  0  0  0  0  0  0
   40.5840   30.4340   40.0550 C   0  0  0  0  0  0  0  0  0  0  0  0
   40.4260   31.8180   39.9270 C   0  0  0  0  0  0  0  0  0  0  0  0
   41.5990   32.5980   39.9280 C   0  0  0  0  0  0  0  0  0  0  0  0
   42.8000   31.9650   40.0520 N   0  0  0  0  0  0  0  0  0  0  0  0
   42.8920   30.6410   40.1700 C   0  0  0  0  0  0  0  0  0  0  0  0
   41.7830   29.8640   40.1730 N   0  0  0  0  0  0  0  0  0  0  0  0
   41.4730   33.6570   39.8300 H   0  0  0  0  0  0  0  0  0  0  0  0
   43.8470   30.1490   40.2680 H   0  0  0  0  0  0  0  0  0  0  0  0
   39.0950   32.3980   39.8000 C   0  0  0  0  0  0  0  0  0  0  0  0
   38.3310   32.2750   38.6570 C   0  0  0  0  0  0  0  0  0  0  0  0
   37.1710   32.9630   38.9720 C   0  0  0  0  0  0  0  0  0  0  0  0
   37.2410   33.4610   40.2200 N   0  0  0  0  0  0  0  0  0  0  0  0
   38.4140   33.1080   40.7050 N   0  0  0  0  0  0  0  0  0  0  0  0
   38.5570   31.7630   37.7090 H   0  0  0  0  0  0  0  0  0  0  0  0
   36.3260   33.0770   38.2940 H   0  0  0  0  0  0  0  0  0  0  0  0
   36.4950   34.0200   40.6970 H   0  0  0  0  0  0  0  0  0  0  0  0
  1  3  1  0  0  0  0
  2  1  2  0  0  0  0
  3  8  1  0  0  0  0
  3  4  1  0  0  0  0
  4  5  1  0  0  0  0
  4 10  1  0  0  0  0
  5 11  1  0  0  0  0
  6  7  1  0  0  0  0
  6  5  1  0  0  0  0
  6 14  1  0  0  0  0
  7 16  1  0  0  0  0
  8 17  1  1  0  0  0
  8  7  1  0  0  0  0
  9  4  1  0  0  0  0
 12  5  1  0  0  0  0
 13  6  1  0  0  0  0
 15  7  1  0  0  0  0
 18 19  1  0  0  0  0
 19 21  1  0  0  0  0
 19 20  2  0  0  0  0
 21  8  1  0  0  0  0
 22 21  1  0  0  0  0
 23  1  1  0  0  0  0
 24 23  1  0  0  0  0
 24 29  1  0  0  0  0
 25 26  1  0  0  0  0
 25 24  2  0  0  0  0
 26 27  2  0  0  0  0
 27 28  1  0  0  0  0
 28 29  2  0  0  0  0
 28 31  1  0  0  0  0
 30 26  1  0  0  0  0
 32 25  1  0  0  0  0
 32 36  2  0  0  0  0
 33 34  2  0  0  0  0
 33 32  1  0  0  0  0
 34 35  1  0  0  0  0
 35 39  1  0  0  0  0
 35 36  1  0  0  0  0
 37 33  1  0  0  0  0
 38 34  1  0  0  0  0
M  END
>  <minimizedAffinity>
-5.37209558

$$$$

 OpenBabel03252508553D

 39 41  0  0  1  0  0  0  0  0999 V2000
   36.6400   28.4750   41.8110 C   0  0  0  0  0  0  0  0  0  0  0  0
   36.2260   27.6720   42.6940 O   0  0  0  0  0  0  0  0  0  0  0  0
   38.0330   28.0580   41.7270 N   0  0  0  0  0  0  0  0  0  0  0  0
   38.2260   26.6730   41.3400 C   0  0  0  0  0  0  0  0  0  0  0  0
   38.5000   25.9370   42.6520 C   0  0  0  0  0  0  0  0  0  0  0  0
   39.3010   26.8810   43.5400 C   0  0  0  0  0  0  0  0  0  0  0  0
   40.1540   27.8430   42.7100 C   0  0  0  0  0  0  0  0  0  0  0  0
   39.2500   28.8300   41.9780 C   0  0  2  0  0  0  0  0  0  0  0  0
   37.3560   26.2580   40.8030 H   0  0  0  0  0  0  0  0  0  0  0  0
   39.1410   26.5650   40.7080 H   0  0  0  0  0  0  0  0  0  0  0  0
   39.0610   24.9880   42.4790 H   0  0  0  0  0  0  0  0  0  0  0  0
   37.5110   25.7350   43.1100 H   0  0  0  0  0  0  0  0  0  0  0  0
   38.6670   27.4560   44.2280 H   0  0  0  0  0  0  0  0  0  0  0  0
   40.0330   26.2440   44.0900 H   0  0  0  0  0  0  0  0  0  0  0  0
   40.7370   28.4310   43.4250 H   0  0  0  0  0  0  0  0  0  0  0  0
   40.7950   27.2750   42.0170 H   0  0  0  0  0  0  0  0  0  0  0  0
   39.7350   29.0700   41.0220 H   0  0  0  0  0  0  0  0  0  0  0  0
   39.8100   32.1010   43.1270 H   0  0  0  0  0  0  0  0  0  0  0  0
   39.8780   31.1460   42.6120 C   0  0  0  0  0  0  0  0  0  0  0  0
   40.8460   30.9930   41.7910 O   0  0  0  0  0  0  0  0  0  0  0  0
   39.0030   30.0120   42.7410 N   0  0  0  0  0  0  0  0  0  0  0  0
   38.2240   30.1290   43.3990 H   0  0  0  0  0  0  0  0  0  0  0  0
   35.9410   29.4460   41.1480 O   0  0  0  0  0  0  0  0  0  0  0  0
   36.4620   30.4170   40.3310 C   0  0  0  0  0  0  0  0  0  0  0  0
   36.4620   30.1760   38.9520 C   0  0  0  0  0  0  0  0  0  0  0  0
   37.0010   31.1840   38.1270 C   0  0  0  0  0  0  0  0  0  0  0  0
   37.4820   32.3160   38.7150 N   0  0  0  0  0  0  0  0  0  0  0  0
   37.4570   32.4930   40.0350 C   0  0  0  0  0  0  0  0  0  0  0  0
   36.9450   31.5440   40.8540 N   0  0  0  0  0  0  0  0  0  0  0  0
   36.9990   30.9950   37.0740 H   0  0  0  0  0  0  0  0  0  0  0  0
   37.8400   33.3920   40.4900 H   0  0  0  0  0  0  0  0  0  0  0  0
   35.9240   28.9300   38.4230 C   0  0  0  0  0  0  0  0  0  0  0  0
   34.6140   28.7980   38.0090 C   0  0  0  0  0  0  0  0  0  0  0  0
   34.5410   27.4780   37.5930 C   0  0  0  0  0  0  0  0  0  0  0  0
   35.7300   26.8680   37.7480 N   0  0  0  0  0  0  0  0  0  0  0  0
   36.5540   27.7640   38.2530 N   0  0  0  0  0  0  0  0  0  0  0  0
   33.7980   29.5380   37.9990 H   0  0  0  0  0  0  0  0  0  0  0  0
   33.6400   27.0120   37.1960 H   0  0  0  0  0  0  0  0  0  0  0  0
   35.9400   25.8710   37.5090 H   0  0  0  0  0  0  0  0  0  0  0  0
  1  2  2  0  0  0  0
  3  1  1  0  0  0  0
  3  8  1  0  0  0  0
  4  3  1  0  0  0  0
  4  5  1  0  0  0  0
  5 12  1  0  0  0  0
  5  6  1  0  0  0  0
  6 14  1  0  0  0  0
  6 13  1  0  0  0  0
  7 15  1  0  0  0  0
  7  6  1  0  0  0  0
  8 17  1  6  0  0  0
  8  7  1  0  0  0  0
  8 21  1  0  0  0  0
  9  4  1  0  0  0  0
 10  4  1  0  0  0  0
 11  5  1  0  0  0  0
 16  7  1  0  0  0  0
 19 21  1  0  0  0  0
 19 18  1  0  0  0  0
 20 19  2  0  0  0  0
 21 22  1  0  0  0  0
 23  1  1  0  0  0  0
 24 29  1  0  0  0  0
 24 23  1  0  0  0  0
 25 24  2  0  0  0  0
 26 27  2  0  0  0  0
 26 25  1  0  0  0  0
 27 28  1  0  0  0  0
 28 31  1  0  0  0  0
 28 29  2  0  0  0  0
 30 26  1  0  0  0  0
 32 25  1  0  0  0  0
 33 32  1  0  0  0  0
 34 35  1  0  0  0  0
 34 33  2  0  0  0  0
 35 36  1  0  0  0  0
 36 32  2  0  0  0  0
 37 33  1  0  0  0  0
 38 34  1  0  0  0  0
 39 35  1  0  0  0  0
M  END
>  <minimizedAffinity>
-5.24534893

$$$$

 OpenBabel03252508553D

 39 41  0  0  1  0  0  0  0  0999 V2000
   37.6150   29.2270   41.4180 C   0  0  0  0  0  0  0  0  0  0  0  0
   38.7530   29.3920   41.9430 O   0  0  0  0  0  0  0  0  0  0  0  0
   37.3230   27.8750   41.8740 N   0  0  0  0  0  0  0  0  0  0  0  0
   37.2890   27.7180   43.3160 C   0  0  0  0  0  0  0  0  0  0  0  0
   38.6490   27.1180   43.6750 C   0  0  0  0  0  0  0  0  0  0  0  0
   39.0370   26.1740   42.5430 C   0  0  0  0  0  0  0  0  0  0  0  0
   37.8030   25.5770   41.8620 C   0  0  0  0  0  0  0  0  0  0  0  0
   37.0650   26.6670   41.0910 C   0  0  2  0  0  0  0  0  0  0  0  0
   37.1030   28.6700   43.8410 H   0  0  0  0  0  0  0  0  0  0  0  0
   36.5140   26.9700   43.6120 H   0  0  0  0  0  0  0  0  0  0  0  0
   38.6110   26.5720   44.6480 H   0  0  0  0  0  0  0  0  0  0  0  0
   39.3620   27.9650   43.7220 H   0  0  0  0  0  0  0  0  0  0  0  0
   39.6740   26.6560   41.7890 H   0  0  0  0  0  0  0  0  0  0  0  0
   39.5510   25.3080   43.0240 H   0  0  0  0  0  0  0  0  0  0  0  0
   38.1770   24.8700   41.1150 H   0  0  0  0  0  0  0  0  0  0  0  0
   37.1580   25.0900   42.6110 H   0  0  0  0  0  0  0  0  0  0  0  0
   35.9940   26.4260   41.1300 H   0  0  0  0  0  0  0  0  0  0  0  0
   37.1920   25.9280   37.6590 H   0  0  0  0  0  0  0  0  0  0  0  0
   36.9450   25.9470   38.7190 C   0  0  0  0  0  0  0  0  0  0  0  0
   36.0410   25.1390   39.1210 O   0  0  0  0  0  0  0  0  0  0  0  0
   37.5180   26.7810   39.7400 N   0  0  0  0  0  0  0  0  0  0  0  0
   38.2450   27.4320   39.4230 H   0  0  0  0  0  0  0  0  0  0  0  0
   36.8980   30.1010   40.6480 O   0  0  0  0  0  0  0  0  0  0  0  0
   36.9590   30.2320   39.2840 C   0  0  0  0  0  0  0  0  0  0  0  0
   37.6870   31.3090   38.7660 C   0  0  0  0  0  0  0  0  0  0  0  0
   37.7400   31.4280   37.3630 C   0  0  0  0  0  0  0  0  0  0  0  0
   37.0880   30.5000   36.6070 N   0  0  0  0  0  0  0  0  0  0  0  0
   36.4090   29.4930   37.1540 C   0  0  0  0  0  0  0  0  0  0  0  0
   36.3400   29.3510   38.4990 N   0  0  0  0  0  0  0  0  0  0  0  0
   38.2980   32.2530   36.9710 H   0  0  0  0  0  0  0  0  0  0  0  0
   35.8970   28.7630   36.5480 H   0  0  0  0  0  0  0  0  0  0  0  0
   38.3490   32.2480   39.6610 C   0  0  0  0  0  0  0  0  0  0  0  0
   39.7150   32.2600   39.8560 C   0  0  0  0  0  0  0  0  0  0  0  0
   39.9000   33.2890   40.7660 C   0  0  0  0  0  0  0  0  0  0  0  0
   38.7220   33.8510   41.0890 N   0  0  0  0  0  0  0  0  0  0  0  0
   37.7940   33.2070   40.4100 N   0  0  0  0  0  0  0  0  0  0  0  0
   40.4970   31.6230   39.4140 H   0  0  0  0  0  0  0  0  0  0  0  0
   40.8710   33.5910   41.1570 H   0  0  0  0  0  0  0  0  0  0  0  0
   38.5880   34.6470   41.7560 H   0  0  0  0  0  0  0  0  0  0  0  0
  1  3  1  0  0  0  0
  1  2  2  0  0  0  0
  3  4  1  0  0  0  0
  4 10  1  0  0  0  0
  4  5  1  0  0  0  0
  4  9  1  0  0  0  0
  5 12  1  0  0  0  0
  5 11  1  0  0  0  0
  6 14  1  0  0  0  0
  6  5  1  0  0  0  0
  7  6  1  0  0  0  0
  7 16  1  0  0  0  0
  8 17  1  1  0  0  0
  8  7  1  0  0  0  0
  8  3  1  0  0  0  0
 13  6  1  0  0  0  0
 15  7  1  0  0  0  0
 18 19  1  0  0  0  0
 19 20  2  0  0  0  0
 19 21  1  0  0  0  0
 21  8  1  0  0  0  0
 22 21  1  0  0  0  0
 23  1  1  0  0  0  0
 24 23  1  0  0  0  0
 25 24  1  0  0  0  0
 25 32  1  0  0  0  0
 26 25  2  0  0  0  0
 27 28  2  0  0  0  0
 27 26  1  0  0  0  0
 28 29  1  0  0  0  0
 29 24  2  0  0  0  0
 30 26  1  0  0  0  0
 31 28  1  0  0  0  0
 32 33  1  0  0  0  0
 32 36  2  0  0  0  0
 33 34  2  0  0  0  0
 34 35  1  0  0  0  0
 34 38  1  0  0  0  0
 35 39  1  0  0  0  0
 36 35  1  0  0  0  0
 37 33  1  0  0  0  0
M  END
>  <minimizedAffinity>
-5.23660851

$$$$

 OpenBabel03252508553D

 39 41  0  0  1  0  0  0  0  0999 V2000
   36.6080   26.6190   39.4960 C   0  0  0  0  0  0  0  0  0  0  0  0
   36.4150   25.4220   39.1370 O   0  0  0  0  0  0  0  0  0  0  0  0
   37.8390   26.4560   40.2570 N   0  0  0  0  0  0  0  0  0  0  0  0
   38.9550   25.9260   39.4940 C   0  0  0  0  0  0  0  0  0  0  0  0
   39.0040   24.4420   39.8560 C   0  0  0  0  0  0  0  0  0  0  0  0
   38.6070   24.3220   41.3230 C   0  0  0  0  0  0  0  0  0  0  0  0
   38.9830   25.5790   42.1100 C   0  0  0  0  0  0  0  0  0  0  0  0
   38.1050   26.7450   41.6650 C   0  0  2  0  0  0  0  0  0  0  0  0
   38.8400   26.0860   38.4090 H   0  0  0  0  0  0  0  0  0  0  0  0
   39.9160   26.3780   39.8390 H   0  0  0  0  0  0  0  0  0  0  0  0
   40.0200   24.0130   39.6870 H   0  0  0  0  0  0  0  0  0  0  0  0
   38.2500   23.9390   39.2190 H   0  0  0  0  0  0  0  0  0  0  0  0
   37.5370   24.1130   41.4570 H   0  0  0  0  0  0  0  0  0  0  0  0
   39.2420   23.5110   41.7510 H   0  0  0  0  0  0  0  0  0  0  0  0
   38.7230   25.3780   43.1530 H   0  0  0  0  0  0  0  0  0  0  0  0
   40.0560   25.7970   41.9830 H   0  0  0  0  0  0  0  0  0  0  0  0
   38.7100   27.6590   41.7450 H   0  0  0  0  0  0  0  0  0  0  0  0
   35.9850   28.0010   44.1690 H   0  0  0  0  0  0  0  0  0  0  0  0
   36.8260   27.8130   43.5050 C   0  0  0  0  0  0  0  0  0  0  0  0
   37.8750   28.5220   43.6790 O   0  0  0  0  0  0  0  0  0  0  0  0
   36.9080   26.8520   42.4390 N   0  0  0  0  0  0  0  0  0  0  0  0
   36.0680   26.2800   42.2950 H   0  0  0  0  0  0  0  0  0  0  0  0
   35.8490   27.7230   39.2220 O   0  0  0  0  0  0  0  0  0  0  0  0
   36.1560   29.0240   39.5290 C   0  0  0  0  0  0  0  0  0  0  0  0
   36.7120   29.8180   38.5180 C   0  0  0  0  0  0  0  0  0  0  0  0
   37.0210   31.1520   38.8510 C   0  0  0  0  0  0  0  0  0  0  0  0
   36.7630   31.5820   40.1180 N   0  0  0  0  0  0  0  0  0  0  0  0
   36.2310   30.7830   41.0420 C   0  0  0  0  0  0  0  0  0  0  0  0
   35.9230   29.4960   40.7540 N   0  0  0  0  0  0  0  0  0  0  0  0
   37.4460   31.7540   38.0740 H   0  0  0  0  0  0  0  0  0  0  0  0
   36.0300   31.1330   42.0420 H   0  0  0  0  0  0  0  0  0  0  0  0
   36.9490   29.2610   37.1940 C   0  0  0  0  0  0  0  0  0  0  0  0
   36.0050   29.2940   36.1880 C   0  0  0  0  0  0  0  0  0  0  0  0
   36.6410   28.6670   35.1290 C   0  0  0  0  0  0  0  0  0  0  0  0
   37.8830   28.2870   35.4830 N   0  0  0  0  0  0  0  0  0  0  0  0
   38.0500   28.6550   36.7370 N   0  0  0  0  0  0  0  0  0  0  0  0
   34.9850   29.7080   36.1910 H   0  0  0  0  0  0  0  0  0  0  0  0
   36.1890   28.5090   34.1510 H   0  0  0  0  0  0  0  0  0  0  0  0
   38.5690   27.7930   34.8650 H   0  0  0  0  0  0  0  0  0  0  0  0
  1  3  1  0  0  0  0
  2  1  2  0  0  0  0
  3  8  1  0  0  0  0
  4 10  1  0  0  0  0
  4  5  1  0  0  0  0
  4  3  1  0  0  0  0
  5  6  1  0  0  0  0
  6 13  1  0  0  0  0
  6 14  1  0  0  0  0
  6  7  1  0  0  0  0
  7 15  1  0  0  0  0
  8 17  1  1  0  0  0
  8  7  1  0  0  0  0
  8 21  1  0  0  0  0
  9  4  1  0  0  0  0
 11  5  1  0  0  0  0
 12  5  1  0  0  0  0
 16  7  1  0  0  0  0
 19 20  2  0  0  0  0
 19 18  1  0  0  0  0
 21 19  1  0  0  0  0
 22 21  1  0  0  0  0
 23  1  1  0  0  0  0
 23 24  1  0  0  0  0
 24 29  1  0  0  0  0
 25 26  1  0  0  0  0
 25 24  2  0  0  0  0
 26 27  2  0  0  0  0
 27 28  1  0  0  0  0
 28 31  1  0  0  0  0
 29 28  2  0  0  0  0
 30 26  1  0  0  0  0
 32 25  1  0  0  0  0
 33 37  1  0  0  0  0
 33 32  1  0  0  0  0
 34 35  1  0  0  0  0
 34 33  2  0  0  0  0
 35 36  1  0  0  0  0
 36 32  2  0  0  0  0
 38 34  1  0  0  0  0
 39 35  1  0  0  0  0
M  END
>  <minimizedAffinity>
-5.21436501

$$$$

 OpenBabel03252508553D

 39 41  0  0  1  0  0  0  0  0999 V2000
   38.8860   28.5200   40.1600 C   0  0  0  0  0  0  0  0  0  0  0  0
   39.5370   29.4420   39.5910 O   0  0  0  0  0  0  0  0  0  0  0  0
   37.5860   29.1670   40.2770 N   0  0  0  0  0  0  0  0  0  0  0  0
   36.9900   29.5580   39.0130 C   0  0  0  0  0  0  0  0  0  0  0  0
   37.2800   31.0540   38.8920 C   0  0  0  0  0  0  0  0  0  0  0  0
   37.2010   31.6430   40.2960 C   0  0  0  0  0  0  0  0  0  0  0  0
   36.2300   30.8570   41.1800 C   0  0  0  0  0  0  0  0  0  0  0  0
   36.8080   29.4760   41.4760 C   0  0  2  0  0  0  0  0  0  0  0  0
   37.3930   28.9860   38.1600 H   0  0  0  0  0  0  0  0  0  0  0  0
   35.8800   29.4420   39.0490 H   0  0  0  0  0  0  0  0  0  0  0  0
   36.5520   31.5580   38.2130 H   0  0  0  0  0  0  0  0  0  0  0  0
   38.3130   31.1430   38.5030 H   0  0  0  0  0  0  0  0  0  0  0  0
   38.1810   31.6980   40.7880 H   0  0  0  0  0  0  0  0  0  0  0  0
   36.7390   32.6520   40.1840 H   0  0  0  0  0  0  0  0  0  0  0  0
   36.1900   31.3860   42.1370 H   0  0  0  0  0  0  0  0  0  0  0  0
   35.2430   30.7980   40.6940 H   0  0  0  0  0  0  0  0  0  0  0  0
   35.9630   28.7790   41.5550 H   0  0  0  0  0  0  0  0  0  0  0  0
   37.9840   28.2540   44.5510 H   0  0  0  0  0  0  0  0  0  0  0  0
   37.4510   28.3910   43.6130 C   0  0  0  0  0  0  0  0  0  0  0  0
   36.5830   27.5060   43.3010 O   0  0  0  0  0  0  0  0  0  0  0  0
   37.6010   29.4610   42.6650 N   0  0  0  0  0  0  0  0  0  0  0  0
   38.2960   30.1740   42.9100 H   0  0  0  0  0  0  0  0  0  0  0  0
   39.3210   27.2790   40.5390 O   0  0  0  0  0  0  0  0  0  0  0  0
   38.5440   26.1700   40.7530 C   0  0  0  0  0  0  0  0  0  0  0  0
   39.0450   25.1790   41.6060 C   0  0  0  0  0  0  0  0  0  0  0  0
   38.2330   24.0460   41.8160 C   0  0  0  0  0  0  0  0  0  0  0  0
   37.0270   23.9850   41.1830 N   0  0  0  0  0  0  0  0  0  0  0  0
   36.5990   24.9580   40.3800 C   0  0  0  0  0  0  0  0  0  0  0  0
   37.3550   26.0600   40.1590 N   0  0  0  0  0  0  0  0  0  0  0  0
   38.6210   23.2920   42.4690 H   0  0  0  0  0  0  0  0  0  0  0  0
   35.6440   24.9000   39.8840 H   0  0  0  0  0  0  0  0  0  0  0  0
   40.3490   25.3410   42.2350 C   0  0  0  0  0  0  0  0  0  0  0  0
   40.5120   25.9010   43.4860 C   0  0  0  0  0  0  0  0  0  0  0  0
   41.8830   25.8570   43.6800 C   0  0  0  0  0  0  0  0  0  0  0  0
   42.4930   25.3080   42.6140 N   0  0  0  0  0  0  0  0  0  0  0  0
   41.5470   25.0020   41.7500 N   0  0  0  0  0  0  0  0  0  0  0  0
   39.7600   26.2960   44.1860 H   0  0  0  0  0  0  0  0  0  0  0  0
   42.3850   26.2210   44.5750 H   0  0  0  0  0  0  0  0  0  0  0  0
   43.5250   25.1600   42.5100 H   0  0  0  0  0  0  0  0  0  0  0  0
  1  3  1  0  0  0  0
  1 23  1  0  0  0  0
  2  1  2  0  0  0  0
  3  8  1  0  0  0  0
  4 10  1  0  0  0  0
  4  3  1  0  0  0  0
  5  4  1  0  0  0  0
  5  6  1  0  0  0  0
  6 13  1  0  0  0  0
  6  7  1  0  0  0  0
  7  8  1  0  0  0  0
  7 15  1  0  0  0  0
  8 17  1  1  0  0  0
  8 21  1  0  0  0  0
  9  4  1  0  0  0  0
 11  5  1  0  0  0  0
 12  5  1  0  0  0  0
 14  6  1  0  0  0  0
 16  7  1  0  0  0  0
 19 18  1  0  0  0  0
 20 19  2  0  0  0  0
 21 22  1  0  0  0  0
 21 19  1  0  0  0  0
 23 24  1  0  0  0  0
 24 25  1  0  0  0  0
 25 26  2  0  0  0  0
 25 32  1  0  0  0  0
 26 30  1  0  0  0  0
 27 26  1  0  0  0  0
 28 27  2  0  0  0  0
 29 28  1  0  0  0  0
 29 24  2  0  0  0  0
 31 28  1  0  0  0  0
 32 33  1  0  0  0  0
 33 34  2  0  0  0  0
 33 37  1  0  0  0  0
 34 38  1  0  0  0  0
 35 34  1  0  0  0  0
 36 32  2  0  0  0  0
 36 35  1  0  0  0  0
 39 35  1  0  0  0  0
M  END
>  <minimizedAffinity>
-5.20596933

$$$$
