
 OpenBabel03242512583D

 24 25  0  0  0  0  0  0  0  0999 V2000
   37.9170   30.2500   42.2960 F   0  0  0  0  0  0  0  0  0  0  0  0
   37.1530   29.9750   41.1980 C   0  0  0  0  0  0  0  0  0  0  0  0
   37.2500   30.7050   40.0400 C   0  0  0  0  0  0  0  0  0  0  0  0
   36.4370   30.3420   39.0020 C   0  0  0  0  0  0  0  0  0  0  0  0
   35.5430   29.3050   39.0510 C   0  0  0  0  0  0  0  0  0  0  0  0
   35.4790   28.5990   40.2330 C   0  0  0  0  0  0  0  0  0  0  0  0
   36.2710   28.9170   41.3100 C   0  0  0  0  0  0  0  0  0  0  0  0
   36.5160   30.9240   38.0870 H   0  0  0  0  0  0  0  0  0  0  0  0
   34.9380   29.0930   38.1730 H   0  0  0  0  0  0  0  0  0  0  0  0
   34.7720   27.7760   40.2770 H   0  0  0  0  0  0  0  0  0  0  0  0
   38.7970   34.1600   40.2540 C   0  0  0  0  0  0  0  0  0  0  0  0
   37.8510   33.1240   40.2870 C   0  0  0  0  0  0  0  0  0  0  0  0
   38.2130   31.8090   40.0140 C   0  0  0  0  0  0  0  0  0  0  0  0
   39.5220   31.6110   39.7190 N   0  0  0  0  0  0  0  0  0  0  0  0
   40.4190   32.6060   39.6890 C   0  0  0  0  0  0  0  0  0  0  0  0
   40.0720   33.8640   39.9510 N   0  0  0  0  0  0  0  0  0  0  0  0
   38.4070   35.1410   40.4820 H   0  0  0  0  0  0  0  0  0  0  0  0
   36.8160   33.2800   40.5210 H   0  0  0  0  0  0  0  0  0  0  0  0
   41.4210   32.2840   39.4370 H   0  0  0  0  0  0  0  0  0  0  0  0
   36.8440   26.5690   43.8390 H   0  0  0  0  0  0  0  0  0  0  0  0
   36.9800   27.0580   42.8980 C   0  0  0  0  0  0  0  0  0  0  0  0
   37.8880   26.5440   42.1780 O   0  0  0  0  0  0  0  0  0  0  0  0
   36.1930   28.1730   42.5330 N   0  0  0  0  0  0  0  0  0  0  0  0
   35.4690   28.5000   43.2280 H   0  0  0  0  0  0  0  0  0  0  0  0
  2  7  1  0  0  0  0
  2  1  1  0  0  0  0
  3  2  2  0  0  0  0
  4  5  2  0  0  0  0
  4  3  1  0  0  0  0
  5  6  1  0  0  0  0
  6 10  1  0  0  0  0
  6  7  2  0  0  0  0
  7 23  1  0  0  0  0
  8  4  1  0  0  0  0
  9  5  1  0  0  0  0
 11 12  1  0  0  0  0
 11 17  1  0  0  0  0
 12 18  1  0  0  0  0
 13  3  1  0  0  0  0
 13 12  2  0  0  0  0
 14 13  1  0  0  0  0
 15 14  2  0  0  0  0
 15 16  1  0  0  0  0
 16 11  2  0  0  0  0
 19 15  1  0  0  0  0
 21 20  1  0  0  0  0
 22 21  2  0  0  0  0
 23 21  1  0  0  0  0
 23 24  1  0  0  0  0
M  END
>  <minimizedAffinity>
-4.64346504

$$$$

 OpenBabel03242512583D

 24 25  0  0  0  0  0  0  0  0999 V2000
   36.0720   27.8400   40.2420 F   0  0  0  0  0  0  0  0  0  0  0  0
   36.8790   27.7430   41.3400 C   0  0  0  0  0  0  0  0  0  0  0  0
   37.5820   26.6010   41.6290 C   0  0  0  0  0  0  0  0  0  0  0  0
   38.3600   26.6140   42.7530 C   0  0  0  0  0  0  0  0  0  0  0  0
   38.4760   27.6870   43.5960 C   0  0  0  0  0  0  0  0  0  0  0  0
   37.7530   28.8130   43.2670 C   0  0  0  0  0  0  0  0  0  0  0  0
   36.9550   28.8600   42.1500 C   0  0  0  0  0  0  0  0  0  0  0  0
   38.9150   25.7060   42.9810 H   0  0  0  0  0  0  0  0  0  0  0  0
   39.1210   27.6020   44.4680 H   0  0  0  0  0  0  0  0  0  0  0  0
   37.8420   29.6670   43.9320 H   0  0  0  0  0  0  0  0  0  0  0  0
   36.5190   23.2980   40.0990 C   0  0  0  0  0  0  0  0  0  0  0  0
   36.6350   24.3700   40.9980 C   0  0  0  0  0  0  0  0  0  0  0  0
   37.4410   25.4660   40.7120 C   0  0  0  0  0  0  0  0  0  0  0  0
   38.0920   25.4210   39.5230 N   0  0  0  0  0  0  0  0  0  0  0  0
   37.9760   24.3940   38.6710 C   0  0  0  0  0  0  0  0  0  0  0  0
   37.2050   23.3450   38.9450 N   0  0  0  0  0  0  0  0  0  0  0  0
   35.8670   22.5000   40.4230 H   0  0  0  0  0  0  0  0  0  0  0  0
   36.1190   24.4070   41.9380 H   0  0  0  0  0  0  0  0  0  0  0  0
   38.5590   24.5090   37.7660 H   0  0  0  0  0  0  0  0  0  0  0  0
   35.9510   31.8950   40.7310 H   0  0  0  0  0  0  0  0  0  0  0  0
   36.5820   31.0500   40.9080 C   0  0  0  0  0  0  0  0  0  0  0  0
   37.6570   31.0600   40.2360 O   0  0  0  0  0  0  0  0  0  0  0  0
   36.2080   30.0380   41.8210 N   0  0  0  0  0  0  0  0  0  0  0  0
   35.2830   30.1540   42.3170 H   0  0  0  0  0  0  0  0  0  0  0  0
  1  2  1  0  0  0  0
  2  3  2  0  0  0  0
  2  7  1  0  0  0  0
  3  4  1  0  0  0  0
  4  8  1  0  0  0  0
  4  5  2  0  0  0  0
  5  9  1  0  0  0  0
  6  5  1  0  0  0  0
  6 10  1  0  0  0  0
  7  6  2  0  0  0  0
 11 17  1  0  0  0  0
 11 12  1  0  0  0  0
 12 18  1  0  0  0  0
 13 12  2  0  0  0  0
 13  3  1  0  0  0  0
 14 13  1  0  0  0  0
 15 16  1  0  0  0  0
 15 14  2  0  0  0  0
 16 11  2  0  0  0  0
 19 15  1  0  0  0  0
 20 21  1  0  0  0  0
 21 23  1  0  0  0  0
 22 21  2  0  0  0  0
 23  7  1  0  0  0  0
 23 24  1  0  0  0  0
M  END
>  <minimizedAffinity>
-4.60116434

$$$$

 OpenBabel03242512583D

 24 25  0  0  0  0  0  0  0  0999 V2000
   37.0280   31.7560   37.9110 F   0  0  0  0  0  0  0  0  0  0  0  0
   36.6180   30.9060   38.8990 C   0  0  0  0  0  0  0  0  0  0  0  0
   36.1720   29.6370   38.6300 C   0  0  0  0  0  0  0  0  0  0  0  0
   35.7850   28.8720   39.6950 C   0  0  0  0  0  0  0  0  0  0  0  0
   35.8170   29.2940   40.9980 C   0  0  0  0  0  0  0  0  0  0  0  0
   36.2720   30.5750   41.2210 C   0  0  0  0  0  0  0  0  0  0  0  0
   36.6740   31.3910   40.1920 C   0  0  0  0  0  0  0  0  0  0  0  0
   35.4310   27.8660   39.4780 H   0  0  0  0  0  0  0  0  0  0  0  0
   35.4880   28.6120   41.7780 H   0  0  0  0  0  0  0  0  0  0  0  0
   36.3000   30.9150   42.2530 H   0  0  0  0  0  0  0  0  0  0  0  0
   34.9810   28.7330   35.1450 C   0  0  0  0  0  0  0  0  0  0  0  0
   34.9720   29.1470   36.4860 C   0  0  0  0  0  0  0  0  0  0  0  0
   36.1470   29.2090   37.2280 C   0  0  0  0  0  0  0  0  0  0  0  0
   37.2760   28.8480   36.5700 N   0  0  0  0  0  0  0  0  0  0  0  0
   37.2750   28.4540   35.2890 C   0  0  0  0  0  0  0  0  0  0  0  0
   36.1510   28.3940   34.5790 N   0  0  0  0  0  0  0  0  0  0  0  0
   34.0130   28.7220   34.6660 H   0  0  0  0  0  0  0  0  0  0  0  0
   34.0800   29.4340   37.0070 H   0  0  0  0  0  0  0  0  0  0  0  0
   38.2560   28.1980   34.9100 H   0  0  0  0  0  0  0  0  0  0  0  0
   38.7370   34.1520   40.7890 H   0  0  0  0  0  0  0  0  0  0  0  0
   38.4880   33.1280   40.6070 C   0  0  0  0  0  0  0  0  0  0  0  0
   39.4910   32.3540   40.5600 O   0  0  0  0  0  0  0  0  0  0  0  0
   37.1450   32.7220   40.4400 N   0  0  0  0  0  0  0  0  0  0  0  0
   36.4030   33.4710   40.5030 H   0  0  0  0  0  0  0  0  0  0  0  0
  1  2  1  0  0  0  0
  2  7  1  0  0  0  0
  3  2  2  0  0  0  0
  3  4  1  0  0  0  0
  4  5  2  0  0  0  0
  5  6  1  0  0  0  0
  5  9  1  0  0  0  0
  6 10  1  0  0  0  0
  7 23  1  0  0  0  0
  7  6  2  0  0  0  0
  8  4  1  0  0  0  0
 11 12  1  0  0  0  0
 12 18  1  0  0  0  0
 12 13  2  0  0  0  0
 13  3  1  0  0  0  0
 14 13  1  0  0  0  0
 15 14  2  0  0  0  0
 16 11  2  0  0  0  0
 16 15  1  0  0  0  0
 17 11  1  0  0  0  0
 19 15  1  0  0  0  0
 21 20  1  0  0  0  0
 22 21  2  0  0  0  0
 23 24  1  0  0  0  0
 23 21  1  0  0  0  0
M  END
>  <minimizedAffinity>
-4.56990767

$$$$

 OpenBabel03242512583D

 24 25  0  0  0  0  0  0  0  0999 V2000
   37.1100   31.8200   39.6070 F   0  0  0  0  0  0  0  0  0  0  0  0
   37.7010   31.1110   40.6140 C   0  0  0  0  0  0  0  0  0  0  0  0
   39.0420   31.2070   40.8830 C   0  0  0  0  0  0  0  0  0  0  0  0
   39.5290   30.4520   41.9140 C   0  0  0  0  0  0  0  0  0  0  0  0
   38.7630   29.6160   42.6830 C   0  0  0  0  0  0  0  0  0  0  0  0
   37.4210   29.5510   42.3780 C   0  0  0  0  0  0  0  0  0  0  0  0
   36.8750   30.2860   41.3540 C   0  0  0  0  0  0  0  0  0  0  0  0
   40.5930   30.5300   42.1240 H   0  0  0  0  0  0  0  0  0  0  0  0
   39.2410   29.0550   43.4830 H   0  0  0  0  0  0  0  0  0  0  0  0
   36.8090   28.8900   42.9850 H   0  0  0  0  0  0  0  0  0  0  0  0
   41.1070   34.1560   39.6910 C   0  0  0  0  0  0  0  0  0  0  0  0
   40.3470   33.3140   40.5180 C   0  0  0  0  0  0  0  0  0  0  0  0
   39.8400   32.1080   40.0460 C   0  0  0  0  0  0  0  0  0  0  0  0
   40.1310   31.8150   38.7540 N   0  0  0  0  0  0  0  0  0  0  0  0
   40.8580   32.6240   37.9720 C   0  0  0  0  0  0  0  0  0  0  0  0
   41.3430   33.7780   38.4240 N   0  0  0  0  0  0  0  0  0  0  0  0
   41.4500   35.0660   40.1610 H   0  0  0  0  0  0  0  0  0  0  0  0
   40.1170   33.5450   41.5400 H   0  0  0  0  0  0  0  0  0  0  0  0
   41.0010   32.2480   36.9680 H   0  0  0  0  0  0  0  0  0  0  0  0
   33.7920   29.3060   40.0230 H   0  0  0  0  0  0  0  0  0  0  0  0
   34.8490   29.2810   40.1850 C   0  0  0  0  0  0  0  0  0  0  0  0
   35.4480   28.3680   39.5420 O   0  0  0  0  0  0  0  0  0  0  0  0
   35.4770   30.2070   41.0480 N   0  0  0  0  0  0  0  0  0  0  0  0
   34.8590   30.9200   41.5230 H   0  0  0  0  0  0  0  0  0  0  0  0
  1  2  1  0  0  0  0
  2  3  2  0  0  0  0
  2  7  1  0  0  0  0
  3  4  1  0  0  0  0
  4  8  1  0  0  0  0
  4  5  2  0  0  0  0
  5  9  1  0  0  0  0
  6  5  1  0  0  0  0
  6 10  1  0  0  0  0
  7  6  2  0  0  0  0
 11 17  1  0  0  0  0
 11 12  1  0  0  0  0
 12 18  1  0  0  0  0
 13 12  2  0  0  0  0
 13  3  1  0  0  0  0
 14 13  1  0  0  0  0
 15 16  1  0  0  0  0
 15 14  2  0  0  0  0
 16 11  2  0  0  0  0
 19 15  1  0  0  0  0
 20 21  1  0  0  0  0
 21 23  1  0  0  0  0
 22 21  2  0  0  0  0
 23  7  1  0  0  0  0
 23 24  1  0  0  0  0
M  END
>  <minimizedAffinity>
-4.56862974

$$$$

 OpenBabel03242512583D

 24 25  0  0  0  0  0  0  0  0999 V2000
   40.0350   30.5170   42.1990 F   0  0  0  0  0  0  0  0  0  0  0  0
   39.0560   31.1520   41.4880 C   0  0  0  0  0  0  0  0  0  0  0  0
   37.8390   30.5700   41.2420 C   0  0  0  0  0  0  0  0  0  0  0  0
   36.9330   31.2960   40.5200 C   0  0  0  0  0  0  0  0  0  0  0  0
   37.1680   32.5550   40.0340 C   0  0  0  0  0  0  0  0  0  0  0  0
   38.4040   33.1010   40.3050 C   0  0  0  0  0  0  0  0  0  0  0  0
   39.3550   32.4200   41.0260 C   0  0  0  0  0  0  0  0  0  0  0  0
   35.9690   30.8310   40.3260 H   0  0  0  0  0  0  0  0  0  0  0  0
   36.3840   33.0540   39.4690 H   0  0  0  0  0  0  0  0  0  0  0  0
   38.5960   34.1000   39.9230 H   0  0  0  0  0  0  0  0  0  0  0  0
   37.2710   27.6640   43.6110 C   0  0  0  0  0  0  0  0  0  0  0  0
   37.4880   28.9650   43.1330 C   0  0  0  0  0  0  0  0  0  0  0  0
   37.6120   29.2220   41.7720 C   0  0  0  0  0  0  0  0  0  0  0  0
   37.5080   28.1410   40.9600 N   0  0  0  0  0  0  0  0  0  0  0  0
   37.3010   26.9010   41.4240 C   0  0  0  0  0  0  0  0  0  0  0  0
   37.1820   26.6560   42.7270 N   0  0  0  0  0  0  0  0  0  0  0  0
   37.1910   27.5800   44.6850 H   0  0  0  0  0  0  0  0  0  0  0  0
   37.5700   29.8210   43.7750 H   0  0  0  0  0  0  0  0  0  0  0  0
   37.2420   26.1490   40.6490 H   0  0  0  0  0  0  0  0  0  0  0  0
   42.7220   33.3440   40.8170 H   0  0  0  0  0  0  0  0  0  0  0  0
   41.8100   32.8670   40.5250 C   0  0  0  0  0  0  0  0  0  0  0  0
   41.9000   32.1960   39.4540 O   0  0  0  0  0  0  0  0  0  0  0  0
   40.6360   33.0010   41.3000 N   0  0  0  0  0  0  0  0  0  0  0  0
   40.6990   33.5920   42.1730 H   0  0  0  0  0  0  0  0  0  0  0  0
  2  1  1  0  0  0  0
  3  2  1  0  0  0  0
  3 13  1  0  0  0  0
  4  3  2  0  0  0  0
  5  6  2  0  0  0  0
  5  4  1  0  0  0  0
  6  7  1  0  0  0  0
  7 23  1  0  0  0  0
  7  2  2  0  0  0  0
  8  4  1  0  0  0  0
  9  5  1  0  0  0  0
 10  6  1  0  0  0  0
 11 17  1  0  0  0  0
 12 11  1  0  0  0  0
 12 18  1  0  0  0  0
 13 12  2  0  0  0  0
 14 15  2  0  0  0  0
 14 13  1  0  0  0  0
 15 16  1  0  0  0  0
 16 11  2  0  0  0  0
 19 15  1  0  0  0  0
 21 20  1  0  0  0  0
 21 23  1  0  0  0  0
 22 21  2  0  0  0  0
 23 24  1  0  0  0  0
M  END
>  <minimizedAffinity>
-4.53722143

$$$$

 OpenBabel03242512583D

 24 25  0  0  0  0  0  0  0  0999 V2000
   37.8780   28.5280   38.8160 F   0  0  0  0  0  0  0  0  0  0  0  0
   37.6390   29.8430   39.0980 C   0  0  0  0  0  0  0  0  0  0  0  0
   37.4870   30.2970   40.3840 C   0  0  0  0  0  0  0  0  0  0  0  0
   37.2510   31.6330   40.5500 C   0  0  0  0  0  0  0  0  0  0  0  0
   37.1580   32.5330   39.5210 C   0  0  0  0  0  0  0  0  0  0  0  0
   37.3180   32.0330   38.2470 C   0  0  0  0  0  0  0  0  0  0  0  0
   37.5570   30.7000   38.0170 C   0  0  0  0  0  0  0  0  0  0  0  0
   37.1300   31.9900   41.5710 H   0  0  0  0  0  0  0  0  0  0  0  0
   36.9670   33.5780   39.7540 H   0  0  0  0  0  0  0  0  0  0  0  0
   37.2460   32.7410   37.4270 H   0  0  0  0  0  0  0  0  0  0  0  0
   36.6580   27.5640   42.8780 C   0  0  0  0  0  0  0  0  0  0  0  0
   36.5290   28.4950   41.8360 C   0  0  0  0  0  0  0  0  0  0  0  0
   37.5900   29.3150   41.4670 C   0  0  0  0  0  0  0  0  0  0  0  0
   38.7340   29.1480   42.1760 N   0  0  0  0  0  0  0  0  0  0  0  0
   38.8490   28.2570   43.1690 C   0  0  0  0  0  0  0  0  0  0  0  0
   37.8340   27.4720   43.5220 N   0  0  0  0  0  0  0  0  0  0  0  0
   35.7720   26.9800   43.0800 H   0  0  0  0  0  0  0  0  0  0  0  0
   35.6240   28.6270   41.2740 H   0  0  0  0  0  0  0  0  0  0  0  0
   39.8250   28.2460   43.6360 H   0  0  0  0  0  0  0  0  0  0  0  0
   36.9600   29.2230   34.9030 H   0  0  0  0  0  0  0  0  0  0  0  0
   36.7360   29.5670   35.8910 C   0  0  0  0  0  0  0  0  0  0  0  0
   35.5400   29.3550   36.2510 O   0  0  0  0  0  0  0  0  0  0  0  0
   37.7210   30.1950   36.6860 N   0  0  0  0  0  0  0  0  0  0  0  0
   38.6820   30.3090   36.2620 H   0  0  0  0  0  0  0  0  0  0  0  0
  1  2  1  0  0  0  0
  2  3  1  0  0  0  0
  3  4  2  0  0  0  0
  3 13  1  0  0  0  0
  4  8  1  0  0  0  0
  5  9  1  0  0  0  0
  5  4  1  0  0  0  0
  6  5  2  0  0  0  0
  7  6  1  0  0  0  0
  7  2  2  0  0  0  0
 10  6  1  0  0  0  0
 11 17  1  0  0  0  0
 11 16  1  0  0  0  0
 12 11  2  0  0  0  0
 13 12  1  0  0  0  0
 13 14  2  0  0  0  0
 14 15  1  0  0  0  0
 15 16  2  0  0  0  0
 15 19  1  0  0  0  0
 18 12  1  0  0  0  0
 20 21  1  0  0  0  0
 21 22  2  0  0  0  0
 21 23  1  0  0  0  0
 23  7  1  0  0  0  0
 24 23  1  0  0  0  0
M  END
>  <minimizedAffinity>
-4.39058447

$$$$

 OpenBabel03242512583D

 24 25  0  0  0  0  0  0  0  0999 V2000
   37.4430   31.1090   37.2220 F   0  0  0  0  0  0  0  0  0  0  0  0
   36.6270   30.4800   38.1200 C   0  0  0  0  0  0  0  0  0  0  0  0
   36.6300   30.7980   39.4550 C   0  0  0  0  0  0  0  0  0  0  0  0
   35.7730   30.1050   40.2630 C   0  0  0  0  0  0  0  0  0  0  0  0
   34.9230   29.1250   39.8230 C   0  0  0  0  0  0  0  0  0  0  0  0
   34.9530   28.8390   38.4760 C   0  0  0  0  0  0  0  0  0  0  0  0
   35.7930   29.5020   37.6140 C   0  0  0  0  0  0  0  0  0  0  0  0
   35.7780   30.3580   41.3210 H   0  0  0  0  0  0  0  0  0  0  0  0
   34.2770   28.6290   40.5440 H   0  0  0  0  0  0  0  0  0  0  0  0
   34.2810   28.0630   38.1210 H   0  0  0  0  0  0  0  0  0  0  0  0
   39.5750   32.6020   41.0200 C   0  0  0  0  0  0  0  0  0  0  0  0
   38.7150   31.5730   40.6070 C   0  0  0  0  0  0  0  0  0  0  0  0
   37.5490   31.8490   39.9000 C   0  0  0  0  0  0  0  0  0  0  0  0
   37.3140   33.1600   39.6460 N   0  0  0  0  0  0  0  0  0  0  0  0
   38.1410   34.1370   40.0450 C   0  0  0  0  0  0  0  0  0  0  0  0
   39.2560   33.8720   40.7210 N   0  0  0  0  0  0  0  0  0  0  0  0
   40.4500   32.2740   41.5620 H   0  0  0  0  0  0  0  0  0  0  0  0
   38.9010   30.5360   40.8070 H   0  0  0  0  0  0  0  0  0  0  0  0
   37.8120   35.1290   39.7650 H   0  0  0  0  0  0  0  0  0  0  0  0
   36.7030   28.2470   34.4780 H   0  0  0  0  0  0  0  0  0  0  0  0
   36.7780   28.4210   35.5310 C   0  0  0  0  0  0  0  0  0  0  0  0
   37.7880   27.8780   36.0710 O   0  0  0  0  0  0  0  0  0  0  0  0
   35.8130   29.1940   36.2140 N   0  0  0  0  0  0  0  0  0  0  0  0
   35.0180   29.5890   35.6420 H   0  0  0  0  0  0  0  0  0  0  0  0
  1  2  1  0  0  0  0
  2  3  1  0  0  0  0
  3 13  1  0  0  0  0
  3  4  2  0  0  0  0
  4  8  1  0  0  0  0
  5  4  1  0  0  0  0
  5  9  1  0  0  0  0
  6  5  2  0  0  0  0
  7  2  2  0  0  0  0
  7  6  1  0  0  0  0
 10  6  1  0  0  0  0
 11 17  1  0  0  0  0
 12 18  1  0  0  0  0
 12 11  2  0  0  0  0
 13 12  1  0  0  0  0
 14 13  2  0  0  0  0
 14 15  1  0  0  0  0
 15 16  2  0  0  0  0
 16 11  1  0  0  0  0
 19 15  1  0  0  0  0
 20 21  1  0  0  0  0
 21 22  2  0  0  0  0
 21 23  1  0  0  0  0
 23  7  1  0  0  0  0
 24 23  1  0  0  0  0
M  END
>  <minimizedAffinity>
-4.36697674

$$$$

 OpenBabel03242512583D

 24 25  0  0  0  0  0  0  0  0999 V2000
   38.1290   28.2320   39.7620 F   0  0  0  0  0  0  0  0  0  0  0  0
   37.7510   28.0640   41.0640 C   0  0  0  0  0  0  0  0  0  0  0  0
   37.7370   29.1040   41.9590 C   0  0  0  0  0  0  0  0  0  0  0  0
   37.3410   28.8230   43.2370 C   0  0  0  0  0  0  0  0  0  0  0  0
   36.9620   27.5800   43.6690 C   0  0  0  0  0  0  0  0  0  0  0  0
   36.9910   26.5660   42.7370 C   0  0  0  0  0  0  0  0  0  0  0  0
   37.3790   26.7870   41.4380 C   0  0  0  0  0  0  0  0  0  0  0  0
   37.3320   29.6490   43.9440 H   0  0  0  0  0  0  0  0  0  0  0  0
   36.6620   27.4540   44.7070 H   0  0  0  0  0  0  0  0  0  0  0  0
   36.6910   25.5780   43.0740 H   0  0  0  0  0  0  0  0  0  0  0  0
   39.8080   32.1720   41.1360 C   0  0  0  0  0  0  0  0  0  0  0  0
   39.4450   30.9030   41.6130 C   0  0  0  0  0  0  0  0  0  0  0  0
   38.1470   30.4240   41.4710 C   0  0  0  0  0  0  0  0  0  0  0  0
   37.2790   31.2600   40.8490 N   0  0  0  0  0  0  0  0  0  0  0  0
   37.6330   32.4700   40.3970 C   0  0  0  0  0  0  0  0  0  0  0  0
   38.8750   32.9280   40.5330 N   0  0  0  0  0  0  0  0  0  0  0  0
   40.8410   32.4430   41.3000 H   0  0  0  0  0  0  0  0  0  0  0  0
   40.1320   30.2420   42.1050 H   0  0  0  0  0  0  0  0  0  0  0  0
   36.8250   33.0130   39.9250 H   0  0  0  0  0  0  0  0  0  0  0  0
   38.3250   23.9720   39.5900 H   0  0  0  0  0  0  0  0  0  0  0  0
   38.3990   24.7280   40.3420 C   0  0  0  0  0  0  0  0  0  0  0  0
   39.4370   24.6370   41.0630 O   0  0  0  0  0  0  0  0  0  0  0  0
   37.4040   25.7220   40.4790 N   0  0  0  0  0  0  0  0  0  0  0  0
   36.5870   25.6820   39.8100 H   0  0  0  0  0  0  0  0  0  0  0  0
  1  2  1  0  0  0  0
  2  7  2  0  0  0  0
  2  3  1  0  0  0  0
  3  4  2  0  0  0  0
  4  5  1  0  0  0  0
  4  8  1  0  0  0  0
  5  9  1  0  0  0  0
  6 10  1  0  0  0  0
  6  5  2  0  0  0  0
  7  6  1  0  0  0  0
 11 17  1  0  0  0  0
 11 12  1  0  0  0  0
 12 18  1  0  0  0  0
 13 12  2  0  0  0  0
 13  3  1  0  0  0  0
 14 13  1  0  0  0  0
 15 16  1  0  0  0  0
 15 14  2  0  0  0  0
 16 11  2  0  0  0  0
 19 15  1  0  0  0  0
 20 21  1  0  0  0  0
 21 23  1  0  0  0  0
 21 22  2  0  0  0  0
 23  7  1  0  0  0  0
 24 23  1  0  0  0  0
M  END
>  <minimizedAffinity>
-4.32658195

$$$$

 OpenBabel03242512583D

 24 25  0  0  0  0  0  0  0  0999 V2000
   39.0790   30.2240   41.3300 F   0  0  0  0  0  0  0  0  0  0  0  0
   37.9240   29.9870   40.6400 C   0  0  0  0  0  0  0  0  0  0  0  0
   37.8500   30.1190   39.2760 C   0  0  0  0  0  0  0  0  0  0  0  0
   36.6440   29.8560   38.6880 C   0  0  0  0  0  0  0  0  0  0  0  0
   35.5210   29.4740   39.3720 C   0  0  0  0  0  0  0  0  0  0  0  0
   35.6410   29.3540   40.7400 C   0  0  0  0  0  0  0  0  0  0  0  0
   36.8270   29.6040   41.3870 C   0  0  0  0  0  0  0  0  0  0  0  0
   36.5880   29.9630   37.6070 H   0  0  0  0  0  0  0  0  0  0  0  0
   34.6050   29.2880   38.8160 H   0  0  0  0  0  0  0  0  0  0  0  0
   34.7540   29.0520   41.2880 H   0  0  0  0  0  0  0  0  0  0  0  0
   41.1920   30.0420   37.4850 C   0  0  0  0  0  0  0  0  0  0  0  0
   40.0380   29.6190   38.1630 C   0  0  0  0  0  0  0  0  0  0  0  0
   39.0650   30.5280   38.5670 C   0  0  0  0  0  0  0  0  0  0  0  0
   39.3130   31.8260   38.2600 N   0  0  0  0  0  0  0  0  0  0  0  0
   40.4170   32.2210   37.6120 C   0  0  0  0  0  0  0  0  0  0  0  0
   41.3470   31.3510   37.2260 N   0  0  0  0  0  0  0  0  0  0  0  0
   41.8790   29.2520   37.2190 H   0  0  0  0  0  0  0  0  0  0  0  0
   39.8410   28.5930   38.4050 H   0  0  0  0  0  0  0  0  0  0  0  0
   40.4660   33.2890   37.4440 H   0  0  0  0  0  0  0  0  0  0  0  0
   37.4300   28.3460   44.5950 H   0  0  0  0  0  0  0  0  0  0  0  0
   37.3840   28.3420   43.5260 C   0  0  0  0  0  0  0  0  0  0  0  0
   37.7600   27.2530   42.9990 O   0  0  0  0  0  0  0  0  0  0  0  0
   36.9370   29.4750   42.8100 N   0  0  0  0  0  0  0  0  0  0  0  0
   36.6520   30.3210   43.3750 H   0  0  0  0  0  0  0  0  0  0  0  0
  2  1  1  0  0  0  0
  2  7  1  0  0  0  0
  3  2  2  0  0  0  0
  4  3  1  0  0  0  0
  4  5  2  0  0  0  0
  5  6  1  0  0  0  0
  6 10  1  0  0  0  0
  6  7  2  0  0  0  0
  7 23  1  0  0  0  0
  8  4  1  0  0  0  0
  9  5  1  0  0  0  0
 11 12  1  0  0  0  0
 12 18  1  0  0  0  0
 12 13  2  0  0  0  0
 13  3  1  0  0  0  0
 14 13  1  0  0  0  0
 15 14  2  0  0  0  0
 16 11  2  0  0  0  0
 16 15  1  0  0  0  0
 17 11  1  0  0  0  0
 19 15  1  0  0  0  0
 21 20  1  0  0  0  0
 22 21  2  0  0  0  0
 23 24  1  0  0  0  0
 23 21  1  0  0  0  0
M  END
>  <minimizedAffinity>
-4.28925085

$$$$
