
 OpenBabel03252503263D

 17 17  0  0  0  0  0  0  0  0999 V2000
   36.4590   30.7530   40.6750 C   0  0  0  0  0  0  0  0  0  0  0  0
   36.9110   30.0050   41.7830 C   0  0  0  0  0  0  0  0  0  0  0  0
   36.6600   28.6190   41.7330 C   0  0  0  0  0  0  0  0  0  0  0  0
   36.0200   28.1180   40.6520 N   0  0  0  0  0  0  0  0  0  0  0  0
   35.6080   28.8810   39.6170 C   0  0  0  0  0  0  0  0  0  0  0  0
   35.8320   30.2050   39.6340 N   0  0  0  0  0  0  0  0  0  0  0  0
   37.4140   30.5310   42.5890 H   0  0  0  0  0  0  0  0  0  0  0  0
   35.1040   28.3870   38.7970 H   0  0  0  0  0  0  0  0  0  0  0  0
   38.5040   33.4630   40.2280 H   0  0  0  0  0  0  0  0  0  0  0  0
   38.0210   32.4840   40.3340 C   0  0  0  0  0  0  0  0  0  0  0  0
   38.8350   31.5200   40.1600 O   0  0  0  0  0  0  0  0  0  0  0  0
   36.6640   32.1630   40.6290 N   0  0  0  0  0  0  0  0  0  0  0  0
   36.0600   32.9870   40.7580 H   0  0  0  0  0  0  0  0  0  0  0  0
   37.1390   27.8650   42.8920 C   0  0  0  0  0  0  0  0  0  0  0  0
   37.7950   26.7180   42.4370 F   0  0  0  0  0  0  0  0  0  0  0  0
   36.0210   27.4020   43.5670 F   0  0  0  0  0  0  0  0  0  0  0  0
   38.0050   28.5580   43.6790 F   0  0  0  0  0  0  0  0  0  0  0  0
  1  2  1  0  0  0  0
  2  7  1  0  0  0  0
  3  2  2  0  0  0  0
  3 14  1  0  0  0  0
  4  3  1  0  0  0  0
  5  6  1  0  0  0  0
  5  4  2  0  0  0  0
  6  1  2  0  0  0  0
  8  5  1  0  0  0  0
  9 10  1  0  0  0  0
 10 12  1  0  0  0  0
 11 10  2  0  0  0  0
 12  1  1  0  0  0  0
 12 13  1  0  0  0  0
 14 16  1  0  0  0  0
 14 17  1  0  0  0  0
 15 14  1  0  0  0  0
M  END
>  <minimizedAffinity>
-4.51592112

$$$$

 OpenBabel03252503263D

 17 17  0  0  0  0  0  0  0  0999 V2000
   36.4590   30.5190   40.6720 C   0  0  0  0  0  0  0  0  0  0  0  0
   36.8090   29.7730   41.8170 C   0  0  0  0  0  0  0  0  0  0  0  0
   36.6590   28.3760   41.7120 C   0  0  0  0  0  0  0  0  0  0  0  0
   36.2000   27.8630   40.5470 N   0  0  0  0  0  0  0  0  0  0  0  0
   35.8790   28.6240   39.4800 C   0  0  0  0  0  0  0  0  0  0  0  0
   36.0110   29.9590   39.5480 N   0  0  0  0  0  0  0  0  0  0  0  0
   37.1660   30.3090   42.6920 H   0  0  0  0  0  0  0  0  0  0  0  0
   35.5200   28.1200   38.5920 H   0  0  0  0  0  0  0  0  0  0  0  0
   38.3640   33.3620   40.5450 H   0  0  0  0  0  0  0  0  0  0  0  0
   37.9350   32.3520   40.5700 C   0  0  0  0  0  0  0  0  0  0  0  0
   38.8260   31.4450   40.4890 O   0  0  0  0  0  0  0  0  0  0  0  0
   36.5760   31.9400   40.6760 N   0  0  0  0  0  0  0  0  0  0  0  0
   35.9080   32.7210   40.7370 H   0  0  0  0  0  0  0  0  0  0  0  0
   37.0280   27.6250   42.9130 C   0  0  0  0  0  0  0  0  0  0  0  0
   35.8770   27.4170   43.6790 F   0  0  0  0  0  0  0  0  0  0  0  0
   37.8330   28.4520   43.6800 F   0  0  0  0  0  0  0  0  0  0  0  0
   37.5820   26.4100   42.6520 F   0  0  0  0  0  0  0  0  0  0  0  0
  1 12  1  0  0  0  0
  1  2  1  0  0  0  0
  2  7  1  0  0  0  0
  3  2  2  0  0  0  0
  3 14  1  0  0  0  0
  4  3  1  0  0  0  0
  5  6  1  0  0  0  0
  5  4  2  0  0  0  0
  6  1  2  0  0  0  0
  8  5  1  0  0  0  0
  9 10  1  0  0  0  0
 10 12  1  0  0  0  0
 11 10  2  0  0  0  0
 12 13  1  0  0  0  0
 14 15  1  0  0  0  0
 14 16  1  0  0  0  0
 17 14  1  0  0  0  0
M  END
>  <minimizedAffinity>
-4.48581219

$$$$

 OpenBabel03252503263D

 17 17  0  0  0  0  0  0  0  0999 V2000
   38.5190   24.4890   42.2250 C   0  0  0  0  0  0  0  0  0  0  0  0
   37.5880   25.5480   42.1860 C   0  0  0  0  0  0  0  0  0  0  0  0
   37.9250   26.6930   42.9340 C   0  0  0  0  0  0  0  0  0  0  0  0
   39.0920   26.6960   43.6190 N   0  0  0  0  0  0  0  0  0  0  0  0
   39.9490   25.6530   43.6220 C   0  0  0  0  0  0  0  0  0  0  0  0
   39.6560   24.5460   42.9200 N   0  0  0  0  0  0  0  0  0  0  0  0
   36.6860   25.4190   41.5950 H   0  0  0  0  0  0  0  0  0  0  0  0
   40.8580   25.7500   44.2020 H   0  0  0  0  0  0  0  0  0  0  0  0
   38.3790   22.7460   39.2810 H   0  0  0  0  0  0  0  0  0  0  0  0
   38.4820   23.4640   40.1040 C   0  0  0  0  0  0  0  0  0  0  0  0
   38.8460   24.6160   39.7010 O   0  0  0  0  0  0  0  0  0  0  0  0
   38.2710   23.2860   41.5020 N   0  0  0  0  0  0  0  0  0  0  0  0
   37.9780   22.3330   41.7600 H   0  0  0  0  0  0  0  0  0  0  0  0
   36.9440   27.7770   42.8770 C   0  0  0  0  0  0  0  0  0  0  0  0
   37.4920   28.9060   43.4930 F   0  0  0  0  0  0  0  0  0  0  0  0
   35.8780   27.4050   43.6790 F   0  0  0  0  0  0  0  0  0  0  0  0
   36.5820   28.1260   41.6130 F   0  0  0  0  0  0  0  0  0  0  0  0
  1  6  1  0  0  0  0
  2  1  2  0  0  0  0
  2  3  1  0  0  0  0
  3  4  2  0  0  0  0
  4  5  1  0  0  0  0
  5  8  1  0  0  0  0
  6  5  2  0  0  0  0
  7  2  1  0  0  0  0
  9 10  1  0  0  0  0
 10 12  1  0  0  0  0
 11 10  2  0  0  0  0
 12 13  1  0  0  0  0
 12  1  1  0  0  0  0
 14  3  1  0  0  0  0
 14 15  1  0  0  0  0
 14 16  1  0  0  0  0
 17 14  1  0  0  0  0
M  END
>  <minimizedAffinity>
-4.41366291

$$$$

 OpenBabel03252503263D

 17 17  0  0  0  0  0  0  0  0999 V2000
   35.8490   28.8660   40.5850 C   0  0  0  0  0  0  0  0  0  0  0  0
   36.4340   28.0760   41.5970 C   0  0  0  0  0  0  0  0  0  0  0  0
   36.8640   26.7930   41.2050 C   0  0  0  0  0  0  0  0  0  0  0  0
   36.6900   26.4190   39.9160 N   0  0  0  0  0  0  0  0  0  0  0  0
   36.1220   27.2170   38.9870 C   0  0  0  0  0  0  0  0  0  0  0  0
   35.7010   28.4460   39.3280 N   0  0  0  0  0  0  0  0  0  0  0  0
   36.5160   28.4960   42.5960 H   0  0  0  0  0  0  0  0  0  0  0  0
   36.0270   26.8280   37.9820 H   0  0  0  0  0  0  0  0  0  0  0  0
   36.4440   32.1740   41.2420 H   0  0  0  0  0  0  0  0  0  0  0  0
   36.4600   31.0990   41.0190 C   0  0  0  0  0  0  0  0  0  0  0  0
   37.6440   30.6520   40.8710 O   0  0  0  0  0  0  0  0  0  0  0  0
   35.3810   30.1800   40.8790 N   0  0  0  0  0  0  0  0  0  0  0  0
   34.4530   30.6060   41.0100 H   0  0  0  0  0  0  0  0  0  0  0  0
   37.4680   25.9940   42.2720 C   0  0  0  0  0  0  0  0  0  0  0  0
   36.5950   24.9500   42.5940 F   0  0  0  0  0  0  0  0  0  0  0  0
   37.5160   26.7920   43.4030 F   0  0  0  0  0  0  0  0  0  0  0  0
   38.6680   25.4460   41.9370 F   0  0  0  0  0  0  0  0  0  0  0  0
  1 12  1  0  0  0  0
  1  2  1  0  0  0  0
  2  7  1  0  0  0  0
  3  2  2  0  0  0  0
  3 14  1  0  0  0  0
  4  3  1  0  0  0  0
  5  6  1  0  0  0  0
  5  4  2  0  0  0  0
  6  1  2  0  0  0  0
  8  5  1  0  0  0  0
 10  9  1  0  0  0  0
 11 10  2  0  0  0  0
 12 13  1  0  0  0  0
 12 10  1  0  0  0  0
 14 15  1  0  0  0  0
 14 16  1  0  0  0  0
 17 14  1  0  0  0  0
M  END
>  <minimizedAffinity>
-4.3360343

$$$$

 OpenBabel03252503263D

 17 17  0  0  0  0  0  0  0  0999 V2000
   37.6320   29.6340   42.5680 C   0  0  0  0  0  0  0  0  0  0  0  0
   36.9570   30.0580   41.4040 C   0  0  0  0  0  0  0  0  0  0  0  0
   37.7330   30.7690   40.4670 C   0  0  0  0  0  0  0  0  0  0  0  0
   39.0390   30.9890   40.7450 N   0  0  0  0  0  0  0  0  0  0  0  0
   39.6360   30.5590   41.8780 C   0  0  0  0  0  0  0  0  0  0  0  0
   38.9240   29.8790   42.7910 N   0  0  0  0  0  0  0  0  0  0  0  0
   35.9030   29.8160   41.3010 H   0  0  0  0  0  0  0  0  0  0  0  0
   40.6860   30.7850   42.0090 H   0  0  0  0  0  0  0  0  0  0  0  0
   36.1990   26.7450   43.7190 H   0  0  0  0  0  0  0  0  0  0  0  0
   36.7020   27.5580   43.1810 C   0  0  0  0  0  0  0  0  0  0  0  0
   37.1230   27.1940   42.0350 O   0  0  0  0  0  0  0  0  0  0  0  0
   36.9350   28.9060   43.5770 N   0  0  0  0  0  0  0  0  0  0  0  0
   36.5710   29.1340   44.5130 H   0  0  0  0  0  0  0  0  0  0  0  0
   37.0120   31.1980   39.2680 C   0  0  0  0  0  0  0  0  0  0  0  0
   37.8970   31.1780   38.1860 F   0  0  0  0  0  0  0  0  0  0  0  0
   36.6820   32.5320   39.4450 F   0  0  0  0  0  0  0  0  0  0  0  0
   35.9500   30.4080   38.9540 F   0  0  0  0  0  0  0  0  0  0  0  0
  1  6  1  0  0  0  0
  1 12  1  0  0  0  0
  2  1  2  0  0  0  0
  3  4  2  0  0  0  0
  3  2  1  0  0  0  0
  4  5  1  0  0  0  0
  5  8  1  0  0  0  0
  5  6  2  0  0  0  0
  7  2  1  0  0  0  0
 10 12  1  0  0  0  0
 10  9  1  0  0  0  0
 11 10  2  0  0  0  0
 12 13  1  0  0  0  0
 14 16  1  0  0  0  0
 14  3  1  0  0  0  0
 15 14  1  0  0  0  0
 17 14  1  0  0  0  0
M  END
>  <minimizedAffinity>
-4.18398523

$$$$

 OpenBabel03252503263D

 17 17  0  0  0  0  0  0  0  0999 V2000
   37.0270   29.5160   41.8870 C   0  0  0  0  0  0  0  0  0  0  0  0
   35.9610   29.0470   41.0890 C   0  0  0  0  0  0  0  0  0  0  0  0
   36.0260   29.3750   39.7200 C   0  0  0  0  0  0  0  0  0  0  0  0
   37.0820   30.0980   39.2790 N   0  0  0  0  0  0  0  0  0  0  0  0
   38.0760   30.5220   40.0880 C   0  0  0  0  0  0  0  0  0  0  0  0
   38.0430   30.2270   41.3980 N   0  0  0  0  0  0  0  0  0  0  0  0
   35.1720   28.4740   41.5680 H   0  0  0  0  0  0  0  0  0  0  0  0
   38.8770   31.0960   39.6410 H   0  0  0  0  0  0  0  0  0  0  0  0
   37.5270   27.3540   44.4940 H   0  0  0  0  0  0  0  0  0  0  0  0
   37.4150   27.8830   43.5400 C   0  0  0  0  0  0  0  0  0  0  0  0
   37.6540   27.1330   42.5380 O   0  0  0  0  0  0  0  0  0  0  0  0
   37.0540   29.2380   43.2850 N   0  0  0  0  0  0  0  0  0  0  0  0
   36.8750   29.7880   44.1360 H   0  0  0  0  0  0  0  0  0  0  0  0
   34.9110   28.8770   38.9140 C   0  0  0  0  0  0  0  0  0  0  0  0
   34.8450   29.6270   37.7360 F   0  0  0  0  0  0  0  0  0  0  0  0
   33.7460   29.1740   39.6020 F   0  0  0  0  0  0  0  0  0  0  0  0
   35.0240   27.5660   38.5700 F   0  0  0  0  0  0  0  0  0  0  0  0
  1 12  1  0  0  0  0
  2  7  1  0  0  0  0
  2  1  2  0  0  0  0
  3  2  1  0  0  0  0
  4  3  2  0  0  0  0
  4  5  1  0  0  0  0
  5  6  2  0  0  0  0
  6  1  1  0  0  0  0
  8  5  1  0  0  0  0
 10  9  1  0  0  0  0
 11 10  2  0  0  0  0
 12 10  1  0  0  0  0
 12 13  1  0  0  0  0
 14 16  1  0  0  0  0
 14  3  1  0  0  0  0
 15 14  1  0  0  0  0
 17 14  1  0  0  0  0
M  END
>  <minimizedAffinity>
-4.16548443

$$$$

 OpenBabel03252503263D

 17 17  0  0  0  0  0  0  0  0999 V2000
   38.5490   24.7630   41.6830 C   0  0  0  0  0  0  0  0  0  0  0  0
   37.5630   25.5840   42.2700 C   0  0  0  0  0  0  0  0  0  0  0  0
   37.8360   26.9660   42.2750 C   0  0  0  0  0  0  0  0  0  0  0  0
   38.9970   27.3970   41.7280 N   0  0  0  0  0  0  0  0  0  0  0  0
   39.9070   26.5660   41.1780 C   0  0  0  0  0  0  0  0  0  0  0  0
   39.6770   25.2430   41.1570 N   0  0  0  0  0  0  0  0  0  0  0  0
   36.6730   25.1120   42.6740 H   0  0  0  0  0  0  0  0  0  0  0  0
   40.8050   27.0060   40.7650 H   0  0  0  0  0  0  0  0  0  0  0  0
   37.0580   21.9910   40.3340 H   0  0  0  0  0  0  0  0  0  0  0  0
   37.4200   22.9840   40.6290 C   0  0  0  0  0  0  0  0  0  0  0  0
   36.8830   23.9170   39.9490 O   0  0  0  0  0  0  0  0  0  0  0  0
   38.3680   23.3500   41.6280 N   0  0  0  0  0  0  0  0  0  0  0  0
   38.7630   22.5490   42.1400 H   0  0  0  0  0  0  0  0  0  0  0  0
   36.7990   27.7970   42.8890 C   0  0  0  0  0  0  0  0  0  0  0  0
   35.9840   26.9790   43.6790 F   0  0  0  0  0  0  0  0  0  0  0  0
   35.9800   28.2490   41.8670 F   0  0  0  0  0  0  0  0  0  0  0  0
   37.2870   28.7900   43.6800 F   0  0  0  0  0  0  0  0  0  0  0  0
  1  2  1  0  0  0  0
  2  3  2  0  0  0  0
  2  7  1  0  0  0  0
  3 14  1  0  0  0  0
  4  3  1  0  0  0  0
  5  4  2  0  0  0  0
  6  5  1  0  0  0  0
  6  1  2  0  0  0  0
  8  5  1  0  0  0  0
  9 10  1  0  0  0  0
 10 12  1  0  0  0  0
 11 10  2  0  0  0  0
 12  1  1  0  0  0  0
 12 13  1  0  0  0  0
 14 15  1  0  0  0  0
 14 17  1  0  0  0  0
 16 14  1  0  0  0  0
M  END
>  <minimizedAffinity>
-4.11587334

$$$$

 OpenBabel03252503263D

 17 17  0  0  0  0  0  0  0  0999 V2000
   36.8850   28.3750   41.8290 C   0  0  0  0  0  0  0  0  0  0  0  0
   37.0490   26.9990   42.0980 C   0  0  0  0  0  0  0  0  0  0  0  0
   36.8230   26.1280   41.0140 C   0  0  0  0  0  0  0  0  0  0  0  0
   36.4730   26.6610   39.8200 N   0  0  0  0  0  0  0  0  0  0  0  0
   36.3300   27.9880   39.6170 C   0  0  0  0  0  0  0  0  0  0  0  0
   36.5380   28.8450   40.6300 N   0  0  0  0  0  0  0  0  0  0  0  0
   37.3340   26.7010   43.1030 H   0  0  0  0  0  0  0  0  0  0  0  0
   36.0470   28.3170   38.6260 H   0  0  0  0  0  0  0  0  0  0  0  0
   38.9690   30.1830   43.8570 H   0  0  0  0  0  0  0  0  0  0  0  0
   38.4770   29.5230   43.1310 C   0  0  0  0  0  0  0  0  0  0  0  0
   39.3120   28.8380   42.4550 O   0  0  0  0  0  0  0  0  0  0  0  0
   37.0910   29.3380   42.8590 N   0  0  0  0  0  0  0  0  0  0  0  0
   36.4720   29.9210   43.4400 H   0  0  0  0  0  0  0  0  0  0  0  0
   36.9990   24.7080   41.3180 C   0  0  0  0  0  0  0  0  0  0  0  0
   36.1530   23.9660   40.4880 F   0  0  0  0  0  0  0  0  0  0  0  0
   36.5220   24.5030   42.6020 F   0  0  0  0  0  0  0  0  0  0  0  0
   38.2690   24.2590   41.1280 F   0  0  0  0  0  0  0  0  0  0  0  0
  1  2  1  0  0  0  0
  1 12  1  0  0  0  0
  2  7  1  0  0  0  0
  3 14  1  0  0  0  0
  3  2  2  0  0  0  0
  4  3  1  0  0  0  0
  5  4  2  0  0  0  0
  5  6  1  0  0  0  0
  6  1  2  0  0  0  0
  8  5  1  0  0  0  0
 10  9  1  0  0  0  0
 11 10  2  0  0  0  0
 12 10  1  0  0  0  0
 12 13  1  0  0  0  0
 14 16  1  0  0  0  0
 15 14  1  0  0  0  0
 17 14  1  0  0  0  0
M  END
>  <minimizedAffinity>
-4.07875633

$$$$

 OpenBabel03252503263D

 17 17  0  0  0  0  0  0  0  0999 V2000
   37.3930   26.8620   42.3190 C   0  0  0  0  0  0  0  0  0  0  0  0
   36.5880   27.5660   41.3980 C   0  0  0  0  0  0  0  0  0  0  0  0
   36.6110   28.9700   41.5090 C   0  0  0  0  0  0  0  0  0  0  0  0
   37.3860   29.5300   42.4680 N   0  0  0  0  0  0  0  0  0  0  0  0
   38.1390   28.8070   43.3240 C   0  0  0  0  0  0  0  0  0  0  0  0
   38.1390   27.4660   43.2450 N   0  0  0  0  0  0  0  0  0  0  0  0
   36.0120   26.9950   40.6760 H   0  0  0  0  0  0  0  0  0  0  0  0
   38.7250   29.3460   44.0560 H   0  0  0  0  0  0  0  0  0  0  0  0
   38.4510   23.9340   40.8910 H   0  0  0  0  0  0  0  0  0  0  0  0
   38.2180   24.9630   41.1950 C   0  0  0  0  0  0  0  0  0  0  0  0
   38.7450   25.8270   40.4220 O   0  0  0  0  0  0  0  0  0  0  0  0
   37.4400   25.4370   42.2890 N   0  0  0  0  0  0  0  0  0  0  0  0
   37.0440   24.6880   42.8740 H   0  0  0  0  0  0  0  0  0  0  0  0
   35.7690   29.6780   40.5440 C   0  0  0  0  0  0  0  0  0  0  0  0
   36.3770   29.6060   39.2870 F   0  0  0  0  0  0  0  0  0  0  0  0
   35.7950   31.0200   40.8860 F   0  0  0  0  0  0  0  0  0  0  0  0
   34.5140   29.1660   40.4310 F   0  0  0  0  0  0  0  0  0  0  0  0
  1  6  1  0  0  0  0
  2  3  1  0  0  0  0
  2  1  2  0  0  0  0
  3  4  2  0  0  0  0
  4  5  1  0  0  0  0
  5  8  1  0  0  0  0
  6  5  2  0  0  0  0
  7  2  1  0  0  0  0
  9 10  1  0  0  0  0
 10 12  1  0  0  0  0
 11 10  2  0  0  0  0
 12  1  1  0  0  0  0
 12 13  1  0  0  0  0
 14 16  1  0  0  0  0
 14  3  1  0  0  0  0
 15 14  1  0  0  0  0
 17 14  1  0  0  0  0
M  END
>  <minimizedAffinity>
-3.99579501

$$$$
