
 OpenBabel03242523443D

 27 28  0  0  1  0  0  0  0  0999 V2000
   36.4350   30.7220   40.4560 C   0  0  2  0  0  0  0  0  0  0  0  0
   35.3840   30.9610   40.6390 H   0  0  0  0  0  0  0  0  0  0  0  0
   37.9820   29.8830   42.1560 C   0  0  0  0  0  0  0  0  0  0  0  0
   36.8350   29.6410   41.3680 C   0  0  0  0  0  0  0  0  0  0  0  0
   36.1600   28.4140   41.4770 C   0  0  0  0  0  0  0  0  0  0  0  0
   36.6740   27.5380   42.3520 N   0  0  0  0  0  0  0  0  0  0  0  0
   37.7660   27.7770   43.0980 C   0  0  0  0  0  0  0  0  0  0  0  0
   38.4250   28.9440   43.0080 N   0  0  0  0  0  0  0  0  0  0  0  0
   38.5290   30.8150   42.1010 H   0  0  0  0  0  0  0  0  0  0  0  0
   35.2860   28.2260   40.8810 H   0  0  0  0  0  0  0  0  0  0  0  0
   38.0920   26.9890   43.7760 H   0  0  0  0  0  0  0  0  0  0  0  0
   36.6620   30.2640   39.0490 C   0  0  0  0  0  0  0  0  0  0  0  0
   35.7850   29.6890   38.1680 C   0  0  0  0  0  0  0  0  0  0  0  0
   36.4040   29.4380   36.9940 N   0  0  0  0  0  0  0  0  0  0  0  0
   37.6910   29.8660   37.1490 C   0  0  0  0  0  0  0  0  0  0  0  0
   37.8380   30.3630   38.3950 N   0  0  0  0  0  0  0  0  0  0  0  0
   34.7650   29.5100   38.4810 H   0  0  0  0  0  0  0  0  0  0  0  0
   35.8350   28.9970   36.2380 H   0  0  0  0  0  0  0  0  0  0  0  0
   38.3720   29.7560   36.3140 H   0  0  0  0  0  0  0  0  0  0  0  0
   37.2860   31.9190   40.7280 C   0  0  0  0  0  0  0  0  0  0  0  0
   37.2950   32.2120   41.7970 H   0  0  0  0  0  0  0  0  0  0  0  0
   38.3690   31.7110   40.4920 H   0  0  0  0  0  0  0  0  0  0  0  0
   37.9590   34.9960   39.4220 H   0  0  0  0  0  0  0  0  0  0  0  0
   37.9280   34.0380   39.9140 C   0  0  0  0  0  0  0  0  0  0  0  0
   38.9950   33.8600   40.5270 O   0  0  0  0  0  0  0  0  0  0  0  0
   36.8900   33.0680   39.9260 N   0  0  0  0  0  0  0  0  0  0  0  0
   36.0560   33.3590   39.3680 H   0  0  0  0  0  0  0  0  0  0  0  0
  1  2  1  1  0  0  0
  1 20  1  0  0  0  0
  1  4  1  0  0  0  0
  3  8  1  0  0  0  0
  4  5  1  0  0  0  0
  4  3  2  0  0  0  0
  5  6  2  0  0  0  0
  6  7  1  0  0  0  0
  7 11  1  0  0  0  0
  8  7  2  0  0  0  0
  9  3  1  0  0  0  0
 10  5  1  0  0  0  0
 12  1  1  0  0  0  0
 13 17  1  0  0  0  0
 13 12  2  0  0  0  0
 14 15  1  0  0  0  0
 14 13  1  0  0  0  0
 15 16  2  0  0  0  0
 16 12  1  0  0  0  0
 18 14  1  0  0  0  0
 19 15  1  0  0  0  0
 20 21  1  0  0  0  0
 22 20  1  0  0  0  0
 23 24  1  0  0  0  0
 24 26  1  0  0  0  0
 24 25  2  0  0  0  0
 26 20  1  0  0  0  0
 27 26  1  0  0  0  0
M  END
>  <minimizedAffinity>
-4.29304647

$$$$

 OpenBabel03242523443D

 27 28  0  0  1  0  0  0  0  0999 V2000
   35.6570   29.5230   40.5200 C   0  0  2  0  0  0  0  0  0  0  0  0
   34.7560   29.8380   41.0520 H   0  0  0  0  0  0  0  0  0  0  0  0
   36.0900   27.5290   39.1710 C   0  0  0  0  0  0  0  0  0  0  0  0
   35.2630   28.6490   39.4060 C   0  0  0  0  0  0  0  0  0  0  0  0
   34.1470   28.8780   38.5850 C   0  0  0  0  0  0  0  0  0  0  0  0
   33.9450   27.9820   37.6070 N   0  0  0  0  0  0  0  0  0  0  0  0
   34.7370   26.9190   37.3900 C   0  0  0  0  0  0  0  0  0  0  0  0
   35.8090   26.6830   38.1650 N   0  0  0  0  0  0  0  0  0  0  0  0
   36.9580   27.3180   39.7810 H   0  0  0  0  0  0  0  0  0  0  0  0
   33.5140   29.7280   38.7620 H   0  0  0  0  0  0  0  0  0  0  0  0
   34.4750   26.2590   36.5650 H   0  0  0  0  0  0  0  0  0  0  0  0
   36.4080   30.6920   39.9630 C   0  0  0  0  0  0  0  0  0  0  0  0
   36.8360   30.9230   38.6820 C   0  0  0  0  0  0  0  0  0  0  0  0
   37.4710   32.1120   38.6120 N   0  0  0  0  0  0  0  0  0  0  0  0
   37.4380   32.6310   39.8740 C   0  0  0  0  0  0  0  0  0  0  0  0
   36.7930   31.7650   40.6850 N   0  0  0  0  0  0  0  0  0  0  0  0
   36.6340   30.1830   37.9190 H   0  0  0  0  0  0  0  0  0  0  0  0
   37.8460   32.4000   37.6810 H   0  0  0  0  0  0  0  0  0  0  0  0
   37.9000   33.5960   40.0440 H   0  0  0  0  0  0  0  0  0  0  0  0
   36.5520   28.7560   41.4390 C   0  0  0  0  0  0  0  0  0  0  0  0
   36.1380   27.7680   41.7220 H   0  0  0  0  0  0  0  0  0  0  0  0
   37.5320   28.5100   40.9410 H   0  0  0  0  0  0  0  0  0  0  0  0
   38.0020   28.9330   44.5190 H   0  0  0  0  0  0  0  0  0  0  0  0
   37.6140   28.6920   43.5440 C   0  0  0  0  0  0  0  0  0  0  0  0
   37.9190   27.5200   43.2630 O   0  0  0  0  0  0  0  0  0  0  0  0
   36.8660   29.5020   42.6490 N   0  0  0  0  0  0  0  0  0  0  0  0
   36.6860   30.4610   43.0240 H   0  0  0  0  0  0  0  0  0  0  0  0
  1  2  1  1  0  0  0
  1 20  1  0  0  0  0
  3  4  1  0  0  0  0
  3  9  1  0  0  0  0
  4  1  1  0  0  0  0
  5 10  1  0  0  0  0
  5  4  2  0  0  0  0
  6  5  1  0  0  0  0
  7  6  2  0  0  0  0
  7  8  1  0  0  0  0
  8  3  2  0  0  0  0
 11  7  1  0  0  0  0
 12  1  1  0  0  0  0
 12 16  1  0  0  0  0
 13 12  2  0  0  0  0
 14 13  1  0  0  0  0
 14 15  1  0  0  0  0
 15 19  1  0  0  0  0
 15 16  2  0  0  0  0
 17 13  1  0  0  0  0
 18 14  1  0  0  0  0
 20 21  1  0  0  0  0
 20 26  1  0  0  0  0
 22 20  1  0  0  0  0
 24 23  1  0  0  0  0
 25 24  2  0  0  0  0
 26 27  1  0  0  0  0
 26 24  1  0  0  0  0
M  END
>  <minimizedAffinity>
-4.15111446

$$$$

 OpenBabel03242523443D

 27 28  0  0  1  0  0  0  0  0999 V2000
   36.7980   30.4270   40.1950 C   0  0  2  0  0  0  0  0  0  0  0  0
   35.7460   30.3820   39.9050 H   0  0  0  0  0  0  0  0  0  0  0  0
   36.6380   28.0600   40.7900 C   0  0  0  0  0  0  0  0  0  0  0  0
   37.0640   29.3530   41.1630 C   0  0  0  0  0  0  0  0  0  0  0  0
   37.6890   29.5510   42.4050 C   0  0  0  0  0  0  0  0  0  0  0  0
   37.8380   28.4570   43.1670 N   0  0  0  0  0  0  0  0  0  0  0  0
   37.4290   27.2300   42.8040 C   0  0  0  0  0  0  0  0  0  0  0  0
   36.8300   27.0210   41.6190 N   0  0  0  0  0  0  0  0  0  0  0  0
   36.1530   27.8660   39.8420 H   0  0  0  0  0  0  0  0  0  0  0  0
   38.0160   30.5330   42.6920 H   0  0  0  0  0  0  0  0  0  0  0  0
   37.6040   26.4160   43.5050 H   0  0  0  0  0  0  0  0  0  0  0  0
   37.7060   30.2420   39.0190 C   0  0  0  0  0  0  0  0  0  0  0  0
   37.4010   29.8940   37.7300 C   0  0  0  0  0  0  0  0  0  0  0  0
   38.5250   29.8450   36.9840 N   0  0  0  0  0  0  0  0  0  0  0  0
   39.5490   30.1700   37.8260 C   0  0  0  0  0  0  0  0  0  0  0  0
   39.0440   30.4080   39.0550 N   0  0  0  0  0  0  0  0  0  0  0  0
   36.3680   29.7080   37.4650 H   0  0  0  0  0  0  0  0  0  0  0  0
   38.4210   29.5890   35.9770 H   0  0  0  0  0  0  0  0  0  0  0  0
   40.5560   30.1910   37.4260 H   0  0  0  0  0  0  0  0  0  0  0  0
   37.0940   31.7410   40.8430 C   0  0  0  0  0  0  0  0  0  0  0  0
   36.4990   31.9150   41.7620 H   0  0  0  0  0  0  0  0  0  0  0  0
   38.1640   31.7890   41.1960 H   0  0  0  0  0  0  0  0  0  0  0  0
   38.1420   34.7010   39.5150 H   0  0  0  0  0  0  0  0  0  0  0  0
   37.9770   33.7760   40.0410 C   0  0  0  0  0  0  0  0  0  0  0  0
   38.9200   33.5820   40.8280 O   0  0  0  0  0  0  0  0  0  0  0  0
   36.8980   32.8590   39.9320 N   0  0  0  0  0  0  0  0  0  0  0  0
   36.1820   33.1570   39.2320 H   0  0  0  0  0  0  0  0  0  0  0  0
  1  2  1  6  0  0  0
  1 20  1  0  0  0  0
  1  4  1  0  0  0  0
  3  4  2  0  0  0  0
  3  8  1  0  0  0  0
  4  5  1  0  0  0  0
  5 10  1  0  0  0  0
  5  6  2  0  0  0  0
  7  6  1  0  0  0  0
  7 11  1  0  0  0  0
  8  7  2  0  0  0  0
  9  3  1  0  0  0  0
 12 16  1  0  0  0  0
 12  1  1  0  0  0  0
 13 12  2  0  0  0  0
 14 13  1  0  0  0  0
 14 15  1  0  0  0  0
 15 16  2  0  0  0  0
 17 13  1  0  0  0  0
 18 14  1  0  0  0  0
 19 15  1  0  0  0  0
 20 22  1  0  0  0  0
 20 21  1  0  0  0  0
 23 24  1  0  0  0  0
 24 25  2  0  0  0  0
 26 24  1  0  0  0  0
 26 20  1  0  0  0  0
 27 26  1  0  0  0  0
M  END
>  <minimizedAffinity>
-4.06134272

$$$$

 OpenBabel03242523443D

 27 28  0  0  1  0  0  0  0  0999 V2000
   38.6500   29.8570   40.0760 C   0  0  2  0  0  0  0  0  0  0  0  0
   39.7400   29.7820   40.0800 H   0  0  0  0  0  0  0  0  0  0  0  0
   37.1650   28.1920   41.0800 C   0  0  0  0  0  0  0  0  0  0  0  0
   38.1300   29.2020   41.2850 C   0  0  0  0  0  0  0  0  0  0  0  0
   38.5280   29.5330   42.5900 C   0  0  0  0  0  0  0  0  0  0  0  0
   37.9390   28.8390   43.5760 N   0  0  0  0  0  0  0  0  0  0  0  0
   37.0210   27.8800   43.3720 C   0  0  0  0  0  0  0  0  0  0  0  0
   36.6280   27.5490   42.1300 N   0  0  0  0  0  0  0  0  0  0  0  0
   36.8330   27.9080   40.0900 H   0  0  0  0  0  0  0  0  0  0  0  0
   39.2640   30.2990   42.7510 H   0  0  0  0  0  0  0  0  0  0  0  0
   36.6110   27.3840   44.2500 H   0  0  0  0  0  0  0  0  0  0  0  0
   38.1940   31.2830   40.0760 C   0  0  0  0  0  0  0  0  0  0  0  0
   36.9500   31.8000   40.3230 C   0  0  0  0  0  0  0  0  0  0  0  0
   36.9790   33.1470   40.2270 N   0  0  0  0  0  0  0  0  0  0  0  0
   38.2670   33.4730   39.9140 C   0  0  0  0  0  0  0  0  0  0  0  0
   38.9950   32.3400   39.8240 N   0  0  0  0  0  0  0  0  0  0  0  0
   36.1350   31.1260   40.5520 H   0  0  0  0  0  0  0  0  0  0  0  0
   36.0840   33.6580   40.3950 H   0  0  0  0  0  0  0  0  0  0  0  0
   38.5140   34.5200   39.7870 H   0  0  0  0  0  0  0  0  0  0  0  0
   38.0930   29.1620   38.8760 C   0  0  0  0  0  0  0  0  0  0  0  0
   38.4240   28.1070   38.7940 H   0  0  0  0  0  0  0  0  0  0  0  0
   36.9690   29.0940   38.9300 H   0  0  0  0  0  0  0  0  0  0  0  0
   37.1270   30.5460   35.9140 H   0  0  0  0  0  0  0  0  0  0  0  0
   37.2400   30.0670   36.8720 C   0  0  0  0  0  0  0  0  0  0  0  0
   36.1260   29.6810   37.2670 O   0  0  0  0  0  0  0  0  0  0  0  0
   38.4170   29.8580   37.6390 N   0  0  0  0  0  0  0  0  0  0  0  0
   39.2740   30.2360   37.1770 H   0  0  0  0  0  0  0  0  0  0  0  0
  1 12  1  0  0  0  0
  1  2  1  6  0  0  0
  1  4  1  0  0  0  0
  3  4  2  0  0  0  0
  3  8  1  0  0  0  0
  4  5  1  0  0  0  0
  5 10  1  0  0  0  0
  5  6  2  0  0  0  0
  7  6  1  0  0  0  0
  7 11  1  0  0  0  0
  8  7  2  0  0  0  0
  9  3  1  0  0  0  0
 12 13  2  0  0  0  0
 13 17  1  0  0  0  0
 14 13  1  0  0  0  0
 14 18  1  0  0  0  0
 15 14  1  0  0  0  0
 16 15  2  0  0  0  0
 16 12  1  0  0  0  0
 19 15  1  0  0  0  0
 20 22  1  0  0  0  0
 20  1  1  0  0  0  0
 21 20  1  0  0  0  0
 23 24  1  0  0  0  0
 24 25  2  0  0  0  0
 24 26  1  0  0  0  0
 26 20  1  0  0  0  0
 27 26  1  0  0  0  0
M  END
>  <minimizedAffinity>
-4.05808783

$$$$

 OpenBabel03242523443D

 27 28  0  0  1  0  0  0  0  0999 V2000
   39.3460   30.1160   41.2430 C   0  0  2  0  0  0  0  0  0  0  0  0
   40.1600   30.3510   41.9330 H   0  0  0  0  0  0  0  0  0  0  0  0
   37.8900   28.1570   41.0680 C   0  0  0  0  0  0  0  0  0  0  0  0
   38.4390   29.1610   41.8960 C   0  0  0  0  0  0  0  0  0  0  0  0
   38.0940   29.2090   43.2570 C   0  0  0  0  0  0  0  0  0  0  0  0
   37.2420   28.2650   43.6790 N   0  0  0  0  0  0  0  0  0  0  0  0
   36.7240   27.3130   42.8850 C   0  0  0  0  0  0  0  0  0  0  0  0
   37.0420   27.2500   41.5810 N   0  0  0  0  0  0  0  0  0  0  0  0
   38.1310   28.0860   40.0160 H   0  0  0  0  0  0  0  0  0  0  0  0
   38.5110   29.9700   43.8910 H   0  0  0  0  0  0  0  0  0  0  0  0
   36.0410   26.5970   43.3390 H   0  0  0  0  0  0  0  0  0  0  0  0
   38.5630   31.3370   40.8740 C   0  0  0  0  0  0  0  0  0  0  0  0
   37.2210   31.4740   40.6400 C   0  0  0  0  0  0  0  0  0  0  0  0
   36.9300   32.7590   40.3420 N   0  0  0  0  0  0  0  0  0  0  0  0
   38.1160   33.4330   40.3920 C   0  0  0  0  0  0  0  0  0  0  0  0
   39.0980   32.5660   40.7130 N   0  0  0  0  0  0  0  0  0  0  0  0
   36.5820   30.6040   40.7130 H   0  0  0  0  0  0  0  0  0  0  0  0
   35.9310   32.9890   40.1420 H   0  0  0  0  0  0  0  0  0  0  0  0
   38.1100   34.4960   40.1800 H   0  0  0  0  0  0  0  0  0  0  0  0
   39.8920   29.4870   40.0020 C   0  0  0  0  0  0  0  0  0  0  0  0
   40.6600   28.7150   40.2100 H   0  0  0  0  0  0  0  0  0  0  0  0
   39.0890   28.9300   39.4400 H   0  0  0  0  0  0  0  0  0  0  0  0
   40.0540   30.8850   36.8980 H   0  0  0  0  0  0  0  0  0  0  0  0
   39.8680   30.3230   37.7980 C   0  0  0  0  0  0  0  0  0  0  0  0
   39.0140   29.4500   37.5630 O   0  0  0  0  0  0  0  0  0  0  0  0
   40.4470   30.4730   39.0860 N   0  0  0  0  0  0  0  0  0  0  0  0
   41.1480   31.2460   39.1280 H   0  0  0  0  0  0  0  0  0  0  0  0
  1  4  1  0  0  0  0
  1  2  1  1  0  0  0
  3  8  2  0  0  0  0
  3  4  1  0  0  0  0
  4  5  2  0  0  0  0
  5  6  1  0  0  0  0
  5 10  1  0  0  0  0
  7 11  1  0  0  0  0
  7  6  2  0  0  0  0
  8  7  1  0  0  0  0
  9  3  1  0  0  0  0
 12  1  1  0  0  0  0
 13 17  1  0  0  0  0
 13 12  2  0  0  0  0
 14 15  1  0  0  0  0
 14 13  1  0  0  0  0
 15 16  2  0  0  0  0
 16 12  1  0  0  0  0
 18 14  1  0  0  0  0
 19 15  1  0  0  0  0
 20 21  1  0  0  0  0
 20  1  1  0  0  0  0
 22 20  1  0  0  0  0
 23 24  1  0  0  0  0
 24 26  1  0  0  0  0
 25 24  2  0  0  0  0
 26 27  1  0  0  0  0
 26 20  1  0  0  0  0
M  END
>  <minimizedAffinity>
-3.96635699

$$$$

 OpenBabel03242523443D

 27 28  0  0  1  0  0  0  0  0999 V2000
   37.9870   30.7900   41.6510 C   0  0  2  0  0  0  0  0  0  0  0  0
   38.0700   31.5840   42.3980 H   0  0  0  0  0  0  0  0  0  0  0  0
   40.3400   31.4400   41.4800 C   0  0  0  0  0  0  0  0  0  0  0  0
   39.2930   30.6250   40.9960 C   0  0  0  0  0  0  0  0  0  0  0  0
   39.5340   29.7340   39.9380 C   0  0  0  0  0  0  0  0  0  0  0  0
   40.7840   29.7250   39.4530 N   0  0  0  0  0  0  0  0  0  0  0  0
   41.7740   30.5040   39.9190 C   0  0  0  0  0  0  0  0  0  0  0  0
   41.5630   31.3630   40.9310 N   0  0  0  0  0  0  0  0  0  0  0  0
   40.1940   32.1390   42.2940 H   0  0  0  0  0  0  0  0  0  0  0  0
   38.7410   29.1110   39.5680 H   0  0  0  0  0  0  0  0  0  0  0  0
   42.7500   30.4110   39.4460 H   0  0  0  0  0  0  0  0  0  0  0  0
   37.5990   29.4850   42.2720 C   0  0  0  0  0  0  0  0  0  0  0  0
   36.6340   28.5920   41.8910 C   0  0  0  0  0  0  0  0  0  0  0  0
   36.6230   27.5330   42.7300 N   0  0  0  0  0  0  0  0  0  0  0  0
   37.6020   27.7740   43.6510 C   0  0  0  0  0  0  0  0  0  0  0  0
   38.1870   28.9570   43.3660 N   0  0  0  0  0  0  0  0  0  0  0  0
   36.0260   28.8110   41.0230 H   0  0  0  0  0  0  0  0  0  0  0  0
   35.9250   26.7800   42.5420 H   0  0  0  0  0  0  0  0  0  0  0  0
   37.7660   27.0390   44.4290 H   0  0  0  0  0  0  0  0  0  0  0  0
   36.9750   31.1640   40.6170 C   0  0  0  0  0  0  0  0  0  0  0  0
   37.1650   30.6910   39.6330 H   0  0  0  0  0  0  0  0  0  0  0  0
   35.9470   30.7990   40.9030 H   0  0  0  0  0  0  0  0  0  0  0  0
   37.2110   33.9280   38.6350 H   0  0  0  0  0  0  0  0  0  0  0  0
   37.1870   32.9550   39.0980 C   0  0  0  0  0  0  0  0  0  0  0  0
   37.4880   32.0950   38.2520 O   0  0  0  0  0  0  0  0  0  0  0  0
   36.8790   32.6060   40.4390 N   0  0  0  0  0  0  0  0  0  0  0  0
   36.6480   33.4350   41.0310 H   0  0  0  0  0  0  0  0  0  0  0  0
  1 12  1  0  0  0  0
  1  2  1  1  0  0  0
  3  9  1  0  0  0  0
  4  3  1  0  0  0  0
  4  1  1  0  0  0  0
  5  4  2  0  0  0  0
  6  7  2  0  0  0  0
  6  5  1  0  0  0  0
  7  8  1  0  0  0  0
  8  3  2  0  0  0  0
 10  5  1  0  0  0  0
 11  7  1  0  0  0  0
 12 16  1  0  0  0  0
 13 12  2  0  0  0  0
 13 14  1  0  0  0  0
 14 15  1  0  0  0  0
 15 19  1  0  0  0  0
 16 15  2  0  0  0  0
 17 13  1  0  0  0  0
 18 14  1  0  0  0  0
 20 22  1  0  0  0  0
 20  1  1  0  0  0  0
 21 20  1  0  0  0  0
 23 24  1  0  0  0  0
 24 26  1  0  0  0  0
 25 24  2  0  0  0  0
 26 20  1  0  0  0  0
 26 27  1  0  0  0  0
M  END
>  <minimizedAffinity>
-3.88460517

$$$$

 OpenBabel03242523443D

 27 28  0  0  1  0  0  0  0  0999 V2000
   39.7460   31.1020   42.3760 C   0  0  2  0  0  0  0  0  0  0  0  0
   39.4550   31.7420   43.2130 H   0  0  0  0  0  0  0  0  0  0  0  0
   39.5870   28.6940   42.7770 C   0  0  0  0  0  0  0  0  0  0  0  0
   38.9230   29.8840   42.4100 C   0  0  0  0  0  0  0  0  0  0  0  0
   37.5550   29.8510   42.0920 C   0  0  0  0  0  0  0  0  0  0  0  0
   36.9660   28.6490   42.1640 N   0  0  0  0  0  0  0  0  0  0  0  0
   37.6050   27.5210   42.5140 C   0  0  0  0  0  0  0  0  0  0  0  0
   38.9130   27.5320   42.8230 N   0  0  0  0  0  0  0  0  0  0  0  0
   40.6390   28.6780   43.0300 H   0  0  0  0  0  0  0  0  0  0  0  0
   37.0450   30.7550   41.8140 H   0  0  0  0  0  0  0  0  0  0  0  0
   37.0230   26.6010   42.5380 H   0  0  0  0  0  0  0  0  0  0  0  0
   39.5340   31.7810   41.0590 C   0  0  0  0  0  0  0  0  0  0  0  0
   38.9280   32.9780   40.7840 C   0  0  0  0  0  0  0  0  0  0  0  0
   38.9600   33.2200   39.4560 N   0  0  0  0  0  0  0  0  0  0  0  0
   39.6000   32.1520   38.8950 C   0  0  0  0  0  0  0  0  0  0  0  0
   39.9430   31.2870   39.8720 N   0  0  0  0  0  0  0  0  0  0  0  0
   38.5170   33.5600   41.5980 H   0  0  0  0  0  0  0  0  0  0  0  0
   38.5250   34.1080   39.1200 H   0  0  0  0  0  0  0  0  0  0  0  0
   39.7350   32.1420   37.8200 H   0  0  0  0  0  0  0  0  0  0  0  0
   41.1830   30.7130   42.5050 C   0  0  0  0  0  0  0  0  0  0  0  0
   41.3230   29.7140   42.9630 H   0  0  0  0  0  0  0  0  0  0  0  0
   41.6730   30.6230   41.4940 H   0  0  0  0  0  0  0  0  0  0  0  0
   43.6870   33.0200   42.6830 H   0  0  0  0  0  0  0  0  0  0  0  0
   42.9530   32.2700   42.4390 C   0  0  0  0  0  0  0  0  0  0  0  0
   43.0950   31.9360   41.2500 O   0  0  0  0  0  0  0  0  0  0  0  0
   41.9510   31.6920   43.2620 N   0  0  0  0  0  0  0  0  0  0  0  0
   41.9560   32.0720   44.2350 H   0  0  0  0  0  0  0  0  0  0  0  0
  1  4  1  0  0  0  0
  1 20  1  0  0  0  0
  1  2  1  1  0  0  0
  3  8  1  0  0  0  0
  3  9  1  0  0  0  0
  4  3  2  0  0  0  0
  5  6  2  0  0  0  0
  5  4  1  0  0  0  0
  6  7  1  0  0  0  0
  7 11  1  0  0  0  0
  7  8  2  0  0  0  0
 10  5  1  0  0  0  0
 12  1  1  0  0  0  0
 13 12  2  0  0  0  0
 13 17  1  0  0  0  0
 14 13  1  0  0  0  0
 15 14  1  0  0  0  0
 15 16  2  0  0  0  0
 16 12  1  0  0  0  0
 18 14  1  0  0  0  0
 19 15  1  0  0  0  0
 20 21  1  0  0  0  0
 20 26  1  0  0  0  0
 22 20  1  0  0  0  0
 24 23  1  0  0  0  0
 24 26  1  0  0  0  0
 25 24  2  0  0  0  0
 26 27  1  0  0  0  0
M  END
>  <minimizedAffinity>
-3.8833344

$$$$

 OpenBabel03242523443D

 27 28  0  0  1  0  0  0  0  0999 V2000
   38.2460   29.9000   41.1720 C   0  0  2  0  0  0  0  0  0  0  0  0
   39.1170   29.8130   41.8270 H   0  0  0  0  0  0  0  0  0  0  0  0
   39.1460   32.1750   41.1650 C   0  0  0  0  0  0  0  0  0  0  0  0
   38.1330   31.2960   40.7250 C   0  0  0  0  0  0  0  0  0  0  0  0
   37.0910   31.7800   39.9180 C   0  0  0  0  0  0  0  0  0  0  0  0
   37.1410   33.0860   39.6180 N   0  0  0  0  0  0  0  0  0  0  0  0
   38.1090   33.9160   40.0410 C   0  0  0  0  0  0  0  0  0  0  0  0
   39.1150   33.4710   40.8140 N   0  0  0  0  0  0  0  0  0  0  0  0
   39.9660   31.8400   41.7880 H   0  0  0  0  0  0  0  0  0  0  0  0
   36.3190   31.1150   39.5790 H   0  0  0  0  0  0  0  0  0  0  0  0
   38.0450   34.9590   39.7340 H   0  0  0  0  0  0  0  0  0  0  0  0
   38.3730   29.0240   39.9640 C   0  0  0  0  0  0  0  0  0  0  0  0
   37.5380   28.0370   39.5120 C   0  0  0  0  0  0  0  0  0  0  0  0
   38.0270   27.5000   38.3740 N   0  0  0  0  0  0  0  0  0  0  0  0
   39.1900   28.1660   38.1140 C   0  0  0  0  0  0  0  0  0  0  0  0
   39.3910   29.0860   39.0810 N   0  0  0  0  0  0  0  0  0  0  0  0
   36.6400   27.8090   40.0720 H   0  0  0  0  0  0  0  0  0  0  0  0
   37.4750   26.7320   37.9310 H   0  0  0  0  0  0  0  0  0  0  0  0
   39.7540   27.8870   37.2320 H   0  0  0  0  0  0  0  0  0  0  0  0
   37.0050   29.5330   41.9190 C   0  0  0  0  0  0  0  0  0  0  0  0
   36.1940   30.2790   41.8040 H   0  0  0  0  0  0  0  0  0  0  0  0
   36.5580   28.5780   41.5210 H   0  0  0  0  0  0  0  0  0  0  0  0
   37.1800   27.4670   44.6250 H   0  0  0  0  0  0  0  0  0  0  0  0
   37.0740   27.9560   43.6710 C   0  0  0  0  0  0  0  0  0  0  0  0
   36.7400   27.1150   42.8180 O   0  0  0  0  0  0  0  0  0  0  0  0
   37.2600   29.3230   43.3370 N   0  0  0  0  0  0  0  0  0  0  0  0
   37.5380   29.9070   44.1570 H   0  0  0  0  0  0  0  0  0  0  0  0
  1  2  1  1  0  0  0
  1 20  1  0  0  0  0
  3  9  1  0  0  0  0
  4  3  2  0  0  0  0
  4  1  1  0  0  0  0
  5  4  1  0  0  0  0
  6  5  2  0  0  0  0
  6  7  1  0  0  0  0
  7  8  2  0  0  0  0
  8  3  1  0  0  0  0
 10  5  1  0  0  0  0
 11  7  1  0  0  0  0
 12  1  1  0  0  0  0
 13 12  2  0  0  0  0
 13 17  1  0  0  0  0
 14 13  1  0  0  0  0
 15 14  1  0  0  0  0
 15 16  2  0  0  0  0
 16 12  1  0  0  0  0
 18 14  1  0  0  0  0
 19 15  1  0  0  0  0
 20 26  1  0  0  0  0
 21 20  1  0  0  0  0
 22 20  1  0  0  0  0
 24 23  1  0  0  0  0
 25 24  2  0  0  0  0
 26 24  1  0  0  0  0
 26 27  1  0  0  0  0
M  END
>  <minimizedAffinity>
-3.87152123

$$$$

 OpenBabel03242523443D

 27 28  0  0  1  0  0  0  0  0999 V2000
   36.9340   31.2940   38.6580 C   0  0  2  0  0  0  0  0  0  0  0  0
   36.0210   31.8740   38.5030 H   0  0  0  0  0  0  0  0  0  0  0  0
   37.6480   33.2650   39.9200 C   0  0  0  0  0  0  0  0  0  0  0  0
   38.0120   32.2140   39.0500 C   0  0  0  0  0  0  0  0  0  0  0  0
   39.3390   32.1060   38.6030 C   0  0  0  0  0  0  0  0  0  0  0  0
   40.1870   33.0430   39.0530 N   0  0  0  0  0  0  0  0  0  0  0  0
   39.8320   34.0400   39.8810 C   0  0  0  0  0  0  0  0  0  0  0  0
   38.5670   34.1590   40.3200 N   0  0  0  0  0  0  0  0  0  0  0  0
   36.6360   33.3830   40.2860 H   0  0  0  0  0  0  0  0  0  0  0  0
   39.6210   31.3070   37.9430 H   0  0  0  0  0  0  0  0  0  0  0  0
   40.6070   34.7420   40.1800 H   0  0  0  0  0  0  0  0  0  0  0  0
   36.7660   30.2730   39.7390 C   0  0  0  0  0  0  0  0  0  0  0  0
   35.7670   30.1440   40.6670 C   0  0  0  0  0  0  0  0  0  0  0  0
   36.0010   29.0720   41.4550 N   0  0  0  0  0  0  0  0  0  0  0  0
   37.1690   28.5250   41.0070 C   0  0  0  0  0  0  0  0  0  0  0  0
   37.6240   29.2580   39.9700 N   0  0  0  0  0  0  0  0  0  0  0  0
   34.9560   30.8600   40.6710 H   0  0  0  0  0  0  0  0  0  0  0  0
   35.3040   28.8690   42.2060 H   0  0  0  0  0  0  0  0  0  0  0  0
   37.5460   27.6420   41.5080 H   0  0  0  0  0  0  0  0  0  0  0  0
   37.3270   30.6090   37.3890 C   0  0  0  0  0  0  0  0  0  0  0  0
   37.2570   31.2680   36.5010 H   0  0  0  0  0  0  0  0  0  0  0  0
   38.4090   30.2950   37.4140 H   0  0  0  0  0  0  0  0  0  0  0  0
   35.5550   28.5980   35.2830 H   0  0  0  0  0  0  0  0  0  0  0  0
   36.1410   29.3470   35.7880 C   0  0  0  0  0  0  0  0  0  0  0  0
   36.4540   30.2340   34.9760 O   0  0  0  0  0  0  0  0  0  0  0  0
   36.5410   29.4070   37.1490 N   0  0  0  0  0  0  0  0  0  0  0  0
   36.2020   28.5920   37.7080 H   0  0  0  0  0  0  0  0  0  0  0  0
  1  2  1  6  0  0  0
  1  4  1  0  0  0  0
  1 12  1  0  0  0  0
  3  9  1  0  0  0  0
  3  8  1  0  0  0  0
  4  3  2  0  0  0  0
  5  4  1  0  0  0  0
  5  6  2  0  0  0  0
  6  7  1  0  0  0  0
  7 11  1  0  0  0  0
  7  8  2  0  0  0  0
 10  5  1  0  0  0  0
 12 16  1  0  0  0  0
 12 13  2  0  0  0  0
 13 17  1  0  0  0  0
 13 14  1  0  0  0  0
 14 18  1  0  0  0  0
 15 14  1  0  0  0  0
 15 19  1  0  0  0  0
 16 15  2  0  0  0  0
 20 22  1  0  0  0  0
 20  1  1  0  0  0  0
 21 20  1  0  0  0  0
 23 24  1  0  0  0  0
 24 26  1  0  0  0  0
 25 24  2  0  0  0  0
 26 20  1  0  0  0  0
 26 27  1  0  0  0  0
M  END
>  <minimizedAffinity>
-3.86095428

$$$$
