
 OpenBabel03252505233D

 36 38  0  0  1  0  0  0  0  0999 V2000
   39.1170   28.1030   41.4440 F   0  0  0  0  0  0  0  0  0  0  0  0
   37.9710   28.7650   41.1950 C   0  0  0  0  0  0  0  0  0  0  0  0
   36.8400   28.0520   40.9060 C   0  0  0  0  0  0  0  0  0  0  0  0
   35.6830   28.7280   40.6550 C   0  0  0  0  0  0  0  0  0  0  0  0
   35.6830   30.1110   40.7000 C   0  0  0  0  0  0  0  0  0  0  0  0
   36.8080   30.8430   40.9880 C   0  0  0  0  0  0  0  0  0  0  0  0
   37.9850   30.1270   41.2430 C   0  0  0  0  0  0  0  0  0  0  0  0
   34.7810   28.1820   40.4250 H   0  0  0  0  0  0  0  0  0  0  0  0
   34.7380   30.6020   40.4930 H   0  0  0  0  0  0  0  0  0  0  0  0
   36.7220   31.9210   41.0040 H   0  0  0  0  0  0  0  0  0  0  0  0
   39.1210   30.9210   41.5370 N   0  0  0  0  0  0  0  0  0  0  0  0
   39.9420   31.0030   42.7280 C   0  0  0  0  0  0  0  0  0  0  0  0
   41.3520   30.8340   42.1630 C   0  0  0  0  0  0  0  0  0  0  0  0
   41.2130   31.3780   40.7640 C   0  0  0  0  0  0  0  0  0  0  0  0
   39.8260   31.9000   40.7400 C   0  0  2  0  0  0  0  0  0  0  0  0
   39.8510   31.9540   43.2750 H   0  0  0  0  0  0  0  0  0  0  0  0
   39.7110   30.1520   43.4020 H   0  0  0  0  0  0  0  0  0  0  0  0
   41.5740   29.7430   42.1950 H   0  0  0  0  0  0  0  0  0  0  0  0
   42.1180   31.3160   42.7830 H   0  0  0  0  0  0  0  0  0  0  0  0
   42.0090   32.0630   40.4750 H   0  0  0  0  0  0  0  0  0  0  0  0
   41.2750   30.5010   40.0770 H   0  0  0  0  0  0  0  0  0  0  0  0
   39.4540   31.7890   39.7000 H   0  0  0  0  0  0  0  0  0  0  0  0
   38.5430   35.1830   40.9280 H   0  0  0  0  0  0  0  0  0  0  0  0
   38.6850   34.1580   40.6280 C   0  0  0  0  0  0  0  0  0  0  0  0
   37.8600   33.8940   39.7510 O   0  0  0  0  0  0  0  0  0  0  0  0
   39.6370   33.2520   41.1320 N   0  0  0  0  0  0  0  0  0  0  0  0
   40.2300   33.7240   41.8810 H   0  0  0  0  0  0  0  0  0  0  0  0
   37.0890   24.5650   42.0480 C   0  0  0  0  0  0  0  0  0  0  0  0
   37.0200   23.8370   40.8200 C   0  0  0  0  0  0  0  0  0  0  0  0
   36.8880   24.5880   39.6350 C   0  0  0  0  0  0  0  0  0  0  0  0
   36.8350   25.9470   39.7190 N   0  0  0  0  0  0  0  0  0  0  0  0
   36.9020   26.5880   40.8740 C   0  0  0  0  0  0  0  0  0  0  0  0
   37.0290   25.9000   42.0370 N   0  0  0  0  0  0  0  0  0  0  0  0
   37.1890   24.0060   42.9620 H   0  0  0  0  0  0  0  0  0  0  0  0
   37.0640   22.7680   40.7850 H   0  0  0  0  0  0  0  0  0  0  0  0
   36.8310   24.0810   38.6710 H   0  0  0  0  0  0  0  0  0  0  0  0
  2  7  1  0  0  0  0
  2  1  1  0  0  0  0
  3  2  2  0  0  0  0
  4  5  2  0  0  0  0
  4  3  1  0  0  0  0
  5  6  1  0  0  0  0
  6 10  1  0  0  0  0
  6  7  2  0  0  0  0
  7 11  1  0  0  0  0
  8  4  1  0  0  0  0
  9  5  1  0  0  0  0
 11 12  1  0  0  0  0
 12 16  1  0  0  0  0
 12 17  1  0  0  0  0
 13 18  1  0  0  0  0
 13 12  1  0  0  0  0
 13 19  1  0  0  0  0
 14 13  1  0  0  0  0
 15 22  1  6  0  0  0
 15 14  1  0  0  0  0
 15 26  1  0  0  0  0
 15 11  1  0  0  0  0
 20 14  1  0  0  0  0
 21 14  1  0  0  0  0
 24 23  1  0  0  0  0
 24 26  1  0  0  0  0
 25 24  2  0  0  0  0
 26 27  1  0  0  0  0
 28 34  1  0  0  0  0
 29 28  2  0  0  0  0
 30 31  2  0  0  0  0
 30 29  1  0  0  0  0
 31 32  1  0  0  0  0
 32  3  1  0  0  0  0
 32 33  2  0  0  0  0
 33 28  1  0  0  0  0
 35 29  1  0  0  0  0
 36 30  1  0  0  0  0
M  END
>  <minimizedAffinity>
-5.31248617

$$$$

 OpenBabel03252505233D

 36 38  0  0  1  0  0  0  0  0999 V2000
   40.1960   30.3470   41.5390 F   0  0  0  0  0  0  0  0  0  0  0  0
   39.2450   31.1360   41.0020 C   0  0  0  0  0  0  0  0  0  0  0  0
   37.9380   30.7370   41.0600 C   0  0  0  0  0  0  0  0  0  0  0  0
   36.9810   31.5400   40.5150 C   0  0  0  0  0  0  0  0  0  0  0  0
   37.3560   32.7330   39.9210 C   0  0  0  0  0  0  0  0  0  0  0  0
   38.6620   33.1490   39.8530 C   0  0  0  0  0  0  0  0  0  0  0  0
   39.6280   32.3080   40.4210 C   0  0  0  0  0  0  0  0  0  0  0  0
   35.9440   31.2420   40.5510 H   0  0  0  0  0  0  0  0  0  0  0  0
   36.5570   33.3360   39.5010 H   0  0  0  0  0  0  0  0  0  0  0  0
   38.8690   34.0950   39.3720 H   0  0  0  0  0  0  0  0  0  0  0  0
   40.9620   32.7750   40.3300 N   0  0  0  0  0  0  0  0  0  0  0  0
   41.5750   33.9970   40.8080 C   0  0  0  0  0  0  0  0  0  0  0  0
   42.7880   33.4730   41.5770 C   0  0  0  0  0  0  0  0  0  0  0  0
   43.0920   32.1780   40.8680 C   0  0  0  0  0  0  0  0  0  0  0  0
   42.1380   32.1820   39.7330 C   0  0  2  0  0  0  0  0  0  0  0  0
   41.8880   34.6900   40.0110 H   0  0  0  0  0  0  0  0  0  0  0  0
   40.8880   34.5120   41.5120 H   0  0  0  0  0  0  0  0  0  0  0  0
   42.4550   33.3350   42.6310 H   0  0  0  0  0  0  0  0  0  0  0  0
   43.6120   34.1960   41.6140 H   0  0  0  0  0  0  0  0  0  0  0  0
   44.1460   32.0390   40.6320 H   0  0  0  0  0  0  0  0  0  0  0  0
   42.8070   31.3600   41.5700 H   0  0  0  0  0  0  0  0  0  0  0  0
   41.8830   31.1220   39.5190 H   0  0  0  0  0  0  0  0  0  0  0  0
   42.2500   33.2170   36.3620 H   0  0  0  0  0  0  0  0  0  0  0  0
   41.9170   32.7600   37.2780 C   0  0  0  0  0  0  0  0  0  0  0  0
   40.8410   32.1990   37.0620 O   0  0  0  0  0  0  0  0  0  0  0  0
   42.5740   32.7830   38.5230 N   0  0  0  0  0  0  0  0  0  0  0  0
   43.4830   33.3310   38.4460 H   0  0  0  0  0  0  0  0  0  0  0  0
   37.3690   28.2180   43.6780 C   0  0  0  0  0  0  0  0  0  0  0  0
   36.9760   27.0720   42.9180 C   0  0  0  0  0  0  0  0  0  0  0  0
   36.9230   27.2190   41.5180 C   0  0  0  0  0  0  0  0  0  0  0  0
   37.2440   28.4240   40.9680 N   0  0  0  0  0  0  0  0  0  0  0  0
   37.6030   29.4640   41.7030 C   0  0  0  0  0  0  0  0  0  0  0  0
   37.6670   29.3620   43.0560 N   0  0  0  0  0  0  0  0  0  0  0  0
   37.4140   28.1220   44.7490 H   0  0  0  0  0  0  0  0  0  0  0  0
   36.7290   26.1380   43.3770 H   0  0  0  0  0  0  0  0  0  0  0  0
   36.6280   26.3760   40.8910 H   0  0  0  0  0  0  0  0  0  0  0  0
  2  3  1  0  0  0  0
  2  1  1  0  0  0  0
  3 32  1  0  0  0  0
  4  8  1  0  0  0  0
  4  3  2  0  0  0  0
  5  4  1  0  0  0  0
  6  5  2  0  0  0  0
  6  7  1  0  0  0  0
  7  2  2  0  0  0  0
  9  5  1  0  0  0  0
 10  6  1  0  0  0  0
 11  7  1  0  0  0  0
 11 12  1  0  0  0  0
 12 17  1  0  0  0  0
 12 13  1  0  0  0  0
 13 19  1  0  0  0  0
 13 18  1  0  0  0  0
 14 21  1  0  0  0  0
 14 13  1  0  0  0  0
 15 22  1  6  0  0  0
 15 11  1  0  0  0  0
 15 14  1  0  0  0  0
 16 12  1  0  0  0  0
 20 14  1  0  0  0  0
 23 24  1  0  0  0  0
 24 26  1  0  0  0  0
 25 24  2  0  0  0  0
 26 15  1  0  0  0  0
 27 26  1  0  0  0  0
 28 34  1  0  0  0  0
 29 35  1  0  0  0  0
 29 28  2  0  0  0  0
 30 29  1  0  0  0  0
 31 30  2  0  0  0  0
 31 32  1  0  0  0  0
 32 33  2  0  0  0  0
 33 28  1  0  0  0  0
 36 30  1  0  0  0  0
M  END
>  <minimizedAffinity>
-5.09700823

$$$$

 OpenBabel03252505233D

 36 38  0  0  1  0  0  0  0  0999 V2000
   37.8030   27.2120   39.5170 F   0  0  0  0  0  0  0  0  0  0  0  0
   37.5460   27.4030   40.8250 C   0  0  0  0  0  0  0  0  0  0  0  0
   37.2910   26.3200   41.6200 C   0  0  0  0  0  0  0  0  0  0  0  0
   37.0330   26.5200   42.9430 C   0  0  0  0  0  0  0  0  0  0  0  0
   37.0350   27.8100   43.4450 C   0  0  0  0  0  0  0  0  0  0  0  0
   37.2880   28.9090   42.6630 C   0  0  0  0  0  0  0  0  0  0  0  0
   37.5530   28.6780   41.3070 C   0  0  0  0  0  0  0  0  0  0  0  0
   36.8290   25.6770   43.5850 H   0  0  0  0  0  0  0  0  0  0  0  0
   36.8230   27.9170   44.5040 H   0  0  0  0  0  0  0  0  0  0  0  0
   37.2720   29.8820   43.1350 H   0  0  0  0  0  0  0  0  0  0  0  0
   37.8090   29.8400   40.5370 N   0  0  0  0  0  0  0  0  0  0  0  0
   37.9880   30.0140   39.1100 C   0  0  0  0  0  0  0  0  0  0  0  0
   37.0070   31.1440   38.7950 C   0  0  0  0  0  0  0  0  0  0  0  0
   36.9490   31.9020   40.0970 C   0  0  0  0  0  0  0  0  0  0  0  0
   37.9710   31.2220   40.9300 C   0  0  2  0  0  0  0  0  0  0  0  0
   39.0110   30.2910   38.8120 H   0  0  0  0  0  0  0  0  0  0  0  0
   37.6710   29.0940   38.5770 H   0  0  0  0  0  0  0  0  0  0  0  0
   36.0430   30.6560   38.5230 H   0  0  0  0  0  0  0  0  0  0  0  0
   37.3040   31.7320   37.9190 H   0  0  0  0  0  0  0  0  0  0  0  0
   37.0360   32.9820   39.9850 H   0  0  0  0  0  0  0  0  0  0  0  0
   35.9440   31.7010   40.5350 H   0  0  0  0  0  0  0  0  0  0  0  0
   37.6310   31.2930   41.9850 H   0  0  0  0  0  0  0  0  0  0  0  0
   41.3330   31.9160   41.7490 H   0  0  0  0  0  0  0  0  0  0  0  0
   40.3270   31.5360   41.8050 C   0  0  0  0  0  0  0  0  0  0  0  0
   40.2120   30.8960   42.8510 O   0  0  0  0  0  0  0  0  0  0  0  0
   39.2980   31.7210   40.8600 N   0  0  0  0  0  0  0  0  0  0  0  0
   39.6520   32.3110   40.0470 H   0  0  0  0  0  0  0  0  0  0  0  0
   38.4390   22.9540   40.6800 C   0  0  0  0  0  0  0  0  0  0  0  0
   37.3330   22.4560   39.9230 C   0  0  0  0  0  0  0  0  0  0  0  0
   36.2250   23.3110   39.7680 C   0  0  0  0  0  0  0  0  0  0  0  0
   36.2630   24.5490   40.3360 N   0  0  0  0  0  0  0  0  0  0  0  0
   37.3040   24.9780   41.0300 C   0  0  0  0  0  0  0  0  0  0  0  0
   38.3910   24.1830   41.2020 N   0  0  0  0  0  0  0  0  0  0  0  0
   39.2940   22.3130   40.8080 H   0  0  0  0  0  0  0  0  0  0  0  0
   37.3320   21.4780   39.4880 H   0  0  0  0  0  0  0  0  0  0  0  0
   35.3550   22.9800   39.2000 H   0  0  0  0  0  0  0  0  0  0  0  0
  1  2  1  0  0  0  0
  2  7  2  0  0  0  0
  2  3  1  0  0  0  0
  3  4  2  0  0  0  0
  4  5  1  0  0  0  0
  4  8  1  0  0  0  0
  5  9  1  0  0  0  0
  6 10  1  0  0  0  0
  6  5  2  0  0  0  0
  7  6  1  0  0  0  0
 11 15  1  0  0  0  0
 11  7  1  0  0  0  0
 12 11  1  0  0  0  0
 13 12  1  0  0  0  0
 13 14  1  0  0  0  0
 14 21  1  0  0  0  0
 14 15  1  0  0  0  0
 15 22  1  1  0  0  0
 16 12  1  0  0  0  0
 17 12  1  0  0  0  0
 18 13  1  0  0  0  0
 19 13  1  0  0  0  0
 20 14  1  0  0  0  0
 23 24  1  0  0  0  0
 24 25  2  0  0  0  0
 26 15  1  0  0  0  0
 26 24  1  0  0  0  0
 27 26  1  0  0  0  0
 28 34  1  0  0  0  0
 28 33  1  0  0  0  0
 29 28  2  0  0  0  0
 30 29  1  0  0  0  0
 30 31  2  0  0  0  0
 31 32  1  0  0  0  0
 32 33  2  0  0  0  0
 32  3  1  0  0  0  0
 35 29  1  0  0  0  0
 36 30  1  0  0  0  0
M  END
>  <minimizedAffinity>
-5.0885191

$$$$

 OpenBabel03252505233D

 36 38  0  0  1  0  0  0  0  0999 V2000
   38.0900   28.3900   39.7480 F   0  0  0  0  0  0  0  0  0  0  0  0
   37.8430   28.1940   41.0570 C   0  0  0  0  0  0  0  0  0  0  0  0
   37.8620   29.2660   41.9060 C   0  0  0  0  0  0  0  0  0  0  0  0
   37.6110   29.0610   43.2300 C   0  0  0  0  0  0  0  0  0  0  0  0
   37.3420   27.7790   43.6770 C   0  0  0  0  0  0  0  0  0  0  0  0
   37.3180   26.6920   42.8410 C   0  0  0  0  0  0  0  0  0  0  0  0
   37.5790   26.9270   41.4840 C   0  0  0  0  0  0  0  0  0  0  0  0
   37.6220   29.8950   43.9150 H   0  0  0  0  0  0  0  0  0  0  0  0
   37.1490   27.6680   44.7400 H   0  0  0  0  0  0  0  0  0  0  0  0
   37.1000   25.7240   43.2710 H   0  0  0  0  0  0  0  0  0  0  0  0
   37.5440   25.7780   40.6560 N   0  0  0  0  0  0  0  0  0  0  0  0
   38.5760   24.8200   40.3140 C   0  0  0  0  0  0  0  0  0  0  0  0
   37.8970   23.4860   40.6220 C   0  0  0  0  0  0  0  0  0  0  0  0
   36.4390   23.8030   40.4090 C   0  0  0  0  0  0  0  0  0  0  0  0
   36.4660   25.1920   39.8910 C   0  0  2  0  0  0  0  0  0  0  0  0
   38.9010   24.8600   39.2630 H   0  0  0  0  0  0  0  0  0  0  0  0
   39.4490   24.9530   40.9870 H   0  0  0  0  0  0  0  0  0  0  0  0
   38.1490   23.2430   41.6800 H   0  0  0  0  0  0  0  0  0  0  0  0
   38.2940   22.6590   40.0200 H   0  0  0  0  0  0  0  0  0  0  0  0
   35.9070   23.0600   39.8160 H   0  0  0  0  0  0  0  0  0  0  0  0
   35.9670   23.8100   41.4200 H   0  0  0  0  0  0  0  0  0  0  0  0
   35.5310   25.6850   40.2320 H   0  0  0  0  0  0  0  0  0  0  0  0
   36.1590   26.5600   36.6520 H   0  0  0  0  0  0  0  0  0  0  0  0
   36.0850   26.4380   37.7200 C   0  0  0  0  0  0  0  0  0  0  0  0
   35.5040   27.4210   38.1820 O   0  0  0  0  0  0  0  0  0  0  0  0
   36.5620   25.3550   38.4840 N   0  0  0  0  0  0  0  0  0  0  0  0
   37.0250   24.6360   37.8490 H   0  0  0  0  0  0  0  0  0  0  0  0
   37.4010   32.5050   40.2270 C   0  0  0  0  0  0  0  0  0  0  0  0
   38.6910   33.1070   40.3670 C   0  0  0  0  0  0  0  0  0  0  0  0
   39.6770   32.3620   41.0430 C   0  0  0  0  0  0  0  0  0  0  0  0
   39.3570   31.1260   41.5210 N   0  0  0  0  0  0  0  0  0  0  0  0
   38.1520   30.6000   41.3730 C   0  0  0  0  0  0  0  0  0  0  0  0
   37.1750   31.2870   40.7270 N   0  0  0  0  0  0  0  0  0  0  0  0
   36.6370   33.0610   39.7130 H   0  0  0  0  0  0  0  0  0  0  0  0
   38.9130   34.0800   39.9810 H   0  0  0  0  0  0  0  0  0  0  0  0
   40.6770   32.7750   41.1780 H   0  0  0  0  0  0  0  0  0  0  0  0
  1  2  1  0  0  0  0
  2  7  2  0  0  0  0
  2  3  1  0  0  0  0
  3  4  2  0  0  0  0
  4  5  1  0  0  0  0
  4  8  1  0  0  0  0
  5  9  1  0  0  0  0
  6 10  1  0  0  0  0
  6  5  2  0  0  0  0
  7  6  1  0  0  0  0
 11  7  1  0  0  0  0
 12 13  1  0  0  0  0
 12 11  1  0  0  0  0
 12 17  1  0  0  0  0
 13 18  1  0  0  0  0
 14 13  1  0  0  0  0
 14 21  1  0  0  0  0
 15 22  1  1  0  0  0
 15 14  1  0  0  0  0
 15 11  1  0  0  0  0
 16 12  1  0  0  0  0
 19 13  1  0  0  0  0
 20 14  1  0  0  0  0
 23 24  1  0  0  0  0
 24 25  2  0  0  0  0
 24 26  1  0  0  0  0
 26 15  1  0  0  0  0
 27 26  1  0  0  0  0
 28 29  2  0  0  0  0
 28 33  1  0  0  0  0
 29 30  1  0  0  0  0
 30 36  1  0  0  0  0
 30 31  2  0  0  0  0
 32 31  1  0  0  0  0
 32  3  1  0  0  0  0
 33 32  2  0  0  0  0
 34 28  1  0  0  0  0
 35 29  1  0  0  0  0
M  END
>  <minimizedAffinity>
-5.07744741

$$$$

 OpenBabel03252505233D

 36 38  0  0  1  0  0  0  0  0999 V2000
   40.0250   30.3980   40.8850 F   0  0  0  0  0  0  0  0  0  0  0  0
   38.7910   30.5160   40.3590 C   0  0  0  0  0  0  0  0  0  0  0  0
   38.5740   31.4310   39.3650 C   0  0  0  0  0  0  0  0  0  0  0  0
   37.3220   31.5450   38.8370 C   0  0  0  0  0  0  0  0  0  0  0  0
   36.3090   30.7340   39.3180 C   0  0  0  0  0  0  0  0  0  0  0  0
   36.5070   29.8110   40.3140 C   0  0  0  0  0  0  0  0  0  0  0  0
   37.8020   29.7120   40.8410 C   0  0  0  0  0  0  0  0  0  0  0  0
   37.1330   32.2610   38.0530 H   0  0  0  0  0  0  0  0  0  0  0  0
   35.3310   30.8640   38.8660 H   0  0  0  0  0  0  0  0  0  0  0  0
   35.6610   29.2180   40.6320 H   0  0  0  0  0  0  0  0  0  0  0  0
   37.9620   28.7470   41.8660 N   0  0  0  0  0  0  0  0  0  0  0  0
   37.8870   28.8700   43.3070 C   0  0  0  0  0  0  0  0  0  0  0  0
   36.9120   27.7520   43.6790 C   0  0  0  0  0  0  0  0  0  0  0  0
   37.1210   26.7520   42.5710 C   0  0  0  0  0  0  0  0  0  0  0  0
   38.2480   27.3310   41.8000 C   0  0  2  0  0  0  0  0  0  0  0  0
   38.8500   28.7350   43.8240 H   0  0  0  0  0  0  0  0  0  0  0  0
   37.4430   29.8500   43.5780 H   0  0  0  0  0  0  0  0  0  0  0  0
   35.8960   28.2100   43.6780 H   0  0  0  0  0  0  0  0  0  0  0  0
   37.0700   27.3720   44.6950 H   0  0  0  0  0  0  0  0  0  0  0  0
   37.2290   25.7250   42.9170 H   0  0  0  0  0  0  0  0  0  0  0  0
   36.2030   26.7850   41.9380 H   0  0  0  0  0  0  0  0  0  0  0  0
   38.1070   27.0280   40.7410 H   0  0  0  0  0  0  0  0  0  0  0  0
   41.7240   26.7320   41.7140 H   0  0  0  0  0  0  0  0  0  0  0  0
   40.7300   27.0150   41.4120 C   0  0  0  0  0  0  0  0  0  0  0  0
   40.7770   27.4100   40.2460 O   0  0  0  0  0  0  0  0  0  0  0  0
   39.5600   26.9570   42.1940 N   0  0  0  0  0  0  0  0  0  0  0  0
   39.7870   26.5800   43.1630 H   0  0  0  0  0  0  0  0  0  0  0  0
   41.3940   32.6220   37.3260 C   0  0  0  0  0  0  0  0  0  0  0  0
   41.7830   33.8140   38.0130 C   0  0  0  0  0  0  0  0  0  0  0  0
   41.0490   34.1610   39.1640 C   0  0  0  0  0  0  0  0  0  0  0  0
   40.0210   33.3570   39.5580 N   0  0  0  0  0  0  0  0  0  0  0  0
   39.6880   32.2600   38.8970 C   0  0  0  0  0  0  0  0  0  0  0  0
   40.3720   31.8910   37.7840 N   0  0  0  0  0  0  0  0  0  0  0  0
   41.9450   32.3420   36.4460 H   0  0  0  0  0  0  0  0  0  0  0  0
   42.5960   34.4260   37.6800 H   0  0  0  0  0  0  0  0  0  0  0  0
   41.3050   35.0610   39.7240 H   0  0  0  0  0  0  0  0  0  0  0  0
  2  7  1  0  0  0  0
  2  1  1  0  0  0  0
  3  2  2  0  0  0  0
  4  5  2  0  0  0  0
  4  3  1  0  0  0  0
  5  6  1  0  0  0  0
  6 10  1  0  0  0  0
  6  7  2  0  0  0  0
  7 11  1  0  0  0  0
  8  4  1  0  0  0  0
  9  5  1  0  0  0  0
 11 12  1  0  0  0  0
 12 17  1  0  0  0  0
 12 13  1  0  0  0  0
 12 16  1  0  0  0  0
 13 19  1  0  0  0  0
 14 20  1  0  0  0  0
 14 13  1  0  0  0  0
 15 22  1  6  0  0  0
 15 11  1  0  0  0  0
 15 26  1  0  0  0  0
 15 14  1  0  0  0  0
 18 13  1  0  0  0  0
 21 14  1  0  0  0  0
 24 23  1  0  0  0  0
 24 26  1  0  0  0  0
 25 24  2  0  0  0  0
 26 27  1  0  0  0  0
 28 33  2  0  0  0  0
 28 29  1  0  0  0  0
 29 30  2  0  0  0  0
 30 31  1  0  0  0  0
 30 36  1  0  0  0  0
 32  3  1  0  0  0  0
 32 31  2  0  0  0  0
 33 32  1  0  0  0  0
 34 28  1  0  0  0  0
 35 29  1  0  0  0  0
M  END
>  <minimizedAffinity>
-5.0629673

$$$$

 OpenBabel03252505233D

 36 38  0  0  1  0  0  0  0  0999 V2000
   39.6960   29.4640   40.9030 F   0  0  0  0  0  0  0  0  0  0  0  0
   38.3610   29.2900   40.9280 C   0  0  0  0  0  0  0  0  0  0  0  0
   37.8510   28.1170   41.4110 C   0  0  0  0  0  0  0  0  0  0  0  0
   36.4990   27.9480   41.4340 C   0  0  0  0  0  0  0  0  0  0  0  0
   35.6820   28.9630   40.9700 C   0  0  0  0  0  0  0  0  0  0  0  0
   36.1750   30.1470   40.4810 C   0  0  0  0  0  0  0  0  0  0  0  0
   37.5680   30.2990   40.4680 C   0  0  0  0  0  0  0  0  0  0  0  0
   36.0780   27.0280   41.8110 H   0  0  0  0  0  0  0  0  0  0  0  0
   34.6120   28.7800   41.0080 H   0  0  0  0  0  0  0  0  0  0  0  0
   35.4670   30.8890   40.1380 H   0  0  0  0  0  0  0  0  0  0  0  0
   38.0340   31.5350   39.9570 N   0  0  0  0  0  0  0  0  0  0  0  0
   37.5670   32.3420   38.8480 C   0  0  0  0  0  0  0  0  0  0  0  0
   37.4120   33.7200   39.4910 C   0  0  0  0  0  0  0  0  0  0  0  0
   38.4340   33.6820   40.5990 C   0  0  0  0  0  0  0  0  0  0  0  0
   39.1220   32.3880   40.3800 C   0  0  2  0  0  0  0  0  0  0  0  0
   38.2620   32.3850   37.9950 H   0  0  0  0  0  0  0  0  0  0  0  0
   36.5730   31.9790   38.5120 H   0  0  0  0  0  0  0  0  0  0  0  0
   36.3620   33.7780   39.8580 H   0  0  0  0  0  0  0  0  0  0  0  0
   37.5260   34.5390   38.7710 H   0  0  0  0  0  0  0  0  0  0  0  0
   39.0560   34.5750   40.6560 H   0  0  0  0  0  0  0  0  0  0  0  0
   37.8610   33.6240   41.5540 H   0  0  0  0  0  0  0  0  0  0  0  0
   39.4440   32.0180   41.3770 H   0  0  0  0  0  0  0  0  0  0  0  0
   42.4610   32.5670   39.2520 H   0  0  0  0  0  0  0  0  0  0  0  0
   41.6030   32.5630   39.9020 C   0  0  0  0  0  0  0  0  0  0  0  0
   41.9930   32.7320   41.0580 O   0  0  0  0  0  0  0  0  0  0  0  0
   40.2560   32.3940   39.5260 N   0  0  0  0  0  0  0  0  0  0  0  0
   40.1860   32.2670   38.4710 H   0  0  0  0  0  0  0  0  0  0  0  0
   40.1760   25.2670   41.3960 C   0  0  0  0  0  0  0  0  0  0  0  0
   40.4900   25.1240   42.7840 C   0  0  0  0  0  0  0  0  0  0  0  0
   39.8800   26.0270   43.6770 C   0  0  0  0  0  0  0  0  0  0  0  0
   39.0350   26.9740   43.1810 N   0  0  0  0  0  0  0  0  0  0  0  0
   38.7670   27.0780   41.8890 C   0  0  0  0  0  0  0  0  0  0  0  0
   39.3360   26.2270   40.9980 N   0  0  0  0  0  0  0  0  0  0  0  0
   40.6340   24.5860   40.7010 H   0  0  0  0  0  0  0  0  0  0  0  0
   41.1580   24.3690   43.1440 H   0  0  0  0  0  0  0  0  0  0  0  0
   40.0860   25.9610   44.7450 H   0  0  0  0  0  0  0  0  0  0  0  0
  1  2  1  0  0  0  0
  2  3  1  0  0  0  0
  3  4  2  0  0  0  0
  3 32  1  0  0  0  0
  4  8  1  0  0  0  0
  5  9  1  0  0  0  0
  5  4  1  0  0  0  0
  6  5  2  0  0  0  0
  7  6  1  0  0  0  0
  7  2  2  0  0  0  0
 10  6  1  0  0  0  0
 11 15  1  0  0  0  0
 11  7  1  0  0  0  0
 12 13  1  0  0  0  0
 12 11  1  0  0  0  0
 13 18  1  0  0  0  0
 13 14  1  0  0  0  0
 14 20  1  0  0  0  0
 14 21  1  0  0  0  0
 15 14  1  0  0  0  0
 15 22  1  1  0  0  0
 16 12  1  0  0  0  0
 17 12  1  0  0  0  0
 19 13  1  0  0  0  0
 23 24  1  0  0  0  0
 24 25  2  0  0  0  0
 26 24  1  0  0  0  0
 26 15  1  0  0  0  0
 27 26  1  0  0  0  0
 28 29  1  0  0  0  0
 29 35  1  0  0  0  0
 29 30  2  0  0  0  0
 30 36  1  0  0  0  0
 31 30  1  0  0  0  0
 32 31  2  0  0  0  0
 33 28  2  0  0  0  0
 33 32  1  0  0  0  0
 34 28  1  0  0  0  0
M  END
>  <minimizedAffinity>
-4.99729776

$$$$

 OpenBabel03252505233D

 36 38  0  0  1  0  0  0  0  0999 V2000
   32.6260   29.3380   39.0170 F   0  0  0  0  0  0  0  0  0  0  0  0
   33.1280   29.2110   37.7740 C   0  0  0  0  0  0  0  0  0  0  0  0
   34.4050   28.7480   37.6140 C   0  0  0  0  0  0  0  0  0  0  0  0
   34.9070   28.6230   36.3530 C   0  0  0  0  0  0  0  0  0  0  0  0
   34.1140   28.9650   35.2720 C   0  0  0  0  0  0  0  0  0  0  0  0
   32.8310   29.4320   35.4120 C   0  0  0  0  0  0  0  0  0  0  0  0
   32.3370   29.5520   36.7180 C   0  0  0  0  0  0  0  0  0  0  0  0
   35.9130   28.2590   36.2090 H   0  0  0  0  0  0  0  0  0  0  0  0
   34.5600   28.8480   34.2890 H   0  0  0  0  0  0  0  0  0  0  0  0
   32.2790   29.6770   34.5150 H   0  0  0  0  0  0  0  0  0  0  0  0
   31.0090   30.0360   36.8160 N   0  0  0  0  0  0  0  0  0  0  0  0
   29.7570   29.3410   37.0310 C   0  0  0  0  0  0  0  0  0  0  0  0
   29.1460   30.1200   38.1950 C   0  0  0  0  0  0  0  0  0  0  0  0
   29.7380   31.4950   38.0160 C   0  0  0  0  0  0  0  0  0  0  0  0
   30.4800   31.3800   36.7380 C   0  0  2  0  0  0  0  0  0  0  0  0
   29.0810   29.3450   36.1610 H   0  0  0  0  0  0  0  0  0  0  0  0
   29.9570   28.2970   37.3520 H   0  0  0  0  0  0  0  0  0  0  0  0
   29.4850   29.6090   39.1260 H   0  0  0  0  0  0  0  0  0  0  0  0
   28.0510   30.0750   38.2080 H   0  0  0  0  0  0  0  0  0  0  0  0
   29.0120   32.3030   38.1000 H   0  0  0  0  0  0  0  0  0  0  0  0
   30.4730   31.6330   38.8440 H   0  0  0  0  0  0  0  0  0  0  0  0
   31.3510   32.0670   36.8050 H   0  0  0  0  0  0  0  0  0  0  0  0
   29.7450   32.5000   33.4730 H   0  0  0  0  0  0  0  0  0  0  0  0
   30.2860   32.2700   34.3750 C   0  0  0  0  0  0  0  0  0  0  0  0
   31.4610   32.6080   34.2180 O   0  0  0  0  0  0  0  0  0  0  0  0
   29.7700   31.6850   35.5470 N   0  0  0  0  0  0  0  0  0  0  0  0
   28.7300   31.4880   35.4290 H   0  0  0  0  0  0  0  0  0  0  0  0
   36.5760   26.8570   39.9030 C   0  0  0  0  0  0  0  0  0  0  0  0
   36.6820   27.7410   41.0220 C   0  0  0  0  0  0  0  0  0  0  0  0
   35.9930   28.9670   40.9390 C   0  0  0  0  0  0  0  0  0  0  0  0
   35.2720   29.2430   39.8160 N   0  0  0  0  0  0  0  0  0  0  0  0
   35.1960   28.4000   38.7980 C   0  0  0  0  0  0  0  0  0  0  0  0
   35.8460   27.2090   38.8410 N   0  0  0  0  0  0  0  0  0  0  0  0
   37.0970   25.9160   39.9510 H   0  0  0  0  0  0  0  0  0  0  0  0
   37.2570   27.4970   41.8910 H   0  0  0  0  0  0  0  0  0  0  0  0
   36.0420   29.6770   41.7640 H   0  0  0  0  0  0  0  0  0  0  0  0
  2  1  1  0  0  0  0
  3  2  1  0  0  0  0
  3 32  1  0  0  0  0
  4  3  2  0  0  0  0
  5  6  2  0  0  0  0
  5  4  1  0  0  0  0
  6  7  1  0  0  0  0
  7 11  1  0  0  0  0
  7  2  2  0  0  0  0
  8  4  1  0  0  0  0
  9  5  1  0  0  0  0
 10  6  1  0  0  0  0
 11 12  1  0  0  0  0
 12 17  1  0  0  0  0
 12 13  1  0  0  0  0
 13 19  1  0  0  0  0
 13 18  1  0  0  0  0
 14 20  1  0  0  0  0
 14 13  1  0  0  0  0
 14 21  1  0  0  0  0
 15 22  1  1  0  0  0
 15 11  1  0  0  0  0
 15 14  1  0  0  0  0
 16 12  1  0  0  0  0
 23 24  1  0  0  0  0
 24 26  1  0  0  0  0
 25 24  2  0  0  0  0
 26 15  1  0  0  0  0
 27 26  1  0  0  0  0
 28 34  1  0  0  0  0
 28 29  1  0  0  0  0
 29 35  1  0  0  0  0
 30 29  2  0  0  0  0
 30 36  1  0  0  0  0
 31 30  1  0  0  0  0
 32 33  1  0  0  0  0
 32 31  2  0  0  0  0
 33 28  2  0  0  0  0
M  END
>  <minimizedAffinity>
-4.94686842

$$$$

 OpenBabel03252505233D

 36 38  0  0  1  0  0  0  0  0999 V2000
   38.1990   29.7600   39.5530 F   0  0  0  0  0  0  0  0  0  0  0  0
   37.8960   29.3210   40.7890 C   0  0  0  0  0  0  0  0  0  0  0  0
   36.8940   28.4030   40.9440 C   0  0  0  0  0  0  0  0  0  0  0  0
   36.5930   27.9630   42.1980 C   0  0  0  0  0  0  0  0  0  0  0  0
   37.3060   28.4550   43.2770 C   0  0  0  0  0  0  0  0  0  0  0  0
   38.3140   29.3760   43.1420 C   0  0  0  0  0  0  0  0  0  0  0  0
   38.6060   29.8130   41.8430 C   0  0  0  0  0  0  0  0  0  0  0  0
   35.8050   27.2390   42.3400 H   0  0  0  0  0  0  0  0  0  0  0  0
   37.0280   28.0740   44.2550 H   0  0  0  0  0  0  0  0  0  0  0  0
   38.8220   29.7090   44.0370 H   0  0  0  0  0  0  0  0  0  0  0  0
   39.6530   30.7630   41.7490 N   0  0  0  0  0  0  0  0  0  0  0  0
   40.8410   30.9520   42.5560 C   0  0  0  0  0  0  0  0  0  0  0  0
   41.9470   31.0010   41.5020 C   0  0  0  0  0  0  0  0  0  0  0  0
   41.2230   31.5340   40.2910 C   0  0  0  0  0  0  0  0  0  0  0  0
   39.8720   31.8460   40.8150 C   0  0  2  0  0  0  0  0  0  0  0  0
   40.8360   31.8730   43.1600 H   0  0  0  0  0  0  0  0  0  0  0  0
   40.9950   30.0690   43.2100 H   0  0  0  0  0  0  0  0  0  0  0  0
   42.3070   29.9540   41.3780 H   0  0  0  0  0  0  0  0  0  0  0  0
   42.8170   31.5830   41.8270 H   0  0  0  0  0  0  0  0  0  0  0  0
   41.7550   32.3320   39.7750 H   0  0  0  0  0  0  0  0  0  0  0  0
   41.1400   30.6840   39.5750 H   0  0  0  0  0  0  0  0  0  0  0  0
   39.1560   31.6920   39.9800 H   0  0  0  0  0  0  0  0  0  0  0  0
   38.6330   35.1220   41.2420 H   0  0  0  0  0  0  0  0  0  0  0  0
   38.7880   34.1340   40.8430 C   0  0  0  0  0  0  0  0  0  0  0  0
   38.0570   33.9940   39.8610 O   0  0  0  0  0  0  0  0  0  0  0  0
   39.6650   33.1490   41.3370 N   0  0  0  0  0  0  0  0  0  0  0  0
   40.1830   33.5180   42.1920 H   0  0  0  0  0  0  0  0  0  0  0  0
   34.5270   28.2810   38.1320 C   0  0  0  0  0  0  0  0  0  0  0  0
   34.8200   27.0120   37.5420 C   0  0  0  0  0  0  0  0  0  0  0  0
   35.8340   26.2430   38.1460 C   0  0  0  0  0  0  0  0  0  0  0  0
   36.4730   26.7390   39.2430 N   0  0  0  0  0  0  0  0  0  0  0  0
   36.1750   27.9180   39.7620 C   0  0  0  0  0  0  0  0  0  0  0  0
   35.2040   28.6890   39.2090 N   0  0  0  0  0  0  0  0  0  0  0  0
   33.7550   28.8810   37.6830 H   0  0  0  0  0  0  0  0  0  0  0  0
   34.3010   26.6490   36.6790 H   0  0  0  0  0  0  0  0  0  0  0  0
   36.0980   25.2680   37.7350 H   0  0  0  0  0  0  0  0  0  0  0  0
  1  2  1  0  0  0  0
  2  3  2  0  0  0  0
  2  7  1  0  0  0  0
  3  4  1  0  0  0  0
  4  8  1  0  0  0  0
  4  5  2  0  0  0  0
  5  9  1  0  0  0  0
  6  5  1  0  0  0  0
  6 10  1  0  0  0  0
  7  6  2  0  0  0  0
 11  7  1  0  0  0  0
 11 12  1  0  0  0  0
 12 16  1  0  0  0  0
 12 17  1  0  0  0  0
 13 19  1  0  0  0  0
 13 12  1  0  0  0  0
 14 15  1  0  0  0  0
 14 13  1  0  0  0  0
 15 22  1  6  0  0  0
 15 26  1  0  0  0  0
 15 11  1  0  0  0  0
 18 13  1  0  0  0  0
 20 14  1  0  0  0  0
 21 14  1  0  0  0  0
 24 23  1  0  0  0  0
 24 26  1  0  0  0  0
 25 24  2  0  0  0  0
 26 27  1  0  0  0  0
 28 33  1  0  0  0  0
 29 28  2  0  0  0  0
 29 30  1  0  0  0  0
 30 31  2  0  0  0  0
 31 32  1  0  0  0  0
 32  3  1  0  0  0  0
 33 32  2  0  0  0  0
 34 28  1  0  0  0  0
 35 29  1  0  0  0  0
 36 30  1  0  0  0  0
M  END
>  <minimizedAffinity>
-4.9465251

$$$$

 OpenBabel03252505233D

 36 38  0  0  1  0  0  0  0  0999 V2000
   38.9010   27.6370   40.2510 F   0  0  0  0  0  0  0  0  0  0  0  0
   38.1850   27.6920   41.3900 C   0  0  0  0  0  0  0  0  0  0  0  0
   37.4680   26.5950   41.7810 C   0  0  0  0  0  0  0  0  0  0  0  0
   36.7460   26.6570   42.9350 C   0  0  0  0  0  0  0  0  0  0  0  0
   36.7590   27.8240   43.6790 C   0  0  0  0  0  0  0  0  0  0  0  0
   37.4710   28.9350   43.3030 C   0  0  0  0  0  0  0  0  0  0  0  0
   38.2060   28.8470   42.1130 C   0  0  0  0  0  0  0  0  0  0  0  0
   36.1740   25.8010   43.2590 H   0  0  0  0  0  0  0  0  0  0  0  0
   36.1680   27.8240   44.5890 H   0  0  0  0  0  0  0  0  0  0  0  0
   37.4270   29.8070   43.9420 H   0  0  0  0  0  0  0  0  0  0  0  0
   38.9270   30.0160   41.7630 N   0  0  0  0  0  0  0  0  0  0  0  0
   39.9650   30.7390   42.4690 C   0  0  0  0  0  0  0  0  0  0  0  0
   41.0560   30.8630   41.4050 C   0  0  0  0  0  0  0  0  0  0  0  0
   40.2670   30.8480   40.1210 C   0  0  0  0  0  0  0  0  0  0  0  0
   38.8600   30.8570   40.5890 C   0  0  2  0  0  0  0  0  0  0  0  0
   39.6590   31.7330   42.8310 H   0  0  0  0  0  0  0  0  0  0  0  0
   40.3430   30.1260   43.3130 H   0  0  0  0  0  0  0  0  0  0  0  0
   41.7170   29.9740   41.5300 H   0  0  0  0  0  0  0  0  0  0  0  0
   41.6980   31.7390   41.5560 H   0  0  0  0  0  0  0  0  0  0  0  0
   40.5610   31.6210   39.4130 H   0  0  0  0  0  0  0  0  0  0  0  0
   40.4740   29.8670   39.6350 H   0  0  0  0  0  0  0  0  0  0  0  0
   38.2630   30.3010   39.8360 H   0  0  0  0  0  0  0  0  0  0  0  0
   36.9980   33.7990   40.0160 H   0  0  0  0  0  0  0  0  0  0  0  0
   37.4590   32.8380   39.8640 C   0  0  0  0  0  0  0  0  0  0  0  0
   37.1770   32.4480   38.7300 O   0  0  0  0  0  0  0  0  0  0  0  0
   38.2510   32.1250   40.7850 N   0  0  0  0  0  0  0  0  0  0  0  0
   38.3450   32.6770   41.6900 H   0  0  0  0  0  0  0  0  0  0  0  0
   36.7380   24.2490   39.0440 C   0  0  0  0  0  0  0  0  0  0  0  0
   37.5420   23.1190   39.3890 C   0  0  0  0  0  0  0  0  0  0  0  0
   38.3120   23.2140   40.5650 C   0  0  0  0  0  0  0  0  0  0  0  0
   38.2510   24.3590   41.3020 N   0  0  0  0  0  0  0  0  0  0  0  0
   37.4960   25.3870   40.9510 C   0  0  0  0  0  0  0  0  0  0  0  0
   36.7390   25.3330   39.8250 N   0  0  0  0  0  0  0  0  0  0  0  0
   36.1440   24.1920   38.1480 H   0  0  0  0  0  0  0  0  0  0  0  0
   37.5700   22.2310   38.7910 H   0  0  0  0  0  0  0  0  0  0  0  0
   38.9430   22.3800   40.8740 H   0  0  0  0  0  0  0  0  0  0  0  0
  1  2  1  0  0  0  0
  2  3  2  0  0  0  0
  2  7  1  0  0  0  0
  3  4  1  0  0  0  0
  4  8  1  0  0  0  0
  4  5  2  0  0  0  0
  5  9  1  0  0  0  0
  6  5  1  0  0  0  0
  6 10  1  0  0  0  0
  7  6  2  0  0  0  0
 11  7  1  0  0  0  0
 11 12  1  0  0  0  0
 12 16  1  0  0  0  0
 12 17  1  0  0  0  0
 13 18  1  0  0  0  0
 13 19  1  0  0  0  0
 13 12  1  0  0  0  0
 14 15  1  0  0  0  0
 14 13  1  0  0  0  0
 15 22  1  6  0  0  0
 15 26  1  0  0  0  0
 15 11  1  0  0  0  0
 20 14  1  0  0  0  0
 21 14  1  0  0  0  0
 24 23  1  0  0  0  0
 24 26  1  0  0  0  0
 25 24  2  0  0  0  0
 26 27  1  0  0  0  0
 28 29  2  0  0  0  0
 28 33  1  0  0  0  0
 29 30  1  0  0  0  0
 30 36  1  0  0  0  0
 30 31  2  0  0  0  0
 32 31  1  0  0  0  0
 32  3  1  0  0  0  0
 33 32  2  0  0  0  0
 34 28  1  0  0  0  0
 35 29  1  0  0  0  0
M  END
>  <minimizedAffinity>
-4.94621229

$$$$
