
 OpenBabel03252503293D

 33 34  0  0  1  0  0  0  0  0999 V2000
   45.3500   34.6830   42.3530 C   0  0  0  0  0  0  0  0  0  0  0  0
   46.4720   35.2180   41.6490 C   0  0  0  0  0  0  0  0  0  0  0  0
   47.7350   34.9300   42.1990 C   0  0  0  0  0  0  0  0  0  0  0  0
   47.7850   34.1870   43.3220 N   0  0  0  0  0  0  0  0  0  0  0  0
   46.6860   33.7040   43.9500 C   0  0  0  0  0  0  0  0  0  0  0  0
   45.4600   33.9610   43.4510 N   0  0  0  0  0  0  0  0  0  0  0  0
   43.7460   34.1260   40.7270 C   0  0  0  0  0  0  0  0  0  0  0  0
   44.6470   33.3550   40.2780 O   0  0  0  0  0  0  0  0  0  0  0  0
   44.0270   34.9260   41.8660 N   0  0  0  0  0  0  0  0  0  0  0  0
   42.5070   34.1150   40.0250 N   0  0  0  0  0  0  0  0  0  0  0  0
   42.3800   33.5290   38.7070 C   0  0  0  0  0  0  0  0  0  0  0  0
   41.3340   34.4110   38.0720 C   0  0  0  0  0  0  0  0  0  0  0  0
   40.7840   35.3200   39.1540 C   0  0  0  0  0  0  0  0  0  0  0  0
   41.2010   34.6380   40.4230 C   0  0  1  0  0  0  0  0  0  0  0  0
   46.3300   35.8010   40.7600 H   0  0  0  0  0  0  0  0  0  0  0  0
   46.8910   33.1280   44.8350 H   0  0  0  0  0  0  0  0  0  0  0  0
   43.2740   35.5640   42.2020 H   0  0  0  0  0  0  0  0  0  0  0  0
   43.3320   33.5070   38.1500 H   0  0  0  0  0  0  0  0  0  0  0  0
   41.9180   32.5180   38.8460 H   0  0  0  0  0  0  0  0  0  0  0  0
   40.5530   33.8610   37.5440 H   0  0  0  0  0  0  0  0  0  0  0  0
   41.9020   35.0610   37.3450 H   0  0  0  0  0  0  0  0  0  0  0  0
   39.6880   35.3590   39.0020 H   0  0  0  0  0  0  0  0  0  0  0  0
   41.1930   36.3390   39.0930 H   0  0  0  0  0  0  0  0  0  0  0  0
   41.2970   35.3690   41.2510 H   0  0  0  0  0  0  0  0  0  0  0  0
   38.5960   32.5230   41.1630 H   0  0  0  0  0  0  0  0  0  0  0  0
   38.8920   33.4530   40.7140 C   0  0  0  0  0  0  0  0  0  0  0  0
   38.5090   34.5080   40.1020 O   0  0  0  0  0  0  0  0  0  0  0  0
   40.3210   33.5860   40.8510 N   0  0  0  0  0  0  0  0  0  0  0  0
   40.9890   32.8970   41.3110 H   0  0  0  0  0  0  0  0  0  0  0  0
   48.8640   35.4880   41.4620 C   0  0  0  0  0  0  0  0  0  0  0  0
   50.0020   34.7350   41.7630 F   0  0  0  0  0  0  0  0  0  0  0  0
   49.1120   36.7560   41.9960 F   0  0  0  0  0  0  0  0  0  0  0  0
   48.6980   35.4810   40.1100 F   0  0  0  0  0  0  0  0  0  0  0  0
  1  6  1  0  0  0  0
  2  3  1  0  0  0  0
  2  1  2  0  0  0  0
  3  4  2  0  0  0  0
  4  5  1  0  0  0  0
  5 16  1  0  0  0  0
  6  5  2  0  0  0  0
  7  9  1  0  0  0  0
  8  7  2  0  0  0  0
  9 17  1  0  0  0  0
  9  1  1  0  0  0  0
 10 14  1  0  0  0  0
 10  7  1  0  0  0  0
 11 19  1  0  0  0  0
 11 10  1  0  0  0  0
 12 11  1  0  0  0  0
 12 13  1  0  0  0  0
 13 14  1  0  0  0  0
 14 28  1  0  0  0  0
 14 24  1  1  0  0  0
 15  2  1  0  0  0  0
 18 11  1  0  0  0  0
 20 12  1  0  0  0  0
 21 12  1  0  0  0  0
 22 13  1  0  0  0  0
 23 13  1  0  0  0  0
 26 28  1  0  0  0  0
 26 25  1  0  0  0  0
 27 26  2  0  0  0  0
 28 29  1  0  0  0  0
 30 31  1  0  0  0  0
 30 32  1  0  0  0  0
 30  3  1  0  0  0  0
 33 30  1  0  0  0  0
M  END
>  <minimizedAffinity>
-6.10256052

>  <minimizedRMSD>
1.20372689

$$$$
