
 OpenBabel03252509223D

 23 24  0  0  1  0  0  0  0  0999 V2000
   46.5620   35.0740   41.9140 C   0  0  1  0  0  0  0  0  0  0  0  0
   48.0980   35.2120   41.8880 C   0  0  0  0  0  0  0  0  0  0  0  0
   47.2730   34.0350   41.2680 C   0  0  2  0  0  0  0  0  0  0  0  0
   46.0460   35.9050   41.3980 H   0  0  0  0  0  0  0  0  0  0  0  0
   48.5230   35.9170   41.1760 H   0  0  0  0  0  0  0  0  0  0  0  0
   48.6870   35.0170   42.7740 H   0  0  0  0  0  0  0  0  0  0  0  0
   47.4860   33.0670   41.8100 H   0  0  0  0  0  0  0  0  0  0  0  0
   44.6590   35.3720   45.1490 C   0  0  0  0  0  0  0  0  0  0  0  0
   45.1200   35.6960   43.8460 C   0  0  0  0  0  0  0  0  0  0  0  0
   46.0800   34.8630   43.3280 C   0  0  0  0  0  0  0  0  0  0  0  0
   46.5540   33.7850   44.0540 N   0  0  0  0  0  0  0  0  0  0  0  0
   46.0840   33.5190   45.2880 C   0  0  0  0  0  0  0  0  0  0  0  0
   45.1310   34.3210   45.8350 N   0  0  0  0  0  0  0  0  0  0  0  0
   43.9020   36.0330   45.5500 H   0  0  0  0  0  0  0  0  0  0  0  0
   46.4450   32.6810   45.8670 H   0  0  0  0  0  0  0  0  0  0  0  0
   44.6610   36.8280   43.1110 N   0  0  0  0  0  0  0  0  0  0  0  0
   45.0470   37.6150   43.6910 H   0  0  0  0  0  0  0  0  0  0  0  0
   44.1000   36.8310   42.2460 H   0  0  0  0  0  0  0  0  0  0  0  0
   46.7120   33.1920   37.9790 H   0  0  0  0  0  0  0  0  0  0  0  0
   46.4470   33.2130   39.0250 C   0  0  0  0  0  0  0  0  0  0  0  0
   45.4050   32.7130   39.5240 O   0  0  0  0  0  0  0  0  0  0  0  0
   47.4250   33.8890   39.8390 N   0  0  0  0  0  0  0  0  0  0  0  0
   48.3030   34.3110   39.4280 H   0  0  0  0  0  0  0  0  0  0  0  0
  1  4  1  6  0  0  0
  1 10  1  0  0  0  0
  2  1  1  0  0  0  0
  2  6  1  0  0  0  0
  3  7  1  1  0  0  0
  3  2  1  0  0  0  0
  3  1  1  0  0  0  0
  5  2  1  0  0  0  0
  8 14  1  0  0  0  0
  8 13  1  0  0  0  0
  9  8  2  0  0  0  0
 10  9  1  0  0  0  0
 10 11  2  0  0  0  0
 11 12  1  0  0  0  0
 12 13  2  0  0  0  0
 12 15  1  0  0  0  0
 16 17  1  0  0  0  0
 16  9  1  0  0  0  0
 18 16  1  0  0  0  0
 19 20  1  0  0  0  0
 20 21  2  0  0  0  0
 20 22  1  0  0  0  0
 22  3  1  0  0  0  0
 23 22  1  0  0  0  0
M  END
>  <minimizedAffinity>
-4.20978689

>  <minimizedRMSD>
0.228674576

$$$$
