
 OpenBabel03252504063D

 15 15  0  0  0  0  0  0  0  0999 V2000
   45.0510   35.9350   43.7500 C   0  0  0  0  0  0  0  0  0  0  0  0
   45.9210   34.9300   43.2940 C   0  0  0  0  0  0  0  0  0  0  0  0
   46.2030   33.8620   44.1570 C   0  0  0  0  0  0  0  0  0  0  0  0
   45.6140   33.8670   45.3860 N   0  0  0  0  0  0  0  0  0  0  0  0
   44.7890   34.8450   45.7830 C   0  0  0  0  0  0  0  0  0  0  0  0
   44.5000   35.8860   44.9710 N   0  0  0  0  0  0  0  0  0  0  0  0
   46.8610   33.0900   43.8300 H   0  0  0  0  0  0  0  0  0  0  0  0
   44.3730   34.7540   46.7790 H   0  0  0  0  0  0  0  0  0  0  0  0
   48.0920   34.9870   40.5460 H   0  0  0  0  0  0  0  0  0  0  0  0
   47.8930   35.0200   41.6080 C   0  0  0  0  0  0  0  0  0  0  0  0
   48.8640   35.1390   42.4120 O   0  0  0  0  0  0  0  0  0  0  0  0
   46.5350   34.9230   42.0180 N   0  0  0  0  0  0  0  0  0  0  0  0
   45.7500   34.8240   41.3230 H   0  0  0  0  0  0  0  0  0  0  0  0
   44.7880   36.9690   42.8950 O   0  0  0  0  0  0  0  0  0  0  0  0
   45.1630   37.0460   41.9810 H   0  0  0  0  0  0  0  0  0  0  0  0
  1  6  1  0  0  0  0
  2  1  2  0  0  0  0
  2  3  1  0  0  0  0
  3  4  2  0  0  0  0
  4  5  1  0  0  0  0
  5  8  1  0  0  0  0
  6  5  2  0  0  0  0
  7  3  1  0  0  0  0
  9 10  1  0  0  0  0
 10 12  1  0  0  0  0
 10 11  2  0  0  0  0
 12  2  1  0  0  0  0
 13 12  1  0  0  0  0
 14  1  1  0  0  0  0
 15 14  1  0  0  0  0
M  END
>  <minimizedAffinity>
-3.68292117

>  <minimizedRMSD>
0.871263027

$$$$
