
 OpenBabel03242521353D

 40 44  0  0  0  0  0  0  0  0999 V2000
   44.7260   35.5470   44.4260 C   0  0  0  0  0  0  0  0  0  0  0  0
   45.2740   35.5680   43.1310 C   0  0  0  0  0  0  0  0  0  0  0  0
   46.2130   34.6390   42.7620 C   0  0  0  0  0  0  0  0  0  0  0  0
   46.5960   33.7070   43.6810 N   0  0  0  0  0  0  0  0  0  0  0  0
   46.0680   33.6900   44.9280 C   0  0  0  0  0  0  0  0  0  0  0  0
   45.1390   34.6140   45.2780 N   0  0  0  0  0  0  0  0  0  0  0  0
   43.9800   36.2840   44.7170 H   0  0  0  0  0  0  0  0  0  0  0  0
   44.9770   36.2970   42.4040 H   0  0  0  0  0  0  0  0  0  0  0  0
   48.0750   35.1870   41.2990 C   0  0  0  0  0  0  0  0  0  0  0  0
   46.8410   34.5690   41.4550 C   0  0  0  0  0  0  0  0  0  0  0  0
   46.2980   33.9330   40.3680 C   0  0  0  0  0  0  0  0  0  0  0  0
   46.9170   33.8800   39.1300 C   0  0  0  0  0  0  0  0  0  0  0  0
   46.5690   33.3240   37.9590 N   0  0  0  0  0  0  0  0  0  0  0  0
   47.5680   33.5790   37.0540 C   0  0  0  0  0  0  0  0  0  0  0  0
   48.5250   34.3030   37.7060 N   0  0  0  0  0  0  0  0  0  0  0  0
   48.1480   34.4960   38.9740 C   0  0  0  0  0  0  0  0  0  0  0  0
   48.7140   35.1420   40.0550 C   0  0  0  0  0  0  0  0  0  0  0  0
   48.5380   35.6990   42.1320 H   0  0  0  0  0  0  0  0  0  0  0  0
   45.3360   33.4460   40.4730 H   0  0  0  0  0  0  0  0  0  0  0  0
   45.7050   32.7850   37.7300 H   0  0  0  0  0  0  0  0  0  0  0  0
   47.6650   33.3100   36.0240 H   0  0  0  0  0  0  0  0  0  0  0  0
   49.6750   35.6370   39.9750 H   0  0  0  0  0  0  0  0  0  0  0  0
   46.1320   32.8080   47.2200 C   0  0  0  0  0  0  0  0  0  0  0  0
   46.4820   32.6950   45.9030 C   0  0  0  0  0  0  0  0  0  0  0  0
   47.2520   31.6190   45.4750 C   0  0  0  0  0  0  0  0  0  0  0  0
   47.6590   30.6690   46.3860 C   0  0  0  0  0  0  0  0  0  0  0  0
   48.4030   29.5810   46.1280 N   0  0  0  0  0  0  0  0  0  0  0  0
   48.5320   28.9710   47.3520 C   0  0  0  0  0  0  0  0  0  0  0  0
   47.8790   29.6810   48.3000 N   0  0  0  0  0  0  0  0  0  0  0  0
   47.3160   30.7600   47.7280 C   0  0  0  0  0  0  0  0  0  0  0  0
   46.5530   31.8430   48.1040 C   0  0  0  0  0  0  0  0  0  0  0  0
   45.5350   33.6240   47.6020 H   0  0  0  0  0  0  0  0  0  0  0  0
   47.5050   31.5680   44.4330 H   0  0  0  0  0  0  0  0  0  0  0  0
   48.8220   29.2080   45.2720 H   0  0  0  0  0  0  0  0  0  0  0  0
   49.0840   28.0470   47.5140 H   0  0  0  0  0  0  0  0  0  0  0  0
   44.5370   31.1430   50.7380 H   0  0  0  0  0  0  0  0  0  0  0  0
   44.9700   31.2240   49.7340 C   0  0  0  0  0  0  0  0  0  0  0  0
   44.5030   30.7860   48.6280 O   0  0  0  0  0  0  0  0  0  0  0  0
   46.2290   31.8870   49.5000 N   0  0  0  0  0  0  0  0  0  0  0  0
   46.7560   32.3110   50.3160 H   0  0  0  0  0  0  0  0  0  0  0  0
  1  7  1  0  0  0  0
  1  6  1  0  0  0  0
  2  1  2  0  0  0  0
  3  2  1  0  0  0  0
  3  4  2  0  0  0  0
  4  5  1  0  0  0  0
  5  6  2  0  0  0  0
  5 24  1  0  0  0  0
  8  2  1  0  0  0  0
  9 10  1  0  0  0  0
  9 18  1  0  0  0  0
 10  3  1  0  0  0  0
 11 19  1  0  0  0  0
 11 10  2  0  0  0  0
 12 11  1  0  0  0  0
 13 12  1  0  0  0  0
 14 15  2  0  0  0  0
 14 13  1  0  0  0  0
 15 16  1  0  0  0  0
 16 12  2  0  0  0  0
 16 17  1  0  0  0  0
 17  9  2  0  0  0  0
 20 13  1  0  0  0  0
 21 14  1  0  0  0  0
 22 17  1  0  0  0  0
 23 32  1  0  0  0  0
 23 31  1  0  0  0  0
 24 23  2  0  0  0  0
 25 24  1  0  0  0  0
 25 26  2  0  0  0  0
 26 30  1  0  0  0  0
 27 26  1  0  0  0  0
 27 28  1  0  0  0  0
 28 35  1  0  0  0  0
 28 29  2  0  0  0  0
 30 31  2  0  0  0  0
 30 29  1  0  0  0  0
 31 39  1  0  0  0  0
 33 25  1  0  0  0  0
 34 27  1  0  0  0  0
 37 36  1  0  0  0  0
 38 37  2  0  0  0  0
 39 37  1  0  0  0  0
 39 40  1  0  0  0  0
M  END
>  <minimizedAffinity>
-7.0207696

>  <minimizedRMSD>
0.925187588

$$$$
