
 OpenBabel03252508413D

 24 25  0  0  0  0  0  0  0  0999 V2000
   46.4940   34.3800   41.4640 C   0  0  0  0  0  0  0  0  0  0  0  0
   47.7460   34.8710   41.2130 C   0  0  0  0  0  0  0  0  0  0  0  0
   48.3500   34.6380   39.9930 C   0  0  0  0  0  0  0  0  0  0  0  0
   47.6710   33.9100   39.0450 C   0  0  0  0  0  0  0  0  0  0  0  0
   46.4130   33.3960   39.2470 C   0  0  0  0  0  0  0  0  0  0  0  0
   45.8410   33.6580   40.5000 C   0  0  0  0  0  0  0  0  0  0  0  0
   49.3410   34.9980   39.7290 H   0  0  0  0  0  0  0  0  0  0  0  0
   48.1170   33.7150   38.0910 H   0  0  0  0  0  0  0  0  0  0  0  0
   45.8220   32.8200   38.5590 H   0  0  0  0  0  0  0  0  0  0  0  0
   44.8510   33.2950   40.7590 H   0  0  0  0  0  0  0  0  0  0  0  0
   44.5480   35.9140   44.3210 C   0  0  0  0  0  0  0  0  0  0  0  0
   45.0480   35.7340   43.0010 C   0  0  0  0  0  0  0  0  0  0  0  0
   45.9200   34.6630   42.7670 C   0  0  0  0  0  0  0  0  0  0  0  0
   46.2230   33.8770   43.8150 N   0  0  0  0  0  0  0  0  0  0  0  0
   45.7480   34.0490   45.0650 C   0  0  0  0  0  0  0  0  0  0  0  0
   44.8990   35.0820   45.3170 N   0  0  0  0  0  0  0  0  0  0  0  0
   43.8740   36.7360   44.5210 H   0  0  0  0  0  0  0  0  0  0  0  0
   44.7860   36.3780   42.1990 H   0  0  0  0  0  0  0  0  0  0  0  0
   46.1140   33.3060   45.7700 H   0  0  0  0  0  0  0  0  0  0  0  0
   50.4610   35.2430   43.3040 H   0  0  0  0  0  0  0  0  0  0  0  0
   49.6730   34.9390   42.6100 C   0  0  0  0  0  0  0  0  0  0  0  0
   50.2670   33.8190   42.5310 O   0  0  0  0  0  0  0  0  0  0  0  0
   48.5400   35.6360   42.1170 N   0  0  0  0  0  0  0  0  0  0  0  0
   48.4710   36.5920   42.4950 H   0  0  0  0  0  0  0  0  0  0  0  0
  1 13  1  0  0  0  0
  2  1  1  0  0  0  0
  2 23  1  0  0  0  0
  3  2  2  0  0  0  0
  4  5  2  0  0  0  0
  4  3  1  0  0  0  0
  5  6  1  0  0  0  0
  6 10  1  0  0  0  0
  6  1  2  0  0  0  0
  7  3  1  0  0  0  0
  8  4  1  0  0  0  0
  9  5  1  0  0  0  0
 11 17  1  0  0  0  0
 11 16  1  0  0  0  0
 12 11  2  0  0  0  0
 13 12  1  0  0  0  0
 13 14  2  0  0  0  0
 14 15  1  0  0  0  0
 15 16  2  0  0  0  0
 15 19  1  0  0  0  0
 18 12  1  0  0  0  0
 21 20  1  0  0  0  0
 22 21  2  0  0  0  0
 23 24  1  0  0  0  0
 23 21  1  0  0  0  0
M  END
>  <minimizedAffinity>
-4.89646435

>  <minimizedRMSD>
0.799105167

$$$$
