
 OpenBabel03252507563D

 23 24  0  0  1  0  0  0  0  0999 V2000
   45.7740   32.6360   45.9020 C   0  0  1  0  0  0  0  0  0  0  0  0
   46.8450   32.6060   46.9460 C   0  0  0  0  0  0  0  0  0  0  0  0
   45.4520   32.9730   47.3260 C   0  0  2  0  0  0  0  0  0  0  0  0
   45.4760   31.6550   45.5260 H   0  0  0  0  0  0  0  0  0  0  0  0
   47.6010   33.3920   46.8040 H   0  0  0  0  0  0  0  0  0  0  0  0
   47.2680   31.6420   47.2330 H   0  0  0  0  0  0  0  0  0  0  0  0
   45.3470   34.0610   47.6110 H   0  0  0  0  0  0  0  0  0  0  0  0
   46.3000   34.8990   43.0590 C   0  0  0  0  0  0  0  0  0  0  0  0
   45.4340   35.9900   43.3320 C   0  0  0  0  0  0  0  0  0  0  0  0
   44.6730   35.9120   44.5110 C   0  0  0  0  0  0  0  0  0  0  0  0
   44.8120   34.8110   45.3020 N   0  0  0  0  0  0  0  0  0  0  0  0
   45.6670   33.8010   44.9690 C   0  0  0  0  0  0  0  0  0  0  0  0
   46.4020   33.8370   43.8690 N   0  0  0  0  0  0  0  0  0  0  0  0
   45.3580   36.8450   42.6730 H   0  0  0  0  0  0  0  0  0  0  0  0
   43.9950   36.7140   44.7730 H   0  0  0  0  0  0  0  0  0  0  0  0
   47.0570   35.0460   41.8490 C   0  0  0  0  0  0  0  0  0  0  0  0
   48.2220   35.5410   41.7720 O   0  0  0  0  0  0  0  0  0  0  0  0
   46.5840   34.7030   40.9310 H   0  0  0  0  0  0  0  0  0  0  0  0
   44.7030   30.6750   49.8820 H   0  0  0  0  0  0  0  0  0  0  0  0
   45.2070   31.3580   49.2240 C   0  0  0  0  0  0  0  0  0  0  0  0
   46.4400   31.5360   49.4540 O   0  0  0  0  0  0  0  0  0  0  0  0
   44.6530   32.0850   48.1280 N   0  0  0  0  0  0  0  0  0  0  0  0
   43.6430   31.9360   47.9440 H   0  0  0  0  0  0  0  0  0  0  0  0
  1  4  1  6  0  0  0
  1  2  1  0  0  0  0
  1  3  1  0  0  0  0
  2  6  1  0  0  0  0
  2  3  1  0  0  0  0
  3  7  1  1  0  0  0
  3 22  1  0  0  0  0
  5  2  1  0  0  0  0
  8  9  2  0  0  0  0
  8 13  1  0  0  0  0
  9 10  1  0  0  0  0
 10 15  1  0  0  0  0
 10 11  2  0  0  0  0
 12 11  1  0  0  0  0
 12  1  1  0  0  0  0
 13 12  2  0  0  0  0
 14  9  1  0  0  0  0
 16  8  1  0  0  0  0
 17 16  2  0  0  0  0
 18 16  1  0  0  0  0
 20 21  2  0  0  0  0
 20 19  1  0  0  0  0
 22 20  1  0  0  0  0
 23 22  1  0  0  0  0
M  END
>  <minimizedAffinity>
-4.7390337

>  <minimizedRMSD>
0.975462735

$$$$
