
 OpenBabel03242523433D

 27 28  0  0  1  0  0  0  0  0999 V2000
   45.4300   35.0180   42.7720 C   0  0  2  0  0  0  0  0  0  0  0  0
   45.4000   36.0980   42.9330 H   0  0  0  0  0  0  0  0  0  0  0  0
   47.6530   35.3660   41.8100 C   0  0  0  0  0  0  0  0  0  0  0  0
   46.3970   34.7310   41.7020 C   0  0  0  0  0  0  0  0  0  0  0  0
   46.1300   33.8930   40.6070 C   0  0  0  0  0  0  0  0  0  0  0  0
   47.1250   33.7560   39.7180 N   0  0  0  0  0  0  0  0  0  0  0  0
   48.3180   34.3640   39.8290 C   0  0  0  0  0  0  0  0  0  0  0  0
   48.5920   35.1690   40.8700 N   0  0  0  0  0  0  0  0  0  0  0  0
   47.8970   36.0180   42.6390 H   0  0  0  0  0  0  0  0  0  0  0  0
   45.1760   33.4060   40.5210 H   0  0  0  0  0  0  0  0  0  0  0  0
   49.0500   34.1790   39.0450 H   0  0  0  0  0  0  0  0  0  0  0  0
   45.8580   34.2860   44.0060 C   0  0  0  0  0  0  0  0  0  0  0  0
   46.9480   33.4810   44.2070 C   0  0  0  0  0  0  0  0  0  0  0  0
   46.9600   33.0260   45.4790 N   0  0  0  0  0  0  0  0  0  0  0  0
   45.8550   33.5590   46.0790 C   0  0  0  0  0  0  0  0  0  0  0  0
   45.1950   34.3190   45.1810 N   0  0  0  0  0  0  0  0  0  0  0  0
   47.6330   33.3070   43.3890 H   0  0  0  0  0  0  0  0  0  0  0  0
   47.7470   32.3980   45.7550 H   0  0  0  0  0  0  0  0  0  0  0  0
   45.6700   33.3170   47.1190 H   0  0  0  0  0  0  0  0  0  0  0  0
   44.0850   34.5250   42.3490 C   0  0  0  0  0  0  0  0  0  0  0  0
   44.0210   34.3160   41.2620 H   0  0  0  0  0  0  0  0  0  0  0  0
   43.8420   33.5360   42.8330 H   0  0  0  0  0  0  0  0  0  0  0  0
   41.0900   36.0120   41.6830 H   0  0  0  0  0  0  0  0  0  0  0  0
   42.0070   35.4480   41.7220 C   0  0  0  0  0  0  0  0  0  0  0  0
   42.0860   34.7310   40.7090 O   0  0  0  0  0  0  0  0  0  0  0  0
   43.0210   35.4490   42.7160 N   0  0  0  0  0  0  0  0  0  0  0  0
   42.8150   36.1020   43.5050 H   0  0  0  0  0  0  0  0  0  0  0  0
  1  2  1  1  0  0  0
  1 12  1  0  0  0  0
  3  9  1  0  0  0  0
  4  3  1  0  0  0  0
  4  1  1  0  0  0  0
  5  4  2  0  0  0  0
  6  7  2  0  0  0  0
  6  5  1  0  0  0  0
  7  8  1  0  0  0  0
  8  3  2  0  0  0  0
 10  5  1  0  0  0  0
 11  7  1  0  0  0  0
 12 13  2  0  0  0  0
 12 16  1  0  0  0  0
 13 14  1  0  0  0  0
 14 18  1  0  0  0  0
 14 15  1  0  0  0  0
 15 19  1  0  0  0  0
 16 15  2  0  0  0  0
 17 13  1  0  0  0  0
 20 26  1  0  0  0  0
 20  1  1  0  0  0  0
 20 22  1  0  0  0  0
 21 20  1  0  0  0  0
 23 24  1  0  0  0  0
 24 26  1  0  0  0  0
 25 24  2  0  0  0  0
 26 27  1  0  0  0  0
M  END
>  <minimizedAffinity>
-4.57457495

>  <minimizedRMSD>
5.75959015

$$$$
