
 OpenBabel03252508583D

 35 36  0  0  1  0  0  0  0  0999 V2000
   37.8090   29.9380   42.2890 N   0  0  0  0  0  0  0  0  0  0  0  0
   39.1300   30.4220   42.5190 C   0  0  0  0  0  0  0  0  0  0  0  0
   39.8810   30.9000   41.3060 C   0  0  0  0  0  0  0  0  0  0  0  0
   39.0180   31.5130   40.2410 C   0  0  0  0  0  0  0  0  0  0  0  0
   37.5700   31.5660   40.6300 C   0  0  0  0  0  0  0  0  0  0  0  0
   37.2300   30.0990   41.0250 C   0  0  2  0  0  0  0  0  0  0  0  0
   39.7690   29.6560   43.0120 H   0  0  0  0  0  0  0  0  0  0  0  0
   39.0730   31.2780   43.2270 H   0  0  0  0  0  0  0  0  0  0  0  0
   40.3330   29.9780   40.8350 H   0  0  0  0  0  0  0  0  0  0  0  0
   40.7170   31.5230   41.6280 H   0  0  0  0  0  0  0  0  0  0  0  0
   39.0690   30.9900   39.2640 H   0  0  0  0  0  0  0  0  0  0  0  0
   39.3540   32.5620   40.1060 H   0  0  0  0  0  0  0  0  0  0  0  0
   36.9610   31.8300   39.7620 H   0  0  0  0  0  0  0  0  0  0  0  0
   37.4320   32.2250   41.5100 H   0  0  0  0  0  0  0  0  0  0  0  0
   37.6280   29.5370   40.1760 H   0  0  0  0  0  0  0  0  0  0  0  0
   33.8790   29.1630   40.4440 H   0  0  0  0  0  0  0  0  0  0  0  0
   34.9370   29.1500   40.3550 C   0  0  0  0  0  0  0  0  0  0  0  0
   35.5300   28.3330   39.5890 O   0  0  0  0  0  0  0  0  0  0  0  0
   35.7660   30.0630   41.1010 N   0  0  0  0  0  0  0  0  0  0  0  0
   35.3250   30.7450   41.7360 H   0  0  0  0  0  0  0  0  0  0  0  0
   37.4860   28.7660   43.0480 C   0  0  0  0  0  0  0  0  0  0  0  0
   36.7480   28.1520   42.4810 H   0  0  0  0  0  0  0  0  0  0  0  0
   36.9960   29.0050   44.0240 H   0  0  0  0  0  0  0  0  0  0  0  0
   38.7170   27.9480   43.2850 C   0  0  0  0  0  0  0  0  0  0  0  0
   39.0530   27.8780   44.3280 H   0  0  0  0  0  0  0  0  0  0  0  0
   39.5570   28.3580   42.6860 H   0  0  0  0  0  0  0  0  0  0  0  0
   36.9760   24.9170   41.9010 C   0  0  0  0  0  0  0  0  0  0  0  0
   37.2200   26.2340   42.3350 C   0  0  0  0  0  0  0  0  0  0  0  0
   38.4660   26.5570   42.8270 C   0  0  0  0  0  0  0  0  0  0  0  0
   39.3890   25.5820   42.8640 N   0  0  0  0  0  0  0  0  0  0  0  0
   39.1460   24.3300   42.4470 C   0  0  0  0  0  0  0  0  0  0  0  0
   37.9480   23.9790   41.9640 N   0  0  0  0  0  0  0  0  0  0  0  0
   36.0030   24.6600   41.5170 H   0  0  0  0  0  0  0  0  0  0  0  0
   36.4010   26.9560   42.2650 H   0  0  0  0  0  0  0  0  0  0  0  0
   39.8970   23.5660   42.4850 H   0  0  0  0  0  0  0  0  0  0  0  0
  1  2  1  0  0  0  0
  1 21  1  0  0  0  0
  2  7  1  0  0  0  0
  2  8  1  0  0  0  0
  3 10  1  0  0  0  0
  3  2  1  0  0  0  0
  4  5  1  0  0  0  0
  4  3  1  0  0  0  0
  5  6  1  0  0  0  0
  5 14  1  0  0  0  0
  6 15  1  6  0  0  0
  6 19  1  0  0  0  0
  6  1  1  0  0  0  0
  9  3  1  0  0  0  0
 11  4  1  0  0  0  0
 12  4  1  0  0  0  0
 13  5  1  0  0  0  0
 17 16  1  0  0  0  0
 17 19  1  0  0  0  0
 18 17  2  0  0  0  0
 19 20  1  0  0  0  0
 21 24  1  0  0  0  0
 21 23  1  0  0  0  0
 22 21  1  0  0  0  0
 24 25  1  0  0  0  0
 26 24  1  0  0  0  0
 27 32  2  0  0  0  0
 27 28  1  0  0  0  0
 28 29  2  0  0  0  0
 29 30  1  0  0  0  0
 29 24  1  0  0  0  0
 31 35  1  0  0  0  0
 31 30  2  0  0  0  0
 32 31  1  0  0  0  0
 33 27  1  0  0  0  0
 34 28  1  0  0  0  0
M  END
>  <minimizedAffinity>
-4.55936146

$$$$

 OpenBabel03252508583D

 35 36  0  0  1  0  0  0  0  0999 V2000
   37.9620   28.0330   43.0100 N   0  0  0  0  0  0  0  0  0  0  0  0
   39.1740   27.4510   43.4850 C   0  0  0  0  0  0  0  0  0  0  0  0
   40.4450   27.9730   42.8710 C   0  0  0  0  0  0  0  0  0  0  0  0
   40.3960   29.4220   42.4760 C   0  0  0  0  0  0  0  0  0  0  0  0
   39.0880   30.0710   42.8230 C   0  0  0  0  0  0  0  0  0  0  0  0
   38.0210   29.1480   42.1660 C   0  0  2  0  0  0  0  0  0  0  0  0
   39.1820   26.3460   43.3480 H   0  0  0  0  0  0  0  0  0  0  0  0
   39.2430   27.6270   44.5800 H   0  0  0  0  0  0  0  0  0  0  0  0
   40.5840   27.4030   41.9060 H   0  0  0  0  0  0  0  0  0  0  0  0
   41.2860   27.7050   43.5110 H   0  0  0  0  0  0  0  0  0  0  0  0
   40.5670   29.6010   41.3950 H   0  0  0  0  0  0  0  0  0  0  0  0
   41.1820   29.9500   43.0570 H   0  0  0  0  0  0  0  0  0  0  0  0
   39.0220   31.0520   42.3470 H   0  0  0  0  0  0  0  0  0  0  0  0
   38.9420   30.0790   43.9210 H   0  0  0  0  0  0  0  0  0  0  0  0
   38.4120   29.0350   41.1520 H   0  0  0  0  0  0  0  0  0  0  0  0
   35.3460   31.2370   41.2040 H   0  0  0  0  0  0  0  0  0  0  0  0
   36.2540   30.6920   41.1180 C   0  0  0  0  0  0  0  0  0  0  0  0
   36.9290   30.6890   40.0440 O   0  0  0  0  0  0  0  0  0  0  0  0
   36.7760   29.9220   42.2170 N   0  0  0  0  0  0  0  0  0  0  0  0
   36.2590   29.8960   43.1090 H   0  0  0  0  0  0  0  0  0  0  0  0
   36.9050   27.0830   42.8210 C   0  0  0  0  0  0  0  0  0  0  0  0
   36.2180   27.4520   42.0240 H   0  0  0  0  0  0  0  0  0  0  0  0
   36.2720   26.9560   43.7320 H   0  0  0  0  0  0  0  0  0  0  0  0
   37.4660   25.7600   42.4030 C   0  0  0  0  0  0  0  0  0  0  0  0
   37.2510   24.9150   43.0700 H   0  0  0  0  0  0  0  0  0  0  0  0
   38.5700   25.8390   42.3030 H   0  0  0  0  0  0  0  0  0  0  0  0
   36.0070   23.7490   39.5820 C   0  0  0  0  0  0  0  0  0  0  0  0
   36.5320   24.0960   40.8410 C   0  0  0  0  0  0  0  0  0  0  0  0
   36.9120   25.4000   41.0720 C   0  0  0  0  0  0  0  0  0  0  0  0
   36.7550   26.2790   40.0680 N   0  0  0  0  0  0  0  0  0  0  0  0
   36.2530   25.9370   38.8710 C   0  0  0  0  0  0  0  0  0  0  0  0
   35.8740   24.6800   38.6100 N   0  0  0  0  0  0  0  0  0  0  0  0
   35.7110   22.7310   39.3970 H   0  0  0  0  0  0  0  0  0  0  0  0
   36.6210   23.3080   41.5940 H   0  0  0  0  0  0  0  0  0  0  0  0
   36.1360   26.6530   38.0820 H   0  0  0  0  0  0  0  0  0  0  0  0
  1  2  1  0  0  0  0
  2  8  1  0  0  0  0
  3  2  1  0  0  0  0
  3 10  1  0  0  0  0
  4  5  1  0  0  0  0
  4  3  1  0  0  0  0
  4 12  1  0  0  0  0
  5 14  1  0  0  0  0
  6 15  1  6  0  0  0
  6 19  1  0  0  0  0
  6  5  1  0  0  0  0
  6  1  1  0  0  0  0
  7  2  1  0  0  0  0
  9  3  1  0  0  0  0
 11  4  1  0  0  0  0
 13  5  1  0  0  0  0
 17 16  1  0  0  0  0
 17 19  1  0  0  0  0
 18 17  2  0  0  0  0
 19 20  1  0  0  0  0
 21  1  1  0  0  0  0
 21 23  1  0  0  0  0
 22 21  1  0  0  0  0
 24 21  1  0  0  0  0
 24 25  1  0  0  0  0
 26 24  1  0  0  0  0
 27 28  1  0  0  0  0
 28 29  2  0  0  0  0
 28 34  1  0  0  0  0
 29 24  1  0  0  0  0
 30 29  1  0  0  0  0
 31 30  2  0  0  0  0
 32 31  1  0  0  0  0
 32 27  2  0  0  0  0
 33 27  1  0  0  0  0
 35 31  1  0  0  0  0
M  END
>  <minimizedAffinity>
-4.46804762

$$$$

 OpenBabel03252508583D

 35 36  0  0  1  0  0  0  0  0999 V2000
   37.0330   30.9270   40.5830 N   0  0  0  0  0  0  0  0  0  0  0  0
   36.5800   31.1650   39.2520 C   0  0  0  0  0  0  0  0  0  0  0  0
   36.2120   29.9480   38.4490 C   0  0  0  0  0  0  0  0  0  0  0  0
   35.6440   28.8160   39.2580 C   0  0  0  0  0  0  0  0  0  0  0  0
   35.5150   29.1560   40.7140 C   0  0  0  0  0  0  0  0  0  0  0  0
   36.9390   29.6370   41.1180 C   0  0  2  0  0  0  0  0  0  0  0  0
   37.3330   31.7280   38.6560 H   0  0  0  0  0  0  0  0  0  0  0  0
   35.6770   31.8120   39.2990 H   0  0  0  0  0  0  0  0  0  0  0  0
   37.1780   29.5530   38.0170 H   0  0  0  0  0  0  0  0  0  0  0  0
   35.5970   30.2530   37.6010 H   0  0  0  0  0  0  0  0  0  0  0  0
   36.2330   27.8790   39.1970 H   0  0  0  0  0  0  0  0  0  0  0  0
   34.6180   28.6220   38.8810 H   0  0  0  0  0  0  0  0  0  0  0  0
   35.2900   28.2540   41.2880 H   0  0  0  0  0  0  0  0  0  0  0  0
   34.7930   29.9850   40.8530 H   0  0  0  0  0  0  0  0  0  0  0  0
   37.5700   28.8400   40.7160 H   0  0  0  0  0  0  0  0  0  0  0  0
   37.6520   28.8580   44.4840 H   0  0  0  0  0  0  0  0  0  0  0  0
   37.7000   28.7970   43.4250 C   0  0  0  0  0  0  0  0  0  0  0  0
   38.4460   27.9540   42.8410 O   0  0  0  0  0  0  0  0  0  0  0  0
   36.9200   29.6680   42.5840 N   0  0  0  0  0  0  0  0  0  0  0  0
   36.3000   30.3690   43.0180 H   0  0  0  0  0  0  0  0  0  0  0  0
   38.1400   31.7520   40.9690 C   0  0  0  0  0  0  0  0  0  0  0  0
   39.0870   31.1770   40.8460 H   0  0  0  0  0  0  0  0  0  0  0  0
   38.1020   32.0470   42.0460 H   0  0  0  0  0  0  0  0  0  0  0  0
   38.1990   32.9750   40.1090 C   0  0  0  0  0  0  0  0  0  0  0  0
   37.8960   33.9140   40.5890 H   0  0  0  0  0  0  0  0  0  0  0  0
   37.5580   32.8320   39.2140 H   0  0  0  0  0  0  0  0  0  0  0  0
   41.3570   32.6470   38.0960 C   0  0  0  0  0  0  0  0  0  0  0  0
   40.0340   32.4680   38.5410 C   0  0  0  0  0  0  0  0  0  0  0  0
   39.5970   33.1690   39.6440 C   0  0  0  0  0  0  0  0  0  0  0  0
   40.4710   33.9970   40.2380 N   0  0  0  0  0  0  0  0  0  0  0  0
   41.7310   34.1610   39.8060 C   0  0  0  0  0  0  0  0  0  0  0  0
   42.1920   33.4960   38.7390 N   0  0  0  0  0  0  0  0  0  0  0  0
   41.7030   32.1000   37.2360 H   0  0  0  0  0  0  0  0  0  0  0  0
   39.3980   31.7700   37.9880 H   0  0  0  0  0  0  0  0  0  0  0  0
   42.4150   34.8260   40.2950 H   0  0  0  0  0  0  0  0  0  0  0  0
  1 21  1  0  0  0  0
  1  6  1  0  0  0  0
  2  8  1  0  0  0  0
  2  1  1  0  0  0  0
  3  2  1  0  0  0  0
  3  4  1  0  0  0  0
  4  5  1  0  0  0  0
  5 14  1  0  0  0  0
  5  6  1  0  0  0  0
  5 13  1  0  0  0  0
  6 15  1  6  0  0  0
  6 19  1  0  0  0  0
  7  2  1  0  0  0  0
  9  3  1  0  0  0  0
 10  3  1  0  0  0  0
 11  4  1  0  0  0  0
 12  4  1  0  0  0  0
 17 16  1  0  0  0  0
 18 17  2  0  0  0  0
 19 20  1  0  0  0  0
 19 17  1  0  0  0  0
 21 23  1  0  0  0  0
 22 21  1  0  0  0  0
 24 25  1  0  0  0  0
 24 21  1  0  0  0  0
 26 24  1  0  0  0  0
 27 28  2  0  0  0  0
 27 32  1  0  0  0  0
 28 29  1  0  0  0  0
 29 24  1  0  0  0  0
 29 30  2  0  0  0  0
 31 30  1  0  0  0  0
 31 35  1  0  0  0  0
 32 31  2  0  0  0  0
 33 27  1  0  0  0  0
 34 28  1  0  0  0  0
M  END
>  <minimizedAffinity>
-4.35858536

$$$$

 OpenBabel03252508583D

 35 36  0  0  1  0  0  0  0  0999 V2000
   36.0260   28.6450   40.2690 N   0  0  0  0  0  0  0  0  0  0  0  0
   35.7010   27.8090   39.1610 C   0  0  0  0  0  0  0  0  0  0  0  0
   36.6780   26.7050   38.8550 C   0  0  0  0  0  0  0  0  0  0  0  0
   37.3770   26.1410   40.0590 C   0  0  0  0  0  0  0  0  0  0  0  0
   36.9170   26.7700   41.3410 C   0  0  0  0  0  0  0  0  0  0  0  0
   37.0980   28.2970   41.0990 C   0  0  2  0  0  0  0  0  0  0  0  0
   35.5770   28.3970   38.2240 H   0  0  0  0  0  0  0  0  0  0  0  0
   34.7180   27.3300   39.3580 H   0  0  0  0  0  0  0  0  0  0  0  0
   37.4910   27.1720   38.2260 H   0  0  0  0  0  0  0  0  0  0  0  0
   36.1880   25.9620   38.2240 H   0  0  0  0  0  0  0  0  0  0  0  0
   38.4810   26.2430   40.0280 H   0  0  0  0  0  0  0  0  0  0  0  0
   37.1170   25.0630   40.1180 H   0  0  0  0  0  0  0  0  0  0  0  0
   37.5820   26.4790   42.1580 H   0  0  0  0  0  0  0  0  0  0  0  0
   35.8460   26.5500   41.5160 H   0  0  0  0  0  0  0  0  0  0  0  0
   38.1180   28.3470   40.7100 H   0  0  0  0  0  0  0  0  0  0  0  0
   37.9130   29.6050   44.2730 H   0  0  0  0  0  0  0  0  0  0  0  0
   38.0630   29.1630   43.3190 C   0  0  0  0  0  0  0  0  0  0  0  0
   39.2190   28.8390   42.9110 O   0  0  0  0  0  0  0  0  0  0  0  0
   36.9610   28.9040   42.4280 N   0  0  0  0  0  0  0  0  0  0  0  0
   36.0040   29.1520   42.7200 H   0  0  0  0  0  0  0  0  0  0  0  0
   35.7590   30.0340   40.0380 C   0  0  0  0  0  0  0  0  0  0  0  0
   35.8660   30.5940   40.9960 H   0  0  0  0  0  0  0  0  0  0  0  0
   34.7130   30.2200   39.6930 H   0  0  0  0  0  0  0  0  0  0  0  0
   36.7280   30.5890   39.0420 C   0  0  0  0  0  0  0  0  0  0  0  0
   36.2890   31.0160   38.1310 H   0  0  0  0  0  0  0  0  0  0  0  0
   37.4400   29.7940   38.7320 H   0  0  0  0  0  0  0  0  0  0  0  0
   37.9790   34.0180   39.9450 C   0  0  0  0  0  0  0  0  0  0  0  0
   37.2410   32.9830   39.3390 C   0  0  0  0  0  0  0  0  0  0  0  0
   37.5100   31.6770   39.6850 C   0  0  0  0  0  0  0  0  0  0  0  0
   38.4750   31.4630   40.5950 N   0  0  0  0  0  0  0  0  0  0  0  0
   39.1730   32.4570   41.1660 C   0  0  0  0  0  0  0  0  0  0  0  0
   38.9400   33.7380   40.8540 N   0  0  0  0  0  0  0  0  0  0  0  0
   37.7720   35.0390   39.6760 H   0  0  0  0  0  0  0  0  0  0  0  0
   36.4750   33.2600   38.6090 H   0  0  0  0  0  0  0  0  0  0  0  0
   39.9410   32.2650   41.8900 H   0  0  0  0  0  0  0  0  0  0  0  0
  1  6  1  0  0  0  0
  2  8  1  0  0  0  0
  2  1  1  0  0  0  0
  3  2  1  0  0  0  0
  3  4  1  0  0  0  0
  4 12  1  0  0  0  0
  4  5  1  0  0  0  0
  5 14  1  0  0  0  0
  5 13  1  0  0  0  0
  6 15  1  6  0  0  0
  6  5  1  0  0  0  0
  6 19  1  0  0  0  0
  7  2  1  0  0  0  0
  9  3  1  0  0  0  0
 10  3  1  0  0  0  0
 11  4  1  0  0  0  0
 17 16  1  0  0  0  0
 18 17  2  0  0  0  0
 19 20  1  0  0  0  0
 19 17  1  0  0  0  0
 21  1  1  0  0  0  0
 21 22  1  0  0  0  0
 23 21  1  0  0  0  0
 24 29  1  0  0  0  0
 24 21  1  0  0  0  0
 25 24  1  0  0  0  0
 26 24  1  0  0  0  0
 27 32  1  0  0  0  0
 28 29  1  0  0  0  0
 28 27  2  0  0  0  0
 29 30  2  0  0  0  0
 30 31  1  0  0  0  0
 31 35  1  0  0  0  0
 32 31  2  0  0  0  0
 33 27  1  0  0  0  0
 34 28  1  0  0  0  0
M  END
>  <minimizedAffinity>
-4.31120539

$$$$

 OpenBabel03252508583D

 35 36  0  0  1  0  0  0  0  0999 V2000
   38.3430   28.1650   41.4440 N   0  0  0  0  0  0  0  0  0  0  0  0
   38.4840   28.7660   42.7290 C   0  0  0  0  0  0  0  0  0  0  0  0
   37.3330   28.5760   43.6800 C   0  0  0  0  0  0  0  0  0  0  0  0
   36.6060   27.2710   43.5220 C   0  0  0  0  0  0  0  0  0  0  0  0
   37.2130   26.3940   42.4670 C   0  0  0  0  0  0  0  0  0  0  0  0
   37.2670   27.3030   41.2050 C   0  0  2  0  0  0  0  0  0  0  0  0
   38.6590   29.8630   42.6530 H   0  0  0  0  0  0  0  0  0  0  0  0
   39.3870   28.3420   43.2190 H   0  0  0  0  0  0  0  0  0  0  0  0
   36.5770   29.3750   43.4220 H   0  0  0  0  0  0  0  0  0  0  0  0
   37.6710   28.7880   44.6950 H   0  0  0  0  0  0  0  0  0  0  0  0
   35.5310   27.3820   43.2690 H   0  0  0  0  0  0  0  0  0  0  0  0
   36.6940   26.7250   44.4850 H   0  0  0  0  0  0  0  0  0  0  0  0
   36.5460   25.5570   42.2500 H   0  0  0  0  0  0  0  0  0  0  0  0
   38.2430   26.1040   42.7550 H   0  0  0  0  0  0  0  0  0  0  0  0
   36.2510   27.7070   41.1720 H   0  0  0  0  0  0  0  0  0  0  0  0
   37.0210   25.6190   38.1150 H   0  0  0  0  0  0  0  0  0  0  0  0
   36.7720   26.3010   38.8900 C   0  0  0  0  0  0  0  0  0  0  0  0
   35.7730   27.0760   38.7980 O   0  0  0  0  0  0  0  0  0  0  0  0
   37.5540   26.3860   40.0970 N   0  0  0  0  0  0  0  0  0  0  0  0
   38.3750   25.7740   40.2130 H   0  0  0  0  0  0  0  0  0  0  0  0
   38.8170   28.9880   40.3700 C   0  0  0  0  0  0  0  0  0  0  0  0
   39.1710   28.3370   39.5370 H   0  0  0  0  0  0  0  0  0  0  0  0
   39.6950   29.6130   40.6620 H   0  0  0  0  0  0  0  0  0  0  0  0
   37.7140   29.8640   39.8650 C   0  0  0  0  0  0  0  0  0  0  0  0
   36.7470   29.7610   40.3740 H   0  0  0  0  0  0  0  0  0  0  0  0
   37.5480   29.6690   38.7840 H   0  0  0  0  0  0  0  0  0  0  0  0
   37.6030   33.6220   39.8150 C   0  0  0  0  0  0  0  0  0  0  0  0
   37.2230   32.2740   39.6760 C   0  0  0  0  0  0  0  0  0  0  0  0
   38.1220   31.2860   40.0140 C   0  0  0  0  0  0  0  0  0  0  0  0
   39.3260   31.6720   40.4660 N   0  0  0  0  0  0  0  0  0  0  0  0
   39.6790   32.9600   40.5940 C   0  0  0  0  0  0  0  0  0  0  0  0
   38.8340   33.9470   40.2740 N   0  0  0  0  0  0  0  0  0  0  0  0
   36.9050   34.3970   39.5500 H   0  0  0  0  0  0  0  0  0  0  0  0
   36.2180   32.0620   39.2990 H   0  0  0  0  0  0  0  0  0  0  0  0
   40.6470   33.2480   40.9550 H   0  0  0  0  0  0  0  0  0  0  0  0
  1  2  1  0  0  0  0
  2  8  1  0  0  0  0
  2  3  1  0  0  0  0
  3 10  1  0  0  0  0
  4  3  1  0  0  0  0
  4 12  1  0  0  0  0
  5 14  1  0  0  0  0
  5  4  1  0  0  0  0
  6 15  1  6  0  0  0
  6  1  1  0  0  0  0
  6  5  1  0  0  0  0
  7  2  1  0  0  0  0
  9  3  1  0  0  0  0
 11  4  1  0  0  0  0
 13  5  1  0  0  0  0
 16 17  1  0  0  0  0
 17 19  1  0  0  0  0
 18 17  2  0  0  0  0
 19 20  1  0  0  0  0
 19  6  1  0  0  0  0
 21 23  1  0  0  0  0
 21  1  1  0  0  0  0
 22 21  1  0  0  0  0
 24 29  1  0  0  0  0
 24 21  1  0  0  0  0
 24 25  1  0  0  0  0
 26 24  1  0  0  0  0
 27 32  1  0  0  0  0
 28 27  2  0  0  0  0
 28 29  1  0  0  0  0
 29 30  2  0  0  0  0
 30 31  1  0  0  0  0
 31 35  1  0  0  0  0
 32 31  2  0  0  0  0
 33 27  1  0  0  0  0
 34 28  1  0  0  0  0
M  END
>  <minimizedAffinity>
-4.28501415

$$$$

 OpenBabel03252508583D

 35 36  0  0  1  0  0  0  0  0999 V2000
   37.1620   29.1690   40.7250 N   0  0  0  0  0  0  0  0  0  0  0  0
   36.0690   28.4980   40.1040 C   0  0  0  0  0  0  0  0  0  0  0  0
   35.4020   29.2260   38.9690 C   0  0  0  0  0  0  0  0  0  0  0  0
   36.3230   30.0950   38.1600 C   0  0  0  0  0  0  0  0  0  0  0  0
   37.7460   30.0210   38.6280 C   0  0  0  0  0  0  0  0  0  0  0  0
   37.6620   30.3430   40.1490 C   0  0  2  0  0  0  0  0  0  0  0  0
   35.2700   28.2460   40.8380 H   0  0  0  0  0  0  0  0  0  0  0  0
   36.4350   27.5280   39.7010 H   0  0  0  0  0  0  0  0  0  0  0  0
   34.6600   29.9330   39.4430 H   0  0  0  0  0  0  0  0  0  0  0  0
   34.8180   28.5140   38.3830 H   0  0  0  0  0  0  0  0  0  0  0  0
   36.0410   31.1680   38.1560 H   0  0  0  0  0  0  0  0  0  0  0  0
   36.3060   29.7140   37.1170 H   0  0  0  0  0  0  0  0  0  0  0  0
   38.3360   30.8060   38.1510 H   0  0  0  0  0  0  0  0  0  0  0  0
   38.1430   28.9960   38.4920 H   0  0  0  0  0  0  0  0  0  0  0  0
   37.0490   31.2480   40.1550 H   0  0  0  0  0  0  0  0  0  0  0  0
   40.5650   31.9880   41.2930 H   0  0  0  0  0  0  0  0  0  0  0  0
   39.5500   31.8610   41.0090 C   0  0  0  0  0  0  0  0  0  0  0  0
   38.7220   32.8200   41.0520 O   0  0  0  0  0  0  0  0  0  0  0  0
   39.0490   30.5880   40.5560 N   0  0  0  0  0  0  0  0  0  0  0  0
   39.6890   29.7810   40.5060 H   0  0  0  0  0  0  0  0  0  0  0  0
   37.1780   29.0430   42.1520 C   0  0  0  0  0  0  0  0  0  0  0  0
   36.5610   29.8570   42.5990 H   0  0  0  0  0  0  0  0  0  0  0  0
   38.2010   29.1650   42.5840 H   0  0  0  0  0  0  0  0  0  0  0  0
   36.6070   27.7220   42.5620 C   0  0  0  0  0  0  0  0  0  0  0  0
   35.9230   27.2510   41.8440 H   0  0  0  0  0  0  0  0  0  0  0  0
   36.0620   27.8340   43.5230 H   0  0  0  0  0  0  0  0  0  0  0  0
   38.6860   24.5930   42.4150 C   0  0  0  0  0  0  0  0  0  0  0  0
   37.6350   25.5070   42.2140 C   0  0  0  0  0  0  0  0  0  0  0  0
   37.7210   26.7620   42.7770 C   0  0  0  0  0  0  0  0  0  0  0  0
   38.8210   27.0460   43.4940 N   0  0  0  0  0  0  0  0  0  0  0  0
   39.8170   26.1660   43.6800 C   0  0  0  0  0  0  0  0  0  0  0  0
   39.7690   24.9380   43.1500 N   0  0  0  0  0  0  0  0  0  0  0  0
   38.6220   23.6110   41.9790 H   0  0  0  0  0  0  0  0  0  0  0  0
   36.7800   25.1810   41.6140 H   0  0  0  0  0  0  0  0  0  0  0  0
   40.6870   26.4120   44.2570 H   0  0  0  0  0  0  0  0  0  0  0  0
  1 21  1  0  0  0  0
  2  1  1  0  0  0  0
  2  7  1  0  0  0  0
  3  9  1  0  0  0  0
  3  2  1  0  0  0  0
  4  5  1  0  0  0  0
  4  3  1  0  0  0  0
  5  6  1  0  0  0  0
  6 15  1  1  0  0  0
  6 19  1  0  0  0  0
  6  1  1  0  0  0  0
  8  2  1  0  0  0  0
 10  3  1  0  0  0  0
 11  4  1  0  0  0  0
 12  4  1  0  0  0  0
 13  5  1  0  0  0  0
 14  5  1  0  0  0  0
 17 18  2  0  0  0  0
 17 16  1  0  0  0  0
 19 17  1  0  0  0  0
 20 19  1  0  0  0  0
 21 24  1  0  0  0  0
 21 23  1  0  0  0  0
 21 22  1  0  0  0  0
 24 29  1  0  0  0  0
 24 26  1  0  0  0  0
 25 24  1  0  0  0  0
 27 32  1  0  0  0  0
 28 27  2  0  0  0  0
 28 29  1  0  0  0  0
 29 30  2  0  0  0  0
 30 31  1  0  0  0  0
 31 35  1  0  0  0  0
 32 31  2  0  0  0  0
 33 27  1  0  0  0  0
 34 28  1  0  0  0  0
M  END
>  <minimizedAffinity>
-4.25337696

$$$$

 OpenBabel03252508583D

 35 36  0  0  1  0  0  0  0  0999 V2000
   37.7300   29.5510   41.9390 N   0  0  0  0  0  0  0  0  0  0  0  0
   36.5560   30.0140   41.2770 C   0  0  0  0  0  0  0  0  0  0  0  0
   36.6480   31.3720   40.6360 C   0  0  0  0  0  0  0  0  0  0  0  0
   38.0110   31.7200   40.1070 C   0  0  0  0  0  0  0  0  0  0  0  0
   39.0010   30.6070   40.2870 C   0  0  0  0  0  0  0  0  0  0  0  0
   38.9220   30.2720   41.8050 C   0  0  2  0  0  0  0  0  0  0  0  0
   35.6800   30.0410   41.9630 H   0  0  0  0  0  0  0  0  0  0  0  0
   36.2970   29.2900   40.4740 H   0  0  0  0  0  0  0  0  0  0  0  0
   36.4440   32.1210   41.4570 H   0  0  0  0  0  0  0  0  0  0  0  0
   35.8390   31.4800   39.9120 H   0  0  0  0  0  0  0  0  0  0  0  0
   38.4560   32.6250   40.5690 H   0  0  0  0  0  0  0  0  0  0  0  0
   37.9090   31.8860   39.0140 H   0  0  0  0  0  0  0  0  0  0  0  0
   40.0100   30.9690   40.0750 H   0  0  0  0  0  0  0  0  0  0  0  0
   38.6940   29.7200   39.6980 H   0  0  0  0  0  0  0  0  0  0  0  0
   39.0060   31.2620   42.2610 H   0  0  0  0  0  0  0  0  0  0  0  0
   42.1350   29.2330   42.8260 H   0  0  0  0  0  0  0  0  0  0  0  0
   41.3160   29.8880   42.6610 C   0  0  0  0  0  0  0  0  0  0  0  0
   41.3670   31.1130   42.9830 O   0  0  0  0  0  0  0  0  0  0  0  0
   40.0910   29.4230   42.0610 N   0  0  0  0  0  0  0  0  0  0  0  0
   40.0060   28.4340   41.7840 H   0  0  0  0  0  0  0  0  0  0  0  0
   37.4650   28.8870   43.1810 C   0  0  0  0  0  0  0  0  0  0  0  0
   36.7060   29.4680   43.7540 H   0  0  0  0  0  0  0  0  0  0  0  0
   38.3660   28.8300   43.8400 H   0  0  0  0  0  0  0  0  0  0  0  0
   36.9320   27.5110   42.9290 C   0  0  0  0  0  0  0  0  0  0  0  0
   36.4280   27.3610   41.9660 H   0  0  0  0  0  0  0  0  0  0  0  0
   36.2150   27.2370   43.7310 H   0  0  0  0  0  0  0  0  0  0  0  0
   39.0020   24.4310   42.3280 C   0  0  0  0  0  0  0  0  0  0  0  0
   37.9390   25.3520   42.2890 C   0  0  0  0  0  0  0  0  0  0  0  0
   38.0590   26.5430   42.9730 C   0  0  0  0  0  0  0  0  0  0  0  0
   39.2010   26.7580   43.6470 N   0  0  0  0  0  0  0  0  0  0  0  0
   40.2080   25.8720   43.6770 C   0  0  0  0  0  0  0  0  0  0  0  0
   40.1280   24.7060   43.0260 N   0  0  0  0  0  0  0  0  0  0  0  0
   38.9120   23.4990   41.7960 H   0  0  0  0  0  0  0  0  0  0  0  0
   37.0490   25.0840   41.7120 H   0  0  0  0  0  0  0  0  0  0  0  0
   41.1120   26.0630   44.2220 H   0  0  0  0  0  0  0  0  0  0  0  0
  1 21  1  0  0  0  0
  2  1  1  0  0  0  0
  2  7  1  0  0  0  0
  3  2  1  0  0  0  0
  3  9  1  0  0  0  0
  4  5  1  0  0  0  0
  4 11  1  0  0  0  0
  4  3  1  0  0  0  0
  5  6  1  0  0  0  0
  6  1  1  0  0  0  0
  6 19  1  0  0  0  0
  6 15  1  1  0  0  0
  8  2  1  0  0  0  0
 10  3  1  0  0  0  0
 12  4  1  0  0  0  0
 13  5  1  0  0  0  0
 14  5  1  0  0  0  0
 17 16  1  0  0  0  0
 17 18  2  0  0  0  0
 19 17  1  0  0  0  0
 20 19  1  0  0  0  0
 21 22  1  0  0  0  0
 21 23  1  0  0  0  0
 24 29  1  0  0  0  0
 24 21  1  0  0  0  0
 24 26  1  0  0  0  0
 25 24  1  0  0  0  0
 27 32  1  0  0  0  0
 28 27  2  0  0  0  0
 28 29  1  0  0  0  0
 29 30  2  0  0  0  0
 30 31  1  0  0  0  0
 31 35  1  0  0  0  0
 32 31  2  0  0  0  0
 33 27  1  0  0  0  0
 34 28  1  0  0  0  0
M  END
>  <minimizedAffinity>
-4.2249403

$$$$

 OpenBabel03252508583D

 35 36  0  0  1  0  0  0  0  0999 V2000
   36.8320   29.4640   41.6650 N   0  0  0  0  0  0  0  0  0  0  0  0
   36.0100   28.4340   41.1200 C   0  0  0  0  0  0  0  0  0  0  0  0
   36.7100   27.1560   40.7450 C   0  0  0  0  0  0  0  0  0  0  0  0
   37.8870   26.8130   41.6130 C   0  0  0  0  0  0  0  0  0  0  0  0
   38.0980   27.8050   42.7190 C   0  0  0  0  0  0  0  0  0  0  0  0
   38.1640   29.1780   41.9880 C   0  0  2  0  0  0  0  0  0  0  0  0
   35.4660   28.7800   40.2120 H   0  0  0  0  0  0  0  0  0  0  0  0
   35.2300   28.1740   41.8670 H   0  0  0  0  0  0  0  0  0  0  0  0
   37.1360   27.3230   39.7120 H   0  0  0  0  0  0  0  0  0  0  0  0
   35.9700   26.3600   40.6480 H   0  0  0  0  0  0  0  0  0  0  0  0
   38.8470   26.7380   41.0620 H   0  0  0  0  0  0  0  0  0  0  0  0
   37.6710   25.8360   42.0940 H   0  0  0  0  0  0  0  0  0  0  0  0
   39.0650   27.6320   43.1950 H   0  0  0  0  0  0  0  0  0  0  0  0
   37.2330   27.7990   43.4110 H   0  0  0  0  0  0  0  0  0  0  0  0
   38.8790   28.9750   41.1870 H   0  0  0  0  0  0  0  0  0  0  0  0
   40.2130   31.5570   43.5960 H   0  0  0  0  0  0  0  0  0  0  0  0
   39.8800   30.8940   42.8370 C   0  0  0  0  0  0  0  0  0  0  0  0
   40.5180   30.7520   41.7500 O   0  0  0  0  0  0  0  0  0  0  0  0
   38.6800   30.1120   42.9950 N   0  0  0  0  0  0  0  0  0  0  0  0
   38.1310   30.1970   43.8630 H   0  0  0  0  0  0  0  0  0  0  0  0
   36.5070   30.7740   41.1850 C   0  0  0  0  0  0  0  0  0  0  0  0
   37.0850   31.5320   41.7630 H   0  0  0  0  0  0  0  0  0  0  0  0
   35.4310   31.0330   41.3350 H   0  0  0  0  0  0  0  0  0  0  0  0
   36.8620   30.8960   39.7360 C   0  0  0  0  0  0  0  0  0  0  0  0
   36.0650   31.2640   39.0760 H   0  0  0  0  0  0  0  0  0  0  0  0
   37.1910   29.9090   39.3490 H   0  0  0  0  0  0  0  0  0  0  0  0
   39.0710   33.8990   40.2250 C   0  0  0  0  0  0  0  0  0  0  0  0
   37.9980   32.9970   40.3530 C   0  0  0  0  0  0  0  0  0  0  0  0
   37.9980   31.8440   39.5970 C   0  0  0  0  0  0  0  0  0  0  0  0
   39.0370   31.6460   38.7700 N   0  0  0  0  0  0  0  0  0  0  0  0
   40.0550   32.5130   38.6550 C   0  0  0  0  0  0  0  0  0  0  0  0
   40.0900   33.6420   39.3720 N   0  0  0  0  0  0  0  0  0  0  0  0
   39.0750   34.8000   40.8120 H   0  0  0  0  0  0  0  0  0  0  0  0
   37.1980   33.2490   41.0550 H   0  0  0  0  0  0  0  0  0  0  0  0
   40.8750   32.3360   37.9880 H   0  0  0  0  0  0  0  0  0  0  0  0
  1  6  1  0  0  0  0
  2  1  1  0  0  0  0
  2  8  1  0  0  0  0
  3  2  1  0  0  0  0
  3  4  1  0  0  0  0
  4 12  1  0  0  0  0
  4  5  1  0  0  0  0
  5 13  1  0  0  0  0
  5 14  1  0  0  0  0
  6 15  1  6  0  0  0
  6  5  1  0  0  0  0
  6 19  1  0  0  0  0
  7  2  1  0  0  0  0
  9  3  1  0  0  0  0
 10  3  1  0  0  0  0
 11  4  1  0  0  0  0
 17 19  1  0  0  0  0
 17 16  1  0  0  0  0
 18 17  2  0  0  0  0
 19 20  1  0  0  0  0
 21 23  1  0  0  0  0
 21  1  1  0  0  0  0
 21 22  1  0  0  0  0
 24 21  1  0  0  0  0
 25 24  1  0  0  0  0
 26 24  1  0  0  0  0
 27 28  1  0  0  0  0
 27 33  1  0  0  0  0
 28 34  1  0  0  0  0
 29 24  1  0  0  0  0
 29 28  2  0  0  0  0
 30 29  1  0  0  0  0
 31 30  2  0  0  0  0
 31 32  1  0  0  0  0
 32 27  2  0  0  0  0
 35 31  1  0  0  0  0
M  END
>  <minimizedAffinity>
-4.19546413

$$$$

 OpenBabel03252508583D

 35 36  0  0  1  0  0  0  0  0999 V2000
   39.0300   26.6420   42.4730 N   0  0  0  0  0  0  0  0  0  0  0  0
   37.6170   26.4490   42.4830 C   0  0  0  0  0  0  0  0  0  0  0  0
   37.1170   25.1770   41.8540 C   0  0  0  0  0  0  0  0  0  0  0  0
   38.0490   24.0060   41.9940 C   0  0  0  0  0  0  0  0  0  0  0  0
   39.2810   24.3390   42.7820 C   0  0  0  0  0  0  0  0  0  0  0  0
   39.8620   25.5930   42.0650 C   0  0  2  0  0  0  0  0  0  0  0  0
   37.0850   27.2870   41.9790 H   0  0  0  0  0  0  0  0  0  0  0  0
   37.2690   26.4520   43.5380 H   0  0  0  0  0  0  0  0  0  0  0  0
   37.0530   25.3790   40.7450 H   0  0  0  0  0  0  0  0  0  0  0  0
   36.0980   24.9890   42.1940 H   0  0  0  0  0  0  0  0  0  0  0  0
   38.3900   23.5840   41.0260 H   0  0  0  0  0  0  0  0  0  0  0  0
   37.5080   23.2180   42.5590 H   0  0  0  0  0  0  0  0  0  0  0  0
   40.0110   23.5310   42.6900 H   0  0  0  0  0  0  0  0  0  0  0  0
   39.0120   24.6030   43.8240 H   0  0  0  0  0  0  0  0  0  0  0  0
   39.8560   25.2780   41.0180 H   0  0  0  0  0  0  0  0  0  0  0  0
   43.3810   25.6060   42.3100 H   0  0  0  0  0  0  0  0  0  0  0  0
   42.4230   25.4840   41.8700 C   0  0  0  0  0  0  0  0  0  0  0  0
   42.2870   25.1040   40.6680 O   0  0  0  0  0  0  0  0  0  0  0  0
   41.2150   25.7410   42.6120 N   0  0  0  0  0  0  0  0  0  0  0  0
   41.2790   26.0520   43.5920 H   0  0  0  0  0  0  0  0  0  0  0  0
   39.4240   27.9870   42.1760 C   0  0  0  0  0  0  0  0  0  0  0  0
   39.2800   28.1800   41.0880 H   0  0  0  0  0  0  0  0  0  0  0  0
   40.5080   28.1720   42.3760 H   0  0  0  0  0  0  0  0  0  0  0  0
   38.5910   28.9550   42.9550 C   0  0  0  0  0  0  0  0  0  0  0  0
   39.0930   29.4540   43.7950 H   0  0  0  0  0  0  0  0  0  0  0  0
   37.6960   28.4350   43.3580 H   0  0  0  0  0  0  0  0  0  0  0  0
   36.3650   31.0280   40.7450 C   0  0  0  0  0  0  0  0  0  0  0  0
   36.8140   30.0120   41.6100 C   0  0  0  0  0  0  0  0  0  0  0  0
   38.1220   30.0300   42.0430 C   0  0  0  0  0  0  0  0  0  0  0  0
   38.9050   31.0320   41.6090 N   0  0  0  0  0  0  0  0  0  0  0  0
   38.4660   31.9960   40.7840 C   0  0  0  0  0  0  0  0  0  0  0  0
   37.2030   32.0100   40.3420 N   0  0  0  0  0  0  0  0  0  0  0  0
   35.3450   31.0160   40.4030 H   0  0  0  0  0  0  0  0  0  0  0  0
   36.0990   29.2390   41.9070 H   0  0  0  0  0  0  0  0  0  0  0  0
   39.1070   32.7870   40.4480 H   0  0  0  0  0  0  0  0  0  0  0  0
  1  2  1  0  0  0  0
  2  8  1  0  0  0  0
  3  4  1  0  0  0  0
  3 10  1  0  0  0  0
  3  2  1  0  0  0  0
  4 12  1  0  0  0  0
  4  5  1  0  0  0  0
  5 14  1  0  0  0  0
  6 15  1  6  0  0  0
  6  1  1  0  0  0  0
  6 19  1  0  0  0  0
  6  5  1  0  0  0  0
  7  2  1  0  0  0  0
  9  3  1  0  0  0  0
 11  4  1  0  0  0  0
 13  5  1  0  0  0  0
 17 16  1  0  0  0  0
 17 19  1  0  0  0  0
 18 17  2  0  0  0  0
 19 20  1  0  0  0  0
 21 23  1  0  0  0  0
 21  1  1  0  0  0  0
 21 24  1  0  0  0  0
 22 21  1  0  0  0  0
 24 26  1  0  0  0  0
 24 25  1  0  0  0  0
 27 28  1  0  0  0  0
 28 34  1  0  0  0  0
 28 29  2  0  0  0  0
 29 24  1  0  0  0  0
 30 29  1  0  0  0  0
 31 30  2  0  0  0  0
 32 27  2  0  0  0  0
 32 31  1  0  0  0  0
 33 27  1  0  0  0  0
 35 31  1  0  0  0  0
M  END
>  <minimizedAffinity>
-4.1620512

$$$$
