
 OpenBabel03252508573D

 35 36  0  0  1  0  0  0  0  0999 V2000
   48.6610   33.8100   41.3370 N   0  0  0  0  0  0  0  0  0  0  0  0
   48.9220   32.9010   42.4030 C   0  0  0  0  0  0  0  0  0  0  0  0
   48.7450   31.4400   42.0880 C   0  0  0  0  0  0  0  0  0  0  0  0
   49.0680   31.0670   40.6680 C   0  0  0  0  0  0  0  0  0  0  0  0
   49.5520   32.2340   39.8600 C   0  0  0  0  0  0  0  0  0  0  0  0
   48.4430   33.3100   40.0480 C   0  0  2  0  0  0  0  0  0  0  0  0
   48.2880   33.1160   43.2930 H   0  0  0  0  0  0  0  0  0  0  0  0
   49.9740   33.0390   42.7330 H   0  0  0  0  0  0  0  0  0  0  0  0
   47.6430   31.2240   42.2120 H   0  0  0  0  0  0  0  0  0  0  0  0
   49.2630   30.8470   42.8420 H   0  0  0  0  0  0  0  0  0  0  0  0
   48.2150   30.6230   40.1140 H   0  0  0  0  0  0  0  0  0  0  0  0
   49.8980   30.3310   40.7010 H   0  0  0  0  0  0  0  0  0  0  0  0
   49.5830   31.9660   38.8020 H   0  0  0  0  0  0  0  0  0  0  0  0
   50.5080   32.6160   40.2690 H   0  0  0  0  0  0  0  0  0  0  0  0
   47.5350   32.7400   39.8380 H   0  0  0  0  0  0  0  0  0  0  0  0
   48.3850   35.0980   37.0070 H   0  0  0  0  0  0  0  0  0  0  0  0
   48.1440   34.3410   37.7120 C   0  0  0  0  0  0  0  0  0  0  0  0
   47.3280   33.4100   37.4360 O   0  0  0  0  0  0  0  0  0  0  0  0
   48.7310   34.3240   39.0270 N   0  0  0  0  0  0  0  0  0  0  0  0
   49.3990   35.0620   39.2940 H   0  0  0  0  0  0  0  0  0  0  0  0
   47.9520   34.9870   41.7460 C   0  0  0  0  0  0  0  0  0  0  0  0
   48.2420   35.8380   41.0880 H   0  0  0  0  0  0  0  0  0  0  0  0
   48.2100   35.3060   42.7860 H   0  0  0  0  0  0  0  0  0  0  0  0
   46.4760   34.7680   41.6340 C   0  0  0  0  0  0  0  0  0  0  0  0
   46.1640   33.7840   41.2590 H   0  0  0  0  0  0  0  0  0  0  0  0
   46.0360   35.5380   40.9660 H   0  0  0  0  0  0  0  0  0  0  0  0
   44.5670   36.2230   44.5270 C   0  0  0  0  0  0  0  0  0  0  0  0
   45.1500   36.0700   43.2550 C   0  0  0  0  0  0  0  0  0  0  0  0
   45.8620   34.9230   42.9780 C   0  0  0  0  0  0  0  0  0  0  0  0
   45.9590   34.0040   43.9520 N   0  0  0  0  0  0  0  0  0  0  0  0
   45.4000   34.1600   45.1620 C   0  0  0  0  0  0  0  0  0  0  0  0
   44.7010   35.2600   45.4680 N   0  0  0  0  0  0  0  0  0  0  0  0
   44.0110   37.1180   44.7480 H   0  0  0  0  0  0  0  0  0  0  0  0
   45.0140   36.8770   42.5290 H   0  0  0  0  0  0  0  0  0  0  0  0
   45.4890   33.4140   45.9270 H   0  0  0  0  0  0  0  0  0  0  0  0
  1 21  1  0  0  0  0
  1  2  1  0  0  0  0
  2  8  1  0  0  0  0
  2  7  1  0  0  0  0
  3  9  1  0  0  0  0
  3  2  1  0  0  0  0
  3 10  1  0  0  0  0
  4 12  1  0  0  0  0
  4  3  1  0  0  0  0
  5  6  1  0  0  0  0
  5 14  1  0  0  0  0
  5  4  1  0  0  0  0
  6 15  1  6  0  0  0
  6  1  1  0  0  0  0
 11  4  1  0  0  0  0
 13  5  1  0  0  0  0
 16 17  1  0  0  0  0
 17 19  1  0  0  0  0
 18 17  2  0  0  0  0
 19 20  1  0  0  0  0
 19  6  1  0  0  0  0
 21 23  1  0  0  0  0
 22 21  1  0  0  0  0
 24 21  1  0  0  0  0
 24 29  1  0  0  0  0
 25 24  1  0  0  0  0
 26 24  1  0  0  0  0
 27 33  1  0  0  0  0
 27 32  1  0  0  0  0
 28 27  2  0  0  0  0
 29 28  1  0  0  0  0
 29 30  2  0  0  0  0
 30 31  1  0  0  0  0
 31 32  2  0  0  0  0
 31 35  1  0  0  0  0
 34 28  1  0  0  0  0
M  END
>  <minimizedAffinity>
-4.53824282

>  <minimizedRMSD>
1.25969195

$$$$
