
 OpenBabel03252507513D

 27 28  0  0  1  0  0  0  0  0999 V2000
   47.0230   34.9450   42.1220 C   0  0  2  0  0  0  0  0  0  0  0  0
   46.4200   34.2360   40.9500 C   0  0  0  0  0  0  0  0  0  0  0  0
   47.6320   34.1870   40.0260 C   0  0  0  0  0  0  0  0  0  0  0  0
   48.8200   34.0480   40.9450 C   0  0  1  0  0  0  0  0  0  0  0  0
   48.2590   34.0690   42.3640 C   0  0  0  0  0  0  0  0  0  0  0  0
   47.4130   35.9350   41.8700 H   0  0  0  0  0  0  0  0  0  0  0  0
   45.6200   34.8570   40.5000 H   0  0  0  0  0  0  0  0  0  0  0  0
   46.0870   33.2340   41.2250 H   0  0  0  0  0  0  0  0  0  0  0  0
   47.5150   33.2800   39.4110 H   0  0  0  0  0  0  0  0  0  0  0  0
   47.6600   35.1190   39.4270 H   0  0  0  0  0  0  0  0  0  0  0  0
   49.4810   34.8990   40.7900 H   0  0  0  0  0  0  0  0  0  0  0  0
   48.0110   33.0600   42.6960 H   0  0  0  0  0  0  0  0  0  0  0  0
   48.9970   34.5940   43.0030 H   0  0  0  0  0  0  0  0  0  0  0  0
   44.4440   35.9760   44.6800 C   0  0  0  0  0  0  0  0  0  0  0  0
   45.2070   36.0280   43.4980 C   0  0  0  0  0  0  0  0  0  0  0  0
   46.1550   35.0300   43.3140 C   0  0  0  0  0  0  0  0  0  0  0  0
   46.2930   34.0650   44.2810 N   0  0  0  0  0  0  0  0  0  0  0  0
   45.5490   34.0460   45.3960 C   0  0  0  0  0  0  0  0  0  0  0  0
   44.6310   34.9890   45.6020 N   0  0  0  0  0  0  0  0  0  0  0  0
   43.6930   36.7560   44.8380 H   0  0  0  0  0  0  0  0  0  0  0  0
   45.0880   36.7870   42.7540 H   0  0  0  0  0  0  0  0  0  0  0  0
   45.7610   33.2300   46.0740 H   0  0  0  0  0  0  0  0  0  0  0  0
   51.1320   31.4760   41.1390 H   0  0  0  0  0  0  0  0  0  0  0  0
   50.6890   32.4510   41.3670 C   0  0  0  0  0  0  0  0  0  0  0  0
   51.2290   33.2380   42.1760 O   0  0  0  0  0  0  0  0  0  0  0  0
   49.4690   32.7690   40.6930 N   0  0  0  0  0  0  0  0  0  0  0  0
   48.9700   32.1550   40.0070 H   0  0  0  0  0  0  0  0  0  0  0  0
  1  6  1  6  0  0  0
  1  5  1  0  0  0  0
  1 16  1  0  0  0  0
  2  8  1  0  0  0  0
  2  1  1  0  0  0  0
  3  4  1  0  0  0  0
  3  2  1  0  0  0  0
  4 11  1  6  0  0  0
  4  5  1  0  0  0  0
  5 12  1  0  0  0  0
  5 13  1  0  0  0  0
  7  2  1  0  0  0  0
  9  3  1  0  0  0  0
 10  3  1  0  0  0  0
 14 20  1  0  0  0  0
 14 19  1  0  0  0  0
 15 14  2  0  0  0  0
 16 15  1  0  0  0  0
 16 17  2  0  0  0  0
 17 18  1  0  0  0  0
 18 19  2  0  0  0  0
 18 22  1  0  0  0  0
 21 15  1  0  0  0  0
 23 24  1  0  0  0  0
 24 25  2  0  0  0  0
 26  4  1  0  0  0  0
 26 24  1  0  0  0  0
 27 26  1  0  0  0  0
M  END
>  <minimizedAffinity>
-4.68661356

>  <minimizedRMSD>
1.39244103

$$$$
