
 OpenBabel03252507213D

 43 45  0  0  1  0  0  0  0  0999 V2000
   47.3510   33.6200   42.8060 C   0  0  0  0  0  0  0  0  0  0  0  0
   48.4520   33.4490   43.4050 O   0  0  0  0  0  0  0  0  0  0  0  0
   47.0210   33.0860   41.5100 N   0  0  0  0  0  0  0  0  0  0  0  0
   45.8150   32.4590   41.0150 C   0  0  0  0  0  0  0  0  0  0  0  0
   45.3800   33.1480   39.7210 C   0  0  0  0  0  0  0  0  0  0  0  0
   46.4230   33.0160   38.6540 C   0  0  0  0  0  0  0  0  0  0  0  0
   47.6940   32.4560   39.2870 C   0  0  0  0  0  0  0  0  0  0  0  0
   48.0810   33.2050   40.5230 C   0  0  2  0  0  0  0  0  0  0  0  0
   45.8940   31.3750   40.8670 H   0  0  0  0  0  0  0  0  0  0  0  0
   45.0170   32.7280   41.7480 H   0  0  0  0  0  0  0  0  0  0  0  0
   44.4670   32.6510   39.3550 H   0  0  0  0  0  0  0  0  0  0  0  0
   45.1900   34.2240   39.9880 H   0  0  0  0  0  0  0  0  0  0  0  0
   46.1370   32.4030   37.8020 H   0  0  0  0  0  0  0  0  0  0  0  0
   46.6980   34.0440   38.3010 H   0  0  0  0  0  0  0  0  0  0  0  0
   47.4390   31.3970   39.5810 H   0  0  0  0  0  0  0  0  0  0  0  0
   48.5250   32.4760   38.5700 H   0  0  0  0  0  0  0  0  0  0  0  0
   48.1230   34.2990   40.2720 H   0  0  0  0  0  0  0  0  0  0  0  0
   45.9750   35.6550   42.9030 C   0  0  0  0  0  0  0  0  0  0  0  0
   46.3500   34.4180   43.4900 C   0  0  0  0  0  0  0  0  0  0  0  0
   45.7600   34.0310   44.6610 C   0  0  0  0  0  0  0  0  0  0  0  0
   44.8400   34.8380   45.2260 N   0  0  0  0  0  0  0  0  0  0  0  0
   44.4700   36.0290   44.6730 C   0  0  0  0  0  0  0  0  0  0  0  0
   45.0460   36.4070   43.5270 N   0  0  0  0  0  0  0  0  0  0  0  0
   46.4500   35.9390   41.9830 H   0  0  0  0  0  0  0  0  0  0  0  0
   43.7250   36.5860   45.2140 H   0  0  0  0  0  0  0  0  0  0  0  0
   46.1630   32.7580   45.2430 C   0  0  0  0  0  0  0  0  0  0  0  0
   45.7660   31.5910   44.6610 C   0  0  0  0  0  0  0  0  0  0  0  0
   46.1590   30.3910   45.2370 C   0  0  0  0  0  0  0  0  0  0  0  0
   46.9410   30.3240   46.3820 C   0  0  0  0  0  0  0  0  0  0  0  0
   47.3140   31.5500   46.9290 C   0  0  0  0  0  0  0  0  0  0  0  0
   46.9210   32.6990   46.3520 N   0  0  0  0  0  0  0  0  0  0  0  0
   45.1590   31.5260   43.7720 H   0  0  0  0  0  0  0  0  0  0  0  0
   45.8680   29.4360   44.8110 H   0  0  0  0  0  0  0  0  0  0  0  0
   47.2560   29.4040   46.8440 H   0  0  0  0  0  0  0  0  0  0  0  0
   47.9270   31.5430   47.8260 H   0  0  0  0  0  0  0  0  0  0  0  0
   49.4210   32.8050   40.9830 C   0  0  0  0  0  0  0  0  0  0  0  0
   49.9140   33.4970   41.6890 H   0  0  0  0  0  0  0  0  0  0  0  0
   50.0810   32.9900   40.0510 H   0  0  0  0  0  0  0  0  0  0  0  0
   50.3670   29.4530   42.1270 H   0  0  0  0  0  0  0  0  0  0  0  0
   50.3710   30.5250   42.0860 C   0  0  0  0  0  0  0  0  0  0  0  0
   51.1970   30.9520   42.9230 O   0  0  0  0  0  0  0  0  0  0  0  0
   49.6460   31.4370   41.2950 N   0  0  0  0  0  0  0  0  0  0  0  0
   49.0180   30.7820   40.7180 H   0  0  0  0  0  0  0  0  0  0  0  0
  1  2  2  0  0  0  0
  1 19  1  0  0  0  0
  3  1  1  0  0  0  0
  4  3  1  0  0  0  0
  4 10  1  0  0  0  0
  5 12  1  0  0  0  0
  5  4  1  0  0  0  0
  6  7  1  0  0  0  0
  6  5  1  0  0  0  0
  7 15  1  0  0  0  0
  7  8  1  0  0  0  0
  8 17  1  6  0  0  0
  8 36  1  0  0  0  0
  8  3  1  0  0  0  0
  9  4  1  0  0  0  0
 11  5  1  0  0  0  0
 13  6  1  0  0  0  0
 14  6  1  0  0  0  0
 16  7  1  0  0  0  0
 18 19  2  0  0  0  0
 18 23  1  0  0  0  0
 19 20  1  0  0  0  0
 20 21  2  0  0  0  0
 20 26  1  0  0  0  0
 22 25  1  0  0  0  0
 22 21  1  0  0  0  0
 23 22  2  0  0  0  0
 24 18  1  0  0  0  0
 26 31  1  0  0  0  0
 27 28  1  0  0  0  0
 27 26  2  0  0  0  0
 28 29  2  0  0  0  0
 29 34  1  0  0  0  0
 29 30  1  0  0  0  0
 30 35  1  0  0  0  0
 31 30  2  0  0  0  0
 32 27  1  0  0  0  0
 33 28  1  0  0  0  0
 36 42  1  0  0  0  0
 36 37  1  0  0  0  0
 38 36  1  0  0  0  0
 40 39  1  0  0  0  0
 40 41  2  0  0  0  0
 42 40  1  0  0  0  0
 43 42  1  0  0  0  0
M  END
>  <minimizedAffinity>
-4.77029848

>  <minimizedRMSD>
0.15745008

$$$$
