
 OpenBabel03252507523D

 27 28  0  0  1  0  0  0  0  0999 V2000
   37.0200   29.0260   42.0170 C   0  0  2  0  0  0  0  0  0  0  0  0
   37.4490   28.7360   43.4210 C   0  0  0  0  0  0  0  0  0  0  0  0
   36.9240   27.3120   43.5640 C   0  0  0  0  0  0  0  0  0  0  0  0
   37.0590   26.7050   42.1900 C   0  0  1  0  0  0  0  0  0  0  0  0
   37.6120   27.8100   41.2940 C   0  0  0  0  0  0  0  0  0  0  0  0
   35.9380   28.9500   41.8760 H   0  0  0  0  0  0  0  0  0  0  0  0
   36.9250   29.4110   44.1260 H   0  0  0  0  0  0  0  0  0  0  0  0
   38.5360   28.7710   43.5150 H   0  0  0  0  0  0  0  0  0  0  0  0
   37.5950   26.8050   44.2750 H   0  0  0  0  0  0  0  0  0  0  0  0
   35.8730   27.3550   43.9120 H   0  0  0  0  0  0  0  0  0  0  0  0
   36.0720   26.4010   41.8450 H   0  0  0  0  0  0  0  0  0  0  0  0
   38.7030   27.7980   41.2970 H   0  0  0  0  0  0  0  0  0  0  0  0
   37.1540   27.6830   40.2930 H   0  0  0  0  0  0  0  0  0  0  0  0
   37.3390   32.3420   40.2400 C   0  0  0  0  0  0  0  0  0  0  0  0
   36.7350   31.1540   40.6910 C   0  0  0  0  0  0  0  0  0  0  0  0
   37.5160   30.3020   41.4630 C   0  0  0  0  0  0  0  0  0  0  0  0
   38.8120   30.6620   41.7370 N   0  0  0  0  0  0  0  0  0  0  0  0
   39.3550   31.8040   41.2900 C   0  0  0  0  0  0  0  0  0  0  0  0
   38.6330   32.6410   40.5480 N   0  0  0  0  0  0  0  0  0  0  0  0
   36.7360   33.0220   39.6300 H   0  0  0  0  0  0  0  0  0  0  0  0
   35.7230   30.8860   40.4690 H   0  0  0  0  0  0  0  0  0  0  0  0
   40.3860   31.9640   41.5780 H   0  0  0  0  0  0  0  0  0  0  0  0
   38.3630   23.5120   41.8650 H   0  0  0  0  0  0  0  0  0  0  0  0
   37.6090   24.3040   41.7970 C   0  0  0  0  0  0  0  0  0  0  0  0
   36.4650   24.0770   41.3450 O   0  0  0  0  0  0  0  0  0  0  0  0
   38.0060   25.6010   42.2490 N   0  0  0  0  0  0  0  0  0  0  0  0
   38.9460   25.8540   42.6370 H   0  0  0  0  0  0  0  0  0  0  0  0
  1  6  1  6  0  0  0
  1  2  1  0  0  0  0
  2  8  1  0  0  0  0
  2  3  1  0  0  0  0
  2  7  1  0  0  0  0
  3 10  1  0  0  0  0
  3  9  1  0  0  0  0
  4 11  1  6  0  0  0
  4 26  1  0  0  0  0
  4  3  1  0  0  0  0
  5 12  1  0  0  0  0
  5  1  1  0  0  0  0
  5  4  1  0  0  0  0
 13  5  1  0  0  0  0
 14 19  2  0  0  0  0
 14 15  1  0  0  0  0
 15 16  2  0  0  0  0
 16 17  1  0  0  0  0
 16  1  1  0  0  0  0
 18 22  1  0  0  0  0
 18 17  2  0  0  0  0
 19 18  1  0  0  0  0
 20 14  1  0  0  0  0
 21 15  1  0  0  0  0
 24 23  1  0  0  0  0
 24 26  1  0  0  0  0
 25 24  2  0  0  0  0
 26 27  1  0  0  0  0
M  END
>  <minimizedAffinity>
-4.36183596

$$$$

 OpenBabel03252507523D

 27 28  0  0  1  0  0  0  0  0999 V2000
   38.1570   31.0180   40.1070 C   0  0  2  0  0  0  0  0  0  0  0  0
   36.8100   31.5610   40.4670 C   0  0  0  0  0  0  0  0  0  0  0  0
   36.1370   30.2820   40.9540 C   0  0  0  0  0  0  0  0  0  0  0  0
   37.2410   29.4770   41.5920 C   0  0  1  0  0  0  0  0  0  0  0  0
   38.5170   30.2950   41.4100 C   0  0  0  0  0  0  0  0  0  0  0  0
   38.1130   30.2360   39.3420 H   0  0  0  0  0  0  0  0  0  0  0  0
   36.2990   31.9420   39.5600 H   0  0  0  0  0  0  0  0  0  0  0  0
   36.8850   32.3010   41.2650 H   0  0  0  0  0  0  0  0  0  0  0  0
   35.4000   30.5900   41.7120 H   0  0  0  0  0  0  0  0  0  0  0  0
   35.6790   29.7690   40.0850 H   0  0  0  0  0  0  0  0  0  0  0  0
   37.3270   28.5260   41.0670 H   0  0  0  0  0  0  0  0  0  0  0  0
   38.6630   30.9740   42.2510 H   0  0  0  0  0  0  0  0  0  0  0  0
   39.3480   29.5780   41.2490 H   0  0  0  0  0  0  0  0  0  0  0  0
   40.9200   32.9550   38.4120 C   0  0  0  0  0  0  0  0  0  0  0  0
   40.0210   31.8990   38.6520 C   0  0  0  0  0  0  0  0  0  0  0  0
   39.1610   32.0350   39.7350 C   0  0  0  0  0  0  0  0  0  0  0  0
   39.2370   33.1740   40.4990 N   0  0  0  0  0  0  0  0  0  0  0  0
   40.1080   34.1600   40.2410 C   0  0  0  0  0  0  0  0  0  0  0  0
   40.9440   34.0610   39.2100 N   0  0  0  0  0  0  0  0  0  0  0  0
   41.6030   32.8610   37.5620 H   0  0  0  0  0  0  0  0  0  0  0  0
   39.9740   31.0170   38.0480 H   0  0  0  0  0  0  0  0  0  0  0  0
   40.0620   35.0000   40.9210 H   0  0  0  0  0  0  0  0  0  0  0  0
   37.0980   28.0540   44.7470 H   0  0  0  0  0  0  0  0  0  0  0  0
   37.3380   28.1150   43.6800 C   0  0  0  0  0  0  0  0  0  0  0  0
   37.9150   27.1780   43.0870 O   0  0  0  0  0  0  0  0  0  0  0  0
   36.9570   29.3210   43.0110 N   0  0  0  0  0  0  0  0  0  0  0  0
   36.4720   30.1390   43.4510 H   0  0  0  0  0  0  0  0  0  0  0  0
  1  6  1  6  0  0  0
  1  2  1  0  0  0  0
  1  5  1  0  0  0  0
  2  3  1  0  0  0  0
  2  8  1  0  0  0  0
  3  4  1  0  0  0  0
  3  9  1  0  0  0  0
  4 11  1  6  0  0  0
  4 26  1  0  0  0  0
  5  4  1  0  0  0  0
  5 12  1  0  0  0  0
  7  2  1  0  0  0  0
 10  3  1  0  0  0  0
 13  5  1  0  0  0  0
 14 15  2  0  0  0  0
 14 19  1  0  0  0  0
 15 16  1  0  0  0  0
 16  1  1  0  0  0  0
 16 17  2  0  0  0  0
 18 17  1  0  0  0  0
 18 22  1  0  0  0  0
 19 18  2  0  0  0  0
 20 14  1  0  0  0  0
 21 15  1  0  0  0  0
 24 23  1  0  0  0  0
 25 24  2  0  0  0  0
 26 27  1  0  0  0  0
 26 24  1  0  0  0  0
M  END
>  <minimizedAffinity>
-4.28267765

$$$$

 OpenBabel03252507523D

 27 28  0  0  1  0  0  0  0  0999 V2000
   36.6490   29.0400   41.4970 C   0  0  2  0  0  0  0  0  0  0  0  0
   37.5100   29.2260   42.7050 C   0  0  0  0  0  0  0  0  0  0  0  0
   37.1870   27.9380   43.4560 C   0  0  0  0  0  0  0  0  0  0  0  0
   36.9520   26.9070   42.3790 C   0  0  1  0  0  0  0  0  0  0  0  0
   37.1020   27.6440   41.0510 C   0  0  0  0  0  0  0  0  0  0  0  0
   35.5870   28.9380   41.7390 H   0  0  0  0  0  0  0  0  0  0  0  0
   37.1660   30.1050   43.2870 H   0  0  0  0  0  0  0  0  0  0  0  0
   38.5660   29.2740   42.4330 H   0  0  0  0  0  0  0  0  0  0  0  0
   38.0870   27.6860   44.0380 H   0  0  0  0  0  0  0  0  0  0  0  0
   36.2930   28.1100   44.0870 H   0  0  0  0  0  0  0  0  0  0  0  0
   35.9400   26.5210   42.4820 H   0  0  0  0  0  0  0  0  0  0  0  0
   38.1380   27.6180   40.7100 H   0  0  0  0  0  0  0  0  0  0  0  0
   36.3740   27.1990   40.3440 H   0  0  0  0  0  0  0  0  0  0  0  0
   37.0910   32.2630   39.5820 C   0  0  0  0  0  0  0  0  0  0  0  0
   36.9040   31.4170   40.6900 C   0  0  0  0  0  0  0  0  0  0  0  0
   36.8320   30.0520   40.4370 C   0  0  0  0  0  0  0  0  0  0  0  0
   36.9450   29.6150   39.1410 N   0  0  0  0  0  0  0  0  0  0  0  0
   37.1230   30.4510   38.1080 C   0  0  0  0  0  0  0  0  0  0  0  0
   37.1960   31.7640   38.3170 N   0  0  0  0  0  0  0  0  0  0  0  0
   37.1490   33.3410   39.7660 H   0  0  0  0  0  0  0  0  0  0  0  0
   36.8170   31.7730   41.6950 H   0  0  0  0  0  0  0  0  0  0  0  0
   37.1960   29.9730   37.1400 H   0  0  0  0  0  0  0  0  0  0  0  0
   38.4640   23.7960   42.1880 H   0  0  0  0  0  0  0  0  0  0  0  0
   37.6590   24.5330   42.0880 C   0  0  0  0  0  0  0  0  0  0  0  0
   36.5330   24.2120   41.6500 O   0  0  0  0  0  0  0  0  0  0  0  0
   37.9700   25.8720   42.4830 N   0  0  0  0  0  0  0  0  0  0  0  0
   38.8920   26.2020   42.8570 H   0  0  0  0  0  0  0  0  0  0  0  0
  1  6  1  1  0  0  0
  1  2  1  0  0  0  0
  2  7  1  0  0  0  0
  2  3  1  0  0  0  0
  3  9  1  0  0  0  0
  3 10  1  0  0  0  0
  4 11  1  1  0  0  0
  4 26  1  0  0  0  0
  4  3  1  0  0  0  0
  5  1  1  0  0  0  0
  5  4  1  0  0  0  0
  8  2  1  0  0  0  0
 12  5  1  0  0  0  0
 13  5  1  0  0  0  0
 14 20  1  0  0  0  0
 14 15  1  0  0  0  0
 15 21  1  0  0  0  0
 16 15  2  0  0  0  0
 16  1  1  0  0  0  0
 17 16  1  0  0  0  0
 18 19  1  0  0  0  0
 18 17  2  0  0  0  0
 19 14  2  0  0  0  0
 22 18  1  0  0  0  0
 24 23  1  0  0  0  0
 24 26  1  0  0  0  0
 25 24  2  0  0  0  0
 26 27  1  0  0  0  0
M  END
>  <minimizedAffinity>
-4.22934055

$$$$

 OpenBabel03252507523D

 27 28  0  0  1  0  0  0  0  0999 V2000
   38.2150   27.0050   42.0370 C   0  0  2  0  0  0  0  0  0  0  0  0
   37.3530   27.1310   43.2530 C   0  0  0  0  0  0  0  0  0  0  0  0
   37.4030   28.6420   43.4510 C   0  0  0  0  0  0  0  0  0  0  0  0
   37.4890   29.2160   42.0590 C   0  0  1  0  0  0  0  0  0  0  0  0
   37.5330   28.0200   41.1130 C   0  0  0  0  0  0  0  0  0  0  0  0
   39.2290   27.3860   42.1900 H   0  0  0  0  0  0  0  0  0  0  0  0
   37.8280   26.6160   44.1120 H   0  0  0  0  0  0  0  0  0  0  0  0
   36.3360   26.7890   43.0520 H   0  0  0  0  0  0  0  0  0  0  0  0
   36.4480   28.9240   43.9230 H   0  0  0  0  0  0  0  0  0  0  0  0
   38.2860   28.8900   44.0730 H   0  0  0  0  0  0  0  0  0  0  0  0
   38.4090   29.7940   41.9770 H   0  0  0  0  0  0  0  0  0  0  0  0
   36.5250   27.7230   40.8190 H   0  0  0  0  0  0  0  0  0  0  0  0
   38.1960   28.2930   40.2670 H   0  0  0  0  0  0  0  0  0  0  0  0
   37.4930   23.4280   41.0680 C   0  0  0  0  0  0  0  0  0  0  0  0
   37.3230   24.6670   41.7130 C   0  0  0  0  0  0  0  0  0  0  0  0
   38.2650   25.6530   41.4450 C   0  0  0  0  0  0  0  0  0  0  0  0
   39.2920   25.3660   40.5800 N   0  0  0  0  0  0  0  0  0  0  0  0
   39.4230   24.1730   39.9830 C   0  0  0  0  0  0  0  0  0  0  0  0
   38.5370   23.2070   40.2180 N   0  0  0  0  0  0  0  0  0  0  0  0
   36.7580   22.6420   41.2690 H   0  0  0  0  0  0  0  0  0  0  0  0
   36.5170   24.8750   42.3850 H   0  0  0  0  0  0  0  0  0  0  0  0
   40.2780   24.0820   39.3260 H   0  0  0  0  0  0  0  0  0  0  0  0
   35.4440   31.6930   40.7620 H   0  0  0  0  0  0  0  0  0  0  0  0
   36.3730   31.1360   40.9230 C   0  0  0  0  0  0  0  0  0  0  0  0
   37.4410   31.4770   40.3680 O   0  0  0  0  0  0  0  0  0  0  0  0
   36.2950   30.0060   41.7960 N   0  0  0  0  0  0  0  0  0  0  0  0
   35.4330   29.6720   42.2890 H   0  0  0  0  0  0  0  0  0  0  0  0
  1  6  1  1  0  0  0
  1  2  1  0  0  0  0
  2  3  1  0  0  0  0
  2  7  1  0  0  0  0
  3  9  1  0  0  0  0
  3 10  1  0  0  0  0
  4 11  1  6  0  0  0
  4  3  1  0  0  0  0
  5  1  1  0  0  0  0
  5  4  1  0  0  0  0
  8  2  1  0  0  0  0
 12  5  1  0  0  0  0
 13  5  1  0  0  0  0
 14 20  1  0  0  0  0
 14 15  1  0  0  0  0
 15 21  1  0  0  0  0
 16 15  2  0  0  0  0
 16  1  1  0  0  0  0
 17 16  1  0  0  0  0
 18 19  1  0  0  0  0
 18 17  2  0  0  0  0
 19 14  2  0  0  0  0
 22 18  1  0  0  0  0
 23 24  1  0  0  0  0
 24 26  1  0  0  0  0
 25 24  2  0  0  0  0
 26  4  1  0  0  0  0
 26 27  1  0  0  0  0
M  END
>  <minimizedAffinity>
-4.20713949

$$$$

 OpenBabel03252507523D

 27 28  0  0  1  0  0  0  0  0999 V2000
   36.5950   28.6820   41.5760 C   0  0  2  0  0  0  0  0  0  0  0  0
   37.3660   28.8900   42.8410 C   0  0  0  0  0  0  0  0  0  0  0  0
   37.1400   27.5370   43.5090 C   0  0  0  0  0  0  0  0  0  0  0  0
   37.0730   26.5470   42.3720 C   0  0  1  0  0  0  0  0  0  0  0  0
   37.2160   27.3660   41.0920 C   0  0  0  0  0  0  0  0  0  0  0  0
   35.5380   28.4590   41.7500 H   0  0  0  0  0  0  0  0  0  0  0  0
   36.9010   29.6970   43.4430 H   0  0  0  0  0  0  0  0  0  0  0  0
   38.4240   29.0600   42.6350 H   0  0  0  0  0  0  0  0  0  0  0  0
   38.0280   27.3470   44.1310 H   0  0  0  0  0  0  0  0  0  0  0  0
   36.1990   27.5830   44.0930 H   0  0  0  0  0  0  0  0  0  0  0  0
   36.1020   26.0550   42.3960 H   0  0  0  0  0  0  0  0  0  0  0  0
   38.2660   27.4630   40.8120 H   0  0  0  0  0  0  0  0  0  0  0  0
   36.5780   26.8870   40.3220 H   0  0  0  0  0  0  0  0  0  0  0  0
   36.7160   30.6920   38.3820 C   0  0  0  0  0  0  0  0  0  0  0  0
   36.5690   29.5650   39.2130 C   0  0  0  0  0  0  0  0  0  0  0  0
   36.7290   29.7630   40.5790 C   0  0  0  0  0  0  0  0  0  0  0  0
   37.0170   31.0260   41.0340 N   0  0  0  0  0  0  0  0  0  0  0  0
   37.1500   32.0770   40.2120 C   0  0  0  0  0  0  0  0  0  0  0  0
   37.0020   31.9210   38.8980 N   0  0  0  0  0  0  0  0  0  0  0  0
   36.5930   30.5510   37.3030 H   0  0  0  0  0  0  0  0  0  0  0  0
   36.3450   28.5870   38.8430 H   0  0  0  0  0  0  0  0  0  0  0  0
   37.3770   33.0150   40.7020 H   0  0  0  0  0  0  0  0  0  0  0  0
   38.9080   23.6190   42.1290 H   0  0  0  0  0  0  0  0  0  0  0  0
   38.0370   24.2740   42.0160 C   0  0  0  0  0  0  0  0  0  0  0  0
   36.9740   23.8620   41.5030 O   0  0  0  0  0  0  0  0  0  0  0  0
   38.1870   25.6170   42.4870 N   0  0  0  0  0  0  0  0  0  0  0  0
   39.0480   26.0200   42.9250 H   0  0  0  0  0  0  0  0  0  0  0  0
  1  6  1  1  0  0  0
  1  2  1  0  0  0  0
  2  7  1  0  0  0  0
  2  3  1  0  0  0  0
  3 10  1  0  0  0  0
  3  9  1  0  0  0  0
  4 11  1  1  0  0  0
  4 26  1  0  0  0  0
  4  3  1  0  0  0  0
  5  1  1  0  0  0  0
  5  4  1  0  0  0  0
  8  2  1  0  0  0  0
 12  5  1  0  0  0  0
 13  5  1  0  0  0  0
 14 19  2  0  0  0  0
 14 15  1  0  0  0  0
 15 16  2  0  0  0  0
 16 17  1  0  0  0  0
 16  1  1  0  0  0  0
 18 22  1  0  0  0  0
 18 17  2  0  0  0  0
 19 18  1  0  0  0  0
 20 14  1  0  0  0  0
 21 15  1  0  0  0  0
 24 23  1  0  0  0  0
 24 26  1  0  0  0  0
 25 24  2  0  0  0  0
 26 27  1  0  0  0  0
M  END
>  <minimizedAffinity>
-4.20284081

$$$$

 OpenBabel03252507523D

 27 28  0  0  1  0  0  0  0  0999 V2000
   37.9800   28.9790   42.0610 C   0  0  2  0  0  0  0  0  0  0  0  0
   37.6130   28.9020   43.5090 C   0  0  0  0  0  0  0  0  0  0  0  0
   37.5410   27.3880   43.6790 C   0  0  0  0  0  0  0  0  0  0  0  0
   38.5920   26.8400   42.7460 C   0  0  1  0  0  0  0  0  0  0  0  0
   39.1990   28.0490   42.0390 C   0  0  0  0  0  0  0  0  0  0  0  0
   37.2410   28.5060   41.4060 H   0  0  0  0  0  0  0  0  0  0  0  0
   36.6140   29.3540   43.6740 H   0  0  0  0  0  0  0  0  0  0  0  0
   38.3920   29.3370   44.1370 H   0  0  0  0  0  0  0  0  0  0  0  0
   37.8130   27.1810   44.7260 H   0  0  0  0  0  0  0  0  0  0  0  0
   36.5190   27.0490   43.4190 H   0  0  0  0  0  0  0  0  0  0  0  0
   38.1090   26.1860   42.0220 H   0  0  0  0  0  0  0  0  0  0  0  0
   40.0470   28.4400   42.6030 H   0  0  0  0  0  0  0  0  0  0  0  0
   39.4410   27.7380   41.0030 H   0  0  0  0  0  0  0  0  0  0  0  0
   39.7140   32.2170   41.1890 C   0  0  0  0  0  0  0  0  0  0  0  0
   39.5510   30.9230   41.7160 C   0  0  0  0  0  0  0  0  0  0  0  0
   38.3010   30.3340   41.5690 C   0  0  0  0  0  0  0  0  0  0  0  0
   37.3110   31.0380   40.9290 N   0  0  0  0  0  0  0  0  0  0  0  0
   37.5020   32.2710   40.4380 C   0  0  0  0  0  0  0  0  0  0  0  0
   38.6890   32.8630   40.5620 N   0  0  0  0  0  0  0  0  0  0  0  0
   40.6930   32.6940   41.2970 H   0  0  0  0  0  0  0  0  0  0  0  0
   40.3320   30.3870   42.2140 H   0  0  0  0  0  0  0  0  0  0  0  0
   36.6380   32.7110   39.9580 H   0  0  0  0  0  0  0  0  0  0  0  0
   40.7020   24.3380   43.8790 H   0  0  0  0  0  0  0  0  0  0  0  0
   39.9240   24.7940   43.2590 C   0  0  0  0  0  0  0  0  0  0  0  0
   39.3400   24.1440   42.3640 O   0  0  0  0  0  0  0  0  0  0  0  0
   39.6170   26.1650   43.5290 N   0  0  0  0  0  0  0  0  0  0  0  0
   40.0690   26.7610   44.2620 H   0  0  0  0  0  0  0  0  0  0  0  0
  1  6  1  6  0  0  0
  1  2  1  0  0  0  0
  2  7  1  0  0  0  0
  2  3  1  0  0  0  0
  2  8  1  0  0  0  0
  3  9  1  0  0  0  0
  4 11  1  6  0  0  0
  4 26  1  0  0  0  0
  4  3  1  0  0  0  0
  5  1  1  0  0  0  0
  5 12  1  0  0  0  0
  5  4  1  0  0  0  0
 10  3  1  0  0  0  0
 13  5  1  0  0  0  0
 14 20  1  0  0  0  0
 14 15  1  0  0  0  0
 15 21  1  0  0  0  0
 16 15  2  0  0  0  0
 16  1  1  0  0  0  0
 17 16  1  0  0  0  0
 18 19  1  0  0  0  0
 18 17  2  0  0  0  0
 19 14  2  0  0  0  0
 22 18  1  0  0  0  0
 24 26  1  0  0  0  0
 24 23  1  0  0  0  0
 25 24  2  0  0  0  0
 26 27  1  0  0  0  0
M  END
>  <minimizedAffinity>
-4.02427721

$$$$

 OpenBabel03252507523D

 27 28  0  0  1  0  0  0  0  0999 V2000
   37.1350   28.8980   41.8810 C   0  0  2  0  0  0  0  0  0  0  0  0
   35.9680   28.5780   41.0000 C   0  0  0  0  0  0  0  0  0  0  0  0
   35.5460   29.9900   40.6070 C   0  0  0  0  0  0  0  0  0  0  0  0
   36.8310   30.7790   40.5440 C   0  0  1  0  0  0  0  0  0  0  0  0
   37.9390   29.8110   40.9480 C   0  0  0  0  0  0  0  0  0  0  0  0
   36.8660   29.5220   42.7390 H   0  0  0  0  0  0  0  0  0  0  0  0
   35.1680   28.0900   41.5910 H   0  0  0  0  0  0  0  0  0  0  0  0
   36.2790   27.9980   40.1300 H   0  0  0  0  0  0  0  0  0  0  0  0
   35.0970   29.9100   39.6050 H   0  0  0  0  0  0  0  0  0  0  0  0
   34.8420   30.3760   41.3700 H   0  0  0  0  0  0  0  0  0  0  0  0
   36.7700   31.5990   41.2580 H   0  0  0  0  0  0  0  0  0  0  0  0
   38.3340   29.2910   40.0740 H   0  0  0  0  0  0  0  0  0  0  0  0
   38.6930   30.3920   41.5160 H   0  0  0  0  0  0  0  0  0  0  0  0
   38.4990   25.4170   42.4050 C   0  0  0  0  0  0  0  0  0  0  0  0
   37.6650   26.4320   41.9000 C   0  0  0  0  0  0  0  0  0  0  0  0
   37.9170   27.7280   42.3300 C   0  0  0  0  0  0  0  0  0  0  0  0
   38.9480   27.9430   43.2110 N   0  0  0  0  0  0  0  0  0  0  0  0
   39.7230   26.9510   43.6720 C   0  0  0  0  0  0  0  0  0  0  0  0
   39.5080   25.6970   43.2790 N   0  0  0  0  0  0  0  0  0  0  0  0
   38.3120   24.3900   42.0740 H   0  0  0  0  0  0  0  0  0  0  0  0
   36.8650   26.2480   41.2140 H   0  0  0  0  0  0  0  0  0  0  0  0
   40.4980   27.2590   44.3610 H   0  0  0  0  0  0  0  0  0  0  0  0
   37.4380   32.8960   37.8710 H   0  0  0  0  0  0  0  0  0  0  0  0
   37.2830   32.6160   38.9180 C   0  0  0  0  0  0  0  0  0  0  0  0
   37.3140   33.4680   39.8320 O   0  0  0  0  0  0  0  0  0  0  0  0
   37.0460   31.2290   39.1770 N   0  0  0  0  0  0  0  0  0  0  0  0
   37.0080   30.4690   38.4570 H   0  0  0  0  0  0  0  0  0  0  0  0
  1 16  1  0  0  0  0
  1  6  1  1  0  0  0
  2  7  1  0  0  0  0
  2  1  1  0  0  0  0
  3  2  1  0  0  0  0
  3 10  1  0  0  0  0
  4  3  1  0  0  0  0
  4  5  1  0  0  0  0
  4 11  1  1  0  0  0
  5 13  1  0  0  0  0
  5  1  1  0  0  0  0
  8  2  1  0  0  0  0
  9  3  1  0  0  0  0
 12  5  1  0  0  0  0
 14 19  1  0  0  0  0
 15 16  1  0  0  0  0
 15 14  2  0  0  0  0
 16 17  2  0  0  0  0
 17 18  1  0  0  0  0
 18 22  1  0  0  0  0
 19 18  2  0  0  0  0
 20 14  1  0  0  0  0
 21 15  1  0  0  0  0
 23 24  1  0  0  0  0
 24 26  1  0  0  0  0
 24 25  2  0  0  0  0
 26  4  1  0  0  0  0
 27 26  1  0  0  0  0
M  END
>  <minimizedAffinity>
-4.02128983

$$$$

 OpenBabel03252507523D

 27 28  0  0  1  0  0  0  0  0999 V2000
   36.2770   29.1890   39.4820 C   0  0  2  0  0  0  0  0  0  0  0  0
   35.6260   29.5240   40.7860 C   0  0  0  0  0  0  0  0  0  0  0  0
   36.6360   30.5290   41.3300 C   0  0  0  0  0  0  0  0  0  0  0  0
   37.1700   31.2430   40.1130 C   0  0  1  0  0  0  0  0  0  0  0  0
   36.4860   30.5970   38.9120 C   0  0  0  0  0  0  0  0  0  0  0  0
   37.2800   28.7690   39.5990 H   0  0  0  0  0  0  0  0  0  0  0  0
   35.5910   28.6260   41.4360 H   0  0  0  0  0  0  0  0  0  0  0  0
   34.6490   29.9850   40.6330 H   0  0  0  0  0  0  0  0  0  0  0  0
   36.0680   31.2260   41.9650 H   0  0  0  0  0  0  0  0  0  0  0  0
   37.4230   29.9780   41.8820 H   0  0  0  0  0  0  0  0  0  0  0  0
   38.2460   31.0860   40.0610 H   0  0  0  0  0  0  0  0  0  0  0  0
   35.5510   31.1090   38.6780 H   0  0  0  0  0  0  0  0  0  0  0  0
   37.2210   30.5830   38.0820 H   0  0  0  0  0  0  0  0  0  0  0  0
   33.6900   27.8680   37.0690 C   0  0  0  0  0  0  0  0  0  0  0  0
   34.3530   28.7920   37.8980 C   0  0  0  0  0  0  0  0  0  0  0  0
   35.4720   28.3360   38.5840 C   0  0  0  0  0  0  0  0  0  0  0  0
   35.8600   27.0290   38.4180 N   0  0  0  0  0  0  0  0  0  0  0  0
   35.2030   26.1760   37.6190 C   0  0  0  0  0  0  0  0  0  0  0  0
   34.1280   26.5820   36.9470 N   0  0  0  0  0  0  0  0  0  0  0  0
   32.8070   28.2140   36.5220 H   0  0  0  0  0  0  0  0  0  0  0  0
   34.0380   29.8080   38.0170 H   0  0  0  0  0  0  0  0  0  0  0  0
   35.6160   25.1760   37.5800 H   0  0  0  0  0  0  0  0  0  0  0  0
   37.4500   34.6930   39.9830 H   0  0  0  0  0  0  0  0  0  0  0  0
   37.7830   33.6530   39.9100 C   0  0  0  0  0  0  0  0  0  0  0  0
   38.9600   33.3660   39.6000 O   0  0  0  0  0  0  0  0  0  0  0  0
   36.8020   32.6500   40.1890 N   0  0  0  0  0  0  0  0  0  0  0  0
   35.8040   32.8260   40.4540 H   0  0  0  0  0  0  0  0  0  0  0  0
  1  6  1  1  0  0  0
  1  2  1  0  0  0  0
  2  3  1  0  0  0  0
  2  7  1  0  0  0  0
  3 10  1  0  0  0  0
  3  9  1  0  0  0  0
  4 11  1  6  0  0  0
  4 26  1  0  0  0  0
  4  3  1  0  0  0  0
  5  1  1  0  0  0  0
  5  4  1  0  0  0  0
  8  2  1  0  0  0  0
 12  5  1  0  0  0  0
 13  5  1  0  0  0  0
 14 15  1  0  0  0  0
 15 21  1  0  0  0  0
 15 16  2  0  0  0  0
 16  1  1  0  0  0  0
 17 16  1  0  0  0  0
 18 17  2  0  0  0  0
 19 14  2  0  0  0  0
 19 18  1  0  0  0  0
 20 14  1  0  0  0  0
 22 18  1  0  0  0  0
 24 23  1  0  0  0  0
 24 26  1  0  0  0  0
 25 24  2  0  0  0  0
 26 27  1  0  0  0  0
M  END
>  <minimizedAffinity>
-3.99598384

$$$$

 OpenBabel03252507523D

 27 28  0  0  1  0  0  0  0  0999 V2000
   37.4030   32.0830   40.3780 C   0  0  2  0  0  0  0  0  0  0  0  0
   37.3250   33.3120   39.5280 C   0  0  0  0  0  0  0  0  0  0  0  0
   38.4010   34.1600   40.1980 C   0  0  0  0  0  0  0  0  0  0  0  0
   39.4400   33.1730   40.6700 C   0  0  1  0  0  0  0  0  0  0  0  0
   38.9070   31.7920   40.2990 C   0  0  0  0  0  0  0  0  0  0  0  0
   37.2010   32.2800   41.4350 H   0  0  0  0  0  0  0  0  0  0  0  0
   36.3330   33.7920   39.6430 H   0  0  0  0  0  0  0  0  0  0  0  0
   37.5820   33.0900   38.4910 H   0  0  0  0  0  0  0  0  0  0  0  0
   38.8180   34.8080   39.4120 H   0  0  0  0  0  0  0  0  0  0  0  0
   37.9390   34.7270   41.0310 H   0  0  0  0  0  0  0  0  0  0  0  0
   39.5370   33.2590   41.7510 H   0  0  0  0  0  0  0  0  0  0  0  0
   39.2360   31.5080   39.2980 H   0  0  0  0  0  0  0  0  0  0  0  0
   39.2170   31.0920   41.1010 H   0  0  0  0  0  0  0  0  0  0  0  0
   35.0870   29.1090   40.1640 C   0  0  0  0  0  0  0  0  0  0  0  0
   35.8230   30.1530   40.7560 C   0  0  0  0  0  0  0  0  0  0  0  0
   36.5870   30.9460   39.9080 C   0  0  0  0  0  0  0  0  0  0  0  0
   36.5810   30.6700   38.5630 N   0  0  0  0  0  0  0  0  0  0  0  0
   35.8670   29.6660   38.0340 C   0  0  0  0  0  0  0  0  0  0  0  0
   35.1240   28.8880   38.8190 N   0  0  0  0  0  0  0  0  0  0  0  0
   34.4810   28.4760   40.8200 H   0  0  0  0  0  0  0  0  0  0  0  0
   35.8180   30.3550   41.8060 H   0  0  0  0  0  0  0  0  0  0  0  0
   35.9530   29.5600   36.9600 H   0  0  0  0  0  0  0  0  0  0  0  0
   42.8370   33.2830   40.0030 H   0  0  0  0  0  0  0  0  0  0  0  0
   41.9310   33.0720   40.5800 C   0  0  0  0  0  0  0  0  0  0  0  0
   41.9880   32.5510   41.7150 O   0  0  0  0  0  0  0  0  0  0  0  0
   40.6880   33.4230   39.9640 N   0  0  0  0  0  0  0  0  0  0  0  0
   40.5750   33.8600   39.0200 H   0  0  0  0  0  0  0  0  0  0  0  0
  1  6  1  1  0  0  0
  2  7  1  0  0  0  0
  2  3  1  0  0  0  0
  2  1  1  0  0  0  0
  3  4  1  0  0  0  0
  3 10  1  0  0  0  0
  4 11  1  1  0  0  0
  5  1  1  0  0  0  0
  5  4  1  0  0  0  0
  5 13  1  0  0  0  0
  8  2  1  0  0  0  0
  9  3  1  0  0  0  0
 12  5  1  0  0  0  0
 14 15  1  0  0  0  0
 14 20  1  0  0  0  0
 15 21  1  0  0  0  0
 16  1  1  0  0  0  0
 16 15  2  0  0  0  0
 17 16  1  0  0  0  0
 18 17  2  0  0  0  0
 18 19  1  0  0  0  0
 19 14  2  0  0  0  0
 22 18  1  0  0  0  0
 23 24  1  0  0  0  0
 24 25  2  0  0  0  0
 26 24  1  0  0  0  0
 26  4  1  0  0  0  0
 27 26  1  0  0  0  0
M  END
>  <minimizedAffinity>
-3.98788619

$$$$
