
 OpenBabel03252506193D

 19 19  0  0  0  0  0  0  0  0999 V2000
   38.0530   29.4930   41.7490 C   0  0  0  0  0  0  0  0  0  0  0  0
   36.9060   28.6790   41.7010 C   0  0  0  0  0  0  0  0  0  0  0  0
   35.7540   29.1610   41.0530 C   0  0  0  0  0  0  0  0  0  0  0  0
   35.8230   30.3930   40.5100 N   0  0  0  0  0  0  0  0  0  0  0  0
   36.9430   31.1580   40.5730 C   0  0  0  0  0  0  0  0  0  0  0  0
   38.0410   30.7140   41.1820 N   0  0  0  0  0  0  0  0  0  0  0  0
   36.8770   27.7060   42.1400 H   0  0  0  0  0  0  0  0  0  0  0  0
   34.8520   28.5930   40.9830 H   0  0  0  0  0  0  0  0  0  0  0  0
   37.9000   34.3640   39.7890 H   0  0  0  0  0  0  0  0  0  0  0  0
   37.9950   33.3980   40.3050 C   0  0  0  0  0  0  0  0  0  0  0  0
   38.8750   33.0060   41.1300 O   0  0  0  0  0  0  0  0  0  0  0  0
   36.9490   32.4610   39.9740 N   0  0  0  0  0  0  0  0  0  0  0  0
   36.1870   32.7190   39.2980 H   0  0  0  0  0  0  0  0  0  0  0  0
   39.2330   28.9660   42.4290 C   0  0  0  0  0  3  0  0  0  0  0  0
   39.1410   27.7510   42.9750 C   0  0  0  0  0  3  0  0  0  0  0  0
   40.3360   27.1850   43.6800 C   0  0  0  0  0  0  0  0  0  0  0  0
   40.0240   26.3040   44.2780 H   0  0  0  0  0  0  0  0  0  0  0  0
   41.1160   26.8310   42.9710 H   0  0  0  0  0  0  0  0  0  0  0  0
   40.7930   27.9250   44.3730 H   0  0  0  0  0  0  0  0  0  0  0  0
  1 14  1  0  0  0  0
  2  1  1  0  0  0  0
  2  7  1  0  0  0  0
  3  2  2  0  0  0  0
  4  5  2  0  0  0  0
  4  3  1  0  0  0  0
  5  6  1  0  0  0  0
  6  1  2  0  0  0  0
  8  3  1  0  0  0  0
  9 10  1  0  0  0  0
 10 11  2  0  0  0  0
 12 10  1  0  0  0  0
 12  5  1  0  0  0  0
 13 12  1  0  0  0  0
 14 15  2  0  0  0  0
 15 16  1  0  0  0  0
 16 17  1  0  0  0  0
 16 19  1  0  0  0  0
 18 16  1  0  0  0  0
M  END
>  <minimizedAffinity>
-4.03006792

$$$$

 OpenBabel03252506193D

 19 19  0  0  0  0  0  0  0  0999 V2000
   37.3740   26.9650   42.2000 C   0  0  0  0  0  0  0  0  0  0  0  0
   38.3100   27.5080   43.1000 C   0  0  0  0  0  0  0  0  0  0  0  0
   38.3540   28.9020   43.2800 C   0  0  0  0  0  0  0  0  0  0  0  0
   37.4830   29.6440   42.5660 N   0  0  0  0  0  0  0  0  0  0  0  0
   36.5920   29.0930   41.7030 C   0  0  0  0  0  0  0  0  0  0  0  0
   36.5380   27.7750   41.5230 N   0  0  0  0  0  0  0  0  0  0  0  0
   38.9900   26.8990   43.6550 H   0  0  0  0  0  0  0  0  0  0  0  0
   39.0410   29.3760   43.9480 H   0  0  0  0  0  0  0  0  0  0  0  0
   34.3170   30.1500   39.3530 H   0  0  0  0  0  0  0  0  0  0  0  0
   34.9770   29.4150   39.8350 C   0  0  0  0  0  0  0  0  0  0  0  0
   35.1890   28.2000   39.5350 O   0  0  0  0  0  0  0  0  0  0  0  0
   35.6930   29.9390   40.9730 N   0  0  0  0  0  0  0  0  0  0  0  0
   35.5650   30.9370   41.2790 H   0  0  0  0  0  0  0  0  0  0  0  0
   37.3530   25.5150   42.0340 C   0  0  0  0  0  3  0  0  0  0  0  0
   37.0170   25.0330   40.8340 C   0  0  0  0  0  3  0  0  0  0  0  0
   36.9860   23.5490   40.6360 C   0  0  0  0  0  0  0  0  0  0  0  0
   36.4580   23.3180   39.6880 H   0  0  0  0  0  0  0  0  0  0  0  0
   38.0050   23.1120   40.5500 H   0  0  0  0  0  0  0  0  0  0  0  0
   36.4460   23.0350   41.4620 H   0  0  0  0  0  0  0  0  0  0  0  0
  1  2  1  0  0  0  0
  2  3  2  0  0  0  0
  2  7  1  0  0  0  0
  3  8  1  0  0  0  0
  4  3  1  0  0  0  0
  5  4  2  0  0  0  0
  6  5  1  0  0  0  0
  6  1  2  0  0  0  0
  9 10  1  0  0  0  0
 10 12  1  0  0  0  0
 11 10  2  0  0  0  0
 12 13  1  0  0  0  0
 12  5  1  0  0  0  0
 14  1  1  0  0  0  0
 15 14  2  0  0  0  0
 16 15  1  0  0  0  0
 16 19  1  0  0  0  0
 17 16  1  0  0  0  0
 18 16  1  0  0  0  0
M  END
>  <minimizedAffinity>
-4.01374674

$$$$

 OpenBabel03252506193D

 19 19  0  0  0  0  0  0  0  0999 V2000
   38.6820   30.4110   41.7010 C   0  0  0  0  0  0  0  0  0  0  0  0
   37.6110   29.5210   41.9090 C   0  0  0  0  0  0  0  0  0  0  0  0
   36.3340   29.8660   41.4310 C   0  0  0  0  0  0  0  0  0  0  0  0
   36.2140   31.0480   40.7930 N   0  0  0  0  0  0  0  0  0  0  0  0
   37.2640   31.8870   40.6070 C   0  0  0  0  0  0  0  0  0  0  0  0
   38.4790   31.5730   41.0530 N   0  0  0  0  0  0  0  0  0  0  0  0
   37.7330   28.5900   42.4180 H   0  0  0  0  0  0  0  0  0  0  0  0
   35.4820   29.2350   41.5570 H   0  0  0  0  0  0  0  0  0  0  0  0
   37.8190   35.0690   39.4320 H   0  0  0  0  0  0  0  0  0  0  0  0
   38.0750   34.1610   39.9960 C   0  0  0  0  0  0  0  0  0  0  0  0
   39.1070   33.9030   40.6870 O   0  0  0  0  0  0  0  0  0  0  0  0
   37.0670   33.1310   39.9190 N   0  0  0  0  0  0  0  0  0  0  0  0
   36.1870   33.2760   39.3630 H   0  0  0  0  0  0  0  0  0  0  0  0
   39.9950   30.0260   42.2090 C   0  0  0  0  0  3  0  0  0  0  0  0
   40.1740   28.7480   42.5570 C   0  0  0  0  0  3  0  0  0  0  0  0
   41.5110   28.3250   43.0830 C   0  0  0  0  0  0  0  0  0  0  0  0
   41.4190   27.3220   43.5500 H   0  0  0  0  0  0  0  0  0  0  0  0
   42.2720   28.2340   42.2780 H   0  0  0  0  0  0  0  0  0  0  0  0
   41.8910   29.0290   43.8550 H   0  0  0  0  0  0  0  0  0  0  0  0
  1  2  1  0  0  0  0
  1 14  1  0  0  0  0
  2  7  1  0  0  0  0
  3  8  1  0  0  0  0
  3  2  2  0  0  0  0
  4  3  1  0  0  0  0
  5  4  2  0  0  0  0
  5  6  1  0  0  0  0
  6  1  2  0  0  0  0
  9 10  1  0  0  0  0
 10 11  2  0  0  0  0
 12 10  1  0  0  0  0
 12  5  1  0  0  0  0
 13 12  1  0  0  0  0
 14 15  2  0  0  0  0
 15 16  1  0  0  0  0
 16 17  1  0  0  0  0
 16 19  1  0  0  0  0
 18 16  1  0  0  0  0
M  END
>  <minimizedAffinity>
-3.99406958

$$$$

 OpenBabel03252506193D

 19 19  0  0  0  0  0  0  0  0999 V2000
   35.9570   29.7360   40.4280 C   0  0  0  0  0  0  0  0  0  0  0  0
   36.4770   30.9800   40.0230 C   0  0  0  0  0  0  0  0  0  0  0  0
   37.6250   31.4810   40.6630 C   0  0  0  0  0  0  0  0  0  0  0  0
   38.1640   30.7250   41.6400 N   0  0  0  0  0  0  0  0  0  0  0  0
   37.6410   29.5290   42.0110 C   0  0  0  0  0  0  0  0  0  0  0  0
   36.5550   29.0420   41.4140 N   0  0  0  0  0  0  0  0  0  0  0  0
   36.0300   31.5600   39.2450 H   0  0  0  0  0  0  0  0  0  0  0  0
   38.0680   32.4170   40.4020 H   0  0  0  0  0  0  0  0  0  0  0  0
   38.1260   27.1750   44.4690 H   0  0  0  0  0  0  0  0  0  0  0  0
   37.5530   27.6820   43.6790 C   0  0  0  0  0  0  0  0  0  0  0  0
   36.3840   27.4430   43.2490 O   0  0  0  0  0  0  0  0  0  0  0  0
   38.2640   28.7740   43.0600 N   0  0  0  0  0  0  0  0  0  0  0  0
   39.2370   29.0270   43.3660 H   0  0  0  0  0  0  0  0  0  0  0  0
   34.7640   29.2440   39.7460 C   0  0  0  0  0  3  0  0  0  0  0  0
   34.8320   29.0750   38.4230 C   0  0  0  0  0  3  0  0  0  0  0  0
   33.6230   28.5710   37.6970 C   0  0  0  0  0  0  0  0  0  0  0  0
   33.7610   28.7250   36.6060 H   0  0  0  0  0  0  0  0  0  0  0  0
   33.4620   27.4820   37.8490 H   0  0  0  0  0  0  0  0  0  0  0  0
   32.7020   29.1140   38.0050 H   0  0  0  0  0  0  0  0  0  0  0  0
  1  6  1  0  0  0  0
  2  1  2  0  0  0  0
  2  3  1  0  0  0  0
  3  4  2  0  0  0  0
  4  5  1  0  0  0  0
  5 12  1  0  0  0  0
  6  5  2  0  0  0  0
  7  2  1  0  0  0  0
  8  3  1  0  0  0  0
 10  9  1  0  0  0  0
 11 10  2  0  0  0  0
 12 13  1  0  0  0  0
 12 10  1  0  0  0  0
 14  1  1  0  0  0  0
 15 14  2  0  0  0  0
 16 18  1  0  0  0  0
 16 19  1  0  0  0  0
 16 15  1  0  0  0  0
 17 16  1  0  0  0  0
M  END
>  <minimizedAffinity>
-3.94304228

$$$$

 OpenBabel03252506193D

 19 19  0  0  0  0  0  0  0  0999 V2000
   37.5500   30.8190   40.6720 C   0  0  0  0  0  0  0  0  0  0  0  0
   36.8000   30.7170   39.4850 C   0  0  0  0  0  0  0  0  0  0  0  0
   35.8490   29.6880   39.3660 C   0  0  0  0  0  0  0  0  0  0  0  0
   35.7130   28.8490   40.4130 N   0  0  0  0  0  0  0  0  0  0  0  0
   36.4510   28.9700   41.5450 C   0  0  0  0  0  0  0  0  0  0  0  0
   37.3550   29.9400   41.6730 N   0  0  0  0  0  0  0  0  0  0  0  0
   36.9260   31.3950   38.6700 H   0  0  0  0  0  0  0  0  0  0  0  0
   35.2480   29.5570   38.4920 H   0  0  0  0  0  0  0  0  0  0  0  0
   36.9860   27.2140   44.4510 H   0  0  0  0  0  0  0  0  0  0  0  0
   37.2360   27.9560   43.6800 C   0  0  0  0  0  0  0  0  0  0  0  0
   38.2420   28.7250   43.5940 O   0  0  0  0  0  0  0  0  0  0  0  0
   36.2570   28.0430   42.6230 N   0  0  0  0  0  0  0  0  0  0  0  0
   35.3990   27.4370   42.6300 H   0  0  0  0  0  0  0  0  0  0  0  0
   38.5300   31.8970   40.7670 C   0  0  0  0  0  3  0  0  0  0  0  0
   38.2600   33.0370   40.1250 C   0  0  0  0  0  3  0  0  0  0  0  0
   39.2480   34.1600   40.2040 C   0  0  0  0  0  0  0  0  0  0  0  0
   39.0020   34.9180   39.4320 H   0  0  0  0  0  0  0  0  0  0  0  0
   39.2180   34.6810   41.1860 H   0  0  0  0  0  0  0  0  0  0  0  0
   40.2870   33.8070   40.0190 H   0  0  0  0  0  0  0  0  0  0  0  0
  1 14  1  0  0  0  0
  1  6  1  0  0  0  0
  2  1  2  0  0  0  0
  3  2  1  0  0  0  0
  3  4  2  0  0  0  0
  4  5  1  0  0  0  0
  5  6  2  0  0  0  0
  5 12  1  0  0  0  0
  7  2  1  0  0  0  0
  8  3  1  0  0  0  0
 10  9  1  0  0  0  0
 11 10  2  0  0  0  0
 12 13  1  0  0  0  0
 12 10  1  0  0  0  0
 15 16  1  0  0  0  0
 15 14  2  0  0  0  0
 16 18  1  0  0  0  0
 17 16  1  0  0  0  0
 19 16  1  0  0  0  0
M  END
>  <minimizedAffinity>
-3.87326336

$$$$

 OpenBabel03252506193D

 19 19  0  0  0  0  0  0  0  0999 V2000
   37.1010   29.9680   40.6670 C   0  0  0  0  0  0  0  0  0  0  0  0
   36.2870   29.3780   39.6810 C   0  0  0  0  0  0  0  0  0  0  0  0
   36.2100   29.9790   38.4120 C   0  0  0  0  0  0  0  0  0  0  0  0
   36.9320   31.1010   38.2160 N   0  0  0  0  0  0  0  0  0  0  0  0
   37.7080   31.6490   39.1860 C   0  0  0  0  0  0  0  0  0  0  0  0
   37.7920   31.0900   40.3920 N   0  0  0  0  0  0  0  0  0  0  0  0
   35.7250   28.4880   39.8620 H   0  0  0  0  0  0  0  0  0  0  0  0
   35.6110   29.5820   37.6220 H   0  0  0  0  0  0  0  0  0  0  0  0
   39.5590   34.5030   39.6750 H   0  0  0  0  0  0  0  0  0  0  0  0
   39.0110   33.6080   40.0010 C   0  0  0  0  0  0  0  0  0  0  0  0
   38.8090   33.1660   41.1730 O   0  0  0  0  0  0  0  0  0  0  0  0
   38.4510   32.8450   38.9120 N   0  0  0  0  0  0  0  0  0  0  0  0
   38.5790   33.1520   37.9150 H   0  0  0  0  0  0  0  0  0  0  0  0
   37.1610   29.3220   41.9750 C   0  0  0  0  0  3  0  0  0  0  0  0
   36.5540   28.1390   42.1100 C   0  0  0  0  0  3  0  0  0  0  0  0
   36.5990   27.4530   43.4400 C   0  0  0  0  0  0  0  0  0  0  0  0
   35.8540   26.6310   43.4530 H   0  0  0  0  0  0  0  0  0  0  0  0
   37.5890   26.9920   43.6450 H   0  0  0  0  0  0  0  0  0  0  0  0
   36.3520   28.1510   44.2710 H   0  0  0  0  0  0  0  0  0  0  0  0
  1 14  1  0  0  0  0
  2  7  1  0  0  0  0
  2  1  2  0  0  0  0
  3  2  1  0  0  0  0
  4  3  2  0  0  0  0
  4  5  1  0  0  0  0
  5  6  2  0  0  0  0
  6  1  1  0  0  0  0
  8  3  1  0  0  0  0
  9 10  1  0  0  0  0
 10 11  2  0  0  0  0
 12  5  1  0  0  0  0
 12 10  1  0  0  0  0
 13 12  1  0  0  0  0
 14 15  2  0  0  0  0
 15 16  1  0  0  0  0
 16 17  1  0  0  0  0
 16 18  1  0  0  0  0
 16 19  1  0  0  0  0
M  END
>  <minimizedAffinity>
-3.85609055

$$$$

 OpenBabel03252506193D

 19 19  0  0  0  0  0  0  0  0999 V2000
   35.7210   29.3850   39.0630 C   0  0  0  0  0  0  0  0  0  0  0  0
   35.7430   28.4510   40.1160 C   0  0  0  0  0  0  0  0  0  0  0  0
   36.2310   28.8520   41.3730 C   0  0  0  0  0  0  0  0  0  0  0  0
   36.6550   30.1260   41.4920 N   0  0  0  0  0  0  0  0  0  0  0  0
   36.6230   31.0060   40.4580 C   0  0  0  0  0  0  0  0  0  0  0  0
   36.1620   30.6410   39.2630 N   0  0  0  0  0  0  0  0  0  0  0  0
   35.4020   27.4460   39.9960 H   0  0  0  0  0  0  0  0  0  0  0  0
   36.2750   28.1910   42.2110 H   0  0  0  0  0  0  0  0  0  0  0  0
   37.7130   34.1930   39.7760 H   0  0  0  0  0  0  0  0  0  0  0  0
   37.3620   33.1860   39.5100 C   0  0  0  0  0  0  0  0  0  0  0  0
   37.1700   32.6730   38.3650 O   0  0  0  0  0  0  0  0  0  0  0  0
   37.0890   32.3490   40.6530 N   0  0  0  0  0  0  0  0  0  0  0  0
   37.2250   32.7080   41.6310 H   0  0  0  0  0  0  0  0  0  0  0  0
   35.2100   28.9400   37.7700 C   0  0  0  0  0  3  0  0  0  0  0  0
   33.8840   28.8860   37.6130 C   0  0  0  0  0  3  0  0  0  0  0  0
   33.3310   28.4320   36.2970 C   0  0  0  0  0  0  0  0  0  0  0  0
   32.2500   28.2070   36.4130 H   0  0  0  0  0  0  0  0  0  0  0  0
   33.4130   29.2140   35.5120 H   0  0  0  0  0  0  0  0  0  0  0  0
   33.8360   27.5090   35.9360 H   0  0  0  0  0  0  0  0  0  0  0  0
  1  6  2  0  0  0  0
  1  2  1  0  0  0  0
  2  3  2  0  0  0  0
  3  4  1  0  0  0  0
  3  8  1  0  0  0  0
  5 12  1  0  0  0  0
  5  4  2  0  0  0  0
  6  5  1  0  0  0  0
  7  2  1  0  0  0  0
 10  9  1  0  0  0  0
 10 12  1  0  0  0  0
 11 10  2  0  0  0  0
 12 13  1  0  0  0  0
 14  1  1  0  0  0  0
 15 14  2  0  0  0  0
 16 17  1  0  0  0  0
 16 15  1  0  0  0  0
 18 16  1  0  0  0  0
 19 16  1  0  0  0  0
M  END
>  <minimizedAffinity>
-3.84160113

$$$$

 OpenBabel03252506193D

 19 19  0  0  0  0  0  0  0  0999 V2000
   37.3970   31.6280   39.6640 C   0  0  0  0  0  0  0  0  0  0  0  0
   37.1950   32.9710   39.2940 C   0  0  0  0  0  0  0  0  0  0  0  0
   37.9730   33.9710   39.9050 C   0  0  0  0  0  0  0  0  0  0  0  0
   38.8780   33.5740   40.8220 N   0  0  0  0  0  0  0  0  0  0  0  0
   39.0510   32.2700   41.1600 C   0  0  0  0  0  0  0  0  0  0  0  0
   38.3230   31.3130   40.5890 N   0  0  0  0  0  0  0  0  0  0  0  0
   36.4700   33.2600   38.5640 H   0  0  0  0  0  0  0  0  0  0  0  0
   37.8670   35.0080   39.6690 H   0  0  0  0  0  0  0  0  0  0  0  0
   40.8040   30.4400   43.4820 H   0  0  0  0  0  0  0  0  0  0  0  0
   40.0070   30.6030   42.7420 C   0  0  0  0  0  0  0  0  0  0  0  0
   39.0930   29.8140   42.3540 O   0  0  0  0  0  0  0  0  0  0  0  0
   40.0330   31.9150   42.1440 N   0  0  0  0  0  0  0  0  0  0  0  0
   40.7630   32.6200   42.4180 H   0  0  0  0  0  0  0  0  0  0  0  0
   36.5750   30.6120   39.0130 C   0  0  0  0  0  3  0  0  0  0  0  0
   36.8210   30.3470   37.7270 C   0  0  0  0  0  3  0  0  0  0  0  0
   35.9920   29.3100   37.0330 C   0  0  0  0  0  0  0  0  0  0  0  0
   36.1490   29.3900   35.9370 H   0  0  0  0  0  0  0  0  0  0  0  0
   36.2790   28.2760   37.3240 H   0  0  0  0  0  0  0  0  0  0  0  0
   34.9070   29.4490   37.2350 H   0  0  0  0  0  0  0  0  0  0  0  0
  1  6  1  0  0  0  0
  2  1  2  0  0  0  0
  2  3  1  0  0  0  0
  3  4  2  0  0  0  0
  4  5  1  0  0  0  0
  5 12  1  0  0  0  0
  6  5  2  0  0  0  0
  7  2  1  0  0  0  0
  8  3  1  0  0  0  0
 10  9  1  0  0  0  0
 11 10  2  0  0  0  0
 12 13  1  0  0  0  0
 12 10  1  0  0  0  0
 14  1  1  0  0  0  0
 15 14  2  0  0  0  0
 16 19  1  0  0  0  0
 16 18  1  0  0  0  0
 16 15  1  0  0  0  0
 17 16  1  0  0  0  0
M  END
>  <minimizedAffinity>
-3.8039577

$$$$

 OpenBabel03252506193D

 19 19  0  0  0  0  0  0  0  0999 V2000
   36.7200   28.4120   41.6450 C   0  0  0  0  0  0  0  0  0  0  0  0
   37.3680   29.4550   42.3330 C   0  0  0  0  0  0  0  0  0  0  0  0
   38.4870   29.1530   43.1310 C   0  0  0  0  0  0  0  0  0  0  0  0
   38.8730   27.8630   43.1880 N   0  0  0  0  0  0  0  0  0  0  0  0
   38.2270   26.8770   42.5130 C   0  0  0  0  0  0  0  0  0  0  0  0
   37.1680   27.1480   41.7530 N   0  0  0  0  0  0  0  0  0  0  0  0
   37.0420   30.4700   42.2720 H   0  0  0  0  0  0  0  0  0  0  0  0
   39.0220   29.8980   43.6790 H   0  0  0  0  0  0  0  0  0  0  0  0
   38.3000   23.4470   42.3070 H   0  0  0  0  0  0  0  0  0  0  0  0
   37.8440   24.4390   42.1820 C   0  0  0  0  0  0  0  0  0  0  0  0
   36.7050   24.7530   41.7190 O   0  0  0  0  0  0  0  0  0  0  0  0
   38.6910   25.5230   42.6170 N   0  0  0  0  0  0  0  0  0  0  0  0
   39.6470   25.3370   43.0110 H   0  0  0  0  0  0  0  0  0  0  0  0
   35.5620   28.7560   40.8250 C   0  0  0  0  0  3  0  0  0  0  0  0
   35.6440   28.5310   39.5110 C   0  0  0  0  0  3  0  0  0  0  0  0
   34.4710   28.8750   38.6450 C   0  0  0  0  0  0  0  0  0  0  0  0
   34.7870   28.8660   37.5810 H   0  0  0  0  0  0  0  0  0  0  0  0
   33.6450   28.1390   38.7410 H   0  0  0  0  0  0  0  0  0  0  0  0
   34.0740   29.8890   38.8750 H   0  0  0  0  0  0  0  0  0  0  0  0
  1  6  2  0  0  0  0
  1  2  1  0  0  0  0
  2  3  2  0  0  0  0
  3  4  1  0  0  0  0
  3  8  1  0  0  0  0
  5 12  1  0  0  0  0
  5  4  2  0  0  0  0
  6  5  1  0  0  0  0
  7  2  1  0  0  0  0
 10  9  1  0  0  0  0
 10 12  1  0  0  0  0
 11 10  2  0  0  0  0
 12 13  1  0  0  0  0
 14  1  1  0  0  0  0
 15 14  2  0  0  0  0
 16 18  1  0  0  0  0
 16 19  1  0  0  0  0
 16 15  1  0  0  0  0
 17 16  1  0  0  0  0
M  END
>  <minimizedAffinity>
-3.80063486

$$$$
