
 OpenBabel03252501313D

 16 16  0  0  0  0  0  0  0  0999 V2000
   36.6450   28.8480   41.7360 C   0  0  0  0  0  0  0  0  0  0  0  0
   35.9410   29.6470   40.8380 C   0  0  0  0  0  0  0  0  0  0  0  0
   35.5960   29.0780   39.6170 C   0  0  0  0  0  0  0  0  0  0  0  0
   35.9680   27.7980   39.3910 N   0  0  0  0  0  0  0  0  0  0  0  0
   36.6470   27.0520   40.2750 C   0  0  0  0  0  0  0  0  0  0  0  0
   36.9950   27.5750   41.4670 N   0  0  0  0  0  0  0  0  0  0  0  0
   35.0570   29.7110   38.9470 H   0  0  0  0  0  0  0  0  0  0  0  0
   36.9080   26.0310   40.0190 H   0  0  0  0  0  0  0  0  0  0  0  0
   39.0390   29.0100   44.1210 H   0  0  0  0  0  0  0  0  0  0  0  0
   38.4460   28.8300   43.2140 C   0  0  0  0  0  0  0  0  0  0  0  0
   38.8880   28.2110   42.1960 O   0  0  0  0  0  0  0  0  0  0  0  0
   37.0860   29.2660   43.0470 N   0  0  0  0  0  0  0  0  0  0  0  0
   36.6320   29.7820   43.8240 H   0  0  0  0  0  0  0  0  0  0  0  0
   35.6460   30.9700   41.2660 N   0  0  0  0  0  0  0  0  0  0  0  0
   36.1980   31.8520   41.2760 H   0  0  0  0  0  0  0  0  0  0  0  0
   34.6500   30.8250   41.5950 H   0  0  0  0  0  0  0  0  0  0  0  0
  1 12  1  0  0  0  0
  2 14  1  0  0  0  0
  2  1  2  0  0  0  0
  3  2  1  0  0  0  0
  4  3  2  0  0  0  0
  4  5  1  0  0  0  0
  5  6  2  0  0  0  0
  6  1  1  0  0  0  0
  7  3  1  0  0  0  0
  8  5  1  0  0  0  0
 10  9  1  0  0  0  0
 11 10  2  0  0  0  0
 12 10  1  0  0  0  0
 12 13  1  0  0  0  0
 14 15  1  0  0  0  0
 14 16  1  0  0  0  0
M  END
>  <minimizedAffinity>
-4.09676456

$$$$

 OpenBabel03252501313D

 16 16  0  0  0  0  0  0  0  0999 V2000
   37.4100   31.5490   40.9390 C   0  0  0  0  0  0  0  0  0  0  0  0
   36.8260   30.3510   41.3460 C   0  0  0  0  0  0  0  0  0  0  0  0
   37.6450   29.4340   41.9950 C   0  0  0  0  0  0  0  0  0  0  0  0
   38.9410   29.7690   42.1820 N   0  0  0  0  0  0  0  0  0  0  0  0
   39.4770   30.9300   41.7780 C   0  0  0  0  0  0  0  0  0  0  0  0
   38.7090   31.8390   41.1470 N   0  0  0  0  0  0  0  0  0  0  0  0
   37.1730   28.5250   42.2970 H   0  0  0  0  0  0  0  0  0  0  0  0
   40.5270   31.1250   41.9660 H   0  0  0  0  0  0  0  0  0  0  0  0
   37.2790   33.8630   38.4740 H   0  0  0  0  0  0  0  0  0  0  0  0
   37.5530   33.0570   39.1680 C   0  0  0  0  0  0  0  0  0  0  0  0
   38.6450   32.4100   39.1000 O   0  0  0  0  0  0  0  0  0  0  0  0
   36.7190   32.6170   40.2540 N   0  0  0  0  0  0  0  0  0  0  0  0
   35.8030   33.0830   40.3950 H   0  0  0  0  0  0  0  0  0  0  0  0
   35.4440   30.1910   41.0540 N   0  0  0  0  0  0  0  0  0  0  0  0
   34.9290   29.8960   40.2000 H   0  0  0  0  0  0  0  0  0  0  0  0
   35.0380   30.4670   41.9930 H   0  0  0  0  0  0  0  0  0  0  0  0
  1  6  2  0  0  0  0
  1  2  1  0  0  0  0
  2  3  2  0  0  0  0
  3  4  1  0  0  0  0
  3  7  1  0  0  0  0
  5  8  1  0  0  0  0
  5  4  2  0  0  0  0
  6  5  1  0  0  0  0
  9 10  1  0  0  0  0
 10 12  1  0  0  0  0
 11 10  2  0  0  0  0
 12 13  1  0  0  0  0
 12  1  1  0  0  0  0
 14  2  1  0  0  0  0
 14 16  1  0  0  0  0
 15 14  1  0  0  0  0
M  END
>  <minimizedAffinity>
-3.82331109

$$$$

 OpenBabel03252501313D

 16 16  0  0  0  0  0  0  0  0999 V2000
   37.6050   29.2380   42.6370 C   0  0  0  0  0  0  0  0  0  0  0  0
   37.4790   28.0280   43.3170 C   0  0  0  0  0  0  0  0  0  0  0  0
   38.6520   27.3480   43.6260 C   0  0  0  0  0  0  0  0  0  0  0  0
   39.8220   27.9070   43.2460 N   0  0  0  0  0  0  0  0  0  0  0  0
   39.9140   29.0740   42.5910 C   0  0  0  0  0  0  0  0  0  0  0  0
   38.7960   29.7570   42.2780 N   0  0  0  0  0  0  0  0  0  0  0  0
   38.5280   26.4250   44.1470 H   0  0  0  0  0  0  0  0  0  0  0  0
   40.8920   29.4570   42.3210 H   0  0  0  0  0  0  0  0  0  0  0  0
   36.0610   31.1490   40.3120 H   0  0  0  0  0  0  0  0  0  0  0  0
   36.7400   30.4980   40.8780 C   0  0  0  0  0  0  0  0  0  0  0  0
   37.8230   30.0300   40.4070 O   0  0  0  0  0  0  0  0  0  0  0  0
   36.5030   30.0800   42.2340 N   0  0  0  0  0  0  0  0  0  0  0  0
   35.6430   30.4100   42.7100 H   0  0  0  0  0  0  0  0  0  0  0  0
   36.1550   27.6130   43.6260 N   0  0  0  0  0  0  0  0  0  0  0  0
   35.4180   27.1270   43.0760 H   0  0  0  0  0  0  0  0  0  0  0  0
   36.1030   27.9440   44.6310 H   0  0  0  0  0  0  0  0  0  0  0  0
  1  2  1  0  0  0  0
  2  3  2  0  0  0  0
  2 14  1  0  0  0  0
  3  7  1  0  0  0  0
  4  3  1  0  0  0  0
  5  4  2  0  0  0  0
  6  5  1  0  0  0  0
  6  1  2  0  0  0  0
  8  5  1  0  0  0  0
  9 10  1  0  0  0  0
 10 12  1  0  0  0  0
 11 10  2  0  0  0  0
 12  1  1  0  0  0  0
 12 13  1  0  0  0  0
 14 16  1  0  0  0  0
 15 14  1  0  0  0  0
M  END
>  <minimizedAffinity>
-3.76703811

$$$$

 OpenBabel03252501313D

 16 16  0  0  0  0  0  0  0  0999 V2000
   36.4530   30.8110   39.8870 C   0  0  0  0  0  0  0  0  0  0  0  0
   37.0260   32.0010   39.4410 C   0  0  0  0  0  0  0  0  0  0  0  0
   37.4760   32.0360   38.1260 C   0  0  0  0  0  0  0  0  0  0  0  0
   37.3260   30.9190   37.3790 N   0  0  0  0  0  0  0  0  0  0  0  0
   36.7700   29.7860   37.8350 C   0  0  0  0  0  0  0  0  0  0  0  0
   36.3250   29.7210   39.1040 N   0  0  0  0  0  0  0  0  0  0  0  0
   37.9100   32.9580   37.8090 H   0  0  0  0  0  0  0  0  0  0  0  0
   36.6850   28.9320   37.1720 H   0  0  0  0  0  0  0  0  0  0  0  0
   36.1590   28.8770   42.6460 H   0  0  0  0  0  0  0  0  0  0  0  0
   36.4020   29.3080   41.6650 C   0  0  0  0  0  0  0  0  0  0  0  0
   37.1300   28.7250   40.8010 O   0  0  0  0  0  0  0  0  0  0  0  0
   35.9320   30.5900   41.2150 N   0  0  0  0  0  0  0  0  0  0  0  0
   35.3280   31.1460   41.8490 H   0  0  0  0  0  0  0  0  0  0  0  0
   37.0910   33.0630   40.3840 N   0  0  0  0  0  0  0  0  0  0  0  0
   37.7550   33.2880   41.1530 H   0  0  0  0  0  0  0  0  0  0  0  0
   36.2340   33.6080   40.0870 H   0  0  0  0  0  0  0  0  0  0  0  0
  1 12  1  0  0  0  0
  2  1  1  0  0  0  0
  2 14  1  0  0  0  0
  3  2  2  0  0  0  0
  4  5  2  0  0  0  0
  4  3  1  0  0  0  0
  5  6  1  0  0  0  0
  6  1  2  0  0  0  0
  7  3  1  0  0  0  0
  8  5  1  0  0  0  0
 10  9  1  0  0  0  0
 11 10  2  0  0  0  0
 12 10  1  0  0  0  0
 12 13  1  0  0  0  0
 14 15  1  0  0  0  0
 16 14  1  0  0  0  0
M  END
>  <minimizedAffinity>
-3.74649835

$$$$

 OpenBabel03252501313D

 16 16  0  0  0  0  0  0  0  0999 V2000
   41.5090   31.9990   37.2360 C   0  0  0  0  0  0  0  0  0  0  0  0
   42.6460   32.8000   37.1490 C   0  0  0  0  0  0  0  0  0  0  0  0
   43.8700   32.1990   37.4230 C   0  0  0  0  0  0  0  0  0  0  0  0
   43.8680   30.8890   37.7530 N   0  0  0  0  0  0  0  0  0  0  0  0
   42.7560   30.1410   37.8310 C   0  0  0  0  0  0  0  0  0  0  0  0
   41.5560   30.6940   37.5700 N   0  0  0  0  0  0  0  0  0  0  0  0
   44.7240   32.8350   37.3480 H   0  0  0  0  0  0  0  0  0  0  0  0
   42.8380   29.0940   38.1020 H   0  0  0  0  0  0  0  0  0  0  0  0
   38.2420   32.1140   38.1030 H   0  0  0  0  0  0  0  0  0  0  0  0
   39.3230   31.9310   38.0370 C   0  0  0  0  0  0  0  0  0  0  0  0
   39.9730   31.2370   38.8810 O   0  0  0  0  0  0  0  0  0  0  0  0
   40.1590   32.4470   36.9880 N   0  0  0  0  0  0  0  0  0  0  0  0
   39.7230   33.0280   36.2470 H   0  0  0  0  0  0  0  0  0  0  0  0
   42.4350   34.1590   36.7850 N   0  0  0  0  0  0  0  0  0  0  0  0
   42.1520   35.0010   37.3260 H   0  0  0  0  0  0  0  0  0  0  0  0
   42.6550   34.0940   35.7520 H   0  0  0  0  0  0  0  0  0  0  0  0
  1  6  1  0  0  0  0
  2  1  2  0  0  0  0
  2  3  1  0  0  0  0
  3  4  2  0  0  0  0
  4  5  1  0  0  0  0
  5  8  1  0  0  0  0
  6  5  2  0  0  0  0
  7  3  1  0  0  0  0
 10  9  1  0  0  0  0
 10 11  2  0  0  0  0
 12  1  1  0  0  0  0
 12 10  1  0  0  0  0
 13 12  1  0  0  0  0
 14  2  1  0  0  0  0
 14 15  1  0  0  0  0
 16 14  1  0  0  0  0
M  END
>  <minimizedAffinity>
-3.71452808

$$$$

 OpenBabel03252501313D

 16 16  0  0  0  0  0  0  0  0999 V2000
   37.9610   30.5070   41.0930 C   0  0  0  0  0  0  0  0  0  0  0  0
   36.8840   31.2920   40.6870 C   0  0  0  0  0  0  0  0  0  0  0  0
   37.1460   32.3080   39.7740 C   0  0  0  0  0  0  0  0  0  0  0  0
   38.4210   32.4600   39.3510 N   0  0  0  0  0  0  0  0  0  0  0  0
   39.4400   31.6900   39.7600 C   0  0  0  0  0  0  0  0  0  0  0  0
   39.2180   30.6970   40.6430 N   0  0  0  0  0  0  0  0  0  0  0  0
   36.3040   32.8930   39.4790 H   0  0  0  0  0  0  0  0  0  0  0  0
   40.4360   31.8760   39.3730 H   0  0  0  0  0  0  0  0  0  0  0  0
   39.1660   28.8380   43.7770 H   0  0  0  0  0  0  0  0  0  0  0  0
   38.9770   29.5380   42.9530 C   0  0  0  0  0  0  0  0  0  0  0  0
   39.7050   30.5500   42.7070 O   0  0  0  0  0  0  0  0  0  0  0  0
   37.8810   29.4110   42.0300 N   0  0  0  0  0  0  0  0  0  0  0  0
   37.2260   28.6140   42.1450 H   0  0  0  0  0  0  0  0  0  0  0  0
   35.6190   30.9690   41.2500 N   0  0  0  0  0  0  0  0  0  0  0  0
   35.1660   31.2060   42.1560 H   0  0  0  0  0  0  0  0  0  0  0  0
   35.2250   30.3850   40.4600 H   0  0  0  0  0  0  0  0  0  0  0  0
  1 12  1  0  0  0  0
  2  1  1  0  0  0  0
  2 14  1  0  0  0  0
  3  2  2  0  0  0  0
  4  5  2  0  0  0  0
  4  3  1  0  0  0  0
  5  6  1  0  0  0  0
  6  1  2  0  0  0  0
  7  3  1  0  0  0  0
  8  5  1  0  0  0  0
 10  9  1  0  0  0  0
 11 10  2  0  0  0  0
 12 13  1  0  0  0  0
 12 10  1  0  0  0  0
 14 15  1  0  0  0  0
 16 14  1  0  0  0  0
M  END
>  <minimizedAffinity>
-3.62924242

$$$$

 OpenBabel03252501313D

 16 16  0  0  0  0  0  0  0  0999 V2000
   37.6470   32.3290   38.8670 C   0  0  0  0  0  0  0  0  0  0  0  0
   37.8120   31.6280   37.6740 C   0  0  0  0  0  0  0  0  0  0  0  0
   37.1800   30.3940   37.5700 C   0  0  0  0  0  0  0  0  0  0  0  0
   36.4560   29.9660   38.6280 N   0  0  0  0  0  0  0  0  0  0  0  0
   36.3150   30.6620   39.7660 C   0  0  0  0  0  0  0  0  0  0  0  0
   36.9140   31.8610   39.8970 N   0  0  0  0  0  0  0  0  0  0  0  0
   37.3220   29.8780   36.6460 H   0  0  0  0  0  0  0  0  0  0  0  0
   35.7160   30.2500   40.5710 H   0  0  0  0  0  0  0  0  0  0  0  0
   39.2820   34.4170   40.9660 H   0  0  0  0  0  0  0  0  0  0  0  0
   38.7780   33.5710   40.4820 C   0  0  0  0  0  0  0  0  0  0  0  0
   38.6160   32.4380   41.0340 O   0  0  0  0  0  0  0  0  0  0  0  0
   38.2250   33.6210   39.1550 N   0  0  0  0  0  0  0  0  0  0  0  0
   38.3060   34.5050   38.6180 H   0  0  0  0  0  0  0  0  0  0  0  0
   38.6150   32.2520   36.6800 N   0  0  0  0  0  0  0  0  0  0  0  0
   39.6430   32.3090   36.5320 H   0  0  0  0  0  0  0  0  0  0  0  0
   37.8490   32.6750   36.0840 H   0  0  0  0  0  0  0  0  0  0  0  0
  1 12  1  0  0  0  0
  1  6  1  0  0  0  0
  2  1  2  0  0  0  0
  3  2  1  0  0  0  0
  3  4  2  0  0  0  0
  4  5  1  0  0  0  0
  5  6  2  0  0  0  0
  5  8  1  0  0  0  0
  7  3  1  0  0  0  0
 10  9  1  0  0  0  0
 10 11  2  0  0  0  0
 12 10  1  0  0  0  0
 13 12  1  0  0  0  0
 14  2  1  0  0  0  0
 15 14  1  0  0  0  0
 16 14  1  0  0  0  0
M  END
>  <minimizedAffinity>
-3.62846136

$$$$

 OpenBabel03252501313D

 16 16  0  0  0  0  0  0  0  0999 V2000
   38.7210   32.3880   40.9570 C   0  0  0  0  0  0  0  0  0  0  0  0
   37.4290   32.3540   40.4350 C   0  0  0  0  0  0  0  0  0  0  0  0
   36.7250   31.1620   40.5600 C   0  0  0  0  0  0  0  0  0  0  0  0
   37.3420   30.1270   41.1730 N   0  0  0  0  0  0  0  0  0  0  0  0
   38.5880   30.1880   41.6660 C   0  0  0  0  0  0  0  0  0  0  0  0
   39.2960   31.3290   41.5610 N   0  0  0  0  0  0  0  0  0  0  0  0
   35.7380   31.1620   40.1530 H   0  0  0  0  0  0  0  0  0  0  0  0
   39.0130   29.3130   42.1460 H   0  0  0  0  0  0  0  0  0  0  0  0
   41.7720   33.7390   40.4030 H   0  0  0  0  0  0  0  0  0  0  0  0
   40.9020   33.0790   40.5150 C   0  0  0  0  0  0  0  0  0  0  0  0
   40.9360   31.8270   40.3030 O   0  0  0  0  0  0  0  0  0  0  0  0
   39.5990   33.5340   40.9200 N   0  0  0  0  0  0  0  0  0  0  0  0
   39.4670   34.5440   41.1190 H   0  0  0  0  0  0  0  0  0  0  0  0
   36.9620   33.5510   39.8270 N   0  0  0  0  0  0  0  0  0  0  0  0
   37.0960   33.9640   38.8810 H   0  0  0  0  0  0  0  0  0  0  0  0
   36.4030   33.9450   40.6340 H   0  0  0  0  0  0  0  0  0  0  0  0
  1  6  1  0  0  0  0
  2  3  1  0  0  0  0
  2  1  2  0  0  0  0
  3  4  2  0  0  0  0
  4  5  1  0  0  0  0
  5  8  1  0  0  0  0
  6  5  2  0  0  0  0
  7  3  1  0  0  0  0
  9 10  1  0  0  0  0
 10 12  1  0  0  0  0
 11 10  2  0  0  0  0
 12  1  1  0  0  0  0
 12 13  1  0  0  0  0
 14  2  1  0  0  0  0
 14 16  1  0  0  0  0
 15 14  1  0  0  0  0
M  END
>  <minimizedAffinity>
-3.58943725

$$$$

 OpenBabel03252501313D

 16 16  0  0  0  0  0  0  0  0999 V2000
   38.3750   31.7450   37.7050 C   0  0  0  0  0  0  0  0  0  0  0  0
   37.4040   30.7800   37.4470 C   0  0  0  0  0  0  0  0  0  0  0  0
   36.5270   30.4680   38.4800 C   0  0  0  0  0  0  0  0  0  0  0  0
   36.6800   31.1210   39.6540 N   0  0  0  0  0  0  0  0  0  0  0  0
   37.6260   32.0460   39.8750 C   0  0  0  0  0  0  0  0  0  0  0  0
   38.4900   32.3700   38.8940 N   0  0  0  0  0  0  0  0  0  0  0  0
   35.7930   29.7270   38.2570 H   0  0  0  0  0  0  0  0  0  0  0  0
   37.6840   32.5260   40.8460 H   0  0  0  0  0  0  0  0  0  0  0  0
   41.5720   32.5600   36.9570 H   0  0  0  0  0  0  0  0  0  0  0  0
   40.6340   32.2480   37.4360 C   0  0  0  0  0  0  0  0  0  0  0  0
   40.5480   31.8950   38.6540 O   0  0  0  0  0  0  0  0  0  0  0  0
   39.3670   32.1960   36.7570 N   0  0  0  0  0  0  0  0  0  0  0  0
   39.3300   32.4650   35.7560 H   0  0  0  0  0  0  0  0  0  0  0  0
   37.4100   30.2100   36.1440 N   0  0  0  0  0  0  0  0  0  0  0  0
   37.9670   29.4480   35.7060 H   0  0  0  0  0  0  0  0  0  0  0  0
   36.6490   30.7950   35.6990 H   0  0  0  0  0  0  0  0  0  0  0  0
  1  6  1  0  0  0  0
  2  1  2  0  0  0  0
  2  3  1  0  0  0  0
  3  4  2  0  0  0  0
  4  5  1  0  0  0  0
  5  8  1  0  0  0  0
  6  5  2  0  0  0  0
  7  3  1  0  0  0  0
  9 10  1  0  0  0  0
 10 11  2  0  0  0  0
 12 10  1  0  0  0  0
 12  1  1  0  0  0  0
 13 12  1  0  0  0  0
 14  2  1  0  0  0  0
 15 14  1  0  0  0  0
 16 14  1  0  0  0  0
M  END
>  <minimizedAffinity>
-3.49417162

$$$$
