
 OpenBabel03252507533D

 34 36  0  0  1  0  0  0  0  0999 V2000
   36.6420   28.5600   41.7900 C   0  0  2  0  0  0  0  0  0  0  0  0
   35.8800   28.0720   40.5880 C   0  0  0  0  0  0  0  0  0  0  0  0
   35.1810   29.3990   40.2280 C   0  0  0  0  0  0  0  0  0  0  0  0
   36.1910   30.4710   40.5490 C   0  0  1  0  0  0  0  0  0  0  0  0
   37.3580   29.7630   41.1540 C   0  0  0  0  0  0  0  0  0  0  0  0
   35.9510   28.8760   42.5680 H   0  0  0  0  0  0  0  0  0  0  0  0
   35.1480   27.3080   40.8540 H   0  0  0  0  0  0  0  0  0  0  0  0
   36.5880   27.7710   39.8100 H   0  0  0  0  0  0  0  0  0  0  0  0
   34.2510   29.4630   40.8170 H   0  0  0  0  0  0  0  0  0  0  0  0
   34.9140   29.3290   39.1730 H   0  0  0  0  0  0  0  0  0  0  0  0
   35.8100   31.1750   41.3100 H   0  0  0  0  0  0  0  0  0  0  0  0
   37.9920   29.1830   40.4540 H   0  0  0  0  0  0  0  0  0  0  0  0
   37.9110   30.2900   41.9290 H   0  0  0  0  0  0  0  0  0  0  0  0
   39.4870   26.9530   43.6790 C   0  0  0  0  0  0  0  0  0  0  0  0
   38.5750   27.9420   43.2770 C   0  0  0  0  0  0  0  0  0  0  0  0
   37.6370   27.5840   42.2970 C   0  0  0  0  0  0  0  0  0  0  0  0
   37.6430   26.3040   41.7740 N   0  0  0  0  0  0  0  0  0  0  0  0
   38.5490   25.3950   42.2030 C   0  0  0  0  0  0  0  0  0  0  0  0
   39.4560   25.7130   43.1400 N   0  0  0  0  0  0  0  0  0  0  0  0
   40.2010   27.2810   44.4480 H   0  0  0  0  0  0  0  0  0  0  0  0
   38.5390   28.9400   43.6570 H   0  0  0  0  0  0  0  0  0  0  0  0
   38.5460   24.3870   41.7850 H   0  0  0  0  0  0  0  0  0  0  0  0
   36.7090   31.1900   39.3470 C   0  0  2  0  0  0  0  0  0  0  0  0
   38.1360   31.1020   39.0460 C   0  0  0  0  0  0  0  0  0  0  0  0
   37.4440   32.4180   39.3480 C   0  0  2  0  0  0  0  0  0  0  0  0
   36.0140   31.0100   38.4750 H   0  0  0  0  0  0  0  0  0  0  0  0
   38.4030   30.9410   37.9540 H   0  0  0  0  0  0  0  0  0  0  0  0
   39.0230   31.0550   39.6260 H   0  0  0  0  0  0  0  0  0  0  0  0
   37.3210   33.1060   38.4490 H   0  0  0  0  0  0  0  0  0  0  0  0
   39.4530   34.6090   41.2570 H   0  0  0  0  0  0  0  0  0  0  0  0
   38.9240   33.9420   40.5520 C   0  0  0  0  0  0  0  0  0  0  0  0
   39.8360   34.1600   39.6780 O   0  0  0  0  0  0  0  0  0  0  0  0
   37.7290   33.1500   40.5610 N   0  0  0  0  0  0  0  0  0  0  0  0
   37.4150   33.3720   41.5270 H   0  0  0  0  0  0  0  0  0  0  0  0
  1 16  1  0  0  0  0
  1  6  1  1  0  0  0
  2  7  1  0  0  0  0
  2  1  1  0  0  0  0
  3  4  1  0  0  0  0
  3  2  1  0  0  0  0
  3  9  1  0  0  0  0
  4  5  1  0  0  0  0
  4 11  1  1  0  0  0
  5  1  1  0  0  0  0
  5 13  1  0  0  0  0
  8  2  1  0  0  0  0
 10  3  1  0  0  0  0
 12  5  1  0  0  0  0
 14 20  1  0  0  0  0
 15 21  1  0  0  0  0
 15 14  1  0  0  0  0
 16 15  2  0  0  0  0
 17 18  2  0  0  0  0
 17 16  1  0  0  0  0
 18 19  1  0  0  0  0
 19 14  2  0  0  0  0
 22 18  1  0  0  0  0
 23 26  1  6  0  0  0
 23 25  1  0  0  0  0
 23  4  1  0  0  0  0
 24 23  1  0  0  0  0
 24 25  1  0  0  0  0
 24 28  1  0  0  0  0
 25 29  1  6  0  0  0
 25 33  1  0  0  0  0
 27 24  1  0  0  0  0
 31 33  1  0  0  0  0
 31 30  1  0  0  0  0
 32 31  2  0  0  0  0
 33 34  1  0  0  0  0
M  END
>  <minimizedAffinity>
-5.04144621

$$$$

 OpenBabel03252507533D

 34 36  0  0  1  0  0  0  0  0999 V2000
   37.3530   30.4270   40.2350 C   0  0  2  0  0  0  0  0  0  0  0  0
   35.9040   30.5670   40.6180 C   0  0  0  0  0  0  0  0  0  0  0  0
   35.5580   29.0650   40.6870 C   0  0  0  0  0  0  0  0  0  0  0  0
   36.7980   28.4040   41.2320 C   0  0  1  0  0  0  0  0  0  0  0  0
   37.8150   29.4890   41.3610 C   0  0  0  0  0  0  0  0  0  0  0  0
   37.4370   29.9490   39.2610 H   0  0  0  0  0  0  0  0  0  0  0  0
   35.3240   31.0630   39.8390 H   0  0  0  0  0  0  0  0  0  0  0  0
   35.8370   31.0370   41.6040 H   0  0  0  0  0  0  0  0  0  0  0  0
   35.2790   28.7350   39.6720 H   0  0  0  0  0  0  0  0  0  0  0  0
   34.6800   28.9810   41.3280 H   0  0  0  0  0  0  0  0  0  0  0  0
   37.2070   27.6600   40.5250 H   0  0  0  0  0  0  0  0  0  0  0  0
   37.6630   30.2020   42.1960 H   0  0  0  0  0  0  0  0  0  0  0  0
   38.8540   29.2190   41.1860 H   0  0  0  0  0  0  0  0  0  0  0  0
   38.2960   34.0750   40.0310 C   0  0  0  0  0  0  0  0  0  0  0  0
   37.4950   32.9240   39.9660 C   0  0  0  0  0  0  0  0  0  0  0  0
   38.1060   31.7030   40.2900 C   0  0  0  0  0  0  0  0  0  0  0  0
   39.4390   31.6760   40.6530 N   0  0  0  0  0  0  0  0  0  0  0  0
   40.1590   32.8210   40.6970 C   0  0  0  0  0  0  0  0  0  0  0  0
   39.5980   34.0020   40.3910 N   0  0  0  0  0  0  0  0  0  0  0  0
   37.7740   35.0060   39.7680 H   0  0  0  0  0  0  0  0  0  0  0  0
   36.4630   32.9040   39.6900 H   0  0  0  0  0  0  0  0  0  0  0  0
   41.2110   32.7910   40.9850 H   0  0  0  0  0  0  0  0  0  0  0  0
   36.6220   27.8250   42.5970 C   0  0  2  0  0  0  0  0  0  0  0  0
   37.4880   28.3020   43.6720 C   0  0  0  0  0  0  0  0  0  0  0  0
   37.4700   26.8530   43.2190 C   0  0  2  0  0  0  0  0  0  0  0  0
   35.5200   27.7750   42.8430 H   0  0  0  0  0  0  0  0  0  0  0  0
   36.9790   28.4990   44.6680 H   0  0  0  0  0  0  0  0  0  0  0  0
   38.5000   28.6140   43.7370 H   0  0  0  0  0  0  0  0  0  0  0  0
   36.9900   26.1320   43.9580 H   0  0  0  0  0  0  0  0  0  0  0  0
   39.0220   24.1970   41.4830 H   0  0  0  0  0  0  0  0  0  0  0  0
   38.4170   24.9420   42.0330 C   0  0  0  0  0  0  0  0  0  0  0  0
   37.4310   24.1220   42.0370 O   0  0  0  0  0  0  0  0  0  0  0  0
   38.6040   26.2680   42.5430 N   0  0  0  0  0  0  0  0  0  0  0  0
   39.5890   26.4020   42.2390 H   0  0  0  0  0  0  0  0  0  0  0  0
  1  6  1  6  0  0  0
  1 16  1  0  0  0  0
  1  2  1  0  0  0  0
  1  5  1  0  0  0  0
  2  3  1  0  0  0  0
  2  8  1  0  0  0  0
  3  4  1  0  0  0  0
  3 10  1  0  0  0  0
  4 11  1  6  0  0  0
  4  5  1  0  0  0  0
  4 23  1  0  0  0  0
  5 12  1  0  0  0  0
  7  2  1  0  0  0  0
  9  3  1  0  0  0  0
 13  5  1  0  0  0  0
 14 19  1  0  0  0  0
 15 14  2  0  0  0  0
 15 16  1  0  0  0  0
 16 17  2  0  0  0  0
 17 18  1  0  0  0  0
 18 22  1  0  0  0  0
 19 18  2  0  0  0  0
 20 14  1  0  0  0  0
 21 15  1  0  0  0  0
 23 26  1  1  0  0  0
 23 25  1  0  0  0  0
 23 24  1  0  0  0  0
 24 28  1  0  0  0  0
 24 27  1  0  0  0  0
 25 24  1  0  0  0  0
 25 29  1  1  0  0  0
 30 31  1  0  0  0  0
 31 32  2  0  0  0  0
 31 33  1  0  0  0  0
 33 25  1  0  0  0  0
 34 33  1  0  0  0  0
M  END
>  <minimizedAffinity>
-4.92190838

$$$$

 OpenBabel03252507533D

 34 36  0  0  1  0  0  0  0  0999 V2000
   36.9160   29.0550   41.7780 C   0  0  2  0  0  0  0  0  0  0  0  0
   37.3750   28.6240   43.1450 C   0  0  0  0  0  0  0  0  0  0  0  0
   36.8290   27.1820   43.1070 C   0  0  0  0  0  0  0  0  0  0  0  0
   37.0070   26.7360   41.6770 C   0  0  1  0  0  0  0  0  0  0  0  0
   37.5360   27.9240   40.9430 C   0  0  0  0  0  0  0  0  0  0  0  0
   35.8300   29.0370   41.7260 H   0  0  0  0  0  0  0  0  0  0  0  0
   36.8940   29.2000   43.9350 H   0  0  0  0  0  0  0  0  0  0  0  0
   38.4690   28.6350   43.1770 H   0  0  0  0  0  0  0  0  0  0  0  0
   35.7800   27.2090   43.4450 H   0  0  0  0  0  0  0  0  0  0  0  0
   37.4100   26.6140   43.8340 H   0  0  0  0  0  0  0  0  0  0  0  0
   36.0410   26.4720   41.2100 H   0  0  0  0  0  0  0  0  0  0  0  0
   38.5960   28.1830   41.1380 H   0  0  0  0  0  0  0  0  0  0  0  0
   37.2280   28.0440   39.9070 H   0  0  0  0  0  0  0  0  0  0  0  0
   37.3290   32.4620   40.2090 C   0  0  0  0  0  0  0  0  0  0  0  0
   36.7130   31.2560   40.5760 C   0  0  0  0  0  0  0  0  0  0  0  0
   37.4680   30.3640   41.3530 C   0  0  0  0  0  0  0  0  0  0  0  0
   38.7590   30.6960   41.7210 N   0  0  0  0  0  0  0  0  0  0  0  0
   39.2980   31.8760   41.3350 C   0  0  0  0  0  0  0  0  0  0  0  0
   38.5950   32.7450   40.5910 N   0  0  0  0  0  0  0  0  0  0  0  0
   36.6990   33.1260   39.6010 H   0  0  0  0  0  0  0  0  0  0  0  0
   35.7190   30.9640   40.3120 H   0  0  0  0  0  0  0  0  0  0  0  0
   40.3170   32.1290   41.6290 H   0  0  0  0  0  0  0  0  0  0  0  0
   38.0150   25.6480   41.5060 C   0  0  2  0  0  0  0  0  0  0  0  0
   37.8880   24.4470   42.3280 C   0  0  0  0  0  0  0  0  0  0  0  0
   39.1020   25.3560   42.3900 C   0  0  2  0  0  0  0  0  0  0  0  0
   38.1890   25.4700   40.4040 H   0  0  0  0  0  0  0  0  0  0  0  0
   38.0560   23.4600   41.7920 H   0  0  0  0  0  0  0  0  0  0  0  0
   37.5740   24.2480   43.3210 H   0  0  0  0  0  0  0  0  0  0  0  0
   40.0480   24.9160   41.9340 H   0  0  0  0  0  0  0  0  0  0  0  0
   41.1950   27.4880   44.2760 H   0  0  0  0  0  0  0  0  0  0  0  0
   40.6470   26.8210   43.5850 C   0  0  0  0  0  0  0  0  0  0  0  0
   41.6300   26.8830   42.7650 O   0  0  0  0  0  0  0  0  0  0  0  0
   39.3810   26.1500   43.5650 N   0  0  0  0  0  0  0  0  0  0  0  0
   39.0300   26.4750   44.4880 H   0  0  0  0  0  0  0  0  0  0  0  0
  1  6  1  6  0  0  0
  1  2  1  0  0  0  0
  2  8  1  0  0  0  0
  2  7  1  0  0  0  0
  3  2  1  0  0  0  0
  3  9  1  0  0  0  0
  3 10  1  0  0  0  0
  4 11  1  6  0  0  0
  4  3  1  0  0  0  0
  5 12  1  0  0  0  0
  5  4  1  0  0  0  0
  5  1  1  0  0  0  0
 13  5  1  0  0  0  0
 14 15  2  0  0  0  0
 14 19  1  0  0  0  0
 15 16  1  0  0  0  0
 16 17  2  0  0  0  0
 16  1  1  0  0  0  0
 18 22  1  0  0  0  0
 18 17  1  0  0  0  0
 19 18  2  0  0  0  0
 20 14  1  0  0  0  0
 21 15  1  0  0  0  0
 23 26  1  6  0  0  0
 23  4  1  0  0  0  0
 23 24  1  0  0  0  0
 23 25  1  0  0  0  0
 24 25  1  0  0  0  0
 24 28  1  0  0  0  0
 25 29  1  6  0  0  0
 25 33  1  0  0  0  0
 27 24  1  0  0  0  0
 31 30  1  0  0  0  0
 32 31  2  0  0  0  0
 33 31  1  0  0  0  0
 33 34  1  0  0  0  0
M  END
>  <minimizedAffinity>
-4.77510595

$$$$

 OpenBabel03252507533D

 34 36  0  0  1  0  0  0  0  0999 V2000
   36.3330   29.0330   40.0190 C   0  0  2  0  0  0  0  0  0  0  0  0
   37.2230   29.2490   38.8260 C   0  0  0  0  0  0  0  0  0  0  0  0
   36.8140   30.7040   38.5170 C   0  0  0  0  0  0  0  0  0  0  0  0
   36.5810   31.3370   39.8650 C   0  0  1  0  0  0  0  0  0  0  0  0
   36.7590   30.2430   40.8650 C   0  0  0  0  0  0  0  0  0  0  0  0
   35.2880   29.1040   39.7230 H   0  0  0  0  0  0  0  0  0  0  0  0
   36.9610   28.5890   37.9990 H   0  0  0  0  0  0  0  0  0  0  0  0
   38.2690   29.1880   39.1420 H   0  0  0  0  0  0  0  0  0  0  0  0
   35.9210   30.6740   37.8710 H   0  0  0  0  0  0  0  0  0  0  0  0
   37.6350   31.1390   37.9470 H   0  0  0  0  0  0  0  0  0  0  0  0
   35.5440   31.7050   39.9680 H   0  0  0  0  0  0  0  0  0  0  0  0
   37.8010   29.9150   41.0470 H   0  0  0  0  0  0  0  0  0  0  0  0
   36.1380   30.2820   41.7580 H   0  0  0  0  0  0  0  0  0  0  0  0
   36.9940   25.4130   40.8530 C   0  0  0  0  0  0  0  0  0  0  0  0
   36.7440   26.5520   40.0720 C   0  0  0  0  0  0  0  0  0  0  0  0
   36.6160   27.7740   40.7500 C   0  0  0  0  0  0  0  0  0  0  0  0
   36.7360   27.8130   42.1260 N   0  0  0  0  0  0  0  0  0  0  0  0
   36.9770   26.6790   42.8240 C   0  0  0  0  0  0  0  0  0  0  0  0
   37.1040   25.4970   42.1980 N   0  0  0  0  0  0  0  0  0  0  0  0
   37.0860   24.4810   40.2780 H   0  0  0  0  0  0  0  0  0  0  0  0
   36.6450   26.5620   39.0080 H   0  0  0  0  0  0  0  0  0  0  0  0
   37.0710   26.7190   43.9100 H   0  0  0  0  0  0  0  0  0  0  0  0
   37.5750   32.3950   40.2140 C   0  0  2  0  0  0  0  0  0  0  0  0
   37.4090   33.7250   39.6330 C   0  0  0  0  0  0  0  0  0  0  0  0
   38.6350   32.8690   39.3760 C   0  0  2  0  0  0  0  0  0  0  0  0
   37.7740   32.3690   41.3260 H   0  0  0  0  0  0  0  0  0  0  0  0
   37.5740   34.5990   40.3400 H   0  0  0  0  0  0  0  0  0  0  0  0
   37.0660   34.0990   38.7010 H   0  0  0  0  0  0  0  0  0  0  0  0
   39.5850   33.2360   39.8860 H   0  0  0  0  0  0  0  0  0  0  0  0
   40.8500   31.7500   36.8620 H   0  0  0  0  0  0  0  0  0  0  0  0
   40.2770   32.1300   37.7290 C   0  0  0  0  0  0  0  0  0  0  0  0
   41.3790   32.3530   38.3440 O   0  0  0  0  0  0  0  0  0  0  0  0
   38.8970   32.3140   38.0690 N   0  0  0  0  0  0  0  0  0  0  0  0
   38.4810   31.9570   37.1850 H   0  0  0  0  0  0  0  0  0  0  0  0
  1  6  1  6  0  0  0
  1 16  1  0  0  0  0
  1  5  1  0  0  0  0
  2  8  1  0  0  0  0
  2  1  1  0  0  0  0
  3  2  1  0  0  0  0
  3  4  1  0  0  0  0
  4 11  1  1  0  0  0
  4 23  1  0  0  0  0
  4  5  1  0  0  0  0
  5 12  1  0  0  0  0
  5 13  1  0  0  0  0
  7  2  1  0  0  0  0
  9  3  1  0  0  0  0
 10  3  1  0  0  0  0
 14 19  1  0  0  0  0
 15 16  1  0  0  0  0
 15 14  2  0  0  0  0
 16 17  2  0  0  0  0
 17 18  1  0  0  0  0
 18 22  1  0  0  0  0
 19 18  2  0  0  0  0
 20 14  1  0  0  0  0
 21 15  1  0  0  0  0
 23 26  1  1  0  0  0
 24 23  1  0  0  0  0
 24 27  1  0  0  0  0
 25 24  1  0  0  0  0
 25 29  1  1  0  0  0
 25 23  1  0  0  0  0
 28 24  1  0  0  0  0
 30 31  1  0  0  0  0
 31 33  1  0  0  0  0
 31 32  2  0  0  0  0
 33 25  1  0  0  0  0
 34 33  1  0  0  0  0
M  END
>  <minimizedAffinity>
-4.65917826

$$$$

 OpenBabel03252507533D

 34 36  0  0  1  0  0  0  0  0999 V2000
   36.9700   28.9900   42.0920 C   0  0  2  0  0  0  0  0  0  0  0  0
   37.3740   28.7710   43.5250 C   0  0  0  0  0  0  0  0  0  0  0  0
   36.8880   27.3140   43.6620 C   0  0  0  0  0  0  0  0  0  0  0  0
   37.1560   26.6860   42.3180 C   0  0  1  0  0  0  0  0  0  0  0  0
   37.6750   27.7850   41.4510 C   0  0  0  0  0  0  0  0  0  0  0  0
   35.8890   28.9150   41.9940 H   0  0  0  0  0  0  0  0  0  0  0  0
   36.8310   29.4270   44.2050 H   0  0  0  0  0  0  0  0  0  0  0  0
   38.4640   28.8370   43.6050 H   0  0  0  0  0  0  0  0  0  0  0  0
   35.8230   27.3380   43.9450 H   0  0  0  0  0  0  0  0  0  0  0  0
   37.4520   26.8780   44.4860 H   0  0  0  0  0  0  0  0  0  0  0  0
   36.2260   26.3160   41.8480 H   0  0  0  0  0  0  0  0  0  0  0  0
   38.7130   28.1160   41.6560 H   0  0  0  0  0  0  0  0  0  0  0  0
   37.4160   27.7490   40.3950 H   0  0  0  0  0  0  0  0  0  0  0  0
   37.2660   32.2530   40.2200 C   0  0  0  0  0  0  0  0  0  0  0  0
   36.6760   31.0880   40.7360 C   0  0  0  0  0  0  0  0  0  0  0  0
   37.4910   30.2530   41.5160 C   0  0  0  0  0  0  0  0  0  0  0  0
   38.8100   30.5960   41.7420 N   0  0  0  0  0  0  0  0  0  0  0  0
   39.3210   31.7330   41.2160 C   0  0  0  0  0  0  0  0  0  0  0  0
   38.5620   32.5490   40.4660 N   0  0  0  0  0  0  0  0  0  0  0  0
   36.5890   32.8740   39.6160 H   0  0  0  0  0  0  0  0  0  0  0  0
   35.6610   30.7900   40.5840 H   0  0  0  0  0  0  0  0  0  0  0  0
   40.3640   31.9960   41.3990 H   0  0  0  0  0  0  0  0  0  0  0  0
   38.2130   25.6320   42.3450 C   0  0  2  0  0  0  0  0  0  0  0  0
   39.2560   25.6670   41.3230 C   0  0  0  0  0  0  0  0  0  0  0  0
   38.3010   24.4980   41.4750 C   0  0  2  0  0  0  0  0  0  0  0  0
   38.5740   25.4920   43.4070 H   0  0  0  0  0  0  0  0  0  0  0  0
   40.3140   25.4720   41.6870 H   0  0  0  0  0  0  0  0  0  0  0  0
   39.2920   25.9330   40.2960 H   0  0  0  0  0  0  0  0  0  0  0  0
   38.7740   23.5500   41.8910 H   0  0  0  0  0  0  0  0  0  0  0  0
   36.6240   22.2750   39.3010 H   0  0  0  0  0  0  0  0  0  0  0  0
   37.2290   22.8550   40.0230 C   0  0  0  0  0  0  0  0  0  0  0  0
   37.8710   21.7870   40.3250 O   0  0  0  0  0  0  0  0  0  0  0  0
   37.3030   24.2140   40.4690 N   0  0  0  0  0  0  0  0  0  0  0  0
   36.5460   24.6040   39.8730 H   0  0  0  0  0  0  0  0  0  0  0  0
  1  6  1  6  0  0  0
  1  2  1  0  0  0  0
  2  8  1  0  0  0  0
  2  3  1  0  0  0  0
  2  7  1  0  0  0  0
  3  9  1  0  0  0  0
  3 10  1  0  0  0  0
  4 11  1  6  0  0  0
  4 23  1  0  0  0  0
  4  3  1  0  0  0  0
  5 12  1  0  0  0  0
  5  1  1  0  0  0  0
  5  4  1  0  0  0  0
 13  5  1  0  0  0  0
 14 19  2  0  0  0  0
 14 15  1  0  0  0  0
 15 16  2  0  0  0  0
 16 17  1  0  0  0  0
 16  1  1  0  0  0  0
 18 22  1  0  0  0  0
 18 17  2  0  0  0  0
 19 18  1  0  0  0  0
 20 14  1  0  0  0  0
 21 15  1  0  0  0  0
 23 26  1  1  0  0  0
 24 25  1  0  0  0  0
 24 27  1  0  0  0  0
 24 23  1  0  0  0  0
 25 29  1  1  0  0  0
 25 23  1  0  0  0  0
 28 24  1  0  0  0  0
 30 31  1  0  0  0  0
 31 32  2  0  0  0  0
 31 33  1  0  0  0  0
 33 25  1  0  0  0  0
 34 33  1  0  0  0  0
M  END
>  <minimizedAffinity>
-4.64759159

$$$$

 OpenBabel03252507533D

 34 36  0  0  1  0  0  0  0  0999 V2000
   37.8930   28.9550   42.7370 C   0  0  2  0  0  0  0  0  0  0  0  0
   39.1800   28.1790   42.6650 C   0  0  0  0  0  0  0  0  0  0  0  0
   38.7120   26.9220   43.4260 C   0  0  0  0  0  0  0  0  0  0  0  0
   37.2720   26.7350   43.0210 C   0  0  1  0  0  0  0  0  0  0  0  0
   36.9390   27.9020   42.1510 C   0  0  0  0  0  0  0  0  0  0  0  0
   37.6490   29.1790   43.7730 H   0  0  0  0  0  0  0  0  0  0  0  0
   39.9870   28.6790   43.2020 H   0  0  0  0  0  0  0  0  0  0  0  0
   39.4050   27.9510   41.6190 H   0  0  0  0  0  0  0  0  0  0  0  0
   38.8580   27.1040   44.5040 H   0  0  0  0  0  0  0  0  0  0  0  0
   39.3770   26.1130   43.1220 H   0  0  0  0  0  0  0  0  0  0  0  0
   36.5950   26.7780   43.8930 H   0  0  0  0  0  0  0  0  0  0  0  0
   37.3710   27.8870   41.1310 H   0  0  0  0  0  0  0  0  0  0  0  0
   35.9220   28.2850   42.2020 H   0  0  0  0  0  0  0  0  0  0  0  0
   36.8620   31.6940   40.3550 C   0  0  0  0  0  0  0  0  0  0  0  0
   36.7620   30.5330   41.1370 C   0  0  0  0  0  0  0  0  0  0  0  0
   37.8890   30.1740   41.8920 C   0  0  0  0  0  0  0  0  0  0  0  0
   39.0280   30.9550   41.8420 N   0  0  0  0  0  0  0  0  0  0  0  0
   39.0620   32.0640   41.0670 C   0  0  0  0  0  0  0  0  0  0  0  0
   37.9970   32.4290   40.3350 N   0  0  0  0  0  0  0  0  0  0  0  0
   35.9550   31.9330   39.7810 H   0  0  0  0  0  0  0  0  0  0  0  0
   35.9010   29.9040   41.2020 H   0  0  0  0  0  0  0  0  0  0  0  0
   39.9650   32.6750   41.0340 H   0  0  0  0  0  0  0  0  0  0  0  0
   37.0310   25.5120   42.1990 C   0  0  2  0  0  0  0  0  0  0  0  0
   38.0530   24.4690   42.1880 C   0  0  0  0  0  0  0  0  0  0  0  0
   37.6300   25.2110   40.9340 C   0  0  2  0  0  0  0  0  0  0  0  0
   35.9710   25.1560   42.3610 H   0  0  0  0  0  0  0  0  0  0  0  0
   37.6720   23.4010   42.2640 H   0  0  0  0  0  0  0  0  0  0  0  0
   39.1130   24.4570   42.2230 H   0  0  0  0  0  0  0  0  0  0  0  0
   37.0230   24.5910   40.1980 H   0  0  0  0  0  0  0  0  0  0  0  0
   38.6140   27.1050   38.1190 H   0  0  0  0  0  0  0  0  0  0  0  0
   38.1910   26.4680   38.9180 C   0  0  0  0  0  0  0  0  0  0  0  0
   37.2310   26.1410   38.1340 O   0  0  0  0  0  0  0  0  0  0  0  0
   38.5310   26.1230   40.2670 N   0  0  0  0  0  0  0  0  0  0  0  0
   39.3990   26.6890   40.3470 H   0  0  0  0  0  0  0  0  0  0  0  0
  1  6  1  1  0  0  0
  2  1  1  0  0  0  0
  2  7  1  0  0  0  0
  2  3  1  0  0  0  0
  3  9  1  0  0  0  0
  4  3  1  0  0  0  0
  4 11  1  1  0  0  0
  5 13  1  0  0  0  0
  5  1  1  0  0  0  0
  5  4  1  0  0  0  0
  8  2  1  0  0  0  0
 10  3  1  0  0  0  0
 12  5  1  0  0  0  0
 14 15  1  0  0  0  0
 15 21  1  0  0  0  0
 15 16  2  0  0  0  0
 16  1  1  0  0  0  0
 17 16  1  0  0  0  0
 18 17  2  0  0  0  0
 19 14  2  0  0  0  0
 19 18  1  0  0  0  0
 20 14  1  0  0  0  0
 22 18  1  0  0  0  0
 23 26  1  1  0  0  0
 23  4  1  0  0  0  0
 24 23  1  0  0  0  0
 24 28  1  0  0  0  0
 24 27  1  0  0  0  0
 25 29  1  6  0  0  0
 25 24  1  0  0  0  0
 25 23  1  0  0  0  0
 30 31  1  0  0  0  0
 31 33  1  0  0  0  0
 32 31  2  0  0  0  0
 33 34  1  0  0  0  0
 33 25  1  0  0  0  0
M  END
>  <minimizedAffinity>
-4.62996817

$$$$

 OpenBabel03252507533D

 34 36  0  0  1  0  0  0  0  0999 V2000
   38.8170   24.8550   41.3840 C   0  0  2  0  0  0  0  0  0  0  0  0
   39.1570   24.3710   42.7670 C   0  0  0  0  0  0  0  0  0  0  0  0
   39.8020   25.6690   43.2930 C   0  0  0  0  0  0  0  0  0  0  0  0
   39.0030   26.7830   42.6650 C   0  0  1  0  0  0  0  0  0  0  0  0
   38.0250   26.1180   41.7540 C   0  0  0  0  0  0  0  0  0  0  0  0
   39.7260   25.1010   40.8400 H   0  0  0  0  0  0  0  0  0  0  0  0
   39.8840   23.5580   42.7460 H   0  0  0  0  0  0  0  0  0  0  0  0
   38.2330   24.1390   43.3050 H   0  0  0  0  0  0  0  0  0  0  0  0
   40.8670   25.6590   43.0040 H   0  0  0  0  0  0  0  0  0  0  0  0
   39.7410   25.6250   44.3800 H   0  0  0  0  0  0  0  0  0  0  0  0
   39.6370   27.4350   42.0370 H   0  0  0  0  0  0  0  0  0  0  0  0
   37.1760   25.6020   42.2460 H   0  0  0  0  0  0  0  0  0  0  0  0
   37.7600   26.6450   40.8400 H   0  0  0  0  0  0  0  0  0  0  0  0
   35.8430   23.1830   39.7700 C   0  0  0  0  0  0  0  0  0  0  0  0
   36.5760   24.1370   40.4930 C   0  0  0  0  0  0  0  0  0  0  0  0
   37.9550   23.9160   40.6240 C   0  0  0  0  0  0  0  0  0  0  0  0
   38.5300   22.7970   40.0520 N   0  0  0  0  0  0  0  0  0  0  0  0
   37.7690   21.9120   39.3670 C   0  0  0  0  0  0  0  0  0  0  0  0
   36.4470   22.1010   39.2280 N   0  0  0  0  0  0  0  0  0  0  0  0
   34.7680   23.3990   39.6950 H   0  0  0  0  0  0  0  0  0  0  0  0
   36.1690   25.0140   40.9480 H   0  0  0  0  0  0  0  0  0  0  0  0
   38.2300   21.0310   38.9200 H   0  0  0  0  0  0  0  0  0  0  0  0
   38.2010   27.5750   43.6430 C   0  0  2  0  0  0  0  0  0  0  0  0
   36.7460   27.5720   43.5130 C   0  0  0  0  0  0  0  0  0  0  0  0
   37.5740   28.8380   43.3980 C   0  0  2  0  0  0  0  0  0  0  0  0
   38.5980   27.3950   44.6860 H   0  0  0  0  0  0  0  0  0  0  0  0
   36.1620   27.4680   44.4820 H   0  0  0  0  0  0  0  0  0  0  0  0
   36.0660   27.5470   42.7000 H   0  0  0  0  0  0  0  0  0  0  0  0
   37.4710   29.5550   44.2770 H   0  0  0  0  0  0  0  0  0  0  0  0
   39.2770   31.0390   41.2210 H   0  0  0  0  0  0  0  0  0  0  0  0
   38.8520   30.3760   41.9990 C   0  0  0  0  0  0  0  0  0  0  0  0
   39.8380   30.6650   42.7660 O   0  0  0  0  0  0  0  0  0  0  0  0
   37.7010   29.5350   42.1380 N   0  0  0  0  0  0  0  0  0  0  0  0
   37.2810   29.7070   41.2030 H   0  0  0  0  0  0  0  0  0  0  0  0
  1  6  1  6  0  0  0
  1  5  1  0  0  0  0
  1  2  1  0  0  0  0
  2  3  1  0  0  0  0
  2  8  1  0  0  0  0
  3 10  1  0  0  0  0
  4 11  1  6  0  0  0
  4  3  1  0  0  0  0
  4 23  1  0  0  0  0
  5 12  1  0  0  0  0
  5  4  1  0  0  0  0
  7  2  1  0  0  0  0
  9  3  1  0  0  0  0
 13  5  1  0  0  0  0
 14 15  1  0  0  0  0
 15 16  2  0  0  0  0
 15 21  1  0  0  0  0
 16  1  1  0  0  0  0
 17 16  1  0  0  0  0
 18 17  2  0  0  0  0
 19 18  1  0  0  0  0
 19 14  2  0  0  0  0
 20 14  1  0  0  0  0
 22 18  1  0  0  0  0
 23 26  1  1  0  0  0
 24 23  1  0  0  0  0
 24 27  1  0  0  0  0
 25 24  1  0  0  0  0
 25 23  1  0  0  0  0
 25 29  1  1  0  0  0
 28 24  1  0  0  0  0
 30 31  1  0  0  0  0
 31 33  1  0  0  0  0
 31 32  2  0  0  0  0
 33 25  1  0  0  0  0
 34 33  1  0  0  0  0
M  END
>  <minimizedAffinity>
-4.59174824

$$$$

 OpenBabel03252507533D

 34 36  0  0  1  0  0  0  0  0999 V2000
   38.9650   28.1280   42.0050 C   0  0  2  0  0  0  0  0  0  0  0  0
   38.1220   29.0290   42.8670 C   0  0  0  0  0  0  0  0  0  0  0  0
   38.6640   30.3790   42.3550 C   0  0  0  0  0  0  0  0  0  0  0  0
   38.9250   30.1630   40.8860 C   0  0  1  0  0  0  0  0  0  0  0  0
   38.6310   28.7220   40.6280 C   0  0  0  0  0  0  0  0  0  0  0  0
   40.0180   28.2580   42.2480 H   0  0  0  0  0  0  0  0  0  0  0  0
   38.3410   28.8990   43.9270 H   0  0  0  0  0  0  0  0  0  0  0  0
   37.0680   28.8960   42.6010 H   0  0  0  0  0  0  0  0  0  0  0  0
   39.5640   30.6270   42.9420 H   0  0  0  0  0  0  0  0  0  0  0  0
   37.8970   31.1220   42.5750 H   0  0  0  0  0  0  0  0  0  0  0  0
   39.9880   30.3260   40.6320 H   0  0  0  0  0  0  0  0  0  0  0  0
   37.5600   28.4380   40.6200 H   0  0  0  0  0  0  0  0  0  0  0  0
   39.2340   28.2190   39.8750 H   0  0  0  0  0  0  0  0  0  0  0  0
   36.9180   24.9590   42.1020 C   0  0  0  0  0  0  0  0  0  0  0  0
   37.2040   26.3320   42.0270 C   0  0  0  0  0  0  0  0  0  0  0  0
   38.5570   26.7040   42.0600 C   0  0  0  0  0  0  0  0  0  0  0  0
   39.5350   25.7320   42.1650 N   0  0  0  0  0  0  0  0  0  0  0  0
   39.1940   24.4240   42.2350 C   0  0  0  0  0  0  0  0  0  0  0  0
   37.9070   24.0430   42.2050 N   0  0  0  0  0  0  0  0  0  0  0  0
   35.8460   24.7180   42.0730 H   0  0  0  0  0  0  0  0  0  0  0  0
   36.4780   27.1110   41.9450 H   0  0  0  0  0  0  0  0  0  0  0  0
   39.9730   23.6640   42.3170 H   0  0  0  0  0  0  0  0  0  0  0  0
   38.0210   30.9460   39.9920 C   0  0  2  0  0  0  0  0  0  0  0  0
   37.4590   32.1970   40.4940 C   0  0  0  0  0  0  0  0  0  0  0  0
   36.5940   31.0180   40.0850 C   0  0  2  0  0  0  0  0  0  0  0  0
   38.4700   30.9930   38.9550 H   0  0  0  0  0  0  0  0  0  0  0  0
   37.4570   33.0680   39.7650 H   0  0  0  0  0  0  0  0  0  0  0  0
   37.1210   32.5410   41.4390 H   0  0  0  0  0  0  0  0  0  0  0  0
   36.0110   31.1710   39.1190 H   0  0  0  0  0  0  0  0  0  0  0  0
   34.4790   28.3390   40.9940 H   0  0  0  0  0  0  0  0  0  0  0  0
   35.1330   29.1250   40.5720 C   0  0  0  0  0  0  0  0  0  0  0  0
   35.0080   28.5900   39.4130 O   0  0  0  0  0  0  0  0  0  0  0  0
   35.8420   30.2680   41.0640 N   0  0  0  0  0  0  0  0  0  0  0  0
   35.5660   30.1910   42.0630 H   0  0  0  0  0  0  0  0  0  0  0  0
  1 16  1  0  0  0  0
  1  6  1  1  0  0  0
  1  2  1  0  0  0  0
  2  7  1  0  0  0  0
  3 10  1  0  0  0  0
  3  2  1  0  0  0  0
  3  9  1  0  0  0  0
  4 11  1  6  0  0  0
  4  3  1  0  0  0  0
  5  4  1  0  0  0  0
  5  1  1  0  0  0  0
  8  2  1  0  0  0  0
 12  5  1  0  0  0  0
 13  5  1  0  0  0  0
 14 19  1  0  0  0  0
 15 16  1  0  0  0  0
 15 14  2  0  0  0  0
 16 17  2  0  0  0  0
 17 18  1  0  0  0  0
 18 22  1  0  0  0  0
 19 18  2  0  0  0  0
 20 14  1  0  0  0  0
 21 15  1  0  0  0  0
 23 26  1  6  0  0  0
 23 25  1  0  0  0  0
 23 24  1  0  0  0  0
 23  4  1  0  0  0  0
 24 28  1  0  0  0  0
 25 29  1  6  0  0  0
 25 24  1  0  0  0  0
 25 33  1  0  0  0  0
 27 24  1  0  0  0  0
 31 30  1  0  0  0  0
 31 33  1  0  0  0  0
 32 31  2  0  0  0  0
 33 34  1  0  0  0  0
M  END
>  <minimizedAffinity>
-4.58522511

$$$$

 OpenBabel03252507533D

 34 36  0  0  1  0  0  0  0  0999 V2000
   37.7290   26.2950   42.0350 C   0  0  2  0  0  0  0  0  0  0  0  0
   36.8800   27.3440   42.6990 C   0  0  0  0  0  0  0  0  0  0  0  0
   37.9980   28.0490   43.4940 C   0  0  0  0  0  0  0  0  0  0  0  0
   39.2080   27.9960   42.5950 C   0  0  1  0  0  0  0  0  0  0  0  0
   38.7910   27.2050   41.3990 C   0  0  0  0  0  0  0  0  0  0  0  0
   38.1660   25.6380   42.7840 H   0  0  0  0  0  0  0  0  0  0  0  0
   36.1440   26.9040   43.3720 H   0  0  0  0  0  0  0  0  0  0  0  0
   36.4590   28.0040   41.9340 H   0  0  0  0  0  0  0  0  0  0  0  0
   38.1220   27.5140   44.4500 H   0  0  0  0  0  0  0  0  0  0  0  0
   37.6360   29.0540   43.7080 H   0  0  0  0  0  0  0  0  0  0  0  0
   40.0430   27.4500   43.0690 H   0  0  0  0  0  0  0  0  0  0  0  0
   38.1150   27.7190   40.6880 H   0  0  0  0  0  0  0  0  0  0  0  0
   39.5490   26.5820   40.9280 H   0  0  0  0  0  0  0  0  0  0  0  0
   35.9760   23.5560   40.1190 C   0  0  0  0  0  0  0  0  0  0  0  0
   36.6330   24.1970   41.1810 C   0  0  0  0  0  0  0  0  0  0  0  0
   37.0130   25.5330   40.9820 C   0  0  0  0  0  0  0  0  0  0  0  0
   36.7360   26.1550   39.7800 N   0  0  0  0  0  0  0  0  0  0  0  0
   36.1000   25.4820   38.7920 C   0  0  0  0  0  0  0  0  0  0  0  0
   35.7260   24.2030   38.9590 N   0  0  0  0  0  0  0  0  0  0  0  0
   35.6990   22.5120   40.3220 H   0  0  0  0  0  0  0  0  0  0  0  0
   36.8640   23.7510   42.1240 H   0  0  0  0  0  0  0  0  0  0  0  0
   35.8850   25.9810   37.8460 H   0  0  0  0  0  0  0  0  0  0  0  0
   39.6420   29.3310   42.0890 C   0  0  2  0  0  0  0  0  0  0  0  0
   39.4370   30.4990   42.9440 C   0  0  0  0  0  0  0  0  0  0  0  0
   38.7880   30.3610   41.5790 C   0  0  2  0  0  0  0  0  0  0  0  0
   40.6680   29.2400   41.6240 H   0  0  0  0  0  0  0  0  0  0  0  0
   40.3010   31.2350   42.9910 H   0  0  0  0  0  0  0  0  0  0  0  0
   38.6920   30.8010   43.6350 H   0  0  0  0  0  0  0  0  0  0  0  0
   39.2140   31.0500   40.7790 H   0  0  0  0  0  0  0  0  0  0  0  0
   35.6230   31.4210   40.4200 H   0  0  0  0  0  0  0  0  0  0  0  0
   36.6680   31.2100   40.7180 C   0  0  0  0  0  0  0  0  0  0  0  0
   37.0400   32.2880   40.1320 O   0  0  0  0  0  0  0  0  0  0  0  0
   37.3590   30.1890   41.4460 N   0  0  0  0  0  0  0  0  0  0  0  0
   36.5400   29.5900   41.6710 H   0  0  0  0  0  0  0  0  0  0  0  0
  1  2  1  0  0  0  0
  1  6  1  1  0  0  0
  2  7  1  0  0  0  0
  2  3  1  0  0  0  0
  3 10  1  0  0  0  0
  3  9  1  0  0  0  0
  4 11  1  1  0  0  0
  4  3  1  0  0  0  0
  5  1  1  0  0  0  0
  5  4  1  0  0  0  0
  8  2  1  0  0  0  0
 12  5  1  0  0  0  0
 13  5  1  0  0  0  0
 14 20  1  0  0  0  0
 14 15  1  0  0  0  0
 15 21  1  0  0  0  0
 16 15  2  0  0  0  0
 16  1  1  0  0  0  0
 17 16  1  0  0  0  0
 18 19  1  0  0  0  0
 18 17  2  0  0  0  0
 19 14  2  0  0  0  0
 22 18  1  0  0  0  0
 23 26  1  6  0  0  0
 23  4  1  0  0  0  0
 23 24  1  0  0  0  0
 24 27  1  0  0  0  0
 24 28  1  0  0  0  0
 25 29  1  6  0  0  0
 25 23  1  0  0  0  0
 25 24  1  0  0  0  0
 30 31  1  0  0  0  0
 31 33  1  0  0  0  0
 32 31  2  0  0  0  0
 33 25  1  0  0  0  0
 33 34  1  0  0  0  0
M  END
>  <minimizedAffinity>
-4.56607246

$$$$
