
 OpenBabel03252508203D

 30 31  0  0  0  0  0  0  0  0999 V2000
   43.7560   34.1190   41.5570 C   0  0  0  0  0  0  0  0  0  0  0  0
   43.2900   35.0150   42.0540 H   0  0  0  0  0  0  0  0  0  0  0  0
   43.3040   33.2350   42.0110 H   0  0  0  0  0  0  0  0  0  0  0  0
   45.2090   34.2620   41.7450 C   0  0  0  0  0  0  0  0  0  0  0  0
   46.1580   34.2980   40.7580 C   0  0  0  0  0  0  0  0  0  0  0  0
   47.5110   34.4350   40.9930 C   0  0  0  0  0  0  0  0  0  0  0  0
   47.9220   34.5430   42.3180 C   0  0  0  0  0  0  0  0  0  0  0  0
   46.9900   34.5100   43.3310 C   0  0  0  0  0  0  0  0  0  0  0  0
   45.6600   34.3730   43.0550 C   0  0  0  0  0  0  0  0  0  0  0  0
   45.8010   34.2130   39.7430 H   0  0  0  0  0  0  0  0  0  0  0  0
   48.1690   34.4510   40.1380 H   0  0  0  0  0  0  0  0  0  0  0  0
   48.9900   34.6510   42.5010 H   0  0  0  0  0  0  0  0  0  0  0  0
   47.3620   34.5970   44.3400 H   0  0  0  0  0  0  0  0  0  0  0  0
   43.8660   36.0480   45.3870 H   0  0  0  0  0  0  0  0  0  0  0  0
   44.5010   35.6960   44.5680 C   0  0  0  0  0  0  0  0  0  0  0  0
   45.0390   36.6180   43.9020 O   0  0  0  0  0  0  0  0  0  0  0  0
   44.7820   34.3500   44.1770 N   0  0  0  0  0  0  0  0  0  0  0  0
   44.3140   33.6260   44.7580 H   0  0  0  0  0  0  0  0  0  0  0  0
   43.4050   34.2900   40.0770 C   0  0  0  0  0  0  0  0  0  0  0  0
   43.6810   33.4090   39.4930 H   0  0  0  0  0  0  0  0  0  0  0  0
   43.9260   35.2190   39.7540 H   0  0  0  0  0  0  0  0  0  0  0  0
   39.9870   35.8290   40.5470 C   0  0  0  0  0  0  0  0  0  0  0  0
   41.3860   35.6250   40.6920 C   0  0  0  0  0  0  0  0  0  0  0  0
   41.9450   34.5760   39.9830 C   0  0  0  0  0  0  0  0  0  0  0  0
   41.1310   33.8000   39.1890 N   0  0  0  0  0  0  0  0  0  0  0  0
   39.8140   34.0370   39.0880 C   0  0  0  0  0  0  0  0  0  0  0  0
   39.2390   35.0550   39.7690 N   0  0  0  0  0  0  0  0  0  0  0  0
   39.6530   36.6820   41.1490 H   0  0  0  0  0  0  0  0  0  0  0  0
   42.0080   36.2450   41.3200 H   0  0  0  0  0  0  0  0  0  0  0  0
   39.1600   33.4370   38.4680 H   0  0  0  0  0  0  0  0  0  0  0  0
  1  4  1  0  0  0  0
  1  3  1  0  0  0  0
  1  2  1  0  0  0  0
  4  9  1  0  0  0  0
  5  6  1  0  0  0  0
  5  4  2  0  0  0  0
  6  7  2  0  0  0  0
  7 12  1  0  0  0  0
  7  8  1  0  0  0  0
  8 13  1  0  0  0  0
  9  8  2  0  0  0  0
  9 17  1  0  0  0  0
 10  5  1  0  0  0  0
 11  6  1  0  0  0  0
 15 14  1  0  0  0  0
 16 15  2  0  0  0  0
 17 15  1  0  0  0  0
 17 18  1  0  0  0  0
 19  1  1  0  0  0  0
 20 19  1  0  0  0  0
 21 19  1  0  0  0  0
 22 23  1  0  0  0  0
 22 28  1  0  0  0  0
 23 29  1  0  0  0  0
 24 19  1  0  0  0  0
 24 23  2  0  0  0  0
 25 24  1  0  0  0  0
 26 25  2  0  0  0  0
 26 27  1  0  0  0  0
 27 22  2  0  0  0  0
 30 26  1  0  0  0  0
M  END
>  <minimizedAffinity>
-4.92815304

>  <minimizedRMSD>
1.91277444

$$$$
