
 OpenBabel03252509353D

 40 41  0  0  1  0  0  0  0  0999 V2000
   44.5390   35.4690   44.0650 O   0  0  0  0  0  0  0  0  0  0  0  0
   45.3940   34.2580   44.3840 P   0  0  1  0  0  0  0  0  0  0  0  0
   44.7180   32.8610   43.7070 O   0  0  0  0  0  0  0  0  0  0  0  0
   44.4280   32.9930   42.7660 H   0  0  0  0  0  0  0  0  0  0  0  0
   46.9170   34.5190   43.7460 O   0  0  0  0  0  0  0  0  0  0  0  0
   47.0430   33.8350   42.5310 C   0  0  1  0  0  0  0  0  0  0  0  0
   46.4530   34.6780   41.3980 C   0  0  0  0  0  0  0  0  0  0  0  0
   46.9550   33.9250   40.1960 C   0  0  0  0  0  0  0  0  0  0  0  0
   48.2440   33.2450   40.6330 C   0  0  0  0  0  0  0  0  0  0  0  0
   48.4590   33.7040   42.0670 C   0  0  1  0  0  0  0  0  0  0  0  0
   46.5200   32.8820   42.5020 H   0  0  0  0  0  0  0  0  0  0  0  0
   45.3240   34.6770   41.4460 H   0  0  0  0  0  0  0  0  0  0  0  0
   46.7460   35.7230   41.4210 H   0  0  0  0  0  0  0  0  0  0  0  0
   46.1740   33.2080   39.8970 H   0  0  0  0  0  0  0  0  0  0  0  0
   47.1510   34.6590   39.3790 H   0  0  0  0  0  0  0  0  0  0  0  0
   48.0300   32.1580   40.6720 H   0  0  0  0  0  0  0  0  0  0  0  0
   49.0910   33.5110   39.9780 H   0  0  0  0  0  0  0  0  0  0  0  0
   48.9260   32.8810   42.6470 H   0  0  0  0  0  0  0  0  0  0  0  0
   49.2230   34.9950   42.1300 C   0  0  0  0  0  0  0  0  0  0  0  0
   49.8930   35.0320   41.2250 H   0  0  0  0  0  0  0  0  0  0  0  0
   48.6090   35.9060   42.1310 H   0  0  0  0  0  0  0  0  0  0  0  0
   50.0390   35.0740   43.2400 O   0  0  0  0  0  0  0  0  0  0  0  0
   50.6830   35.8010   43.1430 H   0  0  0  0  0  0  0  0  0  0  0  0
   45.4720   34.0080   46.0300 O   0  0  0  0  0  0  0  0  0  0  0  0
   46.4330   33.0780   46.2930 C   0  0  0  0  0  0  0  0  0  0  0  0
   47.1850   33.5830   46.9670 H   0  0  0  0  0  0  0  0  0  0  0  0
   47.0140   32.6920   45.4600 H   0  0  0  0  0  0  0  0  0  0  0  0
   45.2380   30.9830   49.1320 C   0  0  0  0  0  0  0  0  0  0  0  0
   45.7330   32.0910   48.4250 C   0  0  0  0  0  0  0  0  0  0  0  0
   45.9130   31.9290   47.0580 C   0  0  0  0  0  0  0  0  0  0  0  0
   45.6050   30.7250   46.4710 N   0  0  0  0  0  0  0  0  0  0  0  0
   45.1300   29.6780   47.1750 C   0  0  0  0  0  0  0  0  0  0  0  0
   44.9500   29.8100   48.4950 N   0  0  0  0  0  0  0  0  0  0  0  0
   45.0670   31.0180   50.2000 H   0  0  0  0  0  0  0  0  0  0  0  0
   45.9520   32.9970   48.9370 H   0  0  0  0  0  0  0  0  0  0  0  0
   44.4140   26.3090   47.1750 H   0  0  0  0  0  0  0  0  0  0  0  0
   44.6510   27.3370   47.4330 C   0  0  0  0  0  0  0  0  0  0  0  0
   44.7740   27.4620   48.6890 O   0  0  0  0  0  0  0  0  0  0  0  0
   44.8190   28.4400   46.5450 N   0  0  0  0  0  0  0  0  0  0  0  0
   44.6930   28.2150   45.5140 H   0  0  0  0  0  0  0  0  0  0  0  0
  2  1  2  6  0  0  0
  2 24  1  0  0  0  0
  3  2  1  0  0  0  0
  4  3  1  0  0  0  0
  5  2  1  0  0  0  0
  6 11  1  1  0  0  0
  6  5  1  0  0  0  0
  7 13  1  0  0  0  0
  7 12  1  0  0  0  0
  7  6  1  0  0  0  0
  8  9  1  0  0  0  0
  8  7  1  0  0  0  0
  9 16  1  0  0  0  0
  9 10  1  0  0  0  0
 10 19  1  0  0  0  0
 10  6  1  0  0  0  0
 10 18  1  1  0  0  0
 14  8  1  0  0  0  0
 15  8  1  0  0  0  0
 17  9  1  0  0  0  0
 19 21  1  0  0  0  0
 19 22  1  0  0  0  0
 20 19  1  0  0  0  0
 23 22  1  0  0  0  0
 24 25  1  0  0  0  0
 25 26  1  0  0  0  0
 25 30  1  0  0  0  0
 27 25  1  0  0  0  0
 28 34  1  0  0  0  0
 29 35  1  0  0  0  0
 29 28  2  0  0  0  0
 30 29  1  0  0  0  0
 31 30  2  0  0  0  0
 31 32  1  0  0  0  0
 32 33  2  0  0  0  0
 33 28  1  0  0  0  0
 36 37  1  0  0  0  0
 37 38  2  0  0  0  0
 39 32  1  0  0  0  0
 39 37  1  0  0  0  0
 40 39  1  0  0  0  0
M  END
>  <minimizedAffinity>
-5.74283075

>  <minimizedRMSD>
1.12898529

$$$$
