
 OpenBabel03242519183D

 38 40  0  0  1  0  0  0  0  0999 V2000
   37.1740   28.9040   42.3360 C   0  0  0  0  0  0  0  0  0  0  0  0
   36.1700   28.2700   41.6380 C   0  0  0  0  0  0  0  0  0  0  0  0
   35.5100   28.8510   40.5440 C   0  0  0  0  0  0  0  0  0  0  0  0
   35.9290   30.0950   40.2130 N   0  0  0  0  0  0  0  0  0  0  0  0
   36.9050   30.7130   40.8930 C   0  0  0  0  0  0  0  0  0  0  0  0
   37.5100   30.1250   41.9310 N   0  0  0  0  0  0  0  0  0  0  0  0
   35.8860   27.2790   41.9560 H   0  0  0  0  0  0  0  0  0  0  0  0
   34.7270   28.3310   40.0160 H   0  0  0  0  0  0  0  0  0  0  0  0
   37.3940   32.0810   40.5170 C   0  0  2  0  0  0  0  0  0  0  0  0
   37.1680   32.5440   39.1120 C   0  0  0  0  0  0  0  0  0  0  0  0
   38.5460   32.1310   39.5730 C   0  0  2  0  0  0  0  0  0  0  0  0
   37.3790   32.8050   41.3640 H   0  0  0  0  0  0  0  0  0  0  0  0
   36.9660   33.6090   38.9280 H   0  0  0  0  0  0  0  0  0  0  0  0
   36.5660   31.8660   38.4770 H   0  0  0  0  0  0  0  0  0  0  0  0
   39.2380   32.9840   39.7230 H   0  0  0  0  0  0  0  0  0  0  0  0
   40.6960   29.4530   39.4180 H   0  0  0  0  0  0  0  0  0  0  0  0
   40.3610   30.4370   39.7820 C   0  0  0  0  0  0  0  0  0  0  0  0
   41.0260   31.0980   40.6260 O   0  0  0  0  0  0  0  0  0  0  0  0
   39.1460   30.8910   39.2360 N   0  0  0  0  0  0  0  0  0  0  0  0
   38.6090   30.3100   38.5260 H   0  0  0  0  0  0  0  0  0  0  0  0
   37.8430   28.2810   43.4470 C   0  0  0  0  0  0  0  0  0  0  0  0
   37.0840   28.0240   44.2320 H   0  0  0  0  0  0  0  0  0  0  0  0
   38.6170   28.9530   43.8780 H   0  0  0  0  0  0  0  0  0  0  0  0
   38.4860   27.0030   43.0120 C   0  0  0  0  0  0  0  0  0  0  0  0
   38.1260   26.1270   43.5740 H   0  0  0  0  0  0  0  0  0  0  0  0
   38.2690   26.7970   41.9420 H   0  0  0  0  0  0  0  0  0  0  0  0
   39.8520   24.3620   43.2530 Cl  0  0  0  0  0  0  0  0  0  0  0  0
   40.7180   25.8780   43.2360 C   0  0  0  0  0  0  0  0  0  0  0  0
   39.9710   27.0280   43.1180 C   0  0  0  0  0  0  0  0  0  0  0  0
   40.6550   28.2400   43.1020 C   0  0  0  0  0  0  0  0  0  0  0  0
   42.0340   28.2850   43.2010 C   0  0  0  0  0  0  0  0  0  0  0  0
   42.7680   27.0920   43.3200 C   0  0  0  0  0  0  0  0  0  0  0  0
   42.0810   25.8960   43.3350 C   0  0  0  0  0  0  0  0  0  0  0  0
   40.1440   29.1880   43.0140 H   0  0  0  0  0  0  0  0  0  0  0  0
   42.5510   29.2310   43.1880 H   0  0  0  0  0  0  0  0  0  0  0  0
   43.8500   27.1060   43.3980 H   0  0  0  0  0  0  0  0  0  0  0  0
   42.7340   24.6670   43.4500 O   0  0  0  0  0  0  0  0  0  0  0  0
   43.7020   24.6420   43.1570 H   0  0  0  0  0  0  0  0  0  0  0  0
  1 21  1  0  0  0  0
  2  7  1  0  0  0  0
  2  1  2  0  0  0  0
  3  2  1  0  0  0  0
  4  3  2  0  0  0  0
  4  5  1  0  0  0  0
  5  6  2  0  0  0  0
  6  1  1  0  0  0  0
  8  3  1  0  0  0  0
  9  5  1  0  0  0  0
  9 12  1  1  0  0  0
 10 11  1  0  0  0  0
 10  9  1  0  0  0  0
 11 15  1  1  0  0  0
 11  9  1  0  0  0  0
 13 10  1  0  0  0  0
 14 10  1  0  0  0  0
 16 17  1  0  0  0  0
 17 18  2  0  0  0  0
 19 11  1  0  0  0  0
 19 17  1  0  0  0  0
 20 19  1  0  0  0  0
 21 23  1  0  0  0  0
 21 22  1  0  0  0  0
 24 29  1  0  0  0  0
 24 21  1  0  0  0  0
 24 25  1  0  0  0  0
 26 24  1  0  0  0  0
 28 27  1  0  0  0  0
 28 33  1  0  0  0  0
 29 28  2  0  0  0  0
 30 29  1  0  0  0  0
 30 31  2  0  0  0  0
 31 32  1  0  0  0  0
 32 33  2  0  0  0  0
 32 36  1  0  0  0  0
 33 37  1  0  0  0  0
 34 30  1  0  0  0  0
 35 31  1  0  0  0  0
 38 37  1  0  0  0  0
M  END
>  <minimizedAffinity>
-5.7862196

$$$$

 OpenBabel03242519183D

 38 40  0  0  1  0  0  0  0  0999 V2000
   37.0480   29.1010   42.0130 C   0  0  0  0  0  0  0  0  0  0  0  0
   38.2740   29.3540   42.5860 C   0  0  0  0  0  0  0  0  0  0  0  0
   39.1170   28.3430   43.0760 C   0  0  0  0  0  0  0  0  0  0  0  0
   38.6390   27.0830   42.9480 N   0  0  0  0  0  0  0  0  0  0  0  0
   37.4450   26.8360   42.3920 C   0  0  0  0  0  0  0  0  0  0  0  0
   36.6710   27.8270   41.9370 N   0  0  0  0  0  0  0  0  0  0  0  0
   38.5940   30.3820   42.6560 H   0  0  0  0  0  0  0  0  0  0  0  0
   40.0720   28.5710   43.5200 H   0  0  0  0  0  0  0  0  0  0  0  0
   36.9180   25.4410   42.2220 C   0  0  2  0  0  0  0  0  0  0  0  0
   37.9080   24.3180   42.1960 C   0  0  0  0  0  0  0  0  0  0  0  0
   37.2300   24.7740   40.9250 C   0  0  2  0  0  0  0  0  0  0  0  0
   35.9030   25.2950   42.6550 H   0  0  0  0  0  0  0  0  0  0  0  0
   37.6240   23.3490   42.6320 H   0  0  0  0  0  0  0  0  0  0  0  0
   38.9580   24.6020   42.4020 H   0  0  0  0  0  0  0  0  0  0  0  0
   36.4520   24.0730   40.5610 H   0  0  0  0  0  0  0  0  0  0  0  0
   37.8320   26.7330   38.1660 H   0  0  0  0  0  0  0  0  0  0  0  0
   37.1960   26.1430   38.8440 C   0  0  0  0  0  0  0  0  0  0  0  0
   35.9580   26.0010   38.6450 O   0  0  0  0  0  0  0  0  0  0  0  0
   37.8680   25.5680   39.9390 N   0  0  0  0  0  0  0  0  0  0  0  0
   38.9130   25.7070   40.0800 H   0  0  0  0  0  0  0  0  0  0  0  0
   36.2080   30.1540   41.5080 C   0  0  0  0  0  0  0  0  0  0  0  0
   35.7090   30.6680   42.3710 H   0  0  0  0  0  0  0  0  0  0  0  0
   35.4390   29.7560   40.8120 H   0  0  0  0  0  0  0  0  0  0  0  0
   37.0350   31.1770   40.7970 C   0  0  0  0  0  0  0  0  0  0  0  0
   36.6910   32.2080   40.9760 H   0  0  0  0  0  0  0  0  0  0  0  0
   38.0910   31.1370   41.1390 H   0  0  0  0  0  0  0  0  0  0  0  0
   38.9370   32.8960   39.2700 Cl  0  0  0  0  0  0  0  0  0  0  0  0
   37.9200   31.6980   38.5070 C   0  0  0  0  0  0  0  0  0  0  0  0
   37.0870   30.9680   39.3230 C   0  0  0  0  0  0  0  0  0  0  0  0
   36.2760   30.0100   38.7220 C   0  0  0  0  0  0  0  0  0  0  0  0
   36.3080   29.8010   37.3560 C   0  0  0  0  0  0  0  0  0  0  0  0
   37.1710   30.5630   36.5490 C   0  0  0  0  0  0  0  0  0  0  0  0
   37.9710   31.5090   37.1540 C   0  0  0  0  0  0  0  0  0  0  0  0
   35.5920   29.3950   39.2910 H   0  0  0  0  0  0  0  0  0  0  0  0
   35.6730   29.0560   36.9030 H   0  0  0  0  0  0  0  0  0  0  0  0
   37.2110   30.4140   35.4750 H   0  0  0  0  0  0  0  0  0  0  0  0
   38.8550   32.3090   36.4260 O   0  0  0  0  0  0  0  0  0  0  0  0
   39.1630   31.9420   35.5350 H   0  0  0  0  0  0  0  0  0  0  0  0
  1  2  1  0  0  0  0
  2  7  1  0  0  0  0
  2  3  2  0  0  0  0
  3  8  1  0  0  0  0
  4  3  1  0  0  0  0
  5  4  2  0  0  0  0
  6  1  2  0  0  0  0
  6  5  1  0  0  0  0
  9  5  1  0  0  0  0
  9 12  1  1  0  0  0
 10  9  1  0  0  0  0
 10 14  1  0  0  0  0
 10 13  1  0  0  0  0
 11 15  1  6  0  0  0
 11 10  1  0  0  0  0
 11  9  1  0  0  0  0
 16 17  1  0  0  0  0
 17 19  1  0  0  0  0
 18 17  2  0  0  0  0
 19 20  1  0  0  0  0
 19 11  1  0  0  0  0
 21  1  1  0  0  0  0
 21 22  1  0  0  0  0
 23 21  1  0  0  0  0
 24 25  1  0  0  0  0
 24 26  1  0  0  0  0
 24 21  1  0  0  0  0
 28 27  1  0  0  0  0
 28 29  1  0  0  0  0
 29 24  1  0  0  0  0
 30 34  1  0  0  0  0
 30 29  2  0  0  0  0
 31 30  1  0  0  0  0
 32 33  1  0  0  0  0
 32 31  2  0  0  0  0
 33 28  2  0  0  0  0
 35 31  1  0  0  0  0
 36 32  1  0  0  0  0
 37 33  1  0  0  0  0
 38 37  1  0  0  0  0
M  END
>  <minimizedAffinity>
-5.60866642

$$$$

 OpenBabel03242519183D

 38 40  0  0  1  0  0  0  0  0999 V2000
   37.2770   29.1470   39.0520 C   0  0  0  0  0  0  0  0  0  0  0  0
   35.9750   29.5940   39.0000 C   0  0  0  0  0  0  0  0  0  0  0  0
   35.0300   29.3270   40.0040 C   0  0  0  0  0  0  0  0  0  0  0  0
   35.4870   28.5890   41.0430 N   0  0  0  0  0  0  0  0  0  0  0  0
   36.7530   28.1530   41.0940 C   0  0  0  0  0  0  0  0  0  0  0  0
   37.6240   28.4290   40.1170 N   0  0  0  0  0  0  0  0  0  0  0  0
   35.6780   30.1780   38.1430 H   0  0  0  0  0  0  0  0  0  0  0  0
   34.0170   29.6900   39.9370 H   0  0  0  0  0  0  0  0  0  0  0  0
   37.2760   27.3560   42.2540 C   0  0  2  0  0  0  0  0  0  0  0  0
   36.5350   27.4420   43.5510 C   0  0  0  0  0  0  0  0  0  0  0  0
   37.8630   28.1400   43.3770 C   0  0  2  0  0  0  0  0  0  0  0  0
   37.7850   26.4140   41.9500 H   0  0  0  0  0  0  0  0  0  0  0  0
   36.4830   26.5520   44.1940 H   0  0  0  0  0  0  0  0  0  0  0  0
   35.5930   28.0220   43.5260 H   0  0  0  0  0  0  0  0  0  0  0  0
   38.6990   27.6420   43.9080 H   0  0  0  0  0  0  0  0  0  0  0  0
   39.1270   31.2550   42.6570 H   0  0  0  0  0  0  0  0  0  0  0  0
   39.1870   30.1610   42.7670 C   0  0  0  0  0  0  0  0  0  0  0  0
   40.2520   29.5240   42.5370 O   0  0  0  0  0  0  0  0  0  0  0  0
   37.9940   29.5380   43.1780 N   0  0  0  0  0  0  0  0  0  0  0  0
   37.1120   30.1030   43.3630 H   0  0  0  0  0  0  0  0  0  0  0  0
   38.2290   29.4450   38.0160 C   0  0  0  0  0  0  0  0  0  0  0  0
   37.8680   29.0020   37.0510 H   0  0  0  0  0  0  0  0  0  0  0  0
   39.2330   29.0390   38.2640 H   0  0  0  0  0  0  0  0  0  0  0  0
   38.3300   30.9240   37.8180 C   0  0  0  0  0  0  0  0  0  0  0  0
   38.7090   31.1990   36.8210 H   0  0  0  0  0  0  0  0  0  0  0  0
   37.3340   31.4040   37.9150 H   0  0  0  0  0  0  0  0  0  0  0  0
   37.0260   32.9890   39.5310 Cl  0  0  0  0  0  0  0  0  0  0  0  0
   38.7130   32.5630   39.6790 C   0  0  0  0  0  0  0  0  0  0  0  0
   39.1940   31.5930   38.8300 C   0  0  0  0  0  0  0  0  0  0  0  0
   40.5370   31.2470   38.9430 C   0  0  0  0  0  0  0  0  0  0  0  0
   41.3570   31.8580   39.8750 C   0  0  0  0  0  0  0  0  0  0  0  0
   40.8350   32.8450   40.7290 C   0  0  0  0  0  0  0  0  0  0  0  0
   39.5030   33.1800   40.6090 C   0  0  0  0  0  0  0  0  0  0  0  0
   40.9930   30.4960   38.3140 H   0  0  0  0  0  0  0  0  0  0  0  0
   42.3960   31.5800   39.9530 H   0  0  0  0  0  0  0  0  0  0  0  0
   41.4610   33.3350   41.4670 H   0  0  0  0  0  0  0  0  0  0  0  0
   38.9060   34.1510   41.4160 O   0  0  0  0  0  0  0  0  0  0  0  0
   39.3500   34.3310   42.3070 H   0  0  0  0  0  0  0  0  0  0  0  0
  1  6  1  0  0  0  0
  2  1  2  0  0  0  0
  2  3  1  0  0  0  0
  3  4  2  0  0  0  0
  4  5  1  0  0  0  0
  5  9  1  0  0  0  0
  6  5  2  0  0  0  0
  7  2  1  0  0  0  0
  8  3  1  0  0  0  0
  9 12  1  6  0  0  0
  9 11  1  0  0  0  0
  9 10  1  0  0  0  0
 10 13  1  0  0  0  0
 11 10  1  0  0  0  0
 11 15  1  1  0  0  0
 14 10  1  0  0  0  0
 16 17  1  0  0  0  0
 17 19  1  0  0  0  0
 18 17  2  0  0  0  0
 19 20  1  0  0  0  0
 19 11  1  0  0  0  0
 21 23  1  0  0  0  0
 21  1  1  0  0  0  0
 22 21  1  0  0  0  0
 24 26  1  0  0  0  0
 24 21  1  0  0  0  0
 24 29  1  0  0  0  0
 25 24  1  0  0  0  0
 27 28  1  0  0  0  0
 28 33  1  0  0  0  0
 29 30  1  0  0  0  0
 29 28  2  0  0  0  0
 30 31  2  0  0  0  0
 31 35  1  0  0  0  0
 31 32  1  0  0  0  0
 32 36  1  0  0  0  0
 33 32  2  0  0  0  0
 33 37  1  0  0  0  0
 34 30  1  0  0  0  0
 37 38  1  0  0  0  0
M  END
>  <minimizedAffinity>
-5.54377556

$$$$

 OpenBabel03242519183D

 38 40  0  0  1  0  0  0  0  0999 V2000
   36.8260   28.5590   39.4830 C   0  0  0  0  0  0  0  0  0  0  0  0
   36.9010   28.6090   38.1090 C   0  0  0  0  0  0  0  0  0  0  0  0
   37.0100   29.8090   37.3880 C   0  0  0  0  0  0  0  0  0  0  0  0
   37.0360   30.9330   38.1430 N   0  0  0  0  0  0  0  0  0  0  0  0
   36.9620   30.8850   39.4800 C   0  0  0  0  0  0  0  0  0  0  0  0
   36.8590   29.7210   40.1300 N   0  0  0  0  0  0  0  0  0  0  0  0
   36.8750   27.6740   37.5700 H   0  0  0  0  0  0  0  0  0  0  0  0
   37.0660   29.8170   36.3120 H   0  0  0  0  0  0  0  0  0  0  0  0
   37.0160   32.1240   40.3250 C   0  0  2  0  0  0  0  0  0  0  0  0
   37.5200   33.3820   39.6910 C   0  0  0  0  0  0  0  0  0  0  0  0
   38.3770   32.6210   40.6750 C   0  0  2  0  0  0  0  0  0  0  0  0
   36.2270   32.1590   41.1110 H   0  0  0  0  0  0  0  0  0  0  0  0
   37.0850   34.3440   39.9980 H   0  0  0  0  0  0  0  0  0  0  0  0
   37.7280   33.3200   38.6060 H   0  0  0  0  0  0  0  0  0  0  0  0
   38.4550   33.1120   41.6670 H   0  0  0  0  0  0  0  0  0  0  0  0
   41.1240   30.5580   40.7560 H   0  0  0  0  0  0  0  0  0  0  0  0
   40.3200   31.1570   41.2100 C   0  0  0  0  0  0  0  0  0  0  0  0
   40.1800   31.2470   42.4610 O   0  0  0  0  0  0  0  0  0  0  0  0
   39.4700   31.8040   40.2930 N   0  0  0  0  0  0  0  0  0  0  0  0
   39.6150   31.7070   39.2450 H   0  0  0  0  0  0  0  0  0  0  0  0
   36.7270   27.3150   40.1990 C   0  0  0  0  0  0  0  0  0  0  0  0
   37.6090   26.6730   39.9370 H   0  0  0  0  0  0  0  0  0  0  0  0
   35.7850   26.7810   39.9490 H   0  0  0  0  0  0  0  0  0  0  0  0
   36.7780   27.5620   41.6730 C   0  0  0  0  0  0  0  0  0  0  0  0
   36.6860   28.6290   41.9330 H   0  0  0  0  0  0  0  0  0  0  0  0
   35.9430   27.0420   42.1880 H   0  0  0  0  0  0  0  0  0  0  0  0
   36.9630   24.6080   42.0490 Cl  0  0  0  0  0  0  0  0  0  0  0  0
   38.2270   25.7070   42.5420 C   0  0  0  0  0  0  0  0  0  0  0  0
   38.0210   27.0480   42.3110 C   0  0  0  0  0  0  0  0  0  0  0  0
   39.0260   27.9290   42.7000 C   0  0  0  0  0  0  0  0  0  0  0  0
   40.1870   27.4720   43.2950 C   0  0  0  0  0  0  0  0  0  0  0  0
   40.3680   26.0960   43.5170 C   0  0  0  0  0  0  0  0  0  0  0  0
   39.3670   25.2310   43.1280 C   0  0  0  0  0  0  0  0  0  0  0  0
   38.9420   28.9970   42.5550 H   0  0  0  0  0  0  0  0  0  0  0  0
   40.9580   28.1660   43.5920 H   0  0  0  0  0  0  0  0  0  0  0  0
   41.2720   25.7180   43.9820 H   0  0  0  0  0  0  0  0  0  0  0  0
   39.4660   23.8500   43.3120 O   0  0  0  0  0  0  0  0  0  0  0  0
   40.4010   23.4720   43.3880 H   0  0  0  0  0  0  0  0  0  0  0  0
  1  6  1  0  0  0  0
  1 21  1  0  0  0  0
  2  1  2  0  0  0  0
  3  2  1  0  0  0  0
  3  4  2  0  0  0  0
  4  5  1  0  0  0  0
  5  6  2  0  0  0  0
  5  9  1  0  0  0  0
  7  2  1  0  0  0  0
  8  3  1  0  0  0  0
  9 11  1  0  0  0  0
  9 12  1  1  0  0  0
 10 13  1  0  0  0  0
 10  9  1  0  0  0  0
 10 11  1  0  0  0  0
 11 15  1  1  0  0  0
 14 10  1  0  0  0  0
 16 17  1  0  0  0  0
 17 18  2  0  0  0  0
 19 11  1  0  0  0  0
 19 17  1  0  0  0  0
 20 19  1  0  0  0  0
 21 24  1  0  0  0  0
 22 21  1  0  0  0  0
 23 21  1  0  0  0  0
 24 25  1  0  0  0  0
 24 26  1  0  0  0  0
 24 29  1  0  0  0  0
 27 28  1  0  0  0  0
 28 33  1  0  0  0  0
 29 28  2  0  0  0  0
 29 30  1  0  0  0  0
 30 31  2  0  0  0  0
 31 32  1  0  0  0  0
 31 35  1  0  0  0  0
 32 36  1  0  0  0  0
 33 37  1  0  0  0  0
 33 32  2  0  0  0  0
 34 30  1  0  0  0  0
 37 38  1  0  0  0  0
M  END
>  <minimizedAffinity>
-5.52762699

$$$$

 OpenBabel03242519183D

 38 40  0  0  1  0  0  0  0  0999 V2000
   36.5970   26.5990   39.9220 C   0  0  0  0  0  0  0  0  0  0  0  0
   36.5830   25.2220   39.8990 C   0  0  0  0  0  0  0  0  0  0  0  0
   36.9540   24.4310   40.9990 C   0  0  0  0  0  0  0  0  0  0  0  0
   37.3330   25.1200   42.1010 N   0  0  0  0  0  0  0  0  0  0  0  0
   37.3480   26.4600   42.1240 C   0  0  0  0  0  0  0  0  0  0  0  0
   36.9870   27.1780   41.0540 N   0  0  0  0  0  0  0  0  0  0  0  0
   36.2710   24.7380   38.9870 H   0  0  0  0  0  0  0  0  0  0  0  0
   36.9340   23.3550   40.9520 H   0  0  0  0  0  0  0  0  0  0  0  0
   37.7410   27.2320   43.3500 C   0  0  2  0  0  0  0  0  0  0  0  0
   38.0540   28.6870   43.1890 C   0  0  0  0  0  0  0  0  0  0  0  0
   39.1600   27.6830   43.4140 C   0  0  2  0  0  0  0  0  0  0  0  0
   37.2690   26.8500   44.2830 H   0  0  0  0  0  0  0  0  0  0  0  0
   37.7920   29.3800   44.0010 H   0  0  0  0  0  0  0  0  0  0  0  0
   37.8770   29.1050   42.1800 H   0  0  0  0  0  0  0  0  0  0  0  0
   39.5930   27.7210   44.4340 H   0  0  0  0  0  0  0  0  0  0  0  0
   41.5860   25.9780   41.6760 H   0  0  0  0  0  0  0  0  0  0  0  0
   40.9970   26.2250   42.5730 C   0  0  0  0  0  0  0  0  0  0  0  0
   41.1900   25.6490   43.6780 O   0  0  0  0  0  0  0  0  0  0  0  0
   40.0210   27.2220   42.3860 N   0  0  0  0  0  0  0  0  0  0  0  0
   39.8830   27.6890   41.4410 H   0  0  0  0  0  0  0  0  0  0  0  0
   36.2010   27.3860   38.7850 C   0  0  0  0  0  0  0  0  0  0  0  0
   35.4570   26.8050   38.1810 H   0  0  0  0  0  0  0  0  0  0  0  0
   37.0770   27.6480   38.1530 H   0  0  0  0  0  0  0  0  0  0  0  0
   35.5270   28.6420   39.2370 C   0  0  0  0  0  0  0  0  0  0  0  0
   34.4920   28.7300   38.8690 H   0  0  0  0  0  0  0  0  0  0  0  0
   35.4680   28.6810   40.3450 H   0  0  0  0  0  0  0  0  0  0  0  0
   35.8110   30.7640   41.3150 Cl  0  0  0  0  0  0  0  0  0  0  0  0
   36.4520   30.9290   39.6980 C   0  0  0  0  0  0  0  0  0  0  0  0
   36.2550   29.8770   38.8330 C   0  0  0  0  0  0  0  0  0  0  0  0
   36.7650   30.0000   37.5440 C   0  0  0  0  0  0  0  0  0  0  0  0
   37.4430   31.1390   37.1490 C   0  0  0  0  0  0  0  0  0  0  0  0
   37.6280   32.1960   38.0570 C   0  0  0  0  0  0  0  0  0  0  0  0
   37.1200   32.0640   39.3320 C   0  0  0  0  0  0  0  0  0  0  0  0
   36.6530   29.2210   36.8040 H   0  0  0  0  0  0  0  0  0  0  0  0
   37.8330   31.2220   36.1470 H   0  0  0  0  0  0  0  0  0  0  0  0
   38.1580   33.0970   37.7670 H   0  0  0  0  0  0  0  0  0  0  0  0
   37.2590   33.0670   40.2940 O   0  0  0  0  0  0  0  0  0  0  0  0
   38.0300   33.7080   40.1670 H   0  0  0  0  0  0  0  0  0  0  0  0
  1  6  1  0  0  0  0
  2  1  2  0  0  0  0
  2  3  1  0  0  0  0
  3  4  2  0  0  0  0
  4  5  1  0  0  0  0
  5  9  1  0  0  0  0
  6  5  2  0  0  0  0
  7  2  1  0  0  0  0
  8  3  1  0  0  0  0
  9 11  1  0  0  0  0
  9 12  1  1  0  0  0
 10  9  1  0  0  0  0
 10 11  1  0  0  0  0
 10 13  1  0  0  0  0
 11 15  1  1  0  0  0
 14 10  1  0  0  0  0
 16 17  1  0  0  0  0
 17 18  2  0  0  0  0
 19 17  1  0  0  0  0
 19 11  1  0  0  0  0
 20 19  1  0  0  0  0
 21 24  1  0  0  0  0
 21  1  1  0  0  0  0
 22 21  1  0  0  0  0
 23 21  1  0  0  0  0
 24 26  1  0  0  0  0
 25 24  1  0  0  0  0
 28 27  1  0  0  0  0
 29 24  1  0  0  0  0
 29 28  2  0  0  0  0
 30 29  1  0  0  0  0
 31 30  2  0  0  0  0
 31 32  1  0  0  0  0
 32 33  2  0  0  0  0
 33 28  1  0  0  0  0
 33 37  1  0  0  0  0
 34 30  1  0  0  0  0
 35 31  1  0  0  0  0
 36 32  1  0  0  0  0
 38 37  1  0  0  0  0
M  END
>  <minimizedAffinity>
-5.48551416

$$$$

 OpenBabel03242519183D

 38 40  0  0  1  0  0  0  0  0999 V2000
   36.3120   28.5210   39.6590 C   0  0  0  0  0  0  0  0  0  0  0  0
   36.3950   27.3460   38.9460 C   0  0  0  0  0  0  0  0  0  0  0  0
   36.6650   26.1040   39.5420 C   0  0  0  0  0  0  0  0  0  0  0  0
   36.8430   26.1350   40.8840 N   0  0  0  0  0  0  0  0  0  0  0  0
   36.7630   27.2780   41.5780 C   0  0  0  0  0  0  0  0  0  0  0  0
   36.5040   28.4430   40.9730 N   0  0  0  0  0  0  0  0  0  0  0  0
   36.2430   27.3940   37.8790 H   0  0  0  0  0  0  0  0  0  0  0  0
   36.7250   25.1990   38.9580 H   0  0  0  0  0  0  0  0  0  0  0  0
   36.9330   27.3190   43.0690 C   0  0  2  0  0  0  0  0  0  0  0  0
   37.4940   28.5670   43.6750 C   0  0  0  0  0  0  0  0  0  0  0  0
   38.3360   27.3170   43.5700 C   0  0  2  0  0  0  0  0  0  0  0  0
   36.1790   26.7080   43.6160 H   0  0  0  0  0  0  0  0  0  0  0  0
   37.1360   28.8850   44.6650 H   0  0  0  0  0  0  0  0  0  0  0  0
   37.6540   29.4080   42.9740 H   0  0  0  0  0  0  0  0  0  0  0  0
   38.4860   26.8000   44.5400 H   0  0  0  0  0  0  0  0  0  0  0  0
   40.9290   26.0140   41.7280 H   0  0  0  0  0  0  0  0  0  0  0  0
   40.1830   26.0010   42.5380 C   0  0  0  0  0  0  0  0  0  0  0  0
   40.0840   25.0320   43.3400 O   0  0  0  0  0  0  0  0  0  0  0  0
   39.3570   27.1390   42.6030 N   0  0  0  0  0  0  0  0  0  0  0  0
   39.4660   27.9400   41.9110 H   0  0  0  0  0  0  0  0  0  0  0  0
   36.0210   29.7800   39.0270 C   0  0  0  0  0  0  0  0  0  0  0  0
   35.6370   30.4970   39.7990 H   0  0  0  0  0  0  0  0  0  0  0  0
   35.2690   29.6590   38.2180 H   0  0  0  0  0  0  0  0  0  0  0  0
   37.2710   30.3700   38.4540 C   0  0  0  0  0  0  0  0  0  0  0  0
   38.0990   29.6460   38.3940 H   0  0  0  0  0  0  0  0  0  0  0  0
   37.0970   30.7320   37.4190 H   0  0  0  0  0  0  0  0  0  0  0  0
   39.5360   29.9050   40.3400 Cl  0  0  0  0  0  0  0  0  0  0  0  0
   38.7980   31.4710   40.1130 C   0  0  0  0  0  0  0  0  0  0  0  0
   37.7610   31.5540   39.2130 C   0  0  0  0  0  0  0  0  0  0  0  0
   37.1690   32.8000   39.0260 C   0  0  0  0  0  0  0  0  0  0  0  0
   37.6090   33.9120   39.7210 C   0  0  0  0  0  0  0  0  0  0  0  0
   38.6710   33.7950   40.6340 C   0  0  0  0  0  0  0  0  0  0  0  0
   39.2510   32.5560   40.8110 C   0  0  0  0  0  0  0  0  0  0  0  0
   36.3490   32.9510   38.3380 H   0  0  0  0  0  0  0  0  0  0  0  0
   37.1410   34.8710   39.5670 H   0  0  0  0  0  0  0  0  0  0  0  0
   39.0310   34.6550   41.1880 H   0  0  0  0  0  0  0  0  0  0  0  0
   40.3100   32.3520   41.7000 O   0  0  0  0  0  0  0  0  0  0  0  0
   40.8710   33.1630   41.9230 H   0  0  0  0  0  0  0  0  0  0  0  0
  1  6  1  0  0  0  0
  2  3  1  0  0  0  0
  2  1  2  0  0  0  0
  3  4  2  0  0  0  0
  4  5  1  0  0  0  0
  5  9  1  0  0  0  0
  6  5  2  0  0  0  0
  7  2  1  0  0  0  0
  8  3  1  0  0  0  0
  9 11  1  0  0  0  0
  9 12  1  1  0  0  0
  9 10  1  0  0  0  0
 10 13  1  0  0  0  0
 11 10  1  0  0  0  0
 11 15  1  1  0  0  0
 14 10  1  0  0  0  0
 16 17  1  0  0  0  0
 17 19  1  0  0  0  0
 17 18  2  0  0  0  0
 19 11  1  0  0  0  0
 20 19  1  0  0  0  0
 21  1  1  0  0  0  0
 21 22  1  0  0  0  0
 23 21  1  0  0  0  0
 24 21  1  0  0  0  0
 24 29  1  0  0  0  0
 25 24  1  0  0  0  0
 26 24  1  0  0  0  0
 28 27  1  0  0  0  0
 28 33  1  0  0  0  0
 29 28  2  0  0  0  0
 30 29  1  0  0  0  0
 30 31  2  0  0  0  0
 31 32  1  0  0  0  0
 32 33  2  0  0  0  0
 32 36  1  0  0  0  0
 33 37  1  0  0  0  0
 34 30  1  0  0  0  0
 35 31  1  0  0  0  0
 37 38  1  0  0  0  0
M  END
>  <minimizedAffinity>
-5.45094299

$$$$

 OpenBabel03242519183D

 38 40  0  0  1  0  0  0  0  0999 V2000
   36.9560   29.0530   40.3510 C   0  0  0  0  0  0  0  0  0  0  0  0
   36.3760   30.0860   41.0540 C   0  0  0  0  0  0  0  0  0  0  0  0
   36.5380   31.4370   40.7080 C   0  0  0  0  0  0  0  0  0  0  0  0
   37.3140   31.6640   39.6220 N   0  0  0  0  0  0  0  0  0  0  0  0
   37.8790   30.6590   38.9380 C   0  0  0  0  0  0  0  0  0  0  0  0
   37.7010   29.3840   39.3000 N   0  0  0  0  0  0  0  0  0  0  0  0
   35.7700   29.8330   41.9100 H   0  0  0  0  0  0  0  0  0  0  0  0
   36.0730   32.2250   41.2780 H   0  0  0  0  0  0  0  0  0  0  0  0
   38.7190   30.9000   37.7180 C   0  0  2  0  0  0  0  0  0  0  0  0
   40.0280   30.1810   37.6170 C   0  0  0  0  0  0  0  0  0  0  0  0
   39.9850   31.6590   37.9310 C   0  0  2  0  0  0  0  0  0  0  0  0
   38.1210   31.1240   36.8050 H   0  0  0  0  0  0  0  0  0  0  0  0
   40.3830   29.8580   36.6280 H   0  0  0  0  0  0  0  0  0  0  0  0
   40.2330   29.4470   38.4190 H   0  0  0  0  0  0  0  0  0  0  0  0
   40.2930   32.3020   37.0810 H   0  0  0  0  0  0  0  0  0  0  0  0
   40.9280   33.6930   40.5350 H   0  0  0  0  0  0  0  0  0  0  0  0
   40.8400   33.4180   39.4730 C   0  0  0  0  0  0  0  0  0  0  0  0
   41.2860   34.1580   38.5530 O   0  0  0  0  0  0  0  0  0  0  0  0
   40.1970   32.1910   39.2270 N   0  0  0  0  0  0  0  0  0  0  0  0
   39.8320   31.5900   40.0250 H   0  0  0  0  0  0  0  0  0  0  0  0
   36.7640   27.6750   40.7190 C   0  0  0  0  0  0  0  0  0  0  0  0
   37.6000   27.0630   40.2880 H   0  0  0  0  0  0  0  0  0  0  0  0
   35.7880   27.2930   40.3500 H   0  0  0  0  0  0  0  0  0  0  0  0
   36.8220   27.5260   42.2060 C   0  0  0  0  0  0  0  0  0  0  0  0
   36.6510   28.4740   42.7400 H   0  0  0  0  0  0  0  0  0  0  0  0
   36.0410   26.8220   42.5620 H   0  0  0  0  0  0  0  0  0  0  0  0
   37.0860   24.5550   42.1570 Cl  0  0  0  0  0  0  0  0  0  0  0  0
   38.3600   25.6100   42.7180 C   0  0  0  0  0  0  0  0  0  0  0  0
   38.1130   26.9640   42.6890 C   0  0  0  0  0  0  0  0  0  0  0  0
   39.1250   27.8100   43.1320 C   0  0  0  0  0  0  0  0  0  0  0  0
   40.3310   27.3080   43.5860 C   0  0  0  0  0  0  0  0  0  0  0  0
   40.5520   25.9200   43.6030 C   0  0  0  0  0  0  0  0  0  0  0  0
   39.5430   25.0900   43.1610 C   0  0  0  0  0  0  0  0  0  0  0  0
   39.0120   28.8860   43.1430 H   0  0  0  0  0  0  0  0  0  0  0  0
   41.1060   27.9760   43.9270 H   0  0  0  0  0  0  0  0  0  0  0  0
   41.4910   25.5070   43.9540 H   0  0  0  0  0  0  0  0  0  0  0  0
   39.6800   23.6990   43.1450 O   0  0  0  0  0  0  0  0  0  0  0  0
   40.6260   23.3410   43.1100 H   0  0  0  0  0  0  0  0  0  0  0  0
  1 21  1  0  0  0  0
  1  2  1  0  0  0  0
  2  7  1  0  0  0  0
  3  2  2  0  0  0  0
  3  8  1  0  0  0  0
  4  3  1  0  0  0  0
  5  6  1  0  0  0  0
  5  4  2  0  0  0  0
  6  1  2  0  0  0  0
  9 12  1  6  0  0  0
  9 11  1  0  0  0  0
  9  5  1  0  0  0  0
 10  9  1  0  0  0  0
 10 11  1  0  0  0  0
 10 14  1  0  0  0  0
 11 15  1  6  0  0  0
 11 19  1  0  0  0  0
 13 10  1  0  0  0  0
 17 16  1  0  0  0  0
 18 17  2  0  0  0  0
 19 17  1  0  0  0  0
 19 20  1  0  0  0  0
 21 24  1  0  0  0  0
 22 21  1  0  0  0  0
 23 21  1  0  0  0  0
 24 26  1  0  0  0  0
 24 29  1  0  0  0  0
 24 25  1  0  0  0  0
 27 28  1  0  0  0  0
 28 33  1  0  0  0  0
 29 28  2  0  0  0  0
 29 30  1  0  0  0  0
 30 34  1  0  0  0  0
 30 31  2  0  0  0  0
 31 32  1  0  0  0  0
 31 35  1  0  0  0  0
 32 36  1  0  0  0  0
 33 32  2  0  0  0  0
 37 33  1  0  0  0  0
 38 37  1  0  0  0  0
M  END
>  <minimizedAffinity>
-5.43814278

$$$$

 OpenBabel03242519183D

 38 40  0  0  1  0  0  0  0  0999 V2000
   38.5830   26.6610   43.0230 C   0  0  0  0  0  0  0  0  0  0  0  0
   39.6770   25.9160   43.4050 C   0  0  0  0  0  0  0  0  0  0  0  0
   39.8290   24.5560   43.0890 C   0  0  0  0  0  0  0  0  0  0  0  0
   38.8160   24.0150   42.3730 N   0  0  0  0  0  0  0  0  0  0  0  0
   37.7510   24.7390   42.0010 C   0  0  0  0  0  0  0  0  0  0  0  0
   37.6430   26.0330   42.3230 N   0  0  0  0  0  0  0  0  0  0  0  0
   40.4480   26.4110   43.9750 H   0  0  0  0  0  0  0  0  0  0  0  0
   40.6960   23.9980   43.4020 H   0  0  0  0  0  0  0  0  0  0  0  0
   36.6350   24.1540   41.1850 C   0  0  2  0  0  0  0  0  0  0  0  0
   36.9960   23.1980   40.0920 C   0  0  0  0  0  0  0  0  0  0  0  0
   36.5540   24.6050   39.7660 C   0  0  2  0  0  0  0  0  0  0  0  0
   35.6850   24.0380   41.7530 H   0  0  0  0  0  0  0  0  0  0  0  0
   36.3160   22.3620   39.8700 H   0  0  0  0  0  0  0  0  0  0  0  0
   38.0660   22.9210   40.0320 H   0  0  0  0  0  0  0  0  0  0  0  0
   35.5260   24.6630   39.3520 H   0  0  0  0  0  0  0  0  0  0  0  0
   37.8420   27.6080   38.7000 H   0  0  0  0  0  0  0  0  0  0  0  0
   37.0280   26.9200   38.9760 C   0  0  0  0  0  0  0  0  0  0  0  0
   35.8160   27.2690   38.9360 O   0  0  0  0  0  0  0  0  0  0  0  0
   37.4450   25.6360   39.3740 N   0  0  0  0  0  0  0  0  0  0  0  0
   38.4750   25.3720   39.3980 H   0  0  0  0  0  0  0  0  0  0  0  0
   38.4570   28.0560   43.3510 C   0  0  0  0  0  0  0  0  0  0  0  0
   39.4600   28.5470   43.2480 H   0  0  0  0  0  0  0  0  0  0  0  0
   38.0750   28.1930   44.3850 H   0  0  0  0  0  0  0  0  0  0  0  0
   37.5300   28.7290   42.3900 C   0  0  0  0  0  0  0  0  0  0  0  0
   37.3060   28.1120   41.5050 H   0  0  0  0  0  0  0  0  0  0  0  0
   36.5540   28.9490   42.8710 H   0  0  0  0  0  0  0  0  0  0  0  0
   35.6400   30.3850   40.7820 Cl  0  0  0  0  0  0  0  0  0  0  0  0
   37.2670   30.8980   41.1550 C   0  0  0  0  0  0  0  0  0  0  0  0
   38.0390   30.0420   41.9060 C   0  0  0  0  0  0  0  0  0  0  0  0
   39.3370   30.4450   42.2090 C   0  0  0  0  0  0  0  0  0  0  0  0
   39.8290   31.6610   41.7690 C   0  0  0  0  0  0  0  0  0  0  0  0
   39.0140   32.5130   41.0030 C   0  0  0  0  0  0  0  0  0  0  0  0
   37.7300   32.1040   40.7090 C   0  0  0  0  0  0  0  0  0  0  0  0
   40.0080   29.8320   42.7930 H   0  0  0  0  0  0  0  0  0  0  0  0
   40.8360   31.9600   42.0100 H   0  0  0  0  0  0  0  0  0  0  0  0
   39.3820   33.4700   40.6490 H   0  0  0  0  0  0  0  0  0  0  0  0
   36.8560   32.8890   39.9540 O   0  0  0  0  0  0  0  0  0  0  0  0
   37.0410   33.8840   39.9430 H   0  0  0  0  0  0  0  0  0  0  0  0
  1 21  1  0  0  0  0
  1  2  1  0  0  0  0
  2  7  1  0  0  0  0
  3  8  1  0  0  0  0
  3  2  2  0  0  0  0
  4  3  1  0  0  0  0
  5  6  1  0  0  0  0
  5  4  2  0  0  0  0
  6  1  2  0  0  0  0
  9 12  1  1  0  0  0
  9  5  1  0  0  0  0
 10  9  1  0  0  0  0
 11 15  1  6  0  0  0
 11 10  1  0  0  0  0
 11  9  1  0  0  0  0
 13 10  1  0  0  0  0
 14 10  1  0  0  0  0
 16 17  1  0  0  0  0
 17 19  1  0  0  0  0
 18 17  2  0  0  0  0
 19 20  1  0  0  0  0
 19 11  1  0  0  0  0
 21 23  1  0  0  0  0
 22 21  1  0  0  0  0
 24 26  1  0  0  0  0
 24 21  1  0  0  0  0
 25 24  1  0  0  0  0
 27 28  1  0  0  0  0
 28 29  1  0  0  0  0
 29 30  2  0  0  0  0
 29 24  1  0  0  0  0
 30 34  1  0  0  0  0
 31 35  1  0  0  0  0
 31 30  1  0  0  0  0
 32 31  2  0  0  0  0
 33 32  1  0  0  0  0
 33 28  2  0  0  0  0
 36 32  1  0  0  0  0
 37 33  1  0  0  0  0
 38 37  1  0  0  0  0
M  END
>  <minimizedAffinity>
-5.42710304

$$$$

 OpenBabel03242519183D

 38 40  0  0  1  0  0  0  0  0999 V2000
   38.0430   29.3920   42.4160 C   0  0  0  0  0  0  0  0  0  0  0  0
   39.1830   29.9610   42.9390 C   0  0  0  0  0  0  0  0  0  0  0  0
   39.7790   31.1160   42.4070 C   0  0  0  0  0  0  0  0  0  0  0  0
   39.1520   31.6430   41.3280 N   0  0  0  0  0  0  0  0  0  0  0  0
   38.0430   31.0890   40.8190 C   0  0  0  0  0  0  0  0  0  0  0  0
   37.5060   29.9870   41.3550 N   0  0  0  0  0  0  0  0  0  0  0  0
   39.6320   29.4890   43.7990 H   0  0  0  0  0  0  0  0  0  0  0  0
   40.6720   31.5400   42.8370 H   0  0  0  0  0  0  0  0  0  0  0  0
   37.3260   31.6800   39.6400 C   0  0  2  0  0  0  0  0  0  0  0  0
   36.5600   30.7520   38.7500 C   0  0  0  0  0  0  0  0  0  0  0  0
   37.8770   31.3390   38.2980 C   0  0  2  0  0  0  0  0  0  0  0  0
   36.9750   32.7230   39.8130 H   0  0  0  0  0  0  0  0  0  0  0  0
   35.6310   31.1090   38.2830 H   0  0  0  0  0  0  0  0  0  0  0  0
   36.5060   29.7010   39.0900 H   0  0  0  0  0  0  0  0  0  0  0  0
   37.7690   32.1340   37.5320 H   0  0  0  0  0  0  0  0  0  0  0  0
   41.1580   30.4340   37.8230 H   0  0  0  0  0  0  0  0  0  0  0  0
   40.3020   31.1240   37.7700 C   0  0  0  0  0  0  0  0  0  0  0  0
   40.4100   32.2860   37.2910 O   0  0  0  0  0  0  0  0  0  0  0  0
   39.0930   30.6110   38.2760 N   0  0  0  0  0  0  0  0  0  0  0  0
   39.0340   29.6260   38.6730 H   0  0  0  0  0  0  0  0  0  0  0  0
   37.4460   28.2150   42.9870 C   0  0  0  0  0  0  0  0  0  0  0  0
   36.5180   27.9600   42.4110 H   0  0  0  0  0  0  0  0  0  0  0  0
   37.1920   28.3720   44.0580 H   0  0  0  0  0  0  0  0  0  0  0  0
   38.3790   27.0530   42.8670 C   0  0  0  0  0  0  0  0  0  0  0  0
   39.3980   27.3480   42.5700 H   0  0  0  0  0  0  0  0  0  0  0  0
   38.4790   26.5250   43.8390 H   0  0  0  0  0  0  0  0  0  0  0  0
   39.4700   24.2980   43.2200 Cl  0  0  0  0  0  0  0  0  0  0  0  0
   38.3380   24.7140   41.9570 C   0  0  0  0  0  0  0  0  0  0  0  0
   37.9090   26.0210   41.9020 C   0  0  0  0  0  0  0  0  0  0  0  0
   37.0060   26.3590   40.8980 C   0  0  0  0  0  0  0  0  0  0  0  0
   36.5580   25.4160   39.9910 C   0  0  0  0  0  0  0  0  0  0  0  0
   37.0150   24.0890   40.0750 C   0  0  0  0  0  0  0  0  0  0  0  0
   37.9100   23.7640   41.0730 C   0  0  0  0  0  0  0  0  0  0  0  0
   36.6210   27.3630   40.7850 H   0  0  0  0  0  0  0  0  0  0  0  0
   35.8590   25.6920   39.2190 H   0  0  0  0  0  0  0  0  0  0  0  0
   36.6760   23.3350   39.3730 H   0  0  0  0  0  0  0  0  0  0  0  0
   38.4140   22.4700   41.2250 O   0  0  0  0  0  0  0  0  0  0  0  0
   37.8510   21.7210   40.8440 H   0  0  0  0  0  0  0  0  0  0  0  0
  1  2  1  0  0  0  0
  1 21  1  0  0  0  0
  2  7  1  0  0  0  0
  3  8  1  0  0  0  0
  3  2  2  0  0  0  0
  4  3  1  0  0  0  0
  5  4  2  0  0  0  0
  5  6  1  0  0  0  0
  6  1  2  0  0  0  0
  9 12  1  1  0  0  0
  9  5  1  0  0  0  0
 10 14  1  0  0  0  0
 10  9  1  0  0  0  0
 11 15  1  6  0  0  0
 11 10  1  0  0  0  0
 11  9  1  0  0  0  0
 13 10  1  0  0  0  0
 17 16  1  0  0  0  0
 17 19  1  0  0  0  0
 18 17  2  0  0  0  0
 19 11  1  0  0  0  0
 19 20  1  0  0  0  0
 21 23  1  0  0  0  0
 22 21  1  0  0  0  0
 24 21  1  0  0  0  0
 24 26  1  0  0  0  0
 25 24  1  0  0  0  0
 28 27  1  0  0  0  0
 29 28  1  0  0  0  0
 29 24  1  0  0  0  0
 30 29  2  0  0  0  0
 31 32  2  0  0  0  0
 31 30  1  0  0  0  0
 32 33  1  0  0  0  0
 33 37  1  0  0  0  0
 33 28  2  0  0  0  0
 34 30  1  0  0  0  0
 35 31  1  0  0  0  0
 36 32  1  0  0  0  0
 38 37  1  0  0  0  0
M  END
>  <minimizedAffinity>
-5.41284895

$$$$
