
 OpenBabel03242514403D

 38 40  0  0  0  0  0  0  0  0999 V2000
   37.8230   33.1650   39.6580 C   0  0  0  0  0  0  0  0  0  0  0  0
   36.9160   34.0490   39.3970 O   0  0  0  0  0  0  0  0  0  0  0  0
   39.0170   33.9300   40.0840 C   0  0  0  0  0  0  0  0  0  0  0  0
   39.0930   35.3260   40.2740 C   0  0  0  0  0  0  0  0  0  0  0  0
   40.3420   35.7620   40.6740 C   0  0  0  0  0  0  0  0  0  0  0  0
   41.3680   34.9280   40.8590 C   0  0  0  0  0  0  0  0  0  0  0  0
   40.5880   33.2580   40.4410 S   0  0  0  0  0  0  0  0  0  0  0  0
   38.2680   36.0050   40.1250 H   0  0  0  0  0  0  0  0  0  0  0  0
   40.6030   36.7930   40.8700 H   0  0  0  0  0  0  0  0  0  0  0  0
   42.7490   34.9930   41.2510 C   0  0  0  0  0  0  0  0  0  0  0  0
   43.7070   34.2630   40.6070 C   0  0  0  0  0  0  0  0  0  0  0  0
   44.9900   34.4350   41.1040 C   0  0  0  0  0  0  0  0  0  0  0  0
   45.2300   35.2910   42.1690 C   0  0  0  0  0  0  0  0  0  0  0  0
   44.2230   36.0070   42.7860 C   0  0  0  0  0  0  0  0  0  0  0  0
   42.9690   35.8210   42.2810 N   0  0  0  0  0  0  0  0  0  0  0  0
   43.4910   33.6050   39.7800 H   0  0  0  0  0  0  0  0  0  0  0  0
   45.8210   33.9010   40.6620 H   0  0  0  0  0  0  0  0  0  0  0  0
   46.2190   35.4490   42.5810 H   0  0  0  0  0  0  0  0  0  0  0  0
   44.4130   36.6680   43.6100 H   0  0  0  0  0  0  0  0  0  0  0  0
   37.3580   31.9290   39.4540 O   0  0  0  0  0  0  0  0  0  0  0  0
   36.9210   29.4320   39.9080 O   0  0  0  0  0  0  0  0  0  0  0  0
   37.0490   30.7530   40.5980 P   0  0  2  0  0  0  0  0  0  0  0  0
   35.6040   31.0930   41.3390 O   0  0  0  0  0  0  0  0  0  0  0  0
   35.7200   31.7320   42.0900 H   0  0  0  0  0  0  0  0  0  0  0  0
   38.3580   30.7190   41.7370 O   0  0  0  0  0  0  0  0  0  0  0  0
   39.9830   29.0370   42.1670 C   0  0  0  0  0  0  0  0  0  0  0  0
   38.7120   29.5340   42.3710 C   0  0  0  0  0  0  0  0  0  0  0  0
   37.8370   28.8240   43.2060 C   0  0  0  0  0  0  0  0  0  0  0  0
   38.2970   27.6710   43.7730 N   0  0  0  0  0  0  0  0  0  0  0  0
   39.5330   27.2190   43.5540 C   0  0  0  0  0  0  0  0  0  0  0  0
   40.3760   27.8890   42.7600 N   0  0  0  0  0  0  0  0  0  0  0  0
   40.7380   29.4850   41.5560 H   0  0  0  0  0  0  0  0  0  0  0  0
   36.8400   29.2170   43.3630 H   0  0  0  0  0  0  0  0  0  0  0  0
   40.3610   23.8930   43.5280 H   0  0  0  0  0  0  0  0  0  0  0  0
   40.0420   24.9010   43.2510 C   0  0  0  0  0  0  0  0  0  0  0  0
   39.7340   24.9830   42.0320 O   0  0  0  0  0  0  0  0  0  0  0  0
   39.9840   25.9990   44.1710 N   0  0  0  0  0  0  0  0  0  0  0  0
   40.2630   25.8280   45.1660 H   0  0  0  0  0  0  0  0  0  0  0  0
  1  3  1  0  0  0  0
  2  1  2  0  0  0  0
  3  4  2  0  0  0  0
  3  7  1  0  0  0  0
  4  5  1  0  0  0  0
  5  6  2  0  0  0  0
  5  9  1  0  0  0  0
  6 10  1  0  0  0  0
  7  6  1  0  0  0  0
  8  4  1  0  0  0  0
 10 15  1  0  0  0  0
 11 12  1  0  0  0  0
 11 10  2  0  0  0  0
 12 13  2  0  0  0  0
 13 18  1  0  0  0  0
 13 14  1  0  0  0  0
 14 19  1  0  0  0  0
 15 14  2  0  0  0  0
 16 11  1  0  0  0  0
 17 12  1  0  0  0  0
 20  1  1  0  0  0  0
 20 22  1  0  0  0  0
 22 21  2  6  0  0  0
 22 23  1  0  0  0  0
 22 25  1  0  0  0  0
 23 24  1  0  0  0  0
 25 27  1  0  0  0  0
 26 27  2  0  0  0  0
 26 31  1  0  0  0  0
 27 28  1  0  0  0  0
 28 33  1  0  0  0  0
 28 29  2  0  0  0  0
 30 29  1  0  0  0  0
 30 37  1  0  0  0  0
 31 30  2  0  0  0  0
 32 26  1  0  0  0  0
 35 34  1  0  0  0  0
 35 37  1  0  0  0  0
 36 35  2  0  0  0  0
 37 38  1  0  0  0  0
M  END
>  <minimizedAffinity>
-7.08012629

$$$$

 OpenBabel03242514403D

 38 40  0  0  0  0  0  0  0  0999 V2000
   36.6200   29.4090   40.6330 C   0  0  0  0  0  0  0  0  0  0  0  0
   36.3500   28.8110   39.5170 O   0  0  0  0  0  0  0  0  0  0  0  0
   37.1600   30.7350   40.2550 C   0  0  0  0  0  0  0  0  0  0  0  0
   36.7350   31.5350   39.1740 C   0  0  0  0  0  0  0  0  0  0  0  0
   37.4250   32.7280   39.0650 C   0  0  0  0  0  0  0  0  0  0  0  0
   38.3970   33.0740   39.9110 C   0  0  0  0  0  0  0  0  0  0  0  0
   38.4420   31.5880   41.0760 S   0  0  0  0  0  0  0  0  0  0  0  0
   35.9500   31.2600   38.4870 H   0  0  0  0  0  0  0  0  0  0  0  0
   37.2490   33.4760   38.3040 H   0  0  0  0  0  0  0  0  0  0  0  0
   39.3020   34.1710   40.1180 C   0  0  0  0  0  0  0  0  0  0  0  0
   38.8730   35.4670   40.0740 C   0  0  0  0  0  0  0  0  0  0  0  0
   39.8660   36.4090   40.2930 C   0  0  0  0  0  0  0  0  0  0  0  0
   41.1750   36.0170   40.5330 C   0  0  0  0  0  0  0  0  0  0  0  0
   41.5570   34.6910   40.5670 C   0  0  0  0  0  0  0  0  0  0  0  0
   40.5640   33.7820   40.3480 N   0  0  0  0  0  0  0  0  0  0  0  0
   37.8470   35.7410   39.8850 H   0  0  0  0  0  0  0  0  0  0  0  0
   39.6280   37.4640   40.2790 H   0  0  0  0  0  0  0  0  0  0  0  0
   41.9750   36.7260   40.7080 H   0  0  0  0  0  0  0  0  0  0  0  0
   42.5710   34.3920   40.7520 H   0  0  0  0  0  0  0  0  0  0  0  0
   36.3190   28.6310   41.6760 O   0  0  0  0  0  0  0  0  0  0  0  0
   37.1600   26.5380   42.9190 O   0  0  0  0  0  0  0  0  0  0  0  0
   37.3620   28.0170   42.8260 P   0  0  2  0  0  0  0  0  0  0  0  0
   36.9890   28.6850   44.2980 O   0  0  0  0  0  0  0  0  0  0  0  0
   37.4350   29.5630   44.4250 H   0  0  0  0  0  0  0  0  0  0  0  0
   38.9930   28.3790   42.3570 O   0  0  0  0  0  0  0  0  0  0  0  0
   40.5050   27.2950   43.8390 C   0  0  0  0  0  0  0  0  0  0  0  0
   40.0080   27.4530   42.5600 C   0  0  0  0  0  0  0  0  0  0  0  0
   40.5490   26.6730   41.5280 C   0  0  0  0  0  0  0  0  0  0  0  0
   41.5440   25.7960   41.8490 N   0  0  0  0  0  0  0  0  0  0  0  0
   42.0010   25.6700   43.0950 C   0  0  0  0  0  0  0  0  0  0  0  0
   41.4910   26.4090   44.0890 N   0  0  0  0  0  0  0  0  0  0  0  0
   40.1770   27.8290   44.7050 H   0  0  0  0  0  0  0  0  0  0  0  0
   40.1570   26.8000   40.5250 H   0  0  0  0  0  0  0  0  0  0  0  0
   45.2350   24.8300   43.8580 H   0  0  0  0  0  0  0  0  0  0  0  0
   44.3170   25.3710   43.6160 C   0  0  0  0  0  0  0  0  0  0  0  0
   44.5020   26.6160   43.5530 O   0  0  0  0  0  0  0  0  0  0  0  0
   43.0510   24.7340   43.3980 N   0  0  0  0  0  0  0  0  0  0  0  0
   43.0020   23.6900   43.4730 H   0  0  0  0  0  0  0  0  0  0  0  0
  1 20  1  0  0  0  0
  2  1  2  0  0  0  0
  3  1  1  0  0  0  0
  3  7  1  0  0  0  0
  4  3  2  0  0  0  0
  5  4  1  0  0  0  0
  5  6  2  0  0  0  0
  6 10  1  0  0  0  0
  6  7  1  0  0  0  0
  8  4  1  0  0  0  0
  9  5  1  0  0  0  0
 10 15  1  0  0  0  0
 11 10  2  0  0  0  0
 11 12  1  0  0  0  0
 12 13  2  0  0  0  0
 13 14  1  0  0  0  0
 13 18  1  0  0  0  0
 14 19  1  0  0  0  0
 15 14  2  0  0  0  0
 16 11  1  0  0  0  0
 17 12  1  0  0  0  0
 20 22  1  0  0  0  0
 22 21  2  1  0  0  0
 22 23  1  0  0  0  0
 23 24  1  0  0  0  0
 25 27  1  0  0  0  0
 25 22  1  0  0  0  0
 26 31  1  0  0  0  0
 26 32  1  0  0  0  0
 27 26  2  0  0  0  0
 28 29  2  0  0  0  0
 28 27  1  0  0  0  0
 29 30  1  0  0  0  0
 30 37  1  0  0  0  0
 30 31  2  0  0  0  0
 33 28  1  0  0  0  0
 35 34  1  0  0  0  0
 36 35  2  0  0  0  0
 37 38  1  0  0  0  0
 37 35  1  0  0  0  0
M  END
>  <minimizedAffinity>
-6.51721144

$$$$

 OpenBabel03242514403D

 38 40  0  0  0  0  0  0  0  0999 V2000
   38.4650   33.2110   39.7240 C   0  0  0  0  0  0  0  0  0  0  0  0
   37.8990   32.7470   40.7920 O   0  0  0  0  0  0  0  0  0  0  0  0
   39.6080   34.0240   40.1980 C   0  0  0  0  0  0  0  0  0  0  0  0
   39.6400   35.4280   40.3290 C   0  0  0  0  0  0  0  0  0  0  0  0
   40.8480   35.9120   40.7970 C   0  0  0  0  0  0  0  0  0  0  0  0
   41.8740   35.1120   41.0920 C   0  0  0  0  0  0  0  0  0  0  0  0
   41.1630   33.4070   40.6970 S   0  0  0  0  0  0  0  0  0  0  0  0
   38.8130   36.0790   40.0910 H   0  0  0  0  0  0  0  0  0  0  0  0
   41.0710   36.9570   40.9640 H   0  0  0  0  0  0  0  0  0  0  0  0
   43.2220   35.2280   41.5790 C   0  0  0  0  0  0  0  0  0  0  0  0
   44.2540   34.5580   40.9860 C   0  0  0  0  0  0  0  0  0  0  0  0
   45.4910   34.7740   41.5720 C   0  0  0  0  0  0  0  0  0  0  0  0
   45.6200   35.6130   42.6700 C   0  0  0  0  0  0  0  0  0  0  0  0
   44.5430   36.2680   43.2320 C   0  0  0  0  0  0  0  0  0  0  0  0
   43.3350   36.0400   42.6390 N   0  0  0  0  0  0  0  0  0  0  0  0
   44.1230   33.9120   40.1320 H   0  0  0  0  0  0  0  0  0  0  0  0
   46.3730   34.2880   41.1760 H   0  0  0  0  0  0  0  0  0  0  0  0
   46.5700   35.8040   43.1510 H   0  0  0  0  0  0  0  0  0  0  0  0
   44.6460   36.9160   44.0810 H   0  0  0  0  0  0  0  0  0  0  0  0
   37.8260   32.7960   38.6270 O   0  0  0  0  0  0  0  0  0  0  0  0
   39.8410   31.5420   37.6250 O   0  0  0  0  0  0  0  0  0  0  0  0
   38.3590   31.6900   37.4940 P   0  0  2  0  0  0  0  0  0  0  0  0
   38.0280   32.2770   35.9770 O   0  0  0  0  0  0  0  0  0  0  0  0
   37.1030   32.0560   35.6940 H   0  0  0  0  0  0  0  0  0  0  0  0
   37.5690   30.1710   37.7760 O   0  0  0  0  0  0  0  0  0  0  0  0
   38.2980   29.3690   39.8930 C   0  0  0  0  0  0  0  0  0  0  0  0
   37.2630   29.7630   39.0690 C   0  0  0  0  0  0  0  0  0  0  0  0
   35.9550   29.7350   39.5720 C   0  0  0  0  0  0  0  0  0  0  0  0
   35.7780   29.3160   40.8580 N   0  0  0  0  0  0  0  0  0  0  0  0
   36.8010   28.9400   41.6270 C   0  0  0  0  0  0  0  0  0  0  0  0
   38.0550   28.9650   41.1580 N   0  0  0  0  0  0  0  0  0  0  0  0
   39.3340   29.3470   39.6270 H   0  0  0  0  0  0  0  0  0  0  0  0
   35.1450   30.0450   38.9220 H   0  0  0  0  0  0  0  0  0  0  0  0
   36.5610   26.5610   44.0820 H   0  0  0  0  0  0  0  0  0  0  0  0
   36.6950   27.0840   43.1320 C   0  0  0  0  0  0  0  0  0  0  0  0
   36.9660   26.2920   42.1900 O   0  0  0  0  0  0  0  0  0  0  0  0
   36.5770   28.5040   42.9800 N   0  0  0  0  0  0  0  0  0  0  0  0
   36.3480   29.0760   43.8280 H   0  0  0  0  0  0  0  0  0  0  0  0
  1  3  1  0  0  0  0
  1  2  2  0  0  0  0
  3  4  2  0  0  0  0
  3  7  1  0  0  0  0
  4  5  1  0  0  0  0
  5  9  1  0  0  0  0
  5  6  2  0  0  0  0
  6 10  1  0  0  0  0
  7  6  1  0  0  0  0
  8  4  1  0  0  0  0
 10 15  1  0  0  0  0
 11 12  1  0  0  0  0
 11 10  2  0  0  0  0
 12 13  2  0  0  0  0
 13 18  1  0  0  0  0
 13 14  1  0  0  0  0
 14 19  1  0  0  0  0
 15 14  2  0  0  0  0
 16 11  1  0  0  0  0
 17 12  1  0  0  0  0
 20  1  1  0  0  0  0
 22 21  2  1  0  0  0
 22 25  1  0  0  0  0
 22 20  1  0  0  0  0
 23 22  1  0  0  0  0
 24 23  1  0  0  0  0
 25 27  1  0  0  0  0
 26 31  1  0  0  0  0
 27 28  1  0  0  0  0
 27 26  2  0  0  0  0
 28 29  2  0  0  0  0
 29 30  1  0  0  0  0
 30 37  1  0  0  0  0
 31 30  2  0  0  0  0
 32 26  1  0  0  0  0
 33 28  1  0  0  0  0
 35 34  1  0  0  0  0
 36 35  2  0  0  0  0
 37 35  1  0  0  0  0
 37 38  1  0  0  0  0
M  END
>  <minimizedAffinity>
-6.37372255

$$$$

 OpenBabel03242514403D

 38 40  0  0  0  0  0  0  0  0999 V2000
   39.5290   33.9010   40.1230 C   0  0  0  0  0  0  0  0  0  0  0  0
   39.0060   34.8900   40.7740 O   0  0  0  0  0  0  0  0  0  0  0  0
   38.7030   32.7190   40.4610 C   0  0  0  0  0  0  0  0  0  0  0  0
   37.3370   32.5390   40.1600 C   0  0  0  0  0  0  0  0  0  0  0  0
   36.8290   31.3310   40.6010 C   0  0  0  0  0  0  0  0  0  0  0  0
   37.5750   30.4340   41.2490 C   0  0  0  0  0  0  0  0  0  0  0  0
   39.2550   31.2960   41.3070 S   0  0  0  0  0  0  0  0  0  0  0  0
   36.7300   33.2610   39.6370 H   0  0  0  0  0  0  0  0  0  0  0  0
   35.8060   31.0060   40.4690 H   0  0  0  0  0  0  0  0  0  0  0  0
   37.4200   29.1310   41.8370 C   0  0  0  0  0  0  0  0  0  0  0  0
   37.5230   28.9410   43.1860 C   0  0  0  0  0  0  0  0  0  0  0  0
   37.3480   27.6290   43.5960 C   0  0  0  0  0  0  0  0  0  0  0  0
   37.0920   26.6250   42.6730 C   0  0  0  0  0  0  0  0  0  0  0  0
   36.9980   26.8700   41.3180 C   0  0  0  0  0  0  0  0  0  0  0  0
   37.1730   28.1690   40.9370 N   0  0  0  0  0  0  0  0  0  0  0  0
   37.7230   29.7430   43.8800 H   0  0  0  0  0  0  0  0  0  0  0  0
   37.4110   27.3740   44.6460 H   0  0  0  0  0  0  0  0  0  0  0  0
   36.9510   25.5900   42.9590 H   0  0  0  0  0  0  0  0  0  0  0  0
   36.8000   26.0910   40.6070 H   0  0  0  0  0  0  0  0  0  0  0  0
   40.5850   34.3040   39.4110 O   0  0  0  0  0  0  0  0  0  0  0  0
   42.4010   32.8700   40.5420 O   0  0  0  0  0  0  0  0  0  0  0  0
   42.2000   34.1580   39.8090 P   0  0  2  0  0  0  0  0  0  0  0  0
   42.6150   35.4020   40.8250 O   0  0  0  0  0  0  0  0  0  0  0  0
   42.8580   36.2220   40.3200 H   0  0  0  0  0  0  0  0  0  0  0  0
   43.1430   34.1830   38.3530 O   0  0  0  0  0  0  0  0  0  0  0  0
   42.2040   32.3480   37.1650 C   0  0  0  0  0  0  0  0  0  0  0  0
   43.3240   33.0230   37.6090 C   0  0  0  0  0  0  0  0  0  0  0  0
   44.5890   32.5100   37.2900 C   0  0  0  0  0  0  0  0  0  0  0  0
   44.6420   31.3630   36.5530 N   0  0  0  0  0  0  0  0  0  0  0  0
   43.5390   30.7350   36.1410 C   0  0  0  0  0  0  0  0  0  0  0  0
   42.3260   31.2170   36.4390 N   0  0  0  0  0  0  0  0  0  0  0  0
   41.1900   32.6370   37.3430 H   0  0  0  0  0  0  0  0  0  0  0  0
   45.4660   33.0430   37.6400 H   0  0  0  0  0  0  0  0  0  0  0  0
   43.3320   27.3410   35.7130 H   0  0  0  0  0  0  0  0  0  0  0  0
   43.3190   28.3530   36.1250 C   0  0  0  0  0  0  0  0  0  0  0  0
   42.9940   28.3650   37.3420 O   0  0  0  0  0  0  0  0  0  0  0  0
   43.6330   29.5270   35.3650 N   0  0  0  0  0  0  0  0  0  0  0  0
   43.8920   29.4100   34.3560 H   0  0  0  0  0  0  0  0  0  0  0  0
  1  3  1  0  0  0  0
  1  2  2  0  0  0  0
  3  7  1  0  0  0  0
  4  3  2  0  0  0  0
  4  5  1  0  0  0  0
  5  6  2  0  0  0  0
  6  7  1  0  0  0  0
  6 10  1  0  0  0  0
  8  4  1  0  0  0  0
  9  5  1  0  0  0  0
 10 11  1  0  0  0  0
 11 12  2  0  0  0  0
 11 16  1  0  0  0  0
 12 17  1  0  0  0  0
 13 18  1  0  0  0  0
 13 12  1  0  0  0  0
 14 13  2  0  0  0  0
 15 14  1  0  0  0  0
 15 10  2  0  0  0  0
 19 14  1  0  0  0  0
 20 22  1  0  0  0  0
 20  1  1  0  0  0  0
 22 21  2  1  0  0  0
 22 23  1  0  0  0  0
 24 23  1  0  0  0  0
 25 22  1  0  0  0  0
 26 32  1  0  0  0  0
 26 27  1  0  0  0  0
 27 25  1  0  0  0  0
 28 27  2  0  0  0  0
 28 33  1  0  0  0  0
 29 28  1  0  0  0  0
 30 31  1  0  0  0  0
 30 29  2  0  0  0  0
 31 26  2  0  0  0  0
 34 35  1  0  0  0  0
 35 36  2  0  0  0  0
 37 35  1  0  0  0  0
 37 30  1  0  0  0  0
 38 37  1  0  0  0  0
M  END
>  <minimizedAffinity>
-6.31930828

$$$$

 OpenBabel03242514403D

 38 40  0  0  0  0  0  0  0  0999 V2000
   37.2490   28.9410   40.7190 C   0  0  0  0  0  0  0  0  0  0  0  0
   37.7240   28.2630   39.7240 O   0  0  0  0  0  0  0  0  0  0  0  0
   37.5450   30.3590   40.4150 C   0  0  0  0  0  0  0  0  0  0  0  0
   36.7590   31.2300   39.6320 C   0  0  0  0  0  0  0  0  0  0  0  0
   37.2880   32.5020   39.5190 C   0  0  0  0  0  0  0  0  0  0  0  0
   38.4340   32.8550   40.1020 C   0  0  0  0  0  0  0  0  0  0  0  0
   38.9400   31.2530   40.9660 S   0  0  0  0  0  0  0  0  0  0  0  0
   35.8310   30.9490   39.1570 H   0  0  0  0  0  0  0  0  0  0  0  0
   36.8360   33.3110   38.9620 H   0  0  0  0  0  0  0  0  0  0  0  0
   39.2690   34.0210   40.2140 C   0  0  0  0  0  0  0  0  0  0  0  0
   38.7460   35.2810   40.1430 C   0  0  0  0  0  0  0  0  0  0  0  0
   39.6810   36.2970   40.2690 C   0  0  0  0  0  0  0  0  0  0  0  0
   41.0250   36.0080   40.4500 C   0  0  0  0  0  0  0  0  0  0  0  0
   41.5020   34.7140   40.5150 C   0  0  0  0  0  0  0  0  0  0  0  0
   40.5650   33.7290   40.3890 N   0  0  0  0  0  0  0  0  0  0  0  0
   37.6950   35.4750   40.0020 H   0  0  0  0  0  0  0  0  0  0  0  0
   39.3670   37.3320   40.2260 H   0  0  0  0  0  0  0  0  0  0  0  0
   41.7800   36.7760   40.5510 H   0  0  0  0  0  0  0  0  0  0  0  0
   42.5430   34.4930   40.6550 H   0  0  0  0  0  0  0  0  0  0  0  0
   36.6850   28.1330   41.6210 O   0  0  0  0  0  0  0  0  0  0  0  0
   36.0320   27.3200   43.9770 O   0  0  0  0  0  0  0  0  0  0  0  0
   37.1910   27.8390   43.1850 P   0  0  2  0  0  0  0  0  0  0  0  0
   37.6830   29.2700   43.8660 O   0  0  0  0  0  0  0  0  0  0  0  0
   38.6300   29.4730   43.6450 H   0  0  0  0  0  0  0  0  0  0  0  0
   38.4750   26.6730   43.1520 O   0  0  0  0  0  0  0  0  0  0  0  0
   39.4870   25.5080   41.3420 C   0  0  0  0  0  0  0  0  0  0  0  0
   38.4490   25.6200   42.2450 C   0  0  0  0  0  0  0  0  0  0  0  0
   37.4190   24.6700   42.2070 C   0  0  0  0  0  0  0  0  0  0  0  0
   37.5020   23.6800   41.2720 N   0  0  0  0  0  0  0  0  0  0  0  0
   38.5190   23.6020   40.4130 C   0  0  0  0  0  0  0  0  0  0  0  0
   39.5090   24.5030   40.4410 N   0  0  0  0  0  0  0  0  0  0  0  0
   40.3270   26.1660   41.2710 H   0  0  0  0  0  0  0  0  0  0  0  0
   36.6050   24.7610   42.9180 H   0  0  0  0  0  0  0  0  0  0  0  0
   38.2360   22.3340   37.2410 H   0  0  0  0  0  0  0  0  0  0  0  0
   38.2490   22.9880   38.1170 C   0  0  0  0  0  0  0  0  0  0  0  0
   37.9470   24.1760   37.8250 O   0  0  0  0  0  0  0  0  0  0  0  0
   38.5750   22.5430   39.4400 N   0  0  0  0  0  0  0  0  0  0  0  0
   38.8130   21.5320   39.5780 H   0  0  0  0  0  0  0  0  0  0  0  0
  1 20  1  0  0  0  0
  2  1  2  0  0  0  0
  3  1  1  0  0  0  0
  3  7  1  0  0  0  0
  4  3  2  0  0  0  0
  5  4  1  0  0  0  0
  5  6  2  0  0  0  0
  6 10  1  0  0  0  0
  6  7  1  0  0  0  0
  8  4  1  0  0  0  0
  9  5  1  0  0  0  0
 10 15  1  0  0  0  0
 11 10  2  0  0  0  0
 11 12  1  0  0  0  0
 12 13  2  0  0  0  0
 13 14  1  0  0  0  0
 13 18  1  0  0  0  0
 14 19  1  0  0  0  0
 15 14  2  0  0  0  0
 16 11  1  0  0  0  0
 17 12  1  0  0  0  0
 20 22  1  0  0  0  0
 22 23  1  0  0  0  0
 22 21  2  1  0  0  0
 24 23  1  0  0  0  0
 25 22  1  0  0  0  0
 26 27  1  0  0  0  0
 27 25  1  0  0  0  0
 28 27  2  0  0  0  0
 28 33  1  0  0  0  0
 29 28  1  0  0  0  0
 30 31  1  0  0  0  0
 30 29  2  0  0  0  0
 31 26  2  0  0  0  0
 32 26  1  0  0  0  0
 34 35  1  0  0  0  0
 35 37  1  0  0  0  0
 36 35  2  0  0  0  0
 37 38  1  0  0  0  0
 37 30  1  0  0  0  0
M  END
>  <minimizedAffinity>
-6.21017551

$$$$

 OpenBabel03242514403D

 38 40  0  0  0  0  0  0  0  0999 V2000
   38.8610   30.9500   40.8840 C   0  0  0  0  0  0  0  0  0  0  0  0
   38.7360   30.7250   42.1520 O   0  0  0  0  0  0  0  0  0  0  0  0
   39.8610   32.0350   40.7660 C   0  0  0  0  0  0  0  0  0  0  0  0
   39.7080   33.2410   40.0510 C   0  0  0  0  0  0  0  0  0  0  0  0
   40.8140   34.0680   40.1190 C   0  0  0  0  0  0  0  0  0  0  0  0
   41.9130   33.7410   40.8010 C   0  0  0  0  0  0  0  0  0  0  0  0
   41.4470   32.0460   41.4940 S   0  0  0  0  0  0  0  0  0  0  0  0
   38.8220   33.5100   39.4970 H   0  0  0  0  0  0  0  0  0  0  0  0
   40.8930   35.0330   39.6380 H   0  0  0  0  0  0  0  0  0  0  0  0
   43.2020   34.3030   41.0960 C   0  0  0  0  0  0  0  0  0  0  0  0
   44.3080   33.9710   40.3660 C   0  0  0  0  0  0  0  0  0  0  0  0
   45.4750   34.5980   40.7740 C   0  0  0  0  0  0  0  0  0  0  0  0
   45.4690   35.4830   41.8430 C   0  0  0  0  0  0  0  0  0  0  0  0
   44.3220   35.7840   42.5490 C   0  0  0  0  0  0  0  0  0  0  0  0
   43.1850   35.1560   42.1300 N   0  0  0  0  0  0  0  0  0  0  0  0
   44.2820   33.2790   39.5390 H   0  0  0  0  0  0  0  0  0  0  0  0
   46.4070   34.4010   40.2610 H   0  0  0  0  0  0  0  0  0  0  0  0
   46.3620   35.9880   42.1880 H   0  0  0  0  0  0  0  0  0  0  0  0
   44.3210   36.4690   43.3750 H   0  0  0  0  0  0  0  0  0  0  0  0
   38.0660   30.1430   40.1760 O   0  0  0  0  0  0  0  0  0  0  0  0
   35.7580   30.0440   39.0360 O   0  0  0  0  0  0  0  0  0  0  0  0
   36.4250   29.9020   40.3680 P   0  0  2  0  0  0  0  0  0  0  0  0
   35.8250   31.0770   41.3740 O   0  0  0  0  0  0  0  0  0  0  0  0
   35.9290   30.8280   42.3300 H   0  0  0  0  0  0  0  0  0  0  0  0
   36.1600   28.3140   41.0140 O   0  0  0  0  0  0  0  0  0  0  0  0
   37.3690   28.0110   43.0410 C   0  0  0  0  0  0  0  0  0  0  0  0
   37.1650   27.6630   41.7210 C   0  0  0  0  0  0  0  0  0  0  0  0
   37.9780   26.6710   41.1530 C   0  0  0  0  0  0  0  0  0  0  0  0
   38.9320   26.1020   41.9450 N   0  0  0  0  0  0  0  0  0  0  0  0
   39.1030   26.4640   43.2180 C   0  0  0  0  0  0  0  0  0  0  0  0
   38.3320   27.4080   43.7710 N   0  0  0  0  0  0  0  0  0  0  0  0
   36.8170   28.7490   43.5840 H   0  0  0  0  0  0  0  0  0  0  0  0
   37.8150   26.4010   40.1160 H   0  0  0  0  0  0  0  0  0  0  0  0
   42.1300   26.3970   44.8230 H   0  0  0  0  0  0  0  0  0  0  0  0
   41.2550   26.6890   44.2370 C   0  0  0  0  0  0  0  0  0  0  0  0
   41.3630   27.8560   43.7730 O   0  0  0  0  0  0  0  0  0  0  0  0
   40.1190   25.8410   44.0250 N   0  0  0  0  0  0  0  0  0  0  0  0
   40.1260   24.8860   44.4540 H   0  0  0  0  0  0  0  0  0  0  0  0
  1  2  2  0  0  0  0
  3  1  1  0  0  0  0
  3  7  1  0  0  0  0
  4  5  1  0  0  0  0
  4  3  2  0  0  0  0
  5  6  2  0  0  0  0
  6 10  1  0  0  0  0
  6  7  1  0  0  0  0
  8  4  1  0  0  0  0
  9  5  1  0  0  0  0
 10 15  1  0  0  0  0
 11 12  1  0  0  0  0
 11 10  2  0  0  0  0
 12 13  2  0  0  0  0
 13 18  1  0  0  0  0
 13 14  1  0  0  0  0
 14 19  1  0  0  0  0
 15 14  2  0  0  0  0
 16 11  1  0  0  0  0
 17 12  1  0  0  0  0
 20 22  1  0  0  0  0
 20  1  1  0  0  0  0
 22 21  2  6  0  0  0
 22 25  1  0  0  0  0
 22 23  1  0  0  0  0
 23 24  1  0  0  0  0
 25 27  1  0  0  0  0
 26 32  1  0  0  0  0
 26 31  1  0  0  0  0
 27 26  2  0  0  0  0
 28 27  1  0  0  0  0
 28 29  2  0  0  0  0
 29 30  1  0  0  0  0
 30 31  2  0  0  0  0
 30 37  1  0  0  0  0
 33 28  1  0  0  0  0
 35 34  1  0  0  0  0
 36 35  2  0  0  0  0
 37 35  1  0  0  0  0
 37 38  1  0  0  0  0
M  END
>  <minimizedAffinity>
-6.19316435

$$$$

 OpenBabel03242514403D

 38 40  0  0  0  0  0  0  0  0999 V2000
   37.6670   29.0030   41.7970 C   0  0  0  0  0  0  0  0  0  0  0  0
   38.2180   29.0200   42.9690 O   0  0  0  0  0  0  0  0  0  0  0  0
   37.8050   30.3800   41.2710 C   0  0  0  0  0  0  0  0  0  0  0  0
   36.7990   31.1390   40.6390 C   0  0  0  0  0  0  0  0  0  0  0  0
   37.2180   32.3970   40.2490 C   0  0  0  0  0  0  0  0  0  0  0  0
   38.4610   32.8350   40.4590 C   0  0  0  0  0  0  0  0  0  0  0  0
   39.2520   31.3540   41.3240 S   0  0  0  0  0  0  0  0  0  0  0  0
   35.7920   30.7890   40.4660 H   0  0  0  0  0  0  0  0  0  0  0  0
   36.5970   33.1280   39.7490 H   0  0  0  0  0  0  0  0  0  0  0  0
   39.2400   34.0180   40.2130 C   0  0  0  0  0  0  0  0  0  0  0  0
   38.6870   35.2640   40.2940 C   0  0  0  0  0  0  0  0  0  0  0  0
   39.5680   36.3020   40.0300 C   0  0  0  0  0  0  0  0  0  0  0  0
   40.8940   36.0440   39.7130 C   0  0  0  0  0  0  0  0  0  0  0  0
   41.4030   34.7620   39.6440 C   0  0  0  0  0  0  0  0  0  0  0  0
   40.5180   33.7580   39.9080 N   0  0  0  0  0  0  0  0  0  0  0  0
   37.6510   35.4340   40.5430 H   0  0  0  0  0  0  0  0  0  0  0  0
   39.2270   37.3280   40.0680 H   0  0  0  0  0  0  0  0  0  0  0  0
   41.6080   36.8290   39.5010 H   0  0  0  0  0  0  0  0  0  0  0  0
   42.4290   34.5670   39.3990 H   0  0  0  0  0  0  0  0  0  0  0  0
   37.1970   27.7860   41.5090 O   0  0  0  0  0  0  0  0  0  0  0  0
   38.5260   27.5780   39.3130 O   0  0  0  0  0  0  0  0  0  0  0  0
   37.5250   26.8580   40.1610 P   0  0  2  0  0  0  0  0  0  0  0  0
   36.1310   26.6820   39.2790 O   0  0  0  0  0  0  0  0  0  0  0  0
   35.5810   25.9250   39.6120 H   0  0  0  0  0  0  0  0  0  0  0  0
   38.1540   25.3240   40.6730 O   0  0  0  0  0  0  0  0  0  0  0  0
   39.3580   25.1740   42.7190 C   0  0  0  0  0  0  0  0  0  0  0  0
   39.3700   25.2460   41.3400 C   0  0  0  0  0  0  0  0  0  0  0  0
   40.6060   25.2390   40.6770 C   0  0  0  0  0  0  0  0  0  0  0  0
   41.7350   25.1590   41.4390 N   0  0  0  0  0  0  0  0  0  0  0  0
   41.6870   25.0910   42.7700 C   0  0  0  0  0  0  0  0  0  0  0  0
   40.5130   25.0970   43.4140 N   0  0  0  0  0  0  0  0  0  0  0  0
   38.4840   25.1710   43.3350 H   0  0  0  0  0  0  0  0  0  0  0  0
   40.6110   25.2960   39.5950 H   0  0  0  0  0  0  0  0  0  0  0  0
   44.1070   26.3770   44.8280 H   0  0  0  0  0  0  0  0  0  0  0  0
   43.2260   26.2400   44.1960 C   0  0  0  0  0  0  0  0  0  0  0  0
   42.5350   27.2910   44.1120 O   0  0  0  0  0  0  0  0  0  0  0  0
   42.8980   25.0080   43.5420 N   0  0  0  0  0  0  0  0  0  0  0  0
   43.5390   24.1900   43.6760 H   0  0  0  0  0  0  0  0  0  0  0  0
  1  2  2  0  0  0  0
  3  7  1  0  0  0  0
  3  1  1  0  0  0  0
  4  3  2  0  0  0  0
  5  6  2  0  0  0  0
  5  4  1  0  0  0  0
  6  7  1  0  0  0  0
  8  4  1  0  0  0  0
  9  5  1  0  0  0  0
 10 11  1  0  0  0  0
 10  6  1  0  0  0  0
 11 16  1  0  0  0  0
 12 17  1  0  0  0  0
 12 11  2  0  0  0  0
 13 12  1  0  0  0  0
 14 13  2  0  0  0  0
 14 15  1  0  0  0  0
 15 10  2  0  0  0  0
 18 13  1  0  0  0  0
 19 14  1  0  0  0  0
 20  1  1  0  0  0  0
 22 21  2  6  0  0  0
 22 25  1  0  0  0  0
 22 20  1  0  0  0  0
 23 24  1  0  0  0  0
 23 22  1  0  0  0  0
 25 27  1  0  0  0  0
 26 32  1  0  0  0  0
 26 31  1  0  0  0  0
 27 26  2  0  0  0  0
 28 27  1  0  0  0  0
 28 29  2  0  0  0  0
 29 30  1  0  0  0  0
 30 31  2  0  0  0  0
 30 37  1  0  0  0  0
 33 28  1  0  0  0  0
 35 34  1  0  0  0  0
 36 35  2  0  0  0  0
 37 38  1  0  0  0  0
 37 35  1  0  0  0  0
M  END
>  <minimizedAffinity>
-6.17935085

$$$$

 OpenBabel03242514403D

 38 40  0  0  0  0  0  0  0  0999 V2000
   37.9570   31.1820   40.9780 C   0  0  0  0  0  0  0  0  0  0  0  0
   36.8260   31.8030   40.8730 O   0  0  0  0  0  0  0  0  0  0  0  0
   37.6200   29.7400   41.0030 C   0  0  0  0  0  0  0  0  0  0  0  0
   36.3650   29.1780   41.3140 C   0  0  0  0  0  0  0  0  0  0  0  0
   36.3480   27.7970   41.2560 C   0  0  0  0  0  0  0  0  0  0  0  0
   37.4260   27.0800   40.9350 C   0  0  0  0  0  0  0  0  0  0  0  0
   38.7170   28.4290   40.6490 S   0  0  0  0  0  0  0  0  0  0  0  0
   35.4900   29.7540   41.5750 H   0  0  0  0  0  0  0  0  0  0  0  0
   35.4820   27.1810   41.4610 H   0  0  0  0  0  0  0  0  0  0  0  0
   37.7890   25.6980   40.7760 C   0  0  0  0  0  0  0  0  0  0  0  0
   37.0850   24.7010   41.3880 C   0  0  0  0  0  0  0  0  0  0  0  0
   37.5600   23.4230   41.1350 C   0  0  0  0  0  0  0  0  0  0  0  0
   38.6650   23.2260   40.3190 C   0  0  0  0  0  0  0  0  0  0  0  0
   39.3430   24.2700   39.7240 C   0  0  0  0  0  0  0  0  0  0  0  0
   38.8570   25.5190   39.9870 N   0  0  0  0  0  0  0  0  0  0  0  0
   36.2280   24.8860   42.0170 H   0  0  0  0  0  0  0  0  0  0  0  0
   37.0710   22.5640   41.5750 H   0  0  0  0  0  0  0  0  0  0  0  0
   39.0620   22.2430   40.1020 H   0  0  0  0  0  0  0  0  0  0  0  0
   40.1970   24.1140   39.0930 H   0  0  0  0  0  0  0  0  0  0  0  0
   38.9740   32.0470   41.0230 O   0  0  0  0  0  0  0  0  0  0  0  0
   38.7130   34.6030   40.8440 O   0  0  0  0  0  0  0  0  0  0  0  0
   39.1970   33.4090   40.0840 P   0  0  2  0  0  0  0  0  0  0  0  0
   38.2820   33.2660   38.7070 O   0  0  0  0  0  0  0  0  0  0  0  0
   38.7590   32.7550   38.0020 H   0  0  0  0  0  0  0  0  0  0  0  0
   40.8850   33.5670   39.7140 O   0  0  0  0  0  0  0  0  0  0  0  0
   41.9310   35.2650   41.0110 C   0  0  0  0  0  0  0  0  0  0  0  0
   41.7940   33.9260   40.7020 C   0  0  0  0  0  0  0  0  0  0  0  0
   42.5740   32.9920   41.3970 C   0  0  0  0  0  0  0  0  0  0  0  0
   43.4330   33.4630   42.3470 N   0  0  0  0  0  0  0  0  0  0  0  0
   43.5420   34.7640   42.6200 C   0  0  0  0  0  0  0  0  0  0  0  0
   42.8000   35.6650   41.9630 N   0  0  0  0  0  0  0  0  0  0  0  0
   41.3950   36.0690   40.5530 H   0  0  0  0  0  0  0  0  0  0  0  0
   42.4630   31.9420   41.1520 H   0  0  0  0  0  0  0  0  0  0  0  0
   46.4430   36.2480   43.6810 H   0  0  0  0  0  0  0  0  0  0  0  0
   45.6310   35.8350   43.0770 C   0  0  0  0  0  0  0  0  0  0  0  0
   45.8480   35.9600   41.8420 O   0  0  0  0  0  0  0  0  0  0  0  0
   44.4580   35.2260   43.6290 N   0  0  0  0  0  0  0  0  0  0  0  0
   44.3720   35.1710   44.6720 H   0  0  0  0  0  0  0  0  0  0  0  0
  1  3  1  0  0  0  0
  1 20  1  0  0  0  0
  2  1  2  0  0  0  0
  3  4  2  0  0  0  0
  4  8  1  0  0  0  0
  5  4  1  0  0  0  0
  5  9  1  0  0  0  0
  6  5  2  0  0  0  0
  7  6  1  0  0  0  0
  7  3  1  0  0  0  0
 10  6  1  0  0  0  0
 10 11  1  0  0  0  0
 11 16  1  0  0  0  0
 12 11  2  0  0  0  0
 12 17  1  0  0  0  0
 13 12  1  0  0  0  0
 14 15  1  0  0  0  0
 14 13  2  0  0  0  0
 15 10  2  0  0  0  0
 18 13  1  0  0  0  0
 19 14  1  0  0  0  0
 22 21  2  1  0  0  0
 22 20  1  0  0  0  0
 23 22  1  0  0  0  0
 24 23  1  0  0  0  0
 25 22  1  0  0  0  0
 25 27  1  0  0  0  0
 26 31  1  0  0  0  0
 27 26  2  0  0  0  0
 27 28  1  0  0  0  0
 28 29  2  0  0  0  0
 29 30  1  0  0  0  0
 30 37  1  0  0  0  0
 31 30  2  0  0  0  0
 32 26  1  0  0  0  0
 33 28  1  0  0  0  0
 35 37  1  0  0  0  0
 35 34  1  0  0  0  0
 36 35  2  0  0  0  0
 37 38  1  0  0  0  0
M  END
>  <minimizedAffinity>
-5.9556694

$$$$

 OpenBabel03242514403D

 38 40  0  0  0  0  0  0  0  0999 V2000
   37.4830   29.0290   41.8620 C   0  0  0  0  0  0  0  0  0  0  0  0
   37.4710   29.2940   43.1280 O   0  0  0  0  0  0  0  0  0  0  0  0
   37.2730   27.5670   41.7570 C   0  0  0  0  0  0  0  0  0  0  0  0
   37.1490   26.6600   42.8290 C   0  0  0  0  0  0  0  0  0  0  0  0
   36.9610   25.3510   42.4270 C   0  0  0  0  0  0  0  0  0  0  0  0
   36.9040   24.9970   41.1410 C   0  0  0  0  0  0  0  0  0  0  0  0
   37.1350   26.6590   40.2730 S   0  0  0  0  0  0  0  0  0  0  0  0
   37.1950   26.9400   43.8710 H   0  0  0  0  0  0  0  0  0  0  0  0
   36.8450   24.5090   43.0960 H   0  0  0  0  0  0  0  0  0  0  0  0
   36.7300   23.8020   40.3620 C   0  0  0  0  0  0  0  0  0  0  0  0
   35.6500   23.6370   39.5420 C   0  0  0  0  0  0  0  0  0  0  0  0
   35.6270   22.4310   38.8590 C   0  0  0  0  0  0  0  0  0  0  0  0
   36.6420   21.5000   39.0270 C   0  0  0  0  0  0  0  0  0  0  0  0
   37.7130   21.7170   39.8710 C   0  0  0  0  0  0  0  0  0  0  0  0
   37.7150   22.9100   40.5330 N   0  0  0  0  0  0  0  0  0  0  0  0
   34.8750   24.3800   39.4310 H   0  0  0  0  0  0  0  0  0  0  0  0
   34.8120   22.2030   38.1840 H   0  0  0  0  0  0  0  0  0  0  0  0
   36.6550   20.5490   38.5100 H   0  0  0  0  0  0  0  0  0  0  0  0
   38.4960   20.9940   39.9980 H   0  0  0  0  0  0  0  0  0  0  0  0
   37.6720   30.1400   41.1440 O   0  0  0  0  0  0  0  0  0  0  0  0
   40.1710   29.8790   40.5760 O   0  0  0  0  0  0  0  0  0  0  0  0
   39.1170   30.9120   40.8220 P   0  0  2  0  0  0  0  0  0  0  0  0
   39.5600   31.7970   42.1530 O   0  0  0  0  0  0  0  0  0  0  0  0
   39.1330   32.6930   42.1560 H   0  0  0  0  0  0  0  0  0  0  0  0
   38.9170   31.9200   39.4240 O   0  0  0  0  0  0  0  0  0  0  0  0
   40.6220   31.9980   37.7660 C   0  0  0  0  0  0  0  0  0  0  0  0
   40.0080   32.5720   38.8610 C   0  0  0  0  0  0  0  0  0  0  0  0
   40.5110   33.7840   39.3550 C   0  0  0  0  0  0  0  0  0  0  0  0
   41.5880   34.3310   38.7200 N   0  0  0  0  0  0  0  0  0  0  0  0
   42.1570   33.7480   37.6640 C   0  0  0  0  0  0  0  0  0  0  0  0
   41.6840   32.5910   37.1830 N   0  0  0  0  0  0  0  0  0  0  0  0
   40.3320   31.0800   37.3000 H   0  0  0  0  0  0  0  0  0  0  0  0
   40.0260   34.2330   40.2150 H   0  0  0  0  0  0  0  0  0  0  0  0
   45.4950   33.9970   36.9260 H   0  0  0  0  0  0  0  0  0  0  0  0
   44.5240   33.6880   37.3210 C   0  0  0  0  0  0  0  0  0  0  0  0
   44.6160   32.6790   38.0710 O   0  0  0  0  0  0  0  0  0  0  0  0
   43.2910   34.3540   37.0180 N   0  0  0  0  0  0  0  0  0  0  0  0
   43.3210   35.1860   36.3820 H   0  0  0  0  0  0  0  0  0  0  0  0
  1  2  2  0  0  0  0
  3  1  1  0  0  0  0
  3  4  2  0  0  0  0
  4  8  1  0  0  0  0
  5  4  1  0  0  0  0
  5  9  1  0  0  0  0
  6  5  2  0  0  0  0
  7  6  1  0  0  0  0
  7  3  1  0  0  0  0
 10 15  1  0  0  0  0
 10  6  1  0  0  0  0
 11 10  2  0  0  0  0
 12 13  2  0  0  0  0
 12 11  1  0  0  0  0
 13 14  1  0  0  0  0
 14 19  1  0  0  0  0
 14 15  2  0  0  0  0
 16 11  1  0  0  0  0
 17 12  1  0  0  0  0
 18 13  1  0  0  0  0
 20  1  1  0  0  0  0
 22 21  2  6  0  0  0
 22 20  1  0  0  0  0
 22 23  1  0  0  0  0
 23 24  1  0  0  0  0
 25 22  1  0  0  0  0
 26 27  1  0  0  0  0
 27 28  2  0  0  0  0
 27 25  1  0  0  0  0
 28 33  1  0  0  0  0
 29 28  1  0  0  0  0
 30 29  2  0  0  0  0
 31 30  1  0  0  0  0
 31 26  2  0  0  0  0
 32 26  1  0  0  0  0
 34 35  1  0  0  0  0
 35 36  2  0  0  0  0
 37 35  1  0  0  0  0
 37 30  1  0  0  0  0
 38 37  1  0  0  0  0
M  END
>  <minimizedAffinity>
-5.8837924

$$$$
