
 OpenBabel03242514393D

 38 40  0  0  0  0  0  0  0  0999 V2000
   46.9780   32.6520   36.7370 C   0  0  0  0  0  0  0  0  0  0  0  0
   46.0810   31.7300   36.8780 O   0  0  0  0  0  0  0  0  0  0  0  0
   47.6280   32.3820   35.4350 C   0  0  0  0  0  0  0  0  0  0  0  0
   48.9950   32.5490   35.1310 C   0  0  0  0  0  0  0  0  0  0  0  0
   49.3150   32.2180   33.8270 C   0  0  0  0  0  0  0  0  0  0  0  0
   48.4060   31.7830   32.9540 C   0  0  0  0  0  0  0  0  0  0  0  0
   46.8300   31.7970   33.9970 S   0  0  0  0  0  0  0  0  0  0  0  0
   49.7350   32.9020   35.8330 H   0  0  0  0  0  0  0  0  0  0  0  0
   50.3080   32.2780   33.4010 H   0  0  0  0  0  0  0  0  0  0  0  0
   48.3500   31.3590   31.5810 C   0  0  0  0  0  0  0  0  0  0  0  0
   47.8960   30.1180   31.2360 C   0  0  0  0  0  0  0  0  0  0  0  0
   47.9040   29.8620   29.8740 C   0  0  0  0  0  0  0  0  0  0  0  0
   48.3460   30.8210   28.9740 C   0  0  0  0  0  0  0  0  0  0  0  0
   48.7960   32.0630   29.3760 C   0  0  0  0  0  0  0  0  0  0  0  0
   48.7790   32.2930   30.7210 N   0  0  0  0  0  0  0  0  0  0  0  0
   47.5580   29.3930   31.9600 H   0  0  0  0  0  0  0  0  0  0  0  0
   47.5630   28.9060   29.4980 H   0  0  0  0  0  0  0  0  0  0  0  0
   48.3660   30.6540   27.9040 H   0  0  0  0  0  0  0  0  0  0  0  0
   49.1370   32.8020   28.6770 H   0  0  0  0  0  0  0  0  0  0  0  0
   46.9800   33.4790   37.7870 O   0  0  0  0  0  0  0  0  0  0  0  0
   48.0630   34.7460   39.7510 O   0  0  0  0  0  0  0  0  0  0  0  0
   47.9210   33.3780   39.1630 P   0  0  2  0  0  0  0  0  0  0  0  0
   49.4310   32.8370   38.7400 O   0  0  0  0  0  0  0  0  0  0  0  0
   49.4650   31.8450   38.6960 H   0  0  0  0  0  0  0  0  0  0  0  0
   47.1530   32.3070   40.2910 O   0  0  0  0  0  0  0  0  0  0  0  0
   45.2870   33.1770   41.4840 C   0  0  0  0  0  0  0  0  0  0  0  0
   46.6140   32.7970   41.4750 C   0  0  0  0  0  0  0  0  0  0  0  0
   47.3570   32.9230   42.6580 C   0  0  0  0  0  0  0  0  0  0  0  0
   46.7200   33.4170   43.7580 N   0  0  0  0  0  0  0  0  0  0  0  0
   45.4360   33.7760   43.7310 C   0  0  0  0  0  0  0  0  0  0  0  0
   44.7160   33.6590   42.6080 N   0  0  0  0  0  0  0  0  0  0  0  0
   44.6190   33.1300   40.6490 H   0  0  0  0  0  0  0  0  0  0  0  0
   48.3990   32.6240   42.6470 H   0  0  0  0  0  0  0  0  0  0  0  0
   44.1230   36.2880   45.6570 H   0  0  0  0  0  0  0  0  0  0  0  0
   44.5930   35.7110   44.8570 C   0  0  0  0  0  0  0  0  0  0  0  0
   44.9340   36.4370   43.8850 O   0  0  0  0  0  0  0  0  0  0  0  0
   44.7960   34.2930   44.9120 N   0  0  0  0  0  0  0  0  0  0  0  0
   44.4760   33.7790   45.7670 H   0  0  0  0  0  0  0  0  0  0  0  0
  1  2  2  0  0  0  0
  1 20  1  0  0  0  0
  3  1  1  0  0  0  0
  4  3  2  0  0  0  0
  4  8  1  0  0  0  0
  5  4  1  0  0  0  0
  6  5  2  0  0  0  0
  6  7  1  0  0  0  0
  7  3  1  0  0  0  0
  9  5  1  0  0  0  0
 10  6  1  0  0  0  0
 11 10  1  0  0  0  0
 11 16  1  0  0  0  0
 12 11  2  0  0  0  0
 13 14  2  0  0  0  0
 13 12  1  0  0  0  0
 14 15  1  0  0  0  0
 15 10  2  0  0  0  0
 17 12  1  0  0  0  0
 18 13  1  0  0  0  0
 19 14  1  0  0  0  0
 20 22  1  0  0  0  0
 22 21  2  1  0  0  0
 22 25  1  0  0  0  0
 23 22  1  0  0  0  0
 24 23  1  0  0  0  0
 25 27  1  0  0  0  0
 26 31  1  0  0  0  0
 27 26  2  0  0  0  0
 27 28  1  0  0  0  0
 28 29  2  0  0  0  0
 30 29  1  0  0  0  0
 30 37  1  0  0  0  0
 31 30  2  0  0  0  0
 32 26  1  0  0  0  0
 33 28  1  0  0  0  0
 35 37  1  0  0  0  0
 35 34  1  0  0  0  0
 36 35  2  0  0  0  0
 37 38  1  0  0  0  0
M  END
>  <minimizedAffinity>
-6.00078249

>  <minimizedRMSD>
2.93061543

$$$$
