
 OpenBabel03242510073D

 24 25  0  0  0  0  0  0  0  0999 V2000
   44.7350   33.3470   41.0210 Br  0  0  0  0  0  0  0  0  0  0  0  0
   46.4520   34.1730   40.9050 C   0  0  0  0  0  0  0  0  0  0  0  0
   46.9620   34.8580   41.9860 C   0  0  0  0  0  0  0  0  0  0  0  0
   48.2210   35.4670   41.9090 C   0  0  0  0  0  0  0  0  0  0  0  0
   48.9240   35.3610   40.7460 C   0  0  0  0  0  0  0  0  0  0  0  0
   48.3840   34.6710   39.6960 C   0  0  0  0  0  0  0  0  0  0  0  0
   47.1750   34.0740   39.7360 C   0  0  0  0  0  0  0  0  0  0  0  0
   48.5410   35.9820   42.8020 H   0  0  0  0  0  0  0  0  0  0  0  0
   49.8970   35.8460   40.7270 H   0  0  0  0  0  0  0  0  0  0  0  0
   48.9680   34.6040   38.7850 H   0  0  0  0  0  0  0  0  0  0  0  0
   45.6000   34.0410   45.2760 C   0  0  0  0  0  0  0  0  0  0  0  0
   44.6780   35.0700   45.5260 C   0  0  0  0  0  0  0  0  0  0  0  0
   44.5380   36.0550   44.5260 C   0  0  0  0  0  0  0  0  0  0  0  0
   45.2900   35.9560   43.3990 N   0  0  0  0  0  0  0  0  0  0  0  0
   46.1670   34.9410   43.2060 C   0  0  0  0  0  0  0  0  0  0  0  0
   46.3080   33.9970   44.1500 N   0  0  0  0  0  0  0  0  0  0  0  0
   45.6720   33.3080   46.0710 H   0  0  0  0  0  0  0  0  0  0  0  0
   44.0800   35.1550   46.4160 H   0  0  0  0  0  0  0  0  0  0  0  0
   43.8490   36.8850   44.6370 H   0  0  0  0  0  0  0  0  0  0  0  0
   47.2220   33.4070   36.4200 H   0  0  0  0  0  0  0  0  0  0  0  0
   47.4030   33.7900   37.4150 C   0  0  0  0  0  0  0  0  0  0  0  0
   48.2740   34.6670   37.7090 O   0  0  0  0  0  0  0  0  0  0  0  0
   46.6850   33.3700   38.5880 N   0  0  0  0  0  0  0  0  0  0  0  0
   45.9280   32.6370   38.4720 H   0  0  0  0  0  0  0  0  0  0  0  0
  2  1  1  0  0  0  0
  2  3  1  0  0  0  0
  3 15  1  0  0  0  0
  4  3  2  0  0  0  0
  4  8  1  0  0  0  0
  5  4  1  0  0  0  0
  6  7  1  0  0  0  0
  6  5  2  0  0  0  0
  7  2  2  0  0  0  0
  9  5  1  0  0  0  0
 10  6  1  0  0  0  0
 11 12  1  0  0  0  0
 11 17  1  0  0  0  0
 12 18  1  0  0  0  0
 13 19  1  0  0  0  0
 13 12  2  0  0  0  0
 14 13  1  0  0  0  0
 15 14  2  0  0  0  0
 15 16  1  0  0  0  0
 16 11  2  0  0  0  0
 20 21  1  0  0  0  0
 21 22  2  0  0  0  0
 21 23  1  0  0  0  0
 23  7  1  0  0  0  0
 24 23  1  0  0  0  0
M  END
>  <minimizedAffinity>
-5.43667841

>  <minimizedRMSD>
1.33184791

$$$$
