
 OpenBabel03252505323D

 26 27  0  0  0  0  0  0  0  0999 V2000
   46.6250   34.7610   42.1100 C   0  0  0  0  0  0  0  0  0  0  0  0
   47.8630   35.3640   41.9650 C   0  0  0  0  0  0  0  0  0  0  0  0
   48.6290   35.2000   40.8050 C   0  0  0  0  0  0  0  0  0  0  0  0
   48.1620   34.4250   39.7690 C   0  0  0  0  0  0  0  0  0  0  0  0
   46.9370   33.8380   39.9310 C   0  0  0  0  0  0  0  0  0  0  0  0
   46.1770   33.9940   41.0690 C   0  0  0  0  0  0  0  0  0  0  0  0
   48.3250   35.9940   42.7170 H   0  0  0  0  0  0  0  0  0  0  0  0
   49.5990   35.6720   40.6890 H   0  0  0  0  0  0  0  0  0  0  0  0
   48.7090   34.2620   38.8500 H   0  0  0  0  0  0  0  0  0  0  0  0
   46.5610   33.2250   39.1190 H   0  0  0  0  0  0  0  0  0  0  0  0
   44.4260   36.1920   44.7950 C   0  0  0  0  0  0  0  0  0  0  0  0
   45.0780   36.0870   43.5540 C   0  0  0  0  0  0  0  0  0  0  0  0
   45.9060   34.9820   43.3310 C   0  0  0  0  0  0  0  0  0  0  0  0
   46.0350   34.0720   44.3190 N   0  0  0  0  0  0  0  0  0  0  0  0
   45.3900   34.2060   45.5060 C   0  0  0  0  0  0  0  0  0  0  0  0
   44.5850   35.2760   45.7310 N   0  0  0  0  0  0  0  0  0  0  0  0
   45.5380   33.2360   46.5390 N   0  0  0  0  0  0  0  0  0  0  0  0
   43.7860   37.0580   44.9560 H   0  0  0  0  0  0  0  0  0  0  0  0
   44.9770   36.8190   42.7530 H   0  0  0  0  0  0  0  0  0  0  0  0
   46.4270   32.6720   46.5500 H   0  0  0  0  0  0  0  0  0  0  0  0
   44.7990   33.0890   47.2550 H   0  0  0  0  0  0  0  0  0  0  0  0
   42.7080   33.6580   40.7270 H   0  0  0  0  0  0  0  0  0  0  0  0
   43.7320   33.9930   40.7190 C   0  0  0  0  0  0  0  0  0  0  0  0
   43.2270   35.0180   40.1700 O   0  0  0  0  0  0  0  0  0  0  0  0
   44.9150   33.3620   41.1820 N   0  0  0  0  0  0  0  0  0  0  0  0
   44.7190   32.4230   41.5890 H   0  0  0  0  0  0  0  0  0  0  0  0
  1 13  1  0  0  0  0
  2  1  1  0  0  0  0
  2  7  1  0  0  0  0
  3  2  2  0  0  0  0
  4  5  2  0  0  0  0
  4  3  1  0  0  0  0
  5  6  1  0  0  0  0
  6 25  1  0  0  0  0
  6  1  2  0  0  0  0
  8  3  1  0  0  0  0
  9  4  1  0  0  0  0
 10  5  1  0  0  0  0
 11 18  1  0  0  0  0
 11 16  1  0  0  0  0
 12 11  2  0  0  0  0
 13 12  1  0  0  0  0
 13 14  2  0  0  0  0
 14 15  1  0  0  0  0
 15 16  2  0  0  0  0
 15 17  1  0  0  0  0
 17 20  1  0  0  0  0
 17 21  1  0  0  0  0
 19 12  1  0  0  0  0
 23 22  1  0  0  0  0
 23 25  1  0  0  0  0
 24 23  2  0  0  0  0
 25 26  1  0  0  0  0
M  END
>  <minimizedAffinity>
-5.70847559

>  <minimizedRMSD>
0.669188023

$$$$
