
 OpenBabel03252509353D

 40 41  0  0  1  0  0  0  0  0999 V2000
   44.5360   35.4720   44.1460 O   0  0  0  0  0  0  0  0  0  0  0  0
   45.4040   34.2510   44.3810 P   0  0  1  0  0  0  0  0  0  0  0  0
   44.7080   32.8830   43.6660 O   0  0  0  0  0  0  0  0  0  0  0  0
   44.3850   33.0560   42.7420 H   0  0  0  0  0  0  0  0  0  0  0  0
   46.9030   34.5460   43.7030 O   0  0  0  0  0  0  0  0  0  0  0  0
   47.0250   33.8390   42.5010 C   0  0  1  0  0  0  0  0  0  0  0  0
   46.4460   34.6680   41.3520 C   0  0  0  0  0  0  0  0  0  0  0  0
   46.9430   33.8880   40.1650 C   0  0  0  0  0  0  0  0  0  0  0  0
   48.2240   33.2030   40.6170 C   0  0  0  0  0  0  0  0  0  0  0  0
   48.4410   33.6840   42.0430 C   0  0  1  0  0  0  0  0  0  0  0  0
   46.4920   32.8910   42.4870 H   0  0  0  0  0  0  0  0  0  0  0  0
   45.3180   34.6800   41.3970 H   0  0  0  0  0  0  0  0  0  0  0  0
   46.7510   35.7100   41.3570 H   0  0  0  0  0  0  0  0  0  0  0  0
   46.1550   33.1750   39.8770 H   0  0  0  0  0  0  0  0  0  0  0  0
   47.1500   34.6050   39.3350 H   0  0  0  0  0  0  0  0  0  0  0  0
   47.9980   32.1190   40.6750 H   0  0  0  0  0  0  0  0  0  0  0  0
   49.0760   33.4470   39.9590 H   0  0  0  0  0  0  0  0  0  0  0  0
   48.8970   32.8670   42.6390 H   0  0  0  0  0  0  0  0  0  0  0  0
   49.2180   34.9680   42.0860 C   0  0  0  0  0  0  0  0  0  0  0  0
   49.9150   34.9660   41.2010 H   0  0  0  0  0  0  0  0  0  0  0  0
   48.6160   35.8860   42.0370 H   0  0  0  0  0  0  0  0  0  0  0  0
   50.0010   35.0770   43.2160 O   0  0  0  0  0  0  0  0  0  0  0  0
   50.6570   35.7920   43.1140 H   0  0  0  0  0  0  0  0  0  0  0  0
   45.5380   33.9280   46.0110 O   0  0  0  0  0  0  0  0  0  0  0  0
   46.4590   32.9400   46.1930 C   0  0  0  0  0  0  0  0  0  0  0  0
   47.3840   33.4400   46.6020 H   0  0  0  0  0  0  0  0  0  0  0  0
   46.7970   32.3880   45.3200 H   0  0  0  0  0  0  0  0  0  0  0  0
   45.1560   31.5070   49.3760 C   0  0  0  0  0  0  0  0  0  0  0  0
   45.5450   32.4560   48.4160 C   0  0  0  0  0  0  0  0  0  0  0  0
   46.0420   31.9630   47.2170 C   0  0  0  0  0  0  0  0  0  0  0  0
   46.1290   30.6040   47.0260 N   0  0  0  0  0  0  0  0  0  0  0  0
   45.7470   29.7170   47.9660 C   0  0  0  0  0  0  0  0  0  0  0  0
   45.2660   30.1690   49.1300 N   0  0  0  0  0  0  0  0  0  0  0  0
   44.7580   31.8010   50.3390 H   0  0  0  0  0  0  0  0  0  0  0  0
   45.4540   33.4950   48.6230 H   0  0  0  0  0  0  0  0  0  0  0  0
   44.7450   26.7330   46.5660 H   0  0  0  0  0  0  0  0  0  0  0  0
   44.8600   27.7690   46.8730 C   0  0  0  0  0  0  0  0  0  0  0  0
   43.9640   28.4920   46.3380 O   0  0  0  0  0  0  0  0  0  0  0  0
   45.8470   28.3140   47.7460 N   0  0  0  0  0  0  0  0  0  0  0  0
   46.5440   27.6140   48.1340 H   0  0  0  0  0  0  0  0  0  0  0  0
  2  1  2  6  0  0  0
  2 24  1  0  0  0  0
  3  2  1  0  0  0  0
  4  3  1  0  0  0  0
  5  2  1  0  0  0  0
  6 11  1  1  0  0  0
  6  5  1  0  0  0  0
  7 13  1  0  0  0  0
  7 12  1  0  0  0  0
  7  6  1  0  0  0  0
  8  9  1  0  0  0  0
  8  7  1  0  0  0  0
  9 16  1  0  0  0  0
  9 10  1  0  0  0  0
 10 19  1  0  0  0  0
 10  6  1  0  0  0  0
 10 18  1  1  0  0  0
 14  8  1  0  0  0  0
 15  8  1  0  0  0  0
 17  9  1  0  0  0  0
 19 22  1  0  0  0  0
 20 19  1  0  0  0  0
 21 19  1  0  0  0  0
 23 22  1  0  0  0  0
 24 25  1  0  0  0  0
 25 26  1  0  0  0  0
 25 30  1  0  0  0  0
 27 25  1  0  0  0  0
 28 34  1  0  0  0  0
 29 35  1  0  0  0  0
 29 28  2  0  0  0  0
 30 29  1  0  0  0  0
 31 30  2  0  0  0  0
 31 32  1  0  0  0  0
 32 33  2  0  0  0  0
 33 28  1  0  0  0  0
 36 37  1  0  0  0  0
 37 39  1  0  0  0  0
 38 37  2  0  0  0  0
 39 32  1  0  0  0  0
 39 40  1  0  0  0  0
M  END
>  <minimizedAffinity>
-5.85317993

>  <minimizedRMSD>
0.899438858

$$$$
