
 OpenBabel03242517053D

 30 31  0  0  1  0  0  0  0  0999 V2000
   46.2020   35.0100   42.1640 C   0  0  2  0  0  0  0  0  0  0  0  0
   45.5980   34.0220   41.2450 C   0  0  2  0  0  0  0  0  0  0  0  0
   46.5860   33.1230   40.5920 C   0  0  0  0  0  0  0  0  0  0  0  0
   47.7180   33.8530   39.9080 C   0  0  0  0  0  0  0  0  0  0  0  0
   48.2260   35.0410   40.6790 C   0  0  0  0  0  0  0  0  0  0  0  0
   47.7250   35.0490   42.1020 C   0  0  0  0  0  0  0  0  0  0  0  0
   45.8930   36.0400   41.8460 H   0  0  0  0  0  0  0  0  0  0  0  0
   44.9180   33.3540   41.8400 H   0  0  0  0  0  0  0  0  0  0  0  0
   47.0160   32.3240   41.1770 H   0  0  0  0  0  0  0  0  0  0  0  0
   46.0340   32.6120   39.7490 H   0  0  0  0  0  0  0  0  0  0  0  0
   48.5100   33.1100   39.6740 H   0  0  0  0  0  0  0  0  0  0  0  0
   47.3580   34.2420   38.9320 H   0  0  0  0  0  0  0  0  0  0  0  0
   47.9690   36.0140   40.2050 H   0  0  0  0  0  0  0  0  0  0  0  0
   49.3250   35.0070   40.7320 H   0  0  0  0  0  0  0  0  0  0  0  0
   48.0760   35.9720   42.5790 H   0  0  0  0  0  0  0  0  0  0  0  0
   48.0980   34.1730   42.6650 H   0  0  0  0  0  0  0  0  0  0  0  0
   45.8360   34.7550   43.5720 C   0  0  0  0  0  0  0  0  0  0  0  0
   46.5240   33.6790   44.2070 C   0  0  0  0  0  0  0  0  0  0  0  0
   46.2390   33.3780   45.5380 C   0  0  0  0  0  0  0  0  0  0  0  0
   45.2930   34.1520   46.1630 N   0  0  0  0  0  0  0  0  0  0  0  0
   44.6540   35.1720   45.5350 C   0  0  0  0  0  0  0  0  0  0  0  0
   44.9320   35.4600   44.2500 N   0  0  0  0  0  0  0  0  0  0  0  0
   47.2710   33.0400   43.7670 H   0  0  0  0  0  0  0  0  0  0  0  0
   46.7340   32.5720   46.0600 H   0  0  0  0  0  0  0  0  0  0  0  0
   43.9190   35.7650   46.0430 H   0  0  0  0  0  0  0  0  0  0  0  0
   43.0230   35.3050   39.4030 H   0  0  0  0  0  0  0  0  0  0  0  0
   43.3050   34.8320   40.3310 C   0  0  0  0  0  0  0  0  0  0  0  0
   42.8780   34.3970   41.4390 O   0  0  0  0  0  0  0  0  0  0  0  0
   44.7230   34.6280   40.2470 N   0  0  0  0  0  0  0  0  0  0  0  0
   45.4110   34.8660   39.4750 H   0  0  0  0  0  0  0  0  0  0  0  0
  1  7  1  6  0  0  0
  1 17  1  0  0  0  0
  2  8  1  1  0  0  0
  2  1  1  0  0  0  0
  3  9  1  0  0  0  0
  3  2  1  0  0  0  0
  4  3  1  0  0  0  0
  4  5  1  0  0  0  0
  5 14  1  0  0  0  0
  5  6  1  0  0  0  0
  6  1  1  0  0  0  0
  6 15  1  0  0  0  0
  6 16  1  0  0  0  0
 10  3  1  0  0  0  0
 11  4  1  0  0  0  0
 12  4  1  0  0  0  0
 13  5  1  0  0  0  0
 17 18  2  0  0  0  0
 17 22  1  0  0  0  0
 18 19  1  0  0  0  0
 19 24  1  0  0  0  0
 19 20  2  0  0  0  0
 21 25  1  0  0  0  0
 21 20  1  0  0  0  0
 22 21  2  0  0  0  0
 23 18  1  0  0  0  0
 26 27  1  0  0  0  0
 27 28  2  0  0  0  0
 29 27  1  0  0  0  0
 29  2  1  0  0  0  0
 30 29  1  0  0  0  0
M  END
>  <minimizedAffinity>
-4.99202347

>  <minimizedRMSD>
4.32083225

$$$$
