
 OpenBabel03252505163D

 21 22  0  0  0  0  0  0  0  0999 V2000
   35.4970   28.9150   40.6810 C   0  0  0  0  0  0  0  0  0  0  0  0
   36.3340   28.4220   41.7080 C   0  0  0  0  0  0  0  0  0  0  0  0
   37.3140   29.2920   42.1600 C   0  0  0  0  0  0  0  0  0  0  0  0
   37.4360   30.5480   41.6210 N   0  0  0  0  0  0  0  0  0  0  0  0
   36.6030   30.9820   40.6320 C   0  0  0  0  0  0  0  0  0  0  0  0
   35.6460   30.1590   40.1750 N   0  0  0  0  0  0  0  0  0  0  0  0
   34.7330   28.2380   40.3270 H   0  0  0  0  0  0  0  0  0  0  0  0
   36.2290   27.4430   42.1160 H   0  0  0  0  0  0  0  0  0  0  0  0
   38.1170   33.9820   39.9710 H   0  0  0  0  0  0  0  0  0  0  0  0
   37.9670   32.9880   40.3670 C   0  0  0  0  0  0  0  0  0  0  0  0
   38.9160   32.5470   41.0500 O   0  0  0  0  0  0  0  0  0  0  0  0
   36.7390   32.2880   40.0820 N   0  0  0  0  0  0  0  0  0  0  0  0
   35.9830   32.7130   39.5030 H   0  0  0  0  0  0  0  0  0  0  0  0
   38.2400   28.8820   43.2650 C   0  0  0  0  0  0  0  0  0  0  0  0
   38.0820   27.4340   43.6800 C   0  0  0  0  0  0  0  0  0  0  0  0
   39.3440   27.9840   42.9570 C   0  0  0  0  0  0  0  0  0  0  0  0
   38.2800   29.6310   44.0870 H   0  0  0  0  0  0  0  0  0  0  0  0
   37.4260   26.7770   43.1100 H   0  0  0  0  0  0  0  0  0  0  0  0
   38.1640   27.2300   44.7610 H   0  0  0  0  0  0  0  0  0  0  0  0
   39.4740   27.6260   41.9150 H   0  0  0  0  0  0  0  0  0  0  0  0
   40.2690   27.9830   43.5820 H   0  0  0  0  0  0  0  0  0  0  0  0
  1  2  1  0  0  0  0
  2  8  1  0  0  0  0
  2  3  2  0  0  0  0
  3 14  1  0  0  0  0
  4  3  1  0  0  0  0
  5  4  2  0  0  0  0
  6  5  1  0  0  0  0
  6  1  2  0  0  0  0
  7  1  1  0  0  0  0
  9 10  1  0  0  0  0
 10 11  2  0  0  0  0
 12 10  1  0  0  0  0
 12  5  1  0  0  0  0
 13 12  1  0  0  0  0
 14 15  1  0  0  0  0
 14 17  1  0  0  0  0
 15 19  1  0  0  0  0
 16 14  1  0  0  0  0
 16 21  1  0  0  0  0
 16 15  1  0  0  0  0
 18 15  1  0  0  0  0
 20 16  1  0  0  0  0
M  END
>  <minimizedAffinity>
-4.50591946

$$$$

 OpenBabel03252505163D

 21 22  0  0  0  0  0  0  0  0999 V2000
   40.2360   25.7410   43.6160 C   0  0  0  0  0  0  0  0  0  0  0  0
   39.3480   26.8390   43.6790 C   0  0  0  0  0  0  0  0  0  0  0  0
   38.1380   26.6760   43.0250 C   0  0  0  0  0  0  0  0  0  0  0  0
   37.8510   25.5070   42.3650 N   0  0  0  0  0  0  0  0  0  0  0  0
   38.7390   24.4720   42.3330 C   0  0  0  0  0  0  0  0  0  0  0  0
   39.9200   24.6040   42.9580 N   0  0  0  0  0  0  0  0  0  0  0  0
   41.1810   25.8660   44.1260 H   0  0  0  0  0  0  0  0  0  0  0  0
   39.5850   27.7410   44.1940 H   0  0  0  0  0  0  0  0  0  0  0  0
   37.0430   22.4120   40.1870 H   0  0  0  0  0  0  0  0  0  0  0  0
   37.3170   23.3040   40.7310 C   0  0  0  0  0  0  0  0  0  0  0  0
   36.6060   24.3040   40.4910 O   0  0  0  0  0  0  0  0  0  0  0  0
   38.4300   23.2640   41.6470 N   0  0  0  0  0  0  0  0  0  0  0  0
   38.9840   22.3950   41.8030 H   0  0  0  0  0  0  0  0  0  0  0  0
   37.1100   27.7670   43.0500 C   0  0  0  0  0  0  0  0  0  0  0  0
   37.6940   29.1510   42.8680 C   0  0  0  0  0  0  0  0  0  0  0  0
   36.7910   28.4580   41.8090 C   0  0  0  0  0  0  0  0  0  0  0  0
   36.3780   27.6430   43.8790 H   0  0  0  0  0  0  0  0  0  0  0  0
   38.7500   29.2650   42.6280 H   0  0  0  0  0  0  0  0  0  0  0  0
   37.2390   29.9510   43.4770 H   0  0  0  0  0  0  0  0  0  0  0  0
   37.3150   28.1620   40.8770 H   0  0  0  0  0  0  0  0  0  0  0  0
   35.7960   28.9420   41.6660 H   0  0  0  0  0  0  0  0  0  0  0  0
  1  2  1  0  0  0  0
  1  7  1  0  0  0  0
  2  8  1  0  0  0  0
  3 14  1  0  0  0  0
  3  2  2  0  0  0  0
  4  3  1  0  0  0  0
  5  4  2  0  0  0  0
  5  6  1  0  0  0  0
  6  1  2  0  0  0  0
  9 10  1  0  0  0  0
 10 12  1  0  0  0  0
 11 10  2  0  0  0  0
 12 13  1  0  0  0  0
 12  5  1  0  0  0  0
 14 17  1  0  0  0  0
 15 14  1  0  0  0  0
 15 19  1  0  0  0  0
 16 15  1  0  0  0  0
 16 14  1  0  0  0  0
 18 15  1  0  0  0  0
 20 16  1  0  0  0  0
 21 16  1  0  0  0  0
M  END
>  <minimizedAffinity>
-4.19224501

$$$$

 OpenBabel03252505163D

 21 22  0  0  0  0  0  0  0  0999 V2000
   38.9580   29.9300   42.6750 C   0  0  0  0  0  0  0  0  0  0  0  0
   37.6930   29.6520   42.1080 C   0  0  0  0  0  0  0  0  0  0  0  0
   37.2260   30.5770   41.1880 C   0  0  0  0  0  0  0  0  0  0  0  0
   37.9720   31.6840   40.8690 N   0  0  0  0  0  0  0  0  0  0  0  0
   39.1900   31.9100   41.4400 C   0  0  0  0  0  0  0  0  0  0  0  0
   39.6650   31.0300   42.3360 N   0  0  0  0  0  0  0  0  0  0  0  0
   39.3240   29.2100   43.3920 H   0  0  0  0  0  0  0  0  0  0  0  0
   37.1240   28.7880   42.3660 H   0  0  0  0  0  0  0  0  0  0  0  0
   39.8000   35.0130   40.1260 H   0  0  0  0  0  0  0  0  0  0  0  0
   39.2620   34.1180   40.4050 C   0  0  0  0  0  0  0  0  0  0  0  0
   38.0560   34.1080   40.0790 O   0  0  0  0  0  0  0  0  0  0  0  0
   39.9540   33.0610   41.1000 N   0  0  0  0  0  0  0  0  0  0  0  0
   40.9660   33.1310   41.3440 H   0  0  0  0  0  0  0  0  0  0  0  0
   35.9080   30.3670   40.5060 C   0  0  0  0  0  0  0  0  0  0  0  0
   36.0070   29.5420   39.2400 C   0  0  0  0  0  0  0  0  0  0  0  0
   35.3060   29.0420   40.5350 C   0  0  0  0  0  0  0  0  0  0  0  0
   35.3080   31.3020   40.4410 H   0  0  0  0  0  0  0  0  0  0  0  0
   36.9540   29.0760   38.9710 H   0  0  0  0  0  0  0  0  0  0  0  0
   35.3610   29.8600   38.4040 H   0  0  0  0  0  0  0  0  0  0  0  0
   35.8360   28.2200   41.0600 H   0  0  0  0  0  0  0  0  0  0  0  0
   34.2020   28.9150   40.4400 H   0  0  0  0  0  0  0  0  0  0  0  0
  1  7  1  0  0  0  0
  2  8  1  0  0  0  0
  2  1  2  0  0  0  0
  3  2  1  0  0  0  0
  4  3  2  0  0  0  0
  4  5  1  0  0  0  0
  5  6  2  0  0  0  0
  6  1  1  0  0  0  0
  9 10  1  0  0  0  0
 10 12  1  0  0  0  0
 11 10  2  0  0  0  0
 12 13  1  0  0  0  0
 12  5  1  0  0  0  0
 14 16  1  0  0  0  0
 14  3  1  0  0  0  0
 15 14  1  0  0  0  0
 15 16  1  0  0  0  0
 16 20  1  0  0  0  0
 17 14  1  0  0  0  0
 18 15  1  0  0  0  0
 19 15  1  0  0  0  0
 21 16  1  0  0  0  0
M  END
>  <minimizedAffinity>
-4.03729773

$$$$

 OpenBabel03252505163D

 21 22  0  0  0  0  0  0  0  0999 V2000
   39.9440   31.3070   42.0540 C   0  0  0  0  0  0  0  0  0  0  0  0
   39.1290   31.8820   41.0520 C   0  0  0  0  0  0  0  0  0  0  0  0
   37.8920   31.2850   40.8620 C   0  0  0  0  0  0  0  0  0  0  0  0
   37.5140   30.2030   41.6180 N   0  0  0  0  0  0  0  0  0  0  0  0
   38.3340   29.6830   42.5760 C   0  0  0  0  0  0  0  0  0  0  0  0
   39.5380   30.2420   42.7800 N   0  0  0  0  0  0  0  0  0  0  0  0
   40.9080   31.7700   42.2040 H   0  0  0  0  0  0  0  0  0  0  0  0
   39.4360   32.7210   40.4720 H   0  0  0  0  0  0  0  0  0  0  0  0
   36.4520   26.9530   43.4290 H   0  0  0  0  0  0  0  0  0  0  0  0
   36.7970   27.8120   42.8720 C   0  0  0  0  0  0  0  0  0  0  0  0
   36.1440   28.0630   41.8370 O   0  0  0  0  0  0  0  0  0  0  0  0
   37.9300   28.5620   43.3530 N   0  0  0  0  0  0  0  0  0  0  0  0
   38.4330   28.3000   44.2290 H   0  0  0  0  0  0  0  0  0  0  0  0
   36.9360   31.8310   39.8440 C   0  0  0  0  0  0  0  0  0  0  0  0
   37.2590   33.2450   39.4100 C   0  0  0  0  0  0  0  0  0  0  0  0
   37.3980   32.0100   38.4750 C   0  0  0  0  0  0  0  0  0  0  0  0
   35.8750   31.6220   40.1030 H   0  0  0  0  0  0  0  0  0  0  0  0
   38.1770   33.7190   39.7520 H   0  0  0  0  0  0  0  0  0  0  0  0
   36.3930   33.9090   39.2480 H   0  0  0  0  0  0  0  0  0  0  0  0
   38.4420   31.7390   38.2180 H   0  0  0  0  0  0  0  0  0  0  0  0
   36.6760   31.9930   37.6240 H   0  0  0  0  0  0  0  0  0  0  0  0
  1  7  1  0  0  0  0
  1  6  1  0  0  0  0
  2  1  2  0  0  0  0
  3  2  1  0  0  0  0
  3  4  2  0  0  0  0
  4  5  1  0  0  0  0
  5  6  2  0  0  0  0
  5 12  1  0  0  0  0
  8  2  1  0  0  0  0
 10 12  1  0  0  0  0
 10  9  1  0  0  0  0
 11 10  2  0  0  0  0
 12 13  1  0  0  0  0
 14 17  1  0  0  0  0
 14  3  1  0  0  0  0
 15 18  1  0  0  0  0
 15 14  1  0  0  0  0
 16 15  1  0  0  0  0
 16 14  1  0  0  0  0
 19 15  1  0  0  0  0
 20 16  1  0  0  0  0
 21 16  1  0  0  0  0
M  END
>  <minimizedAffinity>
-3.99964809

$$$$

 OpenBabel03252505163D

 21 22  0  0  0  0  0  0  0  0999 V2000
   37.3160   31.2970   40.1170 C   0  0  0  0  0  0  0  0  0  0  0  0
   36.5810   30.5130   39.1990 C   0  0  0  0  0  0  0  0  0  0  0  0
   36.1010   29.3060   39.6840 C   0  0  0  0  0  0  0  0  0  0  0  0
   36.3440   28.9260   40.9800 N   0  0  0  0  0  0  0  0  0  0  0  0
   37.0580   29.7180   41.8320 C   0  0  0  0  0  0  0  0  0  0  0  0
   37.5350   30.8920   41.3880 N   0  0  0  0  0  0  0  0  0  0  0  0
   37.6910   32.2380   39.7410 H   0  0  0  0  0  0  0  0  0  0  0  0
   36.4010   30.8190   38.1950 H   0  0  0  0  0  0  0  0  0  0  0  0
   37.2330   27.5730   44.4950 H   0  0  0  0  0  0  0  0  0  0  0  0
   37.0620   27.9270   43.4890 C   0  0  0  0  0  0  0  0  0  0  0  0
   36.6610   27.0570   42.6870 O   0  0  0  0  0  0  0  0  0  0  0  0
   37.3010   29.3140   43.1740 N   0  0  0  0  0  0  0  0  0  0  0  0
   37.6360   29.9930   43.8920 H   0  0  0  0  0  0  0  0  0  0  0  0
   35.2850   28.4070   38.8040 C   0  0  0  0  0  0  0  0  0  0  0  0
   33.8830   28.9200   38.5510 C   0  0  0  0  0  0  0  0  0  0  0  0
   34.9780   28.8430   37.4490 C   0  0  0  0  0  0  0  0  0  0  0  0
   35.3760   27.3350   39.0890 H   0  0  0  0  0  0  0  0  0  0  0  0
   33.5970   29.9100   38.9050 H   0  0  0  0  0  0  0  0  0  0  0  0
   33.0870   28.1570   38.5290 H   0  0  0  0  0  0  0  0  0  0  0  0
   35.3530   29.8270   37.1010 H   0  0  0  0  0  0  0  0  0  0  0  0
   34.7690   28.0980   36.6450 H   0  0  0  0  0  0  0  0  0  0  0  0
  1  6  1  0  0  0  0
  2  3  1  0  0  0  0
  2  1  2  0  0  0  0
  3  4  2  0  0  0  0
  4  5  1  0  0  0  0
  5 12  1  0  0  0  0
  6  5  2  0  0  0  0
  7  1  1  0  0  0  0
  8  2  1  0  0  0  0
 10  9  1  0  0  0  0
 11 10  2  0  0  0  0
 12 10  1  0  0  0  0
 12 13  1  0  0  0  0
 14 17  1  0  0  0  0
 14  3  1  0  0  0  0
 15 14  1  0  0  0  0
 15 18  1  0  0  0  0
 16 15  1  0  0  0  0
 16 14  1  0  0  0  0
 19 15  1  0  0  0  0
 20 16  1  0  0  0  0
 21 16  1  0  0  0  0
M  END
>  <minimizedAffinity>
-3.95110393

$$$$

 OpenBabel03252505163D

 21 22  0  0  0  0  0  0  0  0999 V2000
   39.2930   28.1810   43.1100 C   0  0  0  0  0  0  0  0  0  0  0  0
   38.7330   26.8830   43.1100 C   0  0  0  0  0  0  0  0  0  0  0  0
   37.5830   26.7200   42.3550 C   0  0  0  0  0  0  0  0  0  0  0  0
   37.0460   27.7770   41.6610 N   0  0  0  0  0  0  0  0  0  0  0  0
   37.6230   29.0130   41.6890 C   0  0  0  0  0  0  0  0  0  0  0  0
   38.7380   29.1970   42.4140 N   0  0  0  0  0  0  0  0  0  0  0  0
   40.1900   28.3090   43.6990 H   0  0  0  0  0  0  0  0  0  0  0  0
   39.1590   26.0720   43.6550 H   0  0  0  0  0  0  0  0  0  0  0  0
   35.2350   30.7290   39.9350 H   0  0  0  0  0  0  0  0  0  0  0  0
   35.7070   29.9310   40.4900 C   0  0  0  0  0  0  0  0  0  0  0  0
   34.9960   28.9180   40.6600 O   0  0  0  0  0  0  0  0  0  0  0  0
   37.0580   30.0990   40.9650 N   0  0  0  0  0  0  0  0  0  0  0  0
   37.6000   30.9730   40.7890 H   0  0  0  0  0  0  0  0  0  0  0  0
   36.9200   25.3790   42.2620 C   0  0  0  0  0  0  0  0  0  0  0  0
   36.8930   24.8140   40.8570 C   0  0  0  0  0  0  0  0  0  0  0  0
   37.7440   24.2060   42.0080 C   0  0  0  0  0  0  0  0  0  0  0  0
   35.9650   25.3350   42.8320 H   0  0  0  0  0  0  0  0  0  0  0  0
   37.4260   25.3280   40.0580 H   0  0  0  0  0  0  0  0  0  0  0  0
   35.9720   24.2790   40.5700 H   0  0  0  0  0  0  0  0  0  0  0  0
   38.8400   24.3330   41.8890 H   0  0  0  0  0  0  0  0  0  0  0  0
   37.4120   23.1940   42.3400 H   0  0  0  0  0  0  0  0  0  0  0  0
  1  7  1  0  0  0  0
  2  1  1  0  0  0  0
  2  8  1  0  0  0  0
  3  2  2  0  0  0  0
  4  5  2  0  0  0  0
  4  3  1  0  0  0  0
  5  6  1  0  0  0  0
  6  1  2  0  0  0  0
  9 10  1  0  0  0  0
 10 11  2  0  0  0  0
 10 12  1  0  0  0  0
 12  5  1  0  0  0  0
 13 12  1  0  0  0  0
 14  3  1  0  0  0  0
 14 17  1  0  0  0  0
 15 16  1  0  0  0  0
 15 14  1  0  0  0  0
 16 14  1  0  0  0  0
 16 21  1  0  0  0  0
 18 15  1  0  0  0  0
 19 15  1  0  0  0  0
 20 16  1  0  0  0  0
M  END
>  <minimizedAffinity>
-3.86641693

$$$$

 OpenBabel03252505163D

 21 22  0  0  0  0  0  0  0  0999 V2000
   39.3130   31.1110   41.8370 C   0  0  0  0  0  0  0  0  0  0  0  0
   39.2390   30.0470   42.7650 C   0  0  0  0  0  0  0  0  0  0  0  0
   38.1970   29.1530   42.5780 C   0  0  0  0  0  0  0  0  0  0  0  0
   37.3090   29.3190   41.5450 N   0  0  0  0  0  0  0  0  0  0  0  0
   37.4210   30.3620   40.6720 C   0  0  0  0  0  0  0  0  0  0  0  0
   38.4210   31.2430   40.8300 N   0  0  0  0  0  0  0  0  0  0  0  0
   40.1250   31.8090   41.9810 H   0  0  0  0  0  0  0  0  0  0  0  0
   39.9360   29.9310   43.5640 H   0  0  0  0  0  0  0  0  0  0  0  0
   34.5400   29.8480   38.8940 H   0  0  0  0  0  0  0  0  0  0  0  0
   35.2740   29.7590   39.6810 C   0  0  0  0  0  0  0  0  0  0  0  0
   34.9640   28.9730   40.6020 O   0  0  0  0  0  0  0  0  0  0  0  0
   36.4950   30.5230   39.6040 N   0  0  0  0  0  0  0  0  0  0  0  0
   36.6940   31.1630   38.8050 H   0  0  0  0  0  0  0  0  0  0  0  0
   38.0400   27.9720   43.4880 C   0  0  0  0  0  0  0  0  0  0  0  0
   36.6090   27.4960   43.6190 C   0  0  0  0  0  0  0  0  0  0  0  0
   37.7210   26.6760   42.9060 C   0  0  0  0  0  0  0  0  0  0  0  0
   38.6120   28.0850   44.4360 H   0  0  0  0  0  0  0  0  0  0  0  0
   35.8330   27.9370   42.9930 H   0  0  0  0  0  0  0  0  0  0  0  0
   36.3000   27.1650   44.6250 H   0  0  0  0  0  0  0  0  0  0  0  0
   37.6030   26.5930   41.8060 H   0  0  0  0  0  0  0  0  0  0  0  0
   38.0030   25.7320   43.4300 H   0  0  0  0  0  0  0  0  0  0  0  0
  1  7  1  0  0  0  0
  1  2  1  0  0  0  0
  2  8  1  0  0  0  0
  3  2  2  0  0  0  0
  3 14  1  0  0  0  0
  4  3  1  0  0  0  0
  5  6  1  0  0  0  0
  5  4  2  0  0  0  0
  6  1  2  0  0  0  0
  9 10  1  0  0  0  0
 10 11  2  0  0  0  0
 12 10  1  0  0  0  0
 12  5  1  0  0  0  0
 13 12  1  0  0  0  0
 14 15  1  0  0  0  0
 14 17  1  0  0  0  0
 15 19  1  0  0  0  0
 16 21  1  0  0  0  0
 16 14  1  0  0  0  0
 16 15  1  0  0  0  0
 18 15  1  0  0  0  0
 20 16  1  0  0  0  0
M  END
>  <minimizedAffinity>
-3.85133505

$$$$

 OpenBabel03252505163D

 21 22  0  0  0  0  0  0  0  0999 V2000
   35.8990   28.3650   39.2970 C   0  0  0  0  0  0  0  0  0  0  0  0
   36.2730   27.0040   39.2240 C   0  0  0  0  0  0  0  0  0  0  0  0
   36.8480   26.4730   40.3670 C   0  0  0  0  0  0  0  0  0  0  0  0
   37.0290   27.2490   41.4850 N   0  0  0  0  0  0  0  0  0  0  0  0
   36.6500   28.5600   41.5100 C   0  0  0  0  0  0  0  0  0  0  0  0
   36.0910   29.0990   40.4150 N   0  0  0  0  0  0  0  0  0  0  0  0
   35.4510   28.7810   38.4060 H   0  0  0  0  0  0  0  0  0  0  0  0
   36.1290   26.4130   38.3490 H   0  0  0  0  0  0  0  0  0  0  0  0
   37.9090   29.3950   44.5820 H   0  0  0  0  0  0  0  0  0  0  0  0
   37.7320   28.8290   43.6800 C   0  0  0  0  0  0  0  0  0  0  0  0
   38.3460   27.7420   43.6140 O   0  0  0  0  0  0  0  0  0  0  0  0
   36.8410   29.3530   42.6750 N   0  0  0  0  0  0  0  0  0  0  0  0
   36.3570   30.2700   42.7910 H   0  0  0  0  0  0  0  0  0  0  0  0
   37.2590   25.0310   40.4100 C   0  0  0  0  0  0  0  0  0  0  0  0
   37.0280   24.3770   41.7560 C   0  0  0  0  0  0  0  0  0  0  0  0
   36.2230   24.0100   40.4770 C   0  0  0  0  0  0  0  0  0  0  0  0
   38.2510   24.8570   39.9380 H   0  0  0  0  0  0  0  0  0  0  0  0
   36.5020   24.9220   42.5390 H   0  0  0  0  0  0  0  0  0  0  0  0
   37.8060   23.6680   42.0870 H   0  0  0  0  0  0  0  0  0  0  0  0
   35.1590   24.3210   40.4950 H   0  0  0  0  0  0  0  0  0  0  0  0
   36.4140   22.9790   40.0940 H   0  0  0  0  0  0  0  0  0  0  0  0
  1  6  1  0  0  0  0
  2  1  2  0  0  0  0
  2  3  1  0  0  0  0
  3 14  1  0  0  0  0
  3  4  2  0  0  0  0
  4  5  1  0  0  0  0
  5 12  1  0  0  0  0
  6  5  2  0  0  0  0
  7  1  1  0  0  0  0
  8  2  1  0  0  0  0
 10  9  1  0  0  0  0
 11 10  2  0  0  0  0
 12 13  1  0  0  0  0
 12 10  1  0  0  0  0
 14 16  1  0  0  0  0
 14 15  1  0  0  0  0
 15 19  1  0  0  0  0
 15 18  1  0  0  0  0
 16 20  1  0  0  0  0
 16 15  1  0  0  0  0
 17 14  1  0  0  0  0
 21 16  1  0  0  0  0
M  END
>  <minimizedAffinity>
-3.80275178

$$$$

 OpenBabel03252505163D

 21 22  0  0  0  0  0  0  0  0999 V2000
   37.2400   27.0450   42.9180 C   0  0  0  0  0  0  0  0  0  0  0  0
   38.6220   27.2870   43.0850 C   0  0  0  0  0  0  0  0  0  0  0  0
   39.0700   28.5360   42.6830 C   0  0  0  0  0  0  0  0  0  0  0  0
   38.1980   29.4570   42.1590 N   0  0  0  0  0  0  0  0  0  0  0  0
   36.8690   29.1780   42.0180 C   0  0  0  0  0  0  0  0  0  0  0  0
   36.4090   27.9760   42.3990 N   0  0  0  0  0  0  0  0  0  0  0  0
   36.8890   26.0720   43.2310 H   0  0  0  0  0  0  0  0  0  0  0  0
   39.2890   26.5630   43.4920 H   0  0  0  0  0  0  0  0  0  0  0  0
   35.9270   32.0200   40.3570 H   0  0  0  0  0  0  0  0  0  0  0  0
   36.5660   31.2620   40.7870 C   0  0  0  0  0  0  0  0  0  0  0  0
   37.7900   31.4570   40.6280 O   0  0  0  0  0  0  0  0  0  0  0  0
   35.9750   30.1420   41.4750 N   0  0  0  0  0  0  0  0  0  0  0  0
   34.9410   30.0380   41.5730 H   0  0  0  0  0  0  0  0  0  0  0  0
   40.5140   28.9100   42.8390 C   0  0  0  0  0  0  0  0  0  0  0  0
   41.3880   28.4350   41.6980 C   0  0  0  0  0  0  0  0  0  0  0  0
   41.0710   29.9330   41.9670 C   0  0  0  0  0  0  0  0  0  0  0  0
   40.8940   28.7180   43.8670 H   0  0  0  0  0  0  0  0  0  0  0  0
   40.9310   27.9760   40.8220 H   0  0  0  0  0  0  0  0  0  0  0  0
   42.3910   28.0700   41.9780 H   0  0  0  0  0  0  0  0  0  0  0  0
   40.4160   30.4110   41.2090 H   0  0  0  0  0  0  0  0  0  0  0  0
   41.9510   30.5390   42.2890 H   0  0  0  0  0  0  0  0  0  0  0  0
  1  2  1  0  0  0  0
  1  7  1  0  0  0  0
  2  8  1  0  0  0  0
  3 14  1  0  0  0  0
  3  2  2  0  0  0  0
  4  3  1  0  0  0  0
  5  4  2  0  0  0  0
  5  6  1  0  0  0  0
  6  1  2  0  0  0  0
  9 10  1  0  0  0  0
 10 12  1  0  0  0  0
 11 10  2  0  0  0  0
 12 13  1  0  0  0  0
 12  5  1  0  0  0  0
 14 17  1  0  0  0  0
 15 16  1  0  0  0  0
 15 19  1  0  0  0  0
 15 14  1  0  0  0  0
 16 21  1  0  0  0  0
 16 14  1  0  0  0  0
 18 15  1  0  0  0  0
 20 16  1  0  0  0  0
M  END
>  <minimizedAffinity>
-3.76524377

$$$$
