
 OpenBabel03252509353D

 40 41  0  0  1  0  0  0  0  0999 V2000
   44.7340   35.3740   44.9680 O   0  0  0  0  0  0  0  0  0  0  0  0
   45.5660   34.2570   44.3700 P   0  0  1  0  0  0  0  0  0  0  0  0
   44.5650   33.0820   43.6730 O   0  0  0  0  0  0  0  0  0  0  0  0
   43.8410   33.4760   43.1180 H   0  0  0  0  0  0  0  0  0  0  0  0
   46.5580   34.9230   43.2010 O   0  0  0  0  0  0  0  0  0  0  0  0
   46.8080   33.9770   42.1990 C   0  0  1  0  0  0  0  0  0  0  0  0
   46.0950   34.3890   40.9090 C   0  0  0  0  0  0  0  0  0  0  0  0
   46.7270   33.4430   39.9240 C   0  0  0  0  0  0  0  0  0  0  0  0
   48.1080   33.1210   40.4760 C   0  0  0  0  0  0  0  0  0  0  0  0
   48.2310   33.9640   41.7350 C   0  0  1  0  0  0  0  0  0  0  0  0
   46.4530   32.9760   42.4340 H   0  0  0  0  0  0  0  0  0  0  0  0
   44.9820   34.2150   40.9950 H   0  0  0  0  0  0  0  0  0  0  0  0
   46.2090   35.4370   40.6530 H   0  0  0  0  0  0  0  0  0  0  0  0
   46.0800   32.5550   39.8470 H   0  0  0  0  0  0  0  0  0  0  0  0
   46.8050   33.9610   38.9400 H   0  0  0  0  0  0  0  0  0  0  0  0
   48.0780   32.0610   40.8000 H   0  0  0  0  0  0  0  0  0  0  0  0
   48.9040   33.3420   39.7450 H   0  0  0  0  0  0  0  0  0  0  0  0
   48.8230   33.4080   42.4900 H   0  0  0  0  0  0  0  0  0  0  0  0
   48.7670   35.3350   41.4380 C   0  0  0  0  0  0  0  0  0  0  0  0
   49.3490   35.2650   40.4760 H   0  0  0  0  0  0  0  0  0  0  0  0
   48.0090   36.1210   41.3150 H   0  0  0  0  0  0  0  0  0  0  0  0
   49.6390   35.7850   42.4060 O   0  0  0  0  0  0  0  0  0  0  0  0
   50.1420   36.5570   42.0860 H   0  0  0  0  0  0  0  0  0  0  0  0
   46.4620   33.4910   45.5480 O   0  0  0  0  0  0  0  0  0  0  0  0
   46.1760   32.1590   45.5280 C   0  0  0  0  0  0  0  0  0  0  0  0
   47.1170   31.6390   45.1860 H   0  0  0  0  0  0  0  0  0  0  0  0
   45.3990   31.8120   44.8520 H   0  0  0  0  0  0  0  0  0  0  0  0
   45.6230   31.9800   49.2080 C   0  0  0  0  0  0  0  0  0  0  0  0
   45.9030   32.5120   47.9380 C   0  0  0  0  0  0  0  0  0  0  0  0
   45.8840   31.6240   46.8710 C   0  0  0  0  0  0  0  0  0  0  0  0
   45.6000   30.2980   47.0970 N   0  0  0  0  0  0  0  0  0  0  0  0
   45.3340   29.8150   48.3270 C   0  0  0  0  0  0  0  0  0  0  0  0
   45.3480   30.6530   49.3710 N   0  0  0  0  0  0  0  0  0  0  0  0
   45.6160   32.5980   50.0960 H   0  0  0  0  0  0  0  0  0  0  0  0
   46.1160   33.5480   47.8290 H   0  0  0  0  0  0  0  0  0  0  0  0
   45.2410   26.5020   47.3900 H   0  0  0  0  0  0  0  0  0  0  0  0
   45.3750   27.5790   47.4480 C   0  0  0  0  0  0  0  0  0  0  0  0
   45.8920   28.0210   46.3780 O   0  0  0  0  0  0  0  0  0  0  0  0
   45.0430   28.4380   48.5360 N   0  0  0  0  0  0  0  0  0  0  0  0
   44.6150   27.9550   49.3800 H   0  0  0  0  0  0  0  0  0  0  0  0
  2  1  2  1  0  0  0
  2 24  1  0  0  0  0
  3  2  1  0  0  0  0
  4  3  1  0  0  0  0
  5  2  1  0  0  0  0
  6 11  1  1  0  0  0
  6  5  1  0  0  0  0
  7 12  1  0  0  0  0
  7  6  1  0  0  0  0
  8  9  1  0  0  0  0
  8  7  1  0  0  0  0
  9 16  1  0  0  0  0
  9 10  1  0  0  0  0
 10  6  1  0  0  0  0
 10 18  1  1  0  0  0
 13  7  1  0  0  0  0
 14  8  1  0  0  0  0
 15  8  1  0  0  0  0
 17  9  1  0  0  0  0
 19 10  1  0  0  0  0
 19 22  1  0  0  0  0
 20 19  1  0  0  0  0
 21 19  1  0  0  0  0
 23 22  1  0  0  0  0
 25 24  1  0  0  0  0
 25 30  1  0  0  0  0
 26 25  1  0  0  0  0
 27 25  1  0  0  0  0
 28 33  1  0  0  0  0
 28 34  1  0  0  0  0
 29 28  2  0  0  0  0
 30 31  2  0  0  0  0
 30 29  1  0  0  0  0
 31 32  1  0  0  0  0
 32 39  1  0  0  0  0
 32 33  2  0  0  0  0
 35 29  1  0  0  0  0
 36 37  1  0  0  0  0
 37 39  1  0  0  0  0
 38 37  2  0  0  0  0
 39 40  1  0  0  0  0
M  END
>  <minimizedAffinity>
-5.47864246

>  <minimizedRMSD>
0.154600844

$$$$
