
 OpenBabel03252502523D

 27 28  0  0  0  0  0  0  0  0999 V2000
   45.3450   30.0570   44.6090 Br  0  0  0  0  0  0  0  0  0  0  0  0
   45.9330   30.8140   46.2860 C   0  0  0  0  0  0  0  0  0  0  0  0
   46.6830   31.9580   46.1860 C   0  0  0  0  0  0  0  0  0  0  0  0
   47.0920   32.4780   47.4230 C   0  0  0  0  0  0  0  0  0  0  0  0
   46.7730   31.8980   48.6360 C   0  0  0  0  0  0  0  0  0  0  0  0
   46.0220   30.7610   48.6430 C   0  0  0  0  0  0  0  0  0  0  0  0
   45.5900   30.2010   47.4610 C   0  0  0  0  0  0  0  0  0  0  0  0
   47.6980   33.3920   47.4880 H   0  0  0  0  0  0  0  0  0  0  0  0
   47.0860   32.2980   49.5730 H   0  0  0  0  0  0  0  0  0  0  0  0
   45.7390   30.2610   49.5430 H   0  0  0  0  0  0  0  0  0  0  0  0
   45.2250   26.8390   47.4300 H   0  0  0  0  0  0  0  0  0  0  0  0
   45.6600   27.8490   47.4620 C   0  0  0  0  0  0  0  0  0  0  0  0
   46.8640   28.2690   47.5490 O   0  0  0  0  0  0  0  0  0  0  0  0
   44.7940   28.9990   47.4030 N   0  0  0  0  0  0  0  0  0  0  0  0
   43.7400   28.9030   47.3290 H   0  0  0  0  0  0  0  0  0  0  0  0
   47.0830   32.6620   44.9590 C   0  0  0  0  0  0  0  0  0  0  0  0
   46.9580   31.9640   44.1060 H   0  0  0  0  0  0  0  0  0  0  0  0
   48.1520   32.9490   44.9650 H   0  0  0  0  0  0  0  0  0  0  0  0
   44.5720   35.4130   45.1880 C   0  0  0  0  0  0  0  0  0  0  0  0
   44.7210   36.0580   43.9650 C   0  0  0  0  0  0  0  0  0  0  0  0
   45.6670   35.5480   43.0890 C   0  0  0  0  0  0  0  0  0  0  0  0
   46.4010   34.4520   43.4570 N   0  0  0  0  0  0  0  0  0  0  0  0
   46.2220   33.8520   44.6680 C   0  0  0  0  0  0  0  0  0  0  0  0
   45.2990   34.3560   45.5090 N   0  0  0  0  0  0  0  0  0  0  0  0
   43.8580   35.7240   45.9590 H   0  0  0  0  0  0  0  0  0  0  0  0
   44.0990   36.9180   43.7530 H   0  0  0  0  0  0  0  0  0  0  0  0
   45.8020   36.0310   42.1320 H   0  0  0  0  0  0  0  0  0  0  0  0
  1  2  1  0  0  0  0
  2  7  1  0  0  0  0
  3  2  2  0  0  0  0
  3  4  1  0  0  0  0
  4  8  1  0  0  0  0
  4  5  2  0  0  0  0
  5  6  1  0  0  0  0
  5  9  1  0  0  0  0
  6 10  1  0  0  0  0
  7  6  2  0  0  0  0
 11 12  1  0  0  0  0
 12 13  2  0  0  0  0
 14  7  1  0  0  0  0
 14 12  1  0  0  0  0
 15 14  1  0  0  0  0
 16 18  1  0  0  0  0
 16  3  1  0  0  0  0
 17 16  1  0  0  0  0
 19 24  1  0  0  0  0
 19 25  1  0  0  0  0
 20 19  2  0  0  0  0
 21 22  2  0  0  0  0
 21 20  1  0  0  0  0
 22 23  1  0  0  0  0
 23 16  1  0  0  0  0
 23 24  2  0  0  0  0
 26 20  1  0  0  0  0
 27 21  1  0  0  0  0
M  END
>  <minimizedAffinity>
-4.67822075

>  <minimizedRMSD>
0.699942827

$$$$
