
 OpenBabel03242511063D

 24 26  0  0  1  0  0  0  0  0999 V2000
   46.7080   33.6640   43.7760 C   0  0  1  0  0  0  0  0  0  0  0  0
   47.9250   34.2110   43.0890 C   0  0  0  0  0  0  0  0  0  0  0  0
   47.0070   33.1820   42.4220 C   0  0  2  0  0  0  0  0  0  0  0  0
   45.8430   34.3430   43.9210 H   0  0  0  0  0  0  0  0  0  0  0  0
   48.8760   33.8360   43.5180 H   0  0  0  0  0  0  0  0  0  0  0  0
   47.8590   35.2630   42.8220 H   0  0  0  0  0  0  0  0  0  0  0  0
   47.4280   32.1510   42.4030 H   0  0  0  0  0  0  0  0  0  0  0  0
   47.4490   30.6550   45.8220 C   0  0  0  0  0  0  0  0  0  0  0  0
   47.1610   31.1420   47.1440 C   0  0  0  0  0  0  0  0  0  0  0  0
   46.7270   32.4980   47.2860 C   0  0  0  0  0  0  0  0  0  0  0  0
   46.6060   33.2550   46.1910 N   0  0  0  0  0  0  0  0  0  0  0  0
   46.8890   32.7630   44.9490 C   0  0  0  0  0  0  0  0  0  0  0  0
   47.3060   31.4760   44.7770 N   0  0  0  0  0  0  0  0  0  0  0  0
   47.7750   29.6280   45.7450 H   0  0  0  0  0  0  0  0  0  0  0  0
   47.2590   30.5260   48.0250 H   0  0  0  0  0  0  0  0  0  0  0  0
   46.5220   32.8200   48.2960 H   0  0  0  0  0  0  0  0  0  0  0  0
   46.3070   33.5710   41.2670 N   0  0  0  0  0  0  0  0  0  0  0  0
   46.3440   34.5480   40.9940 H   0  0  0  0  0  0  0  0  0  0  0  0
   44.4960   33.7280   39.4610 H   0  0  0  0  0  0  0  0  0  0  0  0
   45.1510   32.9820   39.2170 N   0  0  0  0  0  0  0  0  0  0  0  0
   45.8030   33.0670   37.9520 C   0  0  0  0  0  2  0  0  0  0  0  0
   46.8640   31.9680   38.0780 C   0  0  0  0  0  2  0  0  0  0  0  0
   47.3690   32.2280   39.4840 C   0  0  0  0  0  2  0  0  0  0  0  0
   46.1400   32.6540   40.2120 C   0  0  1  0  0  3  0  0  0  0  0  0
  1  4  1  1  0  0  0
  1 12  1  0  0  0  0
  2  5  1  0  0  0  0
  2  1  1  0  0  0  0
  3  7  1  6  0  0  0
  3  2  1  0  0  0  0
  3  1  1  0  0  0  0
  6  2  1  0  0  0  0
  8  9  1  0  0  0  0
  9 10  2  0  0  0  0
  9 15  1  0  0  0  0
 10 16  1  0  0  0  0
 11 10  1  0  0  0  0
 12 11  2  0  0  0  0
 13 12  1  0  0  0  0
 13  8  2  0  0  0  0
 14  8  1  0  0  0  0
 17  3  1  0  0  0  0
 18 17  1  0  0  0  0
 20 19  1  0  0  0  0
 20 24  1  0  0  0  0
 21 22  1  0  0  0  0
 21 20  1  0  0  0  0
 22 23  1  0  0  0  0
 23 24  1  0  0  0  0
 24 17  1  6  0  0  0
M  END
>  <minimizedAffinity>
-2.96782374

>  <minimizedRMSD>
7.87066746

$$$$
