
 OpenBabel03252502253D

 31 33  0  0  1  0  0  0  0  0999 V2000
   37.0770   30.5250   39.5800 N   0  0  0  0  0  0  0  0  0  0  0  0
   37.1270   29.9100   38.2700 C   0  0  0  0  0  0  0  0  0  0  0  0
   35.6690   29.6620   37.9020 C   0  0  0  0  0  0  0  0  0  0  0  0
   35.0460   28.6730   38.8530 C   0  0  0  0  0  0  0  0  0  0  0  0
   35.4480   28.8360   40.2700 C   0  0  0  0  0  0  0  0  0  0  0  0
   36.1690   30.0960   40.6070 C   0  0  1  0  0  0  0  0  0  0  0  0
   37.5630   30.5890   37.5100 H   0  0  0  0  0  0  0  0  0  0  0  0
   37.6120   28.9400   38.3370 H   0  0  0  0  0  0  0  0  0  0  0  0
   35.6830   29.2200   36.8750 H   0  0  0  0  0  0  0  0  0  0  0  0
   35.1730   30.6450   37.9250 H   0  0  0  0  0  0  0  0  0  0  0  0
   33.9460   28.7970   38.7520 H   0  0  0  0  0  0  0  0  0  0  0  0
   35.2340   27.6210   38.4890 H   0  0  0  0  0  0  0  0  0  0  0  0
   34.5550   28.7300   40.9260 H   0  0  0  0  0  0  0  0  0  0  0  0
   36.1590   27.9910   40.5110 H   0  0  0  0  0  0  0  0  0  0  0  0
   35.4050   30.8900   40.8020 H   0  0  0  0  0  0  0  0  0  0  0  0
   38.4520   33.9430   40.2650 C   0  0  0  0  0  0  0  0  0  0  0  0
   37.5090   32.9520   39.9290 C   0  0  0  0  0  0  0  0  0  0  0  0
   37.9530   31.6120   39.9070 C   0  0  0  0  0  0  0  0  0  0  0  0
   39.2630   31.3600   40.2110 N   0  0  0  0  0  0  0  0  0  0  0  0
   40.1210   32.3600   40.5270 C   0  0  0  0  0  0  0  0  0  0  0  0
   39.7070   33.6560   40.5520 N   0  0  0  0  0  0  0  0  0  0  0  0
   38.0290   34.9400   40.2580 H   0  0  0  0  0  0  0  0  0  0  0  0
   36.4710   33.1380   39.6870 H   0  0  0  0  0  0  0  0  0  0  0  0
   41.1490   32.1660   40.7660 H   0  0  0  0  0  0  0  0  0  0  0  0
   36.8780   29.8870   41.8010 O   0  0  0  0  0  0  0  0  0  0  0  0
   38.9810   27.8840   40.9410 H   0  0  0  0  0  0  0  0  0  0  0  0
   38.7000   28.5510   41.6850 N   0  0  0  0  0  0  0  0  0  0  0  0
   39.3830   28.3570   42.9280 C   0  0  0  0  0  2  0  0  0  0  0  0
   38.4660   27.4160   43.6800 C   0  0  0  0  0  2  0  0  0  0  0  0
   37.1120   28.0570   43.3780 C   0  0  0  0  0  2  0  0  0  0  0  0
   37.2670   28.5640   41.9510 C   0  0  1  0  0  3  0  0  0  0  0  0
  1 18  1  0  0  0  0
  1  6  1  0  0  0  0
  2  8  1  0  0  0  0
  2  1  1  0  0  0  0
  3 10  1  0  0  0  0
  3  2  1  0  0  0  0
  3  4  1  0  0  0  0
  4  5  1  0  0  0  0
  5 14  1  0  0  0  0
  5  6  1  0  0  0  0
  5 13  1  0  0  0  0
  6 15  1  1  0  0  0
  6 25  1  0  0  0  0
  7  2  1  0  0  0  0
  9  3  1  0  0  0  0
 11  4  1  0  0  0  0
 12  4  1  0  0  0  0
 16 21  1  0  0  0  0
 17 16  2  0  0  0  0
 18 17  1  0  0  0  0
 18 19  2  0  0  0  0
 19 20  1  0  0  0  0
 20 21  2  0  0  0  0
 20 24  1  0  0  0  0
 22 16  1  0  0  0  0
 23 17  1  0  0  0  0
 26 27  1  0  0  0  0
 27 31  1  0  0  0  0
 27 28  1  0  0  0  0
 28 29  1  0  0  0  0
 30 29  1  0  0  0  0
 31 25  1  1  0  0  0
 31 30  1  0  0  0  0
M  END
>  <minimizedAffinity>
-5.04492903

$$$$

 OpenBabel03252502253D

 31 33  0  0  1  0  0  0  0  0999 V2000
   38.7530   28.8000   42.0680 N   0  0  0  0  0  0  0  0  0  0  0  0
   39.2270   27.7690   42.9680 C   0  0  0  0  0  0  0  0  0  0  0  0
   38.5080   26.5020   42.5200 C   0  0  0  0  0  0  0  0  0  0  0  0
   37.0210   26.6410   42.7180 C   0  0  0  0  0  0  0  0  0  0  0  0
   36.4720   27.9760   42.3850 C   0  0  0  0  0  0  0  0  0  0  0  0
   37.3830   28.8950   41.6460 C   0  0  1  0  0  0  0  0  0  0  0  0
   40.3170   27.6000   42.8670 H   0  0  0  0  0  0  0  0  0  0  0  0
   38.8970   27.9850   43.9810 H   0  0  0  0  0  0  0  0  0  0  0  0
   38.8890   25.6850   43.1800 H   0  0  0  0  0  0  0  0  0  0  0  0
   38.7830   26.3480   41.4650 H   0  0  0  0  0  0  0  0  0  0  0  0
   36.5500   25.8640   42.0790 H   0  0  0  0  0  0  0  0  0  0  0  0
   36.7440   26.3310   43.7680 H   0  0  0  0  0  0  0  0  0  0  0  0
   35.5210   27.8580   41.8190 H   0  0  0  0  0  0  0  0  0  0  0  0
   36.2320   28.4890   43.3630 H   0  0  0  0  0  0  0  0  0  0  0  0
   37.2980   28.6620   40.5550 H   0  0  0  0  0  0  0  0  0  0  0  0
   41.0410   31.7490   41.7430 C   0  0  0  0  0  0  0  0  0  0  0  0
   40.1590   30.8340   42.3510 C   0  0  0  0  0  0  0  0  0  0  0  0
   39.6560   29.7860   41.5510 C   0  0  0  0  0  0  0  0  0  0  0  0
   40.0520   29.7240   40.2430 N   0  0  0  0  0  0  0  0  0  0  0  0
   40.9050   30.6370   39.7180 C   0  0  0  0  0  0  0  0  0  0  0  0
   41.3980   31.6520   40.4780 N   0  0  0  0  0  0  0  0  0  0  0  0
   41.3780   32.5190   42.4260 H   0  0  0  0  0  0  0  0  0  0  0  0
   39.8380   30.8730   43.3830 H   0  0  0  0  0  0  0  0  0  0  0  0
   41.2190   30.5910   38.6930 H   0  0  0  0  0  0  0  0  0  0  0  0
   36.9250   30.2090   41.8360 O   0  0  0  0  0  0  0  0  0  0  0  0
   35.8060   32.7390   40.6020 H   0  0  0  0  0  0  0  0  0  0  0  0
   36.6130   32.0850   40.6100 N   0  0  0  0  0  0  0  0  0  0  0  0
   37.4790   32.2150   39.4790 C   0  0  0  0  0  2  0  0  0  0  0  0
   36.9130   31.2130   38.4960 C   0  0  0  0  0  2  0  0  0  0  0  0
   36.6660   30.0280   39.4290 C   0  0  0  0  0  2  0  0  0  0  0  0
   36.2320   30.6830   40.7330 C   0  0  1  0  0  3  0  0  0  0  0  0
  1  2  1  0  0  0  0
  2  8  1  0  0  0  0
  3  4  1  0  0  0  0
  3  2  1  0  0  0  0
  3  9  1  0  0  0  0
  4 12  1  0  0  0  0
  5  4  1  0  0  0  0
  5 14  1  0  0  0  0
  6 15  1  6  0  0  0
  6 25  1  0  0  0  0
  6  1  1  0  0  0  0
  6  5  1  0  0  0  0
  7  2  1  0  0  0  0
 10  3  1  0  0  0  0
 11  4  1  0  0  0  0
 13  5  1  0  0  0  0
 16 17  1  0  0  0  0
 16 22  1  0  0  0  0
 17 23  1  0  0  0  0
 18  1  1  0  0  0  0
 18 17  2  0  0  0  0
 19 18  1  0  0  0  0
 20 19  2  0  0  0  0
 20 21  1  0  0  0  0
 21 16  2  0  0  0  0
 24 20  1  0  0  0  0
 26 27  1  0  0  0  0
 27 31  1  0  0  0  0
 28 27  1  0  0  0  0
 29 30  1  0  0  0  0
 29 28  1  0  0  0  0
 30 31  1  0  0  0  0
 31 25  1  1  0  0  0
M  END
>  <minimizedAffinity>
-4.92462015

$$$$

 OpenBabel03252502253D

 31 33  0  0  1  0  0  0  0  0999 V2000
   39.6560   29.4610   42.0660 N   0  0  0  0  0  0  0  0  0  0  0  0
   40.8500   29.0820   42.7930 C   0  0  0  0  0  0  0  0  0  0  0  0
   40.8380   27.5580   42.7920 C   0  0  0  0  0  0  0  0  0  0  0  0
   39.6470   27.0390   43.5560 C   0  0  0  0  0  0  0  0  0  0  0  0
   38.3940   27.8030   43.3470 C   0  0  0  0  0  0  0  0  0  0  0  0
   38.4010   28.7800   42.2210 C   0  0  1  0  0  0  0  0  0  0  0  0
   41.7720   29.4190   42.2800 H   0  0  0  0  0  0  0  0  0  0  0  0
   40.7680   29.4040   43.8280 H   0  0  0  0  0  0  0  0  0  0  0  0
   41.7730   27.2440   43.3180 H   0  0  0  0  0  0  0  0  0  0  0  0
   40.8320   27.2500   41.7350 H   0  0  0  0  0  0  0  0  0  0  0  0
   39.5100   25.9840   43.2350 H   0  0  0  0  0  0  0  0  0  0  0  0
   39.9020   26.9570   44.6530 H   0  0  0  0  0  0  0  0  0  0  0  0
   37.5430   27.0960   43.2220 H   0  0  0  0  0  0  0  0  0  0  0  0
   38.2120   28.4040   44.2860 H   0  0  0  0  0  0  0  0  0  0  0  0
   38.1430   28.2280   41.2830 H   0  0  0  0  0  0  0  0  0  0  0  0
   39.8890   31.5060   38.9350 C   0  0  0  0  0  0  0  0  0  0  0  0
   39.8800   30.3620   39.7560 C   0  0  0  0  0  0  0  0  0  0  0  0
   39.6850   30.5550   41.1400 C   0  0  0  0  0  0  0  0  0  0  0  0
   39.5190   31.8340   41.5960 N   0  0  0  0  0  0  0  0  0  0  0  0
   39.5380   32.8950   40.7530 C   0  0  0  0  0  0  0  0  0  0  0  0
   39.7250   32.7220   39.4160 N   0  0  0  0  0  0  0  0  0  0  0  0
   40.0450   31.2670   37.8900 H   0  0  0  0  0  0  0  0  0  0  0  0
   40.0100   29.3450   39.4070 H   0  0  0  0  0  0  0  0  0  0  0  0
   39.4080   33.8990   41.1080 H   0  0  0  0  0  0  0  0  0  0  0  0
   37.3840   29.7200   42.4540 O   0  0  0  0  0  0  0  0  0  0  0  0
   34.8840   31.0640   41.3980 H   0  0  0  0  0  0  0  0  0  0  0  0
   35.8790   30.8450   41.1950 N   0  0  0  0  0  0  0  0  0  0  0  0
   36.2380   30.9940   39.8180 C   0  0  0  0  0  2  0  0  0  0  0  0
   36.0090   29.6090   39.2520 C   0  0  0  0  0  2  0  0  0  0  0  0
   36.6330   28.7570   40.3570 C   0  0  0  0  0  2  0  0  0  0  0  0
   36.2880   29.5150   41.6310 C   0  0  1  0  0  3  0  0  0  0  0  0
  1  6  1  0  0  0  0
  1  2  1  0  0  0  0
  2  8  1  0  0  0  0
  3  2  1  0  0  0  0
  3  9  1  0  0  0  0
  3  4  1  0  0  0  0
  4 12  1  0  0  0  0
  5  4  1  0  0  0  0
  5 14  1  0  0  0  0
  6 15  1  6  0  0  0
  6 25  1  0  0  0  0
  6  5  1  0  0  0  0
  7  2  1  0  0  0  0
 10  3  1  0  0  0  0
 11  4  1  0  0  0  0
 13  5  1  0  0  0  0
 16 21  2  0  0  0  0
 16 17  1  0  0  0  0
 17 18  2  0  0  0  0
 18 19  1  0  0  0  0
 18  1  1  0  0  0  0
 20 24  1  0  0  0  0
 20 19  2  0  0  0  0
 21 20  1  0  0  0  0
 22 16  1  0  0  0  0
 23 17  1  0  0  0  0
 27 26  1  0  0  0  0
 27 31  1  0  0  0  0
 28 27  1  0  0  0  0
 29 28  1  0  0  0  0
 29 30  1  0  0  0  0
 30 31  1  0  0  0  0
 31 25  1  1  0  0  0
M  END
>  <minimizedAffinity>
-4.66724634

$$$$

 OpenBabel03252502253D

 31 33  0  0  1  0  0  0  0  0999 V2000
   37.4230   28.4990   40.8750 N   0  0  0  0  0  0  0  0  0  0  0  0
   37.5430   27.1420   41.3660 C   0  0  0  0  0  0  0  0  0  0  0  0
   36.8810   27.1660   42.7390 C   0  0  0  0  0  0  0  0  0  0  0  0
   37.6430   28.0650   43.6770 C   0  0  0  0  0  0  0  0  0  0  0  0
   38.1510   29.3150   43.0630 C   0  0  0  0  0  0  0  0  0  0  0  0
   37.6130   29.6490   41.7140 C   0  0  1  0  0  0  0  0  0  0  0  0
   36.9920   26.4210   40.7310 H   0  0  0  0  0  0  0  0  0  0  0  0
   38.5910   26.8970   41.5190 H   0  0  0  0  0  0  0  0  0  0  0  0
   36.9300   26.1160   43.1200 H   0  0  0  0  0  0  0  0  0  0  0  0
   35.8450   27.5010   42.5760 H   0  0  0  0  0  0  0  0  0  0  0  0
   36.9470   28.3040   44.5100 H   0  0  0  0  0  0  0  0  0  0  0  0
   38.4730   27.4840   44.1760 H   0  0  0  0  0  0  0  0  0  0  0  0
   37.9760   30.1680   43.7570 H   0  0  0  0  0  0  0  0  0  0  0  0
   39.2670   29.1930   42.9370 H   0  0  0  0  0  0  0  0  0  0  0  0
   36.6440   30.1900   41.8530 H   0  0  0  0  0  0  0  0  0  0  0  0
   35.6310   29.4620   37.7290 C   0  0  0  0  0  0  0  0  0  0  0  0
   35.8420   29.2500   39.1050 C   0  0  0  0  0  0  0  0  0  0  0  0
   37.1010   28.7500   39.5010 C   0  0  0  0  0  0  0  0  0  0  0  0
   38.0330   28.5030   38.5300 N   0  0  0  0  0  0  0  0  0  0  0  0
   37.7670   28.7280   37.2210 C   0  0  0  0  0  0  0  0  0  0  0  0
   36.5570   29.2100   36.8250 N   0  0  0  0  0  0  0  0  0  0  0  0
   34.6410   29.8450   37.5140 H   0  0  0  0  0  0  0  0  0  0  0  0
   35.1140   29.4410   39.8820 H   0  0  0  0  0  0  0  0  0  0  0  0
   38.4950   28.5360   36.4570 H   0  0  0  0  0  0  0  0  0  0  0  0
   38.5090   30.5370   41.0960 O   0  0  0  0  0  0  0  0  0  0  0  0
   39.5370   33.1420   42.2480 H   0  0  0  0  0  0  0  0  0  0  0  0
   39.4210   32.5870   41.3780 N   0  0  0  0  0  0  0  0  0  0  0  0
   39.5640   33.3520   40.1770 C   0  0  0  0  0  2  0  0  0  0  0  0
   38.1450   33.7820   39.8730 C   0  0  0  0  0  2  0  0  0  0  0  0
   37.4030   32.4730   40.1370 C   0  0  0  0  0  2  0  0  0  0  0  0
   38.1590   31.8620   41.3080 C   0  0  1  0  0  3  0  0  0  0  0  0
  1  2  1  0  0  0  0
  1  6  1  0  0  0  0
  2  8  1  0  0  0  0
  2  3  1  0  0  0  0
  3  9  1  0  0  0  0
  3  4  1  0  0  0  0
  4 12  1  0  0  0  0
  4 11  1  0  0  0  0
  5  4  1  0  0  0  0
  5 13  1  0  0  0  0
  6 15  1  1  0  0  0
  6  5  1  0  0  0  0
  7  2  1  0  0  0  0
 10  3  1  0  0  0  0
 14  5  1  0  0  0  0
 16 17  1  0  0  0  0
 17 18  2  0  0  0  0
 17 23  1  0  0  0  0
 18  1  1  0  0  0  0
 19 18  1  0  0  0  0
 20 19  2  0  0  0  0
 21 20  1  0  0  0  0
 21 16  2  0  0  0  0
 22 16  1  0  0  0  0
 24 20  1  0  0  0  0
 25  6  1  0  0  0  0
 27 26  1  0  0  0  0
 28 27  1  0  0  0  0
 29 30  1  0  0  0  0
 29 28  1  0  0  0  0
 30 31  1  0  0  0  0
 31 25  1  6  0  0  0
 31 27  1  0  0  0  0
M  END
>  <minimizedAffinity>
-4.66187477

$$$$

 OpenBabel03252502253D

 31 33  0  0  1  0  0  0  0  0999 V2000
   37.0940   30.1000   38.3770 N   0  0  0  0  0  0  0  0  0  0  0  0
   36.8880   29.8790   36.9600 C   0  0  0  0  0  0  0  0  0  0  0  0
   35.4720   29.3270   36.8550 C   0  0  0  0  0  0  0  0  0  0  0  0
   35.3720   27.9940   37.5490 C   0  0  0  0  0  0  0  0  0  0  0  0
   36.1240   27.8980   38.8220 C   0  0  0  0  0  0  0  0  0  0  0  0
   36.6340   29.1820   39.3820 C   0  0  1  0  0  0  0  0  0  0  0  0
   36.9340   30.8240   36.3830 H   0  0  0  0  0  0  0  0  0  0  0  0
   37.5630   29.1030   36.6070 H   0  0  0  0  0  0  0  0  0  0  0  0
   35.2790   29.1850   35.7630 H   0  0  0  0  0  0  0  0  0  0  0  0
   34.8100   30.0880   37.2990 H   0  0  0  0  0  0  0  0  0  0  0  0
   34.2890   27.8210   37.7320 H   0  0  0  0  0  0  0  0  0  0  0  0
   35.6600   27.1680   36.8360 H   0  0  0  0  0  0  0  0  0  0  0  0
   35.5020   27.3780   39.5850 H   0  0  0  0  0  0  0  0  0  0  0  0
   37.0350   27.2590   38.6210 H   0  0  0  0  0  0  0  0  0  0  0  0
   35.8110   29.6480   39.9810 H   0  0  0  0  0  0  0  0  0  0  0  0
   39.7440   32.6330   39.1490 C   0  0  0  0  0  0  0  0  0  0  0  0
   39.1690   31.4460   38.6570 C   0  0  0  0  0  0  0  0  0  0  0  0
   37.7810   31.2700   38.8390 C   0  0  0  0  0  0  0  0  0  0  0  0
   37.0830   32.2570   39.4790 N   0  0  0  0  0  0  0  0  0  0  0  0
   37.6960   33.3790   39.9300 C   0  0  0  0  0  0  0  0  0  0  0  0
   39.0340   33.5610   39.7610 N   0  0  0  0  0  0  0  0  0  0  0  0
   40.8100   32.6860   38.9680 H   0  0  0  0  0  0  0  0  0  0  0  0
   39.7100   30.6570   38.1500 H   0  0  0  0  0  0  0  0  0  0  0  0
   37.1520   34.1550   40.4320 H   0  0  0  0  0  0  0  0  0  0  0  0
   37.6850   28.8870   40.2640 O   0  0  0  0  0  0  0  0  0  0  0  0
   35.4180   29.1310   42.2580 H   0  0  0  0  0  0  0  0  0  0  0  0
   36.1990   28.5290   41.9320 N   0  0  0  0  0  0  0  0  0  0  0  0
   36.5740   27.5080   42.8620 C   0  0  0  0  0  2  0  0  0  0  0  0
   37.6660   28.1700   43.6760 C   0  0  0  0  0  2  0  0  0  0  0  0
   38.4660   28.8430   42.5620 C   0  0  0  0  0  2  0  0  0  0  0  0
   37.3980   29.2720   41.5650 C   0  0  1  0  0  3  0  0  0  0  0  0
  1 18  1  0  0  0  0
  1  6  1  0  0  0  0
  2  1  1  0  0  0  0
  3  2  1  0  0  0  0
  3 10  1  0  0  0  0
  3  4  1  0  0  0  0
  4 11  1  0  0  0  0
  4  5  1  0  0  0  0
  5  6  1  0  0  0  0
  5 13  1  0  0  0  0
  6 15  1  1  0  0  0
  6 25  1  0  0  0  0
  7  2  1  0  0  0  0
  8  2  1  0  0  0  0
  9  3  1  0  0  0  0
 12  4  1  0  0  0  0
 14  5  1  0  0  0  0
 16 21  1  0  0  0  0
 17 18  1  0  0  0  0
 17 16  2  0  0  0  0
 18 19  2  0  0  0  0
 19 20  1  0  0  0  0
 20 24  1  0  0  0  0
 21 20  2  0  0  0  0
 22 16  1  0  0  0  0
 23 17  1  0  0  0  0
 27 26  1  0  0  0  0
 27 28  1  0  0  0  0
 28 29  1  0  0  0  0
 30 29  1  0  0  0  0
 31 25  1  6  0  0  0
 31 27  1  0  0  0  0
 31 30  1  0  0  0  0
M  END
>  <minimizedAffinity>
-4.60037327

$$$$

 OpenBabel03252502253D

 31 33  0  0  1  0  0  0  0  0999 V2000
   36.8090   26.7970   40.0480 N   0  0  0  0  0  0  0  0  0  0  0  0
   36.7710   25.3880   39.7150 C   0  0  0  0  0  0  0  0  0  0  0  0
   36.8400   25.3470   38.1930 C   0  0  0  0  0  0  0  0  0  0  0  0
   35.6200   25.9960   37.5920 C   0  0  0  0  0  0  0  0  0  0  0  0
   35.1590   27.2170   38.2920 C   0  0  0  0  0  0  0  0  0  0  0  0
   36.0970   27.7930   39.2960 C   0  0  1  0  0  0  0  0  0  0  0  0
   37.6500   24.8450   40.1140 H   0  0  0  0  0  0  0  0  0  0  0  0
   35.8120   24.9670   40.0060 H   0  0  0  0  0  0  0  0  0  0  0  0
   36.8500   24.2630   37.9170 H   0  0  0  0  0  0  0  0  0  0  0  0
   37.7750   25.8560   37.9120 H   0  0  0  0  0  0  0  0  0  0  0  0
   35.8850   26.2360   36.5400 H   0  0  0  0  0  0  0  0  0  0  0  0
   34.7910   25.2360   37.4950 H   0  0  0  0  0  0  0  0  0  0  0  0
   34.8880   27.9960   37.5430 H   0  0  0  0  0  0  0  0  0  0  0  0
   34.2210   26.9400   38.8590 H   0  0  0  0  0  0  0  0  0  0  0  0
   36.8180   28.4570   38.7550 H   0  0  0  0  0  0  0  0  0  0  0  0
   38.0630   27.4420   43.5190 C   0  0  0  0  0  0  0  0  0  0  0  0
   37.2390   26.9350   42.4950 C   0  0  0  0  0  0  0  0  0  0  0  0
   37.5780   27.2610   41.1650 C   0  0  0  0  0  0  0  0  0  0  0  0
   38.6780   28.0460   40.9530 N   0  0  0  0  0  0  0  0  0  0  0  0
   39.4310   28.5030   41.9820 C   0  0  0  0  0  0  0  0  0  0  0  0
   39.1160   28.1960   43.2700 N   0  0  0  0  0  0  0  0  0  0  0  0
   37.7320   27.1440   44.5060 H   0  0  0  0  0  0  0  0  0  0  0  0
   36.3670   26.3130   42.6510 H   0  0  0  0  0  0  0  0  0  0  0  0
   40.2950   29.1180   41.8190 H   0  0  0  0  0  0  0  0  0  0  0  0
   35.3550   28.6000   40.1740 O   0  0  0  0  0  0  0  0  0  0  0  0
   34.8310   31.3960   41.2130 H   0  0  0  0  0  0  0  0  0  0  0  0
   35.5610   30.6760   41.0490 N   0  0  0  0  0  0  0  0  0  0  0  0
   36.8980   31.1850   41.0820 C   0  0  0  0  0  2  0  0  0  0  0  0
   37.1700   31.5280   39.6330 C   0  0  0  0  0  2  0  0  0  0  0  0
   36.5940   30.2900   38.9480 C   0  0  0  0  0  2  0  0  0  0  0  0
   35.3860   29.9360   39.8050 C   0  0  1  0  0  3  0  0  0  0  0  0
  1 18  1  0  0  0  0
  2  8  1  0  0  0  0
  2  1  1  0  0  0  0
  2  7  1  0  0  0  0
  3  2  1  0  0  0  0
  4  3  1  0  0  0  0
  4  5  1  0  0  0  0
  5 14  1  0  0  0  0
  5  6  1  0  0  0  0
  6 15  1  6  0  0  0
  6  1  1  0  0  0  0
  6 25  1  0  0  0  0
  9  3  1  0  0  0  0
 10  3  1  0  0  0  0
 11  4  1  0  0  0  0
 12  4  1  0  0  0  0
 13  5  1  0  0  0  0
 16 22  1  0  0  0  0
 17 23  1  0  0  0  0
 17 16  2  0  0  0  0
 18 17  1  0  0  0  0
 19 18  2  0  0  0  0
 19 20  1  0  0  0  0
 20 21  2  0  0  0  0
 21 16  1  0  0  0  0
 24 20  1  0  0  0  0
 27 28  1  0  0  0  0
 27 26  1  0  0  0  0
 29 28  1  0  0  0  0
 30 29  1  0  0  0  0
 30 31  1  0  0  0  0
 31 25  1  1  0  0  0
 31 27  1  0  0  0  0
M  END
>  <minimizedAffinity>
-4.56750202

$$$$

 OpenBabel03252502253D

 31 33  0  0  1  0  0  0  0  0999 V2000
   38.3100   30.6870   39.6460 N   0  0  0  0  0  0  0  0  0  0  0  0
   38.5700   31.8260   38.7910 C   0  0  0  0  0  0  0  0  0  0  0  0
   40.0550   32.1170   38.9740 C   0  0  0  0  0  0  0  0  0  0  0  0
   40.3410   32.5310   40.3940 C   0  0  0  0  0  0  0  0  0  0  0  0
   39.5890   31.7770   41.4240 C   0  0  0  0  0  0  0  0  0  0  0  0
   38.8850   30.5500   40.9560 C   0  0  1  0  0  0  0  0  0  0  0  0
   38.3950   31.5900   37.7230 H   0  0  0  0  0  0  0  0  0  0  0  0
   38.0250   32.6930   39.1560 H   0  0  0  0  0  0  0  0  0  0  0  0
   40.2850   32.9720   38.2910 H   0  0  0  0  0  0  0  0  0  0  0  0
   40.5880   31.1980   38.6840 H   0  0  0  0  0  0  0  0  0  0  0  0
   41.4340   32.3940   40.5420 H   0  0  0  0  0  0  0  0  0  0  0  0
   40.1910   33.6450   40.5050 H   0  0  0  0  0  0  0  0  0  0  0  0
   40.2680   31.5190   42.2680 H   0  0  0  0  0  0  0  0  0  0  0  0
   38.7880   32.4680   41.8210 H   0  0  0  0  0  0  0  0  0  0  0  0
   39.6180   29.7050   40.9690 H   0  0  0  0  0  0  0  0  0  0  0  0
   35.3400   28.7440   38.4450 C   0  0  0  0  0  0  0  0  0  0  0  0
   36.0980   29.8540   38.8650 C   0  0  0  0  0  0  0  0  0  0  0  0
   37.4480   29.6280   39.2070 C   0  0  0  0  0  0  0  0  0  0  0  0
   37.9350   28.3540   39.1110 N   0  0  0  0  0  0  0  0  0  0  0  0
   37.1530   27.3270   38.6990 C   0  0  0  0  0  0  0  0  0  0  0  0
   35.8490   27.5300   38.3660 N   0  0  0  0  0  0  0  0  0  0  0  0
   34.3180   29.0050   38.2030 H   0  0  0  0  0  0  0  0  0  0  0  0
   35.7250   30.8660   38.9450 H   0  0  0  0  0  0  0  0  0  0  0  0
   37.5320   26.3260   38.6220 H   0  0  0  0  0  0  0  0  0  0  0  0
   37.8740   30.2470   41.8820 O   0  0  0  0  0  0  0  0  0  0  0  0
   37.1520   29.3390   44.6800 H   0  0  0  0  0  0  0  0  0  0  0  0
   37.1760   29.0630   43.6790 N   0  0  0  0  0  0  0  0  0  0  0  0
   37.0570   27.6540   43.4620 C   0  0  0  0  0  2  0  0  0  0  0  0
   38.4970   27.1880   43.4350 C   0  0  0  0  0  2  0  0  0  0  0  0
   39.1200   28.2800   42.5660 C   0  0  0  0  0  2  0  0  0  0  0  0
   38.3580   29.5360   42.9690 C   0  0  1  0  0  3  0  0  0  0  0  0
  1  6  1  0  0  0  0
  2  3  1  0  0  0  0
  2  8  1  0  0  0  0
  2  1  1  0  0  0  0
  3  4  1  0  0  0  0
  4 12  1  0  0  0  0
  4 11  1  0  0  0  0
  4  5  1  0  0  0  0
  5 14  1  0  0  0  0
  5 13  1  0  0  0  0
  6 15  1  6  0  0  0
  6  5  1  0  0  0  0
  6 25  1  0  0  0  0
  7  2  1  0  0  0  0
  9  3  1  0  0  0  0
 10  3  1  0  0  0  0
 16 17  1  0  0  0  0
 17 23  1  0  0  0  0
 17 18  2  0  0  0  0
 18  1  1  0  0  0  0
 19 18  1  0  0  0  0
 20 19  2  0  0  0  0
 21 16  2  0  0  0  0
 21 20  1  0  0  0  0
 22 16  1  0  0  0  0
 24 20  1  0  0  0  0
 27 26  1  0  0  0  0
 28 27  1  0  0  0  0
 29 28  1  0  0  0  0
 30 31  1  0  0  0  0
 30 29  1  0  0  0  0
 31 25  1  6  0  0  0
 31 27  1  0  0  0  0
M  END
>  <minimizedAffinity>
-4.5358882

$$$$

 OpenBabel03252502253D

 31 33  0  0  1  0  0  0  0  0999 V2000
   36.4340   28.8970   40.0920 N   0  0  0  0  0  0  0  0  0  0  0  0
   35.0030   29.0950   39.9930 C   0  0  0  0  0  0  0  0  0  0  0  0
   34.6400   28.6090   38.5950 C   0  0  0  0  0  0  0  0  0  0  0  0
   35.2990   29.4720   37.5490 C   0  0  0  0  0  0  0  0  0  0  0  0
   36.6860   29.8830   37.8680 C   0  0  0  0  0  0  0  0  0  0  0  0
   37.3350   29.1770   39.0090 C   0  0  1  0  0  0  0  0  0  0  0  0
   34.4480   28.4770   40.7260 H   0  0  0  0  0  0  0  0  0  0  0  0
   34.7740   30.1560   40.0350 H   0  0  0  0  0  0  0  0  0  0  0  0
   33.5310   28.7180   38.5110 H   0  0  0  0  0  0  0  0  0  0  0  0
   34.9600   27.5570   38.5410 H   0  0  0  0  0  0  0  0  0  0  0  0
   35.2810   28.8830   36.6070 H   0  0  0  0  0  0  0  0  0  0  0  0
   34.6450   30.3640   37.3220 H   0  0  0  0  0  0  0  0  0  0  0  0
   37.3220   29.7860   36.9580 H   0  0  0  0  0  0  0  0  0  0  0  0
   36.6510   30.9760   38.1520 H   0  0  0  0  0  0  0  0  0  0  0  0
   37.7770   28.2260   38.6200 H   0  0  0  0  0  0  0  0  0  0  0  0
   37.9540   26.6700   42.6930 C   0  0  0  0  0  0  0  0  0  0  0  0
   37.3860   27.0500   41.4620 C   0  0  0  0  0  0  0  0  0  0  0  0
   37.0190   28.4030   41.3040 C   0  0  0  0  0  0  0  0  0  0  0  0
   37.2340   29.2570   42.3510 N   0  0  0  0  0  0  0  0  0  0  0  0
   37.7850   28.8290   43.5120 C   0  0  0  0  0  0  0  0  0  0  0  0
   38.1450   27.5260   43.6780 N   0  0  0  0  0  0  0  0  0  0  0  0
   38.2050   25.6170   42.7290 H   0  0  0  0  0  0  0  0  0  0  0  0
   37.2110   26.3840   40.6270 H   0  0  0  0  0  0  0  0  0  0  0  0
   37.9560   29.4950   44.3350 H   0  0  0  0  0  0  0  0  0  0  0  0
   38.3910   29.9770   39.4730 O   0  0  0  0  0  0  0  0  0  0  0  0
   36.9950   32.3580   40.7200 H   0  0  0  0  0  0  0  0  0  0  0  0
   37.9020   31.8620   40.6240 N   0  0  0  0  0  0  0  0  0  0  0  0
   39.0370   32.6480   41.0010 C   0  0  0  0  0  2  0  0  0  0  0  0
   39.4590   33.2890   39.6960 C   0  0  0  0  0  2  0  0  0  0  0  0
   39.3470   32.0900   38.7560 C   0  0  0  0  0  2  0  0  0  0  0  0
   38.1410   31.3280   39.2890 C   0  0  1  0  0  3  0  0  0  0  0  0
  1 18  1  0  0  0  0
  2  8  1  0  0  0  0
  2  1  1  0  0  0  0
  2  7  1  0  0  0  0
  3  2  1  0  0  0  0
  4  5  1  0  0  0  0
  4  3  1  0  0  0  0
  5 14  1  0  0  0  0
  5  6  1  0  0  0  0
  6 15  1  6  0  0  0
  6 25  1  0  0  0  0
  6  1  1  0  0  0  0
  9  3  1  0  0  0  0
 10  3  1  0  0  0  0
 11  4  1  0  0  0  0
 12  4  1  0  0  0  0
 13  5  1  0  0  0  0
 16 22  1  0  0  0  0
 16 21  1  0  0  0  0
 17 16  2  0  0  0  0
 18 17  1  0  0  0  0
 18 19  2  0  0  0  0
 19 20  1  0  0  0  0
 20 21  2  0  0  0  0
 20 24  1  0  0  0  0
 23 17  1  0  0  0  0
 27 26  1  0  0  0  0
 27 28  1  0  0  0  0
 29 28  1  0  0  0  0
 30 31  1  0  0  0  0
 30 29  1  0  0  0  0
 31 25  1  1  0  0  0
 31 27  1  0  0  0  0
M  END
>  <minimizedAffinity>
-4.51345634

$$$$

 OpenBabel03252502253D

 31 33  0  0  1  0  0  0  0  0999 V2000
   38.3000   28.6490   41.0890 N   0  0  0  0  0  0  0  0  0  0  0  0
   38.9100   27.3480   41.2720 C   0  0  0  0  0  0  0  0  0  0  0  0
   39.3260   27.3160   42.7370 C   0  0  0  0  0  0  0  0  0  0  0  0
   40.3770   28.3610   43.0100 C   0  0  0  0  0  0  0  0  0  0  0  0
   40.1640   29.6520   42.3150 C   0  0  0  0  0  0  0  0  0  0  0  0
   38.8280   29.8450   41.6830 C   0  0  1  0  0  0  0  0  0  0  0  0
   38.1880   26.5240   41.1010 H   0  0  0  0  0  0  0  0  0  0  0  0
   39.8180   27.2800   40.6780 H   0  0  0  0  0  0  0  0  0  0  0  0
   39.7660   26.3030   42.9090 H   0  0  0  0  0  0  0  0  0  0  0  0
   38.4070   27.4750   43.3230 H   0  0  0  0  0  0  0  0  0  0  0  0
   40.3800   28.5150   44.1110 H   0  0  0  0  0  0  0  0  0  0  0  0
   41.4010   27.9390   42.7930 H   0  0  0  0  0  0  0  0  0  0  0  0
   40.3700   30.4920   43.0170 H   0  0  0  0  0  0  0  0  0  0  0  0
   40.9200   29.7060   41.4770 H   0  0  0  0  0  0  0  0  0  0  0  0
   38.1270   30.2280   42.4670 H   0  0  0  0  0  0  0  0  0  0  0  0
   34.7570   29.1630   39.9870 C   0  0  0  0  0  0  0  0  0  0  0  0
   35.8520   29.0370   40.8630 C   0  0  0  0  0  0  0  0  0  0  0  0
   37.1180   28.7930   40.2900 C   0  0  0  0  0  0  0  0  0  0  0  0
   37.2040   28.6960   38.9290 N   0  0  0  0  0  0  0  0  0  0  0  0
   36.1110   28.8280   38.1390 C   0  0  0  0  0  0  0  0  0  0  0  0
   34.8830   29.0630   38.6780 N   0  0  0  0  0  0  0  0  0  0  0  0
   33.8250   29.3480   40.5080 H   0  0  0  0  0  0  0  0  0  0  0  0
   35.7970   29.1120   41.9410 H   0  0  0  0  0  0  0  0  0  0  0  0
   36.1740   28.7530   37.0710 H   0  0  0  0  0  0  0  0  0  0  0  0
   38.9500   30.8410   40.7010 O   0  0  0  0  0  0  0  0  0  0  0  0
   39.0730   33.5010   42.1440 H   0  0  0  0  0  0  0  0  0  0  0  0
   39.1690   33.0320   41.2230 N   0  0  0  0  0  0  0  0  0  0  0  0
   39.1130   33.9240   40.1060 C   0  0  0  0  0  2  0  0  0  0  0  0
   37.6430   33.9290   39.7440 C   0  0  0  0  0  2  0  0  0  0  0  0
   37.3350   32.4350   39.8410 C   0  0  0  0  0  2  0  0  0  0  0  0
   38.1990   31.9660   41.0040 C   0  0  1  0  0  3  0  0  0  0  0  0
  1  2  1  0  0  0  0
  1  6  1  0  0  0  0
  2  3  1  0  0  0  0
  3  9  1  0  0  0  0
  3  4  1  0  0  0  0
  3 10  1  0  0  0  0
  4 11  1  0  0  0  0
  5  4  1  0  0  0  0
  5 13  1  0  0  0  0
  6  5  1  0  0  0  0
  6 15  1  1  0  0  0
  7  2  1  0  0  0  0
  8  2  1  0  0  0  0
 12  4  1  0  0  0  0
 14  5  1  0  0  0  0
 16 22  1  0  0  0  0
 16 17  1  0  0  0  0
 17 23  1  0  0  0  0
 18 17  2  0  0  0  0
 18  1  1  0  0  0  0
 19 18  1  0  0  0  0
 20 21  1  0  0  0  0
 20 19  2  0  0  0  0
 21 16  2  0  0  0  0
 24 20  1  0  0  0  0
 25  6  1  0  0  0  0
 27 26  1  0  0  0  0
 28 27  1  0  0  0  0
 29 30  1  0  0  0  0
 29 28  1  0  0  0  0
 30 31  1  0  0  0  0
 31 25  1  6  0  0  0
 31 27  1  0  0  0  0
M  END
>  <minimizedAffinity>
-4.50829077

$$$$
