
 OpenBabel03252508493D

 25 27  0  0  0  0  0  0  0  0999 V2000
   45.9610   34.1390   41.0360 C   0  0  0  0  0  0  0  0  0  0  0  0
   46.5400   34.8120   42.1330 C   0  0  0  0  0  0  0  0  0  0  0  0
   47.8690   35.2190   41.9990 C   0  0  0  0  0  0  0  0  0  0  0  0
   48.5190   34.9420   40.8240 N   0  0  0  0  0  0  0  0  0  0  0  0
   47.9280   34.3020   39.8170 C   0  0  0  0  0  0  0  0  0  0  0  0
   46.6460   33.8990   39.9210 N   0  0  0  0  0  0  0  0  0  0  0  0
   48.3420   35.7400   42.8260 H   0  0  0  0  0  0  0  0  0  0  0  0
   48.4340   34.0790   38.8860 H   0  0  0  0  0  0  0  0  0  0  0  0
   45.7580   35.0540   43.3330 C   0  0  0  0  0  0  0  0  0  0  0  0
   45.0450   36.2090   43.5540 C   0  0  0  0  0  0  0  0  0  0  0  0
   44.4750   35.9970   44.7940 C   0  0  0  0  0  0  0  0  0  0  0  0
   44.8210   34.7850   45.2940 N   0  0  0  0  0  0  0  0  0  0  0  0
   45.5970   34.2380   44.3900 N   0  0  0  0  0  0  0  0  0  0  0  0
   44.9320   37.0980   42.9310 H   0  0  0  0  0  0  0  0  0  0  0  0
   43.8230   36.7080   45.3200 H   0  0  0  0  0  0  0  0  0  0  0  0
   44.4990   34.4210   46.2230 H   0  0  0  0  0  0  0  0  0  0  0  0
   44.6530   33.7330   41.1580 O   0  0  0  0  0  0  0  0  0  0  0  0
   43.5680   34.3280   40.5690 C   0  0  0  0  0  0  0  0  0  0  0  0
   43.2300   35.5560   40.5920 O   0  0  0  0  0  0  0  0  0  0  0  0
   42.4760   33.8700   39.7700 N   0  0  0  0  0  0  0  0  0  0  0  0
   41.1360   34.0740   40.2870 C   0  0  0  0  0  2  0  0  0  0  0  0
   40.4120   32.8990   39.6260 C   0  0  0  0  0  2  0  0  0  0  0  0
   40.9630   33.0870   38.2060 C   0  0  0  0  0  2  0  0  0  0  0  0
   42.4410   33.2190   38.4980 C   0  0  0  0  0  3  0  0  0  0  0  0
   42.9960   33.7760   37.7120 H   0  0  0  0  0  0  0  0  0  0  0  0
  1 17  1  0  0  0  0
  1  2  1  0  0  0  0
  2  9  1  0  0  0  0
  3  2  2  0  0  0  0
  3  7  1  0  0  0  0
  4  3  1  0  0  0  0
  5  6  1  0  0  0  0
  5  4  2  0  0  0  0
  6  1  2  0  0  0  0
  8  5  1  0  0  0  0
  9 10  1  0  0  0  0
  9 13  2  0  0  0  0
 10 11  2  0  0  0  0
 11 12  1  0  0  0  0
 11 15  1  0  0  0  0
 12 16  1  0  0  0  0
 13 12  1  0  0  0  0
 14 10  1  0  0  0  0
 18 19  2  0  0  0  0
 18 17  1  0  0  0  0
 20 21  1  0  0  0  0
 20 18  1  0  0  0  0
 22 21  1  0  0  0  0
 23 24  1  0  0  0  0
 23 22  1  0  0  0  0
 24 20  1  0  0  0  0
 25 24  1  0  0  0  0
M  END
>  <minimizedAffinity>
-5.35584688

>  <minimizedRMSD>
0.314399749

$$$$
