
 OpenBabel03252507103D

 33 35  0  0  1  0  0  0  0  0999 V2000
   37.6060   27.6030   43.6800 C   0  0  0  0  0  0  0  0  0  0  0  0
   37.8230   28.9060   43.1980 C   0  0  0  0  0  0  0  0  0  0  0  0
   37.9950   29.0500   41.8210 C   0  0  0  0  0  0  0  0  0  0  0  0
   37.9460   27.9590   41.0310 N   0  0  0  0  0  0  0  0  0  0  0  0
   37.7380   26.7290   41.5120 C   0  0  0  0  0  0  0  0  0  0  0  0
   37.5660   26.5510   42.8480 N   0  0  0  0  0  0  0  0  0  0  0  0
   37.4690   27.4690   44.7590 H   0  0  0  0  0  0  0  0  0  0  0  0
   37.8600   29.7710   43.8490 H   0  0  0  0  0  0  0  0  0  0  0  0
   37.1560   24.2890   41.4030 C   0  0  1  0  0  0  0  0  0  0  0  0
   37.6860   25.5020   40.7000 C   0  0  1  0  0  0  0  0  0  0  0  0
   36.5960   25.6420   39.6180 C   0  0  0  0  0  0  0  0  0  0  0  0
   36.1440   24.3920   39.3460 O   0  0  0  0  0  0  0  0  0  0  0  0
   36.7690   23.4660   40.1770 C   0  0  0  0  0  0  0  0  0  0  0  0
   36.2020   24.5810   41.8930 H   0  0  0  0  0  0  0  0  0  0  0  0
   38.6510   25.2660   40.2130 H   0  0  0  0  0  0  0  0  0  0  0  0
   37.1300   26.0380   38.7200 H   0  0  0  0  0  0  0  0  0  0  0  0
   35.8410   26.4000   39.8920 H   0  0  0  0  0  0  0  0  0  0  0  0
   37.6270   22.9660   39.7290 H   0  0  0  0  0  0  0  0  0  0  0  0
   35.9660   22.7590   40.5280 H   0  0  0  0  0  0  0  0  0  0  0  0
   38.0430   23.6780   42.2400 O   0  0  0  0  0  0  0  0  0  0  0  0
   37.6150   23.6110   43.1320 H   0  0  0  0  0  0  0  0  0  0  0  0
   38.2070   30.3370   41.3610 O   0  0  0  0  0  0  0  0  0  0  0  0
   36.7900   30.5500   39.1210 O   0  0  0  0  0  0  0  0  0  0  0  0
   36.9600   31.1580   40.5190 P   0  0  1  0  0  0  0  0  0  0  0  0
   35.5610   31.0460   41.4100 O   0  0  0  0  0  0  0  0  0  0  0  0
   34.9580   30.3780   40.9530 H   0  0  0  0  0  0  0  0  0  0  0  0
   37.4710   32.7560   40.3350 O   0  0  0  0  0  0  0  0  0  0  0  0
   38.9590   32.2060   38.4580 H   0  0  0  0  0  0  0  0  0  0  0  0
   39.4570   31.9620   39.3490 N   0  0  0  0  0  0  0  0  0  0  0  0
   40.8240   32.4290   39.2660 C   0  0  0  0  0  2  0  0  0  0  0  0
   40.8750   33.8150   39.8570 C   0  0  0  0  0  2  0  0  0  0  0  0
   39.3880   34.1610   40.0140 C   0  0  0  0  0  2  0  0  0  0  0  0
   38.8600   32.7710   40.3950 C   0  0  1  0  0  3  0  0  0  0  0  0
  1  7  1  0  0  0  0
  2  1  1  0  0  0  0
  2  8  1  0  0  0  0
  3  2  2  0  0  0  0
  4  5  2  0  0  0  0
  4  3  1  0  0  0  0
  5  6  1  0  0  0  0
  6  1  2  0  0  0  0
  9 14  1  1  0  0  0
  9 20  1  0  0  0  0
 10 15  1  6  0  0  0
 10  9  1  0  0  0  0
 10  5  1  0  0  0  0
 11 17  1  0  0  0  0
 11 10  1  0  0  0  0
 12 11  1  0  0  0  0
 12 13  1  0  0  0  0
 13 19  1  0  0  0  0
 13  9  1  0  0  0  0
 16 11  1  0  0  0  0
 18 13  1  0  0  0  0
 20 21  1  0  0  0  0
 22  3  1  0  0  0  0
 24 23  2  6  0  0  0
 24 22  1  0  0  0  0
 24 25  1  0  0  0  0
 26 25  1  0  0  0  0
 27 24  1  0  0  0  0
 28 29  1  0  0  0  0
 29 33  1  0  0  0  0
 30 29  1  0  0  0  0
 30 31  1  0  0  0  0
 31 32  1  0  0  0  0
 32 33  1  0  0  0  0
 33 27  1  6  0  0  0
M  END
>  <minimizedAffinity>
-5.65477085

$$$$

 OpenBabel03252507103D

 33 35  0  0  1  0  0  0  0  0999 V2000
   38.1680   24.6540   42.0600 C   0  0  0  0  0  0  0  0  0  0  0  0
   37.1450   25.6100   41.9320 C   0  0  0  0  0  0  0  0  0  0  0  0
   37.4140   26.8920   42.4120 C   0  0  0  0  0  0  0  0  0  0  0  0
   38.6150   27.1520   42.9640 N   0  0  0  0  0  0  0  0  0  0  0  0
   39.5730   26.2270   43.0760 C   0  0  0  0  0  0  0  0  0  0  0  0
   39.3460   24.9680   42.6190 N   0  0  0  0  0  0  0  0  0  0  0  0
   37.9760   23.6410   41.6900 H   0  0  0  0  0  0  0  0  0  0  0  0
   36.1850   25.3820   41.4840 H   0  0  0  0  0  0  0  0  0  0  0  0
   42.0560   25.8880   42.9130 C   0  0  1  0  0  0  0  0  0  0  0  0
   40.8970   26.4510   43.6800 C   0  0  1  0  0  0  0  0  0  0  0  0
   41.2610   27.9480   43.5920 C   0  0  0  0  0  0  0  0  0  0  0  0
   42.6140   28.0240   43.5400 O   0  0  0  0  0  0  0  0  0  0  0  0
   43.1650   26.7460   43.5160 C   0  0  0  0  0  0  0  0  0  0  0  0
   41.9470   26.2210   41.8580 H   0  0  0  0  0  0  0  0  0  0  0  0
   40.9500   26.1270   44.7360 H   0  0  0  0  0  0  0  0  0  0  0  0
   40.9090   28.3860   44.5580 H   0  0  0  0  0  0  0  0  0  0  0  0
   40.6990   28.4600   42.7920 H   0  0  0  0  0  0  0  0  0  0  0  0
   43.4900   26.3760   44.4880 H   0  0  0  0  0  0  0  0  0  0  0  0
   43.9860   26.7670   42.7450 H   0  0  0  0  0  0  0  0  0  0  0  0
   42.2380   24.5440   43.0520 O   0  0  0  0  0  0  0  0  0  0  0  0
   42.2510   24.1480   42.1440 H   0  0  0  0  0  0  0  0  0  0  0  0
   36.3990   27.8220   42.2770 O   0  0  0  0  0  0  0  0  0  0  0  0
   37.1740   28.4680   39.8160 O   0  0  0  0  0  0  0  0  0  0  0  0
   36.5110   29.0410   41.0770 P   0  0  1  0  0  0  0  0  0  0  0  0
   34.9820   29.6090   40.7590 O   0  0  0  0  0  0  0  0  0  0  0  0
   34.6950   29.2380   39.8650 H   0  0  0  0  0  0  0  0  0  0  0  0
   37.5210   30.2420   41.6980 O   0  0  0  0  0  0  0  0  0  0  0  0
   36.5280   32.4830   41.5080 H   0  0  0  0  0  0  0  0  0  0  0  0
   36.7460   32.1420   40.5400 N   0  0  0  0  0  0  0  0  0  0  0  0
   37.3650   33.2150   39.7930 C   0  0  0  0  0  2  0  0  0  0  0  0
   38.8590   33.0880   39.9540 C   0  0  0  0  0  2  0  0  0  0  0  0
   38.9830   32.0330   41.0610 C   0  0  0  0  0  2  0  0  0  0  0  0
   37.7920   31.1450   40.6760 C   0  0  1  0  0  3  0  0  0  0  0  0
  1  6  1  0  0  0  0
  2  1  2  0  0  0  0
  2  3  1  0  0  0  0
  3  4  2  0  0  0  0
  4  5  1  0  0  0  0
  5 10  1  0  0  0  0
  6  5  2  0  0  0  0
  7  1  1  0  0  0  0
  8  2  1  0  0  0  0
  9 14  1  6  0  0  0
  9 20  1  0  0  0  0
  9 13  1  0  0  0  0
  9 10  1  0  0  0  0
 10 15  1  1  0  0  0
 11 10  1  0  0  0  0
 11 16  1  0  0  0  0
 12 11  1  0  0  0  0
 13 12  1  0  0  0  0
 13 18  1  0  0  0  0
 17 11  1  0  0  0  0
 19 13  1  0  0  0  0
 21 20  1  0  0  0  0
 22  3  1  0  0  0  0
 24 23  2  6  0  0  0
 24 27  1  0  0  0  0
 24 22  1  0  0  0  0
 25 24  1  0  0  0  0
 26 25  1  0  0  0  0
 29 33  1  0  0  0  0
 29 28  1  0  0  0  0
 30 31  1  0  0  0  0
 30 29  1  0  0  0  0
 31 32  1  0  0  0  0
 33 32  1  0  0  0  0
 33 27  1  1  0  0  0
M  END
>  <minimizedAffinity>
-5.63168144

$$$$

 OpenBabel03252507103D

 33 35  0  0  1  0  0  0  0  0999 V2000
   37.4300   28.6890   43.4110 C   0  0  0  0  0  0  0  0  0  0  0  0
   38.5230   27.8460   43.6770 C   0  0  0  0  0  0  0  0  0  0  0  0
   39.5780   27.8710   42.7640 C   0  0  0  0  0  0  0  0  0  0  0  0
   39.5030   28.6840   41.6910 N   0  0  0  0  0  0  0  0  0  0  0  0
   38.4530   29.4760   41.4580 C   0  0  0  0  0  0  0  0  0  0  0  0
   37.4070   29.4780   42.3270 N   0  0  0  0  0  0  0  0  0  0  0  0
   36.5910   28.6820   44.1170 H   0  0  0  0  0  0  0  0  0  0  0  0
   38.5660   27.2000   44.5460 H   0  0  0  0  0  0  0  0  0  0  0  0
   37.6390   31.6830   40.5800 C   0  0  1  0  0  0  0  0  0  0  0  0
   38.3120   30.3740   40.2990 C   0  0  1  0  0  0  0  0  0  0  0  0
   39.6990   30.9050   39.8830 C   0  0  0  0  0  0  0  0  0  0  0  0
   39.5030   32.1210   39.3150 O   0  0  0  0  0  0  0  0  0  0  0  0
   38.1560   32.4670   39.3760 C   0  0  0  0  0  0  0  0  0  0  0  0
   38.1340   32.1260   41.4720 H   0  0  0  0  0  0  0  0  0  0  0  0
   37.8370   29.8830   39.4290 H   0  0  0  0  0  0  0  0  0  0  0  0
   40.0580   30.1920   39.1010 H   0  0  0  0  0  0  0  0  0  0  0  0
   40.4240   30.8510   40.7130 H   0  0  0  0  0  0  0  0  0  0  0  0
   37.5920   32.2480   38.4690 H   0  0  0  0  0  0  0  0  0  0  0  0
   38.1180   33.5500   39.6800 H   0  0  0  0  0  0  0  0  0  0  0  0
   36.2800   31.6220   40.6760 O   0  0  0  0  0  0  0  0  0  0  0  0
   36.0240   32.0170   41.5480 H   0  0  0  0  0  0  0  0  0  0  0  0
   40.6480   27.0390   43.0390 O   0  0  0  0  0  0  0  0  0  0  0  0
   40.7040   25.4920   40.8770 O   0  0  0  0  0  0  0  0  0  0  0  0
   40.6730   25.4450   42.4110 P   0  0  1  0  0  0  0  0  0  0  0  0
   42.0020   24.6580   43.0260 O   0  0  0  0  0  0  0  0  0  0  0  0
   42.6880   24.5900   42.2890 H   0  0  0  0  0  0  0  0  0  0  0  0
   39.2260   24.7150   42.8830 O   0  0  0  0  0  0  0  0  0  0  0  0
   38.4140   22.5160   42.1430 H   0  0  0  0  0  0  0  0  0  0  0  0
   38.5440   23.1170   41.2920 N   0  0  0  0  0  0  0  0  0  0  0  0
   37.3990   22.9540   40.4230 C   0  0  0  0  0  2  0  0  0  0  0  0
   36.3960   24.0230   40.7750 C   0  0  0  0  0  2  0  0  0  0  0  0
   36.9710   24.5990   42.0750 C   0  0  0  0  0  2  0  0  0  0  0  0
   38.4650   24.4950   41.7400 C   0  0  1  0  0  3  0  0  0  0  0  0
  1  2  1  0  0  0  0
  1  7  1  0  0  0  0
  2  8  1  0  0  0  0
  3 22  1  0  0  0  0
  3  2  2  0  0  0  0
  4  3  1  0  0  0  0
  5  4  2  0  0  0  0
  5  6  1  0  0  0  0
  6  1  2  0  0  0  0
  9 20  1  0  0  0  0
  9 14  1  1  0  0  0
 10 15  1  6  0  0  0
 10  9  1  0  0  0  0
 10  5  1  0  0  0  0
 11 10  1  0  0  0  0
 11 17  1  0  0  0  0
 12 13  1  0  0  0  0
 12 11  1  0  0  0  0
 13 19  1  0  0  0  0
 13  9  1  0  0  0  0
 16 11  1  0  0  0  0
 18 13  1  0  0  0  0
 20 21  1  0  0  0  0
 24 23  2  6  0  0  0
 24 27  1  0  0  0  0
 24 25  1  0  0  0  0
 24 22  1  0  0  0  0
 26 25  1  0  0  0  0
 29 33  1  0  0  0  0
 29 28  1  0  0  0  0
 30 31  1  0  0  0  0
 30 29  1  0  0  0  0
 31 32  1  0  0  0  0
 33 32  1  0  0  0  0
 33 27  1  1  0  0  0
M  END
>  <minimizedAffinity>
-5.5699892

$$$$

 OpenBabel03252507103D

 33 35  0  0  1  0  0  0  0  0999 V2000
   38.2580   28.7240   43.4030 C   0  0  0  0  0  0  0  0  0  0  0  0
   38.1790   27.3230   43.4820 C   0  0  0  0  0  0  0  0  0  0  0  0
   37.6650   26.6550   42.3710 C   0  0  0  0  0  0  0  0  0  0  0  0
   37.2750   27.3660   41.2940 N   0  0  0  0  0  0  0  0  0  0  0  0
   37.3590   28.6990   41.2420 C   0  0  0  0  0  0  0  0  0  0  0  0
   37.8550   29.3830   42.3060 N   0  0  0  0  0  0  0  0  0  0  0  0
   38.6590   29.2670   44.2670 H   0  0  0  0  0  0  0  0  0  0  0  0
   38.4980   26.7680   44.3570 H   0  0  0  0  0  0  0  0  0  0  0  0
   36.9160   31.0040   40.3520 C   0  0  1  0  0  0  0  0  0  0  0  0
   36.9380   29.5270   40.0990 C   0  0  1  0  0  0  0  0  0  0  0  0
   38.0240   29.4910   39.0050 C   0  0  0  0  0  0  0  0  0  0  0  0
   37.9440   30.6650   38.3290 O   0  0  0  0  0  0  0  0  0  0  0  0
   36.9760   31.4830   38.9040 C   0  0  0  0  0  0  0  0  0  0  0  0
   37.8920   31.2770   40.8090 H   0  0  0  0  0  0  0  0  0  0  0  0
   35.9740   29.2040   39.6640 H   0  0  0  0  0  0  0  0  0  0  0  0
   37.7200   28.6590   38.3240 H   0  0  0  0  0  0  0  0  0  0  0  0
   39.0110   29.2150   39.4150 H   0  0  0  0  0  0  0  0  0  0  0  0
   36.0030   31.4420   38.4150 H   0  0  0  0  0  0  0  0  0  0  0  0
   37.4170   32.5180   38.9450 H   0  0  0  0  0  0  0  0  0  0  0  0
   35.8340   31.4510   41.0530 O   0  0  0  0  0  0  0  0  0  0  0  0
   36.1730   31.9540   41.8370 H   0  0  0  0  0  0  0  0  0  0  0  0
   37.5950   25.2760   42.4620 O   0  0  0  0  0  0  0  0  0  0  0  0
   39.8810   25.1830   41.1050 O   0  0  0  0  0  0  0  0  0  0  0  0
   38.9070   24.3170   41.9170 P   0  0  1  0  0  0  0  0  0  0  0  0
   39.6500   23.6400   43.2420 O   0  0  0  0  0  0  0  0  0  0  0  0
   40.5190   24.1310   43.3910 H   0  0  0  0  0  0  0  0  0  0  0  0
   38.2590   23.1500   40.8850 O   0  0  0  0  0  0  0  0  0  0  0  0
   37.9970   24.4570   38.8190 H   0  0  0  0  0  0  0  0  0  0  0  0
   37.2330   24.7400   39.4810 N   0  0  0  0  0  0  0  0  0  0  0  0
   35.9860   24.8160   38.7520 C   0  0  0  0  0  2  0  0  0  0  0  0
   35.3040   23.4750   38.8610 C   0  0  0  0  0  2  0  0  0  0  0  0
   36.4030   22.5960   39.4700 C   0  0  0  0  0  2  0  0  0  0  0  0
   37.0480   23.6320   40.4000 C   0  0  1  0  0  3  0  0  0  0  0  0
  1  2  1  0  0  0  0
  1  7  1  0  0  0  0
  2  8  1  0  0  0  0
  3 22  1  0  0  0  0
  3  2  2  0  0  0  0
  4  3  1  0  0  0  0
  5  4  2  0  0  0  0
  5  6  1  0  0  0  0
  6  1  2  0  0  0  0
  9 14  1  1  0  0  0
  9 20  1  0  0  0  0
 10 15  1  6  0  0  0
 10  9  1  0  0  0  0
 10  5  1  0  0  0  0
 11 17  1  0  0  0  0
 11 10  1  0  0  0  0
 12 13  1  0  0  0  0
 12 11  1  0  0  0  0
 13 19  1  0  0  0  0
 13  9  1  0  0  0  0
 16 11  1  0  0  0  0
 18 13  1  0  0  0  0
 20 21  1  0  0  0  0
 24 23  2  6  0  0  0
 24 22  1  0  0  0  0
 24 25  1  0  0  0  0
 25 26  1  0  0  0  0
 27 24  1  0  0  0  0
 28 29  1  0  0  0  0
 29 33  1  0  0  0  0
 30 31  1  0  0  0  0
 30 29  1  0  0  0  0
 31 32  1  0  0  0  0
 32 33  1  0  0  0  0
 33 27  1  6  0  0  0
M  END
>  <minimizedAffinity>
-5.257164

$$$$

 OpenBabel03252507103D

 33 35  0  0  1  0  0  0  0  0999 V2000
   35.6670   28.4820   40.5030 C   0  0  0  0  0  0  0  0  0  0  0  0
   35.6640   29.8680   40.2650 C   0  0  0  0  0  0  0  0  0  0  0  0
   36.6040   30.6300   40.9600 C   0  0  0  0  0  0  0  0  0  0  0  0
   37.4530   30.0180   41.8100 N   0  0  0  0  0  0  0  0  0  0  0  0
   37.4370   28.6980   42.0200 C   0  0  0  0  0  0  0  0  0  0  0  0
   36.5350   27.9250   41.3600 N   0  0  0  0  0  0  0  0  0  0  0  0
   34.9350   27.8660   39.9660 H   0  0  0  0  0  0  0  0  0  0  0  0
   34.9740   30.3420   39.5780 H   0  0  0  0  0  0  0  0  0  0  0  0
   38.7670   26.6200   42.4840 C   0  0  1  0  0  0  0  0  0  0  0  0
   38.3300   27.9780   42.9430 C   0  0  1  0  0  0  0  0  0  0  0  0
   39.7080   28.6710   42.9760 C   0  0  0  0  0  0  0  0  0  0  0  0
   40.6250   27.7150   43.2690 O   0  0  0  0  0  0  0  0  0  0  0  0
   40.0060   26.4710   43.3630 C   0  0  0  0  0  0  0  0  0  0  0  0
   39.1380   26.7260   41.4410 H   0  0  0  0  0  0  0  0  0  0  0  0
   37.9310   27.9190   43.9720 H   0  0  0  0  0  0  0  0  0  0  0  0
   39.6490   29.3900   43.8280 H   0  0  0  0  0  0  0  0  0  0  0  0
   39.8860   29.2740   42.0680 H   0  0  0  0  0  0  0  0  0  0  0  0
   39.7570   26.1670   44.3790 H   0  0  0  0  0  0  0  0  0  0  0  0
   40.6740   25.7420   42.8240 H   0  0  0  0  0  0  0  0  0  0  0  0
   37.8370   25.6340   42.6420 O   0  0  0  0  0  0  0  0  0  0  0  0
   37.7070   25.2020   41.7590 H   0  0  0  0  0  0  0  0  0  0  0  0
   36.5920   31.9910   40.7160 O   0  0  0  0  0  0  0  0  0  0  0  0
   38.2010   31.7500   38.6120 O   0  0  0  0  0  0  0  0  0  0  0  0
   37.8270   32.6980   39.7600 P   0  0  1  0  0  0  0  0  0  0  0  0
   37.2800   34.1610   39.1910 O   0  0  0  0  0  0  0  0  0  0  0  0
   37.0630   34.0490   38.2120 H   0  0  0  0  0  0  0  0  0  0  0  0
   39.1760   32.8670   40.7590 O   0  0  0  0  0  0  0  0  0  0  0  0
   40.0070   34.7460   39.4100 H   0  0  0  0  0  0  0  0  0  0  0  0
   40.2910   33.8550   38.9340 N   0  0  0  0  0  0  0  0  0  0  0  0
   41.6700   33.9680   38.5090 C   0  0  0  0  0  2  0  0  0  0  0  0
   42.5390   33.4180   39.6110 C   0  0  0  0  0  2  0  0  0  0  0  0
   41.5430   33.2530   40.7660 C   0  0  0  0  0  2  0  0  0  0  0  0
   40.3110   32.8250   39.9570 C   0  0  1  0  0  3  0  0  0  0  0  0
  1  6  1  0  0  0  0
  2  1  2  0  0  0  0
  2  3  1  0  0  0  0
  3  4  2  0  0  0  0
  4  5  1  0  0  0  0
  5 10  1  0  0  0  0
  6  5  2  0  0  0  0
  7  1  1  0  0  0  0
  8  2  1  0  0  0  0
  9 14  1  6  0  0  0
  9 20  1  0  0  0  0
  9 10  1  0  0  0  0
  9 13  1  0  0  0  0
 10 11  1  0  0  0  0
 10 15  1  1  0  0  0
 11 12  1  0  0  0  0
 11 16  1  0  0  0  0
 12 13  1  0  0  0  0
 13 18  1  0  0  0  0
 17 11  1  0  0  0  0
 19 13  1  0  0  0  0
 21 20  1  0  0  0  0
 22  3  1  0  0  0  0
 24 23  2  6  0  0  0
 24 22  1  0  0  0  0
 24 27  1  0  0  0  0
 25 24  1  0  0  0  0
 26 25  1  0  0  0  0
 29 28  1  0  0  0  0
 29 33  1  0  0  0  0
 30 29  1  0  0  0  0
 30 31  1  0  0  0  0
 31 32  1  0  0  0  0
 33 27  1  1  0  0  0
 33 32  1  0  0  0  0
M  END
>  <minimizedAffinity>
-5.25478315

$$$$

 OpenBabel03252507103D

 33 35  0  0  1  0  0  0  0  0999 V2000
   36.6260   31.4310   39.1610 C   0  0  0  0  0  0  0  0  0  0  0  0
   36.4440   30.8720   40.4380 C   0  0  0  0  0  0  0  0  0  0  0  0
   37.5560   30.2720   41.0290 C   0  0  0  0  0  0  0  0  0  0  0  0
   38.7290   30.2560   40.3660 N   0  0  0  0  0  0  0  0  0  0  0  0
   38.8780   30.7940   39.1510 C   0  0  0  0  0  0  0  0  0  0  0  0
   37.8160   31.3870   38.5450 N   0  0  0  0  0  0  0  0  0  0  0  0
   35.7630   31.9070   38.6790 H   0  0  0  0  0  0  0  0  0  0  0  0
   35.4930   30.8950   40.9570 H   0  0  0  0  0  0  0  0  0  0  0  0
   40.4880   32.1030   37.7380 C   0  0  1  0  0  0  0  0  0  0  0  0
   40.1300   30.7950   38.3760 C   0  0  1  0  0  0  0  0  0  0  0  0
   41.3330   30.6610   39.3320 C   0  0  0  0  0  0  0  0  0  0  0  0
   42.3830   31.2780   38.7360 O   0  0  0  0  0  0  0  0  0  0  0  0
   41.9810   31.8550   37.5340 C   0  0  0  0  0  0  0  0  0  0  0  0
   40.4100   32.8870   38.5230 H   0  0  0  0  0  0  0  0  0  0  0  0
   40.1730   29.9840   37.6250 H   0  0  0  0  0  0  0  0  0  0  0  0
   41.5380   29.5640   39.3840 H   0  0  0  0  0  0  0  0  0  0  0  0
   41.0790   30.9810   40.3570 H   0  0  0  0  0  0  0  0  0  0  0  0
   42.1810   31.2460   36.6530 H   0  0  0  0  0  0  0  0  0  0  0  0
   42.4550   32.8750   37.4960 H   0  0  0  0  0  0  0  0  0  0  0  0
   39.8000   32.3930   36.5960 O   0  0  0  0  0  0  0  0  0  0  0  0
   39.3800   33.2820   36.7190 H   0  0  0  0  0  0  0  0  0  0  0  0
   37.3640   29.7280   42.2860 O   0  0  0  0  0  0  0  0  0  0  0  0
   38.6010   27.4280   42.7910 O   0  0  0  0  0  0  0  0  0  0  0  0
   37.2260   28.0290   42.4690 P   0  0  1  0  0  0  0  0  0  0  0  0
   36.1250   27.7170   43.6750 O   0  0  0  0  0  0  0  0  0  0  0  0
   36.6380   27.4160   44.4900 H   0  0  0  0  0  0  0  0  0  0  0  0
   36.7250   27.4200   40.9770 O   0  0  0  0  0  0  0  0  0  0  0  0
   35.9450   25.4060   42.1490 H   0  0  0  0  0  0  0  0  0  0  0  0
   36.9690   25.2890   41.9510 N   0  0  0  0  0  0  0  0  0  0  0  0
   37.2020   23.9510   41.4540 C   0  0  0  0  0  2  0  0  0  0  0  0
   37.1240   23.9970   39.9480 C   0  0  0  0  0  2  0  0  0  0  0  0
   36.5640   25.4020   39.6910 C   0  0  0  0  0  2  0  0  0  0  0  0
   37.2760   26.1520   40.8250 C   0  0  1  0  0  3  0  0  0  0  0  0
  1  2  1  0  0  0  0
  2  8  1  0  0  0  0
  2  3  2  0  0  0  0
  3 22  1  0  0  0  0
  4  3  1  0  0  0  0
  5  4  2  0  0  0  0
  6  5  1  0  0  0  0
  6  1  2  0  0  0  0
  7  1  1  0  0  0  0
  9 10  1  0  0  0  0
  9 14  1  1  0  0  0
 10 15  1  6  0  0  0
 10  5  1  0  0  0  0
 10 11  1  0  0  0  0
 11 16  1  0  0  0  0
 11 17  1  0  0  0  0
 12 11  1  0  0  0  0
 13  9  1  0  0  0  0
 13 12  1  0  0  0  0
 18 13  1  0  0  0  0
 19 13  1  0  0  0  0
 20 21  1  0  0  0  0
 20  9  1  0  0  0  0
 22 24  1  0  0  0  0
 24 23  2  1  0  0  0
 24 25  1  0  0  0  0
 25 26  1  0  0  0  0
 27 24  1  0  0  0  0
 29 28  1  0  0  0  0
 30 29  1  0  0  0  0
 31 30  1  0  0  0  0
 32 31  1  0  0  0  0
 32 33  1  0  0  0  0
 33 27  1  1  0  0  0
 33 29  1  0  0  0  0
M  END
>  <minimizedAffinity>
-5.22830915

$$$$

 OpenBabel03252507103D

 33 35  0  0  1  0  0  0  0  0999 V2000
   40.5130   27.7860   42.9430 C   0  0  0  0  0  0  0  0  0  0  0  0
   39.5340   28.7950   42.9220 C   0  0  0  0  0  0  0  0  0  0  0  0
   38.2400   28.4120   42.5660 C   0  0  0  0  0  0  0  0  0  0  0  0
   37.9920   27.1220   42.2650 N   0  0  0  0  0  0  0  0  0  0  0  0
   38.9390   26.1800   42.2920 C   0  0  0  0  0  0  0  0  0  0  0  0
   40.2110   26.5160   42.6340 N   0  0  0  0  0  0  0  0  0  0  0  0
   41.5360   28.0670   43.2200 H   0  0  0  0  0  0  0  0  0  0  0  0
   39.7530   29.8270   43.1680 H   0  0  0  0  0  0  0  0  0  0  0  0
   37.3690   24.4210   41.4290 C   0  0  1  0  0  0  0  0  0  0  0  0
   38.7290   24.7610   41.9620 C   0  0  1  0  0  0  0  0  0  0  0  0
   39.5680   24.3860   40.7230 C   0  0  0  0  0  0  0  0  0  0  0  0
   38.9160   23.3770   40.0930 O   0  0  0  0  0  0  0  0  0  0  0  0
   37.7170   23.1010   40.7440 C   0  0  0  0  0  0  0  0  0  0  0  0
   37.1430   25.1420   40.6130 H   0  0  0  0  0  0  0  0  0  0  0  0
   38.9890   24.0800   42.7940 H   0  0  0  0  0  0  0  0  0  0  0  0
   40.5300   23.9950   41.1350 H   0  0  0  0  0  0  0  0  0  0  0  0
   39.8230   25.2730   40.1180 H   0  0  0  0  0  0  0  0  0  0  0  0
   37.7670   22.2720   41.4500 H   0  0  0  0  0  0  0  0  0  0  0  0
   36.9410   22.9640   39.9400 H   0  0  0  0  0  0  0  0  0  0  0  0
   36.3890   24.3300   42.3730 O   0  0  0  0  0  0  0  0  0  0  0  0
   35.6550   24.9390   42.1020 H   0  0  0  0  0  0  0  0  0  0  0  0
   37.2870   29.4140   42.5520 O   0  0  0  0  0  0  0  0  0  0  0  0
   35.5410   28.6410   40.7010 O   0  0  0  0  0  0  0  0  0  0  0  0
   36.4720   29.7970   41.0930 P   0  0  1  0  0  0  0  0  0  0  0  0
   35.6310   31.2130   41.3160 O   0  0  0  0  0  0  0  0  0  0  0  0
   34.6520   30.9790   41.3970 H   0  0  0  0  0  0  0  0  0  0  0  0
   37.6570   29.9410   39.9000 O   0  0  0  0  0  0  0  0  0  0  0  0
   39.1730   31.0640   41.4770 H   0  0  0  0  0  0  0  0  0  0  0  0
   38.5060   31.7820   41.1010 N   0  0  0  0  0  0  0  0  0  0  0  0
   39.2470   32.9780   40.7630 C   0  0  0  0  0  2  0  0  0  0  0  0
   39.6420   32.8820   39.3110 C   0  0  0  0  0  2  0  0  0  0  0  0
   39.2950   31.4270   38.9710 C   0  0  0  0  0  2  0  0  0  0  0  0
   38.0290   31.2790   39.8260 C   0  0  1  0  0  3  0  0  0  0  0  0
  1  7  1  0  0  0  0
  2  1  1  0  0  0  0
  2  8  1  0  0  0  0
  3  2  2  0  0  0  0
  4  5  2  0  0  0  0
  4  3  1  0  0  0  0
  5  6  1  0  0  0  0
  6  1  2  0  0  0  0
  9 14  1  6  0  0  0
  9 10  1  0  0  0  0
  9 20  1  0  0  0  0
 10  5  1  0  0  0  0
 10 15  1  1  0  0  0
 11 16  1  0  0  0  0
 11 10  1  0  0  0  0
 12 11  1  0  0  0  0
 12 13  1  0  0  0  0
 13  9  1  0  0  0  0
 13 18  1  0  0  0  0
 17 11  1  0  0  0  0
 19 13  1  0  0  0  0
 21 20  1  0  0  0  0
 22  3  1  0  0  0  0
 24 23  2  6  0  0  0
 24 25  1  0  0  0  0
 24 22  1  0  0  0  0
 25 26  1  0  0  0  0
 27 24  1  0  0  0  0
 29 28  1  0  0  0  0
 30 29  1  0  0  0  0
 31 30  1  0  0  0  0
 32 31  1  0  0  0  0
 32 33  1  0  0  0  0
 33 27  1  1  0  0  0
 33 29  1  0  0  0  0
M  END
>  <minimizedAffinity>
-5.22750998

$$$$

 OpenBabel03252507103D

 33 35  0  0  1  0  0  0  0  0999 V2000
   37.2450   30.5450   37.4500 C   0  0  0  0  0  0  0  0  0  0  0  0
   37.2100   29.4190   38.2900 C   0  0  0  0  0  0  0  0  0  0  0  0
   37.9330   29.4970   39.4810 C   0  0  0  0  0  0  0  0  0  0  0  0
   38.6170   30.6230   39.7670 N   0  0  0  0  0  0  0  0  0  0  0  0
   38.6360   31.6820   38.9510 C   0  0  0  0  0  0  0  0  0  0  0  0
   37.9430   31.6410   37.7830 N   0  0  0  0  0  0  0  0  0  0  0  0
   36.6840   30.5030   36.5090 H   0  0  0  0  0  0  0  0  0  0  0  0
   36.6540   28.5220   38.0440 H   0  0  0  0  0  0  0  0  0  0  0  0
   39.8020   33.1440   40.6250 C   0  0  1  0  0  0  0  0  0  0  0  0
   39.3730   32.9300   39.2050 C   0  0  1  0  0  0  0  0  0  0  0  0
   40.7660   32.8530   38.5470 C   0  0  0  0  0  0  0  0  0  0  0  0
   41.5940   33.6380   39.2800 O   0  0  0  0  0  0  0  0  0  0  0  0
   40.9130   34.1610   40.3760 C   0  0  0  0  0  0  0  0  0  0  0  0
   40.3060   32.2130   40.9630 H   0  0  0  0  0  0  0  0  0  0  0  0
   38.8450   33.8270   38.8310 H   0  0  0  0  0  0  0  0  0  0  0  0
   40.6320   33.3110   37.5360 H   0  0  0  0  0  0  0  0  0  0  0  0
   41.0830   31.8090   38.3790 H   0  0  0  0  0  0  0  0  0  0  0  0
   40.5250   35.1680   40.2280 H   0  0  0  0  0  0  0  0  0  0  0  0
   41.6100   34.0710   41.2570 H   0  0  0  0  0  0  0  0  0  0  0  0
   38.8160   33.5750   41.4640 O   0  0  0  0  0  0  0  0  0  0  0  0
   38.7780   32.9450   42.2290 H   0  0  0  0  0  0  0  0  0  0  0  0
   37.8890   28.3830   40.3000 O   0  0  0  0  0  0  0  0  0  0  0  0
   38.8210   28.7480   42.7640 O   0  0  0  0  0  0  0  0  0  0  0  0
   37.5240   28.5600   41.9650 P   0  0  1  0  0  0  0  0  0  0  0  0
   36.5010   29.8590   42.1430 O   0  0  0  0  0  0  0  0  0  0  0  0
   37.0370   30.6210   42.5330 H   0  0  0  0  0  0  0  0  0  0  0  0
   36.8090   27.1140   42.4610 O   0  0  0  0  0  0  0  0  0  0  0  0
   38.9410   25.9610   42.8680 H   0  0  0  0  0  0  0  0  0  0  0  0
   38.7530   25.9410   41.8350 N   0  0  0  0  0  0  0  0  0  0  0  0
   39.0380   24.6140   41.3330 C   0  0  0  0  0  2  0  0  0  0  0  0
   37.7570   23.8200   41.3740 C   0  0  0  0  0  2  0  0  0  0  0  0
   36.8300   24.7310   42.1880 C   0  0  0  0  0  2  0  0  0  0  0  0
   37.3190   26.0910   41.6700 C   0  0  1  0  0  3  0  0  0  0  0  0
  1  6  2  0  0  0  0
  1  2  1  0  0  0  0
  2  3  2  0  0  0  0
  3  4  1  0  0  0  0
  3 22  1  0  0  0  0
  5 10  1  0  0  0  0
  5  4  2  0  0  0  0
  6  5  1  0  0  0  0
  7  1  1  0  0  0  0
  8  2  1  0  0  0  0
  9 14  1  1  0  0  0
  9 20  1  0  0  0  0
 10 15  1  6  0  0  0
 10  9  1  0  0  0  0
 11 10  1  0  0  0  0
 11 12  1  0  0  0  0
 12 13  1  0  0  0  0
 13  9  1  0  0  0  0
 13 19  1  0  0  0  0
 16 11  1  0  0  0  0
 17 11  1  0  0  0  0
 18 13  1  0  0  0  0
 20 21  1  0  0  0  0
 22 24  1  0  0  0  0
 24 25  1  0  0  0  0
 24 27  1  0  0  0  0
 24 23  2  1  0  0  0
 25 26  1  0  0  0  0
 29 28  1  0  0  0  0
 30 31  1  0  0  0  0
 30 29  1  0  0  0  0
 31 32  1  0  0  0  0
 33 29  1  0  0  0  0
 33 32  1  0  0  0  0
 33 27  1  1  0  0  0
M  END
>  <minimizedAffinity>
-5.18631411

$$$$

 OpenBabel03252507103D

 33 35  0  0  1  0  0  0  0  0999 V2000
   35.9080   29.6390   37.9150 C   0  0  0  0  0  0  0  0  0  0  0  0
   35.5740   28.9210   39.0770 C   0  0  0  0  0  0  0  0  0  0  0  0
   36.1740   29.3330   40.2680 C   0  0  0  0  0  0  0  0  0  0  0  0
   37.0280   30.3750   40.2520 N   0  0  0  0  0  0  0  0  0  0  0  0
   37.3310   31.0420   39.1340 C   0  0  0  0  0  0  0  0  0  0  0  0
   36.7650   30.6690   37.9560 N   0  0  0  0  0  0  0  0  0  0  0  0
   35.4470   29.3300   36.9690 H   0  0  0  0  0  0  0  0  0  0  0  0
   34.8840   28.0860   39.0710 H   0  0  0  0  0  0  0  0  0  0  0  0
   37.8860   33.3770   39.8710 C   0  0  1  0  0  0  0  0  0  0  0  0
   38.2640   32.1780   39.0550 C   0  0  1  0  0  0  0  0  0  0  0  0
   39.5840   31.8160   39.7660 C   0  0  0  0  0  0  0  0  0  0  0  0
   40.1170   32.9750   40.2270 O   0  0  0  0  0  0  0  0  0  0  0  0
   39.2590   34.0380   39.9550 C   0  0  0  0  0  0  0  0  0  0  0  0
   37.6520   33.0190   40.8970 H   0  0  0  0  0  0  0  0  0  0  0  0
   38.4850   32.4840   38.0150 H   0  0  0  0  0  0  0  0  0  0  0  0
   40.2430   31.4090   38.9600 H   0  0  0  0  0  0  0  0  0  0  0  0
   39.4450   31.0020   40.4980 H   0  0  0  0  0  0  0  0  0  0  0  0
   39.5050   34.5950   39.0510 H   0  0  0  0  0  0  0  0  0  0  0  0
   39.2340   34.6730   40.8840 H   0  0  0  0  0  0  0  0  0  0  0  0
   36.9120   34.1600   39.3230 O   0  0  0  0  0  0  0  0  0  0  0  0
   36.1900   34.2530   39.9960 H   0  0  0  0  0  0  0  0  0  0  0  0
   35.8350   28.6200   41.4040 O   0  0  0  0  0  0  0  0  0  0  0  0
   37.6150   29.3580   43.2370 O   0  0  0  0  0  0  0  0  0  0  0  0
   37.0570   28.1310   42.5020 P   0  0  1  0  0  0  0  0  0  0  0  0
   36.4030   27.0280   43.5600 O   0  0  0  0  0  0  0  0  0  0  0  0
   36.2740   27.4930   44.4470 H   0  0  0  0  0  0  0  0  0  0  0  0
   38.3010   27.4650   41.5760 O   0  0  0  0  0  0  0  0  0  0  0  0
   38.1580   25.0320   41.2540 H   0  0  0  0  0  0  0  0  0  0  0  0
   38.3350   25.2150   42.2720 N   0  0  0  0  0  0  0  0  0  0  0  0
   39.3500   24.2980   42.7430 C   0  0  0  0  0  2  0  0  0  0  0  0
   40.6890   24.9770   42.5980 C   0  0  0  0  0  2  0  0  0  0  0  0
   40.3410   26.2160   41.7640 C   0  0  0  0  0  2  0  0  0  0  0  0
   38.9590   26.5220   42.3580 C   0  0  1  0  0  3  0  0  0  0  0  0
  1  6  2  0  0  0  0
  1  2  1  0  0  0  0
  2  3  2  0  0  0  0
  3 22  1  0  0  0  0
  4  3  1  0  0  0  0
  5  4  2  0  0  0  0
  6  5  1  0  0  0  0
  7  1  1  0  0  0  0
  8  2  1  0  0  0  0
  9 13  1  0  0  0  0
  9 14  1  1  0  0  0
 10 15  1  6  0  0  0
 10  5  1  0  0  0  0
 10 11  1  0  0  0  0
 10  9  1  0  0  0  0
 11 12  1  0  0  0  0
 11 17  1  0  0  0  0
 13 12  1  0  0  0  0
 13 19  1  0  0  0  0
 16 11  1  0  0  0  0
 18 13  1  0  0  0  0
 20  9  1  0  0  0  0
 20 21  1  0  0  0  0
 22 24  1  0  0  0  0
 24 23  2  1  0  0  0
 24 25  1  0  0  0  0
 25 26  1  0  0  0  0
 27 24  1  0  0  0  0
 28 29  1  0  0  0  0
 29 33  1  0  0  0  0
 29 30  1  0  0  0  0
 31 30  1  0  0  0  0
 32 33  1  0  0  0  0
 32 31  1  0  0  0  0
 33 27  1  6  0  0  0
M  END
>  <minimizedAffinity>
-5.16393042

$$$$
