
 OpenBabel03252502233D

 31 33  0  0  1  0  0  0  0  0999 V2000
   46.8350   34.6010   42.2320 N   0  0  0  0  0  0  0  0  0  0  0  0
   48.2810   34.6730   42.2700 C   0  0  0  0  0  0  0  0  0  0  0  0
   48.6670   35.4050   40.9910 C   0  0  0  0  0  0  0  0  0  0  0  0
   48.2770   34.5950   39.7810 C   0  0  0  0  0  0  0  0  0  0  0  0
   46.9700   33.9070   39.8900 C   0  0  0  0  0  0  0  0  0  0  0  0
   46.1010   34.3220   41.0280 C   0  0  1  0  0  0  0  0  0  0  0  0
   48.6430   35.2700   43.1310 H   0  0  0  0  0  0  0  0  0  0  0  0
   48.7010   33.6730   42.2090 H   0  0  0  0  0  0  0  0  0  0  0  0
   49.7800   35.5050   41.0190 H   0  0  0  0  0  0  0  0  0  0  0  0
   48.1610   36.3820   41.0280 H   0  0  0  0  0  0  0  0  0  0  0  0
   48.2660   35.3030   38.9250 H   0  0  0  0  0  0  0  0  0  0  0  0
   49.1040   33.8710   39.5230 H   0  0  0  0  0  0  0  0  0  0  0  0
   46.4100   34.0160   38.9340 H   0  0  0  0  0  0  0  0  0  0  0  0
   47.1850   32.8080   40.0420 H   0  0  0  0  0  0  0  0  0  0  0  0
   45.5240   35.2260   40.7100 H   0  0  0  0  0  0  0  0  0  0  0  0
   44.4890   36.0300   44.7800 C   0  0  0  0  0  0  0  0  0  0  0  0
   45.2020   35.9190   43.5710 C   0  0  0  0  0  0  0  0  0  0  0  0
   46.0630   34.8110   43.4220 C   0  0  0  0  0  0  0  0  0  0  0  0
   46.1530   33.9190   44.4550 N   0  0  0  0  0  0  0  0  0  0  0  0
   45.4390   34.0820   45.5950 C   0  0  0  0  0  0  0  0  0  0  0  0
   44.6040   35.1460   45.7520 N   0  0  0  0  0  0  0  0  0  0  0  0
   43.8540   36.9070   44.8100 H   0  0  0  0  0  0  0  0  0  0  0  0
   45.1400   36.6180   42.7470 H   0  0  0  0  0  0  0  0  0  0  0  0
   45.5060   33.3840   46.4070 H   0  0  0  0  0  0  0  0  0  0  0  0
   45.1780   33.2920   41.2710 O   0  0  0  0  0  0  0  0  0  0  0  0
   43.4850   35.5390   40.1480 H   0  0  0  0  0  0  0  0  0  0  0  0
   43.8580   34.5860   39.9680 N   0  0  0  0  0  0  0  0  0  0  0  0
   43.1850   33.8900   38.9140 C   0  0  0  0  0  2  0  0  0  0  0  0
   42.0990   33.1290   39.6430 C   0  0  0  0  0  2  0  0  0  0  0  0
   42.8930   32.6010   40.8370 C   0  0  0  0  0  2  0  0  0  0  0  0
   43.8680   33.7280   41.1460 C   0  0  1  0  0  3  0  0  0  0  0  0
  1  2  1  0  0  0  0
  1 18  1  0  0  0  0
  2  7  1  0  0  0  0
  3  9  1  0  0  0  0
  3 10  1  0  0  0  0
  3  2  1  0  0  0  0
  4  5  1  0  0  0  0
  4  3  1  0  0  0  0
  5 14  1  0  0  0  0
  5  6  1  0  0  0  0
  6 15  1  6  0  0  0
  6 25  1  0  0  0  0
  6  1  1  0  0  0  0
  8  2  1  0  0  0  0
 11  4  1  0  0  0  0
 12  4  1  0  0  0  0
 13  5  1  0  0  0  0
 16 22  1  0  0  0  0
 16 21  1  0  0  0  0
 17 16  2  0  0  0  0
 18 17  1  0  0  0  0
 18 19  2  0  0  0  0
 19 20  1  0  0  0  0
 20 21  2  0  0  0  0
 20 24  1  0  0  0  0
 23 17  1  0  0  0  0
 27 26  1  0  0  0  0
 27 31  1  0  0  0  0
 28 29  1  0  0  0  0
 28 27  1  0  0  0  0
 29 30  1  0  0  0  0
 30 31  1  0  0  0  0
 31 25  1  6  0  0  0
M  END
>  <minimizedAffinity>
-5.4196291

>  <minimizedRMSD>
0.254626393

$$$$
