
 OpenBabel03242523173D

 24 26  0  0  0  0  0  0  0  0999 V2000
   36.7960   29.8750   39.1850 C   0  0  0  0  0  0  0  0  0  0  0  0
   37.1320   31.1860   39.0700 C   0  0  0  0  0  0  0  0  0  0  0  0
   37.4040   31.6160   37.7820 C   0  0  0  0  0  0  0  0  0  0  0  0
   37.3140   30.7080   36.7510 N   0  0  0  0  0  0  0  0  0  0  0  0
   36.9770   29.4250   36.9220 C   0  0  0  0  0  0  0  0  0  0  0  0
   36.7000   28.9640   38.1900 N   0  0  0  0  0  0  0  0  0  0  0  0
   37.6850   32.6310   37.5350 H   0  0  0  0  0  0  0  0  0  0  0  0
   36.9630   28.8800   35.9870 H   0  0  0  0  0  0  0  0  0  0  0  0
   37.2930   32.1000   40.1420 C   0  0  0  0  0  0  0  0  0  0  0  0
   38.4090   32.6430   40.6870 C   0  0  0  0  0  0  0  0  0  0  0  0
   37.6200   33.6190   39.8170 C   0  0  0  0  0  0  0  0  0  0  0  0
   36.2260   32.2780   40.6080 H   0  0  0  0  0  0  0  0  0  0  0  0
   38.5450   32.9980   41.7510 H   0  0  0  0  0  0  0  0  0  0  0  0
   39.4350   32.4890   40.2410 H   0  0  0  0  0  0  0  0  0  0  0  0
   37.0740   34.4010   40.3220 H   0  0  0  0  0  0  0  0  0  0  0  0
   37.9170   33.8100   38.7840 H   0  0  0  0  0  0  0  0  0  0  0  0
   36.3770   29.1850   40.3930 C   0  0  0  0  0  0  0  0  0  0  0  0
   35.6030   28.6690   41.1550 O   0  0  0  0  0  0  0  0  0  0  0  0
   37.3890   28.8350   41.3800 N   0  0  0  0  0  0  0  0  0  0  0  0
   38.4860   27.9600   41.0080 C   0  0  0  0  0  2  0  0  0  0  0  0
   39.3900   28.0040   42.2020 C   0  0  0  0  0  2  0  0  0  0  0  0
   38.4300   28.2050   43.3360 C   0  0  0  0  0  2  0  0  0  0  0  0
   37.4830   29.2440   42.7560 C   0  0  0  0  0  3  0  0  0  0  0  0
   38.0290   30.2170   42.8280 H   0  0  0  0  0  0  0  0  0  0  0  0
  1 17  1  0  0  0  0
  2  1  1  0  0  0  0
  2  9  1  0  0  0  0
  3  2  2  0  0  0  0
  4  5  2  0  0  0  0
  4  3  1  0  0  0  0
  5  6  1  0  0  0  0
  6  1  2  0  0  0  0
  7  3  1  0  0  0  0
  8  5  1  0  0  0  0
  9 12  1  0  0  0  0
  9 10  1  0  0  0  0
 10 13  1  0  0  0  0
 11  9  1  0  0  0  0
 11 15  1  0  0  0  0
 11 10  1  0  0  0  0
 14 10  1  0  0  0  0
 16 11  1  0  0  0  0
 17 18  2  0  0  0  0
 17 19  1  0  0  0  0
 19 23  1  0  0  0  0
 20 19  1  0  0  0  0
 20 21  1  0  0  0  0
 21 22  1  0  0  0  0
 23 24  1  0  0  0  0
 23 22  1  0  0  0  0
M  END
>  <minimizedAffinity>
-4.4386096

$$$$

 OpenBabel03242523173D

 24 26  0  0  0  0  0  0  0  0999 V2000
   38.2180   29.9150   41.7090 C   0  0  0  0  0  0  0  0  0  0  0  0
   38.4540   28.6670   42.1890 C   0  0  0  0  0  0  0  0  0  0  0  0
   39.7280   28.4540   42.6860 C   0  0  0  0  0  0  0  0  0  0  0  0
   40.6300   29.4950   42.6550 N   0  0  0  0  0  0  0  0  0  0  0  0
   40.3440   30.7090   42.1700 C   0  0  0  0  0  0  0  0  0  0  0  0
   39.0840   30.9540   41.6680 N   0  0  0  0  0  0  0  0  0  0  0  0
   40.0620   27.5130   43.1010 H   0  0  0  0  0  0  0  0  0  0  0  0
   41.1860   31.3840   42.2380 H   0  0  0  0  0  0  0  0  0  0  0  0
   37.5460   27.5780   42.1540 C   0  0  0  0  0  0  0  0  0  0  0  0
   37.5650   26.3850   42.7950 C   0  0  0  0  0  0  0  0  0  0  0  0
   36.5470   27.3680   43.3690 C   0  0  0  0  0  0  0  0  0  0  0  0
   36.7320   27.8320   41.3400 H   0  0  0  0  0  0  0  0  0  0  0  0
   37.1040   25.4150   42.4440 H   0  0  0  0  0  0  0  0  0  0  0  0
   38.3320   26.1350   43.5840 H   0  0  0  0  0  0  0  0  0  0  0  0
   35.5050   27.1710   43.1730 H   0  0  0  0  0  0  0  0  0  0  0  0
   36.7820   27.9560   44.2580 H   0  0  0  0  0  0  0  0  0  0  0  0
   36.9550   30.4370   41.2170 C   0  0  0  0  0  0  0  0  0  0  0  0
   36.0110   31.1820   41.1740 O   0  0  0  0  0  0  0  0  0  0  0  0
   36.3100   29.7580   40.1000 N   0  0  0  0  0  0  0  0  0  0  0  0
   37.0010   29.6460   38.8290 C   0  0  0  0  0  2  0  0  0  0  0  0
   36.1200   28.7350   38.0300 C   0  0  0  0  0  2  0  0  0  0  0  0
   34.7530   29.0530   38.5580 C   0  0  0  0  0  2  0  0  0  0  0  0
   35.0120   29.1390   40.0530 C   0  0  0  0  0  3  0  0  0  0  0  0
   35.0830   28.0800   40.4040 H   0  0  0  0  0  0  0  0  0  0  0  0
  1  2  1  0  0  0  0
  2  3  2  0  0  0  0
  3  7  1  0  0  0  0
  4  3  1  0  0  0  0
  5  8  1  0  0  0  0
  5  4  2  0  0  0  0
  6  1  2  0  0  0  0
  6  5  1  0  0  0  0
  9  2  1  0  0  0  0
  9 10  1  0  0  0  0
  9 11  1  0  0  0  0
 10 11  1  0  0  0  0
 10 14  1  0  0  0  0
 11 16  1  0  0  0  0
 12  9  1  0  0  0  0
 13 10  1  0  0  0  0
 15 11  1  0  0  0  0
 17  1  1  0  0  0  0
 18 17  2  0  0  0  0
 19 17  1  0  0  0  0
 20 19  1  0  0  0  0
 21 22  1  0  0  0  0
 21 20  1  0  0  0  0
 22 23  1  0  0  0  0
 23 19  1  0  0  0  0
 23 24  1  0  0  0  0
M  END
>  <minimizedAffinity>
-4.42097044

$$$$

 OpenBabel03242523173D

 24 26  0  0  0  0  0  0  0  0999 V2000
   38.5690   30.9690   40.5370 C   0  0  0  0  0  0  0  0  0  0  0  0
   37.5310   31.0370   39.6630 C   0  0  0  0  0  0  0  0  0  0  0  0
   37.1010   32.3160   39.3540 C   0  0  0  0  0  0  0  0  0  0  0  0
   37.7400   33.3860   39.9400 N   0  0  0  0  0  0  0  0  0  0  0  0
   38.7610   33.2610   40.7950 C   0  0  0  0  0  0  0  0  0  0  0  0
   39.2140   32.0030   41.1250 N   0  0  0  0  0  0  0  0  0  0  0  0
   36.2860   32.5280   38.6750 H   0  0  0  0  0  0  0  0  0  0  0  0
   39.1220   34.2210   41.1410 H   0  0  0  0  0  0  0  0  0  0  0  0
   36.8290   29.9320   39.1190 C   0  0  0  0  0  0  0  0  0  0  0  0
   36.0230   29.8390   38.0340 C   0  0  0  0  0  0  0  0  0  0  0  0
   37.4030   29.2190   37.8220 C   0  0  0  0  0  0  0  0  0  0  0  0
   36.9790   29.0270   39.8590 H   0  0  0  0  0  0  0  0  0  0  0  0
   35.1740   29.1100   37.8760 H   0  0  0  0  0  0  0  0  0  0  0  0
   35.8810   30.6940   37.3120 H   0  0  0  0  0  0  0  0  0  0  0  0
   37.4610   28.1420   37.7880 H   0  0  0  0  0  0  0  0  0  0  0  0
   38.1890   29.7740   37.3070 H   0  0  0  0  0  0  0  0  0  0  0  0
   39.2740   29.7720   40.9630 C   0  0  0  0  0  0  0  0  0  0  0  0
   40.1910   28.9970   41.0260 O   0  0  0  0  0  0  0  0  0  0  0  0
   38.5930   28.8460   41.8590 N   0  0  0  0  0  0  0  0  0  0  0  0
   38.1470   29.3020   43.1620 C   0  0  0  0  0  2  0  0  0  0  0  0
   37.3410   28.1500   43.6800 C   0  0  0  0  0  2  0  0  0  0  0  0
   38.0230   26.9660   43.0600 C   0  0  0  0  0  2  0  0  0  0  0  0
   38.2710   27.4610   41.6440 C   0  0  0  0  0  3  0  0  0  0  0  0
   37.2860   27.3750   41.1220 H   0  0  0  0  0  0  0  0  0  0  0  0
  1 17  1  0  0  0  0
  1  6  1  0  0  0  0
  2  1  2  0  0  0  0
  3  2  1  0  0  0  0
  3  4  2  0  0  0  0
  4  5  1  0  0  0  0
  5  6  2  0  0  0  0
  5  8  1  0  0  0  0
  7  3  1  0  0  0  0
  9  2  1  0  0  0  0
  9 12  1  0  0  0  0
 10  9  1  0  0  0  0
 11 10  1  0  0  0  0
 11  9  1  0  0  0  0
 13 10  1  0  0  0  0
 14 10  1  0  0  0  0
 15 11  1  0  0  0  0
 16 11  1  0  0  0  0
 17 18  2  0  0  0  0
 17 19  1  0  0  0  0
 19 20  1  0  0  0  0
 20 21  1  0  0  0  0
 22 21  1  0  0  0  0
 23 19  1  0  0  0  0
 23 22  1  0  0  0  0
 24 23  1  0  0  0  0
M  END
>  <minimizedAffinity>
-4.41847992

$$$$

 OpenBabel03242523173D

 24 26  0  0  0  0  0  0  0  0999 V2000
   38.1940   28.5060   42.5080 C   0  0  0  0  0  0  0  0  0  0  0  0
   38.0280   29.6960   41.8750 C   0  0  0  0  0  0  0  0  0  0  0  0
   39.1880   30.4170   41.6540 C   0  0  0  0  0  0  0  0  0  0  0  0
   40.3850   29.8860   42.0810 N   0  0  0  0  0  0  0  0  0  0  0  0
   40.4930   28.7050   42.7010 C   0  0  0  0  0  0  0  0  0  0  0  0
   39.3570   27.9620   42.9370 N   0  0  0  0  0  0  0  0  0  0  0  0
   39.2130   31.3800   41.1620 H   0  0  0  0  0  0  0  0  0  0  0  0
   41.5180   28.4700   42.9540 H   0  0  0  0  0  0  0  0  0  0  0  0
   36.7860   30.2710   41.5010 C   0  0  0  0  0  0  0  0  0  0  0  0
   36.5010   31.3160   40.6880 C   0  0  0  0  0  0  0  0  0  0  0  0
   36.1940   29.9570   40.0630 C   0  0  0  0  0  0  0  0  0  0  0  0
   35.9490   29.7240   42.1250 H   0  0  0  0  0  0  0  0  0  0  0  0
   35.6020   31.9980   40.7440 H   0  0  0  0  0  0  0  0  0  0  0  0
   37.2930   31.8400   40.0770 H   0  0  0  0  0  0  0  0  0  0  0  0
   35.1560   29.6820   39.9630 H   0  0  0  0  0  0  0  0  0  0  0  0
   36.8990   29.4900   39.3720 H   0  0  0  0  0  0  0  0  0  0  0  0
   37.1700   27.5130   42.7840 C   0  0  0  0  0  0  0  0  0  0  0  0
   36.2290   27.0300   43.3570 O   0  0  0  0  0  0  0  0  0  0  0  0
   37.1170   26.3190   41.9510 N   0  0  0  0  0  0  0  0  0  0  0  0
   36.9050   26.4470   40.5210 C   0  0  0  0  0  2  0  0  0  0  0  0
   37.1100   25.0540   40.0100 C   0  0  0  0  0  2  0  0  0  0  0  0
   36.6440   24.2090   41.1580 C   0  0  0  0  0  2  0  0  0  0  0  0
   37.2500   24.9410   42.3450 C   0  0  0  0  0  3  0  0  0  0  0  0
   38.3290   24.6500   42.3540 H   0  0  0  0  0  0  0  0  0  0  0  0
  1 17  1  0  0  0  0
  1  6  1  0  0  0  0
  2  1  2  0  0  0  0
  3  2  1  0  0  0  0
  3  4  2  0  0  0  0
  4  5  1  0  0  0  0
  5  6  2  0  0  0  0
  5  8  1  0  0  0  0
  7  3  1  0  0  0  0
  9  2  1  0  0  0  0
  9 12  1  0  0  0  0
 10 13  1  0  0  0  0
 10  9  1  0  0  0  0
 11 10  1  0  0  0  0
 11  9  1  0  0  0  0
 14 10  1  0  0  0  0
 15 11  1  0  0  0  0
 16 11  1  0  0  0  0
 17 18  2  0  0  0  0
 19 23  1  0  0  0  0
 19 17  1  0  0  0  0
 20 19  1  0  0  0  0
 21 20  1  0  0  0  0
 21 22  1  0  0  0  0
 22 23  1  0  0  0  0
 23 24  1  0  0  0  0
M  END
>  <minimizedAffinity>
-4.41798496

$$$$

 OpenBabel03242523173D

 24 26  0  0  0  0  0  0  0  0999 V2000
   37.8340   30.1490   41.4640 C   0  0  0  0  0  0  0  0  0  0  0  0
   38.0080   31.1170   40.5270 C   0  0  0  0  0  0  0  0  0  0  0  0
   39.1120   31.9300   40.7140 C   0  0  0  0  0  0  0  0  0  0  0  0
   39.9240   31.6990   41.8020 N   0  0  0  0  0  0  0  0  0  0  0  0
   39.7060   30.7280   42.6960 C   0  0  0  0  0  0  0  0  0  0  0  0
   38.6160   29.9010   42.5400 N   0  0  0  0  0  0  0  0  0  0  0  0
   39.3790   32.7420   40.0510 H   0  0  0  0  0  0  0  0  0  0  0  0
   40.4580   30.7140   43.4740 H   0  0  0  0  0  0  0  0  0  0  0  0
   37.1300   31.3960   39.4490 C   0  0  0  0  0  0  0  0  0  0  0  0
   37.3290   32.0820   38.2970 C   0  0  0  0  0  0  0  0  0  0  0  0
   37.2760   30.5680   38.1030 C   0  0  0  0  0  0  0  0  0  0  0  0
   36.0670   30.9910   39.7540 H   0  0  0  0  0  0  0  0  0  0  0  0
   36.5540   32.6390   37.6930 H   0  0  0  0  0  0  0  0  0  0  0  0
   38.3450   32.4640   37.9890 H   0  0  0  0  0  0  0  0  0  0  0  0
   36.3960   30.1600   37.6300 H   0  0  0  0  0  0  0  0  0  0  0  0
   38.1960   29.9840   38.0240 H   0  0  0  0  0  0  0  0  0  0  0  0
   36.8200   29.1080   41.4650 C   0  0  0  0  0  0  0  0  0  0  0  0
   35.7080   28.6520   41.4190 O   0  0  0  0  0  0  0  0  0  0  0  0
   37.2480   27.7210   41.5940 N   0  0  0  0  0  0  0  0  0  0  0  0
   38.1370   27.1460   40.6020 C   0  0  0  0  0  2  0  0  0  0  0  0
   38.4920   25.8100   41.1800 C   0  0  0  0  0  2  0  0  0  0  0  0
   37.2570   25.4460   41.9480 C   0  0  0  0  0  2  0  0  0  0  0  0
   36.9080   26.7670   42.6150 C   0  0  0  0  0  3  0  0  0  0  0  0
   37.6150   26.8610   43.4760 H   0  0  0  0  0  0  0  0  0  0  0  0
  1 17  1  0  0  0  0
  1  6  1  0  0  0  0
  2  3  1  0  0  0  0
  2  1  2  0  0  0  0
  3  4  2  0  0  0  0
  4  5  1  0  0  0  0
  5  8  1  0  0  0  0
  6  5  2  0  0  0  0
  7  3  1  0  0  0  0
  9 12  1  0  0  0  0
  9  2  1  0  0  0  0
 10  9  1  0  0  0  0
 11 10  1  0  0  0  0
 11  9  1  0  0  0  0
 13 10  1  0  0  0  0
 14 10  1  0  0  0  0
 15 11  1  0  0  0  0
 16 11  1  0  0  0  0
 17 19  1  0  0  0  0
 18 17  2  0  0  0  0
 19 23  1  0  0  0  0
 20 21  1  0  0  0  0
 20 19  1  0  0  0  0
 21 22  1  0  0  0  0
 22 23  1  0  0  0  0
 23 24  1  0  0  0  0
M  END
>  <minimizedAffinity>
-4.36751699

$$$$

 OpenBabel03242523173D

 24 26  0  0  0  0  0  0  0  0999 V2000
   36.8570   30.5460   40.1310 C   0  0  0  0  0  0  0  0  0  0  0  0
   36.8030   30.6310   38.7760 C   0  0  0  0  0  0  0  0  0  0  0  0
   37.3130   31.7990   38.2360 C   0  0  0  0  0  0  0  0  0  0  0  0
   37.8210   32.7530   39.0890 N   0  0  0  0  0  0  0  0  0  0  0  0
   37.8510   32.6170   40.4190 C   0  0  0  0  0  0  0  0  0  0  0  0
   37.3510   31.4670   40.9900 N   0  0  0  0  0  0  0  0  0  0  0  0
   37.3380   32.0090   37.1750 H   0  0  0  0  0  0  0  0  0  0  0  0
   38.2890   33.4770   40.9070 H   0  0  0  0  0  0  0  0  0  0  0  0
   36.2140   29.6780   37.9070 C   0  0  0  0  0  0  0  0  0  0  0  0
   36.3300   29.5070   36.5680 C   0  0  0  0  0  0  0  0  0  0  0  0
   37.0950   28.4660   37.3830 C   0  0  0  0  0  0  0  0  0  0  0  0
   35.4600   29.0410   38.5510 H   0  0  0  0  0  0  0  0  0  0  0  0
   35.5650   29.0560   35.8700 H   0  0  0  0  0  0  0  0  0  0  0  0
   37.0570   30.1030   35.9440 H   0  0  0  0  0  0  0  0  0  0  0  0
   36.6930   27.4660   37.4090 H   0  0  0  0  0  0  0  0  0  0  0  0
   38.1670   28.5740   37.5570 H   0  0  0  0  0  0  0  0  0  0  0  0
   36.4790   29.4070   40.9490 C   0  0  0  0  0  0  0  0  0  0  0  0
   35.7470   28.5600   41.3890 O   0  0  0  0  0  0  0  0  0  0  0  0
   37.4830   28.8160   41.8240 N   0  0  0  0  0  0  0  0  0  0  0  0
   38.7030   28.2710   41.2560 C   0  0  0  0  0  2  0  0  0  0  0  0
   39.5370   27.9520   42.4590 C   0  0  0  0  0  2  0  0  0  0  0  0
   38.5080   27.6020   43.4920 C   0  0  0  0  0  2  0  0  0  0  0  0
   37.4580   28.6760   43.2560 C   0  0  0  0  0  3  0  0  0  0  0  0
   37.8650   29.6010   43.7360 H   0  0  0  0  0  0  0  0  0  0  0  0
  1 17  1  0  0  0  0
  1  6  1  0  0  0  0
  2  1  2  0  0  0  0
  3  2  1  0  0  0  0
  3  4  2  0  0  0  0
  4  5  1  0  0  0  0
  5  8  1  0  0  0  0
  5  6  2  0  0  0  0
  7  3  1  0  0  0  0
  9 12  1  0  0  0  0
  9  2  1  0  0  0  0
 10 11  1  0  0  0  0
 10  9  1  0  0  0  0
 11 15  1  0  0  0  0
 11 16  1  0  0  0  0
 11  9  1  0  0  0  0
 13 10  1  0  0  0  0
 14 10  1  0  0  0  0
 17 18  2  0  0  0  0
 17 19  1  0  0  0  0
 19 23  1  0  0  0  0
 20 19  1  0  0  0  0
 20 21  1  0  0  0  0
 21 22  1  0  0  0  0
 23 22  1  0  0  0  0
 23 24  1  0  0  0  0
M  END
>  <minimizedAffinity>
-4.35891914

$$$$

 OpenBabel03242523173D

 24 26  0  0  0  0  0  0  0  0999 V2000
   37.8990   29.4470   42.1950 C   0  0  0  0  0  0  0  0  0  0  0  0
   37.1070   29.9310   41.2040 C   0  0  0  0  0  0  0  0  0  0  0  0
   37.5480   31.1010   40.6110 C   0  0  0  0  0  0  0  0  0  0  0  0
   38.7220   31.6650   41.0590 N   0  0  0  0  0  0  0  0  0  0  0  0
   39.4660   31.1440   42.0410 C   0  0  0  0  0  0  0  0  0  0  0  0
   39.0560   29.9810   42.6530 N   0  0  0  0  0  0  0  0  0  0  0  0
   37.0230   31.6030   39.8090 H   0  0  0  0  0  0  0  0  0  0  0  0
   40.3480   31.7380   42.2420 H   0  0  0  0  0  0  0  0  0  0  0  0
   35.8630   29.3860   40.7950 C   0  0  0  0  0  0  0  0  0  0  0  0
   35.1670   29.5300   39.6410 C   0  0  0  0  0  0  0  0  0  0  0  0
   35.8530   28.1710   39.7740 C   0  0  0  0  0  0  0  0  0  0  0  0
   35.4200   28.8030   41.7180 H   0  0  0  0  0  0  0  0  0  0  0  0
   34.0480   29.4560   39.5060 H   0  0  0  0  0  0  0  0  0  0  0  0
   35.5870   30.0760   38.7470 H   0  0  0  0  0  0  0  0  0  0  0  0
   35.2240   27.3170   39.9690 H   0  0  0  0  0  0  0  0  0  0  0  0
   36.8100   27.9810   39.2830 H   0  0  0  0  0  0  0  0  0  0  0  0
   37.7270   28.2000   42.9210 C   0  0  0  0  0  0  0  0  0  0  0  0
   37.1990   27.4310   43.6800 O   0  0  0  0  0  0  0  0  0  0  0  0
   38.6990   27.1350   42.7140 N   0  0  0  0  0  0  0  0  0  0  0  0
   38.8890   26.5800   41.3860 C   0  0  0  0  0  2  0  0  0  0  0  0
   40.0770   25.6820   41.5480 C   0  0  0  0  0  2  0  0  0  0  0  0
   39.9470   25.2170   42.9670 C   0  0  0  0  0  2  0  0  0  0  0  0
   39.5580   26.5030   43.6790 C   0  0  0  0  0  3  0  0  0  0  0  0
   40.5080   27.0840   43.7820 H   0  0  0  0  0  0  0  0  0  0  0  0
  1  6  1  0  0  0  0
  1 17  1  0  0  0  0
  2  1  2  0  0  0  0
  3  4  2  0  0  0  0
  3  2  1  0  0  0  0
  4  5  1  0  0  0  0
  5  8  1  0  0  0  0
  5  6  2  0  0  0  0
  7  3  1  0  0  0  0
  9  2  1  0  0  0  0
  9 12  1  0  0  0  0
 10 11  1  0  0  0  0
 10  9  1  0  0  0  0
 11 15  1  0  0  0  0
 11  9  1  0  0  0  0
 13 10  1  0  0  0  0
 14 10  1  0  0  0  0
 16 11  1  0  0  0  0
 17 18  2  0  0  0  0
 19 17  1  0  0  0  0
 19 23  1  0  0  0  0
 20 21  1  0  0  0  0
 20 19  1  0  0  0  0
 21 22  1  0  0  0  0
 22 23  1  0  0  0  0
 23 24  1  0  0  0  0
M  END
>  <minimizedAffinity>
-4.35126829

$$$$

 OpenBabel03242523173D

 24 26  0  0  0  0  0  0  0  0999 V2000
   37.2560   29.0160   40.3180 C   0  0  0  0  0  0  0  0  0  0  0  0
   37.1990   27.9260   41.1260 C   0  0  0  0  0  0  0  0  0  0  0  0
   37.7140   26.7600   40.5860 C   0  0  0  0  0  0  0  0  0  0  0  0
   38.2290   26.7970   39.3090 N   0  0  0  0  0  0  0  0  0  0  0  0
   38.2610   27.9010   38.5550 C   0  0  0  0  0  0  0  0  0  0  0  0
   37.7570   29.0790   39.0620 N   0  0  0  0  0  0  0  0  0  0  0  0
   37.7370   25.8140   41.1100 H   0  0  0  0  0  0  0  0  0  0  0  0
   38.7060   27.7200   37.5850 H   0  0  0  0  0  0  0  0  0  0  0  0
   36.6030   27.8760   42.4120 C   0  0  0  0  0  0  0  0  0  0  0  0
   36.7220   26.9690   43.4110 C   0  0  0  0  0  0  0  0  0  0  0  0
   37.4730   28.2710   43.6800 C   0  0  0  0  0  0  0  0  0  0  0  0
   35.8400   28.7710   42.4750 H   0  0  0  0  0  0  0  0  0  0  0  0
   35.9550   26.7210   44.2030 H   0  0  0  0  0  0  0  0  0  0  0  0
   37.4590   26.1140   43.3670 H   0  0  0  0  0  0  0  0  0  0  0  0
   37.0590   28.9360   44.4220 H   0  0  0  0  0  0  0  0  0  0  0  0
   38.5450   28.3450   43.4910 H   0  0  0  0  0  0  0  0  0  0  0  0
   36.8740   30.3760   40.6580 C   0  0  0  0  0  0  0  0  0  0  0  0
   36.1330   31.2600   40.9960 O   0  0  0  0  0  0  0  0  0  0  0  0
   37.8930   31.4170   40.6080 N   0  0  0  0  0  0  0  0  0  0  0  0
   39.0710   31.3130   41.4500 C   0  0  0  0  0  2  0  0  0  0  0  0
   39.9410   32.4350   40.9740 C   0  0  0  0  0  2  0  0  0  0  0  0
   38.9430   33.4650   40.5370 C   0  0  0  0  0  2  0  0  0  0  0  0
   37.9200   32.6100   39.8060 C   0  0  0  0  0  3  0  0  0  0  0  0
   38.3750   32.3890   38.8090 H   0  0  0  0  0  0  0  0  0  0  0  0
  1 17  1  0  0  0  0
  1  2  1  0  0  0  0
  2  9  1  0  0  0  0
  3  7  1  0  0  0  0
  3  2  2  0  0  0  0
  4  3  1  0  0  0  0
  5  6  1  0  0  0  0
  5  4  2  0  0  0  0
  6  1  2  0  0  0  0
  8  5  1  0  0  0  0
  9 12  1  0  0  0  0
  9 10  1  0  0  0  0
  9 11  1  0  0  0  0
 10 11  1  0  0  0  0
 10 13  1  0  0  0  0
 11 15  1  0  0  0  0
 14 10  1  0  0  0  0
 16 11  1  0  0  0  0
 17 18  2  0  0  0  0
 19 17  1  0  0  0  0
 19 20  1  0  0  0  0
 21 20  1  0  0  0  0
 22 21  1  0  0  0  0
 23 22  1  0  0  0  0
 23 19  1  0  0  0  0
 24 23  1  0  0  0  0
M  END
>  <minimizedAffinity>
-4.34550667

$$$$

 OpenBabel03242523173D

 24 26  0  0  0  0  0  0  0  0999 V2000
   38.7160   26.5650   42.7650 C   0  0  0  0  0  0  0  0  0  0  0  0
   38.8590   25.5470   41.8770 C   0  0  0  0  0  0  0  0  0  0  0  0
   40.0790   24.8950   41.9150 C   0  0  0  0  0  0  0  0  0  0  0  0
   41.0240   25.3180   42.8240 N   0  0  0  0  0  0  0  0  0  0  0  0
   40.8300   26.3280   43.6780 C   0  0  0  0  0  0  0  0  0  0  0  0
   39.6260   26.9990   43.6670 N   0  0  0  0  0  0  0  0  0  0  0  0
   40.3390   24.0670   41.2690 H   0  0  0  0  0  0  0  0  0  0  0  0
   41.6920   26.5020   44.3070 H   0  0  0  0  0  0  0  0  0  0  0  0
   37.9110   25.1620   40.8950 C   0  0  0  0  0  0  0  0  0  0  0  0
   37.7580   23.9990   40.2160 C   0  0  0  0  0  0  0  0  0  0  0  0
   36.7150   24.2060   41.3120 C   0  0  0  0  0  0  0  0  0  0  0  0
   37.2590   26.1130   40.6510 H   0  0  0  0  0  0  0  0  0  0  0  0
   37.3090   23.8640   39.1880 H   0  0  0  0  0  0  0  0  0  0  0  0
   38.3690   23.0790   40.4480 H   0  0  0  0  0  0  0  0  0  0  0  0
   35.7100   24.4430   40.9990 H   0  0  0  0  0  0  0  0  0  0  0  0
   36.8310   23.7300   42.2880 H   0  0  0  0  0  0  0  0  0  0  0  0
   37.5190   27.3530   43.0030 C   0  0  0  0  0  0  0  0  0  0  0  0
   36.5200   27.6940   43.5790 O   0  0  0  0  0  0  0  0  0  0  0  0
   37.1890   28.4170   42.0630 N   0  0  0  0  0  0  0  0  0  0  0  0
   38.1220   29.5090   41.8550 C   0  0  0  0  0  2  0  0  0  0  0  0
   37.5280   30.2630   40.7050 C   0  0  0  0  0  2  0  0  0  0  0  0
   36.0570   30.0450   40.8920 C   0  0  0  0  0  2  0  0  0  0  0  0
   36.0090   28.5690   41.2550 C   0  0  0  0  0  3  0  0  0  0  0  0
   36.1360   28.0210   40.2890 H   0  0  0  0  0  0  0  0  0  0  0  0
  1 17  1  0  0  0  0
  1  6  1  0  0  0  0
  2  3  1  0  0  0  0
  2  1  2  0  0  0  0
  3  4  2  0  0  0  0
  4  5  1  0  0  0  0
  5  8  1  0  0  0  0
  6  5  2  0  0  0  0
  7  3  1  0  0  0  0
  9 11  1  0  0  0  0
  9  2  1  0  0  0  0
 10 14  1  0  0  0  0
 10  9  1  0  0  0  0
 10 11  1  0  0  0  0
 11 16  1  0  0  0  0
 12  9  1  0  0  0  0
 13 10  1  0  0  0  0
 15 11  1  0  0  0  0
 17 18  2  0  0  0  0
 19 17  1  0  0  0  0
 20 19  1  0  0  0  0
 21 22  1  0  0  0  0
 21 20  1  0  0  0  0
 22 23  1  0  0  0  0
 23 19  1  0  0  0  0
 24 23  1  0  0  0  0
M  END
>  <minimizedAffinity>
-4.34503126

$$$$
