
 OpenBabel03252508493D

 25 27  0  0  0  0  0  0  0  0999 V2000
   45.9870   34.1260   41.0340 C   0  0  0  0  0  0  0  0  0  0  0  0
   46.5530   34.8160   42.1270 C   0  0  0  0  0  0  0  0  0  0  0  0
   47.8760   35.2440   41.9930 C   0  0  0  0  0  0  0  0  0  0  0  0
   48.5320   34.9690   40.8210 N   0  0  0  0  0  0  0  0  0  0  0  0
   47.9530   34.3130   39.8170 C   0  0  0  0  0  0  0  0  0  0  0  0
   46.6780   33.8910   39.9210 N   0  0  0  0  0  0  0  0  0  0  0  0
   48.3390   35.7770   42.8170 H   0  0  0  0  0  0  0  0  0  0  0  0
   48.4650   34.0920   38.8880 H   0  0  0  0  0  0  0  0  0  0  0  0
   45.7650   35.0540   43.3250 C   0  0  0  0  0  0  0  0  0  0  0  0
   45.0380   36.2000   43.5400 C   0  0  0  0  0  0  0  0  0  0  0  0
   44.4670   35.9870   44.7790 C   0  0  0  0  0  0  0  0  0  0  0  0
   44.8260   34.7820   45.2840 N   0  0  0  0  0  0  0  0  0  0  0  0
   45.6110   34.2400   44.3840 N   0  0  0  0  0  0  0  0  0  0  0  0
   44.9160   37.0860   42.9120 H   0  0  0  0  0  0  0  0  0  0  0  0
   43.8050   36.6920   45.3000 H   0  0  0  0  0  0  0  0  0  0  0  0
   44.5060   34.4170   46.2140 H   0  0  0  0  0  0  0  0  0  0  0  0
   44.6850   33.7010   41.1560 O   0  0  0  0  0  0  0  0  0  0  0  0
   43.5900   34.2810   40.5700 C   0  0  0  0  0  0  0  0  0  0  0  0
   43.2790   35.5150   40.5230 O   0  0  0  0  0  0  0  0  0  0  0  0
   42.4590   33.7960   39.8450 N   0  0  0  0  0  0  0  0  0  0  0  0
   41.1850   33.7630   40.5380 C   0  0  0  0  0  2  0  0  0  0  0  0
   40.5100   32.6020   39.8050 C   0  0  0  0  0  2  0  0  0  0  0  0
   40.8460   33.0370   38.3710 C   0  0  0  0  0  2  0  0  0  0  0  0
   42.3280   33.3130   38.5060 C   0  0  0  0  0  3  0  0  0  0  0  0
   42.7110   34.0330   37.7500 H   0  0  0  0  0  0  0  0  0  0  0  0
  1 17  1  0  0  0  0
  1  2  1  0  0  0  0
  2  9  1  0  0  0  0
  3  2  2  0  0  0  0
  3  7  1  0  0  0  0
  4  3  1  0  0  0  0
  5  6  1  0  0  0  0
  5  4  2  0  0  0  0
  6  1  2  0  0  0  0
  8  5  1  0  0  0  0
  9 10  1  0  0  0  0
  9 13  2  0  0  0  0
 10 11  2  0  0  0  0
 11 12  1  0  0  0  0
 11 15  1  0  0  0  0
 12 16  1  0  0  0  0
 13 12  1  0  0  0  0
 14 10  1  0  0  0  0
 18 17  1  0  0  0  0
 19 18  2  0  0  0  0
 20 21  1  0  0  0  0
 20 18  1  0  0  0  0
 22 21  1  0  0  0  0
 23 24  1  0  0  0  0
 23 22  1  0  0  0  0
 24 20  1  0  0  0  0
 25 24  1  0  0  0  0
M  END
>  <minimizedAffinity>
-5.33726597

>  <minimizedRMSD>
0.359609038

$$$$
