
 OpenBabel03252503363D

 19 20  0  0  0  0  0  0  0  0999 V2000
   38.2980   29.7750   41.3910 C   0  0  0  0  0  0  0  0  0  0  0  0
   38.3130   29.8740   40.1360 O   0  0  0  0  0  0  0  0  0  0  0  0
   38.9450   30.8220   42.0970 N   0  0  0  0  0  0  0  0  0  0  0  0
   38.9530   30.7570   43.1590 H   0  0  0  0  0  0  0  0  0  0  0  0
   37.6720   28.6860   42.0570 N   0  0  0  0  0  0  0  0  0  0  0  0
   36.9990   27.5930   41.3890 C   0  0  0  0  0  2  0  0  0  0  0  0
   36.9490   26.5450   42.5090 C   0  0  0  0  0  2  0  0  0  0  0  0
   36.5800   27.4410   43.6800 C   0  0  0  0  0  2  0  0  0  0  0  0
   37.6320   28.5350   43.4990 C   0  0  0  0  0  3  0  0  0  0  0  0
   38.6070   28.0860   43.7900 H   0  0  0  0  0  0  0  0  0  0  0  0
   41.4340   33.0060   40.3720 C   0  0  0  0  0  0  0  0  0  0  0  0
   40.9230   31.8850   41.0640 C   0  0  0  0  0  0  0  0  0  0  0  0
   39.5550   31.9110   41.3960 C   0  0  0  0  0  0  0  0  0  0  0  0
   38.8150   32.9800   41.0460 N   0  0  0  0  0  0  0  0  0  0  0  0
   39.3440   34.0410   40.3790 C   0  0  0  0  0  0  0  0  0  0  0  0
   40.6450   34.0390   40.0520 N   0  0  0  0  0  0  0  0  0  0  0  0
   42.5010   32.9390   40.1360 H   0  0  0  0  0  0  0  0  0  0  0  0
   41.5060   31.0310   41.3450 H   0  0  0  0  0  0  0  0  0  0  0  0
   38.7430   34.8970   40.1020 H   0  0  0  0  0  0  0  0  0  0  0  0
  1  5  1  0  0  0  0
  1  3  1  0  0  0  0
  2  1  2  0  0  0  0
  3  4  1  0  0  0  0
  5  9  1  0  0  0  0
  6  5  1  0  0  0  0
  6  7  1  0  0  0  0
  7  8  1  0  0  0  0
  9  8  1  0  0  0  0
  9 10  1  0  0  0  0
 11 12  1  0  0  0  0
 12 18  1  0  0  0  0
 12 13  2  0  0  0  0
 13  3  1  0  0  0  0
 14 13  1  0  0  0  0
 15 14  2  0  0  0  0
 16 11  2  0  0  0  0
 16 15  1  0  0  0  0
 17 11  1  0  0  0  0
 19 15  1  0  0  0  0
M  END
>  <minimizedAffinity>
-4.19729233

$$$$

 OpenBabel03252503363D

 19 20  0  0  0  0  0  0  0  0999 V2000
   38.5010   30.0790   41.9310 C   0  0  0  0  0  0  0  0  0  0  0  0
   39.2160   30.7320   42.7360 O   0  0  0  0  0  0  0  0  0  0  0  0
   38.4230   30.6030   40.6150 N   0  0  0  0  0  0  0  0  0  0  0  0
   37.8170   30.0730   39.9190 H   0  0  0  0  0  0  0  0  0  0  0  0
   37.8180   28.8930   42.3170 N   0  0  0  0  0  0  0  0  0  0  0  0
   37.8610   28.3150   43.6420 C   0  0  0  0  0  2  0  0  0  0  0  0
   36.6380   27.3900   43.6040 C   0  0  0  0  0  2  0  0  0  0  0  0
   36.7970   26.8140   42.2080 C   0  0  0  0  0  2  0  0  0  0  0  0
   36.9850   28.1120   41.4220 C   0  0  0  0  0  3  0  0  0  0  0  0
   35.9940   28.6160   41.4040 H   0  0  0  0  0  0  0  0  0  0  0  0
   41.0130   32.9530   39.3100 C   0  0  0  0  0  0  0  0  0  0  0  0
   40.3900   31.7250   39.6250 C   0  0  0  0  0  0  0  0  0  0  0  0
   39.1330   31.7930   40.2560 C   0  0  0  0  0  0  0  0  0  0  0  0
   38.5970   32.9980   40.5240 N   0  0  0  0  0  0  0  0  0  0  0  0
   39.2290   34.1590   40.2050 C   0  0  0  0  0  0  0  0  0  0  0  0
   40.4270   34.1210   39.6030 N   0  0  0  0  0  0  0  0  0  0  0  0
   41.9870   32.8490   38.8200 H   0  0  0  0  0  0  0  0  0  0  0  0
   40.8110   30.7620   39.4140 H   0  0  0  0  0  0  0  0  0  0  0  0
   38.7920   35.1250   40.4240 H   0  0  0  0  0  0  0  0  0  0  0  0
  1  5  1  0  0  0  0
  1  2  2  0  0  0  0
  3  1  1  0  0  0  0
  4  3  1  0  0  0  0
  5  6  1  0  0  0  0
  7  6  1  0  0  0  0
  8  7  1  0  0  0  0
  9  8  1  0  0  0  0
  9  5  1  0  0  0  0
 10  9  1  0  0  0  0
 11 16  2  0  0  0  0
 11 12  1  0  0  0  0
 12 13  2  0  0  0  0
 13 14  1  0  0  0  0
 13  3  1  0  0  0  0
 15 19  1  0  0  0  0
 15 14  2  0  0  0  0
 16 15  1  0  0  0  0
 17 11  1  0  0  0  0
 18 12  1  0  0  0  0
M  END
>  <minimizedAffinity>
-4.12367678

$$$$

 OpenBabel03252503363D

 19 20  0  0  0  0  0  0  0  0999 V2000
   37.6470   28.9740   41.4660 C   0  0  0  0  0  0  0  0  0  0  0  0
   37.0200   29.7100   42.2720 O   0  0  0  0  0  0  0  0  0  0  0  0
   38.2690   29.6420   40.3800 N   0  0  0  0  0  0  0  0  0  0  0  0
   38.7980   29.0400   39.6800 H   0  0  0  0  0  0  0  0  0  0  0  0
   37.7270   27.5640   41.6340 N   0  0  0  0  0  0  0  0  0  0  0  0
   37.1130   26.8310   42.7200 C   0  0  0  0  0  2  0  0  0  0  0  0
   37.1210   25.4030   42.1580 C   0  0  0  0  0  2  0  0  0  0  0  0
   38.5050   25.3820   41.5340 C   0  0  0  0  0  2  0  0  0  0  0  0
   38.4370   26.6810   40.7290 C   0  0  0  0  0  3  0  0  0  0  0  0
   37.7470   26.4890   39.8800 H   0  0  0  0  0  0  0  0  0  0  0  0
   37.2060   33.0670   39.3410 C   0  0  0  0  0  0  0  0  0  0  0  0
   37.2160   31.6550   39.4060 C   0  0  0  0  0  0  0  0  0  0  0  0
   38.1790   31.0650   40.2470 C   0  0  0  0  0  0  0  0  0  0  0  0
   39.0260   31.8560   40.9320 N   0  0  0  0  0  0  0  0  0  0  0  0
   38.9850   33.2120   40.8420 C   0  0  0  0  0  0  0  0  0  0  0  0
   38.0760   33.7980   40.0490 N   0  0  0  0  0  0  0  0  0  0  0  0
   36.4400   33.4790   38.6760 H   0  0  0  0  0  0  0  0  0  0  0  0
   36.5450   31.0200   38.8640 H   0  0  0  0  0  0  0  0  0  0  0  0
   39.6690   33.8410   41.3960 H   0  0  0  0  0  0  0  0  0  0  0  0
  1  5  1  0  0  0  0
  1  2  2  0  0  0  0
  3  1  1  0  0  0  0
  4  3  1  0  0  0  0
  5  6  1  0  0  0  0
  7  6  1  0  0  0  0
  8  7  1  0  0  0  0
  9  8  1  0  0  0  0
  9  5  1  0  0  0  0
 10  9  1  0  0  0  0
 11 12  2  0  0  0  0
 11 16  1  0  0  0  0
 12 13  1  0  0  0  0
 13  3  1  0  0  0  0
 13 14  2  0  0  0  0
 15 14  1  0  0  0  0
 15 19  1  0  0  0  0
 16 15  2  0  0  0  0
 17 11  1  0  0  0  0
 18 12  1  0  0  0  0
M  END
>  <minimizedAffinity>
-4.06523228

$$$$

 OpenBabel03252503363D

 19 20  0  0  0  0  0  0  0  0999 V2000
   38.5750   29.5150   42.0980 C   0  0  0  0  0  0  0  0  0  0  0  0
   37.3690   29.8150   42.3030 O   0  0  0  0  0  0  0  0  0  0  0  0
   39.2690   30.3500   41.1860 N   0  0  0  0  0  0  0  0  0  0  0  0
   40.2870   30.1120   40.9890 H   0  0  0  0  0  0  0  0  0  0  0  0
   39.2000   28.4100   42.7410 N   0  0  0  0  0  0  0  0  0  0  0  0
   38.5410   27.5260   43.6770 C   0  0  0  0  0  2  0  0  0  0  0  0
   39.4920   26.3220   43.6690 C   0  0  0  0  0  2  0  0  0  0  0  0
   40.8250   27.0500   43.6800 C   0  0  0  0  0  2  0  0  0  0  0  0
   40.5840   28.0310   42.5320 C   0  0  0  0  0  3  0  0  0  0  0  0
   40.6020   27.4310   41.5960 H   0  0  0  0  0  0  0  0  0  0  0  0
   38.1770   33.8110   40.3110 C   0  0  0  0  0  0  0  0  0  0  0  0
   38.8720   32.7810   40.9840 C   0  0  0  0  0  0  0  0  0  0  0  0
   38.6140   31.4620   40.5660 C   0  0  0  0  0  0  0  0  0  0  0  0
   37.7360   31.2490   39.5670 N   0  0  0  0  0  0  0  0  0  0  0  0
   37.0860   32.2680   38.9440 C   0  0  0  0  0  0  0  0  0  0  0  0
   37.3150   33.5340   39.3240 N   0  0  0  0  0  0  0  0  0  0  0  0
   38.4100   34.8190   40.6700 H   0  0  0  0  0  0  0  0  0  0  0  0
   39.5720   32.9440   41.7780 H   0  0  0  0  0  0  0  0  0  0  0  0
   36.3810   32.0880   38.1430 H   0  0  0  0  0  0  0  0  0  0  0  0
  1  2  2  0  0  0  0
  1  5  1  0  0  0  0
  3  1  1  0  0  0  0
  4  3  1  0  0  0  0
  5  6  1  0  0  0  0
  7  6  1  0  0  0  0
  7  8  1  0  0  0  0
  9  5  1  0  0  0  0
  9  8  1  0  0  0  0
 10  9  1  0  0  0  0
 11 17  1  0  0  0  0
 11 12  1  0  0  0  0
 12 18  1  0  0  0  0
 13 12  2  0  0  0  0
 13  3  1  0  0  0  0
 14 13  1  0  0  0  0
 15 16  1  0  0  0  0
 15 14  2  0  0  0  0
 16 11  2  0  0  0  0
 19 15  1  0  0  0  0
M  END
>  <minimizedAffinity>
-4.02178049

$$$$

 OpenBabel03252503363D

 19 20  0  0  0  0  0  0  0  0999 V2000
   38.2190   30.6230   41.1340 C   0  0  0  0  0  0  0  0  0  0  0  0
   38.9820   30.3510   42.0980 O   0  0  0  0  0  0  0  0  0  0  0  0
   37.4580   29.5360   40.6300 N   0  0  0  0  0  0  0  0  0  0  0  0
   36.8110   29.7380   39.8090 H   0  0  0  0  0  0  0  0  0  0  0  0
   38.1240   31.9320   40.5880 N   0  0  0  0  0  0  0  0  0  0  0  0
   38.8750   33.0740   41.0620 C   0  0  0  0  0  2  0  0  0  0  0  0
   38.7410   34.0340   39.8720 C   0  0  0  0  0  2  0  0  0  0  0  0
   37.2770   33.8130   39.5310 C   0  0  0  0  0  2  0  0  0  0  0  0
   37.2590   32.2850   39.4790 C   0  0  0  0  0  3  0  0  0  0  0  0
   37.8060   31.9950   38.5560 H   0  0  0  0  0  0  0  0  0  0  0  0
   36.8990   26.5250   42.7640 C   0  0  0  0  0  0  0  0  0  0  0  0
   36.7140   27.8300   42.2560 C   0  0  0  0  0  0  0  0  0  0  0  0
   37.5680   28.2330   41.2100 C   0  0  0  0  0  0  0  0  0  0  0  0
   38.4990   27.3730   40.7550 N   0  0  0  0  0  0  0  0  0  0  0  0
   38.6460   26.1240   41.2710 C   0  0  0  0  0  0  0  0  0  0  0  0
   37.8450   25.7170   42.2670 N   0  0  0  0  0  0  0  0  0  0  0  0
   36.2130   26.2570   43.5740 H   0  0  0  0  0  0  0  0  0  0  0  0
   35.9750   28.5180   42.6130 H   0  0  0  0  0  0  0  0  0  0  0  0
   39.3970   25.4390   40.9000 H   0  0  0  0  0  0  0  0  0  0  0  0
  1  2  2  0  0  0  0
  3  1  1  0  0  0  0
  3 13  1  0  0  0  0
  4  3  1  0  0  0  0
  5  6  1  0  0  0  0
  5  1  1  0  0  0  0
  7  6  1  0  0  0  0
  8  7  1  0  0  0  0
  9  8  1  0  0  0  0
  9  5  1  0  0  0  0
 10  9  1  0  0  0  0
 11 17  1  0  0  0  0
 12 18  1  0  0  0  0
 12 11  2  0  0  0  0
 13 12  1  0  0  0  0
 14 13  2  0  0  0  0
 14 15  1  0  0  0  0
 15 16  2  0  0  0  0
 16 11  1  0  0  0  0
 19 15  1  0  0  0  0
M  END
>  <minimizedAffinity>
-3.9709003

$$$$

 OpenBabel03252503363D

 19 20  0  0  0  0  0  0  0  0999 V2000
   38.2850   28.8510   40.7710 C   0  0  0  0  0  0  0  0  0  0  0  0
   39.0440   29.1100   39.8000 O   0  0  0  0  0  0  0  0  0  0  0  0
   37.6300   29.9670   41.3530 N   0  0  0  0  0  0  0  0  0  0  0  0
   36.9910   29.7760   42.1810 H   0  0  0  0  0  0  0  0  0  0  0  0
   38.0970   27.5260   41.2530 N   0  0  0  0  0  0  0  0  0  0  0  0
   38.7380   26.3540   40.7000 C   0  0  0  0  0  2  0  0  0  0  0  0
   38.5550   25.3470   41.8440 C   0  0  0  0  0  2  0  0  0  0  0  0
   37.1240   25.6670   42.2390 C   0  0  0  0  0  2  0  0  0  0  0  0
   37.2340   27.1870   42.3680 C   0  0  0  0  0  3  0  0  0  0  0  0
   37.8260   27.3820   43.2880 H   0  0  0  0  0  0  0  0  0  0  0  0
   37.2410   33.1400   39.4250 C   0  0  0  0  0  0  0  0  0  0  0  0
   36.9590   31.8310   39.8740 C   0  0  0  0  0  0  0  0  0  0  0  0
   37.8330   31.2870   40.8360 C   0  0  0  0  0  0  0  0  0  0  0  0
   38.8720   32.0240   41.2710 N   0  0  0  0  0  0  0  0  0  0  0  0
   39.1100   33.2820   40.8130 C   0  0  0  0  0  0  0  0  0  0  0  0
   38.2920   33.8230   39.8970 N   0  0  0  0  0  0  0  0  0  0  0  0
   36.5350   33.5200   38.6790 H   0  0  0  0  0  0  0  0  0  0  0  0
   36.1340   31.2390   39.5330 H   0  0  0  0  0  0  0  0  0  0  0  0
   39.9470   33.8690   41.1680 H   0  0  0  0  0  0  0  0  0  0  0  0
  1  5  1  0  0  0  0
  1  3  1  0  0  0  0
  2  1  2  0  0  0  0
  3  4  1  0  0  0  0
  5  9  1  0  0  0  0
  6  5  1  0  0  0  0
  6  7  1  0  0  0  0
  7  8  1  0  0  0  0
  8  9  1  0  0  0  0
  9 10  1  0  0  0  0
 11 12  2  0  0  0  0
 11 16  1  0  0  0  0
 12 13  1  0  0  0  0
 13 14  2  0  0  0  0
 13  3  1  0  0  0  0
 15 19  1  0  0  0  0
 15 14  1  0  0  0  0
 16 15  2  0  0  0  0
 17 11  1  0  0  0  0
 18 12  1  0  0  0  0
M  END
>  <minimizedAffinity>
-3.95870852

$$$$

 OpenBabel03252503363D

 19 20  0  0  0  0  0  0  0  0999 V2000
   37.7620   28.7060   41.3360 C   0  0  0  0  0  0  0  0  0  0  0  0
   37.1800   28.4440   42.4210 O   0  0  0  0  0  0  0  0  0  0  0  0
   38.7330   27.7610   40.9170 N   0  0  0  0  0  0  0  0  0  0  0  0
   39.2460   27.9650   40.0070 H   0  0  0  0  0  0  0  0  0  0  0  0
   37.4640   29.8730   40.5790 N   0  0  0  0  0  0  0  0  0  0  0  0
   36.4850   30.8680   40.9580 C   0  0  0  0  0  2  0  0  0  0  0  0
   36.9110   32.0540   40.0820 C   0  0  0  0  0  2  0  0  0  0  0  0
   37.2070   31.3190   38.7850 C   0  0  0  0  0  2  0  0  0  0  0  0
   38.1110   30.2110   39.3270 C   0  0  0  0  0  3  0  0  0  0  0  0
   39.0740   30.6950   39.5970 H   0  0  0  0  0  0  0  0  0  0  0  0
   38.6810   24.2730   42.2460 C   0  0  0  0  0  0  0  0  0  0  0  0
   38.3510   25.3720   41.4220 C   0  0  0  0  0  0  0  0  0  0  0  0
   39.0010   26.5910   41.6960 C   0  0  0  0  0  0  0  0  0  0  0  0
   39.8860   26.6490   42.7090 N   0  0  0  0  0  0  0  0  0  0  0  0
   40.1770   25.5670   43.4810 C   0  0  0  0  0  0  0  0  0  0  0  0
   39.5710   24.3950   43.2390 N   0  0  0  0  0  0  0  0  0  0  0  0
   38.1510   23.3480   41.9930 H   0  0  0  0  0  0  0  0  0  0  0  0
   37.6480   25.3320   40.6140 H   0  0  0  0  0  0  0  0  0  0  0  0
   40.8890   25.6220   44.2930 H   0  0  0  0  0  0  0  0  0  0  0  0
  1  2  2  0  0  0  0
  3  1  1  0  0  0  0
  3 13  1  0  0  0  0
  4  3  1  0  0  0  0
  5  6  1  0  0  0  0
  5  1  1  0  0  0  0
  7  6  1  0  0  0  0
  8  9  1  0  0  0  0
  8  7  1  0  0  0  0
  9 10  1  0  0  0  0
  9  5  1  0  0  0  0
 11 16  1  0  0  0  0
 12 13  1  0  0  0  0
 12 11  2  0  0  0  0
 13 14  2  0  0  0  0
 14 15  1  0  0  0  0
 15 19  1  0  0  0  0
 16 15  2  0  0  0  0
 17 11  1  0  0  0  0
 18 12  1  0  0  0  0
M  END
>  <minimizedAffinity>
-3.91785932

$$$$

 OpenBabel03252503363D

 19 20  0  0  0  0  0  0  0  0999 V2000
   38.5450   28.9220   40.6860 C   0  0  0  0  0  0  0  0  0  0  0  0
   39.4510   28.2880   40.0860 O   0  0  0  0  0  0  0  0  0  0  0  0
   38.0640   28.3240   41.8800 N   0  0  0  0  0  0  0  0  0  0  0  0
   37.2920   28.8370   42.4010 H   0  0  0  0  0  0  0  0  0  0  0  0
   38.0370   30.1590   40.2010 N   0  0  0  0  0  0  0  0  0  0  0  0
   38.4890   30.8130   38.9920 C   0  0  0  0  0  2  0  0  0  0  0  0
   37.3330   31.7880   38.7310 C   0  0  0  0  0  2  0  0  0  0  0  0
   37.0810   32.2700   40.1490 C   0  0  0  0  0  2  0  0  0  0  0  0
   36.9950   30.9200   40.8610 C   0  0  0  0  0  3  0  0  0  0  0  0
   36.0320   30.4610   40.5490 H   0  0  0  0  0  0  0  0  0  0  0  0
   40.1310   25.7870   43.6760 C   0  0  0  0  0  0  0  0  0  0  0  0
   39.6650   27.0590   43.2750 C   0  0  0  0  0  0  0  0  0  0  0  0
   38.6060   27.0840   42.3470 C   0  0  0  0  0  0  0  0  0  0  0  0
   38.0990   25.9210   41.8980 N   0  0  0  0  0  0  0  0  0  0  0  0
   38.5760   24.7150   42.3090 C   0  0  0  0  0  0  0  0  0  0  0  0
   39.5840   24.6650   43.1920 N   0  0  0  0  0  0  0  0  0  0  0  0
   40.9550   25.8190   44.3980 H   0  0  0  0  0  0  0  0  0  0  0  0
   40.0630   27.9880   43.6290 H   0  0  0  0  0  0  0  0  0  0  0  0
   38.1630   23.7850   41.9430 H   0  0  0  0  0  0  0  0  0  0  0  0
  1  3  1  0  0  0  0
  2  1  2  0  0  0  0
  3 13  1  0  0  0  0
  3  4  1  0  0  0  0
  5  1  1  0  0  0  0
  5  9  1  0  0  0  0
  6  5  1  0  0  0  0
  7  6  1  0  0  0  0
  7  8  1  0  0  0  0
  8  9  1  0  0  0  0
 10  9  1  0  0  0  0
 11 17  1  0  0  0  0
 12 18  1  0  0  0  0
 12 11  1  0  0  0  0
 13 12  2  0  0  0  0
 14 15  2  0  0  0  0
 14 13  1  0  0  0  0
 15 16  1  0  0  0  0
 16 11  2  0  0  0  0
 19 15  1  0  0  0  0
M  END
>  <minimizedAffinity>
-3.85625291

$$$$

 OpenBabel03252503363D

 19 20  0  0  0  0  0  0  0  0999 V2000
   38.1290   27.9740   40.8470 C   0  0  0  0  0  0  0  0  0  0  0  0
   38.7250   28.2890   39.7840 O   0  0  0  0  0  0  0  0  0  0  0  0
   37.7070   29.0580   41.6590 N   0  0  0  0  0  0  0  0  0  0  0  0
   37.2090   28.8170   42.5670 H   0  0  0  0  0  0  0  0  0  0  0  0
   37.8920   26.6190   41.2090 N   0  0  0  0  0  0  0  0  0  0  0  0
   38.2990   25.4760   40.4200 C   0  0  0  0  0  2  0  0  0  0  0  0
   38.2180   24.3520   41.4620 C   0  0  0  0  0  2  0  0  0  0  0  0
   36.9210   24.7370   42.1520 C   0  0  0  0  0  2  0  0  0  0  0  0
   37.2110   26.2140   42.4230 C   0  0  0  0  0  3  0  0  0  0  0  0
   37.9740   26.2420   43.2300 H   0  0  0  0  0  0  0  0  0  0  0  0
   39.2940   32.4020   41.1720 C   0  0  0  0  0  0  0  0  0  0  0  0
   39.1450   31.0680   41.6130 C   0  0  0  0  0  0  0  0  0  0  0  0
   37.9510   30.4110   41.2590 C   0  0  0  0  0  0  0  0  0  0  0  0
   37.0280   31.0710   40.5350 N   0  0  0  0  0  0  0  0  0  0  0  0
   37.2080   32.3570   40.1300 C   0  0  0  0  0  0  0  0  0  0  0  0
   38.3370   33.0040   40.4530 N   0  0  0  0  0  0  0  0  0  0  0  0
   40.2380   32.8700   41.4700 H   0  0  0  0  0  0  0  0  0  0  0  0
   39.8760   30.5370   42.1890 H   0  0  0  0  0  0  0  0  0  0  0  0
   36.4610   32.8800   39.5480 H   0  0  0  0  0  0  0  0  0  0  0  0
  1  5  1  0  0  0  0
  1  3  1  0  0  0  0
  2  1  2  0  0  0  0
  3  4  1  0  0  0  0
  5  9  1  0  0  0  0
  6  5  1  0  0  0  0
  6  7  1  0  0  0  0
  7  8  1  0  0  0  0
  8  9  1  0  0  0  0
  9 10  1  0  0  0  0
 11 17  1  0  0  0  0
 11 12  1  0  0  0  0
 12 18  1  0  0  0  0
 13 12  2  0  0  0  0
 13  3  1  0  0  0  0
 14 13  1  0  0  0  0
 15 16  1  0  0  0  0
 15 14  2  0  0  0  0
 16 11  2  0  0  0  0
 19 15  1  0  0  0  0
M  END
>  <minimizedAffinity>
-3.80165291

$$$$
