
 OpenBabel03252508493D

 25 27  0  0  0  0  0  0  0  0999 V2000
   45.9500   34.1430   41.0180 C   0  0  0  0  0  0  0  0  0  0  0  0
   46.5340   34.8060   42.1180 C   0  0  0  0  0  0  0  0  0  0  0  0
   47.8670   35.2010   41.9860 C   0  0  0  0  0  0  0  0  0  0  0  0
   48.5150   34.9220   40.8100 N   0  0  0  0  0  0  0  0  0  0  0  0
   47.9190   34.2910   39.8000 C   0  0  0  0  0  0  0  0  0  0  0  0
   46.6330   33.9000   39.9020 N   0  0  0  0  0  0  0  0  0  0  0  0
   48.3450   35.7140   42.8150 H   0  0  0  0  0  0  0  0  0  0  0  0
   48.4230   34.0670   38.8690 H   0  0  0  0  0  0  0  0  0  0  0  0
   45.7540   35.0520   43.3180 C   0  0  0  0  0  0  0  0  0  0  0  0
   45.0440   36.2080   43.5380 C   0  0  0  0  0  0  0  0  0  0  0  0
   44.4740   36.0000   44.7790 C   0  0  0  0  0  0  0  0  0  0  0  0
   44.8180   34.7880   45.2800 N   0  0  0  0  0  0  0  0  0  0  0  0
   45.5920   34.2380   44.3760 N   0  0  0  0  0  0  0  0  0  0  0  0
   44.9320   37.0970   42.9140 H   0  0  0  0  0  0  0  0  0  0  0  0
   43.8240   36.7130   45.3040 H   0  0  0  0  0  0  0  0  0  0  0  0
   44.4960   34.4260   46.2110 H   0  0  0  0  0  0  0  0  0  0  0  0
   44.6370   33.7500   41.1370 O   0  0  0  0  0  0  0  0  0  0  0  0
   43.5600   34.3450   40.5340 C   0  0  0  0  0  0  0  0  0  0  0  0
   43.2170   35.5710   40.5600 O   0  0  0  0  0  0  0  0  0  0  0  0
   42.4850   33.8890   39.7110 N   0  0  0  0  0  0  0  0  0  0  0  0
   41.1530   34.3670   40.0260 C   0  0  0  0  0  2  0  0  0  0  0  0
   40.3170   33.1940   39.5100 C   0  0  0  0  0  2  0  0  0  0  0  0
   41.0130   33.0240   38.1520 C   0  0  0  0  0  2  0  0  0  0  0  0
   42.4630   33.0110   38.5830 C   0  0  0  0  0  3  0  0  0  0  0  0
   43.1640   33.3250   37.7780 H   0  0  0  0  0  0  0  0  0  0  0  0
  1 17  1  0  0  0  0
  1  2  1  0  0  0  0
  2  9  1  0  0  0  0
  3  2  2  0  0  0  0
  3  7  1  0  0  0  0
  4  3  1  0  0  0  0
  5  6  1  0  0  0  0
  5  4  2  0  0  0  0
  6  1  2  0  0  0  0
  8  5  1  0  0  0  0
  9 10  1  0  0  0  0
  9 13  2  0  0  0  0
 10 11  2  0  0  0  0
 11 12  1  0  0  0  0
 11 15  1  0  0  0  0
 12 16  1  0  0  0  0
 13 12  1  0  0  0  0
 14 10  1  0  0  0  0
 18 19  2  0  0  0  0
 18 17  1  0  0  0  0
 20 21  1  0  0  0  0
 20 18  1  0  0  0  0
 22 21  1  0  0  0  0
 23 24  1  0  0  0  0
 23 22  1  0  0  0  0
 24 20  1  0  0  0  0
 25 24  1  0  0  0  0
M  END
>  <minimizedAffinity>
-5.3705678

>  <minimizedRMSD>
0.292052567

$$$$
