
 OpenBabel03252500253D

 34 36  0  0  1  0  0  0  0  0999 V2000
   46.8780   30.0140   48.0470 C   0  0  2  0  0  0  0  0  0  0  0  0
   45.4550   30.3790   48.2200 C   0  0  2  0  0  0  0  0  0  0  0  0
   44.7670   29.6130   47.1460 C   0  0  0  0  0  0  0  0  0  0  0  0
   45.4940   28.4560   46.9250 O   0  0  0  0  0  0  0  0  0  0  0  0
   46.6710   28.5470   47.5910 C   0  0  0  0  0  0  0  0  0  0  0  0
   47.5320   30.3720   47.3100 H   0  0  0  0  0  0  0  0  0  0  0  0
   45.1900   29.9940   49.2430 H   0  0  0  0  0  0  0  0  0  0  0  0
   43.8090   29.2270   47.6130 H   0  0  0  0  0  0  0  0  0  0  0  0
   44.4070   30.1460   46.2740 H   0  0  0  0  0  0  0  0  0  0  0  0
   46.5460   28.0000   48.5690 H   0  0  0  0  0  0  0  0  0  0  0  0
   47.5460   28.1390   47.0890 H   0  0  0  0  0  0  0  0  0  0  0  0
   45.2220   31.7320   48.1340 O   0  0  0  0  0  0  0  0  0  0  0  0
   47.4140   32.8680   47.4180 O   0  0  0  0  0  0  0  0  0  0  0  0
   46.0920   32.3950   46.8800 P   0  0  1  0  0  0  0  0  0  0  0  0
   46.3790   31.2050   45.7080 O   0  0  0  0  0  0  0  0  0  0  0  0
   45.8380   31.3930   44.9010 H   0  0  0  0  0  0  0  0  0  0  0  0
   45.3010   33.7430   46.1870 O   0  0  0  0  0  0  0  0  0  0  0  0
   45.2230   35.8570   43.3210 C   0  0  0  0  0  0  0  0  0  0  0  0
   46.2680   35.3610   42.4880 C   0  0  0  0  0  0  0  0  0  0  0  0
   46.9990   34.2570   42.9770 C   0  0  0  0  0  0  0  0  0  0  0  0
   46.6610   33.7510   44.1830 N   0  0  0  0  0  0  0  0  0  0  0  0
   45.6590   34.2580   44.9360 C   0  0  0  0  0  0  0  0  0  0  0  0
   44.9490   35.3100   44.4940 N   0  0  0  0  0  0  0  0  0  0  0  0
   46.5180   35.7800   41.5340 H   0  0  0  0  0  0  0  0  0  0  0  0
   47.8070   33.8220   42.4060 H   0  0  0  0  0  0  0  0  0  0  0  0
   44.5190   36.9360   42.8340 O   0  0  0  0  0  0  0  0  0  0  0  0
   45.0890   37.7210   42.4820 H   0  0  0  0  0  0  0  0  0  0  0  0
   47.6360   30.0710   49.1810 O   0  0  0  0  0  0  0  0  0  0  0  0
   49.5030   31.7640   50.7950 H   0  0  0  0  0  0  0  0  0  0  0  0
   49.2710   30.7700   50.5860 N   0  0  0  0  0  0  0  0  0  0  0  0
   50.3150   29.8480   50.9140 C   0  0  0  0  0  2  0  0  0  0  0  0
   50.9340   29.3850   49.6180 C   0  0  0  0  0  2  0  0  0  0  0  0
   49.8070   29.5140   48.6240 C   0  0  0  0  0  2  0  0  0  0  0  0
   48.8600   30.5610   49.2250 C   0  0  1  0  0  3  0  0  0  0  0  0
  1  6  1  6  0  0  0
  1  2  1  0  0  0  0
  1 28  1  0  0  0  0
  2  7  1  1  0  0  0
  3  8  1  0  0  0  0
  3  2  1  0  0  0  0
  4  3  1  0  0  0  0
  4  5  1  0  0  0  0
  5  1  1  0  0  0  0
  5 10  1  0  0  0  0
  9  3  1  0  0  0  0
 11  5  1  0  0  0  0
 12  2  1  0  0  0  0
 14 13  2  1  0  0  0
 14 12  1  0  0  0  0
 15 14  1  0  0  0  0
 16 15  1  0  0  0  0
 17 14  1  0  0  0  0
 18 23  1  0  0  0  0
 19 20  1  0  0  0  0
 19 18  2  0  0  0  0
 20 21  2  0  0  0  0
 21 22  1  0  0  0  0
 22 17  1  0  0  0  0
 23 22  2  0  0  0  0
 24 19  1  0  0  0  0
 25 20  1  0  0  0  0
 26 18  1  0  0  0  0
 27 26  1  0  0  0  0
 30 29  1  0  0  0  0
 30 31  1  0  0  0  0
 32 31  1  0  0  0  0
 33 34  1  0  0  0  0
 33 32  1  0  0  0  0
 34 28  1  1  0  0  0
 34 30  1  0  0  0  0
M  END
>  <minimizedAffinity>
-5.06663036

>  <minimizedRMSD>
0.167012557

$$$$
