
 OpenBabel03242512083D

 30 32  0  0  1  0  0  0  0  0999 V2000
   48.1190   34.4360   41.1620 C   0  0  1  0  0  0  0  0  0  0  0  0
   48.8480   35.7490   41.6550 C   0  0  0  0  0  0  0  0  0  0  0  0
   49.0390   34.4420   42.2930 C   0  0  2  0  0  0  0  0  0  0  0  0
   48.4850   34.0950   40.1820 H   0  0  0  0  0  0  0  0  0  0  0  0
   48.1970   36.5310   42.0910 H   0  0  0  0  0  0  0  0  0  0  0  0
   49.6000   36.1510   40.9520 H   0  0  0  0  0  0  0  0  0  0  0  0
   48.5390   34.1260   43.2200 H   0  0  0  0  0  0  0  0  0  0  0  0
   46.6480   34.5110   41.3840 C   0  0  0  0  0  0  0  0  0  0  0  0
   45.9210   34.3130   40.4160 O   0  0  0  0  0  0  0  0  0  0  0  0
   45.4240   35.9660   42.9290 C   0  0  0  0  0  0  0  0  0  0  0  0
   46.0330   34.7930   42.6380 C   0  0  0  0  0  0  0  0  0  0  0  0
   46.0420   33.7960   43.6550 C   0  0  0  0  0  0  0  0  0  0  0  0
   45.4620   34.0320   44.8540 N   0  0  0  0  0  0  0  0  0  0  0  0
   44.8620   35.2330   45.0970 C   0  0  0  0  0  0  0  0  0  0  0  0
   44.8480   36.1640   44.1590 N   0  0  0  0  0  0  0  0  0  0  0  0
   45.4380   36.7020   42.1260 H   0  0  0  0  0  0  0  0  0  0  0  0
   46.4860   32.8210   43.5510 H   0  0  0  0  0  0  0  0  0  0  0  0
   44.3680   35.5380   46.0070 H   0  0  0  0  0  0  0  0  0  0  0  0
   50.3270   33.9330   42.1570 O   0  0  0  0  0  0  0  0  0  0  0  0
   48.9460   31.9570   43.0730 O   0  0  0  0  0  0  0  0  0  0  0  0
   50.1940   32.2410   42.2590 P   0  0  2  0  0  0  0  0  0  0  0  0
   51.5410   31.5090   42.9040 O   0  0  0  0  0  0  0  0  0  0  0  0
   52.1740   31.1950   42.1910 H   0  0  0  0  0  0  0  0  0  0  0  0
   49.8420   31.6490   40.6780 O   0  0  0  0  0  0  0  0  0  0  0  0
   52.1270   33.0350   40.4690 H   0  0  0  0  0  0  0  0  0  0  0  0
   52.1820   32.0150   40.5430 N   0  0  0  0  0  0  0  0  0  0  0  0
   53.2240   31.4020   39.7370 C   0  0  0  0  0  0  0  0  0  0  0  0
   52.8810   29.9160   39.8250 C   0  0  0  0  0  0  0  0  0  0  0  0
   51.4570   29.8600   40.3940 C   0  0  0  0  0  0  0  0  0  0  0  0
   51.0210   31.2890   40.0930 C   0  0  1  0  0  0  0  0  0  0  0  0
  1  4  1  6  0  0  0
  1  8  1  0  0  0  0
  1  2  1  0  0  0  0
  1  3  1  0  0  0  0
  2  5  1  0  0  0  0
  2  3  1  0  0  0  0
  3  7  1  1  0  0  0
  6  2  1  0  0  0  0
  8 11  1  0  0  0  0
  9  8  2  0  0  0  0
 10 15  1  0  0  0  0
 11 10  2  0  0  0  0
 11 12  1  0  0  0  0
 12 13  2  0  0  0  0
 13 14  1  0  0  0  0
 14 18  1  0  0  0  0
 15 14  2  0  0  0  0
 16 10  1  0  0  0  0
 17 12  1  0  0  0  0
 19 21  1  0  0  0  0
 19  3  1  0  0  0  0
 21 22  1  0  0  0  0
 21 20  2  1  0  0  0
 23 22  1  0  0  0  0
 24 21  1  0  0  0  0
 25 26  1  0  0  0  0
 27 28  1  0  0  0  0
 27 26  1  0  0  0  0
 28 29  1  0  0  0  0
 30 29  1  0  0  0  0
 30 26  1  0  0  0  0
 30 24  1  1  0  0  0
M  END
>  <minimizedAffinity>
-5.03902578

>  <minimizedRMSD>
1.76505864

$$$$
