
 OpenBabel03252508493D

 25 27  0  0  0  0  0  0  0  0999 V2000
   45.9510   34.1930   41.0240 C   0  0  0  0  0  0  0  0  0  0  0  0
   46.5430   34.8150   42.1430 C   0  0  0  0  0  0  0  0  0  0  0  0
   47.8900   35.1690   42.0340 C   0  0  0  0  0  0  0  0  0  0  0  0
   48.5420   34.8920   40.8600 N   0  0  0  0  0  0  0  0  0  0  0  0
   47.9370   34.3020   39.8300 C   0  0  0  0  0  0  0  0  0  0  0  0
   46.6380   33.9520   39.9100 N   0  0  0  0  0  0  0  0  0  0  0  0
   48.3750   35.6490   42.8780 H   0  0  0  0  0  0  0  0  0  0  0  0
   48.4450   34.0800   38.9000 H   0  0  0  0  0  0  0  0  0  0  0  0
   45.7580   35.0620   43.3400 C   0  0  0  0  0  0  0  0  0  0  0  0
   45.0800   36.2340   43.5740 C   0  0  0  0  0  0  0  0  0  0  0  0
   44.4910   36.0200   44.8050 C   0  0  0  0  0  0  0  0  0  0  0  0
   44.7940   34.7900   45.2870 N   0  0  0  0  0  0  0  0  0  0  0  0
   45.5610   34.2330   44.3810 N   0  0  0  0  0  0  0  0  0  0  0  0
   45.0000   37.1370   42.9650 H   0  0  0  0  0  0  0  0  0  0  0  0
   43.8560   36.7420   45.3370 H   0  0  0  0  0  0  0  0  0  0  0  0
   44.4520   34.4200   46.2070 H   0  0  0  0  0  0  0  0  0  0  0  0
   44.6250   33.8410   41.1210 O   0  0  0  0  0  0  0  0  0  0  0  0
   43.5680   34.5240   40.5760 C   0  0  0  0  0  0  0  0  0  0  0  0
   43.2790   35.7590   40.6960 O   0  0  0  0  0  0  0  0  0  0  0  0
   42.4660   34.1750   39.7380 N   0  0  0  0  0  0  0  0  0  0  0  0
   41.5390   35.2310   39.3790 C   0  0  0  0  0  2  0  0  0  0  0  0
   40.2610   34.4120   39.1840 C   0  0  0  0  0  2  0  0  0  0  0  0
   40.8610   33.2880   38.3280 C   0  0  0  0  0  2  0  0  0  0  0  0
   42.0770   32.9290   39.1550 C   0  0  0  0  0  3  0  0  0  0  0  0
   42.8890   32.4590   38.5600 H   0  0  0  0  0  0  0  0  0  0  0  0
  1 17  1  0  0  0  0
  1  2  1  0  0  0  0
  2  9  1  0  0  0  0
  3  2  2  0  0  0  0
  3  7  1  0  0  0  0
  4  3  1  0  0  0  0
  5  6  1  0  0  0  0
  5  4  2  0  0  0  0
  6  1  2  0  0  0  0
  8  5  1  0  0  0  0
  9 10  1  0  0  0  0
  9 13  2  0  0  0  0
 10 11  2  0  0  0  0
 11 12  1  0  0  0  0
 11 15  1  0  0  0  0
 12 16  1  0  0  0  0
 13 12  1  0  0  0  0
 14 10  1  0  0  0  0
 18 19  2  0  0  0  0
 18 17  1  0  0  0  0
 20 18  1  0  0  0  0
 21 20  1  0  0  0  0
 22 21  1  0  0  0  0
 23 24  1  0  0  0  0
 23 22  1  0  0  0  0
 24 20  1  0  0  0  0
 25 24  1  0  0  0  0
M  END
>  <minimizedAffinity>
-5.49990511

>  <minimizedRMSD>
0.461604357

$$$$
