
 OpenBabel03242521543D

 45 49  0  0  1  0  0  0  0  0999 V2000
   45.9850   32.2600   46.0930 C   0  0  0  0  0  0  0  0  0  0  0  0
   45.7910   32.9200   47.3050 C   0  0  0  0  0  0  0  0  0  0  0  0
   46.0250   32.3170   48.5470 C   0  0  0  0  0  0  0  0  0  0  0  0
   46.4640   31.0240   48.6210 C   0  0  0  0  0  0  0  0  0  0  0  0
   46.6620   30.3320   47.4120 C   0  0  0  0  0  0  0  0  0  0  0  0
   47.0500   29.0340   47.5260 C   0  0  0  0  0  0  0  0  0  0  0  0
   47.1860   28.2980   46.3490 C   0  0  0  0  0  0  0  0  0  0  0  0
   46.9020   28.9460   45.0950 C   0  0  0  0  0  0  0  0  0  0  0  0
   46.5190   30.2670   45.1480 C   0  0  0  0  0  0  0  0  0  0  0  0
   46.3930   31.0220   46.2270 C   0  0  0  0  0  0  0  0  0  0  0  0
   45.4370   33.9640   47.2590 H   0  0  0  0  0  0  0  0  0  0  0  0
   45.8280   32.9550   49.4040 H   0  0  0  0  0  0  0  0  0  0  0  0
   46.6400   30.5930   49.5980 H   0  0  0  0  0  0  0  0  0  0  0  0
   47.2440   28.5950   48.4980 H   0  0  0  0  0  0  0  0  0  0  0  0
   47.5010   27.2810   46.5180 H   0  0  0  0  0  0  0  0  0  0  0  0
   47.0870   28.1550   44.3840 H   0  0  0  0  0  0  0  0  0  0  0  0
   44.6380   29.8140   43.8440 C   0  0  0  0  0  0  0  0  0  0  0  0
   46.0200   30.2430   43.7880 C   0  0  0  0  0  0  0  0  0  0  0  0
   46.4300   30.3370   42.5250 C   0  0  0  0  0  0  0  0  0  0  0  0
   45.6690   30.0670   41.4060 C   0  0  0  0  0  0  0  0  0  0  0  0
   44.3650   29.6590   41.4870 C   0  0  0  0  0  0  0  0  0  0  0  0
   43.8530   29.5350   42.7450 C   0  0  0  0  0  0  0  0  0  0  0  0
   47.4810   30.6700   42.5810 H   0  0  0  0  0  0  0  0  0  0  0  0
   46.2390   30.2210   40.4870 H   0  0  0  0  0  0  0  0  0  0  0  0
   43.9500   29.5010   40.5090 H   0  0  0  0  0  0  0  0  0  0  0  0
   43.8640   29.6140   45.0200 O   0  0  0  0  0  0  0  0  0  0  0  0
   43.6820   28.6600   45.3460 H   0  0  0  0  0  0  0  0  0  0  0  0
   42.5390   29.1130   42.7660 O   0  0  0  0  0  0  0  0  0  0  0  0
   42.1830   31.4100   41.7730 H   0  0  0  0  0  0  0  0  0  0  0  0
   41.6040   31.2910   42.6570 N   0  0  0  0  0  0  0  0  0  0  0  0
   40.2700   31.7540   42.2480 C   0  0  0  0  0  0  0  0  0  0  0  0
   39.7560   30.7280   41.2840 C   0  0  0  0  0  0  0  0  0  0  0  0
   40.7930   29.6470   41.3170 C   0  0  0  0  0  0  0  0  0  0  0  0
   41.3800   29.8350   42.7280 C   0  0  1  0  0  0  0  0  0  0  0  0
   45.2760   34.1400   42.9480 C   0  0  0  0  0  0  0  0  0  0  0  0
   46.5900   34.5280   42.5960 C   0  0  0  0  0  0  0  0  0  0  0  0
   47.5960   34.0980   43.4350 C   0  0  0  0  0  0  0  0  0  0  0  0
   47.1980   33.3720   44.4770 N   0  0  0  0  0  0  0  0  0  0  0  0
   45.9770   32.9920   44.8380 C   0  0  0  0  0  0  0  0  0  0  0  0
   45.0410   33.4010   44.0360 N   0  0  0  0  0  0  0  0  0  0  0  0
   44.4860   34.4770   42.2870 H   0  0  0  0  0  0  0  0  0  0  0  0
   46.8060   35.1200   41.7320 H   0  0  0  0  0  0  0  0  0  0  0  0
   48.9660   34.3590   43.1750 N   0  0  0  0  0  0  0  0  0  0  0  0
   49.4830   33.5230   42.8250 H   0  0  0  0  0  0  0  0  0  0  0  0
   49.3460   35.3080   43.3390 H   0  0  0  0  0  0  0  0  0  0  0  0
  1 10  2  0  0  0  0
  1  2  1  0  0  0  0
  2  3  2  0  0  0  0
  3  4  1  0  0  0  0
  3 12  1  0  0  0  0
  4 13  1  0  0  0  0
  5  6  1  0  0  0  0
  5  4  2  0  0  0  0
  6 14  1  0  0  0  0
  7 15  1  0  0  0  0
  7  6  2  0  0  0  0
  8  9  2  0  0  0  0
  8  7  1  0  0  0  0
  9 10  1  0  0  0  0
 10  5  1  0  0  0  0
 11  2  1  0  0  0  0
 16  8  1  0  0  0  0
 17 26  1  0  0  0  0
 18 17  1  0  0  0  0
 18  9  1  0  0  0  0
 19 23  1  0  0  0  0
 19 18  2  0  0  0  0
 20 21  2  0  0  0  0
 20 19  1  0  0  0  0
 21 22  1  0  0  0  0
 22 28  1  0  0  0  0
 22 17  2  0  0  0  0
 24 20  1  0  0  0  0
 25 21  1  0  0  0  0
 26 27  1  0  0  0  0
 29 30  1  0  0  0  0
 30 34  1  0  0  0  0
 31 30  1  0  0  0  0
 32 33  1  0  0  0  0
 32 31  1  0  0  0  0
 33 34  1  0  0  0  0
 34 28  1  6  0  0  0
 35 40  1  0  0  0  0
 36 35  2  0  0  0  0
 36 37  1  0  0  0  0
 37 38  2  0  0  0  0
 38 39  1  0  0  0  0
 39  1  1  0  0  0  0
 40 39  2  0  0  0  0
 41 35  1  0  0  0  0
 42 36  1  0  0  0  0
 43 45  1  0  0  0  0
 43 37  1  0  0  0  0
 44 43  1  0  0  0  0
M  END
>  <minimizedAffinity>
-5.54956818

>  <minimizedRMSD>
1.53053236

$$$$
