
 OpenBabel03242516313D

 28 30  0  0  1  0  0  0  0  0999 V2000
   48.0230   34.6550   41.9790 C   0  0  2  0  0  0  0  0  0  0  0  0
   46.7360   33.8770   42.2980 C   0  0  1  0  0  0  0  0  0  0  0  0
   47.3000   32.6560   42.6190 O   0  0  0  0  0  0  0  0  0  0  0  0
   48.1280   32.3700   41.5310 C   0  0  0  0  0  0  0  0  0  0  0  0
   48.5150   33.6940   40.8920 C   0  0  1  0  0  0  0  0  0  0  0  0
   47.8300   35.6560   41.5950 H   0  0  0  0  0  0  0  0  0  0  0  0
   46.1630   33.8810   41.3440 H   0  0  0  0  0  0  0  0  0  0  0  0
   47.6650   31.6780   40.8180 H   0  0  0  0  0  0  0  0  0  0  0  0
   49.0470   31.8990   41.9340 H   0  0  0  0  0  0  0  0  0  0  0  0
   49.5950   33.7670   40.7100 H   0  0  0  0  0  0  0  0  0  0  0  0
   44.5170   36.0280   44.5070 C   0  0  0  0  0  0  0  0  0  0  0  0
   45.1900   35.6330   43.3480 C   0  0  0  0  0  0  0  0  0  0  0  0
   45.9660   34.4850   43.3780 C   0  0  0  0  0  0  0  0  0  0  0  0
   46.0330   33.7880   44.5590 N   0  0  0  0  0  0  0  0  0  0  0  0
   45.3820   34.1750   45.6690 C   0  0  0  0  0  0  0  0  0  0  0  0
   44.6200   35.2960   45.6510 N   0  0  0  0  0  0  0  0  0  0  0  0
   43.9290   36.9150   44.4490 H   0  0  0  0  0  0  0  0  0  0  0  0
   45.1770   36.1310   42.4080 H   0  0  0  0  0  0  0  0  0  0  0  0
   45.4490   33.6090   46.5890 H   0  0  0  0  0  0  0  0  0  0  0  0
   48.9160   34.5560   43.0010 O   0  0  0  0  0  0  0  0  0  0  0  0
   48.7380   33.7160   43.5010 H   0  0  0  0  0  0  0  0  0  0  0  0
   47.7350   33.9450   39.7570 O   0  0  0  0  0  0  0  0  0  0  0  0
   50.3710   33.3970   38.0160 H   0  0  0  0  0  0  0  0  0  0  0  0
   49.4620   33.0770   38.4150 N   0  0  0  0  0  0  0  0  0  0  0  0
   48.7810   32.1370   37.5490 C   0  0  0  0  0  0  0  0  0  0  0  0
   47.9890   33.0010   36.5910 C   0  0  0  0  0  0  0  0  0  0  0  0
   47.6900   34.2480   37.3900 C   0  0  0  0  0  0  0  0  0  0  0  0
   48.5390   34.1730   38.6330 C   0  0  1  0  0  0  0  0  0  0  0  0
  1  6  1  6  0  0  0
  1  2  1  0  0  0  0
  1 20  1  0  0  0  0
  2  7  1  6  0  0  0
  2  3  1  0  0  0  0
  2 13  1  0  0  0  0
  4  9  1  0  0  0  0
  4  3  1  0  0  0  0
  5 10  1  6  0  0  0
  5  4  1  0  0  0  0
  5  1  1  0  0  0  0
  8  4  1  0  0  0  0
 11 16  1  0  0  0  0
 12 13  1  0  0  0  0
 12 11  2  0  0  0  0
 13 14  2  0  0  0  0
 14 15  1  0  0  0  0
 15 19  1  0  0  0  0
 16 15  2  0  0  0  0
 17 11  1  0  0  0  0
 18 12  1  0  0  0  0
 20 21  1  0  0  0  0
 22  5  1  0  0  0  0
 23 24  1  0  0  0  0
 24 28  1  0  0  0  0
 25 24  1  0  0  0  0
 26 27  1  0  0  0  0
 26 25  1  0  0  0  0
 27 28  1  0  0  0  0
 28 22  1  1  0  0  0
M  END
>  <minimizedAffinity>
-4.77384377

>  <minimizedRMSD>
1.40444803

$$$$
