
 OpenBabel03252502233D

 31 33  0  0  1  0  0  0  0  0999 V2000
   46.7130   34.5700   42.1890 N   0  0  0  0  0  0  0  0  0  0  0  0
   48.1600   34.6250   42.1920 C   0  0  0  0  0  0  0  0  0  0  0  0
   48.5260   35.2940   40.8730 C   0  0  0  0  0  0  0  0  0  0  0  0
   48.1000   34.4350   39.7100 C   0  0  0  0  0  0  0  0  0  0  0  0
   46.7870   33.7690   39.8780 C   0  0  0  0  0  0  0  0  0  0  0  0
   45.9490   34.2460   41.0150 C   0  0  1  0  0  0  0  0  0  0  0  0
   48.5480   35.2560   43.0170 H   0  0  0  0  0  0  0  0  0  0  0  0
   48.5670   33.6180   42.1660 H   0  0  0  0  0  0  0  0  0  0  0  0
   49.6400   35.3800   40.8720 H   0  0  0  0  0  0  0  0  0  0  0  0
   48.0320   36.2780   40.8770 H   0  0  0  0  0  0  0  0  0  0  0  0
   48.0770   35.1050   38.8230 H   0  0  0  0  0  0  0  0  0  0  0  0
   48.9120   33.6900   39.4660 H   0  0  0  0  0  0  0  0  0  0  0  0
   46.2070   33.8430   38.9300 H   0  0  0  0  0  0  0  0  0  0  0  0
   46.9930   32.6760   40.0750 H   0  0  0  0  0  0  0  0  0  0  0  0
   45.3750   35.1420   40.6690 H   0  0  0  0  0  0  0  0  0  0  0  0
   44.4770   36.1650   44.7360 C   0  0  0  0  0  0  0  0  0  0  0  0
   45.1640   35.9940   43.5200 C   0  0  0  0  0  0  0  0  0  0  0  0
   45.9700   34.8430   43.3840 C   0  0  0  0  0  0  0  0  0  0  0  0
   46.0350   33.9720   44.4370 N   0  0  0  0  0  0  0  0  0  0  0  0
   45.3470   34.1940   45.5830 C   0  0  0  0  0  0  0  0  0  0  0  0
   44.5660   35.2990   45.7270 N   0  0  0  0  0  0  0  0  0  0  0  0
   43.8830   37.0710   44.7550 H   0  0  0  0  0  0  0  0  0  0  0  0
   45.1220   36.6750   42.6800 H   0  0  0  0  0  0  0  0  0  0  0  0
   45.3950   33.5130   46.4100 H   0  0  0  0  0  0  0  0  0  0  0  0
   45.0200   33.2410   41.3240 O   0  0  0  0  0  0  0  0  0  0  0  0
   42.0570   32.6330   41.4960 H   0  0  0  0  0  0  0  0  0  0  0  0
   42.7900   33.3440   41.6870 N   0  0  0  0  0  0  0  0  0  0  0  0
   42.2750   34.6620   41.9040 C   0  0  0  0  0  2  0  0  0  0  0  0
   42.3020   35.2730   40.5190 C   0  0  0  0  0  2  0  0  0  0  0  0
   43.6780   34.8070   40.0440 C   0  0  0  0  0  2  0  0  0  0  0  0
   43.8170   33.4200   40.6570 C   0  0  1  0  0  3  0  0  0  0  0  0
  1  2  1  0  0  0  0
  1 18  1  0  0  0  0
  2  7  1  0  0  0  0
  3 10  1  0  0  0  0
  3  2  1  0  0  0  0
  4  5  1  0  0  0  0
  4  3  1  0  0  0  0
  5 14  1  0  0  0  0
  5  6  1  0  0  0  0
  6 15  1  6  0  0  0
  6 25  1  0  0  0  0
  6  1  1  0  0  0  0
  8  2  1  0  0  0  0
  9  3  1  0  0  0  0
 11  4  1  0  0  0  0
 12  4  1  0  0  0  0
 13  5  1  0  0  0  0
 16 22  1  0  0  0  0
 16 21  1  0  0  0  0
 17 16  2  0  0  0  0
 18 17  1  0  0  0  0
 18 19  2  0  0  0  0
 19 20  1  0  0  0  0
 20 21  2  0  0  0  0
 20 24  1  0  0  0  0
 23 17  1  0  0  0  0
 26 27  1  0  0  0  0
 27 28  1  0  0  0  0
 29 28  1  0  0  0  0
 30 29  1  0  0  0  0
 30 31  1  0  0  0  0
 31 25  1  1  0  0  0
 31 27  1  0  0  0  0
M  END
>  <minimizedAffinity>
-5.2234478

>  <minimizedRMSD>
0.547387958

$$$$
