
 OpenBabel03242519083D

 44 47  0  0  1  0  0  0  0  0999 V2000
   48.2030   32.9570   38.5850 N   0  0  0  0  0  0  0  0  0  0  0  0
   49.2010   33.1420   38.2670 H   0  0  0  0  0  0  0  0  0  0  0  0
   47.4770   34.1660   41.8440 N   0  0  0  0  0  0  0  0  0  0  0  0
   47.3390   34.3350   40.4050 C   0  0  0  0  0  0  0  0  0  0  0  0
   47.8490   32.9920   39.9730 C   0  0  2  0  0  0  0  0  0  0  0  0
   49.1360   32.8910   40.7650 C   0  0  0  0  0  0  0  0  0  0  0  0
   48.7650   33.5790   42.0570 C   0  0  0  0  0  0  0  0  0  0  0  0
   46.2840   34.5150   40.1270 H   0  0  0  0  0  0  0  0  0  0  0  0
   48.0280   35.1210   40.0470 H   0  0  0  0  0  0  0  0  0  0  0  0
   47.1900   32.1760   40.2710 H   0  0  0  0  0  0  0  0  0  0  0  0
   49.9900   33.3660   40.2390 H   0  0  0  0  0  0  0  0  0  0  0  0
   49.3370   31.8240   40.9940 H   0  0  0  0  0  0  0  0  0  0  0  0
   48.7710   32.8780   42.9150 H   0  0  0  0  0  0  0  0  0  0  0  0
   49.5210   34.3940   42.1920 H   0  0  0  0  0  0  0  0  0  0  0  0
   44.8640   35.7760   43.9740 C   0  0  0  0  0  0  0  0  0  0  0  0
   45.6960   35.5480   42.8860 C   0  0  0  0  0  0  0  0  0  0  0  0
   46.5920   34.4810   42.8990 C   0  0  0  0  0  0  0  0  0  0  0  0
   46.5980   33.7040   44.0110 N   0  0  0  0  0  0  0  0  0  0  0  0
   45.7980   33.9140   45.0690 C   0  0  0  0  0  0  0  0  0  0  0  0
   44.9350   34.9590   45.0330 N   0  0  0  0  0  0  0  0  0  0  0  0
   44.1770   36.5880   43.9750 H   0  0  0  0  0  0  0  0  0  0  0  0
   45.6790   36.1810   42.0040 H   0  0  0  0  0  0  0  0  0  0  0  0
   45.9300   33.2030   45.8720 H   0  0  0  0  0  0  0  0  0  0  0  0
   47.9510   32.0610   36.2680 C   0  0  0  0  0  0  0  0  0  0  0  0
   47.4560   32.7070   37.4220 C   0  0  0  0  0  0  0  0  0  0  0  0
   46.1410   33.0820   37.3090 C   0  0  0  0  0  0  0  0  0  0  0  0
   45.3280   32.8870   36.2230 C   0  0  0  0  0  0  0  0  0  0  0  0
   45.8630   32.2500   35.1190 C   0  0  0  0  0  0  0  0  0  0  0  0
   47.1740   31.8480   35.1680 C   0  0  0  0  0  0  0  0  0  0  0  0
   45.6970   33.5880   38.1640 H   0  0  0  0  0  0  0  0  0  0  0  0
   44.2990   33.2230   36.2340 H   0  0  0  0  0  0  0  0  0  0  0  0
   45.2030   32.1080   34.2800 H   0  0  0  0  0  0  0  0  0  0  0  0
   48.2040   31.9900   32.9420 C   0  0  0  0  0  0  0  0  0  0  0  0
   48.1660   33.2690   33.0180 O   0  0  0  0  0  0  0  0  0  0  0  0
   47.6760   31.1950   34.0030 N   0  0  0  0  0  0  0  0  0  0  0  0
   47.6450   30.1490   33.9500 H   0  0  0  0  0  0  0  0  0  0  0  0
   48.7820   31.3460   31.7870 N   0  0  0  0  0  0  0  0  0  0  0  0
   48.6900   29.9550   31.3250 C   0  0  0  0  0  0  0  0  0  0  0  0
   48.3890   30.1830   29.8470 C   0  0  0  0  0  0  0  0  0  0  0  0
   49.0400   31.5060   29.5070 C   0  0  0  0  0  0  0  0  0  0  0  0
   49.6120   32.0150   30.8130 C   0  0  0  0  0  0  0  0  0  0  0  0
   49.5410   33.1170   30.9090 H   0  0  0  0  0  0  0  0  0  0  0  0
   50.4360   31.2950   36.3260 N   0  0  0  0  0  0  0  0  0  0  0  0
   49.3300   31.6350   36.3110 C   0  0  0  0  0  0  0  0  0  0  0  0
  1  5  1  0  0  0  0
  2  1  1  0  0  0  0
  3  7  1  0  0  0  0
  3 17  1  0  0  0  0
  4  3  1  0  0  0  0
  5 10  1  1  0  0  0
  5  4  1  0  0  0  0
  5  6  1  0  0  0  0
  6 12  1  0  0  0  0
  6  7  1  0  0  0  0
  7 14  1  0  0  0  0
  7 13  1  0  0  0  0
  8  4  1  0  0  0  0
  9  4  1  0  0  0  0
 11  6  1  0  0  0  0
 15 21  1  0  0  0  0
 15 20  1  0  0  0  0
 16 17  1  0  0  0  0
 16 15  2  0  0  0  0
 17 18  2  0  0  0  0
 18 19  1  0  0  0  0
 19 23  1  0  0  0  0
 20 19  2  0  0  0  0
 22 16  1  0  0  0  0
 24 44  1  0  0  0  0
 24 25  1  0  0  0  0
 25  1  1  0  0  0  0
 26 25  2  0  0  0  0
 26 30  1  0  0  0  0
 27 31  1  0  0  0  0
 27 26  1  0  0  0  0
 28 29  1  0  0  0  0
 28 27  2  0  0  0  0
 29 24  2  0  0  0  0
 32 28  1  0  0  0  0
 33 34  2  0  0  0  0
 33 35  1  0  0  0  0
 35 29  1  0  0  0  0
 36 35  1  0  0  0  0
 37 33  1  0  0  0  0
 38 37  1  0  0  0  0
 39 38  1  0  0  0  0
 40 39  1  0  0  0  0
 40 41  1  0  0  0  0
 41 42  1  0  0  0  0
 41 37  1  0  0  0  0
 44 43  3  0  0  0  0
M  END
>  <minimizedAffinity>
-5.97743988

>  <minimizedRMSD>
1.28561282

$$$$
