
 OpenBabel03242511073D

 24 26  0  0  1  0  0  0  0  0999 V2000
   37.6360   28.3580   43.1300 C   0  0  1  0  0  0  0  0  0  0  0  0
   38.4690   29.5860   42.9060 C   0  0  0  0  0  0  0  0  0  0  0  0
   37.3860   29.1450   41.9160 C   0  0  2  0  0  0  0  0  0  0  0  0
   36.8840   28.3820   43.9450 H   0  0  0  0  0  0  0  0  0  0  0  0
   39.5210   29.3590   42.6370 H   0  0  0  0  0  0  0  0  0  0  0  0
   38.2790   30.3960   43.6060 H   0  0  0  0  0  0  0  0  0  0  0  0
   37.7890   28.6720   40.9920 H   0  0  0  0  0  0  0  0  0  0  0  0
   38.2610   24.8000   42.2720 C   0  0  0  0  0  0  0  0  0  0  0  0
   39.5150   24.5710   42.9370 C   0  0  0  0  0  0  0  0  0  0  0  0
   40.1090   25.6580   43.6540 C   0  0  0  0  0  0  0  0  0  0  0  0
   39.4780   26.8360   43.6790 N   0  0  0  0  0  0  0  0  0  0  0  0
   38.2870   27.0210   43.0360 C   0  0  0  0  0  0  0  0  0  0  0  0
   37.6940   26.0080   42.3420 N   0  0  0  0  0  0  0  0  0  0  0  0
   37.8370   23.9620   41.7390 H   0  0  0  0  0  0  0  0  0  0  0  0
   40.0200   23.6180   42.9140 H   0  0  0  0  0  0  0  0  0  0  0  0
   41.0490   25.4410   44.1370 H   0  0  0  0  0  0  0  0  0  0  0  0
   36.2780   29.9890   41.7300 N   0  0  0  0  0  0  0  0  0  0  0  0
   35.8550   30.4080   42.5520 H   0  0  0  0  0  0  0  0  0  0  0  0
   36.6540   32.5170   41.5490 H   0  0  0  0  0  0  0  0  0  0  0  0
   36.5450   32.1240   40.6120 N   0  0  0  0  0  0  0  0  0  0  0  0
   37.6030   32.3420   39.6810 C   0  0  0  0  0  2  0  0  0  0  0  0
   37.2040   31.4020   38.5370 C   0  0  0  0  0  2  0  0  0  0  0  0
   36.7980   30.1680   39.3200 C   0  0  0  0  0  2  0  0  0  0  0  0
   36.1640   30.7360   40.5420 C   0  0  1  0  0  3  0  0  0  0  0  0
  1  4  1  1  0  0  0
  2  1  1  0  0  0  0
  2  6  1  0  0  0  0
  3  7  1  6  0  0  0
  3  2  1  0  0  0  0
  3  1  1  0  0  0  0
  5  2  1  0  0  0  0
  8 13  2  0  0  0  0
  8  9  1  0  0  0  0
  9 10  2  0  0  0  0
 10 11  1  0  0  0  0
 10 16  1  0  0  0  0
 12  1  1  0  0  0  0
 12 11  2  0  0  0  0
 13 12  1  0  0  0  0
 14  8  1  0  0  0  0
 15  9  1  0  0  0  0
 17  3  1  0  0  0  0
 17 18  1  0  0  0  0
 20 19  1  0  0  0  0
 21 20  1  0  0  0  0
 22 23  1  0  0  0  0
 22 21  1  0  0  0  0
 23 24  1  0  0  0  0
 24 20  1  0  0  0  0
 24 17  1  1  0  0  0
M  END
>  <minimizedAffinity>
-5.17522621

$$$$

 OpenBabel03242511073D

 24 26  0  0  1  0  0  0  0  0999 V2000
   38.0540   28.5400   43.1950 C   0  0  1  0  0  0  0  0  0  0  0  0
   38.8730   29.6960   42.6990 C   0  0  0  0  0  0  0  0  0  0  0  0
   37.6050   29.2260   41.9770 C   0  0  2  0  0  0  0  0  0  0  0  0
   37.4720   28.6780   44.1290 H   0  0  0  0  0  0  0  0  0  0  0  0
   39.8450   29.3890   42.2620 H   0  0  0  0  0  0  0  0  0  0  0  0
   38.8490   30.5740   43.3390 H   0  0  0  0  0  0  0  0  0  0  0  0
   37.8060   28.6510   41.0460 H   0  0  0  0  0  0  0  0  0  0  0  0
   40.3650   25.6610   43.5910 C   0  0  0  0  0  0  0  0  0  0  0  0
   39.6470   24.6320   42.8880 C   0  0  0  0  0  0  0  0  0  0  0  0
   38.3820   24.9640   42.3080 C   0  0  0  0  0  0  0  0  0  0  0  0
   37.9200   26.2120   42.4390 N   0  0  0  0  0  0  0  0  0  0  0  0
   38.6260   27.1670   43.1130 C   0  0  0  0  0  0  0  0  0  0  0  0
   39.8340   26.8840   43.6800 N   0  0  0  0  0  0  0  0  0  0  0  0
   41.3160   25.3810   44.0190 H   0  0  0  0  0  0  0  0  0  0  0  0
   40.0250   23.6260   42.7850 H   0  0  0  0  0  0  0  0  0  0  0  0
   37.8790   24.1610   41.7910 H   0  0  0  0  0  0  0  0  0  0  0  0
   36.5120   30.1090   41.9180 N   0  0  0  0  0  0  0  0  0  0  0  0
   36.2560   30.6060   42.7660 H   0  0  0  0  0  0  0  0  0  0  0  0
   36.8280   32.6200   41.5190 H   0  0  0  0  0  0  0  0  0  0  0  0
   36.5900   32.1650   40.6350 N   0  0  0  0  0  0  0  0  0  0  0  0
   37.4990   32.3230   39.5490 C   0  0  0  0  0  2  0  0  0  0  0  0
   36.9520   31.3080   38.5400 C   0  0  0  0  0  2  0  0  0  0  0  0
   36.6780   30.1270   39.4520 C   0  0  0  0  0  2  0  0  0  0  0  0
   36.2200   30.7750   40.7130 C   0  0  1  0  0  3  0  0  0  0  0  0
  1  4  1  1  0  0  0
  2  1  1  0  0  0  0
  2  6  1  0  0  0  0
  3  7  1  6  0  0  0
  3  2  1  0  0  0  0
  3  1  1  0  0  0  0
  5  2  1  0  0  0  0
  8 13  1  0  0  0  0
  8 14  1  0  0  0  0
  9  8  2  0  0  0  0
 10 11  2  0  0  0  0
 10  9  1  0  0  0  0
 11 12  1  0  0  0  0
 12  1  1  0  0  0  0
 12 13  2  0  0  0  0
 15  9  1  0  0  0  0
 16 10  1  0  0  0  0
 17  3  1  0  0  0  0
 17 18  1  0  0  0  0
 20 24  1  0  0  0  0
 20 19  1  0  0  0  0
 21 20  1  0  0  0  0
 22 23  1  0  0  0  0
 22 21  1  0  0  0  0
 23 24  1  0  0  0  0
 24 17  1  1  0  0  0
M  END
>  <minimizedAffinity>
-5.06252623

$$$$

 OpenBabel03242511073D

 24 26  0  0  1  0  0  0  0  0999 V2000
   36.7700   27.5930   42.6040 C   0  0  1  0  0  0  0  0  0  0  0  0
   37.5160   28.3520   43.6630 C   0  0  0  0  0  0  0  0  0  0  0  0
   37.2650   28.9340   42.2680 C   0  0  2  0  0  0  0  0  0  0  0  0
   35.6800   27.4460   42.7410 H   0  0  0  0  0  0  0  0  0  0  0  0
   38.5270   27.9430   43.8650 H   0  0  0  0  0  0  0  0  0  0  0  0
   36.9080   28.6650   44.5080 H   0  0  0  0  0  0  0  0  0  0  0  0
   38.1620   28.9210   41.6090 H   0  0  0  0  0  0  0  0  0  0  0  0
   37.5290   24.0510   41.7880 C   0  0  0  0  0  0  0  0  0  0  0  0
   38.6480   24.2060   40.8980 C   0  0  0  0  0  0  0  0  0  0  0  0
   39.0990   25.5310   40.6030 C   0  0  0  0  0  0  0  0  0  0  0  0
   38.4670   26.5680   41.1620 N   0  0  0  0  0  0  0  0  0  0  0  0
   37.4060   26.3870   42.0030 C   0  0  0  0  0  0  0  0  0  0  0  0
   36.9500   25.1380   42.3060 N   0  0  0  0  0  0  0  0  0  0  0  0
   37.2110   23.0390   41.9930 H   0  0  0  0  0  0  0  0  0  0  0  0
   39.1550   23.3660   40.4500 H   0  0  0  0  0  0  0  0  0  0  0  0
   39.9410   25.6000   39.9300 H   0  0  0  0  0  0  0  0  0  0  0  0
   36.4550   30.0770   42.1650 N   0  0  0  0  0  0  0  0  0  0  0  0
   36.4900   30.7550   42.9200 H   0  0  0  0  0  0  0  0  0  0  0  0
   36.6320   32.5500   41.5180 H   0  0  0  0  0  0  0  0  0  0  0  0
   36.4390   31.9960   40.6820 N   0  0  0  0  0  0  0  0  0  0  0  0
   37.3590   32.0990   39.5980 C   0  0  0  0  0  2  0  0  0  0  0  0
   36.8920   30.9570   38.6890 C   0  0  0  0  0  2  0  0  0  0  0  0
   36.6680   29.8590   39.7120 C   0  0  0  0  0  2  0  0  0  0  0  0
   36.1480   30.6010   40.8940 C   0  0  1  0  0  3  0  0  0  0  0  0
  1  4  1  1  0  0  0
  1  2  1  0  0  0  0
  2  5  1  0  0  0  0
  2  6  1  0  0  0  0
  3  7  1  6  0  0  0
  3  1  1  0  0  0  0
  3  2  1  0  0  0  0
  8 14  1  0  0  0  0
  8 13  1  0  0  0  0
  9  8  2  0  0  0  0
 10  9  1  0  0  0  0
 10 11  2  0  0  0  0
 11 12  1  0  0  0  0
 12 13  2  0  0  0  0
 12  1  1  0  0  0  0
 15  9  1  0  0  0  0
 16 10  1  0  0  0  0
 17  3  1  0  0  0  0
 17 18  1  0  0  0  0
 20 24  1  0  0  0  0
 20 19  1  0  0  0  0
 21 20  1  0  0  0  0
 22 21  1  0  0  0  0
 22 23  1  0  0  0  0
 23 24  1  0  0  0  0
 24 17  1  1  0  0  0
M  END
>  <minimizedAffinity>
-4.98978043

$$$$

 OpenBabel03242511073D

 24 26  0  0  1  0  0  0  0  0999 V2000
   37.7440   27.2380   42.1430 C   0  0  1  0  0  0  0  0  0  0  0  0
   36.6650   27.2320   43.1870 C   0  0  0  0  0  0  0  0  0  0  0  0
   36.7870   28.3520   42.1480 C   0  0  2  0  0  0  0  0  0  0  0  0
   37.6830   26.4870   41.3300 H   0  0  0  0  0  0  0  0  0  0  0  0
   37.0420   27.4480   44.2080 H   0  0  0  0  0  0  0  0  0  0  0  0
   35.9240   26.4470   43.0670 H   0  0  0  0  0  0  0  0  0  0  0  0
   37.2110   29.2970   42.5550 H   0  0  0  0  0  0  0  0  0  0  0  0
   41.0850   26.7030   43.6720 C   0  0  0  0  0  0  0  0  0  0  0  0
   41.7330   27.9490   43.3630 C   0  0  0  0  0  0  0  0  0  0  0  0
   40.9960   28.9310   42.6280 C   0  0  0  0  0  0  0  0  0  0  0  0
   39.7410   28.6540   42.2600 N   0  0  0  0  0  0  0  0  0  0  0  0
   39.1540   27.4610   42.5690 C   0  0  0  0  0  0  0  0  0  0  0  0
   39.8280   26.5020   43.2680 N   0  0  0  0  0  0  0  0  0  0  0  0
   41.6650   25.9810   44.2280 H   0  0  0  0  0  0  0  0  0  0  0  0
   42.7460   28.1680   43.6630 H   0  0  0  0  0  0  0  0  0  0  0  0
   41.5220   29.8500   42.4180 H   0  0  0  0  0  0  0  0  0  0  0  0
   35.7430   28.5070   41.2190 N   0  0  0  0  0  0  0  0  0  0  0  0
   34.8580   28.0520   41.4180 H   0  0  0  0  0  0  0  0  0  0  0  0
   35.7430   30.8790   42.1890 H   0  0  0  0  0  0  0  0  0  0  0  0
   35.8100   30.9310   41.1710 N   0  0  0  0  0  0  0  0  0  0  0  0
   36.9260   31.6280   40.6200 C   0  0  0  0  0  2  0  0  0  0  0  0
   36.8190   31.2560   39.1370 C   0  0  0  0  0  2  0  0  0  0  0  0
   36.5170   29.7730   39.2420 C   0  0  0  0  0  2  0  0  0  0  0  0
   35.6600   29.6880   40.4570 C   0  0  1  0  0  3  0  0  0  0  0  0
  1  4  1  6  0  0  0
  1  3  1  0  0  0  0
  1 12  1  0  0  0  0
  1  2  1  0  0  0  0
  2  5  1  0  0  0  0
  3  7  1  1  0  0  0
  3  2  1  0  0  0  0
  6  2  1  0  0  0  0
  8 14  1  0  0  0  0
  9 15  1  0  0  0  0
  9  8  1  0  0  0  0
 10  9  2  0  0  0  0
 11 12  2  0  0  0  0
 11 10  1  0  0  0  0
 12 13  1  0  0  0  0
 13  8  2  0  0  0  0
 16 10  1  0  0  0  0
 17 18  1  0  0  0  0
 17  3  1  0  0  0  0
 20 19  1  0  0  0  0
 21 20  1  0  0  0  0
 22 23  1  0  0  0  0
 22 21  1  0  0  0  0
 23 24  1  0  0  0  0
 24 20  1  0  0  0  0
 24 17  1  1  0  0  0
M  END
>  <minimizedAffinity>
-4.72008371

$$$$

 OpenBabel03242511073D

 24 26  0  0  1  0  0  0  0  0999 V2000
   36.2820   30.7280   40.9840 C   0  0  1  0  0  0  0  0  0  0  0  0
   35.8220   29.8260   39.8760 C   0  0  0  0  0  0  0  0  0  0  0  0
   36.6030   29.2990   41.0840 C   0  0  2  0  0  0  0  0  0  0  0  0
   35.5140   31.1500   41.6630 H   0  0  0  0  0  0  0  0  0  0  0  0
   36.3880   29.9680   38.9330 H   0  0  0  0  0  0  0  0  0  0  0  0
   34.7440   29.6960   39.8170 H   0  0  0  0  0  0  0  0  0  0  0  0
   37.6690   29.0690   40.8630 H   0  0  0  0  0  0  0  0  0  0  0  0
   39.5960   32.4000   40.9140 C   0  0  0  0  0  0  0  0  0  0  0  0
   39.2830   33.6040   40.1940 C   0  0  0  0  0  0  0  0  0  0  0  0
   37.9380   33.7950   39.7470 C   0  0  0  0  0  0  0  0  0  0  0  0
   37.0280   32.8530   40.0170 N   0  0  0  0  0  0  0  0  0  0  0  0
   37.3580   31.7200   40.7040 C   0  0  0  0  0  0  0  0  0  0  0  0
   38.6310   31.5050   41.1430 N   0  0  0  0  0  0  0  0  0  0  0  0
   40.6200   32.2830   41.2390 H   0  0  0  0  0  0  0  0  0  0  0  0
   40.0210   34.3620   39.9790 H   0  0  0  0  0  0  0  0  0  0  0  0
   37.7490   34.7130   39.2100 H   0  0  0  0  0  0  0  0  0  0  0  0
   35.9560   28.3970   41.9470 N   0  0  0  0  0  0  0  0  0  0  0  0
   35.0970   27.9630   41.6240 H   0  0  0  0  0  0  0  0  0  0  0  0
   36.6650   25.9620   41.5800 H   0  0  0  0  0  0  0  0  0  0  0  0
   37.1300   26.3280   42.4130 N   0  0  0  0  0  0  0  0  0  0  0  0
   38.5550   26.2780   42.4450 C   0  0  0  0  0  2  0  0  0  0  0  0
   38.8650   27.1360   43.6770 C   0  0  0  0  0  2  0  0  0  0  0  0
   37.9070   28.2930   43.4600 C   0  0  0  0  0  2  0  0  0  0  0  0
   36.7160   27.6350   42.8540 C   0  0  1  0  0  3  0  0  0  0  0  0
  1  3  1  0  0  0  0
  1  4  1  1  0  0  0
  2  1  1  0  0  0  0
  2  3  1  0  0  0  0
  3  7  1  6  0  0  0
  3 17  1  0  0  0  0
  5  2  1  0  0  0  0
  6  2  1  0  0  0  0
  8 13  1  0  0  0  0
  8 14  1  0  0  0  0
  9  8  2  0  0  0  0
 10 11  2  0  0  0  0
 10  9  1  0  0  0  0
 11 12  1  0  0  0  0
 12  1  1  0  0  0  0
 12 13  2  0  0  0  0
 15  9  1  0  0  0  0
 16 10  1  0  0  0  0
 18 17  1  0  0  0  0
 19 20  1  0  0  0  0
 20 21  1  0  0  0  0
 20 24  1  0  0  0  0
 21 22  1  0  0  0  0
 23 22  1  0  0  0  0
 24 17  1  6  0  0  0
 24 23  1  0  0  0  0
M  END
>  <minimizedAffinity>
-4.62676096

$$$$

 OpenBabel03242511073D

 24 26  0  0  1  0  0  0  0  0999 V2000
   37.1890   29.9610   40.6100 C   0  0  1  0  0  0  0  0  0  0  0  0
   35.7080   30.1200   40.4230 C   0  0  0  0  0  0  0  0  0  0  0  0
   36.5840   31.2450   40.9860 C   0  0  2  0  0  0  0  0  0  0  0  0
   37.8250   29.9170   39.7030 H   0  0  0  0  0  0  0  0  0  0  0  0
   35.1090   29.5360   41.1510 H   0  0  0  0  0  0  0  0  0  0  0  0
   35.3830   30.1420   39.3870 H   0  0  0  0  0  0  0  0  0  0  0  0
   36.4850   31.3820   42.0870 H   0  0  0  0  0  0  0  0  0  0  0  0
   39.4370   28.2350   43.0090 C   0  0  0  0  0  0  0  0  0  0  0  0
   38.5440   27.2580   43.5710 C   0  0  0  0  0  0  0  0  0  0  0  0
   37.1910   27.2330   43.1080 C   0  0  0  0  0  0  0  0  0  0  0  0
   36.8110   28.1130   42.1760 N   0  0  0  0  0  0  0  0  0  0  0  0
   37.6830   29.0300   41.6630 C   0  0  0  0  0  0  0  0  0  0  0  0
   38.9800   29.0820   42.0820 N   0  0  0  0  0  0  0  0  0  0  0  0
   40.4520   28.2310   43.3770 H   0  0  0  0  0  0  0  0  0  0  0  0
   38.8560   26.5500   44.3220 H   0  0  0  0  0  0  0  0  0  0  0  0
   36.5560   26.4840   43.5570 H   0  0  0  0  0  0  0  0  0  0  0  0
   36.7010   32.4290   40.2370 N   0  0  0  0  0  0  0  0  0  0  0  0
   35.9030   33.0550   40.2100 H   0  0  0  0  0  0  0  0  0  0  0  0
   38.2800   32.9750   42.1800 H   0  0  0  0  0  0  0  0  0  0  0  0
   38.7610   33.1480   41.2950 N   0  0  0  0  0  0  0  0  0  0  0  0
   39.9880   32.4580   41.0670 C   0  0  0  0  0  2  0  0  0  0  0  0
   40.2380   32.7570   39.5850 C   0  0  0  0  0  2  0  0  0  0  0  0
   38.8480   32.5420   39.0180 C   0  0  0  0  0  2  0  0  0  0  0  0
   37.9590   33.0450   40.1020 C   0  0  1  0  0  3  0  0  0  0  0  0
  1  4  1  6  0  0  0
  1  3  1  0  0  0  0
  1 12  1  0  0  0  0
  2  1  1  0  0  0  0
  2  3  1  0  0  0  0
  2  5  1  0  0  0  0
  3  7  1  1  0  0  0
  6  2  1  0  0  0  0
  8 14  1  0  0  0  0
  8  9  1  0  0  0  0
  9 15  1  0  0  0  0
 10 16  1  0  0  0  0
 10  9  2  0  0  0  0
 11 10  1  0  0  0  0
 12 13  1  0  0  0  0
 12 11  2  0  0  0  0
 13  8  2  0  0  0  0
 17  3  1  0  0  0  0
 18 17  1  0  0  0  0
 20 19  1  0  0  0  0
 21 20  1  0  0  0  0
 22 21  1  0  0  0  0
 23 22  1  0  0  0  0
 23 24  1  0  0  0  0
 24 17  1  1  0  0  0
 24 20  1  0  0  0  0
M  END
>  <minimizedAffinity>
-4.56737852

$$$$

 OpenBabel03242511073D

 24 26  0  0  1  0  0  0  0  0999 V2000
   37.8350   32.1660   38.3620 C   0  0  1  0  0  0  0  0  0  0  0  0
   38.8340   32.8930   39.2140 C   0  0  0  0  0  0  0  0  0  0  0  0
   39.2590   31.8820   38.1440 C   0  0  2  0  0  0  0  0  0  0  0  0
   37.2840   32.7480   37.5960 H   0  0  0  0  0  0  0  0  0  0  0  0
   38.8450   32.5470   40.2680 H   0  0  0  0  0  0  0  0  0  0  0  0
   38.9010   33.9610   39.0210 H   0  0  0  0  0  0  0  0  0  0  0  0
   39.5830   30.9000   38.5580 H   0  0  0  0  0  0  0  0  0  0  0  0
   35.5030   29.3090   38.8000 C   0  0  0  0  0  0  0  0  0  0  0  0
   35.3190   29.3200   40.2270 C   0  0  0  0  0  0  0  0  0  0  0  0
   36.0140   30.3080   40.9920 C   0  0  0  0  0  0  0  0  0  0  0  0
   36.8020   31.1810   40.3550 N   0  0  0  0  0  0  0  0  0  0  0  0
   36.9570   31.1440   38.9990 C   0  0  0  0  0  0  0  0  0  0  0  0
   36.3100   30.2140   38.2390 N   0  0  0  0  0  0  0  0  0  0  0  0
   34.9670   28.5520   38.2490 H   0  0  0  0  0  0  0  0  0  0  0  0
   34.6810   28.6130   40.7350 H   0  0  0  0  0  0  0  0  0  0  0  0
   35.8470   30.2780   42.0580 H   0  0  0  0  0  0  0  0  0  0  0  0
   40.0050   32.3520   37.0500 N   0  0  0  0  0  0  0  0  0  0  0  0
   39.6260   33.1260   36.5130 H   0  0  0  0  0  0  0  0  0  0  0  0
   41.6050   34.2820   36.5190 H   0  0  0  0  0  0  0  0  0  0  0  0
   42.1400   33.4890   36.8790 N   0  0  0  0  0  0  0  0  0  0  0  0
   42.9520   33.7120   38.0300 C   0  0  0  0  0  2  0  0  0  0  0  0
   43.3520   32.2810   38.4060 C   0  0  0  0  0  2  0  0  0  0  0  0
   42.0240   31.5670   38.2400 C   0  0  0  0  0  2  0  0  0  0  0  0
   41.4100   32.2630   37.0750 C   0  0  1  0  0  3  0  0  0  0  0  0
  1  4  1  6  0  0  0
  1 12  1  0  0  0  0
  1  2  1  0  0  0  0
  2  5  1  0  0  0  0
  3  1  1  0  0  0  0
  3  7  1  1  0  0  0
  3  2  1  0  0  0  0
  6  2  1  0  0  0  0
  8  9  1  0  0  0  0
  9 15  1  0  0  0  0
  9 10  2  0  0  0  0
 10 16  1  0  0  0  0
 11 10  1  0  0  0  0
 12 11  2  0  0  0  0
 13  8  2  0  0  0  0
 13 12  1  0  0  0  0
 14  8  1  0  0  0  0
 17  3  1  0  0  0  0
 18 17  1  0  0  0  0
 19 20  1  0  0  0  0
 20 24  1  0  0  0  0
 20 21  1  0  0  0  0
 21 22  1  0  0  0  0
 23 22  1  0  0  0  0
 24 17  1  1  0  0  0
 24 23  1  0  0  0  0
M  END
>  <minimizedAffinity>
-4.4477663

$$$$

 OpenBabel03242511073D

 24 26  0  0  1  0  0  0  0  0999 V2000
   37.3770   30.5700   39.6060 C   0  0  1  0  0  0  0  0  0  0  0  0
   37.0920   31.8500   40.3360 C   0  0  0  0  0  0  0  0  0  0  0  0
   37.3450   30.5300   41.0730 C   0  0  2  0  0  0  0  0  0  0  0  0
   38.3540   30.4710   39.0920 H   0  0  0  0  0  0  0  0  0  0  0  0
   36.0380   32.1820   40.2440 H   0  0  0  0  0  0  0  0  0  0  0  0
   37.8780   32.5970   40.2610 H   0  0  0  0  0  0  0  0  0  0  0  0
   36.4210   30.0620   41.4830 H   0  0  0  0  0  0  0  0  0  0  0  0
   34.2040   28.8460   38.7380 C   0  0  0  0  0  0  0  0  0  0  0  0
   34.3280   28.7410   37.3100 C   0  0  0  0  0  0  0  0  0  0  0  0
   35.5020   29.2780   36.6910 C   0  0  0  0  0  0  0  0  0  0  0  0
   36.4320   29.8520   37.4610 N   0  0  0  0  0  0  0  0  0  0  0  0
   36.2840   29.9360   38.8160 C   0  0  0  0  0  0  0  0  0  0  0  0
   35.1780   29.4360   39.4380 N   0  0  0  0  0  0  0  0  0  0  0  0
   33.3080   28.4330   39.1780 H   0  0  0  0  0  0  0  0  0  0  0  0
   33.5740   28.2770   36.6930 H   0  0  0  0  0  0  0  0  0  0  0  0
   35.5520   29.1770   35.6170 H   0  0  0  0  0  0  0  0  0  0  0  0
   38.4840   30.4370   41.8910 N   0  0  0  0  0  0  0  0  0  0  0  0
   39.0550   31.2680   42.0070 H   0  0  0  0  0  0  0  0  0  0  0  0
   36.4110   29.7430   43.2280 H   0  0  0  0  0  0  0  0  0  0  0  0
   37.2070   29.1700   43.5170 N   0  0  0  0  0  0  0  0  0  0  0  0
   37.0720   27.7540   43.4080 C   0  0  0  0  0  2  0  0  0  0  0  0
   38.5100   27.2890   43.6610 C   0  0  0  0  0  2  0  0  0  0  0  0
   39.2800   28.2890   42.8190 C   0  0  0  0  0  2  0  0  0  0  0  0
   38.4900   29.5420   42.9780 C   0  0  1  0  0  3  0  0  0  0  0  0
  1  4  1  6  0  0  0
  1  2  1  0  0  0  0
  1  3  1  0  0  0  0
  2  3  1  0  0  0  0
  3  7  1  1  0  0  0
  3 17  1  0  0  0  0
  5  2  1  0  0  0  0
  6  2  1  0  0  0  0
  8 14  1  0  0  0  0
  8 13  1  0  0  0  0
  9  8  2  0  0  0  0
 10  9  1  0  0  0  0
 10 11  2  0  0  0  0
 11 12  1  0  0  0  0
 12 13  2  0  0  0  0
 12  1  1  0  0  0  0
 15  9  1  0  0  0  0
 16 10  1  0  0  0  0
 17 18  1  0  0  0  0
 19 20  1  0  0  0  0
 21 20  1  0  0  0  0
 21 22  1  0  0  0  0
 23 24  1  0  0  0  0
 23 22  1  0  0  0  0
 24 17  1  6  0  0  0
 24 20  1  0  0  0  0
M  END
>  <minimizedAffinity>
-4.42353058

$$$$

 OpenBabel03242511073D

 24 26  0  0  1  0  0  0  0  0999 V2000
   39.5540   30.8240   42.8020 C   0  0  1  0  0  0  0  0  0  0  0  0
   41.0380   30.9760   42.6260 C   0  0  0  0  0  0  0  0  0  0  0  0
   40.0430   31.3600   41.5260 C   0  0  2  0  0  0  0  0  0  0  0  0
   39.0420   31.5100   43.5070 H   0  0  0  0  0  0  0  0  0  0  0  0
   41.5660   30.0080   42.5130 H   0  0  0  0  0  0  0  0  0  0  0  0
   41.4910   31.7420   43.2500 H   0  0  0  0  0  0  0  0  0  0  0  0
   39.9930   30.6250   40.6900 H   0  0  0  0  0  0  0  0  0  0  0  0
   39.2730   27.1320   43.0800 C   0  0  0  0  0  0  0  0  0  0  0  0
   37.8540   26.9510   42.9320 C   0  0  0  0  0  0  0  0  0  0  0  0
   37.0390   28.1130   42.7500 C   0  0  0  0  0  0  0  0  0  0  0  0
   37.6250   29.3140   42.7240 N   0  0  0  0  0  0  0  0  0  0  0  0
   38.9760   29.4530   42.8670 C   0  0  0  0  0  0  0  0  0  0  0  0
   39.7820   28.3670   43.0430 N   0  0  0  0  0  0  0  0  0  0  0  0
   39.8630   26.2380   43.2150 H   0  0  0  0  0  0  0  0  0  0  0  0
   37.3870   25.9790   42.9540 H   0  0  0  0  0  0  0  0  0  0  0  0
   35.9800   27.9300   42.6450 H   0  0  0  0  0  0  0  0  0  0  0  0
   39.9640   32.7110   41.1480 N   0  0  0  0  0  0  0  0  0  0  0  0
   40.7960   33.2830   41.2520 H   0  0  0  0  0  0  0  0  0  0  0  0
   40.4850   32.5260   38.6460 H   0  0  0  0  0  0  0  0  0  0  0  0
   39.5050   32.7900   38.7680 N   0  0  0  0  0  0  0  0  0  0  0  0
   38.5180   31.9460   38.1780 C   0  0  0  0  0  2  0  0  0  0  0  0
   37.2300   32.5010   38.7960 C   0  0  0  0  0  2  0  0  0  0  0  0
   37.6650   32.6760   40.2390 C   0  0  0  0  0  2  0  0  0  0  0  0
   39.0900   33.0950   40.1130 C   0  0  1  0  0  3  0  0  0  0  0  0
  1 12  1  0  0  0  0
  1  4  1  1  0  0  0
  2  1  1  0  0  0  0
  2  6  1  0  0  0  0
  3  7  1  6  0  0  0
  3  2  1  0  0  0  0
  3  1  1  0  0  0  0
  5  2  1  0  0  0  0
  8 14  1  0  0  0  0
  9 15  1  0  0  0  0
  9  8  2  0  0  0  0
 10  9  1  0  0  0  0
 11 10  2  0  0  0  0
 11 12  1  0  0  0  0
 12 13  2  0  0  0  0
 13  8  1  0  0  0  0
 16 10  1  0  0  0  0
 17 18  1  0  0  0  0
 17  3  1  0  0  0  0
 19 20  1  0  0  0  0
 20 24  1  0  0  0  0
 21 20  1  0  0  0  0
 21 22  1  0  0  0  0
 22 23  1  0  0  0  0
 24 23  1  0  0  0  0
 24 17  1  1  0  0  0
M  END
>  <minimizedAffinity>
-4.41629887

$$$$
