
 OpenBabel03242516323D

 28 30  0  0  1  0  0  0  0  0999 V2000
   37.8630   31.7710   40.6490 C   0  0  2  0  0  0  0  0  0  0  0  0
   38.5690   31.3400   39.3520 C   0  0  1  0  0  0  0  0  0  0  0  0
   37.4820   31.3740   38.4980 O   0  0  0  0  0  0  0  0  0  0  0  0
   36.5180   30.6000   39.1480 C   0  0  0  0  0  0  0  0  0  0  0  0
   36.8240   30.6460   40.6370 C   0  0  1  0  0  0  0  0  0  0  0  0
   38.5140   31.7290   41.5210 H   0  0  0  0  0  0  0  0  0  0  0  0
   38.9510   30.3180   39.5690 H   0  0  0  0  0  0  0  0  0  0  0  0
   36.4650   29.5770   38.7600 H   0  0  0  0  0  0  0  0  0  0  0  0
   35.5370   31.0920   38.9820 H   0  0  0  0  0  0  0  0  0  0  0  0
   35.9330   30.8750   41.2370 H   0  0  0  0  0  0  0  0  0  0  0  0
   41.4150   33.2090   37.6680 C   0  0  0  0  0  0  0  0  0  0  0  0
   40.4310   32.2310   37.8300 C   0  0  0  0  0  0  0  0  0  0  0  0
   39.6540   32.2400   38.9780 C   0  0  0  0  0  0  0  0  0  0  0  0
   39.8960   33.2230   39.9060 N   0  0  0  0  0  0  0  0  0  0  0  0
   40.8440   34.1600   39.7420 C   0  0  0  0  0  0  0  0  0  0  0  0
   41.6090   34.1610   38.6230 N   0  0  0  0  0  0  0  0  0  0  0  0
   41.9930   33.1730   36.7740 H   0  0  0  0  0  0  0  0  0  0  0  0
   40.1990   31.4470   37.1500 H   0  0  0  0  0  0  0  0  0  0  0  0
   41.0160   34.9260   40.4880 H   0  0  0  0  0  0  0  0  0  0  0  0
   37.1680   32.9270   40.4610 O   0  0  0  0  0  0  0  0  0  0  0  0
   36.9270   33.0030   39.5010 H   0  0  0  0  0  0  0  0  0  0  0  0
   37.4920   29.4840   41.0420 O   0  0  0  0  0  0  0  0  0  0  0  0
   37.0350   29.7980   44.2000 H   0  0  0  0  0  0  0  0  0  0  0  0
   36.9660   29.2380   43.3220 N   0  0  0  0  0  0  0  0  0  0  0  0
   37.1340   27.8190   43.5600 C   0  0  0  0  0  2  0  0  0  0  0  0
   38.6300   27.5960   43.5150 C   0  0  0  0  0  2  0  0  0  0  0  0
   39.1290   28.6680   42.5750 C   0  0  0  0  0  2  0  0  0  0  0  0
   37.9750   29.6120   42.3510 C   0  0  1  0  0  3  0  0  0  0  0  0
  1  6  1  1  0  0  0
  2  7  1  1  0  0  0
  2  1  1  0  0  0  0
  3  4  1  0  0  0  0
  3  2  1  0  0  0  0
  4  5  1  0  0  0  0
  5  1  1  0  0  0  0
  5 22  1  0  0  0  0
  5 10  1  1  0  0  0
  8  4  1  0  0  0  0
  9  4  1  0  0  0  0
 11 12  2  0  0  0  0
 11 16  1  0  0  0  0
 12 13  1  0  0  0  0
 13  2  1  0  0  0  0
 13 14  2  0  0  0  0
 15 14  1  0  0  0  0
 15 19  1  0  0  0  0
 16 15  2  0  0  0  0
 17 11  1  0  0  0  0
 18 12  1  0  0  0  0
 20  1  1  0  0  0  0
 21 20  1  0  0  0  0
 24 25  1  0  0  0  0
 24 23  1  0  0  0  0
 26 25  1  0  0  0  0
 27 26  1  0  0  0  0
 28 22  1  6  0  0  0
 28 27  1  0  0  0  0
 28 24  1  0  0  0  0
M  END
>  <minimizedAffinity>
-5.42473221

$$$$

 OpenBabel03242516323D

 28 30  0  0  1  0  0  0  0  0999 V2000
   36.7890   28.2550   41.9080 C   0  0  2  0  0  0  0  0  0  0  0  0
   38.1950   27.6370   41.8280 C   0  0  1  0  0  0  0  0  0  0  0  0
   38.6810   28.0560   43.0530 O   0  0  0  0  0  0  0  0  0  0  0  0
   38.4400   29.4320   43.0590 C   0  0  0  0  0  0  0  0  0  0  0  0
   37.2690   29.6940   42.1250 C   0  0  1  0  0  0  0  0  0  0  0  0
   36.2210   28.1400   40.9870 H   0  0  0  0  0  0  0  0  0  0  0  0
   38.6690   28.1340   40.9520 H   0  0  0  0  0  0  0  0  0  0  0  0
   39.3280   30.0180   42.7950 H   0  0  0  0  0  0  0  0  0  0  0  0
   38.1290   29.7050   44.0880 H   0  0  0  0  0  0  0  0  0  0  0  0
   36.5070   30.3370   42.5860 H   0  0  0  0  0  0  0  0  0  0  0  0
   38.8880   23.9040   41.7360 C   0  0  0  0  0  0  0  0  0  0  0  0
   39.1420   25.2580   41.9660 C   0  0  0  0  0  0  0  0  0  0  0  0
   38.1620   26.1890   41.6590 C   0  0  0  0  0  0  0  0  0  0  0  0
   36.9790   25.7240   41.1390 N   0  0  0  0  0  0  0  0  0  0  0  0
   36.7430   24.4200   40.9210 C   0  0  0  0  0  0  0  0  0  0  0  0
   37.6940   23.5000   41.2180 N   0  0  0  0  0  0  0  0  0  0  0  0
   39.6630   23.2150   41.9840 H   0  0  0  0  0  0  0  0  0  0  0  0
   40.0350   25.6760   42.3640 H   0  0  0  0  0  0  0  0  0  0  0  0
   35.8030   24.0770   40.5100 H   0  0  0  0  0  0  0  0  0  0  0  0
   36.1640   27.8890   43.0610 O   0  0  0  0  0  0  0  0  0  0  0  0
   36.8520   27.6790   43.7450 H   0  0  0  0  0  0  0  0  0  0  0  0
   37.7180   30.1550   40.8820 O   0  0  0  0  0  0  0  0  0  0  0  0
   35.6310   32.5690   40.5700 H   0  0  0  0  0  0  0  0  0  0  0  0
   36.6110   32.2100   40.5900 N   0  0  0  0  0  0  0  0  0  0  0  0
   37.4840   32.9440   39.6980 C   0  0  0  0  0  2  0  0  0  0  0  0
   37.3240   32.2620   38.3560 C   0  0  0  0  0  2  0  0  0  0  0  0
   36.9890   30.8330   38.7130 C   0  0  0  0  0  2  0  0  0  0  0  0
   36.6960   30.8190   40.1920 C   0  0  1  0  0  3  0  0  0  0  0  0
  1  6  1  6  0  0  0
  1  5  1  0  0  0  0
  1 20  1  0  0  0  0
  2  7  1  6  0  0  0
  2  1  1  0  0  0  0
  2  3  1  0  0  0  0
  3  4  1  0  0  0  0
  4  9  1  0  0  0  0
  5 10  1  1  0  0  0
  5  4  1  0  0  0  0
  8  4  1  0  0  0  0
 11 12  1  0  0  0  0
 11 17  1  0  0  0  0
 12 18  1  0  0  0  0
 13  2  1  0  0  0  0
 13 12  2  0  0  0  0
 14 13  1  0  0  0  0
 15 14  2  0  0  0  0
 15 16  1  0  0  0  0
 16 11  2  0  0  0  0
 19 15  1  0  0  0  0
 20 21  1  0  0  0  0
 22  5  1  0  0  0  0
 23 24  1  0  0  0  0
 25 24  1  0  0  0  0
 26 27  1  0  0  0  0
 26 25  1  0  0  0  0
 27 28  1  0  0  0  0
 28 24  1  0  0  0  0
 28 22  1  1  0  0  0
M  END
>  <minimizedAffinity>
-5.33517218

$$$$

 OpenBabel03242516323D

 28 30  0  0  1  0  0  0  0  0999 V2000
   36.7950   29.9270   41.6750 C   0  0  2  0  0  0  0  0  0  0  0  0
   37.7000   30.1340   40.4490 C   0  0  1  0  0  0  0  0  0  0  0  0
   36.7850   29.8370   39.4570 O   0  0  0  0  0  0  0  0  0  0  0  0
   36.2670   28.5960   39.8360 C   0  0  0  0  0  0  0  0  0  0  0  0
   36.4210   28.4790   41.3440 C   0  0  1  0  0  0  0  0  0  0  0  0
   37.3310   30.0140   42.6190 H   0  0  0  0  0  0  0  0  0  0  0  0
   38.5090   29.3790   40.5690 H   0  0  0  0  0  0  0  0  0  0  0  0
   36.7330   27.7620   39.2990 H   0  0  0  0  0  0  0  0  0  0  0  0
   35.1840   28.6070   39.5990 H   0  0  0  0  0  0  0  0  0  0  0  0
   35.4930   28.1510   41.8310 H   0  0  0  0  0  0  0  0  0  0  0  0
   39.8480   33.2670   40.5010 C   0  0  0  0  0  0  0  0  0  0  0  0
   39.5350   31.9150   40.6560 C   0  0  0  0  0  0  0  0  0  0  0  0
   38.2460   31.4850   40.3770 C   0  0  0  0  0  0  0  0  0  0  0  0
   37.3360   32.4230   39.9590 N   0  0  0  0  0  0  0  0  0  0  0  0
   37.6460   33.7220   39.8120 C   0  0  0  0  0  0  0  0  0  0  0  0
   38.9020   34.1530   40.0810 N   0  0  0  0  0  0  0  0  0  0  0  0
   40.8470   33.5620   40.7230 H   0  0  0  0  0  0  0  0  0  0  0  0
   40.1950   31.1440   40.9760 H   0  0  0  0  0  0  0  0  0  0  0  0
   36.9110   34.4440   39.4800 H   0  0  0  0  0  0  0  0  0  0  0  0
   35.6470   30.6490   41.5570 O   0  0  0  0  0  0  0  0  0  0  0  0
   35.4590   30.7950   40.5930 H   0  0  0  0  0  0  0  0  0  0  0  0
   37.5350   27.6960   41.6700 O   0  0  0  0  0  0  0  0  0  0  0  0
   38.6540   25.4490   39.6740 H   0  0  0  0  0  0  0  0  0  0  0  0
   38.7440   26.0220   40.5420 N   0  0  0  0  0  0  0  0  0  0  0  0
   39.4090   25.3040   41.6100 C   0  0  0  0  0  2  0  0  0  0  0  0
   38.3030   24.5360   42.3020 C   0  0  0  0  0  2  0  0  0  0  0  0
   37.0770   25.3910   42.0860 C   0  0  0  0  0  2  0  0  0  0  0  0
   37.4580   26.4350   41.0660 C   0  0  1  0  0  3  0  0  0  0  0  0
  1  6  1  1  0  0  0
  2  7  1  6  0  0  0
  2  1  1  0  0  0  0
  3  4  1  0  0  0  0
  3  2  1  0  0  0  0
  4  5  1  0  0  0  0
  5 22  1  0  0  0  0
  5  1  1  0  0  0  0
  5 10  1  1  0  0  0
  8  4  1  0  0  0  0
  9  4  1  0  0  0  0
 11 12  1  0  0  0  0
 11 17  1  0  0  0  0
 12 18  1  0  0  0  0
 13  2  1  0  0  0  0
 13 12  2  0  0  0  0
 14 13  1  0  0  0  0
 15 14  2  0  0  0  0
 15 16  1  0  0  0  0
 16 11  2  0  0  0  0
 19 15  1  0  0  0  0
 20  1  1  0  0  0  0
 21 20  1  0  0  0  0
 23 24  1  0  0  0  0
 24 28  1  0  0  0  0
 24 25  1  0  0  0  0
 25 26  1  0  0  0  0
 27 26  1  0  0  0  0
 28 22  1  1  0  0  0
 28 27  1  0  0  0  0
M  END
>  <minimizedAffinity>
-4.87921476

$$$$

 OpenBabel03242516323D

 28 30  0  0  1  0  0  0  0  0999 V2000
   37.6710   29.1910   41.9170 C   0  0  2  0  0  0  0  0  0  0  0  0
   38.8430   28.1970   41.8570 C   0  0  1  0  0  0  0  0  0  0  0  0
   39.6060   28.7050   42.8910 O   0  0  0  0  0  0  0  0  0  0  0  0
   39.7270   30.0630   42.5850 C   0  0  0  0  0  0  0  0  0  0  0  0
   38.5290   30.4470   41.7310 C   0  0  1  0  0  0  0  0  0  0  0  0
   36.9540   29.0530   41.1090 H   0  0  0  0  0  0  0  0  0  0  0  0
   39.2830   28.3450   40.8450 H   0  0  0  0  0  0  0  0  0  0  0  0
   40.6820   30.3050   42.1040 H   0  0  0  0  0  0  0  0  0  0  0  0
   39.6620   30.6210   43.5420 H   0  0  0  0  0  0  0  0  0  0  0  0
   38.0380   31.3610   42.0910 H   0  0  0  0  0  0  0  0  0  0  0  0
   36.9970   24.8810   42.0200 C   0  0  0  0  0  0  0  0  0  0  0  0
   37.1830   26.2430   41.7720 C   0  0  0  0  0  0  0  0  0  0  0  0
   38.4150   26.8150   42.0490 C   0  0  0  0  0  0  0  0  0  0  0  0
   39.3980   26.0030   42.5580 N   0  0  0  0  0  0  0  0  0  0  0  0
   39.2100   24.6940   42.7930 C   0  0  0  0  0  0  0  0  0  0  0  0
   38.0090   24.1230   42.5260 N   0  0  0  0  0  0  0  0  0  0  0  0
   36.0380   24.4740   41.7960 H   0  0  0  0  0  0  0  0  0  0  0  0
   36.4630   26.9200   41.3810 H   0  0  0  0  0  0  0  0  0  0  0  0
   40.0000   24.0730   43.1950 H   0  0  0  0  0  0  0  0  0  0  0  0
   37.1630   29.2660   43.1770 O   0  0  0  0  0  0  0  0  0  0  0  0
   37.8740   29.0170   43.8250 H   0  0  0  0  0  0  0  0  0  0  0  0
   38.8790   30.4920   40.3760 O   0  0  0  0  0  0  0  0  0  0  0  0
   39.6280   32.6500   38.1260 H   0  0  0  0  0  0  0  0  0  0  0  0
   38.9860   31.9230   38.5120 N   0  0  0  0  0  0  0  0  0  0  0  0
   37.5960   32.2040   38.2180 C   0  0  0  0  0  2  0  0  0  0  0  0
   37.1420   33.1150   39.3380 C   0  0  0  0  0  2  0  0  0  0  0  0
   38.0070   32.7100   40.5080 C   0  0  0  0  0  2  0  0  0  0  0  0
   39.0840   31.8120   39.9530 C   0  0  1  0  0  3  0  0  0  0  0  0
  1  6  1  6  0  0  0
  1 20  1  0  0  0  0
  2  7  1  6  0  0  0
  2  1  1  0  0  0  0
  2 13  1  0  0  0  0
  2  3  1  0  0  0  0
  4  3  1  0  0  0  0
  4  9  1  0  0  0  0
  5  1  1  0  0  0  0
  5 10  1  1  0  0  0
  5  4  1  0  0  0  0
  8  4  1  0  0  0  0
 11 16  1  0  0  0  0
 12 11  2  0  0  0  0
 12 13  1  0  0  0  0
 13 14  2  0  0  0  0
 14 15  1  0  0  0  0
 15 19  1  0  0  0  0
 16 15  2  0  0  0  0
 17 11  1  0  0  0  0
 18 12  1  0  0  0  0
 20 21  1  0  0  0  0
 22  5  1  0  0  0  0
 23 24  1  0  0  0  0
 24 28  1  0  0  0  0
 25 24  1  0  0  0  0
 25 26  1  0  0  0  0
 26 27  1  0  0  0  0
 28 22  1  6  0  0  0
 28 27  1  0  0  0  0
M  END
>  <minimizedAffinity>
-4.78231335

$$$$

 OpenBabel03242516323D

 28 30  0  0  1  0  0  0  0  0999 V2000
   38.2540   27.2400   41.4800 C   0  0  2  0  0  0  0  0  0  0  0  0
   38.9660   27.6060   42.7920 C   0  0  1  0  0  0  0  0  0  0  0  0
   38.1230   26.9620   43.6790 O   0  0  0  0  0  0  0  0  0  0  0  0
   36.8520   27.4270   43.3330 C   0  0  0  0  0  0  0  0  0  0  0  0
   36.9000   27.8410   41.8700 C   0  0  1  0  0  0  0  0  0  0  0  0
   38.6900   27.7270   40.6090 H   0  0  0  0  0  0  0  0  0  0  0  0
   38.9170   28.7170   42.8360 H   0  0  0  0  0  0  0  0  0  0  0  0
   36.5040   28.2340   43.9870 H   0  0  0  0  0  0  0  0  0  0  0  0
   36.1530   26.5710   43.4260 H   0  0  0  0  0  0  0  0  0  0  0  0
   36.0620   27.4260   41.2940 H   0  0  0  0  0  0  0  0  0  0  0  0
   42.7450   27.2180   42.8360 C   0  0  0  0  0  0  0  0  0  0  0  0
   41.5160   27.8790   42.7620 C   0  0  0  0  0  0  0  0  0  0  0  0
   40.3470   27.1370   42.8300 C   0  0  0  0  0  0  0  0  0  0  0  0
   40.4610   25.7760   42.9670 N   0  0  0  0  0  0  0  0  0  0  0  0
   41.6470   25.1490   43.0370 C   0  0  0  0  0  0  0  0  0  0  0  0
   42.7960   25.8640   42.9730 N   0  0  0  0  0  0  0  0  0  0  0  0
   43.6230   27.8190   42.7810 H   0  0  0  0  0  0  0  0  0  0  0  0
   41.3660   28.9270   42.6550 H   0  0  0  0  0  0  0  0  0  0  0  0
   41.7110   24.0740   43.1460 H   0  0  0  0  0  0  0  0  0  0  0  0
   38.0570   25.8960   41.3930 O   0  0  0  0  0  0  0  0  0  0  0  0
   38.0230   25.5170   42.3110 H   0  0  0  0  0  0  0  0  0  0  0  0
   37.0320   29.2300   41.7520 O   0  0  0  0  0  0  0  0  0  0  0  0
   34.8570   31.4550   40.9780 H   0  0  0  0  0  0  0  0  0  0  0  0
   35.8470   31.1680   41.1410 N   0  0  0  0  0  0  0  0  0  0  0  0
   36.7730   31.8770   40.2820 C   0  0  0  0  0  2  0  0  0  0  0  0
   36.8100   31.0670   39.0040 C   0  0  0  0  0  2  0  0  0  0  0  0
   36.5200   29.6570   39.4600 C   0  0  0  0  0  2  0  0  0  0  0  0
   36.0600   29.7560   40.8920 C   0  0  1  0  0  3  0  0  0  0  0  0
  1  6  1  6  0  0  0
  1  5  1  0  0  0  0
  1  2  1  0  0  0  0
  2 13  1  0  0  0  0
  2  7  1  1  0  0  0
  2  3  1  0  0  0  0
  4  9  1  0  0  0  0
  4  3  1  0  0  0  0
  4  8  1  0  0  0  0
  5 10  1  6  0  0  0
  5  4  1  0  0  0  0
 11 16  1  0  0  0  0
 12 13  1  0  0  0  0
 12 11  2  0  0  0  0
 13 14  2  0  0  0  0
 14 15  1  0  0  0  0
 15 19  1  0  0  0  0
 16 15  2  0  0  0  0
 17 11  1  0  0  0  0
 18 12  1  0  0  0  0
 20  1  1  0  0  0  0
 20 21  1  0  0  0  0
 22  5  1  0  0  0  0
 23 24  1  0  0  0  0
 25 24  1  0  0  0  0
 26 27  1  0  0  0  0
 26 25  1  0  0  0  0
 27 28  1  0  0  0  0
 28 24  1  0  0  0  0
 28 22  1  1  0  0  0
M  END
>  <minimizedAffinity>
-4.69640303

$$$$

 OpenBabel03242516323D

 28 30  0  0  1  0  0  0  0  0999 V2000
   37.1500   28.9360   41.8290 C   0  0  2  0  0  0  0  0  0  0  0  0
   38.1580   27.8630   41.3830 C   0  0  1  0  0  0  0  0  0  0  0  0
   38.9430   27.8230   42.5200 O   0  0  0  0  0  0  0  0  0  0  0  0
   39.2840   29.1590   42.7420 C   0  0  0  0  0  0  0  0  0  0  0  0
   38.1980   30.0180   42.1130 C   0  0  1  0  0  0  0  0  0  0  0  0
   36.4580   29.2230   41.0400 H   0  0  0  0  0  0  0  0  0  0  0  0
   38.6590   28.3050   40.4930 H   0  0  0  0  0  0  0  0  0  0  0  0
   40.2840   29.4080   42.3710 H   0  0  0  0  0  0  0  0  0  0  0  0
   39.2630   29.3250   43.8390 H   0  0  0  0  0  0  0  0  0  0  0  0
   37.8370   30.7980   42.7970 H   0  0  0  0  0  0  0  0  0  0  0  0
   36.4420   24.9010   39.7360 C   0  0  0  0  0  0  0  0  0  0  0  0
   37.0020   26.1770   39.8340 C   0  0  0  0  0  0  0  0  0  0  0  0
   37.5160   26.5960   41.0520 C   0  0  0  0  0  0  0  0  0  0  0  0
   37.4460   25.7230   42.1090 N   0  0  0  0  0  0  0  0  0  0  0  0
   36.9060   24.4970   42.0060 C   0  0  0  0  0  0  0  0  0  0  0  0
   36.4010   24.0770   40.8200 N   0  0  0  0  0  0  0  0  0  0  0  0
   36.0570   24.6120   38.7860 H   0  0  0  0  0  0  0  0  0  0  0  0
   37.0830   26.8950   39.0530 H   0  0  0  0  0  0  0  0  0  0  0  0
   36.8620   23.8270   42.8540 H   0  0  0  0  0  0  0  0  0  0  0  0
   36.6040   28.6160   43.0350 O   0  0  0  0  0  0  0  0  0  0  0  0
   37.2390   28.0350   43.5300 H   0  0  0  0  0  0  0  0  0  0  0  0
   38.6100   30.5070   40.8680 O   0  0  0  0  0  0  0  0  0  0  0  0
   39.1920   33.4600   41.9750 H   0  0  0  0  0  0  0  0  0  0  0  0
   39.5200   32.5720   41.5350 N   0  0  0  0  0  0  0  0  0  0  0  0
   40.5990   32.7890   40.5930 C   0  0  0  0  0  2  0  0  0  0  0  0
   39.9080   33.1130   39.2860 C   0  0  0  0  0  2  0  0  0  0  0  0
   38.5970   32.3690   39.3750 C   0  0  0  0  0  2  0  0  0  0  0  0
   38.4670   31.8990   40.8020 C   0  0  1  0  0  3  0  0  0  0  0  0
  1  6  1  6  0  0  0
  1  5  1  0  0  0  0
  1 20  1  0  0  0  0
  2  7  1  6  0  0  0
  2  1  1  0  0  0  0
  2  3  1  0  0  0  0
  3  4  1  0  0  0  0
  4  9  1  0  0  0  0
  5  4  1  0  0  0  0
  5 10  1  1  0  0  0
  8  4  1  0  0  0  0
 11 12  2  0  0  0  0
 11 16  1  0  0  0  0
 12 13  1  0  0  0  0
 13  2  1  0  0  0  0
 13 14  2  0  0  0  0
 15 14  1  0  0  0  0
 15 19  1  0  0  0  0
 16 15  2  0  0  0  0
 17 11  1  0  0  0  0
 18 12  1  0  0  0  0
 20 21  1  0  0  0  0
 22  5  1  0  0  0  0
 24 23  1  0  0  0  0
 25 24  1  0  0  0  0
 26 27  1  0  0  0  0
 26 25  1  0  0  0  0
 27 28  1  0  0  0  0
 28 22  1  6  0  0  0
 28 24  1  0  0  0  0
M  END
>  <minimizedAffinity>
-4.61057281

$$$$

 OpenBabel03242516323D

 28 30  0  0  1  0  0  0  0  0999 V2000
   38.6460   28.0130   41.5060 C   0  0  2  0  0  0  0  0  0  0  0  0
   37.5160   28.9640   41.9330 C   0  0  1  0  0  0  0  0  0  0  0  0
   37.7670   28.9950   43.2920 O   0  0  0  0  0  0  0  0  0  0  0  0
   37.8240   27.6480   43.6560 C   0  0  0  0  0  0  0  0  0  0  0  0
   38.2260   26.8580   42.4210 C   0  0  1  0  0  0  0  0  0  0  0  0
   38.6020   27.7460   40.4510 H   0  0  0  0  0  0  0  0  0  0  0  0
   36.5810   28.4300   41.6510 H   0  0  0  0  0  0  0  0  0  0  0  0
   36.8870   27.2900   44.0980 H   0  0  0  0  0  0  0  0  0  0  0  0
   38.6310   27.5460   44.4100 H   0  0  0  0  0  0  0  0  0  0  0  0
   39.0430   26.1530   42.6270 H   0  0  0  0  0  0  0  0  0  0  0  0
   36.9760   32.1240   39.8960 C   0  0  0  0  0  0  0  0  0  0  0  0
   36.7030   30.8480   40.3950 C   0  0  0  0  0  0  0  0  0  0  0  0
   37.5990   30.2640   41.2760 C   0  0  0  0  0  0  0  0  0  0  0  0
   38.7210   30.9790   41.6160 N   0  0  0  0  0  0  0  0  0  0  0  0
   38.9750   32.2060   41.1310 C   0  0  0  0  0  0  0  0  0  0  0  0
   38.1060   32.7870   40.2690 N   0  0  0  0  0  0  0  0  0  0  0  0
   36.2660   32.5430   39.2210 H   0  0  0  0  0  0  0  0  0  0  0  0
   35.8550   30.2480   40.1680 H   0  0  0  0  0  0  0  0  0  0  0  0
   39.8660   32.7510   41.4140 H   0  0  0  0  0  0  0  0  0  0  0  0
   39.8480   28.4470   41.9760 O   0  0  0  0  0  0  0  0  0  0  0  0
   39.6940   28.9950   42.7900 H   0  0  0  0  0  0  0  0  0  0  0  0
   37.1070   26.2650   41.8240 O   0  0  0  0  0  0  0  0  0  0  0  0
   35.7860   23.3630   41.4860 H   0  0  0  0  0  0  0  0  0  0  0  0
   36.3160   24.1730   41.0950 N   0  0  0  0  0  0  0  0  0  0  0  0
   37.2910   23.7650   40.1050 C   0  0  0  0  0  2  0  0  0  0  0  0
   38.5280   23.4170   40.9040 C   0  0  0  0  0  2  0  0  0  0  0  0
   38.4340   24.3040   42.1240 C   0  0  0  0  0  2  0  0  0  0  0  0
   37.0480   24.8960   42.1160 C   0  0  1  0  0  3  0  0  0  0  0  0
  1  6  1  6  0  0  0
  1  2  1  0  0  0  0
  1 20  1  0  0  0  0
  1  5  1  0  0  0  0
  2  7  1  6  0  0  0
  2  3  1  0  0  0  0
  3  4  1  0  0  0  0
  4  8  1  0  0  0  0
  4  9  1  0  0  0  0
  5 10  1  1  0  0  0
  5  4  1  0  0  0  0
 11 16  2  0  0  0  0
 11 12  1  0  0  0  0
 12 13  2  0  0  0  0
 13 14  1  0  0  0  0
 13  2  1  0  0  0  0
 15 19  1  0  0  0  0
 15 14  2  0  0  0  0
 16 15  1  0  0  0  0
 17 11  1  0  0  0  0
 18 12  1  0  0  0  0
 20 21  1  0  0  0  0
 22  5  1  0  0  0  0
 24 23  1  0  0  0  0
 24 28  1  0  0  0  0
 25 26  1  0  0  0  0
 25 24  1  0  0  0  0
 26 27  1  0  0  0  0
 28 22  1  6  0  0  0
 28 27  1  0  0  0  0
M  END
>  <minimizedAffinity>
-4.57928705

$$$$

 OpenBabel03242516323D

 28 30  0  0  1  0  0  0  0  0999 V2000
   38.2210   30.4290   39.3180 C   0  0  2  0  0  0  0  0  0  0  0  0
   38.1290   30.8210   40.8020 C   0  0  1  0  0  0  0  0  0  0  0  0
   36.9640   31.5640   40.7550 O   0  0  0  0  0  0  0  0  0  0  0  0
   37.1900   32.4800   39.7250 C   0  0  0  0  0  0  0  0  0  0  0  0
   38.2130   31.8640   38.7820 C   0  0  1  0  0  0  0  0  0  0  0  0
   39.1400   29.8990   39.0750 H   0  0  0  0  0  0  0  0  0  0  0  0
   39.0490   31.4200   40.9900 H   0  0  0  0  0  0  0  0  0  0  0  0
   37.4990   33.4650   40.0950 H   0  0  0  0  0  0  0  0  0  0  0  0
   36.2360   32.5940   39.1720 H   0  0  0  0  0  0  0  0  0  0  0  0
   37.9000   31.9300   37.7320 H   0  0  0  0  0  0  0  0  0  0  0  0
   38.7630   28.0340   43.3040 C   0  0  0  0  0  0  0  0  0  0  0  0
   39.0480   29.1570   42.5240 C   0  0  0  0  0  0  0  0  0  0  0  0
   38.0660   29.6620   41.6860 C   0  0  0  0  0  0  0  0  0  0  0  0
   36.8510   29.0230   41.6660 N   0  0  0  0  0  0  0  0  0  0  0  0
   36.5850   27.9430   42.4200 C   0  0  0  0  0  0  0  0  0  0  0  0
   37.5370   27.4410   43.2440 N   0  0  0  0  0  0  0  0  0  0  0  0
   39.5400   27.6720   43.9380 H   0  0  0  0  0  0  0  0  0  0  0  0
   39.9670   29.6910   42.4960 H   0  0  0  0  0  0  0  0  0  0  0  0
   35.6190   27.4570   42.3880 H   0  0  0  0  0  0  0  0  0  0  0  0
   37.0580   29.8620   38.8940 O   0  0  0  0  0  0  0  0  0  0  0  0
   36.3140   30.1940   39.4630 H   0  0  0  0  0  0  0  0  0  0  0  0
   39.4890   32.3860   39.0240 O   0  0  0  0  0  0  0  0  0  0  0  0
   40.9870   32.3610   36.1890 H   0  0  0  0  0  0  0  0  0  0  0  0
   40.7810   32.8160   37.1050 N   0  0  0  0  0  0  0  0  0  0  0  0
   41.9140   33.5590   37.6170 C   0  0  0  0  0  2  0  0  0  0  0  0
   42.7340   32.5370   38.3750 C   0  0  0  0  0  2  0  0  0  0  0  0
   41.7110   31.5330   38.8530 C   0  0  0  0  0  2  0  0  0  0  0  0
   40.4270   31.8540   38.1300 C   0  0  1  0  0  3  0  0  0  0  0  0
  1  6  1  6  0  0  0
  1  2  1  0  0  0  0
  2  7  1  1  0  0  0
  2 13  1  0  0  0  0
  3  2  1  0  0  0  0
  4  8  1  0  0  0  0
  4  3  1  0  0  0  0
  5 10  1  6  0  0  0
  5 22  1  0  0  0  0
  5  1  1  0  0  0  0
  5  4  1  0  0  0  0
  9  4  1  0  0  0  0
 11 17  1  0  0  0  0
 12 11  2  0  0  0  0
 13 12  1  0  0  0  0
 14 13  2  0  0  0  0
 14 15  1  0  0  0  0
 15 16  2  0  0  0  0
 16 11  1  0  0  0  0
 18 12  1  0  0  0  0
 19 15  1  0  0  0  0
 20  1  1  0  0  0  0
 20 21  1  0  0  0  0
 23 24  1  0  0  0  0
 24 25  1  0  0  0  0
 24 28  1  0  0  0  0
 25 26  1  0  0  0  0
 26 27  1  0  0  0  0
 28 27  1  0  0  0  0
 28 22  1  1  0  0  0
M  END
>  <minimizedAffinity>
-4.52110863

$$$$

 OpenBabel03242516323D

 28 30  0  0  1  0  0  0  0  0999 V2000
   37.8560   29.4200   39.2860 C   0  0  2  0  0  0  0  0  0  0  0  0
   36.5700   30.1610   38.8810 C   0  0  1  0  0  0  0  0  0  0  0  0
   37.0780   31.4450   38.8120 O   0  0  0  0  0  0  0  0  0  0  0  0
   37.7180   31.6210   40.0400 C   0  0  0  0  0  0  0  0  0  0  0  0
   38.1130   30.2450   40.5510 C   0  0  1  0  0  0  0  0  0  0  0  0
   37.6890   28.3660   39.5020 H   0  0  0  0  0  0  0  0  0  0  0  0
   35.8700   29.9890   39.7290 H   0  0  0  0  0  0  0  0  0  0  0  0
   37.1070   32.1780   40.7600 H   0  0  0  0  0  0  0  0  0  0  0  0
   38.6460   32.1970   39.8460 H   0  0  0  0  0  0  0  0  0  0  0  0
   39.1590   30.2100   40.8830 H   0  0  0  0  0  0  0  0  0  0  0  0
   34.4980   28.5690   36.1240 C   0  0  0  0  0  0  0  0  0  0  0  0
   34.8600   28.9210   37.4260 C   0  0  0  0  0  0  0  0  0  0  0  0
   36.0110   29.6680   37.6270 C   0  0  0  0  0  0  0  0  0  0  0  0
   36.7420   30.0260   36.5220 N   0  0  0  0  0  0  0  0  0  0  0  0
   36.3860   29.6840   35.2720 C   0  0  0  0  0  0  0  0  0  0  0  0
   35.2630   28.9540   35.0640 N   0  0  0  0  0  0  0  0  0  0  0  0
   33.6080   27.9950   36.0060 H   0  0  0  0  0  0  0  0  0  0  0  0
   34.3370   28.6720   38.3180 H   0  0  0  0  0  0  0  0  0  0  0  0
   36.9780   29.9790   34.4160 H   0  0  0  0  0  0  0  0  0  0  0  0
   38.8740   29.7150   38.4320 O   0  0  0  0  0  0  0  0  0  0  0  0
   38.7040   30.6050   38.0260 H   0  0  0  0  0  0  0  0  0  0  0  0
   37.2020   29.7920   41.5130 O   0  0  0  0  0  0  0  0  0  0  0  0
   37.1090   29.2150   44.6660 H   0  0  0  0  0  0  0  0  0  0  0  0
   36.9580   28.9080   43.6800 N   0  0  0  0  0  0  0  0  0  0  0  0
   37.2070   27.4920   43.5000 C   0  0  0  0  0  2  0  0  0  0  0  0
   38.6950   27.3920   43.2420 C   0  0  0  0  0  2  0  0  0  0  0  0
   39.0380   28.7090   42.5860 C   0  0  0  0  0  2  0  0  0  0  0  0
   37.8300   29.5960   42.7490 C   0  0  1  0  0  3  0  0  0  0  0  0
  1  6  1  1  0  0  0
  1  5  1  0  0  0  0
  2  1  1  0  0  0  0
  2  7  1  1  0  0  0
  3  2  1  0  0  0  0
  3  4  1  0  0  0  0
  4  5  1  0  0  0  0
  4  8  1  0  0  0  0
  5 10  1  1  0  0  0
  5 22  1  0  0  0  0
  9  4  1  0  0  0  0
 11 12  1  0  0  0  0
 12 13  2  0  0  0  0
 12 18  1  0  0  0  0
 13  2  1  0  0  0  0
 14 13  1  0  0  0  0
 15 14  2  0  0  0  0
 16 15  1  0  0  0  0
 16 11  2  0  0  0  0
 17 11  1  0  0  0  0
 19 15  1  0  0  0  0
 20  1  1  0  0  0  0
 21 20  1  0  0  0  0
 24 23  1  0  0  0  0
 25 24  1  0  0  0  0
 26 25  1  0  0  0  0
 27 28  1  0  0  0  0
 27 26  1  0  0  0  0
 28 22  1  6  0  0  0
 28 24  1  0  0  0  0
M  END
>  <minimizedAffinity>
-4.51145554

$$$$
