
 OpenBabel03252501333D

 21 22  0  0  0  0  0  0  0  0999 V2000
   39.1240   31.7940   40.4960 C   0  0  0  0  0  0  0  0  0  0  0  0
   38.3650   32.9460   40.3990 C   0  0  0  0  0  0  0  0  0  0  0  0
   39.0640   34.1340   40.2410 C   0  0  0  0  0  0  0  0  0  0  0  0
   40.4120   34.0770   40.1940 N   0  0  0  0  0  0  0  0  0  0  0  0
   41.1180   32.9320   40.2930 C   0  0  0  0  0  0  0  0  0  0  0  0
   40.4750   31.7530   40.4480 N   0  0  0  0  0  0  0  0  0  0  0  0
   38.4760   35.0220   40.1660 H   0  0  0  0  0  0  0  0  0  0  0  0
   42.1850   33.0490   40.2380 H   0  0  0  0  0  0  0  0  0  0  0  0
   38.7570   30.0590   42.0400 C   0  0  0  0  0  0  0  0  0  0  0  0
   39.3550   30.9480   42.7140 O   0  0  0  0  0  0  0  0  0  0  0  0
   38.5830   30.4550   40.6660 N   0  0  0  0  0  0  0  0  0  0  0  0
   38.1400   29.8350   39.9770 H   0  0  0  0  0  0  0  0  0  0  0  0
   38.2880   28.8080   42.5090 N   0  0  0  0  0  0  0  0  0  0  0  0
   38.9370   27.8060   43.3670 C   0  0  0  0  0  2  0  0  0  0  0  0
   38.4020   26.5460   42.6740 C   0  0  0  0  0  2  0  0  0  0  0  0
   36.9210   26.9010   42.7230 C   0  0  0  0  0  2  0  0  0  0  0  0
   36.9680   28.3140   42.1630 C   0  0  0  0  0  3  0  0  0  0  0  0
   36.1560   28.9380   42.5360 H   0  0  0  0  0  0  0  0  0  0  0  0
   36.9660   32.7960   40.4700 N   0  0  0  0  0  0  0  0  0  0  0  0
   36.4850   32.1220   39.8480 H   0  0  0  0  0  0  0  0  0  0  0  0
   36.2900   33.2830   41.0880 H   0  0  0  0  0  0  0  0  0  0  0  0
  1 11  1  0  0  0  0
  2 19  1  0  0  0  0
  2  1  2  0  0  0  0
  3  2  1  0  0  0  0
  4  3  2  0  0  0  0
  4  5  1  0  0  0  0
  5  6  2  0  0  0  0
  6  1  1  0  0  0  0
  7  3  1  0  0  0  0
  8  5  1  0  0  0  0
  9 13  1  0  0  0  0
  9 10  2  0  0  0  0
 11  9  1  0  0  0  0
 12 11  1  0  0  0  0
 13 14  1  0  0  0  0
 15 16  1  0  0  0  0
 15 14  1  0  0  0  0
 17 13  1  0  0  0  0
 17 18  1  0  0  0  0
 17 16  1  0  0  0  0
 19 21  1  0  0  0  0
 20 19  1  0  0  0  0
M  END
>  <minimizedAffinity>
-4.74433231

$$$$

 OpenBabel03252501333D

 21 22  0  0  0  0  0  0  0  0999 V2000
   37.9060   30.3760   41.3560 C   0  0  0  0  0  0  0  0  0  0  0  0
   36.8280   31.1140   40.9020 C   0  0  0  0  0  0  0  0  0  0  0  0
   37.1180   32.3550   40.3510 C   0  0  0  0  0  0  0  0  0  0  0  0
   38.4110   32.7410   40.2990 N   0  0  0  0  0  0  0  0  0  0  0  0
   39.4370   31.9910   40.7530 C   0  0  0  0  0  0  0  0  0  0  0  0
   39.1970   30.7770   41.2980 N   0  0  0  0  0  0  0  0  0  0  0  0
   36.2860   32.9230   40.0000 H   0  0  0  0  0  0  0  0  0  0  0  0
   40.4090   32.4350   40.6430 H   0  0  0  0  0  0  0  0  0  0  0  0
   37.8760   28.0660   40.9220 C   0  0  0  0  0  0  0  0  0  0  0  0
   37.9560   28.5920   39.7740 O   0  0  0  0  0  0  0  0  0  0  0  0
   37.8130   29.0580   41.9640 N   0  0  0  0  0  0  0  0  0  0  0  0
   37.7170   28.7980   42.9530 H   0  0  0  0  0  0  0  0  0  0  0  0
   37.8460   26.6820   41.2230 N   0  0  0  0  0  0  0  0  0  0  0  0
   37.0890   25.5860   40.6010 C   0  0  0  0  0  2  0  0  0  0  0  0
   36.7840   24.7830   41.8720 C   0  0  0  0  0  2  0  0  0  0  0  0
   38.2130   24.6660   42.3860 C   0  0  0  0  0  2  0  0  0  0  0  0
   38.6470   26.1210   42.2940 C   0  0  0  0  0  3  0  0  0  0  0  0
   39.7210   26.2270   42.1390 H   0  0  0  0  0  0  0  0  0  0  0  0
   35.5530   30.5350   41.0450 N   0  0  0  0  0  0  0  0  0  0  0  0
   35.3750   29.5800   40.6860 H   0  0  0  0  0  0  0  0  0  0  0  0
   34.7020   30.9350   41.4820 H   0  0  0  0  0  0  0  0  0  0  0  0
  1 11  1  0  0  0  0
  2 19  1  0  0  0  0
  2  1  2  0  0  0  0
  3  2  1  0  0  0  0
  4  3  2  0  0  0  0
  4  5  1  0  0  0  0
  5  6  2  0  0  0  0
  6  1  1  0  0  0  0
  7  3  1  0  0  0  0
  8  5  1  0  0  0  0
  9 13  1  0  0  0  0
  9 11  1  0  0  0  0
 10  9  2  0  0  0  0
 11 12  1  0  0  0  0
 13 17  1  0  0  0  0
 14 13  1  0  0  0  0
 14 15  1  0  0  0  0
 15 16  1  0  0  0  0
 17 16  1  0  0  0  0
 18 17  1  0  0  0  0
 19 21  1  0  0  0  0
 20 19  1  0  0  0  0
M  END
>  <minimizedAffinity>
-4.55186605

$$$$

 OpenBabel03252501333D

 21 22  0  0  0  0  0  0  0  0999 V2000
   37.9160   30.4480   40.1050 C   0  0  0  0  0  0  0  0  0  0  0  0
   37.0350   31.4150   40.5540 C   0  0  0  0  0  0  0  0  0  0  0  0
   37.3990   32.7350   40.3260 C   0  0  0  0  0  0  0  0  0  0  0  0
   38.5670   32.9720   39.6900 N   0  0  0  0  0  0  0  0  0  0  0  0
   39.4010   32.0000   39.2670 C   0  0  0  0  0  0  0  0  0  0  0  0
   39.0840   30.7010   39.4700 N   0  0  0  0  0  0  0  0  0  0  0  0
   36.7180   33.4800   40.6720 H   0  0  0  0  0  0  0  0  0  0  0  0
   40.2930   32.3460   38.7780 H   0  0  0  0  0  0  0  0  0  0  0  0
   38.2150   28.6080   41.5380 C   0  0  0  0  0  0  0  0  0  0  0  0
   38.7140   29.5800   42.1780 O   0  0  0  0  0  0  0  0  0  0  0  0
   37.7190   29.0150   40.2480 N   0  0  0  0  0  0  0  0  0  0  0  0
   37.3070   28.3400   39.5910 H   0  0  0  0  0  0  0  0  0  0  0  0
   38.1200   27.2630   41.9720 N   0  0  0  0  0  0  0  0  0  0  0  0
   39.1120   26.4000   42.6270 C   0  0  0  0  0  2  0  0  0  0  0  0
   38.7510   25.0830   41.9280 C   0  0  0  0  0  2  0  0  0  0  0  0
   37.2610   25.0870   42.2460 C   0  0  0  0  0  2  0  0  0  0  0  0
   36.8990   26.4960   41.8050 C   0  0  0  0  0  3  0  0  0  0  0  0
   36.0500   26.9010   42.3550 H   0  0  0  0  0  0  0  0  0  0  0  0
   35.8660   30.9640   41.1950 N   0  0  0  0  0  0  0  0  0  0  0  0
   35.2580   30.2640   40.7320 H   0  0  0  0  0  0  0  0  0  0  0  0
   35.4850   31.2360   42.1210 H   0  0  0  0  0  0  0  0  0  0  0  0
  1 11  1  0  0  0  0
  1  2  1  0  0  0  0
  2 19  1  0  0  0  0
  3  2  2  0  0  0  0
  3  7  1  0  0  0  0
  4  3  1  0  0  0  0
  5  6  1  0  0  0  0
  5  4  2  0  0  0  0
  6  1  2  0  0  0  0
  8  5  1  0  0  0  0
  9 13  1  0  0  0  0
  9 10  2  0  0  0  0
 11  9  1  0  0  0  0
 12 11  1  0  0  0  0
 13 14  1  0  0  0  0
 15 16  1  0  0  0  0
 15 14  1  0  0  0  0
 17 13  1  0  0  0  0
 17 16  1  0  0  0  0
 17 18  1  0  0  0  0
 19 21  1  0  0  0  0
 20 19  1  0  0  0  0
M  END
>  <minimizedAffinity>
-4.47032404

$$$$

 OpenBabel03252501333D

 21 22  0  0  0  0  0  0  0  0999 V2000
   39.7070   32.6600   39.2740 C   0  0  0  0  0  0  0  0  0  0  0  0
   40.4550   32.7520   38.1140 C   0  0  0  0  0  0  0  0  0  0  0  0
   41.7250   33.2960   38.2410 C   0  0  0  0  0  0  0  0  0  0  0  0
   42.1300   33.6880   39.4680 N   0  0  0  0  0  0  0  0  0  0  0  0
   41.3700   33.5830   40.5780 C   0  0  0  0  0  0  0  0  0  0  0  0
   40.1260   33.0580   40.4970 N   0  0  0  0  0  0  0  0  0  0  0  0
   42.3010   33.3660   37.3450 H   0  0  0  0  0  0  0  0  0  0  0  0
   41.8300   33.9390   41.4810 H   0  0  0  0  0  0  0  0  0  0  0  0
   38.4410   30.6960   39.5320 C   0  0  0  0  0  0  0  0  0  0  0  0
   39.6410   30.2910   39.5370 O   0  0  0  0  0  0  0  0  0  0  0  0
   38.3580   32.1230   39.3520 N   0  0  0  0  0  0  0  0  0  0  0  0
   37.4540   32.6080   39.2970 H   0  0  0  0  0  0  0  0  0  0  0  0
   37.2760   29.9040   39.6790 N   0  0  0  0  0  0  0  0  0  0  0  0
   36.9090   28.6220   39.0610 C   0  0  0  0  0  2  0  0  0  0  0  0
   35.4120   28.8940   38.8690 C   0  0  0  0  0  2  0  0  0  0  0  0
   35.0910   29.2860   40.3050 C   0  0  0  0  0  2  0  0  0  0  0  0
   36.1900   30.3070   40.5520 C   0  0  0  0  0  3  0  0  0  0  0  0
   36.4740   30.3690   41.6030 H   0  0  0  0  0  0  0  0  0  0  0  0
   39.8530   32.2860   36.9300 N   0  0  0  0  0  0  0  0  0  0  0  0
   39.4470   31.3340   36.8950 H   0  0  0  0  0  0  0  0  0  0  0  0
   39.7410   32.7750   36.0210 H   0  0  0  0  0  0  0  0  0  0  0  0
  1 11  1  0  0  0  0
  1  6  1  0  0  0  0
  2  3  1  0  0  0  0
  2  1  2  0  0  0  0
  3  4  2  0  0  0  0
  4  5  1  0  0  0  0
  5  8  1  0  0  0  0
  6  5  2  0  0  0  0
  7  3  1  0  0  0  0
  9 10  2  0  0  0  0
  9 13  1  0  0  0  0
 11  9  1  0  0  0  0
 12 11  1  0  0  0  0
 13 17  1  0  0  0  0
 14 13  1  0  0  0  0
 15 14  1  0  0  0  0
 15 16  1  0  0  0  0
 16 17  1  0  0  0  0
 17 18  1  0  0  0  0
 19  2  1  0  0  0  0
 20 19  1  0  0  0  0
 21 19  1  0  0  0  0
M  END
>  <minimizedAffinity>
-4.29566431

$$$$

 OpenBabel03252501333D

 21 22  0  0  0  0  0  0  0  0999 V2000
   39.0600   31.6990   40.3550 C   0  0  0  0  0  0  0  0  0  0  0  0
   40.3400   31.8540   39.8530 C   0  0  0  0  0  0  0  0  0  0  0  0
   40.7650   33.1570   39.6400 C   0  0  0  0  0  0  0  0  0  0  0  0
   39.9120   34.1610   39.9340 N   0  0  0  0  0  0  0  0  0  0  0  0
   38.6690   33.9700   40.4220 C   0  0  0  0  0  0  0  0  0  0  0  0
   38.2160   32.7160   40.6440 N   0  0  0  0  0  0  0  0  0  0  0  0
   41.7530   33.2750   39.2530 H   0  0  0  0  0  0  0  0  0  0  0  0
   38.1080   34.8680   40.6060 H   0  0  0  0  0  0  0  0  0  0  0  0
   38.7810   30.0310   41.9880 C   0  0  0  0  0  0  0  0  0  0  0  0
   39.5570   30.8680   42.5340 O   0  0  0  0  0  0  0  0  0  0  0  0
   38.4310   30.4210   40.6450 N   0  0  0  0  0  0  0  0  0  0  0  0
   37.8300   29.8350   40.0530 H   0  0  0  0  0  0  0  0  0  0  0  0
   38.2770   28.8380   42.5610 N   0  0  0  0  0  0  0  0  0  0  0  0
   38.9570   27.7910   43.3380 C   0  0  0  0  0  2  0  0  0  0  0  0
   38.2050   26.5790   42.7740 C   0  0  0  0  0  2  0  0  0  0  0  0
   36.7900   27.0750   43.0410 C   0  0  0  0  0  2  0  0  0  0  0  0
   36.8800   28.4680   42.4390 C   0  0  0  0  0  3  0  0  0  0  0  0
   36.1980   29.1730   42.9130 H   0  0  0  0  0  0  0  0  0  0  0  0
   41.0760   30.6780   39.6120 N   0  0  0  0  0  0  0  0  0  0  0  0
   41.1820   29.9700   40.3600 H   0  0  0  0  0  0  0  0  0  0  0  0
   41.5650   30.3830   38.7460 H   0  0  0  0  0  0  0  0  0  0  0  0
  1  6  1  0  0  0  0
  1 11  1  0  0  0  0
  2  1  2  0  0  0  0
  3  2  1  0  0  0  0
  3  4  2  0  0  0  0
  4  5  1  0  0  0  0
  5  8  1  0  0  0  0
  5  6  2  0  0  0  0
  7  3  1  0  0  0  0
  9 10  2  0  0  0  0
  9 13  1  0  0  0  0
 11  9  1  0  0  0  0
 12 11  1  0  0  0  0
 13 14  1  0  0  0  0
 15 16  1  0  0  0  0
 15 14  1  0  0  0  0
 17 13  1  0  0  0  0
 17 18  1  0  0  0  0
 17 16  1  0  0  0  0
 19  2  1  0  0  0  0
 19 20  1  0  0  0  0
 21 19  1  0  0  0  0
M  END
>  <minimizedAffinity>
-4.22626591

$$$$

 OpenBabel03252501333D

 21 22  0  0  0  0  0  0  0  0999 V2000
   38.0510   28.3100   42.2370 C   0  0  0  0  0  0  0  0  0  0  0  0
   37.5090   27.2200   41.5810 C   0  0  0  0  0  0  0  0  0  0  0  0
   37.9490   25.9700   41.9940 C   0  0  0  0  0  0  0  0  0  0  0  0
   38.8580   25.9130   42.9900 N   0  0  0  0  0  0  0  0  0  0  0  0
   39.3650   27.0010   43.6060 C   0  0  0  0  0  0  0  0  0  0  0  0
   38.9630   28.2370   43.2340 N   0  0  0  0  0  0  0  0  0  0  0  0
   37.5290   25.1300   41.4870 H   0  0  0  0  0  0  0  0  0  0  0  0
   40.0810   26.7940   44.3800 H   0  0  0  0  0  0  0  0  0  0  0  0
   38.5640   30.1600   40.8800 C   0  0  0  0  0  0  0  0  0  0  0  0
   39.3760   29.2660   40.5000 O   0  0  0  0  0  0  0  0  0  0  0  0
   37.7220   29.6980   41.9540 N   0  0  0  0  0  0  0  0  0  0  0  0
   37.0260   30.3110   42.3960 H   0  0  0  0  0  0  0  0  0  0  0  0
   38.4400   31.4720   40.3620 N   0  0  0  0  0  0  0  0  0  0  0  0
   39.4700   32.4660   40.0240 C   0  0  0  0  0  2  0  0  0  0  0  0
   38.7200   33.7220   40.4860 C   0  0  0  0  0  2  0  0  0  0  0  0
   37.4400   33.4970   39.6920 C   0  0  0  0  0  2  0  0  0  0  0  0
   37.1440   32.0540   40.0690 C   0  0  0  0  0  3  0  0  0  0  0  0
   36.5920   31.5240   39.2930 H   0  0  0  0  0  0  0  0  0  0  0  0
   36.5700   27.4890   40.5670 N   0  0  0  0  0  0  0  0  0  0  0  0
   35.7550   28.0970   40.7630 H   0  0  0  0  0  0  0  0  0  0  0  0
   36.5600   27.1540   39.5850 H   0  0  0  0  0  0  0  0  0  0  0  0
  1  6  1  0  0  0  0
  2  3  1  0  0  0  0
  2  1  2  0  0  0  0
  3  4  2  0  0  0  0
  4  5  1  0  0  0  0
  5  8  1  0  0  0  0
  6  5  2  0  0  0  0
  7  3  1  0  0  0  0
  9 11  1  0  0  0  0
 10  9  2  0  0  0  0
 11  1  1  0  0  0  0
 11 12  1  0  0  0  0
 13  9  1  0  0  0  0
 14 13  1  0  0  0  0
 14 15  1  0  0  0  0
 16 17  1  0  0  0  0
 16 15  1  0  0  0  0
 17 13  1  0  0  0  0
 18 17  1  0  0  0  0
 19 20  1  0  0  0  0
 19  2  1  0  0  0  0
 21 19  1  0  0  0  0
M  END
>  <minimizedAffinity>
-4.16533375

$$$$

 OpenBabel03252501333D

 21 22  0  0  0  0  0  0  0  0999 V2000
   38.3240   29.3850   42.4200 C   0  0  0  0  0  0  0  0  0  0  0  0
   36.9950   29.0740   42.1930 C   0  0  0  0  0  0  0  0  0  0  0  0
   36.5990   27.7850   42.5200 C   0  0  0  0  0  0  0  0  0  0  0  0
   37.5250   26.9450   43.0280 N   0  0  0  0  0  0  0  0  0  0  0  0
   38.8140   27.2850   43.2360 C   0  0  0  0  0  0  0  0  0  0  0  0
   39.2410   28.5310   42.9300 N   0  0  0  0  0  0  0  0  0  0  0  0
   35.5730   27.5470   42.3440 H   0  0  0  0  0  0  0  0  0  0  0  0
   39.4300   26.5060   43.6460 H   0  0  0  0  0  0  0  0  0  0  0  0
   39.2980   30.7240   40.7510 C   0  0  0  0  0  0  0  0  0  0  0  0
   39.0310   29.6400   40.1560 O   0  0  0  0  0  0  0  0  0  0  0  0
   38.9340   30.6760   42.1440 N   0  0  0  0  0  0  0  0  0  0  0  0
   39.1100   31.4670   42.7760 H   0  0  0  0  0  0  0  0  0  0  0  0
   39.8830   31.8840   40.1840 N   0  0  0  0  0  0  0  0  0  0  0  0
   41.0310   32.0280   39.2780 C   0  0  0  0  0  2  0  0  0  0  0  0
   41.6140   33.3180   39.8680 C   0  0  0  0  0  2  0  0  0  0  0  0
   40.3470   34.1610   39.8020 C   0  0  0  0  0  2  0  0  0  0  0  0
   39.3600   33.2090   40.4590 C   0  0  0  0  0  3  0  0  0  0  0  0
   38.3390   33.3570   40.1080 H   0  0  0  0  0  0  0  0  0  0  0  0
   36.1860   30.0930   41.6550 N   0  0  0  0  0  0  0  0  0  0  0  0
   36.1540   31.0240   42.1090 H   0  0  0  0  0  0  0  0  0  0  0  0
   35.5720   30.0630   40.8190 H   0  0  0  0  0  0  0  0  0  0  0  0
  1  6  1  0  0  0  0
  2  1  2  0  0  0  0
  2  3  1  0  0  0  0
  3  4  2  0  0  0  0
  4  5  1  0  0  0  0
  5  8  1  0  0  0  0
  6  5  2  0  0  0  0
  7  3  1  0  0  0  0
  9 11  1  0  0  0  0
 10  9  2  0  0  0  0
 11  1  1  0  0  0  0
 11 12  1  0  0  0  0
 13 17  1  0  0  0  0
 13  9  1  0  0  0  0
 14 15  1  0  0  0  0
 14 13  1  0  0  0  0
 16 15  1  0  0  0  0
 16 17  1  0  0  0  0
 18 17  1  0  0  0  0
 19 20  1  0  0  0  0
 19  2  1  0  0  0  0
 21 19  1  0  0  0  0
M  END
>  <minimizedAffinity>
-4.15351629

$$$$

 OpenBabel03252501333D

 21 22  0  0  0  0  0  0  0  0999 V2000
   38.4600   30.6500   40.7920 C   0  0  0  0  0  0  0  0  0  0  0  0
   37.1440   31.0750   40.8200 C   0  0  0  0  0  0  0  0  0  0  0  0
   36.1980   30.1290   41.1890 C   0  0  0  0  0  0  0  0  0  0  0  0
   36.6260   28.8840   41.4880 N   0  0  0  0  0  0  0  0  0  0  0  0
   37.9210   28.5060   41.4490 C   0  0  0  0  0  0  0  0  0  0  0  0
   38.8740   29.3980   41.0940 N   0  0  0  0  0  0  0  0  0  0  0  0
   35.1830   30.4590   41.2110 H   0  0  0  0  0  0  0  0  0  0  0  0
   38.1050   27.4810   41.7130 H   0  0  0  0  0  0  0  0  0  0  0  0
   39.6750   31.5580   38.9960 C   0  0  0  0  0  0  0  0  0  0  0  0
   38.7770   30.8620   38.4380 O   0  0  0  0  0  0  0  0  0  0  0  0
   39.5950   31.4840   40.4320 N   0  0  0  0  0  0  0  0  0  0  0  0
   40.2690   31.9710   41.0360 H   0  0  0  0  0  0  0  0  0  0  0  0
   40.6670   32.3390   38.3540 N   0  0  0  0  0  0  0  0  0  0  0  0
   41.5370   32.0250   37.2110 C   0  0  0  0  0  2  0  0  0  0  0  0
   42.8040   32.7390   37.6990 C   0  0  0  0  0  2  0  0  0  0  0  0
   42.1790   34.1030   37.9640 C   0  0  0  0  0  2  0  0  0  0  0  0
   40.9760   33.6860   38.7950 C   0  0  0  0  0  3  0  0  0  0  0  0
   40.1400   34.3800   38.6980 H   0  0  0  0  0  0  0  0  0  0  0  0
   36.9010   32.4180   40.4740 N   0  0  0  0  0  0  0  0  0  0  0  0
   37.4230   33.1780   40.9460 H   0  0  0  0  0  0  0  0  0  0  0  0
   36.2380   32.7990   39.7730 H   0  0  0  0  0  0  0  0  0  0  0  0
  1  2  2  0  0  0  0
  1  6  1  0  0  0  0
  2  3  1  0  0  0  0
  3  7  1  0  0  0  0
  3  4  2  0  0  0  0
  5  4  1  0  0  0  0
  5  8  1  0  0  0  0
  6  5  2  0  0  0  0
  9 11  1  0  0  0  0
 10  9  2  0  0  0  0
 11  1  1  0  0  0  0
 11 12  1  0  0  0  0
 13 17  1  0  0  0  0
 13  9  1  0  0  0  0
 14 15  1  0  0  0  0
 14 13  1  0  0  0  0
 15 16  1  0  0  0  0
 16 17  1  0  0  0  0
 18 17  1  0  0  0  0
 19  2  1  0  0  0  0
 19 20  1  0  0  0  0
 21 19  1  0  0  0  0
M  END
>  <minimizedAffinity>
-4.12921953

$$$$

 OpenBabel03252501333D

 21 22  0  0  0  0  0  0  0  0999 V2000
   39.0660   26.6150   41.8370 C   0  0  0  0  0  0  0  0  0  0  0  0
   38.3100   25.4980   41.5270 C   0  0  0  0  0  0  0  0  0  0  0  0
   38.5590   24.3570   42.2770 C   0  0  0  0  0  0  0  0  0  0  0  0
   39.5040   24.4220   43.2390 N   0  0  0  0  0  0  0  0  0  0  0  0
   40.2220   25.5310   43.5120 C   0  0  0  0  0  0  0  0  0  0  0  0
   40.0100   26.6640   42.8040 N   0  0  0  0  0  0  0  0  0  0  0  0
   37.9750   23.4970   42.0370 H   0  0  0  0  0  0  0  0  0  0  0  0
   40.9380   25.4270   44.3060 H   0  0  0  0  0  0  0  0  0  0  0  0
   37.8900   28.6500   41.7840 C   0  0  0  0  0  0  0  0  0  0  0  0
   37.3170   27.9880   42.6980 O   0  0  0  0  0  0  0  0  0  0  0  0
   38.9570   27.9020   41.1700 N   0  0  0  0  0  0  0  0  0  0  0  0
   39.5060   28.2850   40.3910 H   0  0  0  0  0  0  0  0  0  0  0  0
   37.5770   29.9650   41.3630 N   0  0  0  0  0  0  0  0  0  0  0  0
   36.2780   30.5950   41.0870 C   0  0  0  0  0  2  0  0  0  0  0  0
   36.7020   31.4540   39.8880 C   0  0  0  0  0  2  0  0  0  0  0  0
   37.8820   32.1550   40.5490 C   0  0  0  0  0  2  0  0  0  0  0  0
   38.6130   30.9540   41.1290 C   0  0  0  0  0  3  0  0  0  0  0  0
   39.1860   31.2050   42.0220 H   0  0  0  0  0  0  0  0  0  0  0  0
   37.3710   25.6330   40.4870 N   0  0  0  0  0  0  0  0  0  0  0  0
   36.6830   26.4060   40.5070 H   0  0  0  0  0  0  0  0  0  0  0  0
   37.2460   25.0430   39.6420 H   0  0  0  0  0  0  0  0  0  0  0  0
  1  6  1  0  0  0  0
  2  1  2  0  0  0  0
  2  3  1  0  0  0  0
  3  4  2  0  0  0  0
  4  5  1  0  0  0  0
  5  8  1  0  0  0  0
  6  5  2  0  0  0  0
  7  3  1  0  0  0  0
  9 10  2  0  0  0  0
 11  9  1  0  0  0  0
 11  1  1  0  0  0  0
 12 11  1  0  0  0  0
 13  9  1  0  0  0  0
 14 13  1  0  0  0  0
 15 16  1  0  0  0  0
 15 14  1  0  0  0  0
 16 17  1  0  0  0  0
 17 13  1  0  0  0  0
 17 18  1  0  0  0  0
 19 20  1  0  0  0  0
 19  2  1  0  0  0  0
 21 19  1  0  0  0  0
M  END
>  <minimizedAffinity>
-4.11127853

$$$$
