
 OpenBabel03252502233D

 31 33  0  0  1  0  0  0  0  0999 V2000
   46.8350   34.6020   42.2300 N   0  0  0  0  0  0  0  0  0  0  0  0
   48.2810   34.6750   42.2680 C   0  0  0  0  0  0  0  0  0  0  0  0
   48.6670   35.4060   40.9880 C   0  0  0  0  0  0  0  0  0  0  0  0
   48.2780   34.5950   39.7790 C   0  0  0  0  0  0  0  0  0  0  0  0
   46.9700   33.9060   39.8880 C   0  0  0  0  0  0  0  0  0  0  0  0
   46.1020   34.3220   41.0260 C   0  0  1  0  0  0  0  0  0  0  0  0
   48.6430   35.2720   43.1280 H   0  0  0  0  0  0  0  0  0  0  0  0
   48.7010   33.6740   42.2070 H   0  0  0  0  0  0  0  0  0  0  0  0
   49.7800   35.5050   41.0170 H   0  0  0  0  0  0  0  0  0  0  0  0
   48.1610   36.3830   41.0250 H   0  0  0  0  0  0  0  0  0  0  0  0
   48.2660   35.3030   38.9230 H   0  0  0  0  0  0  0  0  0  0  0  0
   49.1050   33.8710   39.5210 H   0  0  0  0  0  0  0  0  0  0  0  0
   46.4100   34.0150   38.9320 H   0  0  0  0  0  0  0  0  0  0  0  0
   47.1860   32.8080   40.0410 H   0  0  0  0  0  0  0  0  0  0  0  0
   45.5240   35.2260   40.7080 H   0  0  0  0  0  0  0  0  0  0  0  0
   44.4900   36.0330   44.7770 C   0  0  0  0  0  0  0  0  0  0  0  0
   45.2030   35.9220   43.5680 C   0  0  0  0  0  0  0  0  0  0  0  0
   46.0630   34.8130   43.4190 C   0  0  0  0  0  0  0  0  0  0  0  0
   46.1520   33.9210   44.4520 N   0  0  0  0  0  0  0  0  0  0  0  0
   45.4380   34.0840   45.5920 C   0  0  0  0  0  0  0  0  0  0  0  0
   44.6040   35.1490   45.7490 N   0  0  0  0  0  0  0  0  0  0  0  0
   43.8560   36.9100   44.8070 H   0  0  0  0  0  0  0  0  0  0  0  0
   45.1420   36.6210   42.7440 H   0  0  0  0  0  0  0  0  0  0  0  0
   45.5040   33.3860   46.4040 H   0  0  0  0  0  0  0  0  0  0  0  0
   45.1790   33.2930   41.2690 O   0  0  0  0  0  0  0  0  0  0  0  0
   43.4850   35.5380   40.1450 H   0  0  0  0  0  0  0  0  0  0  0  0
   43.8570   34.5860   39.9660 N   0  0  0  0  0  0  0  0  0  0  0  0
   43.1850   33.8880   38.9110 C   0  0  0  0  0  2  0  0  0  0  0  0
   42.0990   33.1280   39.6420 C   0  0  0  0  0  2  0  0  0  0  0  0
   42.8940   32.6000   40.8360 C   0  0  0  0  0  2  0  0  0  0  0  0
   43.8680   33.7280   41.1440 C   0  0  1  0  0  3  0  0  0  0  0  0
  1  2  1  0  0  0  0
  1 18  1  0  0  0  0
  2  7  1  0  0  0  0
  3  9  1  0  0  0  0
  3 10  1  0  0  0  0
  3  2  1  0  0  0  0
  4  5  1  0  0  0  0
  4  3  1  0  0  0  0
  5 14  1  0  0  0  0
  5  6  1  0  0  0  0
  6 15  1  6  0  0  0
  6 25  1  0  0  0  0
  6  1  1  0  0  0  0
  8  2  1  0  0  0  0
 11  4  1  0  0  0  0
 12  4  1  0  0  0  0
 13  5  1  0  0  0  0
 16 22  1  0  0  0  0
 16 21  1  0  0  0  0
 17 16  2  0  0  0  0
 18 17  1  0  0  0  0
 18 19  2  0  0  0  0
 19 20  1  0  0  0  0
 20 21  2  0  0  0  0
 20 24  1  0  0  0  0
 23 17  1  0  0  0  0
 27 26  1  0  0  0  0
 27 31  1  0  0  0  0
 28 29  1  0  0  0  0
 28 27  1  0  0  0  0
 29 30  1  0  0  0  0
 30 31  1  0  0  0  0
 31 25  1  6  0  0  0
M  END
>  <minimizedAffinity>
-5.41860867

>  <minimizedRMSD>
0.374513209

$$$$
