
 OpenBabel03252500253D

 34 36  0  0  1  0  0  0  0  0999 V2000
   47.3460   30.0990   48.1580 C   0  0  2  0  0  0  0  0  0  0  0  0
   45.8860   30.2430   48.3430 C   0  0  2  0  0  0  0  0  0  0  0  0
   45.3140   29.3320   47.3160 C   0  0  0  0  0  0  0  0  0  0  0  0
   46.2110   28.2940   47.1300 O   0  0  0  0  0  0  0  0  0  0  0  0
   47.3670   28.5990   47.7690 C   0  0  0  0  0  0  0  0  0  0  0  0
   47.9260   30.5210   47.3940 H   0  0  0  0  0  0  0  0  0  0  0  0
   45.6970   29.8680   49.3860 H   0  0  0  0  0  0  0  0  0  0  0  0
   44.4340   28.8210   47.8170 H   0  0  0  0  0  0  0  0  0  0  0  0
   44.8640   29.7610   46.4280 H   0  0  0  0  0  0  0  0  0  0  0  0
   47.3420   28.0830   48.7710 H   0  0  0  0  0  0  0  0  0  0  0  0
   48.2900   28.3110   47.2680 H   0  0  0  0  0  0  0  0  0  0  0  0
   45.4410   31.5380   48.2050 O   0  0  0  0  0  0  0  0  0  0  0  0
   47.5220   32.9300   47.6240 O   0  0  0  0  0  0  0  0  0  0  0  0
   46.2920   32.3220   47.0090 P   0  0  1  0  0  0  0  0  0  0  0  0
   46.7740   31.1970   45.8360 O   0  0  0  0  0  0  0  0  0  0  0  0
   46.2580   31.3390   45.0040 H   0  0  0  0  0  0  0  0  0  0  0  0
   45.3890   33.5850   46.2950 O   0  0  0  0  0  0  0  0  0  0  0  0
   45.1940   35.7100   43.4420 C   0  0  0  0  0  0  0  0  0  0  0  0
   46.2640   35.2750   42.6050 C   0  0  0  0  0  0  0  0  0  0  0  0
   47.0520   34.2070   43.0860 C   0  0  0  0  0  0  0  0  0  0  0  0
   46.7440   33.6780   44.2890 N   0  0  0  0  0  0  0  0  0  0  0  0
   45.7180   34.1260   45.0470 C   0  0  0  0  0  0  0  0  0  0  0  0
   44.9520   35.1420   44.6110 N   0  0  0  0  0  0  0  0  0  0  0  0
   46.4890   35.7120   41.6520 H   0  0  0  0  0  0  0  0  0  0  0  0
   47.8820   33.8190   42.5110 H   0  0  0  0  0  0  0  0  0  0  0  0
   44.4340   36.7530   42.9620 O   0  0  0  0  0  0  0  0  0  0  0  0
   44.9610   37.5680   42.6140 H   0  0  0  0  0  0  0  0  0  0  0  0
   48.0990   30.3240   49.2750 O   0  0  0  0  0  0  0  0  0  0  0  0
   50.4710   31.9570   48.4620 H   0  0  0  0  0  0  0  0  0  0  0  0
   49.8850   31.7200   49.2900 N   0  0  0  0  0  0  0  0  0  0  0  0
   50.5110   31.9960   50.5440 C   0  0  0  0  0  2  0  0  0  0  0  0
   50.9060   30.6740   51.1560 C   0  0  0  0  0  2  0  0  0  0  0  0
   49.9020   29.7070   50.5790 C   0  0  0  0  0  2  0  0  0  0  0  0
   49.4180   30.3600   49.2780 C   0  0  1  0  0  3  0  0  0  0  0  0
  1  6  1  6  0  0  0
  1  2  1  0  0  0  0
  1 28  1  0  0  0  0
  2  7  1  1  0  0  0
  3  8  1  0  0  0  0
  3  2  1  0  0  0  0
  4  3  1  0  0  0  0
  4  5  1  0  0  0  0
  5  1  1  0  0  0  0
  5 10  1  0  0  0  0
  9  3  1  0  0  0  0
 11  5  1  0  0  0  0
 12  2  1  0  0  0  0
 14 13  2  1  0  0  0
 14 12  1  0  0  0  0
 15 14  1  0  0  0  0
 16 15  1  0  0  0  0
 17 14  1  0  0  0  0
 18 23  1  0  0  0  0
 19 20  1  0  0  0  0
 19 18  2  0  0  0  0
 20 21  2  0  0  0  0
 21 22  1  0  0  0  0
 22 17  1  0  0  0  0
 23 22  2  0  0  0  0
 24 19  1  0  0  0  0
 25 20  1  0  0  0  0
 26 18  1  0  0  0  0
 27 26  1  0  0  0  0
 29 30  1  0  0  0  0
 30 31  1  0  0  0  0
 31 32  1  0  0  0  0
 33 32  1  0  0  0  0
 34 28  1  1  0  0  0
 34 30  1  0  0  0  0
 34 33  1  0  0  0  0
M  END
>  <minimizedAffinity>
-5.06716871

>  <minimizedRMSD>
1.14286733

$$$$
