
 OpenBabel03242511063D

 24 26  0  0  1  0  0  0  0  0999 V2000
   47.8730   32.8290   42.6180 C   0  0  1  0  0  0  0  0  0  0  0  0
   49.3650   32.9940   42.6490 C   0  0  0  0  0  0  0  0  0  0  0  0
   48.7000   31.6220   42.4930 C   0  0  2  0  0  0  0  0  0  0  0  0
   47.3280   33.1950   41.7250 H   0  0  0  0  0  0  0  0  0  0  0  0
   49.7560   33.2540   43.6540 H   0  0  0  0  0  0  0  0  0  0  0  0
   49.7810   33.5060   41.7850 H   0  0  0  0  0  0  0  0  0  0  0  0
   48.7240   31.0040   43.4190 H   0  0  0  0  0  0  0  0  0  0  0  0
   46.3600   32.3590   45.9760 C   0  0  0  0  0  0  0  0  0  0  0  0
   45.6130   33.5790   46.1150 C   0  0  0  0  0  0  0  0  0  0  0  0
   45.6630   34.5300   45.0470 C   0  0  0  0  0  0  0  0  0  0  0  0
   46.3980   34.2480   43.9670 N   0  0  0  0  0  0  0  0  0  0  0  0
   47.0970   33.0790   43.8650 C   0  0  0  0  0  0  0  0  0  0  0  0
   47.0720   32.1510   44.8650 N   0  0  0  0  0  0  0  0  0  0  0  0
   46.3030   31.6600   46.7980 H   0  0  0  0  0  0  0  0  0  0  0  0
   45.0210   33.8020   46.9900 H   0  0  0  0  0  0  0  0  0  0  0  0
   45.0880   35.4310   45.1950 H   0  0  0  0  0  0  0  0  0  0  0  0
   48.9070   30.9200   41.2930 N   0  0  0  0  0  0  0  0  0  0  0  0
   48.0910   30.6560   40.7500 H   0  0  0  0  0  0  0  0  0  0  0  0
   51.1270   29.6980   41.6700 H   0  0  0  0  0  0  0  0  0  0  0  0
   51.1920   30.2600   40.8200 N   0  0  0  0  0  0  0  0  0  0  0  0
   51.5320   29.5890   39.6090 C   0  0  0  0  0  2  0  0  0  0  0  0
   51.2640   30.6810   38.5670 C   0  0  0  0  0  2  0  0  0  0  0  0
   49.9430   31.2300   39.0710 C   0  0  0  0  0  2  0  0  0  0  0  0
   50.0830   31.1400   40.5510 C   0  0  1  0  0  3  0  0  0  0  0  0
  1  4  1  6  0  0  0
  1  2  1  0  0  0  0
  1 12  1  0  0  0  0
  2  5  1  0  0  0  0
  3  1  1  0  0  0  0
  3  2  1  0  0  0  0
  3  7  1  1  0  0  0
  6  2  1  0  0  0  0
  8  9  1  0  0  0  0
  8 14  1  0  0  0  0
  9 15  1  0  0  0  0
 10 16  1  0  0  0  0
 10  9  2  0  0  0  0
 11 10  1  0  0  0  0
 12 11  2  0  0  0  0
 12 13  1  0  0  0  0
 13  8  2  0  0  0  0
 17  3  1  0  0  0  0
 18 17  1  0  0  0  0
 20 19  1  0  0  0  0
 21 20  1  0  0  0  0
 22 23  1  0  0  0  0
 22 21  1  0  0  0  0
 23 24  1  0  0  0  0
 24 20  1  0  0  0  0
 24 17  1  1  0  0  0
M  END
>  <minimizedAffinity>
-2.53799224

>  <minimizedRMSD>
8.00698376

$$$$
