
 OpenBabel03252500253D

 34 36  0  0  1  0  0  0  0  0999 V2000
   46.8420   30.0890   48.1190 C   0  0  2  0  0  0  0  0  0  0  0  0
   45.4050   30.4210   48.2190 C   0  0  2  0  0  0  0  0  0  0  0  0
   44.7870   29.6220   47.1270 C   0  0  0  0  0  0  0  0  0  0  0  0
   45.5500   28.4800   46.9600 O   0  0  0  0  0  0  0  0  0  0  0  0
   46.6920   28.6100   47.6790 C   0  0  0  0  0  0  0  0  0  0  0  0
   47.5220   30.4500   47.4070 H   0  0  0  0  0  0  0  0  0  0  0  0
   45.1000   30.0470   49.2340 H   0  0  0  0  0  0  0  0  0  0  0  0
   43.8170   29.2200   47.5540 H   0  0  0  0  0  0  0  0  0  0  0  0
   44.4560   30.1320   46.2290 H   0  0  0  0  0  0  0  0  0  0  0  0
   46.5340   28.0760   48.6590 H   0  0  0  0  0  0  0  0  0  0  0  0
   47.5990   28.2160   47.2260 H   0  0  0  0  0  0  0  0  0  0  0  0
   45.1440   31.7670   48.0990 O   0  0  0  0  0  0  0  0  0  0  0  0
   47.3600   32.8810   47.4240 O   0  0  0  0  0  0  0  0  0  0  0  0
   46.0410   32.4270   46.8630 P   0  0  1  0  0  0  0  0  0  0  0  0
   46.3330   31.2400   45.6890 O   0  0  0  0  0  0  0  0  0  0  0  0
   45.8070   31.4390   44.8740 H   0  0  0  0  0  0  0  0  0  0  0  0
   45.2770   33.7880   46.1660 O   0  0  0  0  0  0  0  0  0  0  0  0
   45.2140   35.8680   43.2740 C   0  0  0  0  0  0  0  0  0  0  0  0
   46.2770   35.3750   42.4620 C   0  0  0  0  0  0  0  0  0  0  0  0
   47.0130   34.2850   42.9730 C   0  0  0  0  0  0  0  0  0  0  0  0
   46.6650   33.7900   44.1810 N   0  0  0  0  0  0  0  0  0  0  0  0
   45.6470   34.2930   44.9140 C   0  0  0  0  0  0  0  0  0  0  0  0
   44.9310   35.3320   44.4490 N   0  0  0  0  0  0  0  0  0  0  0  0
   46.5350   35.7860   41.5060 H   0  0  0  0  0  0  0  0  0  0  0  0
   47.8340   33.8530   42.4180 H   0  0  0  0  0  0  0  0  0  0  0  0
   44.5050   36.9340   42.7650 O   0  0  0  0  0  0  0  0  0  0  0  0
   45.0700   37.7200   42.4120 H   0  0  0  0  0  0  0  0  0  0  0  0
   47.5440   30.1820   49.2870 O   0  0  0  0  0  0  0  0  0  0  0  0
   49.8310   30.6220   51.1670 H   0  0  0  0  0  0  0  0  0  0  0  0
   49.4710   29.9480   50.4570 N   0  0  0  0  0  0  0  0  0  0  0  0
   50.4620   29.0550   49.9470 C   0  0  0  0  0  2  0  0  0  0  0  0
   50.7840   29.4900   48.5390 C   0  0  0  0  0  2  0  0  0  0  0  0
   49.5100   30.1530   48.0770 C   0  0  0  0  0  2  0  0  0  0  0  0
   48.7960   30.5900   49.3620 C   0  0  1  0  0  3  0  0  0  0  0  0
  1  6  1  6  0  0  0
  1  2  1  0  0  0  0
  1 28  1  0  0  0  0
  2  7  1  1  0  0  0
  3  8  1  0  0  0  0
  3  2  1  0  0  0  0
  4  3  1  0  0  0  0
  4  5  1  0  0  0  0
  5  1  1  0  0  0  0
  5 10  1  0  0  0  0
  9  3  1  0  0  0  0
 11  5  1  0  0  0  0
 12  2  1  0  0  0  0
 14 13  2  1  0  0  0
 14 12  1  0  0  0  0
 15 14  1  0  0  0  0
 16 15  1  0  0  0  0
 17 14  1  0  0  0  0
 18 23  1  0  0  0  0
 19 20  1  0  0  0  0
 19 18  2  0  0  0  0
 20 21  2  0  0  0  0
 21 22  1  0  0  0  0
 22 17  1  0  0  0  0
 23 22  2  0  0  0  0
 24 19  1  0  0  0  0
 25 20  1  0  0  0  0
 26 18  1  0  0  0  0
 27 26  1  0  0  0  0
 30 29  1  0  0  0  0
 31 30  1  0  0  0  0
 32 31  1  0  0  0  0
 33 32  1  0  0  0  0
 33 34  1  0  0  0  0
 34 28  1  6  0  0  0
 34 30  1  0  0  0  0
M  END
>  <minimizedAffinity>
-4.93189669

>  <minimizedRMSD>
0.11957483

$$$$
