
 OpenBabel03252508493D

 25 27  0  0  0  0  0  0  0  0999 V2000
   45.8170   34.2300   41.0110 C   0  0  0  0  0  0  0  0  0  0  0  0
   46.4580   34.7990   42.1320 C   0  0  0  0  0  0  0  0  0  0  0  0
   47.8200   35.0810   42.0100 C   0  0  0  0  0  0  0  0  0  0  0  0
   48.4410   34.7890   40.8220 N   0  0  0  0  0  0  0  0  0  0  0  0
   47.7910   34.2510   39.7920 C   0  0  0  0  0  0  0  0  0  0  0  0
   46.4760   33.9700   39.8840 N   0  0  0  0  0  0  0  0  0  0  0  0
   48.3410   35.5190   42.8540 H   0  0  0  0  0  0  0  0  0  0  0  0
   48.2730   34.0180   38.8510 H   0  0  0  0  0  0  0  0  0  0  0  0
   45.7030   35.0670   43.3440 C   0  0  0  0  0  0  0  0  0  0  0  0
   45.1170   36.2800   43.6200 C   0  0  0  0  0  0  0  0  0  0  0  0
   44.5230   36.0730   44.8500 C   0  0  0  0  0  0  0  0  0  0  0  0
   44.7370   34.8100   45.2920 N   0  0  0  0  0  0  0  0  0  0  0  0
   45.4520   34.2250   44.3620 N   0  0  0  0  0  0  0  0  0  0  0  0
   45.1000   37.2040   43.0390 H   0  0  0  0  0  0  0  0  0  0  0  0
   43.9490   36.8240   45.4090 H   0  0  0  0  0  0  0  0  0  0  0  0
   44.3750   34.4390   46.2040 H   0  0  0  0  0  0  0  0  0  0  0  0
   44.4760   33.9490   41.1210 O   0  0  0  0  0  0  0  0  0  0  0  0
   43.4480   34.7400   40.6770 C   0  0  0  0  0  0  0  0  0  0  0  0
   43.1320   35.9130   41.0580 O   0  0  0  0  0  0  0  0  0  0  0  0
   42.4100   34.5940   39.7070 N   0  0  0  0  0  0  0  0  0  0  0  0
   41.4710   33.5040   39.8900 C   0  0  0  0  0  2  0  0  0  0  0  0
   41.0790   33.2400   38.4350 C   0  0  0  0  0  2  0  0  0  0  0  0
   40.8350   34.6970   38.0160 C   0  0  0  0  0  2  0  0  0  0  0  0
   42.0990   35.3480   38.5320 C   0  0  0  0  0  3  0  0  0  0  0  0
   41.9810   36.4350   38.7370 H   0  0  0  0  0  0  0  0  0  0  0  0
  1 17  1  0  0  0  0
  1  2  1  0  0  0  0
  2  9  1  0  0  0  0
  3  2  2  0  0  0  0
  3  7  1  0  0  0  0
  4  3  1  0  0  0  0
  5  6  1  0  0  0  0
  5  4  2  0  0  0  0
  6  1  2  0  0  0  0
  8  5  1  0  0  0  0
  9 10  1  0  0  0  0
  9 13  2  0  0  0  0
 10 11  2  0  0  0  0
 11 12  1  0  0  0  0
 11 15  1  0  0  0  0
 12 16  1  0  0  0  0
 13 12  1  0  0  0  0
 14 10  1  0  0  0  0
 18 19  2  0  0  0  0
 18 17  1  0  0  0  0
 20 21  1  0  0  0  0
 20 18  1  0  0  0  0
 22 21  1  0  0  0  0
 23 22  1  0  0  0  0
 23 24  1  0  0  0  0
 24 25  1  0  0  0  0
 24 20  1  0  0  0  0
M  END
>  <minimizedAffinity>
-5.5818758

>  <minimizedRMSD>
0.761026978

$$$$
