
 OpenBabel03242520183D

 32 34  0  0  0  0  0  0  0  0999 V2000
   43.9320   34.6640   41.4770 C   0  0  0  0  0  0  0  0  0  0  0  0
   42.7920   35.4040   41.0870 C   0  0  0  0  0  0  0  0  0  0  0  0
   42.2240   35.1670   39.8470 C   0  0  0  0  0  0  0  0  0  0  0  0
   42.8170   34.2090   39.0640 N   0  0  0  0  0  0  0  0  0  0  0  0
   43.9140   33.5220   39.4840 C   0  0  0  0  0  0  0  0  0  0  0  0
   44.4640   33.7460   40.6750 N   0  0  0  0  0  0  0  0  0  0  0  0
   42.3550   36.1500   41.7310 H   0  0  0  0  0  0  0  0  0  0  0  0
   44.3260   32.7820   38.8080 H   0  0  0  0  0  0  0  0  0  0  0  0
   44.5430   34.9300   42.8060 C   0  0  0  0  0  0  0  0  0  0  0  0
   46.0570   35.3390   42.6800 C   0  0  0  0  0  0  0  0  0  0  0  0
   45.0060   36.1930   43.2460 C   0  0  0  0  0  0  0  0  0  0  0  0
   44.4110   34.0390   43.4900 H   0  0  0  0  0  0  0  0  0  0  0  0
   46.4120   35.6130   41.6760 H   0  0  0  0  0  0  0  0  0  0  0  0
   46.7490   34.7940   43.3430 H   0  0  0  0  0  0  0  0  0  0  0  0
   45.0280   36.4350   44.3340 H   0  0  0  0  0  0  0  0  0  0  0  0
   44.6830   37.1060   42.6650 H   0  0  0  0  0  0  0  0  0  0  0  0
   41.0240   35.9230   39.4170 C   0  0  0  0  0  0  0  0  0  0  0  0
   41.2820   37.0040   39.4970 H   0  0  0  0  0  0  0  0  0  0  0  0
   40.8270   35.7190   38.3470 H   0  0  0  0  0  0  0  0  0  0  0  0
   39.8450   35.5980   40.3060 C   0  0  0  0  0  0  0  0  0  0  0  0
   40.1310   35.5750   41.3630 H   0  0  0  0  0  0  0  0  0  0  0  0
   39.1320   36.4600   40.1670 H   0  0  0  0  0  0  0  0  0  0  0  0
   39.1780   33.3000   40.7560 C   0  0  0  0  0  0  0  0  0  0  0  0
   39.7450   33.2460   41.8830 O   0  0  0  0  0  0  0  0  0  0  0  0
   39.1340   34.4110   39.8830 N   0  0  0  0  0  0  0  0  0  0  0  0
   38.6250   34.3970   38.9820 H   0  0  0  0  0  0  0  0  0  0  0  0
   38.4970   32.1160   40.2870 N   0  0  0  0  0  0  0  0  0  0  0  0
   38.2800   31.6460   38.9120 C   0  0  0  0  0  0  0  0  0  0  0  0
   38.3870   30.1390   38.9900 C   0  0  0  0  0  0  0  0  0  0  0  0
   37.9950   29.7890   40.3950 C   0  0  0  0  0  0  0  0  0  0  0  0
   37.8520   31.0930   41.1140 C   0  0  0  0  0  0  0  0  0  0  0  0
   38.4600   31.0190   42.0620 H   0  0  0  0  0  0  0  0  0  0  0  0
  1  9  1  0  0  0  0
  2  1  1  0  0  0  0
  2  7  1  0  0  0  0
  3  2  2  0  0  0  0
  4  5  2  0  0  0  0
  4  3  1  0  0  0  0
  5  6  1  0  0  0  0
  6  1  2  0  0  0  0
  8  5  1  0  0  0  0
  9 11  1  0  0  0  0
  9 12  1  0  0  0  0
 10  9  1  0  0  0  0
 10 11  1  0  0  0  0
 10 14  1  0  0  0  0
 11 15  1  0  0  0  0
 13 10  1  0  0  0  0
 16 11  1  0  0  0  0
 17 18  1  0  0  0  0
 17  3  1  0  0  0  0
 17 20  1  0  0  0  0
 19 17  1  0  0  0  0
 20 21  1  0  0  0  0
 22 20  1  0  0  0  0
 23 24  2  0  0  0  0
 25 20  1  0  0  0  0
 25 23  1  0  0  0  0
 26 25  1  0  0  0  0
 27 23  1  0  0  0  0
 27 31  1  0  0  0  0
 28 29  1  0  0  0  0
 28 27  1  0  0  0  0
 29 30  1  0  0  0  0
 30 31  1  0  0  0  0
 31 32  1  0  0  0  0
M  END
>  <minimizedAffinity>
-4.9980526

>  <minimizedRMSD>
0.424379647

$$$$
