
 OpenBabel03242510243D

 35 38  0  0  1  0  0  0  0  0999 V2000
   37.6290   29.8350   39.8630 N   0  0  0  0  0  0  0  0  0  0  0  0
   37.0110   29.8910   41.1100 C   0  0  0  0  0  0  0  0  0  0  0  0
   36.1990   30.7250   41.5850 O   0  0  0  0  0  0  0  0  0  0  0  0
   38.6480   29.5660   39.9520 H   0  0  0  0  0  0  0  0  0  0  0  0
   37.3240   31.3680   37.9520 C   0  0  1  0  0  0  0  0  0  0  0  0
   37.9110   30.2110   37.4250 C   0  0  0  0  0  0  0  0  0  0  0  0
   36.9480   30.1160   38.6480 C   0  0  1  0  0  0  0  0  0  0  0  0
   36.5380   31.9450   37.4140 H   0  0  0  0  0  0  0  0  0  0  0  0
   38.9110   29.7670   37.5710 H   0  0  0  0  0  0  0  0  0  0  0  0
   37.4550   29.7770   36.4820 H   0  0  0  0  0  0  0  0  0  0  0  0
   36.0440   29.5080   38.4290 H   0  0  0  0  0  0  0  0  0  0  0  0
   37.6850   33.3170   39.6420 C   0  0  0  0  0  0  0  0  0  0  0  0
   38.2170   32.3310   38.7460 C   0  0  0  0  0  0  0  0  0  0  0  0
   39.5890   32.2850   38.5940 C   0  0  0  0  0  0  0  0  0  0  0  0
   40.3540   33.1590   39.2860 N   0  0  0  0  0  0  0  0  0  0  0  0
   39.8350   34.0870   40.1290 C   0  0  0  0  0  0  0  0  0  0  0  0
   38.4510   34.1610   40.3060 N   0  0  0  0  0  0  0  0  0  0  0  0
   36.6380   33.2840   39.7230 H   0  0  0  0  0  0  0  0  0  0  0  0
   40.0340   31.5600   37.9310 H   0  0  0  0  0  0  0  0  0  0  0  0
   40.4940   34.7610   40.6570 H   0  0  0  0  0  0  0  0  0  0  0  0
   37.2990   28.8040   42.1270 C   0  0  2  0  0  0  0  0  0  0  0  0
   38.3810   29.1440   43.2210 C   0  0  0  0  0  0  0  0  0  0  0  0
   38.5900   28.1100   42.1630 C   0  0  1  0  0  0  0  0  0  0  0  0
   36.4290   28.3200   42.6180 H   0  0  0  0  0  0  0  0  0  0  0  0
   38.8290   30.1520   43.0690 H   0  0  0  0  0  0  0  0  0  0  0  0
   38.2270   28.7570   44.2240 H   0  0  0  0  0  0  0  0  0  0  0  0
   39.3090   28.3080   41.3400 H   0  0  0  0  0  0  0  0  0  0  0  0
   38.6030   26.6650   42.6010 C   0  0  0  0  0  0  0  0  0  0  0  0
   39.1520   26.3350   43.6400 O   0  0  0  0  0  0  0  0  0  0  0  0
   37.9700   25.6720   41.8010 N   0  0  0  0  0  0  0  0  0  0  0  0
   37.3270   24.4110   42.1730 C   0  0  0  0  0  2  0  0  0  0  0  0
   37.7730   23.4330   41.1110 C   0  0  0  0  0  2  0  0  0  0  0  0
   38.1890   24.2810   39.9250 C   0  0  0  0  0  2  0  0  0  0  0  0
   37.8060   25.6770   40.3690 C   0  0  0  0  0  3  0  0  0  0  0  0
   36.7270   25.8620   40.1590 H   0  0  0  0  0  0  0  0  0  0  0  0
  1  4  1  0  0  0  0
  1  2  1  0  0  0  0
  2  3  2  0  0  0  0
  2 21  1  0  0  0  0
  5  8  1  6  0  0  0
  5  7  1  0  0  0  0
  5 13  1  0  0  0  0
  6  9  1  0  0  0  0
  6  5  1  0  0  0  0
  6  7  1  0  0  0  0
  7 11  1  6  0  0  0
  7  1  1  0  0  0  0
 10  6  1  0  0  0  0
 12 18  1  0  0  0  0
 12 17  1  0  0  0  0
 13 12  2  0  0  0  0
 14 13  1  0  0  0  0
 14 15  2  0  0  0  0
 15 16  1  0  0  0  0
 16 17  2  0  0  0  0
 16 20  1  0  0  0  0
 19 14  1  0  0  0  0
 21 23  1  0  0  0  0
 21 24  1  1  0  0  0
 21 22  1  0  0  0  0
 22 26  1  0  0  0  0
 23 27  1  6  0  0  0
 23 28  1  0  0  0  0
 23 22  1  0  0  0  0
 25 22  1  0  0  0  0
 28 29  2  0  0  0  0
 30 31  1  0  0  0  0
 30 28  1  0  0  0  0
 32 31  1  0  0  0  0
 33 34  1  0  0  0  0
 33 32  1  0  0  0  0
 34 30  1  0  0  0  0
 35 34  1  0  0  0  0
M  END
>  <minimizedAffinity>
-5.35817385

$$$$

 OpenBabel03242510243D

 35 38  0  0  1  0  0  0  0  0999 V2000
   36.9570   28.8320   41.4720 N   0  0  0  0  0  0  0  0  0  0  0  0
   36.0480   29.5090   40.6630 C   0  0  0  0  0  0  0  0  0  0  0  0
   34.8680   29.2240   40.3410 O   0  0  0  0  0  0  0  0  0  0  0  0
   37.9260   28.8370   41.0490 H   0  0  0  0  0  0  0  0  0  0  0  0
   37.0930   26.8460   42.9330 C   0  0  1  0  0  0  0  0  0  0  0  0
   37.8250   27.8480   43.5800 C   0  0  0  0  0  0  0  0  0  0  0  0
   36.5920   28.2210   42.7020 C   0  0  1  0  0  0  0  0  0  0  0  0
   36.4490   26.1200   43.4800 H   0  0  0  0  0  0  0  0  0  0  0  0
   38.7700   28.3530   43.3130 H   0  0  0  0  0  0  0  0  0  0  0  0
   37.6310   28.0060   44.6860 H   0  0  0  0  0  0  0  0  0  0  0  0
   35.7880   28.7170   43.2880 H   0  0  0  0  0  0  0  0  0  0  0  0
   36.9550   25.5440   40.6810 C   0  0  0  0  0  0  0  0  0  0  0  0
   37.7320   26.1560   41.7200 C   0  0  0  0  0  0  0  0  0  0  0  0
   39.1070   26.0850   41.6100 C   0  0  0  0  0  0  0  0  0  0  0  0
   39.6470   25.4520   40.5460 N   0  0  0  0  0  0  0  0  0  0  0  0
   38.8970   24.8770   39.5710 C   0  0  0  0  0  0  0  0  0  0  0  0
   37.5030   24.9290   39.6510 N   0  0  0  0  0  0  0  0  0  0  0  0
   35.9180   25.6510   40.8190 H   0  0  0  0  0  0  0  0  0  0  0  0
   39.7320   26.5320   42.3680 H   0  0  0  0  0  0  0  0  0  0  0  0
   39.3830   24.3830   38.7420 H   0  0  0  0  0  0  0  0  0  0  0  0
   36.4620   30.8220   40.0250 C   0  0  2  0  0  0  0  0  0  0  0  0
   36.8290   30.7660   38.4930 C   0  0  0  0  0  0  0  0  0  0  0  0
   37.8340   31.0500   39.5610 C   0  0  1  0  0  0  0  0  0  0  0  0
   35.8160   31.7050   40.2090 H   0  0  0  0  0  0  0  0  0  0  0  0
   36.7720   29.7310   38.0860 H   0  0  0  0  0  0  0  0  0  0  0  0
   36.5560   31.6150   37.8750 H   0  0  0  0  0  0  0  0  0  0  0  0
   38.6000   30.2860   39.8090 H   0  0  0  0  0  0  0  0  0  0  0  0
   38.3800   32.4550   39.6400 C   0  0  0  0  0  0  0  0  0  0  0  0
   37.6540   33.3900   39.9390 O   0  0  0  0  0  0  0  0  0  0  0  0
   39.7560   32.7020   39.3660 N   0  0  0  0  0  0  0  0  0  0  0  0
   40.6650   33.7260   39.8820 C   0  0  0  0  0  2  0  0  0  0  0  0
   41.4660   34.1610   38.6770 C   0  0  0  0  0  2  0  0  0  0  0  0
   41.3580   33.0220   37.6840 C   0  0  0  0  0  2  0  0  0  0  0  0
   40.6150   31.9660   38.4730 C   0  0  0  0  0  3  0  0  0  0  0  0
   41.3300   31.3870   39.1040 H   0  0  0  0  0  0  0  0  0  0  0  0
  1  7  1  0  0  0  0
  2  1  1  0  0  0  0
  3  2  2  0  0  0  0
  4  1  1  0  0  0  0
  5  8  1  1  0  0  0
  5  6  1  0  0  0  0
  6 10  1  0  0  0  0
  7  5  1  0  0  0  0
  7 11  1  1  0  0  0
  7  6  1  0  0  0  0
  9  6  1  0  0  0  0
 12 18  1  0  0  0  0
 12 13  1  0  0  0  0
 13  5  1  0  0  0  0
 14 13  2  0  0  0  0
 14 19  1  0  0  0  0
 15 14  1  0  0  0  0
 16 17  1  0  0  0  0
 16 15  2  0  0  0  0
 17 12  2  0  0  0  0
 20 16  1  0  0  0  0
 21 24  1  1  0  0  0
 21  2  1  0  0  0  0
 22 23  1  0  0  0  0
 22 21  1  0  0  0  0
 23 28  1  0  0  0  0
 23 27  1  1  0  0  0
 23 21  1  0  0  0  0
 25 22  1  0  0  0  0
 26 22  1  0  0  0  0
 28 29  2  0  0  0  0
 30 28  1  0  0  0  0
 30 31  1  0  0  0  0
 32 31  1  0  0  0  0
 33 34  1  0  0  0  0
 33 32  1  0  0  0  0
 34 35  1  0  0  0  0
 34 30  1  0  0  0  0
M  END
>  <minimizedAffinity>
-5.19912529

$$$$

 OpenBabel03242510243D

 35 38  0  0  1  0  0  0  0  0999 V2000
   32.6510   28.6360   37.2280 N   0  0  0  0  0  0  0  0  0  0  0  0
   33.8400   28.1400   37.7560 C   0  0  0  0  0  0  0  0  0  0  0  0
   34.4500   27.0640   37.5310 O   0  0  0  0  0  0  0  0  0  0  0  0
   32.0530   29.0790   37.9790 H   0  0  0  0  0  0  0  0  0  0  0  0
   31.1970   29.3870   35.3790 C   0  0  1  0  0  0  0  0  0  0  0  0
   32.4710   29.8930   35.0940 C   0  0  0  0  0  0  0  0  0  0  0  0
   32.3160   28.5380   35.8510 C   0  0  1  0  0  0  0  0  0  0  0  0
   30.5140   28.9940   34.5920 H   0  0  0  0  0  0  0  0  0  0  0  0
   33.0860   30.6550   35.6040 H   0  0  0  0  0  0  0  0  0  0  0  0
   32.8640   29.7570   34.0400 H   0  0  0  0  0  0  0  0  0  0  0  0
   32.7550   27.6860   35.2880 H   0  0  0  0  0  0  0  0  0  0  0  0
   30.5670   31.4540   36.8340 C   0  0  0  0  0  0  0  0  0  0  0  0
   30.3760   30.0780   36.4760 C   0  0  0  0  0  0  0  0  0  0  0  0
   29.4240   29.3650   37.1790 C   0  0  0  0  0  0  0  0  0  0  0  0
   28.7300   29.9870   38.1560 N   0  0  0  0  0  0  0  0  0  0  0  0
   28.9230   31.2900   38.4830 C   0  0  0  0  0  0  0  0  0  0  0  0
   29.8780   32.0410   37.7930 N   0  0  0  0  0  0  0  0  0  0  0  0
   31.2910   31.9390   36.2470 H   0  0  0  0  0  0  0  0  0  0  0  0
   29.2460   28.3270   36.9440 H   0  0  0  0  0  0  0  0  0  0  0  0
   28.3380   31.7380   39.2750 H   0  0  0  0  0  0  0  0  0  0  0  0
   34.6000   28.9690   38.7730 C   0  0  2  0  0  0  0  0  0  0  0  0
   35.9620   29.5930   38.2840 C   0  0  0  0  0  0  0  0  0  0  0  0
   35.8850   28.5210   39.3210 C   0  0  1  0  0  0  0  0  0  0  0  0
   34.0310   29.7390   39.3320 H   0  0  0  0  0  0  0  0  0  0  0  0
   36.2070   29.2970   37.2380 H   0  0  0  0  0  0  0  0  0  0  0  0
   36.2300   30.5780   38.6530 H   0  0  0  0  0  0  0  0  0  0  0  0
   36.2260   27.4940   39.0730 H   0  0  0  0  0  0  0  0  0  0  0  0
   36.2190   28.9090   40.7420 C   0  0  0  0  0  0  0  0  0  0  0  0
   35.9930   30.0370   41.1480 O   0  0  0  0  0  0  0  0  0  0  0  0
   36.8010   27.9540   41.6240 N   0  0  0  0  0  0  0  0  0  0  0  0
   36.7040   27.8100   43.0760 C   0  0  0  0  0  2  0  0  0  0  0  0
   38.1070   27.4580   43.5140 C   0  0  0  0  0  2  0  0  0  0  0  0
   38.7910   26.9020   42.2820 C   0  0  0  0  0  2  0  0  0  0  0  0
   37.6630   26.8530   41.2740 C   0  0  0  0  0  3  0  0  0  0  0  0
   37.0740   25.9160   41.4040 H   0  0  0  0  0  0  0  0  0  0  0  0
  1  2  1  0  0  0  0
  1  4  1  0  0  0  0
  2 21  1  0  0  0  0
  3  2  2  0  0  0  0
  5  8  1  6  0  0  0
  5  7  1  0  0  0  0
  5 13  1  0  0  0  0
  6  5  1  0  0  0  0
  6  9  1  0  0  0  0
  6  7  1  0  0  0  0
  7 11  1  6  0  0  0
  7  1  1  0  0  0  0
 10  6  1  0  0  0  0
 12 17  1  0  0  0  0
 13 12  2  0  0  0  0
 13 14  1  0  0  0  0
 14 15  2  0  0  0  0
 15 16  1  0  0  0  0
 16 20  1  0  0  0  0
 17 16  2  0  0  0  0
 18 12  1  0  0  0  0
 19 14  1  0  0  0  0
 21 23  1  0  0  0  0
 21 24  1  1  0  0  0
 22 26  1  0  0  0  0
 22 21  1  0  0  0  0
 22 23  1  0  0  0  0
 23 27  1  6  0  0  0
 23 28  1  0  0  0  0
 25 22  1  0  0  0  0
 28 29  2  0  0  0  0
 28 30  1  0  0  0  0
 30 31  1  0  0  0  0
 31 32  1  0  0  0  0
 33 32  1  0  0  0  0
 34 35  1  0  0  0  0
 34 30  1  0  0  0  0
 34 33  1  0  0  0  0
M  END
>  <minimizedAffinity>
-5.15533781

$$$$

 OpenBabel03242510243D

 35 38  0  0  1  0  0  0  0  0999 V2000
   38.5130   27.6130   42.5530 N   0  0  0  0  0  0  0  0  0  0  0  0
   37.2020   28.0680   42.6680 C   0  0  0  0  0  0  0  0  0  0  0  0
   36.2250   27.5960   43.3030 O   0  0  0  0  0  0  0  0  0  0  0  0
   38.8620   27.6930   41.5580 H   0  0  0  0  0  0  0  0  0  0  0  0
   39.8480   25.7610   43.4930 C   0  0  1  0  0  0  0  0  0  0  0  0
   40.7450   26.8170   43.2950 C   0  0  0  0  0  0  0  0  0  0  0  0
   39.2560   27.1090   43.6550 C   0  0  1  0  0  0  0  0  0  0  0  0
   39.8990   25.0830   44.3750 H   0  0  0  0  0  0  0  0  0  0  0  0
   41.1160   27.2990   42.3730 H   0  0  0  0  0  0  0  0  0  0  0  0
   41.4520   27.0690   44.1440 H   0  0  0  0  0  0  0  0  0  0  0  0
   39.1520   27.6520   44.6190 H   0  0  0  0  0  0  0  0  0  0  0  0
   38.1730   24.1970   42.2530 C   0  0  0  0  0  0  0  0  0  0  0  0
   39.3820   24.9710   42.2630 C   0  0  0  0  0  0  0  0  0  0  0  0
   40.1480   24.9660   41.1130 C   0  0  0  0  0  0  0  0  0  0  0  0
   39.7300   24.2440   40.0510 N   0  0  0  0  0  0  0  0  0  0  0  0
   38.5830   23.5170   40.0580 C   0  0  0  0  0  0  0  0  0  0  0  0
   37.7850   23.4990   41.2040 N   0  0  0  0  0  0  0  0  0  0  0  0
   37.6320   24.2610   43.1520 H   0  0  0  0  0  0  0  0  0  0  0  0
   41.0640   25.5330   41.0740 H   0  0  0  0  0  0  0  0  0  0  0  0
   38.2970   22.9570   39.1790 H   0  0  0  0  0  0  0  0  0  0  0  0
   36.7940   29.3380   41.9470 C   0  0  2  0  0  0  0  0  0  0  0  0
   35.8600   29.1560   40.6910 C   0  0  0  0  0  0  0  0  0  0  0  0
   37.2700   29.6380   40.5930 C   0  0  1  0  0  0  0  0  0  0  0  0
   36.4070   30.1740   42.5650 H   0  0  0  0  0  0  0  0  0  0  0  0
   35.6540   28.0830   40.4740 H   0  0  0  0  0  0  0  0  0  0  0  0
   35.0990   29.9090   40.5110 H   0  0  0  0  0  0  0  0  0  0  0  0
   38.0470   28.9750   40.1570 H   0  0  0  0  0  0  0  0  0  0  0  0
   37.4820   31.0870   40.2250 C   0  0  0  0  0  0  0  0  0  0  0  0
   36.6440   31.6930   39.5770 O   0  0  0  0  0  0  0  0  0  0  0  0
   38.6670   31.7620   40.6350 N   0  0  0  0  0  0  0  0  0  0  0  0
   38.9050   33.1710   40.9500 C   0  0  0  0  0  2  0  0  0  0  0  0
   40.2470   33.4740   40.3240 C   0  0  0  0  0  2  0  0  0  0  0  0
   40.9340   32.1330   40.1630 C   0  0  0  0  0  2  0  0  0  0  0  0
   39.9720   31.1860   40.8470 C   0  0  0  0  0  3  0  0  0  0  0  0
   40.1570   31.1810   41.9460 H   0  0  0  0  0  0  0  0  0  0  0  0
  1  2  1  0  0  0  0
  1  7  1  0  0  0  0
  2  3  2  0  0  0  0
  4  1  1  0  0  0  0
  5  7  1  0  0  0  0
  5  8  1  1  0  0  0
  6  5  1  0  0  0  0
  6  7  1  0  0  0  0
  6 10  1  0  0  0  0
  7 11  1  1  0  0  0
  9  6  1  0  0  0  0
 12 13  1  0  0  0  0
 12 18  1  0  0  0  0
 13  5  1  0  0  0  0
 14 13  2  0  0  0  0
 15 16  2  0  0  0  0
 15 14  1  0  0  0  0
 16 17  1  0  0  0  0
 17 12  2  0  0  0  0
 19 14  1  0  0  0  0
 20 16  1  0  0  0  0
 21 24  1  1  0  0  0
 21  2  1  0  0  0  0
 22 21  1  0  0  0  0
 23 27  1  6  0  0  0
 23 22  1  0  0  0  0
 23 21  1  0  0  0  0
 25 22  1  0  0  0  0
 26 22  1  0  0  0  0
 28 23  1  0  0  0  0
 28 30  1  0  0  0  0
 29 28  2  0  0  0  0
 30 34  1  0  0  0  0
 30 31  1  0  0  0  0
 32 31  1  0  0  0  0
 33 32  1  0  0  0  0
 33 34  1  0  0  0  0
 34 35  1  0  0  0  0
M  END
>  <minimizedAffinity>
-5.04362106

$$$$

 OpenBabel03242510243D

 35 38  0  0  1  0  0  0  0  0999 V2000
   39.5460   31.3810   39.7870 N   0  0  0  0  0  0  0  0  0  0  0  0
   40.2240   31.3470   41.0040 C   0  0  0  0  0  0  0  0  0  0  0  0
   41.0460   32.1540   41.5060 O   0  0  0  0  0  0  0  0  0  0  0  0
   39.5330   30.4290   39.3280 H   0  0  0  0  0  0  0  0  0  0  0  0
   37.4860   32.5850   39.1540 C   0  0  1  0  0  0  0  0  0  0  0  0
   37.9980   33.2620   40.2670 C   0  0  0  0  0  0  0  0  0  0  0  0
   38.9630   32.5650   39.2600 C   0  0  1  0  0  0  0  0  0  0  0  0
   37.0120   33.1100   38.2940 H   0  0  0  0  0  0  0  0  0  0  0  0
   38.1090   32.9560   41.3220 H   0  0  0  0  0  0  0  0  0  0  0  0
   38.0570   34.3920   40.2100 H   0  0  0  0  0  0  0  0  0  0  0  0
   39.6510   33.2840   38.7650 H   0  0  0  0  0  0  0  0  0  0  0  0
   36.3520   30.8100   40.6880 C   0  0  0  0  0  0  0  0  0  0  0  0
   36.7810   31.2420   39.3890 C   0  0  0  0  0  0  0  0  0  0  0  0
   36.5600   30.3840   38.3290 C   0  0  0  0  0  0  0  0  0  0  0  0
   35.9600   29.1960   38.5630 N   0  0  0  0  0  0  0  0  0  0  0  0
   35.5600   28.8020   39.7990 C   0  0  0  0  0  0  0  0  0  0  0  0
   35.7690   29.6450   40.8930 N   0  0  0  0  0  0  0  0  0  0  0  0
   36.5350   31.5180   41.4430 H   0  0  0  0  0  0  0  0  0  0  0  0
   36.8660   30.6660   37.3340 H   0  0  0  0  0  0  0  0  0  0  0  0
   35.0850   27.8400   39.9280 H   0  0  0  0  0  0  0  0  0  0  0  0
   39.9880   30.1840   41.9490 C   0  0  2  0  0  0  0  0  0  0  0  0
   41.0460   29.0170   41.8920 C   0  0  0  0  0  0  0  0  0  0  0  0
   39.6280   28.8530   41.4510 C   0  0  1  0  0  0  0  0  0  0  0  0
   39.7730   30.4240   43.0100 H   0  0  0  0  0  0  0  0  0  0  0  0
   41.8220   29.1920   41.1130 H   0  0  0  0  0  0  0  0  0  0  0  0
   41.3030   28.5200   42.8220 H   0  0  0  0  0  0  0  0  0  0  0  0
   39.4000   28.7470   40.3690 H   0  0  0  0  0  0  0  0  0  0  0  0
   38.7310   27.9970   42.3120 C   0  0  0  0  0  0  0  0  0  0  0  0
   38.4090   28.3630   43.4310 O   0  0  0  0  0  0  0  0  0  0  0  0
   38.2490   26.7500   41.8210 N   0  0  0  0  0  0  0  0  0  0  0  0
   37.0100   26.0250   42.1040 C   0  0  0  0  0  2  0  0  0  0  0  0
   37.4370   24.5800   42.2210 C   0  0  0  0  0  2  0  0  0  0  0  0
   38.7580   24.4850   41.4860 C   0  0  0  0  0  2  0  0  0  0  0  0
   38.9010   25.8670   40.8860 C   0  0  0  0  0  3  0  0  0  0  0  0
   38.3390   25.9280   39.9260 H   0  0  0  0  0  0  0  0  0  0  0  0
  1  2  1  0  0  0  0
  2  3  2  0  0  0  0
  2 21  1  0  0  0  0
  4  1  1  0  0  0  0
  5  8  1  6  0  0  0
  5  7  1  0  0  0  0
  5 13  1  0  0  0  0
  5  6  1  0  0  0  0
  6  9  1  0  0  0  0
  7 11  1  6  0  0  0
  7  1  1  0  0  0  0
  7  6  1  0  0  0  0
 10  6  1  0  0  0  0
 12 17  1  0  0  0  0
 12 18  1  0  0  0  0
 13 12  2  0  0  0  0
 14 15  2  0  0  0  0
 14 13  1  0  0  0  0
 15 16  1  0  0  0  0
 16 20  1  0  0  0  0
 16 17  2  0  0  0  0
 19 14  1  0  0  0  0
 21 24  1  1  0  0  0
 22 21  1  0  0  0  0
 22 26  1  0  0  0  0
 23 27  1  6  0  0  0
 23 22  1  0  0  0  0
 23 21  1  0  0  0  0
 23 28  1  0  0  0  0
 25 22  1  0  0  0  0
 28 29  2  0  0  0  0
 30 31  1  0  0  0  0
 30 28  1  0  0  0  0
 31 32  1  0  0  0  0
 33 32  1  0  0  0  0
 34 33  1  0  0  0  0
 34 30  1  0  0  0  0
 35 34  1  0  0  0  0
M  END
>  <minimizedAffinity>
-5.02650118

$$$$

 OpenBabel03242510243D

 35 38  0  0  1  0  0  0  0  0999 V2000
   36.9660   28.4750   41.1440 N   0  0  0  0  0  0  0  0  0  0  0  0
   35.9960   29.0540   40.3280 C   0  0  0  0  0  0  0  0  0  0  0  0
   34.7440   29.0740   40.4320 O   0  0  0  0  0  0  0  0  0  0  0  0
   37.7160   28.0000   40.5710 H   0  0  0  0  0  0  0  0  0  0  0  0
   37.5390   27.4040   43.2930 C   0  0  1  0  0  0  0  0  0  0  0  0
   38.3330   28.5540   43.2150 C   0  0  0  0  0  0  0  0  0  0  0  0
   36.9170   28.5330   42.5630 C   0  0  1  0  0  0  0  0  0  0  0  0
   37.0760   27.0540   44.2440 H   0  0  0  0  0  0  0  0  0  0  0  0
   39.1640   28.8250   42.5400 H   0  0  0  0  0  0  0  0  0  0  0  0
   38.3780   29.2230   44.1290 H   0  0  0  0  0  0  0  0  0  0  0  0
   36.2330   29.2860   43.0100 H   0  0  0  0  0  0  0  0  0  0  0  0
   37.0320   25.1170   42.1540 C   0  0  0  0  0  0  0  0  0  0  0  0
   37.9370   26.1940   42.4370 C   0  0  0  0  0  0  0  0  0  0  0  0
   39.2170   26.0990   41.9270 C   0  0  0  0  0  0  0  0  0  0  0  0
   39.5520   25.0130   41.1970 N   0  0  0  0  0  0  0  0  0  0  0  0
   38.6840   24.0020   40.9380 C   0  0  0  0  0  0  0  0  0  0  0  0
   37.3810   24.0650   41.4390 N   0  0  0  0  0  0  0  0  0  0  0  0
   36.0730   25.2630   42.5570 H   0  0  0  0  0  0  0  0  0  0  0  0
   39.9310   26.8850   42.1150 H   0  0  0  0  0  0  0  0  0  0  0  0
   39.0060   23.1560   40.3470 H   0  0  0  0  0  0  0  0  0  0  0  0
   36.4300   29.8120   39.0880 C   0  0  2  0  0  0  0  0  0  0  0  0
   36.7260   28.9400   37.8080 C   0  0  0  0  0  0  0  0  0  0  0  0
   37.7880   29.6860   38.5480 C   0  0  1  0  0  0  0  0  0  0  0  0
   35.8270   30.6940   38.7910 H   0  0  0  0  0  0  0  0  0  0  0  0
   36.6120   27.8500   38.0080 H   0  0  0  0  0  0  0  0  0  0  0  0
   36.4580   29.3530   36.8410 H   0  0  0  0  0  0  0  0  0  0  0  0
   38.5350   29.1230   39.1480 H   0  0  0  0  0  0  0  0  0  0  0  0
   38.3910   30.8900   37.8660 C   0  0  0  0  0  0  0  0  0  0  0  0
   37.6870   31.6680   37.2420 O   0  0  0  0  0  0  0  0  0  0  0  0
   39.7920   31.1300   37.9490 N   0  0  0  0  0  0  0  0  0  0  0  0
   40.5510   32.3810   37.9310 C   0  0  0  0  0  2  0  0  0  0  0  0
   41.7510   32.0810   37.0630 C   0  0  0  0  0  2  0  0  0  0  0  0
   41.8960   30.5720   37.0760 C   0  0  0  0  0  2  0  0  0  0  0  0
   40.8410   30.1490   38.0740 C   0  0  0  0  0  3  0  0  0  0  0  0
   41.2430   30.2240   39.1110 H   0  0  0  0  0  0  0  0  0  0  0  0
  1  7  1  0  0  0  0
  2  3  2  0  0  0  0
  2  1  1  0  0  0  0
  4  1  1  0  0  0  0
  5  8  1  1  0  0  0
  6  5  1  0  0  0  0
  6 10  1  0  0  0  0
  7 11  1  1  0  0  0
  7  6  1  0  0  0  0
  7  5  1  0  0  0  0
  9  6  1  0  0  0  0
 12 13  1  0  0  0  0
 12 18  1  0  0  0  0
 13  5  1  0  0  0  0
 14 19  1  0  0  0  0
 14 13  2  0  0  0  0
 15 14  1  0  0  0  0
 16 15  2  0  0  0  0
 16 17  1  0  0  0  0
 17 12  2  0  0  0  0
 20 16  1  0  0  0  0
 21 24  1  6  0  0  0
 21  2  1  0  0  0  0
 22 25  1  0  0  0  0
 22 23  1  0  0  0  0
 22 21  1  0  0  0  0
 23 21  1  0  0  0  0
 23 27  1  1  0  0  0
 26 22  1  0  0  0  0
 28 30  1  0  0  0  0
 28 23  1  0  0  0  0
 29 28  2  0  0  0  0
 30 34  1  0  0  0  0
 31 30  1  0  0  0  0
 32 33  1  0  0  0  0
 32 31  1  0  0  0  0
 33 34  1  0  0  0  0
 34 35  1  0  0  0  0
M  END
>  <minimizedAffinity>
-4.93032837

$$$$

 OpenBabel03242510243D

 35 38  0  0  1  0  0  0  0  0999 V2000
   38.0390   30.0350   41.4670 N   0  0  0  0  0  0  0  0  0  0  0  0
   38.2310   29.1110   42.4920 C   0  0  0  0  0  0  0  0  0  0  0  0
   37.7990   29.0970   43.6720 O   0  0  0  0  0  0  0  0  0  0  0  0
   38.9380   30.2190   40.9430 H   0  0  0  0  0  0  0  0  0  0  0  0
   36.7860   31.7900   40.2660 C   0  0  1  0  0  0  0  0  0  0  0  0
   36.4020   30.5780   39.6800 C   0  0  0  0  0  0  0  0  0  0  0  0
   36.7800   30.6350   41.1920 C   0  0  1  0  0  0  0  0  0  0  0  0
   36.0730   32.6280   40.4410 H   0  0  0  0  0  0  0  0  0  0  0  0
   36.9670   29.8470   39.0760 H   0  0  0  0  0  0  0  0  0  0  0  0
   35.2940   30.4030   39.5180 H   0  0  0  0  0  0  0  0  0  0  0  0
   35.9330   30.3460   41.8520 H   0  0  0  0  0  0  0  0  0  0  0  0
   38.8910   31.9550   38.7410 C   0  0  0  0  0  0  0  0  0  0  0  0
   38.1680   32.3560   39.9130 C   0  0  0  0  0  0  0  0  0  0  0  0
   38.7740   33.2720   40.7510 C   0  0  0  0  0  0  0  0  0  0  0  0
   40.0010   33.7380   40.4330 N   0  0  0  0  0  0  0  0  0  0  0  0
   40.6730   33.3480   39.3200 C   0  0  0  0  0  0  0  0  0  0  0  0
   40.0890   32.4230   38.4500 N   0  0  0  0  0  0  0  0  0  0  0  0
   38.3640   31.2720   38.1410 H   0  0  0  0  0  0  0  0  0  0  0  0
   38.2680   33.6030   41.6440 H   0  0  0  0  0  0  0  0  0  0  0  0
   41.6540   33.7540   39.1140 H   0  0  0  0  0  0  0  0  0  0  0  0
   39.0830   27.8840   42.2320 C   0  0  2  0  0  0  0  0  0  0  0  0
   40.5120   28.1470   41.6210 C   0  0  0  0  0  0  0  0  0  0  0  0
   39.4200   27.4600   40.8690 C   0  0  1  0  0  0  0  0  0  0  0  0
   39.1720   27.1410   43.0500 H   0  0  0  0  0  0  0  0  0  0  0  0
   40.6900   29.2280   41.4210 H   0  0  0  0  0  0  0  0  0  0  0  0
   41.3270   27.5070   41.9440 H   0  0  0  0  0  0  0  0  0  0  0  0
   38.9240   27.9830   40.0240 H   0  0  0  0  0  0  0  0  0  0  0  0
   39.5820   25.9810   40.6100 C   0  0  0  0  0  0  0  0  0  0  0  0
   40.6400   25.5350   40.1970 O   0  0  0  0  0  0  0  0  0  0  0  0
   38.4960   25.0910   40.8500 N   0  0  0  0  0  0  0  0  0  0  0  0
   38.4830   23.6840   41.2500 C   0  0  0  0  0  2  0  0  0  0  0  0
   37.3890   23.0650   40.4120 C   0  0  0  0  0  2  0  0  0  0  0  0
   36.4970   24.2160   39.9910 C   0  0  0  0  0  2  0  0  0  0  0  0
   37.0880   25.3840   40.7510 C   0  0  0  0  0  3  0  0  0  0  0  0
   36.6810   25.4110   41.7880 H   0  0  0  0  0  0  0  0  0  0  0  0
  1  2  1  0  0  0  0
  2  3  2  0  0  0  0
  4  1  1  0  0  0  0
  5  8  1  1  0  0  0
  5  7  1  0  0  0  0
  6  5  1  0  0  0  0
  6  7  1  0  0  0  0
  7  1  1  0  0  0  0
  7 11  1  1  0  0  0
  9  6  1  0  0  0  0
 10  6  1  0  0  0  0
 12 13  1  0  0  0  0
 13  5  1  0  0  0  0
 13 14  2  0  0  0  0
 14 19  1  0  0  0  0
 15 14  1  0  0  0  0
 16 15  2  0  0  0  0
 17 12  2  0  0  0  0
 17 16  1  0  0  0  0
 18 12  1  0  0  0  0
 20 16  1  0  0  0  0
 21  2  1  0  0  0  0
 21 24  1  1  0  0  0
 22 26  1  0  0  0  0
 22 21  1  0  0  0  0
 23 27  1  6  0  0  0
 23 22  1  0  0  0  0
 23 21  1  0  0  0  0
 25 22  1  0  0  0  0
 28 30  1  0  0  0  0
 28 23  1  0  0  0  0
 29 28  2  0  0  0  0
 30 31  1  0  0  0  0
 32 31  1  0  0  0  0
 33 32  1  0  0  0  0
 33 34  1  0  0  0  0
 34 30  1  0  0  0  0
 34 35  1  0  0  0  0
M  END
>  <minimizedAffinity>
-4.87938452

$$$$

 OpenBabel03242510243D

 35 38  0  0  1  0  0  0  0  0999 V2000
   40.8820   32.0630   38.9710 N   0  0  0  0  0  0  0  0  0  0  0  0
   40.1390   32.9020   39.7990 C   0  0  0  0  0  0  0  0  0  0  0  0
   40.1000   34.1560   39.8720 O   0  0  0  0  0  0  0  0  0  0  0  0
   41.2690   31.2390   39.5080 H   0  0  0  0  0  0  0  0  0  0  0  0
   42.4750   32.5350   37.1450 C   0  0  1  0  0  0  0  0  0  0  0  0
   41.9810   31.2490   36.8990 C   0  0  0  0  0  0  0  0  0  0  0  0
   41.0780   32.3180   37.5870 C   0  0  1  0  0  0  0  0  0  0  0  0
   42.6780   33.2690   36.3330 H   0  0  0  0  0  0  0  0  0  0  0  0
   42.1010   30.3000   37.4520 H   0  0  0  0  0  0  0  0  0  0  0  0
   41.6420   31.0120   35.8440 H   0  0  0  0  0  0  0  0  0  0  0  0
   40.1720   32.5570   36.9890 H   0  0  0  0  0  0  0  0  0  0  0  0
   43.7260   33.9580   38.9330 C   0  0  0  0  0  0  0  0  0  0  0  0
   43.5110   32.7070   38.2650 C   0  0  0  0  0  0  0  0  0  0  0  0
   44.2970   31.6380   38.6500 C   0  0  0  0  0  0  0  0  0  0  0  0
   45.2180   31.8190   39.6210 N   0  0  0  0  0  0  0  0  0  0  0  0
   45.4100   33.0110   40.2430 C   0  0  0  0  0  0  0  0  0  0  0  0
   44.6320   34.1130   39.8780 N   0  0  0  0  0  0  0  0  0  0  0  0
   43.0820   34.7210   38.6040 H   0  0  0  0  0  0  0  0  0  0  0  0
   44.1700   30.6780   38.1750 H   0  0  0  0  0  0  0  0  0  0  0  0
   46.1620   33.0990   41.0140 H   0  0  0  0  0  0  0  0  0  0  0  0
   39.1840   32.2900   40.8060 C   0  0  2  0  0  0  0  0  0  0  0  0
   39.8460   31.5250   42.0150 C   0  0  0  0  0  0  0  0  0  0  0  0
   39.0530   30.8360   40.9520 C   0  0  1  0  0  0  0  0  0  0  0  0
   38.3660   32.9320   41.1910 H   0  0  0  0  0  0  0  0  0  0  0  0
   40.9570   31.5030   41.9400 H   0  0  0  0  0  0  0  0  0  0  0  0
   39.3620   31.5930   42.9840 H   0  0  0  0  0  0  0  0  0  0  0  0
   39.5720   30.1910   40.2130 H   0  0  0  0  0  0  0  0  0  0  0  0
   37.7020   30.2860   41.3440 C   0  0  0  0  0  0  0  0  0  0  0  0
   36.7000   30.9780   41.2580 O   0  0  0  0  0  0  0  0  0  0  0  0
   37.5870   28.9480   41.8170 N   0  0  0  0  0  0  0  0  0  0  0  0
   36.4850   27.9900   41.7190 C   0  0  0  0  0  2  0  0  0  0  0  0
   36.4430   27.3240   43.0740 C   0  0  0  0  0  2  0  0  0  0  0  0
   37.8190   27.5350   43.6750 C   0  0  0  0  0  2  0  0  0  0  0  0
   38.5770   28.1880   42.5390 C   0  0  0  0  0  3  0  0  0  0  0  0
   38.9690   27.4100   41.8440 H   0  0  0  0  0  0  0  0  0  0  0  0
  1  4  1  0  0  0  0
  1  2  1  0  0  0  0
  2  3  2  0  0  0  0
  2 21  1  0  0  0  0
  5  8  1  6  0  0  0
  5  7  1  0  0  0  0
  5 13  1  0  0  0  0
  6  5  1  0  0  0  0
  6  9  1  0  0  0  0
  6  7  1  0  0  0  0
  7 11  1  6  0  0  0
  7  1  1  0  0  0  0
 10  6  1  0  0  0  0
 12 17  1  0  0  0  0
 13 14  1  0  0  0  0
 13 12  2  0  0  0  0
 14 15  2  0  0  0  0
 15 16  1  0  0  0  0
 16 20  1  0  0  0  0
 17 16  2  0  0  0  0
 18 12  1  0  0  0  0
 19 14  1  0  0  0  0
 21 23  1  0  0  0  0
 21 24  1  1  0  0  0
 21 22  1  0  0  0  0
 22 26  1  0  0  0  0
 23 27  1  6  0  0  0
 23 28  1  0  0  0  0
 23 22  1  0  0  0  0
 25 22  1  0  0  0  0
 28 30  1  0  0  0  0
 29 28  2  0  0  0  0
 30 34  1  0  0  0  0
 31 30  1  0  0  0  0
 31 32  1  0  0  0  0
 32 33  1  0  0  0  0
 34 33  1  0  0  0  0
 35 34  1  0  0  0  0
M  END
>  <minimizedAffinity>
-4.86561012

$$$$

 OpenBabel03242510243D

 35 38  0  0  1  0  0  0  0  0999 V2000
   36.7780   27.5970   41.4960 N   0  0  0  0  0  0  0  0  0  0  0  0
   36.2080   28.5320   40.6350 C   0  0  0  0  0  0  0  0  0  0  0  0
   35.0890   29.1030   40.6720 O   0  0  0  0  0  0  0  0  0  0  0  0
   37.2720   26.8320   40.9580 H   0  0  0  0  0  0  0  0  0  0  0  0
   37.9110   27.3730   43.6780 C   0  0  1  0  0  0  0  0  0  0  0  0
   37.6640   28.7410   43.5130 C   0  0  0  0  0  0  0  0  0  0  0  0
   36.6840   27.6880   42.9100 C   0  0  1  0  0  0  0  0  0  0  0  0
   37.8170   26.8570   44.6610 H   0  0  0  0  0  0  0  0  0  0  0  0
   38.0710   29.4770   42.7980 H   0  0  0  0  0  0  0  0  0  0  0  0
   37.2120   29.3000   44.3890 H   0  0  0  0  0  0  0  0  0  0  0  0
   35.6610   27.7670   43.3400 H   0  0  0  0  0  0  0  0  0  0  0  0
   39.1030   25.3480   42.5540 C   0  0  0  0  0  0  0  0  0  0  0  0
   39.0580   26.7460   42.8740 C   0  0  0  0  0  0  0  0  0  0  0  0
   40.1140   27.5290   42.4510 C   0  0  0  0  0  0  0  0  0  0  0  0
   41.1240   26.9510   41.7650 N   0  0  0  0  0  0  0  0  0  0  0  0
   41.1520   25.6260   41.4710 C   0  0  0  0  0  0  0  0  0  0  0  0
   40.1010   24.8040   41.8850 N   0  0  0  0  0  0  0  0  0  0  0  0
   38.2610   24.8170   42.8910 H   0  0  0  0  0  0  0  0  0  0  0  0
   40.1220   28.5860   42.6680 H   0  0  0  0  0  0  0  0  0  0  0  0
   41.9870   25.2160   40.9190 H   0  0  0  0  0  0  0  0  0  0  0  0
   36.9970   29.0050   39.4300 C   0  0  2  0  0  0  0  0  0  0  0  0
   37.9920   30.2020   39.6750 C   0  0  0  0  0  0  0  0  0  0  0  0
   36.7660   30.3230   38.8300 C   0  0  1  0  0  0  0  0  0  0  0  0
   37.5070   28.2320   38.8180 H   0  0  0  0  0  0  0  0  0  0  0  0
   37.9480   30.5760   40.7240 H   0  0  0  0  0  0  0  0  0  0  0  0
   38.9310   30.2010   39.1310 H   0  0  0  0  0  0  0  0  0  0  0  0
   35.9030   30.9170   39.1990 H   0  0  0  0  0  0  0  0  0  0  0  0
   36.9640   30.4650   37.3410 C   0  0  0  0  0  0  0  0  0  0  0  0
   37.6860   31.3400   36.8900 O   0  0  0  0  0  0  0  0  0  0  0  0
   36.3070   29.5730   36.4450 N   0  0  0  0  0  0  0  0  0  0  0  0
   36.7000   29.0820   35.1240 C   0  0  0  0  0  2  0  0  0  0  0  0
   35.4230   29.1080   34.3170 C   0  0  0  0  0  2  0  0  0  0  0  0
   34.2990   29.0930   35.3330 C   0  0  0  0  0  2  0  0  0  0  0  0
   35.0390   28.9150   36.6410 C   0  0  0  0  0  3  0  0  0  0  0  0
   35.2510   27.8350   36.8160 H   0  0  0  0  0  0  0  0  0  0  0  0
  1  7  1  0  0  0  0
  2  3  2  0  0  0  0
  2  1  1  0  0  0  0
  4  1  1  0  0  0  0
  5  8  1  1  0  0  0
  6  5  1  0  0  0  0
  6 10  1  0  0  0  0
  7 11  1  1  0  0  0
  7  6  1  0  0  0  0
  7  5  1  0  0  0  0
  9  6  1  0  0  0  0
 12 13  1  0  0  0  0
 12 18  1  0  0  0  0
 13  5  1  0  0  0  0
 14 19  1  0  0  0  0
 14 13  2  0  0  0  0
 15 14  1  0  0  0  0
 16 15  2  0  0  0  0
 16 17  1  0  0  0  0
 17 12  2  0  0  0  0
 20 16  1  0  0  0  0
 21 24  1  6  0  0  0
 21 22  1  0  0  0  0
 21  2  1  0  0  0  0
 22 25  1  0  0  0  0
 23 27  1  1  0  0  0
 23 21  1  0  0  0  0
 23 22  1  0  0  0  0
 26 22  1  0  0  0  0
 28 23  1  0  0  0  0
 29 28  2  0  0  0  0
 30 34  1  0  0  0  0
 30 28  1  0  0  0  0
 31 30  1  0  0  0  0
 32 31  1  0  0  0  0
 32 33  1  0  0  0  0
 33 34  1  0  0  0  0
 34 35  1  0  0  0  0
M  END
>  <minimizedAffinity>
-4.85776901

$$$$
