
 OpenBabel03252503103D

 24 26  0  0  0  0  0  0  0  0999 V2000
   37.6280   28.0980   39.8110 C   0  0  0  0  0  0  0  0  0  0  0  0
   37.5870   29.4480   40.2010 C   0  0  0  0  0  0  0  0  0  0  0  0
   38.3320   30.3130   39.4020 C   0  0  0  0  0  0  0  0  0  0  0  0
   39.0340   29.8780   38.3360 N   0  0  0  0  0  0  0  0  0  0  0  0
   39.0400   28.5530   37.9990 C   0  0  0  0  0  0  0  0  0  0  0  0
   38.3370   27.6770   38.7390 N   0  0  0  0  0  0  0  0  0  0  0  0
   37.0850   27.3430   40.3630 H   0  0  0  0  0  0  0  0  0  0  0  0
   39.6180   28.2660   37.1400 H   0  0  0  0  0  0  0  0  0  0  0  0
   38.3510   31.6680   39.7110 C   0  0  0  0  0  0  0  0  0  0  0  0
   37.5560   32.7440   39.4020 C   0  0  0  0  0  0  0  0  0  0  0  0
   37.7610   33.9770   39.8060 C   0  0  0  0  0  0  0  0  0  0  0  0
   38.8640   34.1610   40.5990 C   0  0  0  0  0  0  0  0  0  0  0  0
   39.5750   32.4520   40.7180 S   0  0  0  0  0  0  0  0  0  0  0  0
   36.6420   32.7630   38.8270 H   0  0  0  0  0  0  0  0  0  0  0  0
   37.3800   34.9640   39.7600 H   0  0  0  0  0  0  0  0  0  0  0  0
   39.5250   34.8980   41.2060 H   0  0  0  0  0  0  0  0  0  0  0  0
   36.8220   29.8550   41.3160 C   0  0  0  0  0  0  0  0  0  0  0  0
   35.7770   30.5410   41.0230 O   0  0  0  0  0  0  0  0  0  0  0  0
   37.5860   29.2990   42.4240 N   0  0  0  0  0  0  0  0  0  0  0  0
   37.5000   28.5770   43.6720 C   0  0  0  0  0  2  0  0  0  0  0  0
   38.4660   27.4160   43.4250 C   0  0  0  0  0  2  0  0  0  0  0  0
   39.4380   27.9570   42.3690 C   0  0  0  0  0  2  0  0  0  0  0  0
   39.0490   29.4420   42.4330 C   0  0  0  0  0  3  0  0  0  0  0  0
   39.4420   30.0000   41.5880 H   0  0  0  0  0  0  0  0  0  0  0  0
  1  2  1  0  0  0  0
  1  7  1  0  0  0  0
  2 17  1  0  0  0  0
  3  9  1  0  0  0  0
  3  2  2  0  0  0  0
  4  3  1  0  0  0  0
  5  4  2  0  0  0  0
  5  6  1  0  0  0  0
  6  1  2  0  0  0  0
  8  5  1  0  0  0  0
  9 13  1  0  0  0  0
 10  9  2  0  0  0  0
 10 11  1  0  0  0  0
 11 12  2  0  0  0  0
 12 13  1  0  0  0  0
 12 16  1  0  0  0  0
 14 10  1  0  0  0  0
 15 11  1  0  0  0  0
 17 19  1  0  0  0  0
 18 17  2  0  0  0  0
 19 23  1  0  0  0  0
 19 20  1  0  0  0  0
 21 20  1  0  0  0  0
 22 23  1  0  0  0  0
 22 21  1  0  0  0  0
 24 23  1  0  0  0  0
M  END
>  <minimizedAffinity>
-4.7583971

$$$$

 OpenBabel03252503103D

 24 26  0  0  0  0  0  0  0  0999 V2000
   37.0050   31.9190   39.7820 C   0  0  0  0  0  0  0  0  0  0  0  0
   37.1170   30.6590   40.3960 C   0  0  0  0  0  0  0  0  0  0  0  0
   38.1530   30.5460   41.3200 C   0  0  0  0  0  0  0  0  0  0  0  0
   38.9800   31.5740   41.5990 N   0  0  0  0  0  0  0  0  0  0  0  0
   38.8280   32.7800   40.9730 C   0  0  0  0  0  0  0  0  0  0  0  0
   37.8430   32.9400   40.0720 N   0  0  0  0  0  0  0  0  0  0  0  0
   36.2350   32.1140   39.0490 H   0  0  0  0  0  0  0  0  0  0  0  0
   39.5180   33.5620   41.2360 H   0  0  0  0  0  0  0  0  0  0  0  0
   38.3410   29.3360   41.9780 C   0  0  0  0  0  0  0  0  0  0  0  0
   37.8550   28.7750   43.1340 C   0  0  0  0  0  0  0  0  0  0  0  0
   38.1740   27.5850   43.5900 C   0  0  0  0  0  0  0  0  0  0  0  0
   39.0630   26.8790   42.8210 C   0  0  0  0  0  0  0  0  0  0  0  0
   39.4010   28.0390   41.4130 S   0  0  0  0  0  0  0  0  0  0  0  0
   37.1300   29.1790   43.8250 H   0  0  0  0  0  0  0  0  0  0  0  0
   38.0010   26.9000   44.3790 H   0  0  0  0  0  0  0  0  0  0  0  0
   39.6760   25.9040   42.6750 H   0  0  0  0  0  0  0  0  0  0  0  0
   36.2150   29.6190   40.0810 C   0  0  0  0  0  0  0  0  0  0  0  0
   35.3970   29.3200   41.0250 O   0  0  0  0  0  0  0  0  0  0  0  0
   36.6080   29.2790   38.7220 N   0  0  0  0  0  0  0  0  0  0  0  0
   36.1280   28.9800   37.3930 C   0  0  0  0  0  2  0  0  0  0  0  0
   36.9010   29.9940   36.5480 C   0  0  0  0  0  2  0  0  0  0  0  0
   38.1590   30.2880   37.3750 C   0  0  0  0  0  2  0  0  0  0  0  0
   38.0370   29.1480   38.3980 C   0  0  0  0  0  3  0  0  0  0  0  0
   38.6970   29.2960   39.2490 H   0  0  0  0  0  0  0  0  0  0  0  0
  1  6  2  0  0  0  0
  1  2  1  0  0  0  0
  2  3  2  0  0  0  0
  3  4  1  0  0  0  0
  3  9  1  0  0  0  0
  5  8  1  0  0  0  0
  5  4  2  0  0  0  0
  6  5  1  0  0  0  0
  7  1  1  0  0  0  0
  9 10  2  0  0  0  0
 10 11  1  0  0  0  0
 10 14  1  0  0  0  0
 11 15  1  0  0  0  0
 12 11  2  0  0  0  0
 13  9  1  0  0  0  0
 13 12  1  0  0  0  0
 16 12  1  0  0  0  0
 17  2  1  0  0  0  0
 17 18  2  0  0  0  0
 19 17  1  0  0  0  0
 20 19  1  0  0  0  0
 21 22  1  0  0  0  0
 21 20  1  0  0  0  0
 22 23  1  0  0  0  0
 23 19  1  0  0  0  0
 23 24  1  0  0  0  0
M  END
>  <minimizedAffinity>
-4.53501034

$$$$

 OpenBabel03252503103D

 24 26  0  0  0  0  0  0  0  0999 V2000
   38.0040   24.8190   42.3300 C   0  0  0  0  0  0  0  0  0  0  0  0
   37.7940   26.1950   42.1320 C   0  0  0  0  0  0  0  0  0  0  0  0
   37.0840   26.5220   40.9790 C   0  0  0  0  0  0  0  0  0  0  0  0
   36.6360   25.5810   40.1240 N   0  0  0  0  0  0  0  0  0  0  0  0
   36.8660   24.2550   40.3630 C   0  0  0  0  0  0  0  0  0  0  0  0
   37.5470   23.8880   41.4630 N   0  0  0  0  0  0  0  0  0  0  0  0
   38.5440   24.4570   43.1930 H   0  0  0  0  0  0  0  0  0  0  0  0
   36.4840   23.5510   39.6450 H   0  0  0  0  0  0  0  0  0  0  0  0
   36.8290   27.8590   40.7000 C   0  0  0  0  0  0  0  0  0  0  0  0
   35.7970   28.7250   40.9670 C   0  0  0  0  0  0  0  0  0  0  0  0
   35.7510   29.9850   40.5990 C   0  0  0  0  0  0  0  0  0  0  0  0
   36.8410   30.4330   39.8970 C   0  0  0  0  0  0  0  0  0  0  0  0
   37.9200   28.9260   39.8080 S   0  0  0  0  0  0  0  0  0  0  0  0
   34.8940   28.5420   41.5310 H   0  0  0  0  0  0  0  0  0  0  0  0
   35.1600   30.8620   40.6330 H   0  0  0  0  0  0  0  0  0  0  0  0
   37.3630   31.3150   39.3520 H   0  0  0  0  0  0  0  0  0  0  0  0
   38.2720   27.1400   43.0670 C   0  0  0  0  0  0  0  0  0  0  0  0
   37.3520   27.7970   43.6770 O   0  0  0  0  0  0  0  0  0  0  0  0
   39.7140   26.9810   42.9480 N   0  0  0  0  0  0  0  0  0  0  0  0
   40.9530   26.8620   43.6790 C   0  0  0  0  0  2  0  0  0  0  0  0
   41.5310   25.5690   43.1010 C   0  0  0  0  0  2  0  0  0  0  0  0
   40.8990   25.4670   41.7070 C   0  0  0  0  0  2  0  0  0  0  0  0
   40.3190   26.8860   41.6100 C   0  0  0  0  0  3  0  0  0  0  0  0
   39.6050   26.9760   40.7970 H   0  0  0  0  0  0  0  0  0  0  0  0
  1  7  1  0  0  0  0
  2  1  1  0  0  0  0
  2 17  1  0  0  0  0
  3  2  2  0  0  0  0
  4  5  2  0  0  0  0
  4  3  1  0  0  0  0
  5  6  1  0  0  0  0
  6  1  2  0  0  0  0
  8  5  1  0  0  0  0
  9 10  2  0  0  0  0
  9  3  1  0  0  0  0
 10 14  1  0  0  0  0
 11 15  1  0  0  0  0
 11 10  1  0  0  0  0
 12 11  2  0  0  0  0
 13 12  1  0  0  0  0
 13  9  1  0  0  0  0
 16 12  1  0  0  0  0
 17 18  2  0  0  0  0
 19 17  1  0  0  0  0
 19 20  1  0  0  0  0
 21 20  1  0  0  0  0
 22 21  1  0  0  0  0
 23 22  1  0  0  0  0
 23 19  1  0  0  0  0
 24 23  1  0  0  0  0
M  END
>  <minimizedAffinity>
-4.46637821

$$$$

 OpenBabel03252503103D

 24 26  0  0  0  0  0  0  0  0999 V2000
   39.3240   27.4650   43.3170 C   0  0  0  0  0  0  0  0  0  0  0  0
   38.1680   27.4730   42.5170 C   0  0  0  0  0  0  0  0  0  0  0  0
   38.2500   28.2640   41.3730 C   0  0  0  0  0  0  0  0  0  0  0  0
   39.3600   28.9650   41.0650 N   0  0  0  0  0  0  0  0  0  0  0  0
   40.4590   28.9220   41.8780 C   0  0  0  0  0  0  0  0  0  0  0  0
   40.4290   28.1730   42.9940 N   0  0  0  0  0  0  0  0  0  0  0  0
   39.3660   26.8850   44.2280 H   0  0  0  0  0  0  0  0  0  0  0  0
   41.3140   29.5020   41.5800 H   0  0  0  0  0  0  0  0  0  0  0  0
   37.1540   28.3330   40.5210 C   0  0  0  0  0  0  0  0  0  0  0  0
   36.7510   27.6460   39.4030 C   0  0  0  0  0  0  0  0  0  0  0  0
   35.6500   27.8810   38.7260 C   0  0  0  0  0  0  0  0  0  0  0  0
   34.8690   28.8990   39.2080 C   0  0  0  0  0  0  0  0  0  0  0  0
   35.8230   29.4850   40.6870 S   0  0  0  0  0  0  0  0  0  0  0  0
   37.2270   26.8040   38.9220 H   0  0  0  0  0  0  0  0  0  0  0  0
   35.0810   27.5690   37.8890 H   0  0  0  0  0  0  0  0  0  0  0  0
   33.9030   29.5340   39.0950 H   0  0  0  0  0  0  0  0  0  0  0  0
   37.0350   26.7080   42.8760 C   0  0  0  0  0  0  0  0  0  0  0  0
   36.1840   27.3310   43.6090 O   0  0  0  0  0  0  0  0  0  0  0  0
   37.3140   25.4340   42.2300 N   0  0  0  0  0  0  0  0  0  0  0  0
   36.7560   24.3670   41.4340 C   0  0  0  0  0  2  0  0  0  0  0  0
   37.7400   24.3060   40.2640 C   0  0  0  0  0  2  0  0  0  0  0  0
   39.0440   24.8700   40.8410 C   0  0  0  0  0  2  0  0  0  0  0  0
   38.6640   24.8570   42.3300 C   0  0  0  0  0  3  0  0  0  0  0  0
   39.3520   25.4480   42.9280 H   0  0  0  0  0  0  0  0  0  0  0  0
  1  7  1  0  0  0  0
  2 17  1  0  0  0  0
  2  1  2  0  0  0  0
  3  2  1  0  0  0  0
  4  3  2  0  0  0  0
  4  5  1  0  0  0  0
  5  6  2  0  0  0  0
  6  1  1  0  0  0  0
  8  5  1  0  0  0  0
  9 13  1  0  0  0  0
  9  3  1  0  0  0  0
 10  9  2  0  0  0  0
 11 12  2  0  0  0  0
 11 10  1  0  0  0  0
 12 13  1  0  0  0  0
 14 10  1  0  0  0  0
 15 11  1  0  0  0  0
 16 12  1  0  0  0  0
 17 18  2  0  0  0  0
 19 23  1  0  0  0  0
 19 17  1  0  0  0  0
 20 19  1  0  0  0  0
 21 22  1  0  0  0  0
 21 20  1  0  0  0  0
 22 23  1  0  0  0  0
 23 24  1  0  0  0  0
M  END
>  <minimizedAffinity>
-4.45930243

$$$$

 OpenBabel03252503103D

 24 26  0  0  0  0  0  0  0  0999 V2000
   38.2330   30.6250   37.7880 C   0  0  0  0  0  0  0  0  0  0  0  0
   38.2070   29.9480   39.0200 C   0  0  0  0  0  0  0  0  0  0  0  0
   37.1980   28.9950   39.1450 C   0  0  0  0  0  0  0  0  0  0  0  0
   36.3200   28.7470   38.1520 N   0  0  0  0  0  0  0  0  0  0  0  0
   36.3900   29.4340   36.9720 C   0  0  0  0  0  0  0  0  0  0  0  0
   37.3450   30.3640   36.8020 N   0  0  0  0  0  0  0  0  0  0  0  0
   38.9750   31.3850   37.5870 H   0  0  0  0  0  0  0  0  0  0  0  0
   35.6630   29.1920   36.2180 H   0  0  0  0  0  0  0  0  0  0  0  0
   37.0940   28.2750   40.3290 C   0  0  0  0  0  0  0  0  0  0  0  0
   36.5150   28.5030   41.5540 C   0  0  0  0  0  0  0  0  0  0  0  0
   36.5380   27.6690   42.5680 C   0  0  0  0  0  0  0  0  0  0  0  0
   37.1980   26.4880   42.3450 C   0  0  0  0  0  0  0  0  0  0  0  0
   37.7780   26.6660   40.5920 S   0  0  0  0  0  0  0  0  0  0  0  0
   35.9350   29.3550   41.8760 H   0  0  0  0  0  0  0  0  0  0  0  0
   36.2210   27.5360   43.5700 H   0  0  0  0  0  0  0  0  0  0  0  0
   37.5420   25.4610   42.7640 H   0  0  0  0  0  0  0  0  0  0  0  0
   39.1600   30.2340   40.0220 C   0  0  0  0  0  0  0  0  0  0  0  0
   40.0320   29.3090   40.2070 O   0  0  0  0  0  0  0  0  0  0  0  0
   38.7360   31.5500   40.4760 N   0  0  0  0  0  0  0  0  0  0  0  0
   39.1810   32.8760   40.8340 C   0  0  0  0  0  2  0  0  0  0  0  0
   38.3130   33.7500   39.9270 C   0  0  0  0  0  2  0  0  0  0  0  0
   37.0720   32.8900   39.6550 C   0  0  0  0  0  2  0  0  0  0  0  0
   37.3060   31.8020   40.7140 C   0  0  0  0  0  3  0  0  0  0  0  0
   36.6730   30.9360   40.5500 H   0  0  0  0  0  0  0  0  0  0  0  0
  1  2  1  0  0  0  0
  2  3  2  0  0  0  0
  2 17  1  0  0  0  0
  3  9  1  0  0  0  0
  4  3  1  0  0  0  0
  5  4  2  0  0  0  0
  6  5  1  0  0  0  0
  6  1  2  0  0  0  0
  7  1  1  0  0  0  0
  8  5  1  0  0  0  0
  9 13  1  0  0  0  0
  9 10  2  0  0  0  0
 10 14  1  0  0  0  0
 10 11  1  0  0  0  0
 11 15  1  0  0  0  0
 12 11  2  0  0  0  0
 12 16  1  0  0  0  0
 13 12  1  0  0  0  0
 17 18  2  0  0  0  0
 17 19  1  0  0  0  0
 19 23  1  0  0  0  0
 19 20  1  0  0  0  0
 21 20  1  0  0  0  0
 22 21  1  0  0  0  0
 22 23  1  0  0  0  0
 24 23  1  0  0  0  0
M  END
>  <minimizedAffinity>
-4.45062351

$$$$

 OpenBabel03252503103D

 24 26  0  0  0  0  0  0  0  0999 V2000
   39.2130   31.2310   39.1540 C   0  0  0  0  0  0  0  0  0  0  0  0
   39.0400   30.0740   39.9340 C   0  0  0  0  0  0  0  0  0  0  0  0
   39.2020   30.2610   41.3050 C   0  0  0  0  0  0  0  0  0  0  0  0
   39.5000   31.4650   41.8340 N   0  0  0  0  0  0  0  0  0  0  0  0
   39.6570   32.5600   41.0300 C   0  0  0  0  0  0  0  0  0  0  0  0
   39.5110   32.4320   39.7000 N   0  0  0  0  0  0  0  0  0  0  0  0
   39.1110   31.1970   38.0780 H   0  0  0  0  0  0  0  0  0  0  0  0
   39.8940   33.4930   41.5090 H   0  0  0  0  0  0  0  0  0  0  0  0
   39.0500   29.1720   42.1560 C   0  0  0  0  0  0  0  0  0  0  0  0
   38.0190   28.6690   42.9120 C   0  0  0  0  0  0  0  0  0  0  0  0
   38.0900   27.5990   43.6710 C   0  0  0  0  0  0  0  0  0  0  0  0
   39.3040   26.9630   43.6800 C   0  0  0  0  0  0  0  0  0  0  0  0
   40.3230   28.0040   42.5300 S   0  0  0  0  0  0  0  0  0  0  0  0
   37.0030   29.0260   42.9870 H   0  0  0  0  0  0  0  0  0  0  0  0
   37.5350   26.9840   44.3310 H   0  0  0  0  0  0  0  0  0  0  0  0
   39.9500   26.0860   44.0820 H   0  0  0  0  0  0  0  0  0  0  0  0
   38.7130   28.8390   39.3320 C   0  0  0  0  0  0  0  0  0  0  0  0
   39.7260   28.1430   38.9610 O   0  0  0  0  0  0  0  0  0  0  0  0
   37.2580   28.8600   39.3730 N   0  0  0  0  0  0  0  0  0  0  0  0
   36.0740   28.0880   39.6700 C   0  0  0  0  0  2  0  0  0  0  0  0
   35.3540   28.9960   40.6670 C   0  0  0  0  0  2  0  0  0  0  0  0
   35.8650   30.4020   40.3290 C   0  0  0  0  0  2  0  0  0  0  0  0
   36.5450   30.0870   38.9880 C   0  0  0  0  0  3  0  0  0  0  0  0
   37.1970   30.8930   38.6670 H   0  0  0  0  0  0  0  0  0  0  0  0
  1  6  2  0  0  0  0
  1  2  1  0  0  0  0
  2  3  2  0  0  0  0
  3  4  1  0  0  0  0
  3  9  1  0  0  0  0
  5  8  1  0  0  0  0
  5  4  2  0  0  0  0
  6  5  1  0  0  0  0
  7  1  1  0  0  0  0
  9 13  1  0  0  0  0
  9 10  2  0  0  0  0
 10 14  1  0  0  0  0
 10 11  1  0  0  0  0
 11 12  2  0  0  0  0
 11 15  1  0  0  0  0
 12 16  1  0  0  0  0
 13 12  1  0  0  0  0
 17 19  1  0  0  0  0
 17  2  1  0  0  0  0
 18 17  2  0  0  0  0
 19 20  1  0  0  0  0
 20 21  1  0  0  0  0
 22 21  1  0  0  0  0
 23 19  1  0  0  0  0
 23 22  1  0  0  0  0
 24 23  1  0  0  0  0
M  END
>  <minimizedAffinity>
-4.44162989

$$$$

 OpenBabel03252503103D

 24 26  0  0  0  0  0  0  0  0999 V2000
   36.4360   27.5350   42.2320 C   0  0  0  0  0  0  0  0  0  0  0  0
   36.5620   28.5980   41.3210 C   0  0  0  0  0  0  0  0  0  0  0  0
   37.4830   29.5780   41.6850 C   0  0  0  0  0  0  0  0  0  0  0  0
   38.1950   29.5030   42.8270 N   0  0  0  0  0  0  0  0  0  0  0  0
   38.0350   28.4460   43.6800 C   0  0  0  0  0  0  0  0  0  0  0  0
   37.1580   27.4740   43.3740 N   0  0  0  0  0  0  0  0  0  0  0  0
   35.7480   26.7220   42.0460 H   0  0  0  0  0  0  0  0  0  0  0  0
   38.6310   28.4400   44.5750 H   0  0  0  0  0  0  0  0  0  0  0  0
   37.6740   30.6690   40.8440 C   0  0  0  0  0  0  0  0  0  0  0  0
   36.8920   31.7160   40.4220 C   0  0  0  0  0  0  0  0  0  0  0  0
   37.2780   32.6640   39.5980 C   0  0  0  0  0  0  0  0  0  0  0  0
   38.5700   32.5650   39.1500 C   0  0  0  0  0  0  0  0  0  0  0  0
   39.1800   31.0280   39.9900 S   0  0  0  0  0  0  0  0  0  0  0  0
   35.8780   31.9560   40.7050 H   0  0  0  0  0  0  0  0  0  0  0  0
   36.9600   33.5450   39.1040 H   0  0  0  0  0  0  0  0  0  0  0  0
   39.4180   33.0100   38.4940 H   0  0  0  0  0  0  0  0  0  0  0  0
   35.8030   28.6230   40.1300 C   0  0  0  0  0  0  0  0  0  0  0  0
   34.6520   29.1820   40.2430 O   0  0  0  0  0  0  0  0  0  0  0  0
   36.6920   27.9520   39.1920 N   0  0  0  0  0  0  0  0  0  0  0  0
   37.2500   27.9910   37.8610 C   0  0  0  0  0  2  0  0  0  0  0  0
   38.7500   27.9190   38.1520 C   0  0  0  0  0  2  0  0  0  0  0  0
   38.8340   27.2140   39.5120 C   0  0  0  0  0  2  0  0  0  0  0  0
   37.3820   26.7220   39.6090 C   0  0  0  0  0  3  0  0  0  0  0  0
   37.1320   26.3960   40.6150 H   0  0  0  0  0  0  0  0  0  0  0  0
  1  6  1  0  0  0  0
  2  3  1  0  0  0  0
  2  1  2  0  0  0  0
  3  4  2  0  0  0  0
  4  5  1  0  0  0  0
  5  8  1  0  0  0  0
  6  5  2  0  0  0  0
  7  1  1  0  0  0  0
  9  3  1  0  0  0  0
 10 14  1  0  0  0  0
 10  9  2  0  0  0  0
 11 10  1  0  0  0  0
 12 11  2  0  0  0  0
 12 13  1  0  0  0  0
 13  9  1  0  0  0  0
 15 11  1  0  0  0  0
 16 12  1  0  0  0  0
 17 18  2  0  0  0  0
 17  2  1  0  0  0  0
 19 23  1  0  0  0  0
 19 17  1  0  0  0  0
 20 21  1  0  0  0  0
 20 19  1  0  0  0  0
 21 22  1  0  0  0  0
 22 23  1  0  0  0  0
 23 24  1  0  0  0  0
M  END
>  <minimizedAffinity>
-4.42658758

$$$$

 OpenBabel03252503103D

 24 26  0  0  0  0  0  0  0  0999 V2000
   37.8830   30.2090   40.0320 C   0  0  0  0  0  0  0  0  0  0  0  0
   37.3350   28.9440   40.3060 C   0  0  0  0  0  0  0  0  0  0  0  0
   37.9440   27.8830   39.6390 C   0  0  0  0  0  0  0  0  0  0  0  0
   38.9810   28.0670   38.7980 N   0  0  0  0  0  0  0  0  0  0  0  0
   39.4770   29.3200   38.5660 C   0  0  0  0  0  0  0  0  0  0  0  0
   38.9230   30.3770   39.1860 N   0  0  0  0  0  0  0  0  0  0  0  0
   37.4840   31.1000   40.4970 H   0  0  0  0  0  0  0  0  0  0  0  0
   40.3050   29.4040   37.8850 H   0  0  0  0  0  0  0  0  0  0  0  0
   37.4690   26.5940   39.8480 C   0  0  0  0  0  0  0  0  0  0  0  0
   37.7670   25.5820   40.7280 C   0  0  0  0  0  0  0  0  0  0  0  0
   37.1840   24.4040   40.7520 C   0  0  0  0  0  0  0  0  0  0  0  0
   36.2060   24.2120   39.8110 C   0  0  0  0  0  0  0  0  0  0  0  0
   36.1870   25.8280   38.9010 S   0  0  0  0  0  0  0  0  0  0  0  0
   38.4760   25.5840   41.5420 H   0  0  0  0  0  0  0  0  0  0  0  0
   37.1690   23.4710   41.2520 H   0  0  0  0  0  0  0  0  0  0  0  0
   35.4120   23.5000   39.3520 H   0  0  0  0  0  0  0  0  0  0  0  0
   36.2570   28.8030   41.2090 C   0  0  0  0  0  0  0  0  0  0  0  0
   35.0960   28.9070   40.6720 O   0  0  0  0  0  0  0  0  0  0  0  0
   36.9480   28.5870   42.4720 N   0  0  0  0  0  0  0  0  0  0  0  0
   36.9840   27.7940   43.6780 C   0  0  0  0  0  2  0  0  0  0  0  0
   38.4300   27.2960   43.6790 C   0  0  0  0  0  2  0  0  0  0  0  0
   39.1900   28.3520   42.8670 C   0  0  0  0  0  2  0  0  0  0  0  0
   38.1010   29.4340   42.8150 C   0  0  0  0  0  3  0  0  0  0  0  0
   38.3230   30.1970   42.0740 H   0  0  0  0  0  0  0  0  0  0  0  0
  1  2  1  0  0  0  0
  1  7  1  0  0  0  0
  2 17  1  0  0  0  0
  3  9  1  0  0  0  0
  3  2  2  0  0  0  0
  4  3  1  0  0  0  0
  5  4  2  0  0  0  0
  5  6  1  0  0  0  0
  6  1  2  0  0  0  0
  8  5  1  0  0  0  0
  9 10  2  0  0  0  0
 10 11  1  0  0  0  0
 10 14  1  0  0  0  0
 11 15  1  0  0  0  0
 12 11  2  0  0  0  0
 13 12  1  0  0  0  0
 13  9  1  0  0  0  0
 16 12  1  0  0  0  0
 17 19  1  0  0  0  0
 18 17  2  0  0  0  0
 19 23  1  0  0  0  0
 19 20  1  0  0  0  0
 20 21  1  0  0  0  0
 22 21  1  0  0  0  0
 23 22  1  0  0  0  0
 24 23  1  0  0  0  0
M  END
>  <minimizedAffinity>
-4.38337612

$$$$

 OpenBabel03252503103D

 24 26  0  0  0  0  0  0  0  0999 V2000
   35.5860   29.0610   40.9290 C   0  0  0  0  0  0  0  0  0  0  0  0
   36.4340   28.0080   41.3130 C   0  0  0  0  0  0  0  0  0  0  0  0
   36.7010   27.0750   40.3130 C   0  0  0  0  0  0  0  0  0  0  0  0
   36.1820   27.1840   39.0740 N   0  0  0  0  0  0  0  0  0  0  0  0
   35.3630   28.2300   38.7510 C   0  0  0  0  0  0  0  0  0  0  0  0
   35.0730   29.1570   39.6810 N   0  0  0  0  0  0  0  0  0  0  0  0
   35.3130   29.8390   41.6280 H   0  0  0  0  0  0  0  0  0  0  0  0
   34.9790   28.2640   37.7470 H   0  0  0  0  0  0  0  0  0  0  0  0
   37.5300   25.9970   40.6020 C   0  0  0  0  0  0  0  0  0  0  0  0
   38.8740   25.7450   40.4680 C   0  0  0  0  0  0  0  0  0  0  0  0
   39.4710   24.6250   40.8080 C   0  0  0  0  0  0  0  0  0  0  0  0
   38.6540   23.6600   41.3380 C   0  0  0  0  0  0  0  0  0  0  0  0
   36.9860   24.4710   41.3090 S   0  0  0  0  0  0  0  0  0  0  0  0
   39.6500   26.4040   40.1070 H   0  0  0  0  0  0  0  0  0  0  0  0
   40.4090   24.1350   40.8400 H   0  0  0  0  0  0  0  0  0  0  0  0
   38.5570   22.5900   41.7800 H   0  0  0  0  0  0  0  0  0  0  0  0
   36.9640   27.9470   42.6210 C   0  0  0  0  0  0  0  0  0  0  0  0
   36.2340   27.3080   43.4620 O   0  0  0  0  0  0  0  0  0  0  0  0
   38.2080   28.6910   42.4760 N   0  0  0  0  0  0  0  0  0  0  0  0
   39.6160   28.7090   42.7950 C   0  0  0  0  0  2  0  0  0  0  0  0
   40.2440   28.8810   41.4110 C   0  0  0  0  0  2  0  0  0  0  0  0
   39.1500   29.5700   40.5860 C   0  0  0  0  0  2  0  0  0  0  0  0
   38.2050   29.9600   41.7320 C   0  0  0  0  0  3  0  0  0  0  0  0
   37.2250   30.2540   41.3670 H   0  0  0  0  0  0  0  0  0  0  0  0
  1  2  1  0  0  0  0
  1  7  1  0  0  0  0
  2 17  1  0  0  0  0
  3  9  1  0  0  0  0
  3  2  2  0  0  0  0
  4  3  1  0  0  0  0
  5  4  2  0  0  0  0
  5  6  1  0  0  0  0
  6  1  2  0  0  0  0
  8  5  1  0  0  0  0
  9 13  1  0  0  0  0
 10  9  2  0  0  0  0
 10 11  1  0  0  0  0
 11 15  1  0  0  0  0
 11 12  2  0  0  0  0
 12 16  1  0  0  0  0
 13 12  1  0  0  0  0
 14 10  1  0  0  0  0
 17 18  2  0  0  0  0
 19 17  1  0  0  0  0
 19 20  1  0  0  0  0
 21 20  1  0  0  0  0
 22 21  1  0  0  0  0
 22 23  1  0  0  0  0
 23 19  1  0  0  0  0
 24 23  1  0  0  0  0
M  END
>  <minimizedAffinity>
-4.33506823

$$$$
