
 OpenBabel03252506463D

 39 42  0  0  1  0  0  0  0  0999 V2000
   49.5470   33.4720   41.3720 N   0  0  1  0  0  0  0  0  0  0  0  0
   50.7070   33.0360   42.1510 C   0  0  0  0  0  0  0  0  0  0  0  0
   51.2620   31.7190   41.6950 C   0  0  0  0  0  0  0  0  0  0  0  0
   50.2390   30.6290   42.0170 C   0  0  0  0  0  0  0  0  0  0  0  0
   48.8420   31.1400   41.7940 C   0  0  0  0  0  0  0  0  0  0  0  0
   48.8870   32.3180   40.8590 C   0  0  2  0  0  0  0  0  0  0  0  0
   50.3720   32.9070   43.2140 H   0  0  0  0  0  0  0  0  0  0  0  0
   51.4940   33.7920   42.1430 H   0  0  0  0  0  0  0  0  0  0  0  0
   51.5120   31.7380   40.6160 H   0  0  0  0  0  0  0  0  0  0  0  0
   52.1990   31.5560   42.2320 H   0  0  0  0  0  0  0  0  0  0  0  0
   50.4560   29.7790   41.3430 H   0  0  0  0  0  0  0  0  0  0  0  0
   50.3740   30.3000   43.0620 H   0  0  0  0  0  0  0  0  0  0  0  0
   48.4810   31.5270   42.7750 H   0  0  0  0  0  0  0  0  0  0  0  0
   48.1170   30.4090   41.4610 H   0  0  0  0  0  0  0  0  0  0  0  0
   47.8120   32.6220   40.6980 H   0  0  0  0  0  0  0  0  0  0  0  0
   47.3500   34.6720   41.9620 C   0  0  1  0  0  0  0  0  0  0  0  0
   48.4420   35.6550   41.7420 C   0  0  0  0  0  0  0  0  0  0  0  0
   48.7630   34.2950   42.2140 C   0  0  2  0  0  0  0  0  0  0  0  0
   46.8180   34.3950   41.0160 H   0  0  0  0  0  0  0  0  0  0  0  0
   48.7600   35.9560   40.7200 H   0  0  0  0  0  0  0  0  0  0  0  0
   48.5210   36.4840   42.4930 H   0  0  0  0  0  0  0  0  0  0  0  0
   48.9960   34.1700   43.3080 H   0  0  0  0  0  0  0  0  0  0  0  0
   45.5010   35.9220   43.0840 C   0  0  0  0  0  0  0  0  0  0  0  0
   46.4280   34.8730   43.0820 C   0  0  0  0  0  0  0  0  0  0  0  0
   46.4300   33.9940   44.1910 C   0  0  0  0  0  0  0  0  0  0  0  0
   45.5430   34.2150   45.1840 N   0  0  0  0  0  0  0  0  0  0  0  0
   44.6570   35.2320   45.1650 C   0  0  0  0  0  0  0  0  0  0  0  0
   44.6290   36.0920   44.1180 N   0  0  0  0  0  0  0  0  0  0  0  0
   45.5060   36.5900   42.2320 H   0  0  0  0  0  0  0  0  0  0  0  0
   47.1360   33.1830   44.2070 H   0  0  0  0  0  0  0  0  0  0  0  0
   43.9450   35.4090   45.9640 H   0  0  0  0  0  0  0  0  0  0  0  0
   49.3810   31.9090   39.5700 N   0  0  0  0  0  0  0  0  0  0  0  0
   50.3310   32.3700   39.4770 H   0  0  0  0  0  0  0  0  0  0  0  0
   46.8480   33.3890   38.3700 H   0  0  0  0  0  0  0  0  0  0  0  0
   47.8570   33.5410   38.6430 N   0  0  0  0  0  0  0  0  0  0  0  0
   48.3780   34.4630   37.6580 C   0  0  0  0  0  2  0  0  0  0  0  0
   48.6150   33.5370   36.4850 C   0  0  0  0  0  2  0  0  0  0  0  0
   49.3210   32.3800   37.1620 C   0  0  0  0  0  2  0  0  0  0  0  0
   48.5600   32.2960   38.4750 C   0  0  1  0  0  3  0  0  0  0  0  0
  1  2  1  1  0  0  0
  1 18  1  0  0  0  0
  2  7  1  0  0  0  0
  3  4  1  0  0  0  0
  3  2  1  0  0  0  0
  3 10  1  0  0  0  0
  4 12  1  0  0  0  0
  5  4  1  0  0  0  0
  5 13  1  0  0  0  0
  6 15  1  6  0  0  0
  6  1  1  0  0  0  0
  6  5  1  0  0  0  0
  8  2  1  0  0  0  0
  9  3  1  0  0  0  0
 11  4  1  0  0  0  0
 14  5  1  0  0  0  0
 16 19  1  6  0  0  0
 16 18  1  0  0  0  0
 16 24  1  0  0  0  0
 17 16  1  0  0  0  0
 17 18  1  0  0  0  0
 17 21  1  0  0  0  0
 18 22  1  1  0  0  0
 20 17  1  0  0  0  0
 23 28  1  0  0  0  0
 24 23  2  0  0  0  0
 24 25  1  0  0  0  0
 25 30  1  0  0  0  0
 25 26  2  0  0  0  0
 27 26  1  0  0  0  0
 27 31  1  0  0  0  0
 28 27  2  0  0  0  0
 29 23  1  0  0  0  0
 32  6  1  0  0  0  0
 33 32  1  0  0  0  0
 34 35  1  0  0  0  0
 36 35  1  0  0  0  0
 37 38  1  0  0  0  0
 37 36  1  0  0  0  0
 38 39  1  0  0  0  0
 39 35  1  0  0  0  0
 39 32  1  1  0  0  0
M  END
>  <minimizedAffinity>
-5.29363155

>  <minimizedRMSD>
2.2778089

$$$$
