
 OpenBabel03252506463D

 39 42  0  0  1  0  0  0  0  0999 V2000
   49.5950   33.3710   41.3640 N   0  0  1  0  0  0  0  0  0  0  0  0
   50.7410   32.9480   42.1700 C   0  0  0  0  0  0  0  0  0  0  0  0
   51.2950   31.6170   41.7520 C   0  0  0  0  0  0  0  0  0  0  0  0
   50.2610   30.5400   42.0860 C   0  0  0  0  0  0  0  0  0  0  0  0
   48.8700   31.0540   41.8320 C   0  0  0  0  0  0  0  0  0  0  0  0
   48.9350   32.2090   40.8700 C   0  0  2  0  0  0  0  0  0  0  0  0
   50.3910   32.8460   43.2300 H   0  0  0  0  0  0  0  0  0  0  0  0
   51.5330   33.6990   42.1550 H   0  0  0  0  0  0  0  0  0  0  0  0
   51.5590   31.6090   40.6770 H   0  0  0  0  0  0  0  0  0  0  0  0
   52.2230   31.4620   42.3070 H   0  0  0  0  0  0  0  0  0  0  0  0
   50.4820   29.6740   41.4350 H   0  0  0  0  0  0  0  0  0  0  0  0
   50.3800   30.2360   43.1400 H   0  0  0  0  0  0  0  0  0  0  0  0
   48.4980   31.4660   42.7990 H   0  0  0  0  0  0  0  0  0  0  0  0
   48.1450   30.3180   41.5070 H   0  0  0  0  0  0  0  0  0  0  0  0
   47.8640   32.5140   40.6870 H   0  0  0  0  0  0  0  0  0  0  0  0
   47.3880   34.5760   41.9090 C   0  0  1  0  0  0  0  0  0  0  0  0
   48.4740   35.5580   41.6560 C   0  0  0  0  0  0  0  0  0  0  0  0
   48.8040   34.2180   42.1760 C   0  0  2  0  0  0  0  0  0  0  0  0
   46.8600   34.2620   40.9730 H   0  0  0  0  0  0  0  0  0  0  0  0
   48.7920   35.8250   40.6240 H   0  0  0  0  0  0  0  0  0  0  0  0
   48.5460   36.4140   42.3770 H   0  0  0  0  0  0  0  0  0  0  0  0
   49.0360   34.1330   43.2740 H   0  0  0  0  0  0  0  0  0  0  0  0
   45.5540   35.8750   43.0000 C   0  0  0  0  0  0  0  0  0  0  0  0
   46.4630   34.8110   43.0210 C   0  0  0  0  0  0  0  0  0  0  0  0
   46.4440   33.9490   44.1430 C   0  0  0  0  0  0  0  0  0  0  0  0
   45.5550   34.2000   45.1270 N   0  0  0  0  0  0  0  0  0  0  0  0
   44.6870   35.2320   45.0870 C   0  0  0  0  0  0  0  0  0  0  0  0
   44.6800   36.0760   44.0260 N   0  0  0  0  0  0  0  0  0  0  0  0
   45.5760   36.5290   42.1390 H   0  0  0  0  0  0  0  0  0  0  0  0
   47.1360   33.1260   44.1750 H   0  0  0  0  0  0  0  0  0  0  0  0
   43.9730   35.4340   45.8790 H   0  0  0  0  0  0  0  0  0  0  0  0
   49.4440   31.7670   39.5980 N   0  0  0  0  0  0  0  0  0  0  0  0
   50.3400   32.3140   39.4510 H   0  0  0  0  0  0  0  0  0  0  0  0
   46.7510   31.2160   38.0190 H   0  0  0  0  0  0  0  0  0  0  0  0
   47.1690   31.8130   38.7850 N   0  0  0  0  0  0  0  0  0  0  0  0
   46.5320   33.1050   38.6430 C   0  0  0  0  0  2  0  0  0  0  0  0
   47.3040   33.6870   37.4780 C   0  0  0  0  0  2  0  0  0  0  0  0
   48.7290   33.3760   37.8870 C   0  0  0  0  0  2  0  0  0  0  0  0
   48.5680   31.9950   38.5010 C   0  0  1  0  0  3  0  0  0  0  0  0
  1  2  1  1  0  0  0
  1 18  1  0  0  0  0
  2  7  1  0  0  0  0
  3  4  1  0  0  0  0
  3  2  1  0  0  0  0
  3 10  1  0  0  0  0
  4 12  1  0  0  0  0
  5  4  1  0  0  0  0
  5 13  1  0  0  0  0
  6 15  1  6  0  0  0
  6  1  1  0  0  0  0
  6  5  1  0  0  0  0
  8  2  1  0  0  0  0
  9  3  1  0  0  0  0
 11  4  1  0  0  0  0
 14  5  1  0  0  0  0
 16 19  1  6  0  0  0
 16 18  1  0  0  0  0
 16 24  1  0  0  0  0
 17 16  1  0  0  0  0
 17 18  1  0  0  0  0
 17 21  1  0  0  0  0
 18 22  1  1  0  0  0
 20 17  1  0  0  0  0
 23 24  2  0  0  0  0
 23 28  1  0  0  0  0
 24 25  1  0  0  0  0
 25 30  1  0  0  0  0
 25 26  2  0  0  0  0
 27 26  1  0  0  0  0
 27 31  1  0  0  0  0
 28 27  2  0  0  0  0
 29 23  1  0  0  0  0
 32  6  1  0  0  0  0
 33 32  1  0  0  0  0
 34 35  1  0  0  0  0
 36 35  1  0  0  0  0
 37 38  1  0  0  0  0
 37 36  1  0  0  0  0
 38 39  1  0  0  0  0
 39 35  1  0  0  0  0
 39 32  1  1  0  0  0
M  END
>  <minimizedAffinity>
-4.94643593

>  <minimizedRMSD>
2.20109248

$$$$
