
 OpenBabel03252506473D

 39 42  0  0  1  0  0  0  0  0999 V2000
   49.5460   33.4780   41.3680 N   0  0  1  0  0  0  0  0  0  0  0  0
   50.7060   33.0390   42.1450 C   0  0  0  0  0  0  0  0  0  0  0  0
   51.2600   31.7230   41.6830 C   0  0  0  0  0  0  0  0  0  0  0  0
   50.2370   30.6330   42.0020 C   0  0  0  0  0  0  0  0  0  0  0  0
   48.8390   31.1450   41.7830 C   0  0  0  0  0  0  0  0  0  0  0  0
   48.8840   32.3260   40.8520 C   0  0  2  0  0  0  0  0  0  0  0  0
   50.3730   32.9070   43.2070 H   0  0  0  0  0  0  0  0  0  0  0  0
   51.4940   33.7950   42.1390 H   0  0  0  0  0  0  0  0  0  0  0  0
   51.5080   31.7460   40.6040 H   0  0  0  0  0  0  0  0  0  0  0  0
   52.1970   31.5580   42.2190 H   0  0  0  0  0  0  0  0  0  0  0  0
   50.4520   29.7850   41.3250 H   0  0  0  0  0  0  0  0  0  0  0  0
   50.3730   30.3000   43.0460 H   0  0  0  0  0  0  0  0  0  0  0  0
   48.4800   31.5290   42.7660 H   0  0  0  0  0  0  0  0  0  0  0  0
   48.1140   30.4150   41.4480 H   0  0  0  0  0  0  0  0  0  0  0  0
   47.8090   32.6310   40.6940 H   0  0  0  0  0  0  0  0  0  0  0  0
   47.3510   34.6820   41.9630 C   0  0  1  0  0  0  0  0  0  0  0  0
   48.4470   35.6620   41.7510 C   0  0  0  0  0  0  0  0  0  0  0  0
   48.7630   34.2990   42.2150 C   0  0  2  0  0  0  0  0  0  0  0  0
   46.8200   34.4120   41.0140 H   0  0  0  0  0  0  0  0  0  0  0  0
   48.7680   35.9690   40.7310 H   0  0  0  0  0  0  0  0  0  0  0  0
   48.5270   36.4860   42.5070 H   0  0  0  0  0  0  0  0  0  0  0  0
   48.9940   34.1660   43.3080 H   0  0  0  0  0  0  0  0  0  0  0  0
   45.4990   35.9260   43.0860 C   0  0  0  0  0  0  0  0  0  0  0  0
   46.4280   34.8790   43.0830 C   0  0  0  0  0  0  0  0  0  0  0  0
   46.4310   33.9970   44.1890 C   0  0  0  0  0  0  0  0  0  0  0  0
   45.5430   34.2140   45.1830 N   0  0  0  0  0  0  0  0  0  0  0  0
   44.6560   35.2300   45.1650 C   0  0  0  0  0  0  0  0  0  0  0  0
   44.6270   36.0930   44.1200 N   0  0  0  0  0  0  0  0  0  0  0  0
   45.5040   36.5960   42.2360 H   0  0  0  0  0  0  0  0  0  0  0  0
   47.1390   33.1870   44.2040 H   0  0  0  0  0  0  0  0  0  0  0  0
   43.9420   35.4040   45.9640 H   0  0  0  0  0  0  0  0  0  0  0  0
   49.3760   31.9220   39.5610 N   0  0  0  0  0  0  0  0  0  0  0  0
   50.3230   32.3890   39.4650 H   0  0  0  0  0  0  0  0  0  0  0  0
   46.8510   33.4200   38.3670 H   0  0  0  0  0  0  0  0  0  0  0  0
   47.8650   33.5610   38.6270 N   0  0  0  0  0  0  0  0  0  0  0  0
   48.3880   34.4610   37.6230 C   0  0  0  0  0  2  0  0  0  0  0  0
   48.5990   33.5150   36.4600 C   0  0  0  0  0  2  0  0  0  0  0  0
   49.2960   32.3590   37.1460 C   0  0  0  0  0  2  0  0  0  0  0  0
   48.5490   32.3040   38.4690 C   0  0  1  0  0  3  0  0  0  0  0  0
  1  2  1  1  0  0  0
  1 18  1  0  0  0  0
  2  7  1  0  0  0  0
  3  4  1  0  0  0  0
  3  2  1  0  0  0  0
  3 10  1  0  0  0  0
  4 12  1  0  0  0  0
  5  4  1  0  0  0  0
  5 13  1  0  0  0  0
  6 15  1  6  0  0  0
  6  1  1  0  0  0  0
  6  5  1  0  0  0  0
  8  2  1  0  0  0  0
  9  3  1  0  0  0  0
 11  4  1  0  0  0  0
 14  5  1  0  0  0  0
 16 19  1  6  0  0  0
 16 18  1  0  0  0  0
 16 24  1  0  0  0  0
 17 16  1  0  0  0  0
 17 18  1  0  0  0  0
 17 21  1  0  0  0  0
 18 22  1  1  0  0  0
 20 17  1  0  0  0  0
 23 28  1  0  0  0  0
 24 23  2  0  0  0  0
 24 25  1  0  0  0  0
 25 30  1  0  0  0  0
 25 26  2  0  0  0  0
 27 26  1  0  0  0  0
 27 31  1  0  0  0  0
 28 27  2  0  0  0  0
 29 23  1  0  0  0  0
 32  6  1  0  0  0  0
 33 32  1  0  0  0  0
 34 35  1  0  0  0  0
 36 35  1  0  0  0  0
 37 38  1  0  0  0  0
 37 36  1  0  0  0  0
 38 39  1  0  0  0  0
 39 35  1  0  0  0  0
 39 32  1  1  0  0  0
M  END
>  <minimizedAffinity>
-5.29911613

>  <minimizedRMSD>
2.43465352

$$$$
