
 OpenBabel03252506473D

 39 42  0  0  1  0  0  0  0  0999 V2000
   36.7590   30.9190   40.5990 N   0  0  1  0  0  0  0  0  0  0  0  0
   35.6210   30.4020   39.8370 C   0  0  0  0  0  0  0  0  0  0  0  0
   35.1290   29.0770   40.3400 C   0  0  0  0  0  0  0  0  0  0  0  0
   36.2020   28.0260   40.0530 C   0  0  0  0  0  0  0  0  0  0  0  0
   37.5740   28.6100   40.2560 C   0  0  0  0  0  0  0  0  0  0  0  0
   37.4730   29.8150   41.1500 C   0  0  2  0  0  0  0  0  0  0  0  0
   35.9610   30.2530   38.7790 H   0  0  0  0  0  0  0  0  0  0  0  0
   34.7990   31.1200   39.8200 H   0  0  0  0  0  0  0  0  0  0  0  0
   34.8780   29.1220   41.4170 H   0  0  0  0  0  0  0  0  0  0  0  0
   34.2010   28.8520   39.8090 H   0  0  0  0  0  0  0  0  0  0  0  0
   36.0250   27.1910   40.7560 H   0  0  0  0  0  0  0  0  0  0  0  0
   36.0830   27.6550   39.0200 H   0  0  0  0  0  0  0  0  0  0  0  0
   37.9160   28.9800   39.2610 H   0  0  0  0  0  0  0  0  0  0  0  0
   38.3330   27.9250   40.6120 H   0  0  0  0  0  0  0  0  0  0  0  0
   38.5320   30.1750   41.2990 H   0  0  0  0  0  0  0  0  0  0  0  0
   38.6350   32.6170   40.1370 C   0  0  1  0  0  0  0  0  0  0  0  0
   37.3070   33.2070   39.8300 C   0  0  0  0  0  0  0  0  0  0  0  0
   37.5030   31.7490   39.7270 C   0  0  2  0  0  0  0  0  0  0  0  0
   38.9310   32.7460   41.2100 H   0  0  0  0  0  0  0  0  0  0  0  0
   36.6440   33.6020   40.6310 H   0  0  0  0  0  0  0  0  0  0  0  0
   37.2280   33.7770   38.8680 H   0  0  0  0  0  0  0  0  0  0  0  0
   37.6320   31.3160   38.6960 H   0  0  0  0  0  0  0  0  0  0  0  0
   39.9720   32.0380   38.1080 C   0  0  0  0  0  0  0  0  0  0  0  0
   39.7500   32.8600   39.2190 C   0  0  0  0  0  0  0  0  0  0  0  0
   40.6260   33.9540   39.4140 C   0  0  0  0  0  0  0  0  0  0  0  0
   41.6230   34.1420   38.5240 N   0  0  0  0  0  0  0  0  0  0  0  0
   41.8190   33.3370   37.4590 C   0  0  0  0  0  0  0  0  0  0  0  0
   40.9980   32.2800   37.2440 N   0  0  0  0  0  0  0  0  0  0  0  0
   39.2980   31.2030   37.9660 H   0  0  0  0  0  0  0  0  0  0  0  0
   40.4700   34.5970   40.2630 H   0  0  0  0  0  0  0  0  0  0  0  0
   42.6210   33.4890   36.7440 H   0  0  0  0  0  0  0  0  0  0  0  0
   36.9990   29.4290   42.4530 N   0  0  0  0  0  0  0  0  0  0  0  0
   36.5900   30.3120   42.8740 H   0  0  0  0  0  0  0  0  0  0  0  0
   37.9770   27.4470   44.7260 H   0  0  0  0  0  0  0  0  0  0  0  0
   37.8560   27.5310   43.6800 N   0  0  0  0  0  0  0  0  0  0  0  0
   38.9790   26.8170   43.1130 C   0  0  0  0  0  2  0  0  0  0  0  0
   40.0870   27.8340   43.2770 C   0  0  0  0  0  2  0  0  0  0  0  0
   39.4100   29.0890   42.7630 C   0  0  0  0  0  2  0  0  0  0  0  0
   38.0050   28.9160   43.3180 C   0  0  1  0  0  3  0  0  0  0  0  0
  1  2  1  6  0  0  0
  1  6  1  0  0  0  0
  2  3  1  0  0  0  0
  3  9  1  0  0  0  0
  4  5  1  0  0  0  0
  4  3  1  0  0  0  0
  4 11  1  0  0  0  0
  5 14  1  0  0  0  0
  5  6  1  0  0  0  0
  6 15  1  1  0  0  0
  6 32  1  0  0  0  0
  7  2  1  0  0  0  0
  8  2  1  0  0  0  0
 10  3  1  0  0  0  0
 12  4  1  0  0  0  0
 13  5  1  0  0  0  0
 16 19  1  1  0  0  0
 17 16  1  0  0  0  0
 17 20  1  0  0  0  0
 18 22  1  6  0  0  0
 18 17  1  0  0  0  0
 18 16  1  0  0  0  0
 18  1  1  0  0  0  0
 21 17  1  0  0  0  0
 23 24  1  0  0  0  0
 24 25  2  0  0  0  0
 24 16  1  0  0  0  0
 25 30  1  0  0  0  0
 26 25  1  0  0  0  0
 27 26  2  0  0  0  0
 28 27  1  0  0  0  0
 28 23  2  0  0  0  0
 29 23  1  0  0  0  0
 31 27  1  0  0  0  0
 32 33  1  0  0  0  0
 35 34  1  0  0  0  0
 36 37  1  0  0  0  0
 36 35  1  0  0  0  0
 38 37  1  0  0  0  0
 38 39  1  0  0  0  0
 39 32  1  6  0  0  0
 39 35  1  0  0  0  0
M  END
>  <minimizedAffinity>
-5.48314285

$$$$

 OpenBabel03252506473D

 39 42  0  0  1  0  0  0  0  0999 V2000
   36.6800   27.5560   41.5090 N   0  0  1  0  0  0  0  0  0  0  0  0
   37.1450   27.2580   42.8640 C   0  0  0  0  0  0  0  0  0  0  0  0
   37.4100   28.4890   43.6800 C   0  0  0  0  0  0  0  0  0  0  0  0
   38.6210   29.2080   43.0830 C   0  0  0  0  0  0  0  0  0  0  0  0
   38.5990   29.1130   41.5820 C   0  0  0  0  0  0  0  0  0  0  0  0
   37.1950   28.8270   41.1230 C   0  0  2  0  0  0  0  0  0  0  0  0
   38.1140   26.7000   42.7750 H   0  0  0  0  0  0  0  0  0  0  0  0
   36.4400   26.6100   43.3900 H   0  0  0  0  0  0  0  0  0  0  0  0
   36.5210   29.1480   43.7170 H   0  0  0  0  0  0  0  0  0  0  0  0
   37.6060   28.1650   44.7040 H   0  0  0  0  0  0  0  0  0  0  0  0
   38.5570   30.2630   43.4090 H   0  0  0  0  0  0  0  0  0  0  0  0
   39.5460   28.7640   43.4910 H   0  0  0  0  0  0  0  0  0  0  0  0
   39.2110   28.2220   41.3070 H   0  0  0  0  0  0  0  0  0  0  0  0
   39.0180   29.9560   41.0470 H   0  0  0  0  0  0  0  0  0  0  0  0
   37.2390   28.8150   39.9950 H   0  0  0  0  0  0  0  0  0  0  0  0
   36.9540   25.0380   41.0580 C   0  0  1  0  0  0  0  0  0  0  0  0
   38.2750   25.7160   41.0650 C   0  0  0  0  0  0  0  0  0  0  0  0
   37.0660   26.4700   40.6870 C   0  0  2  0  0  0  0  0  0  0  0  0
   36.6290   24.7100   42.0790 H   0  0  0  0  0  0  0  0  0  0  0  0
   38.7940   25.9770   42.0140 H   0  0  0  0  0  0  0  0  0  0  0  0
   38.9790   25.4380   40.2370 H   0  0  0  0  0  0  0  0  0  0  0  0
   36.8930   26.6540   39.5890 H   0  0  0  0  0  0  0  0  0  0  0  0
   35.8320   24.2990   38.9520 C   0  0  0  0  0  0  0  0  0  0  0  0
   36.6780   24.0280   40.0340 C   0  0  0  0  0  0  0  0  0  0  0  0
   37.2810   22.7490   40.0950 C   0  0  0  0  0  0  0  0  0  0  0  0
   37.0070   21.8650   39.1110 N   0  0  0  0  0  0  0  0  0  0  0  0
   36.1890   22.1480   38.0770 C   0  0  0  0  0  0  0  0  0  0  0  0
   35.5960   23.3640   37.9890 N   0  0  0  0  0  0  0  0  0  0  0  0
   35.3750   25.2790   38.9130 H   0  0  0  0  0  0  0  0  0  0  0  0
   37.9330   22.5230   40.9190 H   0  0  0  0  0  0  0  0  0  0  0  0
   35.9690   21.4370   37.2870 H   0  0  0  0  0  0  0  0  0  0  0  0
   36.3260   29.9200   41.4740 N   0  0  0  0  0  0  0  0  0  0  0  0
   35.3980   29.4700   41.7190 H   0  0  0  0  0  0  0  0  0  0  0  0
   36.0410   32.9050   40.4460 H   0  0  0  0  0  0  0  0  0  0  0  0
   36.7530   32.1510   40.6490 N   0  0  0  0  0  0  0  0  0  0  0  0
   37.7670   32.3080   39.6300 C   0  0  0  0  0  2  0  0  0  0  0  0
   37.0970   31.6480   38.4450 C   0  0  0  0  0  2  0  0  0  0  0  0
   36.5820   30.3700   39.0750 C   0  0  0  0  0  2  0  0  0  0  0  0
   36.1290   30.8720   40.4360 C   0  0  1  0  0  3  0  0  0  0  0  0
  1  2  1  1  0  0  0
  2  8  1  0  0  0  0
  2  3  1  0  0  0  0
  3  9  1  0  0  0  0
  3 10  1  0  0  0  0
  4 11  1  0  0  0  0
  4 12  1  0  0  0  0
  4  3  1  0  0  0  0
  5  4  1  0  0  0  0
  6 15  1  6  0  0  0
  6 32  1  0  0  0  0
  6  1  1  0  0  0  0
  6  5  1  0  0  0  0
  7  2  1  0  0  0  0
 13  5  1  0  0  0  0
 14  5  1  0  0  0  0
 16 17  1  0  0  0  0
 16 19  1  1  0  0  0
 17 20  1  0  0  0  0
 18 22  1  6  0  0  0
 18 16  1  0  0  0  0
 18 17  1  0  0  0  0
 18  1  1  0  0  0  0
 21 17  1  0  0  0  0
 23 24  1  0  0  0  0
 24 25  2  0  0  0  0
 24 16  1  0  0  0  0
 25 30  1  0  0  0  0
 26 25  1  0  0  0  0
 27 26  2  0  0  0  0
 28 27  1  0  0  0  0
 28 23  2  0  0  0  0
 29 23  1  0  0  0  0
 31 27  1  0  0  0  0
 32 33  1  0  0  0  0
 34 35  1  0  0  0  0
 36 35  1  0  0  0  0
 37 38  1  0  0  0  0
 37 36  1  0  0  0  0
 38 39  1  0  0  0  0
 39 35  1  0  0  0  0
 39 32  1  1  0  0  0
M  END
>  <minimizedAffinity>
-5.44542599

$$$$

 OpenBabel03252506473D

 39 42  0  0  1  0  0  0  0  0999 V2000
   37.8170   25.7660   42.5640 N   0  0  1  0  0  0  0  0  0  0  0  0
   36.9990   24.8350   41.7850 C   0  0  0  0  0  0  0  0  0  0  0  0
   37.7700   23.6470   41.2900 C   0  0  0  0  0  0  0  0  0  0  0  0
   38.7780   24.1290   40.2460 C   0  0  0  0  0  0  0  0  0  0  0  0
   39.3450   25.4650   40.6440 C   0  0  0  0  0  0  0  0  0  0  0  0
   39.1680   25.6570   42.1260 C   0  0  2  0  0  0  0  0  0  0  0  0
   36.6220   25.3870   40.8850 H   0  0  0  0  0  0  0  0  0  0  0  0
   36.1300   24.5010   42.3550 H   0  0  0  0  0  0  0  0  0  0  0  0
   38.2680   23.1130   42.1230 H   0  0  0  0  0  0  0  0  0  0  0  0
   37.0500   22.9500   40.8540 H   0  0  0  0  0  0  0  0  0  0  0  0
   39.5760   23.3650   40.1970 H   0  0  0  0  0  0  0  0  0  0  0  0
   38.2820   24.1920   39.2620 H   0  0  0  0  0  0  0  0  0  0  0  0
   38.7190   26.2410   40.1460 H   0  0  0  0  0  0  0  0  0  0  0  0
   40.3690   25.6520   40.3480 H   0  0  0  0  0  0  0  0  0  0  0  0
   39.6520   26.6490   42.3640 H   0  0  0  0  0  0  0  0  0  0  0  0
   37.9500   28.3340   42.6230 C   0  0  1  0  0  0  0  0  0  0  0  0
   37.0030   27.8340   43.6520 C   0  0  0  0  0  0  0  0  0  0  0  0
   37.2350   27.0490   42.4260 C   0  0  2  0  0  0  0  0  0  0  0  0
   39.0080   28.3790   42.9910 H   0  0  0  0  0  0  0  0  0  0  0  0
   37.3580   27.4270   44.6250 H   0  0  0  0  0  0  0  0  0  0  0  0
   36.0240   28.3760   43.7300 H   0  0  0  0  0  0  0  0  0  0  0  0
   36.4490   27.1020   41.6220 H   0  0  0  0  0  0  0  0  0  0  0  0
   38.4710   30.5820   41.6660 C   0  0  0  0  0  0  0  0  0  0  0  0
   37.5840   29.5120   41.8330 C   0  0  0  0  0  0  0  0  0  0  0  0
   36.3260   29.5930   41.1910 C   0  0  0  0  0  0  0  0  0  0  0  0
   36.0520   30.6930   40.4570 N   0  0  0  0  0  0  0  0  0  0  0  0
   36.9220   31.7130   40.3090 C   0  0  0  0  0  0  0  0  0  0  0  0
   38.1360   31.6660   40.9120 N   0  0  0  0  0  0  0  0  0  0  0  0
   39.4310   30.5120   42.1610 H   0  0  0  0  0  0  0  0  0  0  0  0
   35.6320   28.7800   41.3080 H   0  0  0  0  0  0  0  0  0  0  0  0
   36.7010   32.5970   39.7200 H   0  0  0  0  0  0  0  0  0  0  0  0
   39.9200   24.6650   42.8480 N   0  0  0  0  0  0  0  0  0  0  0  0
   39.2390   24.2580   43.5520 H   0  0  0  0  0  0  0  0  0  0  0  0
   42.9560   24.4660   43.7370 H   0  0  0  0  0  0  0  0  0  0  0  0
   42.3300   24.8130   42.9610 N   0  0  0  0  0  0  0  0  0  0  0  0
   42.9500   26.0350   42.4950 C   0  0  0  0  0  2  0  0  0  0  0  0
   42.5160   27.0110   43.5670 C   0  0  0  0  0  2  0  0  0  0  0  0
   41.0400   26.6850   43.6790 C   0  0  0  0  0  2  0  0  0  0  0  0
   41.0590   25.1720   43.5330 C   0  0  1  0  0  3  0  0  0  0  0  0
  1  2  1  6  0  0  0
  2  8  1  0  0  0  0
  3  2  1  0  0  0  0
  3  9  1  0  0  0  0
  4  5  1  0  0  0  0
  4  3  1  0  0  0  0
  5  6  1  0  0  0  0
  6 15  1  1  0  0  0
  6  1  1  0  0  0  0
  6 32  1  0  0  0  0
  7  2  1  0  0  0  0
 10  3  1  0  0  0  0
 11  4  1  0  0  0  0
 12  4  1  0  0  0  0
 13  5  1  0  0  0  0
 14  5  1  0  0  0  0
 16 19  1  1  0  0  0
 16 17  1  0  0  0  0
 17 21  1  0  0  0  0
 17 20  1  0  0  0  0
 18 22  1  6  0  0  0
 18  1  1  0  0  0  0
 18 16  1  0  0  0  0
 18 17  1  0  0  0  0
 23 24  1  0  0  0  0
 23 29  1  0  0  0  0
 24 16  1  0  0  0  0
 25 30  1  0  0  0  0
 25 24  2  0  0  0  0
 26 25  1  0  0  0  0
 27 26  2  0  0  0  0
 27 28  1  0  0  0  0
 28 23  2  0  0  0  0
 31 27  1  0  0  0  0
 32 33  1  0  0  0  0
 35 39  1  0  0  0  0
 35 34  1  0  0  0  0
 36 35  1  0  0  0  0
 36 37  1  0  0  0  0
 37 38  1  0  0  0  0
 39 32  1  6  0  0  0
 39 38  1  0  0  0  0
M  END
>  <minimizedAffinity>
-5.34723711

$$$$

 OpenBabel03252506473D

 39 42  0  0  1  0  0  0  0  0999 V2000
   38.3620   27.9580   41.3020 N   0  0  1  0  0  0  0  0  0  0  0  0
   38.2950   26.6380   41.9300 C   0  0  0  0  0  0  0  0  0  0  0  0
   36.9390   26.3210   42.4900 C   0  0  0  0  0  0  0  0  0  0  0  0
   36.6830   27.2490   43.6790 C   0  0  0  0  0  0  0  0  0  0  0  0
   37.2440   28.6170   43.4060 C   0  0  0  0  0  0  0  0  0  0  0  0
   37.3970   28.8040   41.9210 C   0  0  2  0  0  0  0  0  0  0  0  0
   39.0200   26.6320   42.7850 H   0  0  0  0  0  0  0  0  0  0  0  0
   38.6000   25.8530   41.2340 H   0  0  0  0  0  0  0  0  0  0  0  0
   36.1510   26.4190   41.7190 H   0  0  0  0  0  0  0  0  0  0  0  0
   36.9510   25.2740   42.7990 H   0  0  0  0  0  0  0  0  0  0  0  0
   35.5860   27.2960   43.8150 H   0  0  0  0  0  0  0  0  0  0  0  0
   37.1370   26.8130   44.5860 H   0  0  0  0  0  0  0  0  0  0  0  0
   38.2730   28.6340   43.8360 H   0  0  0  0  0  0  0  0  0  0  0  0
   36.7070   29.4470   43.8470 H   0  0  0  0  0  0  0  0  0  0  0  0
   37.7760   29.8580   41.7830 H   0  0  0  0  0  0  0  0  0  0  0  0
   40.1330   29.8150   41.4840 C   0  0  1  0  0  0  0  0  0  0  0  0
   40.2990   29.0550   40.2190 C   0  0  0  0  0  0  0  0  0  0  0  0
   39.7050   28.3970   41.3970 C   0  0  2  0  0  0  0  0  0  0  0  0
   39.4080   30.6650   41.3890 H   0  0  0  0  0  0  0  0  0  0  0  0
   39.6550   29.2490   39.3320 H   0  0  0  0  0  0  0  0  0  0  0  0
   41.3470   28.7630   39.9500 H   0  0  0  0  0  0  0  0  0  0  0  0
   40.3640   27.7020   41.9880 H   0  0  0  0  0  0  0  0  0  0  0  0
   42.0450   29.2270   42.9800 C   0  0  0  0  0  0  0  0  0  0  0  0
   41.3240   30.1820   42.2540 C   0  0  0  0  0  0  0  0  0  0  0  0
   41.7970   31.5150   42.2670 C   0  0  0  0  0  0  0  0  0  0  0  0
   42.9120   31.7910   42.9770 N   0  0  0  0  0  0  0  0  0  0  0  0
   43.5920   30.8540   43.6700 C   0  0  0  0  0  0  0  0  0  0  0  0
   43.1650   29.5680   43.6780 N   0  0  0  0  0  0  0  0  0  0  0  0
   41.6750   28.2100   42.9650 H   0  0  0  0  0  0  0  0  0  0  0  0
   41.2560   32.2620   41.7150 H   0  0  0  0  0  0  0  0  0  0  0  0
   44.4880   31.0770   44.2400 H   0  0  0  0  0  0  0  0  0  0  0  0
   36.1100   28.7570   41.2790 N   0  0  0  0  0  0  0  0  0  0  0  0
   36.1300   27.8860   40.6770 H   0  0  0  0  0  0  0  0  0  0  0  0
   34.9750   31.6910   40.8860 H   0  0  0  0  0  0  0  0  0  0  0  0
   35.8490   31.1560   41.1430 N   0  0  0  0  0  0  0  0  0  0  0  0
   36.9370   31.9180   40.5690 C   0  0  0  0  0  2  0  0  0  0  0  0
   36.8550   31.5010   39.1170 C   0  0  0  0  0  2  0  0  0  0  0  0
   36.7240   29.9970   39.2520 C   0  0  0  0  0  2  0  0  0  0  0  0
   35.8150   29.8860   40.4660 C   0  0  1  0  0  3  0  0  0  0  0  0
  1 18  1  0  0  0  0
  1  6  1  0  0  0  0
  1  2  1  1  0  0  0
  2  3  1  0  0  0  0
  2  7  1  0  0  0  0
  3 10  1  0  0  0  0
  3  4  1  0  0  0  0
  4 11  1  0  0  0  0
  4 12  1  0  0  0  0
  5  4  1  0  0  0  0
  5 13  1  0  0  0  0
  5 14  1  0  0  0  0
  6 15  1  6  0  0  0
  6  5  1  0  0  0  0
  8  2  1  0  0  0  0
  9  3  1  0  0  0  0
 16 19  1  1  0  0  0
 16 24  1  0  0  0  0
 17 18  1  0  0  0  0
 17 16  1  0  0  0  0
 18 16  1  0  0  0  0
 18 22  1  1  0  0  0
 20 17  1  0  0  0  0
 21 17  1  0  0  0  0
 23 28  1  0  0  0  0
 24 25  1  0  0  0  0
 24 23  2  0  0  0  0
 25 26  2  0  0  0  0
 26 27  1  0  0  0  0
 27 28  2  0  0  0  0
 27 31  1  0  0  0  0
 29 23  1  0  0  0  0
 30 25  1  0  0  0  0
 32  6  1  0  0  0  0
 33 32  1  0  0  0  0
 34 35  1  0  0  0  0
 36 35  1  0  0  0  0
 37 38  1  0  0  0  0
 37 36  1  0  0  0  0
 38 39  1  0  0  0  0
 39 35  1  0  0  0  0
 39 32  1  1  0  0  0
M  END
>  <minimizedAffinity>
-5.25839329

$$$$

 OpenBabel03252506473D

 39 42  0  0  1  0  0  0  0  0999 V2000
   37.4030   29.1940   39.9930 N   0  0  1  0  0  0  0  0  0  0  0  0
   38.0310   29.7170   38.7790 C   0  0  0  0  0  0  0  0  0  0  0  0
   38.9420   30.8800   39.0410 C   0  0  0  0  0  0  0  0  0  0  0  0
   38.0880   32.0670   39.4900 C   0  0  0  0  0  0  0  0  0  0  0  0
   36.9570   31.5970   40.3640 C   0  0  0  0  0  0  0  0  0  0  0  0
   37.3030   30.2520   40.9420 C   0  0  2  0  0  0  0  0  0  0  0  0
   37.2130   30.0790   38.1030 H   0  0  0  0  0  0  0  0  0  0  0  0
   38.5750   28.9330   38.2460 H   0  0  0  0  0  0  0  0  0  0  0  0
   39.7150   30.6260   39.7920 H   0  0  0  0  0  0  0  0  0  0  0  0
   39.4680   31.0980   38.1090 H   0  0  0  0  0  0  0  0  0  0  0  0
   38.7580   32.7470   40.0490 H   0  0  0  0  0  0  0  0  0  0  0  0
   37.7040   32.5960   38.6000 H   0  0  0  0  0  0  0  0  0  0  0  0
   36.0790   31.4400   39.6950 H   0  0  0  0  0  0  0  0  0  0  0  0
   36.6410   32.2830   41.1390 H   0  0  0  0  0  0  0  0  0  0  0  0
   36.4410   29.9800   41.6180 H   0  0  0  0  0  0  0  0  0  0  0  0
   35.1380   29.2630   38.7760 C   0  0  1  0  0  0  0  0  0  0  0  0
   34.9420   29.1090   40.2400 C   0  0  0  0  0  0  0  0  0  0  0  0
   36.1750   28.6050   39.6080 C   0  0  2  0  0  0  0  0  0  0  0  0
   35.2190   30.3350   38.4590 H   0  0  0  0  0  0  0  0  0  0  0  0
   35.0120   29.9760   40.9340 H   0  0  0  0  0  0  0  0  0  0  0  0
   34.1880   28.3440   40.5600 H   0  0  0  0  0  0  0  0  0  0  0  0
   36.2470   27.4960   39.4250 H   0  0  0  0  0  0  0  0  0  0  0  0
   33.1530   29.0020   37.2810 C   0  0  0  0  0  0  0  0  0  0  0  0
   34.3120   28.4720   37.8600 C   0  0  0  0  0  0  0  0  0  0  0  0
   34.6770   27.1500   37.5140 C   0  0  0  0  0  0  0  0  0  0  0  0
   33.8900   26.4750   36.6480 N   0  0  0  0  0  0  0  0  0  0  0  0
   32.7770   27.0060   36.1010 C   0  0  0  0  0  0  0  0  0  0  0  0
   32.4000   28.2700   36.4130 N   0  0  0  0  0  0  0  0  0  0  0  0
   32.8810   30.0140   37.5520 H   0  0  0  0  0  0  0  0  0  0  0  0
   35.5640   26.7260   37.9490 H   0  0  0  0  0  0  0  0  0  0  0  0
   32.1450   26.4630   35.4060 H   0  0  0  0  0  0  0  0  0  0  0  0
   38.4570   30.3590   41.7950 N   0  0  0  0  0  0  0  0  0  0  0  0
   39.2750   30.0460   41.1970 H   0  0  0  0  0  0  0  0  0  0  0  0
   36.9420   29.2860   44.3630 H   0  0  0  0  0  0  0  0  0  0  0  0
   37.0840   29.0990   43.3340 N   0  0  0  0  0  0  0  0  0  0  0  0
   37.0880   27.6580   43.2110 C   0  0  0  0  0  2  0  0  0  0  0  0
   38.4870   27.3260   43.6800 C   0  0  0  0  0  2  0  0  0  0  0  0
   39.3030   28.3410   42.9060 C   0  0  0  0  0  2  0  0  0  0  0  0
   38.3980   29.5610   42.9700 C   0  0  1  0  0  3  0  0  0  0  0  0
  1  2  1  6  0  0  0
  1  6  1  0  0  0  0
  2  3  1  0  0  0  0
  3  4  1  0  0  0  0
  3  9  1  0  0  0  0
  4 11  1  0  0  0  0
  4  5  1  0  0  0  0
  5  6  1  0  0  0  0
  5 14  1  0  0  0  0
  6 15  1  1  0  0  0
  6 32  1  0  0  0  0
  7  2  1  0  0  0  0
  8  2  1  0  0  0  0
 10  3  1  0  0  0  0
 12  4  1  0  0  0  0
 13  5  1  0  0  0  0
 16 19  1  6  0  0  0
 16 18  1  0  0  0  0
 16 17  1  0  0  0  0
 17 21  1  0  0  0  0
 17 20  1  0  0  0  0
 18 22  1  6  0  0  0
 18  1  1  0  0  0  0
 18 17  1  0  0  0  0
 23 29  1  0  0  0  0
 23 24  1  0  0  0  0
 24 16  1  0  0  0  0
 25 24  2  0  0  0  0
 25 30  1  0  0  0  0
 26 25  1  0  0  0  0
 27 28  1  0  0  0  0
 27 26  2  0  0  0  0
 28 23  2  0  0  0  0
 31 27  1  0  0  0  0
 33 32  1  0  0  0  0
 35 34  1  0  0  0  0
 36 35  1  0  0  0  0
 36 37  1  0  0  0  0
 38 39  1  0  0  0  0
 38 37  1  0  0  0  0
 39 32  1  6  0  0  0
 39 35  1  0  0  0  0
M  END
>  <minimizedAffinity>
-5.25261831

$$$$

 OpenBabel03252506473D

 39 42  0  0  1  0  0  0  0  0999 V2000
   36.9730   26.9800   41.1730 N   0  0  1  0  0  0  0  0  0  0  0  0
   36.9790   26.4260   42.5280 C   0  0  0  0  0  0  0  0  0  0  0  0
   36.5070   27.4030   43.5650 C   0  0  0  0  0  0  0  0  0  0  0  0
   37.5450   28.5210   43.6780 C   0  0  0  0  0  0  0  0  0  0  0  0
   38.1070   28.8530   42.3230 C   0  0  0  0  0  0  0  0  0  0  0  0
   37.1460   28.3920   41.2610 C   0  0  2  0  0  0  0  0  0  0  0  0
   38.0380   26.1570   42.7790 H   0  0  0  0  0  0  0  0  0  0  0  0
   36.3850   25.5120   42.5830 H   0  0  0  0  0  0  0  0  0  0  0  0
   35.5040   27.8000   43.3190 H   0  0  0  0  0  0  0  0  0  0  0  0
   36.4080   26.8560   44.5050 H   0  0  0  0  0  0  0  0  0  0  0  0
   37.0230   29.3960   44.1100 H   0  0  0  0  0  0  0  0  0  0  0  0
   38.3460   28.2060   44.3690 H   0  0  0  0  0  0  0  0  0  0  0  0
   39.0320   28.2430   42.2010 H   0  0  0  0  0  0  0  0  0  0  0  0
   38.3910   29.8850   42.1670 H   0  0  0  0  0  0  0  0  0  0  0  0
   37.6020   28.7100   40.2780 H   0  0  0  0  0  0  0  0  0  0  0  0
   37.9540   24.8370   40.1420 C   0  0  1  0  0  0  0  0  0  0  0  0
   38.8690   25.3890   41.1740 C   0  0  0  0  0  0  0  0  0  0  0  0
   37.9660   26.2920   40.4360 C   0  0  2  0  0  0  0  0  0  0  0  0
   37.1810   24.1480   40.5710 H   0  0  0  0  0  0  0  0  0  0  0  0
   38.6920   25.2250   42.2600 H   0  0  0  0  0  0  0  0  0  0  0  0
   39.9560   25.4270   40.9030 H   0  0  0  0  0  0  0  0  0  0  0  0
   38.4140   26.9040   39.6050 H   0  0  0  0  0  0  0  0  0  0  0  0
   38.6430   22.9590   38.6470 C   0  0  0  0  0  0  0  0  0  0  0  0
   38.5190   24.3320   38.8890 C   0  0  0  0  0  0  0  0  0  0  0  0
   38.9350   25.2210   37.8700 C   0  0  0  0  0  0  0  0  0  0  0  0
   39.4270   24.6990   36.7260 N   0  0  0  0  0  0  0  0  0  0  0  0
   39.5380   23.3710   36.5140 C   0  0  0  0  0  0  0  0  0  0  0  0
   39.1490   22.4920   37.4700 N   0  0  0  0  0  0  0  0  0  0  0  0
   38.3230   22.2860   39.4310 H   0  0  0  0  0  0  0  0  0  0  0  0
   38.8460   26.2790   38.0380 H   0  0  0  0  0  0  0  0  0  0  0  0
   39.9340   22.9520   35.5950 H   0  0  0  0  0  0  0  0  0  0  0  0
   35.9030   29.1090   41.3710 N   0  0  0  0  0  0  0  0  0  0  0  0
   35.1490   28.3930   41.1630 H   0  0  0  0  0  0  0  0  0  0  0  0
   35.2510   32.1500   40.7620 H   0  0  0  0  0  0  0  0  0  0  0  0
   36.0340   31.5000   41.0450 N   0  0  0  0  0  0  0  0  0  0  0  0
   37.2140   32.0250   40.3930 C   0  0  0  0  0  2  0  0  0  0  0  0
   37.0200   31.5160   38.9820 C   0  0  0  0  0  2  0  0  0  0  0  0
   36.6500   30.0700   39.2400 C   0  0  0  0  0  2  0  0  0  0  0  0
   35.7720   30.2050   40.4750 C   0  0  1  0  0  3  0  0  0  0  0  0
  1  6  1  0  0  0  0
  1  2  1  1  0  0  0
  2  8  1  0  0  0  0
  2  7  1  0  0  0  0
  2  3  1  0  0  0  0
  3  4  1  0  0  0  0
  3 10  1  0  0  0  0
  4 11  1  0  0  0  0
  4 12  1  0  0  0  0
  5  4  1  0  0  0  0
  6 15  1  6  0  0  0
  6 32  1  0  0  0  0
  6  5  1  0  0  0  0
  9  3  1  0  0  0  0
 13  5  1  0  0  0  0
 14  5  1  0  0  0  0
 16 18  1  0  0  0  0
 16 19  1  1  0  0  0
 16 17  1  0  0  0  0
 17 20  1  0  0  0  0
 18 22  1  6  0  0  0
 18  1  1  0  0  0  0
 18 17  1  0  0  0  0
 21 17  1  0  0  0  0
 23 24  1  0  0  0  0
 23 29  1  0  0  0  0
 24 16  1  0  0  0  0
 25 30  1  0  0  0  0
 25 24  2  0  0  0  0
 26 25  1  0  0  0  0
 27 26  2  0  0  0  0
 27 28  1  0  0  0  0
 28 23  2  0  0  0  0
 31 27  1  0  0  0  0
 33 32  1  0  0  0  0
 34 35  1  0  0  0  0
 36 35  1  0  0  0  0
 37 38  1  0  0  0  0
 37 36  1  0  0  0  0
 38 39  1  0  0  0  0
 39 35  1  0  0  0  0
 39 32  1  1  0  0  0
M  END
>  <minimizedAffinity>
-5.1265769

$$$$

 OpenBabel03252506473D

 39 42  0  0  1  0  0  0  0  0999 V2000
   37.8470   31.5320   39.7130 N   0  0  1  0  0  0  0  0  0  0  0  0
   36.9540   31.5390   38.5540 C   0  0  0  0  0  0  0  0  0  0  0  0
   36.3140   30.2070   38.2950 C   0  0  0  0  0  0  0  0  0  0  0  0
   37.4030   29.2310   37.8460 C   0  0  0  0  0  0  0  0  0  0  0  0
   38.6770   29.4830   38.6050 C   0  0  0  0  0  0  0  0  0  0  0  0
   38.3580   30.2120   39.8820 C   0  0  2  0  0  0  0  0  0  0  0  0
   37.5700   31.7950   37.6530 H   0  0  0  0  0  0  0  0  0  0  0  0
   36.1830   32.3060   38.6550 H   0  0  0  0  0  0  0  0  0  0  0  0
   35.7770   29.8360   39.1900 H   0  0  0  0  0  0  0  0  0  0  0  0
   35.5640   30.3520   37.5140 H   0  0  0  0  0  0  0  0  0  0  0  0
   37.0210   28.2130   38.0500 H   0  0  0  0  0  0  0  0  0  0  0  0
   37.5650   29.3410   36.7600 H   0  0  0  0  0  0  0  0  0  0  0  0
   39.2880   30.1790   37.9850 H   0  0  0  0  0  0  0  0  0  0  0  0
   39.2940   28.6140   38.7980 H   0  0  0  0  0  0  0  0  0  0  0  0
   39.3430   30.3280   40.4210 H   0  0  0  0  0  0  0  0  0  0  0  0
   40.1780   32.5510   40.0960 C   0  0  1  0  0  0  0  0  0  0  0  0
   39.1180   33.4570   40.6090 C   0  0  0  0  0  0  0  0  0  0  0  0
   38.8210   32.5360   39.4960 C   0  0  2  0  0  0  0  0  0  0  0  0
   40.5040   31.7920   40.8540 H   0  0  0  0  0  0  0  0  0  0  0  0
   38.6270   33.2860   41.5920 H   0  0  0  0  0  0  0  0  0  0  0  0
   39.2290   34.5430   40.3520 H   0  0  0  0  0  0  0  0  0  0  0  0
   38.7950   32.9710   38.4580 H   0  0  0  0  0  0  0  0  0  0  0  0
   42.4230   33.6430   40.0220 C   0  0  0  0  0  0  0  0  0  0  0  0
   41.3060   33.1230   39.3580 C   0  0  0  0  0  0  0  0  0  0  0  0
   41.3110   33.1440   37.9430 C   0  0  0  0  0  0  0  0  0  0  0  0
   42.3880   33.6640   37.3150 N   0  0  0  0  0  0  0  0  0  0  0  0
   43.4550   34.1600   37.9750 C   0  0  0  0  0  0  0  0  0  0  0  0
   43.4810   34.1540   39.3300 N   0  0  0  0  0  0  0  0  0  0  0  0
   42.4110   33.6240   41.1030 H   0  0  0  0  0  0  0  0  0  0  0  0
   40.4610   32.7490   37.4160 H   0  0  0  0  0  0  0  0  0  0  0  0
   44.3190   34.5770   37.4690 H   0  0  0  0  0  0  0  0  0  0  0  0
   37.5350   29.3910   40.7310 N   0  0  0  0  0  0  0  0  0  0  0  0
   36.5850   29.8600   40.7350 H   0  0  0  0  0  0  0  0  0  0  0  0
   37.2310   29.8670   43.8500 H   0  0  0  0  0  0  0  0  0  0  0  0
   36.9820   29.1930   43.0750 N   0  0  0  0  0  0  0  0  0  0  0  0
   37.0670   27.8810   43.6770 C   0  0  0  0  0  2  0  0  0  0  0  0
   38.5630   27.6530   43.6770 C   0  0  0  0  0  2  0  0  0  0  0  0
   38.9220   28.0700   42.2660 C   0  0  0  0  0  2  0  0  0  0  0  0
   38.0060   29.2670   42.0670 C   0  0  1  0  0  3  0  0  0  0  0  0
  1  2  1  6  0  0  0
  1  6  1  0  0  0  0
  2  8  1  0  0  0  0
  3  2  1  0  0  0  0
  3  9  1  0  0  0  0
  4 11  1  0  0  0  0
  4  3  1  0  0  0  0
  4  5  1  0  0  0  0
  5 14  1  0  0  0  0
  5  6  1  0  0  0  0
  6 15  1  1  0  0  0
  6 32  1  0  0  0  0
  7  2  1  0  0  0  0
 10  3  1  0  0  0  0
 12  4  1  0  0  0  0
 13  5  1  0  0  0  0
 16 17  1  0  0  0  0
 16 19  1  1  0  0  0
 17 20  1  0  0  0  0
 18 22  1  6  0  0  0
 18  1  1  0  0  0  0
 18 16  1  0  0  0  0
 18 17  1  0  0  0  0
 21 17  1  0  0  0  0
 23 29  1  0  0  0  0
 24 23  1  0  0  0  0
 24 16  1  0  0  0  0
 25 24  2  0  0  0  0
 26 25  1  0  0  0  0
 26 27  2  0  0  0  0
 27 28  1  0  0  0  0
 28 23  2  0  0  0  0
 30 25  1  0  0  0  0
 31 27  1  0  0  0  0
 32 33  1  0  0  0  0
 35 36  1  0  0  0  0
 35 34  1  0  0  0  0
 36 37  1  0  0  0  0
 38 37  1  0  0  0  0
 39 32  1  6  0  0  0
 39 38  1  0  0  0  0
 39 35  1  0  0  0  0
M  END
>  <minimizedAffinity>
-5.09103727

$$$$

 OpenBabel03252506473D

 39 42  0  0  1  0  0  0  0  0999 V2000
   37.4000   29.2240   39.8650 N   0  0  1  0  0  0  0  0  0  0  0  0
   37.6550   30.1380   38.7500 C   0  0  0  0  0  0  0  0  0  0  0  0
   38.2270   31.4540   39.1870 C   0  0  0  0  0  0  0  0  0  0  0  0
   37.1530   32.2080   39.9720 C   0  0  0  0  0  0  0  0  0  0  0  0
   36.3540   31.2530   40.8150 C   0  0  0  0  0  0  0  0  0  0  0  0
   37.1530   29.9970   41.0360 C   0  0  2  0  0  0  0  0  0  0  0  0
   36.6720   30.3490   38.2540 H   0  0  0  0  0  0  0  0  0  0  0  0
   38.3080   29.6790   38.0050 H   0  0  0  0  0  0  0  0  0  0  0  0
   39.1490   31.3150   39.7860 H   0  0  0  0  0  0  0  0  0  0  0  0
   38.5160   31.9990   38.2850 H   0  0  0  0  0  0  0  0  0  0  0  0
   37.6810   32.9430   40.6080 H   0  0  0  0  0  0  0  0  0  0  0  0
   36.4990   32.7500   39.2670 H   0  0  0  0  0  0  0  0  0  0  0  0
   35.4630   30.9610   40.2130 H   0  0  0  0  0  0  0  0  0  0  0  0
   35.9810   31.6450   41.7530 H   0  0  0  0  0  0  0  0  0  0  0  0
   36.5210   29.3480   41.7090 H   0  0  0  0  0  0  0  0  0  0  0  0
   36.2830   27.6280   38.1850 C   0  0  1  0  0  0  0  0  0  0  0  0
   35.4430   28.8330   38.4010 C   0  0  0  0  0  0  0  0  0  0  0  0
   36.3450   28.3670   39.4700 C   0  0  2  0  0  0  0  0  0  0  0  0
   37.0480   27.7700   37.3770 H   0  0  0  0  0  0  0  0  0  0  0  0
   35.6660   29.7990   37.8960 H   0  0  0  0  0  0  0  0  0  0  0  0
   34.3460   28.6520   38.5480 H   0  0  0  0  0  0  0  0  0  0  0  0
   35.8830   27.8000   40.3250 H   0  0  0  0  0  0  0  0  0  0  0  0
   34.5840   26.0650   37.2320 C   0  0  0  0  0  0  0  0  0  0  0  0
   35.6390   26.3150   38.1170 C   0  0  0  0  0  0  0  0  0  0  0  0
   36.0820   25.2460   38.9330 C   0  0  0  0  0  0  0  0  0  0  0  0
   35.4650   24.0510   38.8130 N   0  0  0  0  0  0  0  0  0  0  0  0
   34.4500   23.8330   37.9520 C   0  0  0  0  0  0  0  0  0  0  0  0
   34.0010   24.8350   37.1570 N   0  0  0  0  0  0  0  0  0  0  0  0
   34.2510   26.8870   36.6120 H   0  0  0  0  0  0  0  0  0  0  0  0
   36.8910   25.4200   39.6190 H   0  0  0  0  0  0  0  0  0  0  0  0
   33.9540   22.8720   37.8560 H   0  0  0  0  0  0  0  0  0  0  0  0
   38.3480   30.2940   41.7810 N   0  0  0  0  0  0  0  0  0  0  0  0
   39.1480   30.1010   41.1130 H   0  0  0  0  0  0  0  0  0  0  0  0
   37.3840   29.3090   44.6350 H   0  0  0  0  0  0  0  0  0  0  0  0
   37.2990   29.1030   43.6030 N   0  0  0  0  0  0  0  0  0  0  0  0
   37.2330   27.6600   43.5130 C   0  0  0  0  0  2  0  0  0  0  0  0
   38.6900   27.2880   43.6800 C   0  0  0  0  0  2  0  0  0  0  0  0
   39.3520   28.2650   42.7280 C   0  0  0  0  0  2  0  0  0  0  0  0
   38.5180   29.5150   42.9580 C   0  0  1  0  0  3  0  0  0  0  0  0
  1  2  1  6  0  0  0
  1  6  1  0  0  0  0
  2  3  1  0  0  0  0
  3  9  1  0  0  0  0
  3  4  1  0  0  0  0
  4 11  1  0  0  0  0
  4  5  1  0  0  0  0
  5  6  1  0  0  0  0
  5 14  1  0  0  0  0
  6 15  1  1  0  0  0
  6 32  1  0  0  0  0
  7  2  1  0  0  0  0
  8  2  1  0  0  0  0
 10  3  1  0  0  0  0
 12  4  1  0  0  0  0
 13  5  1  0  0  0  0
 16 19  1  6  0  0  0
 16 17  1  0  0  0  0
 16 18  1  0  0  0  0
 17 21  1  0  0  0  0
 17 18  1  0  0  0  0
 18  1  1  0  0  0  0
 18 22  1  1  0  0  0
 20 17  1  0  0  0  0
 23 24  1  0  0  0  0
 24 16  1  0  0  0  0
 24 25  2  0  0  0  0
 25 30  1  0  0  0  0
 26 25  1  0  0  0  0
 27 26  2  0  0  0  0
 28 23  2  0  0  0  0
 28 27  1  0  0  0  0
 29 23  1  0  0  0  0
 31 27  1  0  0  0  0
 33 32  1  0  0  0  0
 35 34  1  0  0  0  0
 36 35  1  0  0  0  0
 36 37  1  0  0  0  0
 38 39  1  0  0  0  0
 38 37  1  0  0  0  0
 39 32  1  6  0  0  0
 39 35  1  0  0  0  0
M  END
>  <minimizedAffinity>
-5.06997299

$$$$

 OpenBabel03252506473D

 39 42  0  0  1  0  0  0  0  0999 V2000
   38.5930   30.3320   39.8920 N   0  0  1  0  0  0  0  0  0  0  0  0
   39.7570   30.8120   39.1470 C   0  0  0  0  0  0  0  0  0  0  0  0
   40.8510   31.3310   40.0340 C   0  0  0  0  0  0  0  0  0  0  0  0
   40.3570   32.6130   40.7060 C   0  0  0  0  0  0  0  0  0  0  0  0
   38.8990   32.4920   41.0560 C   0  0  0  0  0  0  0  0  0  0  0  0
   38.5250   31.0370   41.1290 C   0  0  2  0  0  0  0  0  0  0  0  0
   39.4190   31.6640   38.5010 H   0  0  0  0  0  0  0  0  0  0  0  0
   40.1510   30.0360   38.4880 H   0  0  0  0  0  0  0  0  0  0  0  0
   41.1600   30.5720   40.7790 H   0  0  0  0  0  0  0  0  0  0  0  0
   41.7200   31.5230   39.4000 H   0  0  0  0  0  0  0  0  0  0  0  0
   40.9680   32.7490   41.6180 H   0  0  0  0  0  0  0  0  0  0  0  0
   40.5290   33.4680   40.0290 H   0  0  0  0  0  0  0  0  0  0  0  0
   38.3270   32.9250   40.2020 H   0  0  0  0  0  0  0  0  0  0  0  0
   38.5800   33.0200   41.9450 H   0  0  0  0  0  0  0  0  0  0  0  0
   37.4400   31.0160   41.4380 H   0  0  0  0  0  0  0  0  0  0  0  0
   37.3470   29.9130   37.6810 C   0  0  1  0  0  0  0  0  0  0  0  0
   37.5960   31.3640   37.8760 C   0  0  0  0  0  0  0  0  0  0  0  0
   37.4670   30.4790   39.0480 C   0  0  2  0  0  0  0  0  0  0  0  0
   38.1990   29.3900   37.1750 H   0  0  0  0  0  0  0  0  0  0  0  0
   38.5860   31.8220   37.6570 H   0  0  0  0  0  0  0  0  0  0  0  0
   36.7340   32.0480   37.6590 H   0  0  0  0  0  0  0  0  0  0  0  0
   36.4880   30.4970   39.6030 H   0  0  0  0  0  0  0  0  0  0  0  0
   34.9680   29.2380   38.0360 C   0  0  0  0  0  0  0  0  0  0  0  0
   36.0440   29.4770   37.1730 C   0  0  0  0  0  0  0  0  0  0  0  0
   35.8260   29.3080   35.7850 C   0  0  0  0  0  0  0  0  0  0  0  0
   34.5990   28.9250   35.3720 N   0  0  0  0  0  0  0  0  0  0  0  0
   33.5750   28.7000   36.2220 C   0  0  0  0  0  0  0  0  0  0  0  0
   33.7510   28.8530   37.5580 N   0  0  0  0  0  0  0  0  0  0  0  0
   35.1440   29.3690   39.0960 H   0  0  0  0  0  0  0  0  0  0  0  0
   36.6410   29.4870   35.1070 H   0  0  0  0  0  0  0  0  0  0  0  0
   32.5890   28.3930   35.8900 H   0  0  0  0  0  0  0  0  0  0  0  0
   39.2520   30.3900   42.1900 N   0  0  0  0  0  0  0  0  0  0  0  0
   39.9860   29.8000   41.7040 H   0  0  0  0  0  0  0  0  0  0  0  0
   36.5000   29.6450   43.5730 H   0  0  0  0  0  0  0  0  0  0  0  0
   37.0600   29.5040   42.6890 N   0  0  0  0  0  0  0  0  0  0  0  0
   36.7740   28.1470   42.2760 C   0  0  0  0  0  2  0  0  0  0  0  0
   37.6630   27.3600   43.2140 C   0  0  0  0  0  2  0  0  0  0  0  0
   38.9640   28.1280   43.0970 C   0  0  0  0  0  2  0  0  0  0  0  0
   38.4580   29.5600   43.0280 C   0  0  1  0  0  3  0  0  0  0  0  0
  1  2  1  6  0  0  0
  1  6  1  0  0  0  0
  2  3  1  0  0  0  0
  3  4  1  0  0  0  0
  3  9  1  0  0  0  0
  4  5  1  0  0  0  0
  4 11  1  0  0  0  0
  5  6  1  0  0  0  0
  5 14  1  0  0  0  0
  6 15  1  1  0  0  0
  6 32  1  0  0  0  0
  7  2  1  0  0  0  0
  8  2  1  0  0  0  0
 10  3  1  0  0  0  0
 12  4  1  0  0  0  0
 13  5  1  0  0  0  0
 16 19  1  6  0  0  0
 16 17  1  0  0  0  0
 16 18  1  0  0  0  0
 17 18  1  0  0  0  0
 18 22  1  1  0  0  0
 18  1  1  0  0  0  0
 20 17  1  0  0  0  0
 21 17  1  0  0  0  0
 23 29  1  0  0  0  0
 24 16  1  0  0  0  0
 24 23  2  0  0  0  0
 25 24  1  0  0  0  0
 26 25  2  0  0  0  0
 26 27  1  0  0  0  0
 27 28  2  0  0  0  0
 28 23  1  0  0  0  0
 30 25  1  0  0  0  0
 31 27  1  0  0  0  0
 33 32  1  0  0  0  0
 35 39  1  0  0  0  0
 35 34  1  0  0  0  0
 36 35  1  0  0  0  0
 36 37  1  0  0  0  0
 38 37  1  0  0  0  0
 39 32  1  6  0  0  0
 39 38  1  0  0  0  0
M  END
>  <minimizedAffinity>
-4.9686718

$$$$
