
 OpenBabel03252506223D

 32 34  0  0  1  0  0  0  0  0999 V2000
   45.1060   36.2880   43.1860 C   0  0  0  0  0  0  0  0  0  0  0  0
   44.0880   36.1880   42.2500 C   0  0  0  0  0  0  0  0  0  0  0  0
   44.2060   35.2000   41.2670 C   0  0  0  0  0  0  0  0  0  0  0  0
   45.2970   34.3960   41.2740 N   0  0  0  0  0  0  0  0  0  0  0  0
   46.2650   34.5300   42.2080 C   0  0  0  0  0  0  0  0  0  0  0  0
   46.1710   35.4680   43.1550 N   0  0  0  0  0  0  0  0  0  0  0  0
   43.2700   36.8670   42.3270 H   0  0  0  0  0  0  0  0  0  0  0  0
   43.4010   35.1360   40.5420 H   0  0  0  0  0  0  0  0  0  0  0  0
   48.8120   35.7320   41.0960 Cl  0  0  0  0  0  0  0  0  0  0  0  0
   48.6100   34.1030   41.6260 C   0  0  0  0  0  0  0  0  0  0  0  0
   47.4050   33.6050   42.1310 C   0  0  0  0  0  0  0  0  0  0  0  0
   47.2160   32.3100   42.5640 C   0  0  0  0  0  0  0  0  0  0  0  0
   48.3120   31.4840   42.4770 C   0  0  0  0  0  0  0  0  0  0  0  0
   49.5510   31.8550   41.9980 C   0  0  0  0  0  0  0  0  0  0  0  0
   49.6360   33.1850   41.5860 C   0  0  0  0  0  0  0  0  0  0  0  0
   46.2520   31.9940   42.9400 H   0  0  0  0  0  0  0  0  0  0  0  0
   48.1350   30.4570   42.8270 H   0  0  0  0  0  0  0  0  0  0  0  0
   50.3700   31.1740   41.9580 H   0  0  0  0  0  0  0  0  0  0  0  0
   50.5920   33.5050   41.1950 H   0  0  0  0  0  0  0  0  0  0  0  0
   45.0110   37.3190   44.2390 C   0  0  0  0  0  2  0  0  0  0  0  0
   45.4220   38.5530   43.9390 C   0  0  0  0  0  2  0  0  0  0  0  0
   45.2850   39.5530   45.0560 C   0  0  0  0  0  0  0  0  0  0  0  0
   46.3170   39.9900   45.1870 H   0  0  0  0  0  0  0  0  0  0  0  0
   44.8560   39.1410   45.9610 H   0  0  0  0  0  0  0  0  0  0  0  0
   44.4730   40.6360   44.5130 N   0  0  0  0  0  0  0  0  0  0  0  0
   43.4780   40.4100   44.7290 H   0  0  0  0  0  0  0  0  0  0  0  0
   45.0060   43.8080   44.7340 H   0  0  0  0  0  0  0  0  0  0  0  0
   44.4040   42.9780   44.5050 N   0  0  0  0  0  0  0  0  0  0  0  0
   43.0290   43.1760   44.8590 C   0  0  0  0  0  2  0  0  0  0  0  0
   42.7370   42.3280   46.0570 C   0  0  0  0  0  2  0  0  0  0  0  0
   44.1190   41.9600   46.5570 C   0  0  0  0  0  2  0  0  0  0  0  0
   44.8560   41.8280   45.2390 C   0  0  1  0  0  3  0  0  0  0  0  0
  1 20  1  0  0  0  0
  2  7  1  0  0  0  0
  2  1  2  0  0  0  0
  3  4  2  0  0  0  0
  3  2  1  0  0  0  0
  4  5  1  0  0  0  0
  5  6  2  0  0  0  0
  6  1  1  0  0  0  0
  8  3  1  0  0  0  0
  9 10  1  0  0  0  0
 10 11  1  0  0  0  0
 11  5  1  0  0  0  0
 11 12  2  0  0  0  0
 12 16  1  0  0  0  0
 13 12  1  0  0  0  0
 13 17  1  0  0  0  0
 14 13  2  0  0  0  0
 15 10  2  0  0  0  0
 15 14  1  0  0  0  0
 18 14  1  0  0  0  0
 19 15  1  0  0  0  0
 21 20  1  0  0  0  0
 21 22  1  0  0  0  0
 22 23  1  0  0  0  0
 22 24  1  0  0  0  0
 25 26  1  0  0  0  0
 25 22  1  0  0  0  0
 28 27  1  0  0  0  0
 28 29  1  0  0  0  0
 28 32  1  0  0  0  0
 29 30  1  0  0  0  0
 30 31  1  0  0  0  0
 32 25  1  6  0  0  0
 32 31  1  0  0  0  0
M  END
>  <minimizedAffinity>
-4.18451548

>  <minimizedRMSD>
0.718007386

$$$$
