
 OpenBabel03252506463D

 39 42  0  0  1  0  0  0  0  0999 V2000
   49.5470   33.4730   41.3710 N   0  0  1  0  0  0  0  0  0  0  0  0
   50.7070   33.0370   42.1500 C   0  0  0  0  0  0  0  0  0  0  0  0
   51.2620   31.7200   41.6930 C   0  0  0  0  0  0  0  0  0  0  0  0
   50.2390   30.6300   42.0160 C   0  0  0  0  0  0  0  0  0  0  0  0
   48.8420   31.1410   41.7940 C   0  0  0  0  0  0  0  0  0  0  0  0
   48.8870   32.3180   40.8580 C   0  0  2  0  0  0  0  0  0  0  0  0
   50.3730   32.9080   43.2120 H   0  0  0  0  0  0  0  0  0  0  0  0
   51.4940   33.7940   42.1420 H   0  0  0  0  0  0  0  0  0  0  0  0
   51.5110   31.7400   40.6140 H   0  0  0  0  0  0  0  0  0  0  0  0
   52.1990   31.5580   42.2300 H   0  0  0  0  0  0  0  0  0  0  0  0
   50.4560   29.7800   41.3420 H   0  0  0  0  0  0  0  0  0  0  0  0
   50.3750   30.3010   43.0610 H   0  0  0  0  0  0  0  0  0  0  0  0
   48.4820   31.5280   42.7750 H   0  0  0  0  0  0  0  0  0  0  0  0
   48.1170   30.4090   41.4620 H   0  0  0  0  0  0  0  0  0  0  0  0
   47.8110   32.6220   40.6990 H   0  0  0  0  0  0  0  0  0  0  0  0
   47.3500   34.6740   41.9620 C   0  0  1  0  0  0  0  0  0  0  0  0
   48.4420   35.6560   41.7430 C   0  0  0  0  0  0  0  0  0  0  0  0
   48.7630   34.2960   42.2140 C   0  0  2  0  0  0  0  0  0  0  0  0
   46.8180   34.3980   41.0150 H   0  0  0  0  0  0  0  0  0  0  0  0
   48.7610   35.9580   40.7210 H   0  0  0  0  0  0  0  0  0  0  0  0
   48.5210   36.4840   42.4950 H   0  0  0  0  0  0  0  0  0  0  0  0
   48.9950   34.1690   43.3080 H   0  0  0  0  0  0  0  0  0  0  0  0
   45.5000   35.9230   43.0840 C   0  0  0  0  0  0  0  0  0  0  0  0
   46.4270   34.8740   43.0820 C   0  0  0  0  0  0  0  0  0  0  0  0
   46.4300   33.9950   44.1900 C   0  0  0  0  0  0  0  0  0  0  0  0
   45.5420   34.2150   45.1840 N   0  0  0  0  0  0  0  0  0  0  0  0
   44.6560   35.2320   45.1650 C   0  0  0  0  0  0  0  0  0  0  0  0
   44.6290   36.0930   44.1180 N   0  0  0  0  0  0  0  0  0  0  0  0
   45.5060   36.5910   42.2330 H   0  0  0  0  0  0  0  0  0  0  0  0
   47.1350   33.1830   44.2060 H   0  0  0  0  0  0  0  0  0  0  0  0
   43.9440   35.4090   45.9640 H   0  0  0  0  0  0  0  0  0  0  0  0
   49.3790   31.9100   39.5690 N   0  0  0  0  0  0  0  0  0  0  0  0
   50.3290   32.3710   39.4760 H   0  0  0  0  0  0  0  0  0  0  0  0
   46.8470   33.3930   38.3710 H   0  0  0  0  0  0  0  0  0  0  0  0
   47.8580   33.5430   38.6420 N   0  0  0  0  0  0  0  0  0  0  0  0
   48.3790   34.4630   37.6560 C   0  0  0  0  0  2  0  0  0  0  0  0
   48.6130   33.5350   36.4820 C   0  0  0  0  0  2  0  0  0  0  0  0
   49.3180   32.3780   37.1610 C   0  0  0  0  0  2  0  0  0  0  0  0
   48.5580   32.2960   38.4750 C   0  0  1  0  0  3  0  0  0  0  0  0
  1  2  1  1  0  0  0
  1 18  1  0  0  0  0
  2  7  1  0  0  0  0
  3  4  1  0  0  0  0
  3  2  1  0  0  0  0
  3 10  1  0  0  0  0
  4 12  1  0  0  0  0
  5  4  1  0  0  0  0
  5 13  1  0  0  0  0
  6 15  1  6  0  0  0
  6  1  1  0  0  0  0
  6  5  1  0  0  0  0
  8  2  1  0  0  0  0
  9  3  1  0  0  0  0
 11  4  1  0  0  0  0
 14  5  1  0  0  0  0
 16 19  1  6  0  0  0
 16 18  1  0  0  0  0
 16 24  1  0  0  0  0
 17 16  1  0  0  0  0
 17 18  1  0  0  0  0
 17 21  1  0  0  0  0
 18 22  1  1  0  0  0
 20 17  1  0  0  0  0
 23 28  1  0  0  0  0
 24 23  2  0  0  0  0
 24 25  1  0  0  0  0
 25 30  1  0  0  0  0
 25 26  2  0  0  0  0
 27 26  1  0  0  0  0
 27 31  1  0  0  0  0
 28 27  2  0  0  0  0
 29 23  1  0  0  0  0
 32  6  1  0  0  0  0
 33 32  1  0  0  0  0
 34 35  1  0  0  0  0
 36 35  1  0  0  0  0
 37 38  1  0  0  0  0
 37 36  1  0  0  0  0
 38 39  1  0  0  0  0
 39 35  1  0  0  0  0
 39 32  1  1  0  0  0
M  END
>  <minimizedAffinity>
-5.29663849

>  <minimizedRMSD>
2.19210649

$$$$
