
 OpenBabel03252506213D

 32 34  0  0  1  0  0  0  0  0999 V2000
   45.1130   36.4720   43.3360 C   0  0  0  0  0  0  0  0  0  0  0  0
   44.1090   36.3950   42.3830 C   0  0  0  0  0  0  0  0  0  0  0  0
   44.2390   35.4280   41.3810 C   0  0  0  0  0  0  0  0  0  0  0  0
   45.3260   34.6200   41.3870 N   0  0  0  0  0  0  0  0  0  0  0  0
   46.2810   34.7310   42.3390 C   0  0  0  0  0  0  0  0  0  0  0  0
   46.1760   35.6490   43.3030 N   0  0  0  0  0  0  0  0  0  0  0  0
   43.2920   37.0760   42.4630 H   0  0  0  0  0  0  0  0  0  0  0  0
   43.4450   35.3820   40.6430 H   0  0  0  0  0  0  0  0  0  0  0  0
   48.8770   35.9740   41.3970 Cl  0  0  0  0  0  0  0  0  0  0  0  0
   48.6460   34.3200   41.8300 C   0  0  0  0  0  0  0  0  0  0  0  0
   47.4190   33.8040   42.2580 C   0  0  0  0  0  0  0  0  0  0  0  0
   47.2070   32.4890   42.6140 C   0  0  0  0  0  0  0  0  0  0  0  0
   48.3020   31.6610   42.5270 C   0  0  0  0  0  0  0  0  0  0  0  0
   49.5610   32.0490   42.1200 C   0  0  0  0  0  0  0  0  0  0  0  0
   49.6690   33.3990   41.7830 C   0  0  0  0  0  0  0  0  0  0  0  0
   46.2270   32.1600   42.9330 H   0  0  0  0  0  0  0  0  0  0  0  0
   48.1060   30.6180   42.8140 H   0  0  0  0  0  0  0  0  0  0  0  0
   50.3780   31.3660   42.0760 H   0  0  0  0  0  0  0  0  0  0  0  0
   50.6410   33.7330   41.4490 H   0  0  0  0  0  0  0  0  0  0  0  0
   45.0060   37.4810   44.4100 C   0  0  0  0  0  2  0  0  0  0  0  0
   45.4070   38.7240   44.1360 C   0  0  0  0  0  2  0  0  0  0  0  0
   45.2570   39.7000   45.2720 C   0  0  0  0  0  0  0  0  0  0  0  0
   46.3130   39.9630   45.5740 H   0  0  0  0  0  0  0  0  0  0  0  0
   44.6390   39.3340   46.0830 H   0  0  0  0  0  0  0  0  0  0  0  0
   44.7120   40.9140   44.6750 N   0  0  0  0  0  0  0  0  0  0  0  0
   44.1740   40.6240   43.8300 H   0  0  0  0  0  0  0  0  0  0  0  0
   43.9520   41.9180   47.6430 H   0  0  0  0  0  0  0  0  0  0  0  0
   44.5530   41.9290   46.7810 N   0  0  0  0  0  0  0  0  0  0  0  0
   45.0230   43.2420   46.4480 C   0  0  0  0  0  2  0  0  0  0  0  0
   44.2780   43.6990   45.2320 C   0  0  0  0  0  2  0  0  0  0  0  0
   43.1190   42.7260   45.1570 C   0  0  0  0  0  2  0  0  0  0  0  0
   43.7960   41.4640   45.6510 C   0  0  1  0  0  3  0  0  0  0  0  0
  1 20  1  0  0  0  0
  2  7  1  0  0  0  0
  2  1  2  0  0  0  0
  3  4  2  0  0  0  0
  3  2  1  0  0  0  0
  4  5  1  0  0  0  0
  5  6  2  0  0  0  0
  6  1  1  0  0  0  0
  8  3  1  0  0  0  0
  9 10  1  0  0  0  0
 10 11  1  0  0  0  0
 11  5  1  0  0  0  0
 11 12  2  0  0  0  0
 12 16  1  0  0  0  0
 13 12  1  0  0  0  0
 13 17  1  0  0  0  0
 14 13  2  0  0  0  0
 15 10  2  0  0  0  0
 15 14  1  0  0  0  0
 18 14  1  0  0  0  0
 19 15  1  0  0  0  0
 21 20  1  0  0  0  0
 21 22  1  0  0  0  0
 22 23  1  0  0  0  0
 22 24  1  0  0  0  0
 25 22  1  0  0  0  0
 26 25  1  0  0  0  0
 28 27  1  0  0  0  0
 29 28  1  0  0  0  0
 30 29  1  0  0  0  0
 31 30  1  0  0  0  0
 31 32  1  0  0  0  0
 32 25  1  6  0  0  0
 32 28  1  0  0  0  0
M  END
>  <minimizedAffinity>
-4.00746393

>  <minimizedRMSD>
0.720925331

$$$$
