
 OpenBabel03242515483D

 40 43  0  0  1  0  0  0  0  0999 V2000
   39.5270   33.2140   41.2830 C   0  0  0  0  0  0  0  0  0  0  0  0
   40.8950   32.9330   41.2250 C   0  0  0  0  0  0  0  0  0  0  0  0
   41.3380   31.6410   41.0510 C   0  0  0  0  0  0  0  0  0  0  0  0
   40.4660   30.6040   40.9320 C   0  0  0  0  0  0  0  0  0  0  0  0
   39.1180   30.8660   40.9860 C   0  0  0  0  0  0  0  0  0  0  0  0
   38.6420   32.1400   41.1570 C   0  0  0  0  0  0  0  0  0  0  0  0
   38.4500   29.6350   40.8380 O   0  0  0  0  0  0  0  0  0  0  0  0
   39.3750   28.6270   40.9270 C   0  0  1  0  0  0  0  0  0  0  0  0
   40.6360   29.2280   40.7510 O   0  0  0  0  0  0  0  0  0  0  0  0
   39.1030   34.1770   41.4130 H   0  0  0  0  0  0  0  0  0  0  0  0
   42.4030   31.5280   41.0200 H   0  0  0  0  0  0  0  0  0  0  0  0
   37.5770   32.3290   41.1980 H   0  0  0  0  0  0  0  0  0  0  0  0
   39.1760   27.8480   40.1480 H   0  0  0  0  0  0  0  0  0  0  0  0
   39.2630   27.9670   42.2090 N   0  0  0  0  0  0  0  0  0  0  0  0
   40.0840   28.2770   42.7820 H   0  0  0  0  0  0  0  0  0  0  0  0
   39.5480   25.6450   40.0700 H   0  0  0  0  0  0  0  0  0  0  0  0
   40.0650   26.3310   40.6440 N   0  0  0  0  0  0  0  0  0  0  0  0
   41.4120   25.8260   40.8890 C   0  0  0  0  0  2  0  0  0  0  0  0
   41.1460   24.9270   42.0920 C   0  0  0  0  0  2  0  0  0  0  0  0
   40.3880   25.9220   42.9730 C   0  0  0  0  0  2  0  0  0  0  0  0
   39.4690   26.5450   41.9490 C   0  0  1  0  0  3  0  0  0  0  0  0
   41.9140   34.4040   41.3970 S   0  0  0  0  0  0  0  0  0  0  0  0
   43.5750   34.0570   40.7090 C   0  0  0  0  0  0  0  0  0  0  0  0
   43.6350   33.8640   39.3680 C   0  0  0  0  0  0  0  0  0  0  0  0
   44.8980   33.5930   38.8750 C   0  0  0  0  0  0  0  0  0  0  0  0
   45.9830   33.5280   39.6640 N   0  0  0  0  0  0  0  0  0  0  0  0
   45.8750   33.7280   40.9950 C   0  0  0  0  0  0  0  0  0  0  0  0
   44.6580   33.9880   41.4790 N   0  0  0  0  0  0  0  0  0  0  0  0
   45.0790   33.3590   37.4680 N   0  0  0  0  0  0  0  0  0  0  0  0
   45.0520   34.1260   36.7610 H   0  0  0  0  0  0  0  0  0  0  0  0
   45.2330   32.3370   37.2860 H   0  0  0  0  0  0  0  0  0  0  0  0
   42.6290   33.8880   38.2590 C   0  0  0  0  0  0  0  0  0  0  0  0
   42.5670   32.8440   37.8780 H   0  0  0  0  0  0  0  0  0  0  0  0
   43.0060   34.5050   37.4090 H   0  0  0  0  0  0  0  0  0  0  0  0
   41.6480   34.2260   38.5980 H   0  0  0  0  0  0  0  0  0  0  0  0
   46.9180   33.6850   41.8990 O   0  0  0  0  0  0  0  0  0  0  0  0
   47.6140   34.9050   42.1380 C   0  0  0  0  0  0  0  0  0  0  0  0
   48.5580   34.7520   43.0970 F   0  0  0  0  0  0  0  0  0  0  0  0
   48.1540   35.3130   40.9070 F   0  0  0  0  0  0  0  0  0  0  0  0
   46.6860   35.8440   42.5950 F   0  0  0  0  0  0  0  0  0  0  0  0
  1 10  1  0  0  0  0
  2  1  1  0  0  0  0
  2 22  1  0  0  0  0
  3  2  2  0  0  0  0
  4  5  2  0  0  0  0
  4  3  1  0  0  0  0
  5  6  1  0  0  0  0
  6 12  1  0  0  0  0
  6  1  2  0  0  0  0
  7  8  1  0  0  0  0
  7  5  1  0  0  0  0
  8 13  1  6  0  0  0
  8 14  1  0  0  0  0
  9  8  1  0  0  0  0
  9  4  1  0  0  0  0
 11  3  1  0  0  0  0
 14 15  1  0  0  0  0
 16 17  1  0  0  0  0
 17 18  1  0  0  0  0
 17 21  1  0  0  0  0
 18 19  1  0  0  0  0
 19 20  1  0  0  0  0
 21 14  1  1  0  0  0
 21 20  1  0  0  0  0
 23 22  1  0  0  0  0
 23 28  1  0  0  0  0
 24 23  2  0  0  0  0
 25 24  1  0  0  0  0
 25 26  2  0  0  0  0
 26 27  1  0  0  0  0
 27 28  2  0  0  0  0
 27 36  1  0  0  0  0
 29 25  1  0  0  0  0
 30 29  1  0  0  0  0
 31 29  1  0  0  0  0
 32 35  1  0  0  0  0
 32 24  1  0  0  0  0
 33 32  1  0  0  0  0
 34 32  1  0  0  0  0
 36 37  1  0  0  0  0
 37 40  1  0  0  0  0
 37 38  1  0  0  0  0
 39 37  1  0  0  0  0
M  END
>  <minimizedAffinity>
-4.67744541

>  <minimizedRMSD>
2.16566849

$$$$
