
 OpenBabel03252506463D

 39 42  0  0  1  0  0  0  0  0999 V2000
   49.5450   33.4790   41.3680 N   0  0  1  0  0  0  0  0  0  0  0  0
   50.7050   33.0410   42.1450 C   0  0  0  0  0  0  0  0  0  0  0  0
   51.2600   31.7250   41.6840 C   0  0  0  0  0  0  0  0  0  0  0  0
   50.2370   30.6340   42.0040 C   0  0  0  0  0  0  0  0  0  0  0  0
   48.8390   31.1460   41.7850 C   0  0  0  0  0  0  0  0  0  0  0  0
   48.8840   32.3270   40.8530 C   0  0  2  0  0  0  0  0  0  0  0  0
   50.3720   32.9090   43.2080 H   0  0  0  0  0  0  0  0  0  0  0  0
   51.4930   33.7970   42.1390 H   0  0  0  0  0  0  0  0  0  0  0  0
   51.5080   31.7480   40.6050 H   0  0  0  0  0  0  0  0  0  0  0  0
   52.1970   31.5600   42.2200 H   0  0  0  0  0  0  0  0  0  0  0  0
   50.4530   29.7860   41.3270 H   0  0  0  0  0  0  0  0  0  0  0  0
   50.3730   30.3020   43.0480 H   0  0  0  0  0  0  0  0  0  0  0  0
   48.4800   31.5310   42.7670 H   0  0  0  0  0  0  0  0  0  0  0  0
   48.1140   30.4160   41.4500 H   0  0  0  0  0  0  0  0  0  0  0  0
   47.8090   32.6310   40.6940 H   0  0  0  0  0  0  0  0  0  0  0  0
   47.3510   34.6830   41.9630 C   0  0  1  0  0  0  0  0  0  0  0  0
   48.4460   35.6630   41.7500 C   0  0  0  0  0  0  0  0  0  0  0  0
   48.7620   34.3000   42.2150 C   0  0  2  0  0  0  0  0  0  0  0  0
   46.8190   34.4130   41.0140 H   0  0  0  0  0  0  0  0  0  0  0  0
   48.7670   35.9690   40.7300 H   0  0  0  0  0  0  0  0  0  0  0  0
   48.5260   36.4880   42.5060 H   0  0  0  0  0  0  0  0  0  0  0  0
   48.9930   34.1670   43.3090 H   0  0  0  0  0  0  0  0  0  0  0  0
   45.4990   35.9270   43.0860 C   0  0  0  0  0  0  0  0  0  0  0  0
   46.4270   34.8800   43.0830 C   0  0  0  0  0  0  0  0  0  0  0  0
   46.4300   33.9980   44.1890 C   0  0  0  0  0  0  0  0  0  0  0  0
   45.5420   34.2160   45.1830 N   0  0  0  0  0  0  0  0  0  0  0  0
   44.6550   35.2320   45.1650 C   0  0  0  0  0  0  0  0  0  0  0  0
   44.6260   36.0940   44.1190 N   0  0  0  0  0  0  0  0  0  0  0  0
   45.5030   36.5970   42.2360 H   0  0  0  0  0  0  0  0  0  0  0  0
   47.1370   33.1880   44.2040 H   0  0  0  0  0  0  0  0  0  0  0  0
   43.9410   35.4060   45.9640 H   0  0  0  0  0  0  0  0  0  0  0  0
   49.3760   31.9220   39.5620 N   0  0  0  0  0  0  0  0  0  0  0  0
   50.3230   32.3890   39.4660 H   0  0  0  0  0  0  0  0  0  0  0  0
   46.8510   33.4200   38.3670 H   0  0  0  0  0  0  0  0  0  0  0  0
   47.8650   33.5600   38.6270 N   0  0  0  0  0  0  0  0  0  0  0  0
   48.3880   34.4610   37.6240 C   0  0  0  0  0  2  0  0  0  0  0  0
   48.6000   33.5150   36.4610 C   0  0  0  0  0  2  0  0  0  0  0  0
   49.2970   32.3590   37.1470 C   0  0  0  0  0  2  0  0  0  0  0  0
   48.5490   32.3040   38.4700 C   0  0  1  0  0  3  0  0  0  0  0  0
  1  2  1  1  0  0  0
  1 18  1  0  0  0  0
  2  7  1  0  0  0  0
  3  4  1  0  0  0  0
  3  2  1  0  0  0  0
  3 10  1  0  0  0  0
  4 12  1  0  0  0  0
  5  4  1  0  0  0  0
  5 13  1  0  0  0  0
  6 15  1  6  0  0  0
  6  1  1  0  0  0  0
  6  5  1  0  0  0  0
  8  2  1  0  0  0  0
  9  3  1  0  0  0  0
 11  4  1  0  0  0  0
 14  5  1  0  0  0  0
 16 19  1  6  0  0  0
 16 18  1  0  0  0  0
 16 24  1  0  0  0  0
 17 16  1  0  0  0  0
 17 18  1  0  0  0  0
 17 21  1  0  0  0  0
 18 22  1  1  0  0  0
 20 17  1  0  0  0  0
 23 28  1  0  0  0  0
 24 23  2  0  0  0  0
 24 25  1  0  0  0  0
 25 30  1  0  0  0  0
 25 26  2  0  0  0  0
 27 26  1  0  0  0  0
 27 31  1  0  0  0  0
 28 27  2  0  0  0  0
 29 23  1  0  0  0  0
 32  6  1  0  0  0  0
 33 32  1  0  0  0  0
 34 35  1  0  0  0  0
 36 35  1  0  0  0  0
 37 38  1  0  0  0  0
 37 36  1  0  0  0  0
 38 39  1  0  0  0  0
 39 35  1  0  0  0  0
 39 32  1  1  0  0  0
M  END
>  <minimizedAffinity>
-5.29877996

>  <minimizedRMSD>
2.37548161

$$$$
