
 OpenBabel03252506463D

 39 42  0  0  1  0  0  0  0  0999 V2000
   49.6150   33.6020   41.3610 N   0  0  1  0  0  0  0  0  0  0  0  0
   50.6440   32.9530   42.1740 C   0  0  0  0  0  0  0  0  0  0  0  0
   51.1300   31.6610   41.5860 C   0  0  0  0  0  0  0  0  0  0  0  0
   49.9890   30.6440   41.6520 C   0  0  0  0  0  0  0  0  0  0  0  0
   48.6720   31.3170   41.3770 C   0  0  0  0  0  0  0  0  0  0  0  0
   48.9160   32.5990   40.6280 C   0  0  2  0  0  0  0  0  0  0  0  0
   50.1890   32.7170   43.1710 H   0  0  0  0  0  0  0  0  0  0  0  0
   51.4890   33.6220   42.3480 H   0  0  0  0  0  0  0  0  0  0  0  0
   51.4930   31.8000   40.5490 H   0  0  0  0  0  0  0  0  0  0  0  0
   51.9870   31.3360   42.1790 H   0  0  0  0  0  0  0  0  0  0  0  0
   50.2030   29.8760   40.8860 H   0  0  0  0  0  0  0  0  0  0  0  0
   49.9850   30.1660   42.6470 H   0  0  0  0  0  0  0  0  0  0  0  0
   48.2440   31.6020   42.3660 H   0  0  0  0  0  0  0  0  0  0  0  0
   47.9270   30.7120   40.8770 H   0  0  0  0  0  0  0  0  0  0  0  0
   47.8940   33.0270   40.4140 H   0  0  0  0  0  0  0  0  0  0  0  0
   47.4120   34.7780   41.9820 C   0  0  1  0  0  0  0  0  0  0  0  0
   48.5120   35.7660   41.8410 C   0  0  0  0  0  0  0  0  0  0  0  0
   48.8190   34.3790   42.2370 C   0  0  2  0  0  0  0  0  0  0  0  0
   46.8960   34.5610   41.0110 H   0  0  0  0  0  0  0  0  0  0  0  0
   48.8510   36.1250   40.8440 H   0  0  0  0  0  0  0  0  0  0  0  0
   48.5810   36.5480   42.6420 H   0  0  0  0  0  0  0  0  0  0  0  0
   49.0310   34.1870   43.3250 H   0  0  0  0  0  0  0  0  0  0  0  0
   45.5250   35.9480   43.1250 C   0  0  0  0  0  0  0  0  0  0  0  0
   46.4700   34.9170   43.0950 C   0  0  0  0  0  0  0  0  0  0  0  0
   46.4730   33.9940   44.1670 C   0  0  0  0  0  0  0  0  0  0  0  0
   45.5680   34.1580   45.1560 N   0  0  0  0  0  0  0  0  0  0  0  0
   44.6640   35.1600   45.1640 C   0  0  0  0  0  0  0  0  0  0  0  0
   44.6350   36.0610   44.1520 N   0  0  0  0  0  0  0  0  0  0  0  0
   45.5300   36.6510   42.3020 H   0  0  0  0  0  0  0  0  0  0  0  0
   47.1930   33.1950   44.1610 H   0  0  0  0  0  0  0  0  0  0  0  0
   43.9370   35.2920   45.9590 H   0  0  0  0  0  0  0  0  0  0  0  0
   49.5070   32.3210   39.3460 N   0  0  0  0  0  0  0  0  0  0  0  0
   50.5320   32.5690   39.4510 H   0  0  0  0  0  0  0  0  0  0  0  0
   49.3630   33.0940   36.2750 H   0  0  0  0  0  0  0  0  0  0  0  0
   48.9910   32.4070   36.9870 N   0  0  0  0  0  0  0  0  0  0  0  0
   47.6230   32.1590   36.5870 C   0  0  0  0  0  2  0  0  0  0  0  0
   46.9340   33.3990   37.1160 C   0  0  0  0  0  2  0  0  0  0  0  0
   47.5100   33.4820   38.5140 C   0  0  0  0  0  2  0  0  0  0  0  0
   48.9500   33.0620   38.2670 C   0  0  1  0  0  3  0  0  0  0  0  0
  1  2  1  1  0  0  0
  1 18  1  0  0  0  0
  2  8  1  0  0  0  0
  2  7  1  0  0  0  0
  3  4  1  0  0  0  0
  3  2  1  0  0  0  0
  3 10  1  0  0  0  0
  4 12  1  0  0  0  0
  5  4  1  0  0  0  0
  5 13  1  0  0  0  0
  6 15  1  6  0  0  0
  6  1  1  0  0  0  0
  6  5  1  0  0  0  0
  9  3  1  0  0  0  0
 11  4  1  0  0  0  0
 14  5  1  0  0  0  0
 16 19  1  6  0  0  0
 16 18  1  0  0  0  0
 16 24  1  0  0  0  0
 17 16  1  0  0  0  0
 17 18  1  0  0  0  0
 17 21  1  0  0  0  0
 18 22  1  1  0  0  0
 20 17  1  0  0  0  0
 23 28  1  0  0  0  0
 24 23  2  0  0  0  0
 24 25  1  0  0  0  0
 25 26  2  0  0  0  0
 26 27  1  0  0  0  0
 27 31  1  0  0  0  0
 28 27  2  0  0  0  0
 29 23  1  0  0  0  0
 30 25  1  0  0  0  0
 32 33  1  0  0  0  0
 32  6  1  0  0  0  0
 34 35  1  0  0  0  0
 35 39  1  0  0  0  0
 36 35  1  0  0  0  0
 36 37  1  0  0  0  0
 37 38  1  0  0  0  0
 39 38  1  0  0  0  0
 39 32  1  1  0  0  0
M  END
>  <minimizedAffinity>
-5.0281992

>  <minimizedRMSD>
2.5410037

$$$$
