
 OpenBabel03252506223D

 32 34  0  0  1  0  0  0  0  0999 V2000
   45.1120   36.5580   43.3020 C   0  0  0  0  0  0  0  0  0  0  0  0
   44.0710   36.5160   42.3860 C   0  0  0  0  0  0  0  0  0  0  0  0
   44.1240   35.5350   41.3900 C   0  0  0  0  0  0  0  0  0  0  0  0
   45.1750   34.6820   41.3650 N   0  0  0  0  0  0  0  0  0  0  0  0
   46.1680   34.7600   42.2800 C   0  0  0  0  0  0  0  0  0  0  0  0
   46.1370   35.6900   43.2390 N   0  0  0  0  0  0  0  0  0  0  0  0
   43.2870   37.2310   42.4890 H   0  0  0  0  0  0  0  0  0  0  0  0
   43.3020   35.5170   40.6820 H   0  0  0  0  0  0  0  0  0  0  0  0
   48.7790   35.8840   41.2350 Cl  0  0  0  0  0  0  0  0  0  0  0  0
   48.4930   34.2450   41.6920 C   0  0  0  0  0  0  0  0  0  0  0  0
   47.2630   33.7850   42.1680 C   0  0  0  0  0  0  0  0  0  0  0  0
   47.0080   32.4830   42.5430 C   0  0  0  0  0  0  0  0  0  0  0  0
   48.0620   31.6090   42.4250 C   0  0  0  0  0  0  0  0  0  0  0  0
   49.3220   31.9390   41.9700 C   0  0  0  0  0  0  0  0  0  0  0  0
   49.4740   33.2800   41.6170 C   0  0  0  0  0  0  0  0  0  0  0  0
   46.0260   32.1990   42.9000 H   0  0  0  0  0  0  0  0  0  0  0  0
   47.8330   30.5770   42.7290 H   0  0  0  0  0  0  0  0  0  0  0  0
   50.1070   31.2220   41.9040 H   0  0  0  0  0  0  0  0  0  0  0  0
   50.4470   33.5700   41.2460 H   0  0  0  0  0  0  0  0  0  0  0  0
   45.0860   37.5790   44.3680 C   0  0  0  0  0  0  0  0  0  0  0  0
   45.3730   38.8380   44.0300 C   0  0  0  0  0  0  0  0  0  0  0  0
   45.3160   39.8250   45.1640 C   0  0  0  0  0  0  0  0  0  0  0  0
   46.3670   40.2260   45.2570 H   0  0  0  0  0  0  0  0  0  0  0  0
   44.9130   39.4140   46.0820 H   0  0  0  0  0  0  0  0  0  0  0  0
   44.5180   40.9420   44.6710 N   0  0  0  0  0  0  0  0  0  0  0  0
   43.7270   40.5350   44.1270 H   0  0  0  0  0  0  0  0  0  0  0  0
   44.8220   42.8030   47.2860 H   0  0  0  0  0  0  0  0  0  0  0  0
   44.9290   42.6160   46.2570 N   0  0  0  0  0  0  0  0  0  0  0  0
   44.6680   43.7740   45.4530 C   0  0  0  0  0  0  0  0  0  0  0  0
   43.3540   43.5680   44.7660 C   0  0  0  0  0  0  0  0  0  0  0  0
   42.7460   42.4140   45.5360 C   0  0  0  0  0  0  0  0  0  0  0  0
   43.9920   41.6080   45.8430 C   0  0  1  0  0  0  0  0  0  0  0  0
  1 20  1  0  0  0  0
  2  7  1  0  0  0  0
  2  1  2  0  0  0  0
  3  2  1  0  0  0  0
  4  3  2  0  0  0  0
  4  5  1  0  0  0  0
  5  6  2  0  0  0  0
  6  1  1  0  0  0  0
  8  3  1  0  0  0  0
  9 10  1  0  0  0  0
 10 11  1  0  0  0  0
 11  5  1  0  0  0  0
 11 12  2  0  0  0  0
 12 16  1  0  0  0  0
 13 12  1  0  0  0  0
 13 17  1  0  0  0  0
 14 13  2  0  0  0  0
 15 10  2  0  0  0  0
 15 14  1  0  0  0  0
 18 14  1  0  0  0  0
 19 15  1  0  0  0  0
 21 20  1  0  0  0  0
 21 22  1  0  0  0  0
 22 23  1  0  0  0  0
 22 24  1  0  0  0  0
 25 22  1  0  0  0  0
 26 25  1  0  0  0  0
 28 27  1  0  0  0  0
 29 28  1  0  0  0  0
 30 29  1  0  0  0  0
 30 31  1  0  0  0  0
 31 32  1  0  0  0  0
 32 25  1  6  0  0  0
 32 28  1  0  0  0  0
M  END
>  <minimizedAffinity>
-4.223773

>  <minimizedRMSD>
0.697259784

$$$$
