
 OpenBabel03252506213D

 32 34  0  0  1  0  0  0  0  0999 V2000
   45.1120   36.5580   43.3030 C   0  0  0  0  0  0  0  0  0  0  0  0
   44.0720   36.5160   42.3860 C   0  0  0  0  0  0  0  0  0  0  0  0
   44.1240   35.5360   41.3900 C   0  0  0  0  0  0  0  0  0  0  0  0
   45.1760   34.6820   41.3660 N   0  0  0  0  0  0  0  0  0  0  0  0
   46.1680   34.7600   42.2810 C   0  0  0  0  0  0  0  0  0  0  0  0
   46.1370   35.6900   43.2400 N   0  0  0  0  0  0  0  0  0  0  0  0
   43.2880   37.2320   42.4890 H   0  0  0  0  0  0  0  0  0  0  0  0
   43.3030   35.5180   40.6810 H   0  0  0  0  0  0  0  0  0  0  0  0
   48.7780   35.8810   41.2300 Cl  0  0  0  0  0  0  0  0  0  0  0  0
   48.4930   34.2430   41.6910 C   0  0  0  0  0  0  0  0  0  0  0  0
   47.2620   33.7850   42.1690 C   0  0  0  0  0  0  0  0  0  0  0  0
   47.0080   32.4830   42.5480 C   0  0  0  0  0  0  0  0  0  0  0  0
   48.0620   31.6090   42.4300 C   0  0  0  0  0  0  0  0  0  0  0  0
   49.3210   31.9380   41.9720 C   0  0  0  0  0  0  0  0  0  0  0  0
   49.4730   33.2780   41.6170 C   0  0  0  0  0  0  0  0  0  0  0  0
   46.0270   32.2000   42.9070 H   0  0  0  0  0  0  0  0  0  0  0  0
   47.8340   30.5780   42.7360 H   0  0  0  0  0  0  0  0  0  0  0  0
   50.1060   31.2210   41.9070 H   0  0  0  0  0  0  0  0  0  0  0  0
   50.4460   33.5670   41.2430 H   0  0  0  0  0  0  0  0  0  0  0  0
   45.0860   37.5790   44.3690 C   0  0  0  0  0  2  0  0  0  0  0  0
   45.3720   38.8380   44.0300 C   0  0  0  0  0  2  0  0  0  0  0  0
   45.3150   39.8250   45.1650 C   0  0  0  0  0  0  0  0  0  0  0  0
   46.3660   40.2260   45.2580 H   0  0  0  0  0  0  0  0  0  0  0  0
   44.9110   39.4140   46.0820 H   0  0  0  0  0  0  0  0  0  0  0  0
   44.5180   40.9420   44.6710 N   0  0  0  0  0  0  0  0  0  0  0  0
   43.7270   40.5360   44.1280 H   0  0  0  0  0  0  0  0  0  0  0  0
   44.8230   42.8040   47.2850 H   0  0  0  0  0  0  0  0  0  0  0  0
   44.9290   42.6170   46.2570 N   0  0  0  0  0  0  0  0  0  0  0  0
   44.6680   43.7750   45.4520 C   0  0  0  0  0  2  0  0  0  0  0  0
   43.3540   43.5680   44.7650 C   0  0  0  0  0  2  0  0  0  0  0  0
   42.7460   42.4130   45.5360 C   0  0  0  0  0  2  0  0  0  0  0  0
   43.9920   41.6090   45.8430 C   0  0  1  0  0  3  0  0  0  0  0  0
  1 20  1  0  0  0  0
  2  7  1  0  0  0  0
  2  1  2  0  0  0  0
  3  2  1  0  0  0  0
  4  3  2  0  0  0  0
  4  5  1  0  0  0  0
  5  6  2  0  0  0  0
  6  1  1  0  0  0  0
  8  3  1  0  0  0  0
  9 10  1  0  0  0  0
 10 11  1  0  0  0  0
 11  5  1  0  0  0  0
 11 12  2  0  0  0  0
 12 16  1  0  0  0  0
 13 12  1  0  0  0  0
 13 17  1  0  0  0  0
 14 13  2  0  0  0  0
 15 10  2  0  0  0  0
 15 14  1  0  0  0  0
 18 14  1  0  0  0  0
 19 15  1  0  0  0  0
 21 20  1  0  0  0  0
 21 22  1  0  0  0  0
 22 23  1  0  0  0  0
 22 24  1  0  0  0  0
 25 22  1  0  0  0  0
 26 25  1  0  0  0  0
 28 27  1  0  0  0  0
 29 28  1  0  0  0  0
 30 29  1  0  0  0  0
 30 31  1  0  0  0  0
 31 32  1  0  0  0  0
 32 25  1  6  0  0  0
 32 28  1  0  0  0  0
M  END
>  <minimizedAffinity>
-4.22172213

>  <minimizedRMSD>
0.754472792

$$$$
