
 OpenBabel03252506473D

 39 42  0  0  1  0  0  0  0  0999 V2000
   49.6370   33.6350   41.4500 N   0  0  1  0  0  0  0  0  0  0  0  0
   50.7700   33.1840   42.2600 C   0  0  0  0  0  0  0  0  0  0  0  0
   51.3530   31.8850   41.7840 C   0  0  0  0  0  0  0  0  0  0  0  0
   50.3270   30.7780   42.0340 C   0  0  0  0  0  0  0  0  0  0  0  0
   48.9350   31.2860   41.7730 C   0  0  0  0  0  0  0  0  0  0  0  0
   49.0070   32.4930   40.8770 C   0  0  2  0  0  0  0  0  0  0  0  0
   50.3960   33.0190   43.3040 H   0  0  0  0  0  0  0  0  0  0  0  0
   51.5510   33.9450   42.3060 H   0  0  0  0  0  0  0  0  0  0  0  0
   51.6430   31.9400   40.7170 H   0  0  0  0  0  0  0  0  0  0  0  0
   52.2700   31.7130   42.3520 H   0  0  0  0  0  0  0  0  0  0  0  0
   50.5770   29.9520   41.3420 H   0  0  0  0  0  0  0  0  0  0  0  0
   50.4250   30.4180   43.0720 H   0  0  0  0  0  0  0  0  0  0  0  0
   48.5340   31.6400   42.7510 H   0  0  0  0  0  0  0  0  0  0  0  0
   48.2300   30.5600   41.3900 H   0  0  0  0  0  0  0  0  0  0  0  0
   47.9360   32.7940   40.6850 H   0  0  0  0  0  0  0  0  0  0  0  0
   47.3960   34.7660   42.0140 C   0  0  1  0  0  0  0  0  0  0  0  0
   48.4640   35.7820   41.8250 C   0  0  0  0  0  0  0  0  0  0  0  0
   48.8150   34.4260   42.2870 C   0  0  2  0  0  0  0  0  0  0  0  0
   46.8900   34.4850   41.0540 H   0  0  0  0  0  0  0  0  0  0  0  0
   48.7920   36.1030   40.8120 H   0  0  0  0  0  0  0  0  0  0  0  0
   48.5050   36.6040   42.5870 H   0  0  0  0  0  0  0  0  0  0  0  0
   49.0310   34.2940   43.3840 H   0  0  0  0  0  0  0  0  0  0  0  0
   45.5060   35.9630   43.1250 C   0  0  0  0  0  0  0  0  0  0  0  0
   46.4480   34.9280   43.1180 C   0  0  0  0  0  0  0  0  0  0  0  0
   46.4410   34.0230   44.2060 C   0  0  0  0  0  0  0  0  0  0  0  0
   45.5300   34.2070   45.1860 N   0  0  0  0  0  0  0  0  0  0  0  0
   44.6300   35.2120   45.1710 C   0  0  0  0  0  0  0  0  0  0  0  0
   44.6110   36.0970   44.1440 N   0  0  0  0  0  0  0  0  0  0  0  0
   45.5200   36.6510   42.2900 H   0  0  0  0  0  0  0  0  0  0  0  0
   47.1570   33.2210   44.2180 H   0  0  0  0  0  0  0  0  0  0  0  0
   43.8990   35.3610   45.9590 H   0  0  0  0  0  0  0  0  0  0  0  0
   49.5520   32.1280   39.5960 N   0  0  0  0  0  0  0  0  0  0  0  0
   50.4400   32.7000   39.4990 H   0  0  0  0  0  0  0  0  0  0  0  0
   46.9310   33.3970   38.3450 H   0  0  0  0  0  0  0  0  0  0  0  0
   47.9360   33.6150   38.5860 N   0  0  0  0  0  0  0  0  0  0  0  0
   48.3960   34.4870   37.5280 C   0  0  0  0  0  2  0  0  0  0  0  0
   48.6570   33.4920   36.4190 C   0  0  0  0  0  2  0  0  0  0  0  0
   49.4310   32.4220   37.1620 C   0  0  0  0  0  2  0  0  0  0  0  0
   48.6960   32.3950   38.4930 C   0  0  1  0  0  3  0  0  0  0  0  0
  1  2  1  1  0  0  0
  1 18  1  0  0  0  0
  2  8  1  0  0  0  0
  2  7  1  0  0  0  0
  3  4  1  0  0  0  0
  3  2  1  0  0  0  0
  3 10  1  0  0  0  0
  4 12  1  0  0  0  0
  5  4  1  0  0  0  0
  5 13  1  0  0  0  0
  6 15  1  6  0  0  0
  6  1  1  0  0  0  0
  6  5  1  0  0  0  0
  9  3  1  0  0  0  0
 11  4  1  0  0  0  0
 14  5  1  0  0  0  0
 16 19  1  6  0  0  0
 16 18  1  0  0  0  0
 16 24  1  0  0  0  0
 17 16  1  0  0  0  0
 17 18  1  0  0  0  0
 17 21  1  0  0  0  0
 18 22  1  1  0  0  0
 20 17  1  0  0  0  0
 23 28  1  0  0  0  0
 24 23  2  0  0  0  0
 24 25  1  0  0  0  0
 25 30  1  0  0  0  0
 25 26  2  0  0  0  0
 27 26  1  0  0  0  0
 27 31  1  0  0  0  0
 28 27  2  0  0  0  0
 29 23  1  0  0  0  0
 32  6  1  0  0  0  0
 33 32  1  0  0  0  0
 34 35  1  0  0  0  0
 36 35  1  0  0  0  0
 37 38  1  0  0  0  0
 37 36  1  0  0  0  0
 38 39  1  0  0  0  0
 39 35  1  0  0  0  0
 39 32  1  1  0  0  0
M  END
>  <minimizedAffinity>
-5.33573103

>  <minimizedRMSD>
2.13364339

$$$$
