
 OpenBabel03252506213D

 32 34  0  0  1  0  0  0  0  0999 V2000
   45.1060   36.2900   43.1880 C   0  0  0  0  0  0  0  0  0  0  0  0
   44.0880   36.1890   42.2520 C   0  0  0  0  0  0  0  0  0  0  0  0
   44.2060   35.2010   41.2690 C   0  0  0  0  0  0  0  0  0  0  0  0
   45.2960   34.3960   41.2760 N   0  0  0  0  0  0  0  0  0  0  0  0
   46.2640   34.5310   42.2100 C   0  0  0  0  0  0  0  0  0  0  0  0
   46.1710   35.4690   43.1560 N   0  0  0  0  0  0  0  0  0  0  0  0
   43.2690   36.8680   42.3290 H   0  0  0  0  0  0  0  0  0  0  0  0
   43.4000   35.1360   40.5440 H   0  0  0  0  0  0  0  0  0  0  0  0
   48.8120   35.7330   41.0970 Cl  0  0  0  0  0  0  0  0  0  0  0  0
   48.6090   34.1030   41.6280 C   0  0  0  0  0  0  0  0  0  0  0  0
   47.4050   33.6060   42.1330 C   0  0  0  0  0  0  0  0  0  0  0  0
   47.2160   32.3110   42.5660 C   0  0  0  0  0  0  0  0  0  0  0  0
   48.3110   31.4850   42.4790 C   0  0  0  0  0  0  0  0  0  0  0  0
   49.5500   31.8550   42.0000 C   0  0  0  0  0  0  0  0  0  0  0  0
   49.6350   33.1850   41.5880 C   0  0  0  0  0  0  0  0  0  0  0  0
   46.2510   31.9950   42.9420 H   0  0  0  0  0  0  0  0  0  0  0  0
   48.1340   30.4570   42.8290 H   0  0  0  0  0  0  0  0  0  0  0  0
   50.3690   31.1750   41.9600 H   0  0  0  0  0  0  0  0  0  0  0  0
   50.5910   33.5050   41.1970 H   0  0  0  0  0  0  0  0  0  0  0  0
   45.0110   37.3210   44.2400 C   0  0  0  0  0  2  0  0  0  0  0  0
   45.4220   38.5550   43.9390 C   0  0  0  0  0  2  0  0  0  0  0  0
   45.2860   39.5550   45.0560 C   0  0  0  0  0  0  0  0  0  0  0  0
   46.3180   39.9930   45.1860 H   0  0  0  0  0  0  0  0  0  0  0  0
   44.8580   39.1430   45.9620 H   0  0  0  0  0  0  0  0  0  0  0  0
   44.4720   40.6370   44.5130 N   0  0  0  0  0  0  0  0  0  0  0  0
   43.4780   40.4110   44.7310 H   0  0  0  0  0  0  0  0  0  0  0  0
   45.0040   43.8090   44.7340 H   0  0  0  0  0  0  0  0  0  0  0  0
   44.4020   42.9790   44.5050 N   0  0  0  0  0  0  0  0  0  0  0  0
   43.0260   43.1770   44.8580 C   0  0  0  0  0  2  0  0  0  0  0  0
   42.7350   42.3290   46.0570 C   0  0  0  0  0  2  0  0  0  0  0  0
   44.1180   41.9620   46.5570 C   0  0  0  0  0  2  0  0  0  0  0  0
   44.8550   41.8290   45.2390 C   0  0  1  0  0  3  0  0  0  0  0  0
  1 20  1  0  0  0  0
  2  7  1  0  0  0  0
  2  1  2  0  0  0  0
  3  4  2  0  0  0  0
  3  2  1  0  0  0  0
  4  5  1  0  0  0  0
  5  6  2  0  0  0  0
  6  1  1  0  0  0  0
  8  3  1  0  0  0  0
  9 10  1  0  0  0  0
 10 11  1  0  0  0  0
 11  5  1  0  0  0  0
 11 12  2  0  0  0  0
 12 16  1  0  0  0  0
 13 12  1  0  0  0  0
 13 17  1  0  0  0  0
 14 13  2  0  0  0  0
 15 10  2  0  0  0  0
 15 14  1  0  0  0  0
 18 14  1  0  0  0  0
 19 15  1  0  0  0  0
 21 20  1  0  0  0  0
 21 22  1  0  0  0  0
 22 23  1  0  0  0  0
 22 24  1  0  0  0  0
 25 26  1  0  0  0  0
 25 22  1  0  0  0  0
 28 27  1  0  0  0  0
 28 29  1  0  0  0  0
 28 32  1  0  0  0  0
 29 30  1  0  0  0  0
 30 31  1  0  0  0  0
 32 25  1  6  0  0  0
 32 31  1  0  0  0  0
M  END
>  <minimizedAffinity>
-4.18350267

>  <minimizedRMSD>
0.713794112

$$$$
