
 OpenBabel03252506473D

 39 42  0  0  1  0  0  0  0  0999 V2000
   49.7020   33.5730   41.4080 N   0  0  1  0  0  0  0  0  0  0  0  0
   50.6040   32.8330   42.2910 C   0  0  0  0  0  0  0  0  0  0  0  0
   51.0650   31.5310   41.7040 C   0  0  0  0  0  0  0  0  0  0  0  0
   49.8630   30.5890   41.6230 C   0  0  0  0  0  0  0  0  0  0  0  0
   48.6230   31.3540   41.2470 C   0  0  0  0  0  0  0  0  0  0  0  0
   49.0180   32.6410   40.5750 C   0  0  2  0  0  0  0  0  0  0  0  0
   50.0400   32.5950   43.2300 H   0  0  0  0  0  0  0  0  0  0  0  0
   51.4680   33.4400   42.5710 H   0  0  0  0  0  0  0  0  0  0  0  0
   51.5360   31.6790   40.7130 H   0  0  0  0  0  0  0  0  0  0  0  0
   51.8380   31.1320   42.3650 H   0  0  0  0  0  0  0  0  0  0  0  0
   50.1030   29.8330   40.8520 H   0  0  0  0  0  0  0  0  0  0  0  0
   49.7310   30.0810   42.5940 H   0  0  0  0  0  0  0  0  0  0  0  0
   48.1180   31.6360   42.2000 H   0  0  0  0  0  0  0  0  0  0  0  0
   47.8940   30.8150   40.6550 H   0  0  0  0  0  0  0  0  0  0  0  0
   48.0510   33.1410   40.2790 H   0  0  0  0  0  0  0  0  0  0  0  0
   47.4550   34.7030   41.9480 C   0  0  1  0  0  0  0  0  0  0  0  0
   48.5190   35.7200   41.7510 C   0  0  0  0  0  0  0  0  0  0  0  0
   48.8730   34.3720   42.2320 C   0  0  2  0  0  0  0  0  0  0  0  0
   46.9530   34.4080   40.9900 H   0  0  0  0  0  0  0  0  0  0  0  0
   48.8500   36.0300   40.7360 H   0  0  0  0  0  0  0  0  0  0  0  0
   48.5550   36.5520   42.5030 H   0  0  0  0  0  0  0  0  0  0  0  0
   49.0850   34.2540   43.3310 H   0  0  0  0  0  0  0  0  0  0  0  0
   45.5640   35.9140   43.0430 C   0  0  0  0  0  0  0  0  0  0  0  0
   46.5020   34.8750   43.0470 C   0  0  0  0  0  0  0  0  0  0  0  0
   46.4850   33.9770   44.1400 C   0  0  0  0  0  0  0  0  0  0  0  0
   45.5700   34.1710   45.1140 N   0  0  0  0  0  0  0  0  0  0  0  0
   44.6740   35.1790   45.0890 C   0  0  0  0  0  0  0  0  0  0  0  0
   44.6640   36.0570   44.0570 N   0  0  0  0  0  0  0  0  0  0  0  0
   45.5840   36.5970   42.2040 H   0  0  0  0  0  0  0  0  0  0  0  0
   47.1990   33.1730   44.1600 H   0  0  0  0  0  0  0  0  0  0  0  0
   43.9400   35.3350   45.8730 H   0  0  0  0  0  0  0  0  0  0  0  0
   49.7140   32.3650   39.3450 N   0  0  0  0  0  0  0  0  0  0  0  0
   50.5880   32.9630   39.3790 H   0  0  0  0  0  0  0  0  0  0  0  0
   48.4440   31.5540   36.5560 H   0  0  0  0  0  0  0  0  0  0  0  0
   48.2480   31.5750   37.5940 N   0  0  0  0  0  0  0  0  0  0  0  0
   46.8400   31.8920   37.7020 C   0  0  0  0  0  2  0  0  0  0  0  0
   46.8550   33.3860   37.4630 C   0  0  0  0  0  2  0  0  0  0  0  0
   47.9920   33.8170   38.3660 C   0  0  0  0  0  2  0  0  0  0  0  0
   48.9770   32.6750   38.1690 C   0  0  1  0  0  3  0  0  0  0  0  0
  1 18  1  0  0  0  0
  1  2  1  1  0  0  0
  2  8  1  0  0  0  0
  2  7  1  0  0  0  0
  3  2  1  0  0  0  0
  3 10  1  0  0  0  0
  4  3  1  0  0  0  0
  4 12  1  0  0  0  0
  5  4  1  0  0  0  0
  5 13  1  0  0  0  0
  6 15  1  6  0  0  0
  6  5  1  0  0  0  0
  6  1  1  0  0  0  0
  9  3  1  0  0  0  0
 11  4  1  0  0  0  0
 14  5  1  0  0  0  0
 16 19  1  6  0  0  0
 16 18  1  0  0  0  0
 16 24  1  0  0  0  0
 17 16  1  0  0  0  0
 17 18  1  0  0  0  0
 17 21  1  0  0  0  0
 18 22  1  1  0  0  0
 20 17  1  0  0  0  0
 23 24  2  0  0  0  0
 23 28  1  0  0  0  0
 24 25  1  0  0  0  0
 25 30  1  0  0  0  0
 25 26  2  0  0  0  0
 27 26  1  0  0  0  0
 27 31  1  0  0  0  0
 28 27  2  0  0  0  0
 29 23  1  0  0  0  0
 32 33  1  0  0  0  0
 32  6  1  0  0  0  0
 34 35  1  0  0  0  0
 35 36  1  0  0  0  0
 35 39  1  0  0  0  0
 37 36  1  0  0  0  0
 37 38  1  0  0  0  0
 39 38  1  0  0  0  0
 39 32  1  1  0  0  0
M  END
>  <minimizedAffinity>
-5.09424305

>  <minimizedRMSD>
2.41774321

$$$$
