
 OpenBabel03252506223D

 32 34  0  0  1  0  0  0  0  0999 V2000
   45.1130   36.4720   43.3360 C   0  0  0  0  0  0  0  0  0  0  0  0
   44.1090   36.3960   42.3820 C   0  0  0  0  0  0  0  0  0  0  0  0
   44.2400   35.4290   41.3800 C   0  0  0  0  0  0  0  0  0  0  0  0
   45.3260   34.6200   41.3870 N   0  0  0  0  0  0  0  0  0  0  0  0
   46.2800   34.7300   42.3390 C   0  0  0  0  0  0  0  0  0  0  0  0
   46.1750   35.6480   43.3040 N   0  0  0  0  0  0  0  0  0  0  0  0
   43.2930   37.0770   42.4620 H   0  0  0  0  0  0  0  0  0  0  0  0
   43.4460   35.3830   40.6410 H   0  0  0  0  0  0  0  0  0  0  0  0
   48.8760   35.9690   41.3890 Cl  0  0  0  0  0  0  0  0  0  0  0  0
   48.6440   34.3160   41.8280 C   0  0  0  0  0  0  0  0  0  0  0  0
   47.4180   33.8030   42.2590 C   0  0  0  0  0  0  0  0  0  0  0  0
   47.2060   32.4890   42.6190 C   0  0  0  0  0  0  0  0  0  0  0  0
   48.3000   31.6600   42.5330 C   0  0  0  0  0  0  0  0  0  0  0  0
   49.5590   32.0460   42.1220 C   0  0  0  0  0  0  0  0  0  0  0  0
   49.6660   33.3940   41.7810 C   0  0  0  0  0  0  0  0  0  0  0  0
   46.2260   32.1610   42.9410 H   0  0  0  0  0  0  0  0  0  0  0  0
   48.1040   30.6180   42.8240 H   0  0  0  0  0  0  0  0  0  0  0  0
   50.3750   31.3630   42.0790 H   0  0  0  0  0  0  0  0  0  0  0  0
   50.6390   33.7270   41.4450 H   0  0  0  0  0  0  0  0  0  0  0  0
   45.0060   37.4810   44.4090 C   0  0  0  0  0  2  0  0  0  0  0  0
   45.4070   38.7240   44.1350 C   0  0  0  0  0  2  0  0  0  0  0  0
   45.2570   39.6990   45.2720 C   0  0  0  0  0  0  0  0  0  0  0  0
   46.3130   39.9630   45.5730 H   0  0  0  0  0  0  0  0  0  0  0  0
   44.6400   39.3340   46.0830 H   0  0  0  0  0  0  0  0  0  0  0  0
   44.7110   40.9130   44.6750 N   0  0  0  0  0  0  0  0  0  0  0  0
   44.1730   40.6230   43.8300 H   0  0  0  0  0  0  0  0  0  0  0  0
   43.9540   41.9180   47.6440 H   0  0  0  0  0  0  0  0  0  0  0  0
   44.5540   41.9280   46.7810 N   0  0  0  0  0  0  0  0  0  0  0  0
   45.0230   43.2420   46.4470 C   0  0  0  0  0  2  0  0  0  0  0  0
   44.2770   43.6990   45.2320 C   0  0  0  0  0  2  0  0  0  0  0  0
   43.1180   42.7250   45.1580 C   0  0  0  0  0  2  0  0  0  0  0  0
   43.7960   41.4640   45.6520 C   0  0  1  0  0  3  0  0  0  0  0  0
  1 20  1  0  0  0  0
  2  7  1  0  0  0  0
  2  1  2  0  0  0  0
  3  4  2  0  0  0  0
  3  2  1  0  0  0  0
  4  5  1  0  0  0  0
  5  6  2  0  0  0  0
  6  1  1  0  0  0  0
  8  3  1  0  0  0  0
  9 10  1  0  0  0  0
 10 11  1  0  0  0  0
 11  5  1  0  0  0  0
 11 12  2  0  0  0  0
 12 16  1  0  0  0  0
 13 12  1  0  0  0  0
 13 17  1  0  0  0  0
 14 13  2  0  0  0  0
 15 10  2  0  0  0  0
 15 14  1  0  0  0  0
 18 14  1  0  0  0  0
 19 15  1  0  0  0  0
 21 20  1  0  0  0  0
 21 22  1  0  0  0  0
 22 23  1  0  0  0  0
 22 24  1  0  0  0  0
 25 22  1  0  0  0  0
 26 25  1  0  0  0  0
 28 27  1  0  0  0  0
 29 28  1  0  0  0  0
 30 29  1  0  0  0  0
 31 30  1  0  0  0  0
 31 32  1  0  0  0  0
 32 25  1  6  0  0  0
 32 28  1  0  0  0  0
M  END
>  <minimizedAffinity>
-4.01001453

>  <minimizedRMSD>
1.02614582

$$$$
