
 OpenBabel03252506463D

 39 42  0  0  1  0  0  0  0  0999 V2000
   49.5480   33.4710   41.3730 N   0  0  1  0  0  0  0  0  0  0  0  0
   50.7070   33.0360   42.1530 C   0  0  0  0  0  0  0  0  0  0  0  0
   51.2630   31.7190   41.6970 C   0  0  0  0  0  0  0  0  0  0  0  0
   50.2400   30.6290   42.0200 C   0  0  0  0  0  0  0  0  0  0  0  0
   48.8420   31.1400   41.7970 C   0  0  0  0  0  0  0  0  0  0  0  0
   48.8880   32.3170   40.8600 C   0  0  2  0  0  0  0  0  0  0  0  0
   50.3720   32.9080   43.2150 H   0  0  0  0  0  0  0  0  0  0  0  0
   51.4950   33.7930   42.1450 H   0  0  0  0  0  0  0  0  0  0  0  0
   51.5130   31.7380   40.6190 H   0  0  0  0  0  0  0  0  0  0  0  0
   52.1990   31.5570   42.2350 H   0  0  0  0  0  0  0  0  0  0  0  0
   50.4570   29.7790   41.3470 H   0  0  0  0  0  0  0  0  0  0  0  0
   50.3750   30.3010   43.0660 H   0  0  0  0  0  0  0  0  0  0  0  0
   48.4810   31.5280   42.7770 H   0  0  0  0  0  0  0  0  0  0  0  0
   48.1180   30.4080   41.4640 H   0  0  0  0  0  0  0  0  0  0  0  0
   47.8130   32.6200   40.6990 H   0  0  0  0  0  0  0  0  0  0  0  0
   47.3500   34.6710   41.9620 C   0  0  1  0  0  0  0  0  0  0  0  0
   48.4410   35.6540   41.7410 C   0  0  0  0  0  0  0  0  0  0  0  0
   48.7630   34.2950   42.2140 C   0  0  2  0  0  0  0  0  0  0  0  0
   46.8180   34.3920   41.0160 H   0  0  0  0  0  0  0  0  0  0  0  0
   48.7590   35.9540   40.7180 H   0  0  0  0  0  0  0  0  0  0  0  0
   48.5200   36.4840   42.4910 H   0  0  0  0  0  0  0  0  0  0  0  0
   48.9960   34.1710   43.3090 H   0  0  0  0  0  0  0  0  0  0  0  0
   45.5010   35.9210   43.0830 C   0  0  0  0  0  0  0  0  0  0  0  0
   46.4280   34.8730   43.0820 C   0  0  0  0  0  0  0  0  0  0  0  0
   46.4300   33.9940   44.1910 C   0  0  0  0  0  0  0  0  0  0  0  0
   45.5430   34.2150   45.1840 N   0  0  0  0  0  0  0  0  0  0  0  0
   44.6570   35.2320   45.1650 C   0  0  0  0  0  0  0  0  0  0  0  0
   44.6290   36.0920   44.1170 N   0  0  0  0  0  0  0  0  0  0  0  0
   45.5060   36.5890   42.2320 H   0  0  0  0  0  0  0  0  0  0  0  0
   47.1350   33.1820   44.2070 H   0  0  0  0  0  0  0  0  0  0  0  0
   43.9450   35.4100   45.9640 H   0  0  0  0  0  0  0  0  0  0  0  0
   49.3820   31.9070   39.5720 N   0  0  0  0  0  0  0  0  0  0  0  0
   50.3330   32.3670   39.4790 H   0  0  0  0  0  0  0  0  0  0  0  0
   46.8470   33.3840   38.3720 H   0  0  0  0  0  0  0  0  0  0  0  0
   47.8560   33.5370   38.6470 N   0  0  0  0  0  0  0  0  0  0  0  0
   48.3750   34.4630   37.6650 C   0  0  0  0  0  2  0  0  0  0  0  0
   48.6170   33.5410   36.4890 C   0  0  0  0  0  2  0  0  0  0  0  0
   49.3250   32.3840   37.1640 C   0  0  0  0  0  2  0  0  0  0  0  0
   48.5620   32.2940   38.4760 C   0  0  1  0  0  3  0  0  0  0  0  0
  1  2  1  1  0  0  0
  1 18  1  0  0  0  0
  2  7  1  0  0  0  0
  3  4  1  0  0  0  0
  3  2  1  0  0  0  0
  3 10  1  0  0  0  0
  4 12  1  0  0  0  0
  5  4  1  0  0  0  0
  5 13  1  0  0  0  0
  6 15  1  6  0  0  0
  6  1  1  0  0  0  0
  6  5  1  0  0  0  0
  8  2  1  0  0  0  0
  9  3  1  0  0  0  0
 11  4  1  0  0  0  0
 14  5  1  0  0  0  0
 16 19  1  6  0  0  0
 16 18  1  0  0  0  0
 16 24  1  0  0  0  0
 17 16  1  0  0  0  0
 17 18  1  0  0  0  0
 17 21  1  0  0  0  0
 18 22  1  1  0  0  0
 20 17  1  0  0  0  0
 23 28  1  0  0  0  0
 24 23  2  0  0  0  0
 24 25  1  0  0  0  0
 25 30  1  0  0  0  0
 25 26  2  0  0  0  0
 27 26  1  0  0  0  0
 27 31  1  0  0  0  0
 28 27  2  0  0  0  0
 29 23  1  0  0  0  0
 32  6  1  0  0  0  0
 33 32  1  0  0  0  0
 34 35  1  0  0  0  0
 36 35  1  0  0  0  0
 37 38  1  0  0  0  0
 37 36  1  0  0  0  0
 38 39  1  0  0  0  0
 39 35  1  0  0  0  0
 39 32  1  1  0  0  0
M  END
>  <minimizedAffinity>
-5.29013157

>  <minimizedRMSD>
2.33710003

$$$$
