
 OpenBabel03252508053D

 39 42  0  0  1  0  0  0  0  0999 V2000
   36.9150   28.5880   41.8430 C   0  0  0  0  0  0  0  0  0  0  0  0
   36.6700   27.9580   42.9290 O   0  0  0  0  0  0  0  0  0  0  0  0
   36.6230   27.4390   39.6420 C   0  0  0  0  0  0  0  0  0  0  0  0
   36.2100   28.3660   40.5790 C   0  0  0  0  0  0  0  0  0  0  0  0
   35.0670   29.1200   40.3130 C   0  0  0  0  0  0  0  0  0  0  0  0
   34.3450   28.9580   39.1410 C   0  0  0  0  0  0  0  0  0  0  0  0
   34.7530   28.0380   38.2100 C   0  0  0  0  0  0  0  0  0  0  0  0
   35.8760   27.3060   38.4840 C   0  0  0  0  0  0  0  0  0  0  0  0
   34.6650   29.8710   40.9770 H   0  0  0  0  0  0  0  0  0  0  0  0
   33.4770   29.5290   38.9360 H   0  0  0  0  0  0  0  0  0  0  0  0
   34.2350   27.8730   37.2930 H   0  0  0  0  0  0  0  0  0  0  0  0
   36.2000   26.5710   37.7370 H   0  0  0  0  0  0  0  0  0  0  0  0
   38.0220   26.5390   39.8510 S   0  0  0  0  0  0  0  0  0  0  0  0
   39.1180   27.5490   39.6450 O   0  0  0  0  0  0  0  0  0  0  0  0
   38.0950   25.4780   38.7250 O   0  0  0  0  0  0  0  0  0  0  0  0
   38.6670   25.0150   43.0150 H   0  0  0  0  0  0  0  0  0  0  0  0
   38.0170   25.4790   42.3180 N   0  0  0  0  0  0  0  0  0  0  0  0
   36.8520   24.6670   42.0950 C   0  0  0  0  0  2  0  0  0  0  0  0
   37.1820   23.7890   40.9390 C   0  0  0  0  0  2  0  0  0  0  0  0
   38.6410   24.1060   40.7670 C   0  0  0  0  0  2  0  0  0  0  0  0
   38.7220   25.6800   41.0670 C   0  0  1  0  0  3  0  0  0  0  0  0
   37.9270   29.6030   41.7410 C   0  0  0  0  0  0  0  0  0  0  0  0
   38.9870   29.5560   42.6910 C   0  0  0  0  0  0  0  0  0  0  0  0
   39.9680   30.5340   42.5840 C   0  0  0  0  0  0  0  0  0  0  0  0
   39.8590   31.4600   41.5960 N   0  0  0  0  0  0  0  0  0  0  0  0
   38.8180   31.4650   40.7040 C   0  0  0  0  0  0  0  0  0  0  0  0
   37.9270   30.5530   40.8240 N   0  0  0  0  0  0  0  0  0  0  0  0
   39.1160   28.8510   43.4830 H   0  0  0  0  0  0  0  0  0  0  0  0
   40.8120   30.6000   43.2420 H   0  0  0  0  0  0  0  0  0  0  0  0
   38.7830   32.5050   39.6590 C   0  0  1  0  0  0  0  0  0  0  0  0
   37.5880   33.4320   39.5900 C   0  0  0  0  0  0  0  0  0  0  0  0
   38.8900   33.8980   40.1690 C   0  0  1  0  0  0  0  0  0  0  0  0
   39.2010   32.2650   38.6780 H   0  0  0  0  0  0  0  0  0  0  0  0
   36.7190   33.1990   40.2340 H   0  0  0  0  0  0  0  0  0  0  0  0
   37.3100   33.8710   38.6160 H   0  0  0  0  0  0  0  0  0  0  0  0
   39.5010   34.6180   39.5880 H   0  0  0  0  0  0  0  0  0  0  0  0
   38.7880   34.1610   41.5890 N   0  0  0  0  0  0  0  0  0  0  0  0
   37.8140   34.4000   41.8750 H   0  0  0  0  0  0  0  0  0  0  0  0
   39.4620   34.9330   41.8510 H   0  0  0  0  0  0  0  0  0  0  0  0
  1  2  2  0  0  0  0
  3 13  1  0  0  0  0
  3  4  1  0  0  0  0
  4  1  1  0  0  0  0
  5  4  2  0  0  0  0
  5  9  1  0  0  0  0
  6  5  1  0  0  0  0
  7  8  1  0  0  0  0
  7  6  2  0  0  0  0
  8  3  2  0  0  0  0
 10  6  1  0  0  0  0
 11  7  1  0  0  0  0
 12  8  1  0  0  0  0
 14 13  2  0  0  0  0
 15 13  2  0  0  0  0
 17 16  1  0  0  0  0
 18 17  1  0  0  0  0
 19 18  1  0  0  0  0
 20 19  1  0  0  0  0
 20 21  1  0  0  0  0
 21 13  1  6  0  0  0
 21 17  1  0  0  0  0
 22  1  1  0  0  0  0
 22 23  1  0  0  0  0
 23 28  1  0  0  0  0
 24 23  2  0  0  0  0
 24 29  1  0  0  0  0
 25 24  1  0  0  0  0
 26 27  1  0  0  0  0
 26 25  2  0  0  0  0
 27 22  2  0  0  0  0
 30 33  1  6  0  0  0
 30 32  1  0  0  0  0
 30 26  1  0  0  0  0
 31 30  1  0  0  0  0
 31 32  1  0  0  0  0
 31 34  1  0  0  0  0
 32 36  1  6  0  0  0
 32 37  1  0  0  0  0
 35 31  1  0  0  0  0
 37 39  1  0  0  0  0
 37 38  1  0  0  0  0
M  END
>  <minimizedAffinity>
-6.18786049

$$$$

 OpenBabel03252508053D

 39 42  0  0  1  0  0  0  0  0999 V2000
   39.2140   30.0150   38.8690 C   0  0  0  0  0  0  0  0  0  0  0  0
   40.1340   29.1520   39.0770 O   0  0  0  0  0  0  0  0  0  0  0  0
   36.8730   29.1530   39.0280 C   0  0  0  0  0  0  0  0  0  0  0  0
   37.9030   29.7090   38.2940 C   0  0  0  0  0  0  0  0  0  0  0  0
   37.6820   30.0000   36.9480 C   0  0  0  0  0  0  0  0  0  0  0  0
   36.4630   29.7450   36.3390 C   0  0  0  0  0  0  0  0  0  0  0  0
   35.4400   29.1930   37.0650 C   0  0  0  0  0  0  0  0  0  0  0  0
   35.6700   28.9130   38.3850 C   0  0  0  0  0  0  0  0  0  0  0  0
   38.4210   30.4310   36.2890 H   0  0  0  0  0  0  0  0  0  0  0  0
   36.2930   29.9640   35.3170 H   0  0  0  0  0  0  0  0  0  0  0  0
   34.4830   28.9770   36.6460 H   0  0  0  0  0  0  0  0  0  0  0  0
   34.8500   28.4710   38.9630 H   0  0  0  0  0  0  0  0  0  0  0  0
   37.0740   28.7110   40.6330 S   0  0  0  0  0  0  0  0  0  0  0  0
   37.7950   27.3940   40.5420 O   0  0  0  0  0  0  0  0  0  0  0  0
   35.6750   28.4780   41.2550 O   0  0  0  0  0  0  0  0  0  0  0  0
   37.8090   29.8150   43.9470 H   0  0  0  0  0  0  0  0  0  0  0  0
   37.2150   29.2780   43.2530 N   0  0  0  0  0  0  0  0  0  0  0  0
   37.0490   27.9150   43.6780 C   0  0  0  0  0  2  0  0  0  0  0  0
   38.1620   27.1540   43.0490 C   0  0  0  0  0  2  0  0  0  0  0  0
   38.9670   28.2810   42.4680 C   0  0  0  0  0  2  0  0  0  0  0  0
   37.8520   29.3120   41.9510 C   0  0  1  0  0  3  0  0  0  0  0  0
   39.3670   31.4090   39.1830 C   0  0  0  0  0  0  0  0  0  0  0  0
   38.1930   32.1170   39.5670 C   0  0  0  0  0  0  0  0  0  0  0  0
   38.3450   33.4630   39.8790 C   0  0  0  0  0  0  0  0  0  0  0  0
   39.5850   34.0130   39.7990 N   0  0  0  0  0  0  0  0  0  0  0  0
   40.6870   33.2900   39.4230 C   0  0  0  0  0  0  0  0  0  0  0  0
   40.5200   32.0520   39.1420 N   0  0  0  0  0  0  0  0  0  0  0  0
   37.2000   31.7310   39.6440 H   0  0  0  0  0  0  0  0  0  0  0  0
   37.5340   34.0960   40.1790 H   0  0  0  0  0  0  0  0  0  0  0  0
   41.9970   33.9670   39.3700 C   0  0  1  0  0  0  0  0  0  0  0  0
   43.2100   33.1780   38.9290 C   0  0  0  0  0  0  0  0  0  0  0  0
   42.5440   34.1470   37.9990 C   0  0  1  0  0  0  0  0  0  0  0  0
   42.2220   34.7160   40.1350 H   0  0  0  0  0  0  0  0  0  0  0  0
   43.0940   32.0840   38.8040 H   0  0  0  0  0  0  0  0  0  0  0  0
   44.2050   33.4760   39.3030 H   0  0  0  0  0  0  0  0  0  0  0  0
   43.0610   35.1010   37.7680 H   0  0  0  0  0  0  0  0  0  0  0  0
   41.9220   33.4790   36.8750 N   0  0  0  0  0  0  0  0  0  0  0  0
   42.3750   32.5640   36.6630 H   0  0  0  0  0  0  0  0  0  0  0  0
   41.9430   34.1190   36.0330 H   0  0  0  0  0  0  0  0  0  0  0  0
  1  2  2  0  0  0  0
  1 22  1  0  0  0  0
  3 13  1  0  0  0  0
  4  1  1  0  0  0  0
  4  3  2  0  0  0  0
  5  4  1  0  0  0  0
  6  5  2  0  0  0  0
  6  7  1  0  0  0  0
  7  8  2  0  0  0  0
  8 12  1  0  0  0  0
  8  3  1  0  0  0  0
  9  5  1  0  0  0  0
 10  6  1  0  0  0  0
 11  7  1  0  0  0  0
 13 15  2  0  0  0  0
 14 13  2  0  0  0  0
 17 18  1  0  0  0  0
 17 16  1  0  0  0  0
 19 18  1  0  0  0  0
 20 19  1  0  0  0  0
 21 13  1  6  0  0  0
 21 20  1  0  0  0  0
 21 17  1  0  0  0  0
 22 23  1  0  0  0  0
 23 28  1  0  0  0  0
 23 24  2  0  0  0  0
 24 29  1  0  0  0  0
 25 24  1  0  0  0  0
 26 25  2  0  0  0  0
 27 22  2  0  0  0  0
 27 26  1  0  0  0  0
 30 26  1  0  0  0  0
 30 33  1  1  0  0  0
 31 35  1  0  0  0  0
 31 30  1  0  0  0  0
 32 36  1  6  0  0  0
 32 31  1  0  0  0  0
 32 30  1  0  0  0  0
 34 31  1  0  0  0  0
 37 32  1  0  0  0  0
 38 37  1  0  0  0  0
 39 37  1  0  0  0  0
M  END
>  <minimizedAffinity>
-6.00762081

$$$$

 OpenBabel03252508053D

 39 42  0  0  1  0  0  0  0  0999 V2000
   37.2080   29.5650   40.9710 C   0  0  0  0  0  0  0  0  0  0  0  0
   37.2310   29.2590   42.2120 O   0  0  0  0  0  0  0  0  0  0  0  0
   36.9340   27.5220   39.5560 C   0  0  0  0  0  0  0  0  0  0  0  0
   36.5250   28.7850   39.9370 C   0  0  0  0  0  0  0  0  0  0  0  0
   35.4050   29.3400   39.3170 C   0  0  0  0  0  0  0  0  0  0  0  0
   34.7030   28.6560   38.3360 C   0  0  0  0  0  0  0  0  0  0  0  0
   35.1080   27.4030   37.9550 C   0  0  0  0  0  0  0  0  0  0  0  0
   36.2070   26.8710   38.5730 C   0  0  0  0  0  0  0  0  0  0  0  0
   35.0080   30.3190   39.5400 H   0  0  0  0  0  0  0  0  0  0  0  0
   33.8530   29.0750   37.8620 H   0  0  0  0  0  0  0  0  0  0  0  0
   34.6050   26.8340   37.2070 H   0  0  0  0  0  0  0  0  0  0  0  0
   36.5290   25.8680   38.2660 H   0  0  0  0  0  0  0  0  0  0  0  0
   38.3070   26.8090   40.2020 S   0  0  0  0  0  0  0  0  0  0  0  0
   39.3880   27.8140   39.9140 O   0  0  0  0  0  0  0  0  0  0  0  0
   38.6020   25.5100   39.4110 O   0  0  0  0  0  0  0  0  0  0  0  0
   38.5820   26.3780   43.7350 H   0  0  0  0  0  0  0  0  0  0  0  0
   38.0380   26.6540   42.8680 N   0  0  0  0  0  0  0  0  0  0  0  0
   36.7790   25.9620   42.8200 C   0  0  0  0  0  2  0  0  0  0  0  0
   37.0300   24.7130   42.0520 C   0  0  0  0  0  2  0  0  0  0  0  0
   38.5250   24.7730   41.9180 C   0  0  0  0  0  2  0  0  0  0  0  0
   38.8200   26.3340   41.6910 C   0  0  1  0  0  3  0  0  0  0  0  0
   37.8620   30.7300   40.4420 C   0  0  0  0  0  0  0  0  0  0  0  0
   37.1800   31.9720   40.5810 C   0  0  0  0  0  0  0  0  0  0  0  0
   37.8180   33.0980   40.0760 C   0  0  0  0  0  0  0  0  0  0  0  0
   39.0340   32.9490   39.4890 N   0  0  0  0  0  0  0  0  0  0  0  0
   39.6510   31.7300   39.3770 C   0  0  0  0  0  0  0  0  0  0  0  0
   39.0430   30.7080   39.8510 N   0  0  0  0  0  0  0  0  0  0  0  0
   36.2260   32.1410   41.0320 H   0  0  0  0  0  0  0  0  0  0  0  0
   37.4020   34.0850   40.1220 H   0  0  0  0  0  0  0  0  0  0  0  0
   40.9760   31.6610   38.7300 C   0  0  1  0  0  0  0  0  0  0  0  0
   41.1950   30.6580   37.6190 C   0  0  0  0  0  0  0  0  0  0  0  0
   40.9960   32.1120   37.3140 C   0  0  1  0  0  0  0  0  0  0  0  0
   41.8620   31.8190   39.3510 H   0  0  0  0  0  0  0  0  0  0  0  0
   40.3960   29.9140   37.4330 H   0  0  0  0  0  0  0  0  0  0  0  0
   42.2120   30.2650   37.4480 H   0  0  0  0  0  0  0  0  0  0  0  0
   41.8670   32.7060   36.9710 H   0  0  0  0  0  0  0  0  0  0  0  0
   39.7530   32.3530   36.6110 N   0  0  0  0  0  0  0  0  0  0  0  0
   39.4360   31.5160   36.0760 H   0  0  0  0  0  0  0  0  0  0  0  0
   39.8670   33.1910   35.9750 H   0  0  0  0  0  0  0  0  0  0  0  0
  1  2  2  0  0  0  0
  3  4  1  0  0  0  0
  3 13  1  0  0  0  0
  4  1  1  0  0  0  0
  5  9  1  0  0  0  0
  5  4  2  0  0  0  0
  6  5  1  0  0  0  0
  7  6  2  0  0  0  0
  7  8  1  0  0  0  0
  8  3  2  0  0  0  0
 10  6  1  0  0  0  0
 11  7  1  0  0  0  0
 12  8  1  0  0  0  0
 14 13  2  0  0  0  0
 15 13  2  0  0  0  0
 17 16  1  0  0  0  0
 18 17  1  0  0  0  0
 19 18  1  0  0  0  0
 20 19  1  0  0  0  0
 21 13  1  6  0  0  0
 21 20  1  0  0  0  0
 21 17  1  0  0  0  0
 22 23  1  0  0  0  0
 22  1  1  0  0  0  0
 23 28  1  0  0  0  0
 24 29  1  0  0  0  0
 24 23  2  0  0  0  0
 25 24  1  0  0  0  0
 26 25  2  0  0  0  0
 26 27  1  0  0  0  0
 27 22  2  0  0  0  0
 30 33  1  1  0  0  0
 30 26  1  0  0  0  0
 31 30  1  0  0  0  0
 32 36  1  6  0  0  0
 32 31  1  0  0  0  0
 32 30  1  0  0  0  0
 34 31  1  0  0  0  0
 35 31  1  0  0  0  0
 37 32  1  0  0  0  0
 38 37  1  0  0  0  0
 39 37  1  0  0  0  0
M  END
>  <minimizedAffinity>
-5.74784088

$$$$

 OpenBabel03252508053D

 39 42  0  0  1  0  0  0  0  0999 V2000
   36.9500   28.5150   40.0670 C   0  0  0  0  0  0  0  0  0  0  0  0
   36.0620   27.9060   39.3780 O   0  0  0  0  0  0  0  0  0  0  0  0
   38.3810   26.8610   41.2780 C   0  0  0  0  0  0  0  0  0  0  0  0
   37.5700   27.9790   41.2800 C   0  0  0  0  0  0  0  0  0  0  0  0
   37.3370   28.6310   42.4910 C   0  0  0  0  0  0  0  0  0  0  0  0
   37.8970   28.1860   43.6780 C   0  0  0  0  0  0  0  0  0  0  0  0
   38.7020   27.0760   43.6780 C   0  0  0  0  0  0  0  0  0  0  0  0
   38.9220   26.4460   42.4840 C   0  0  0  0  0  0  0  0  0  0  0  0
   36.7160   29.5090   42.6000 H   0  0  0  0  0  0  0  0  0  0  0  0
   37.7210   28.6790   44.5980 H   0  0  0  0  0  0  0  0  0  0  0  0
   39.1580   26.6920   44.5620 H   0  0  0  0  0  0  0  0  0  0  0  0
   39.5670   25.5590   42.4870 H   0  0  0  0  0  0  0  0  0  0  0  0
   38.6590   25.9780   39.8800 S   0  0  0  0  0  0  0  0  0  0  0  0
   39.8550   25.1360   40.2340 O   0  0  0  0  0  0  0  0  0  0  0  0
   39.0520   26.9610   38.7500 O   0  0  0  0  0  0  0  0  0  0  0  0
   37.5430   22.8900   38.4800 H   0  0  0  0  0  0  0  0  0  0  0  0
   38.0530   23.4470   39.2240 N   0  0  0  0  0  0  0  0  0  0  0  0
   37.5760   23.0960   40.5330 C   0  0  0  0  0  2  0  0  0  0  0  0
   36.4680   24.0430   40.8310 C   0  0  0  0  0  2  0  0  0  0  0  0
   36.3300   24.7250   39.5000 C   0  0  0  0  0  2  0  0  0  0  0  0
   37.8450   24.8620   38.9880 C   0  0  1  0  0  3  0  0  0  0  0  0
   37.4500   29.8160   39.7200 C   0  0  0  0  0  0  0  0  0  0  0  0
   36.5020   30.8770   39.6570 C   0  0  0  0  0  0  0  0  0  0  0  0
   36.9900   32.1360   39.3300 C   0  0  0  0  0  0  0  0  0  0  0  0
   38.3200   32.2780   39.0940 N   0  0  0  0  0  0  0  0  0  0  0  0
   39.1950   31.2250   39.1660 C   0  0  0  0  0  0  0  0  0  0  0  0
   38.7210   30.0750   39.4700 N   0  0  0  0  0  0  0  0  0  0  0  0
   35.4500   30.8170   39.8330 H   0  0  0  0  0  0  0  0  0  0  0  0
   36.3710   33.0080   39.2520 H   0  0  0  0  0  0  0  0  0  0  0  0
   40.6260   31.4710   38.9010 C   0  0  1  0  0  0  0  0  0  0  0  0
   41.2990   30.7200   37.7730 C   0  0  0  0  0  0  0  0  0  0  0  0
   40.9060   32.1570   37.6120 C   0  0  1  0  0  0  0  0  0  0  0  0
   41.2850   31.6530   39.7540 H   0  0  0  0  0  0  0  0  0  0  0  0
   40.7290   29.9060   37.2850 H   0  0  0  0  0  0  0  0  0  0  0  0
   42.3830   30.5210   37.8370 H   0  0  0  0  0  0  0  0  0  0  0  0
   41.7040   32.9270   37.5960 H   0  0  0  0  0  0  0  0  0  0  0  0
   39.8510   32.3230   36.6330 N   0  0  0  0  0  0  0  0  0  0  0  0
   39.8420   31.5530   35.9310 H   0  0  0  0  0  0  0  0  0  0  0  0
   39.9550   33.2660   36.1640 H   0  0  0  0  0  0  0  0  0  0  0  0
  1  4  1  0  0  0  0
  2  1  2  0  0  0  0
  3  4  2  0  0  0  0
  3  8  1  0  0  0  0
  4  5  1  0  0  0  0
  5  9  1  0  0  0  0
  5  6  2  0  0  0  0
  6 10  1  0  0  0  0
  7  6  1  0  0  0  0
  7 11  1  0  0  0  0
  8 12  1  0  0  0  0
  8  7  2  0  0  0  0
 13 14  2  0  0  0  0
 13  3  1  0  0  0  0
 15 13  2  0  0  0  0
 16 17  1  0  0  0  0
 17 18  1  0  0  0  0
 18 19  1  0  0  0  0
 20 19  1  0  0  0  0
 21 17  1  0  0  0  0
 21 20  1  0  0  0  0
 21 13  1  1  0  0  0
 22  1  1  0  0  0  0
 23 22  1  0  0  0  0
 23 28  1  0  0  0  0
 24 23  2  0  0  0  0
 25 26  2  0  0  0  0
 25 24  1  0  0  0  0
 26 27  1  0  0  0  0
 27 22  2  0  0  0  0
 29 24  1  0  0  0  0
 30 26  1  0  0  0  0
 30 33  1  1  0  0  0
 31 35  1  0  0  0  0
 31 30  1  0  0  0  0
 32 36  1  6  0  0  0
 32 31  1  0  0  0  0
 32 30  1  0  0  0  0
 34 31  1  0  0  0  0
 37 32  1  0  0  0  0
 38 37  1  0  0  0  0
 39 37  1  0  0  0  0
M  END
>  <minimizedAffinity>
-5.74183178

$$$$

 OpenBabel03252508053D

 39 42  0  0  1  0  0  0  0  0999 V2000
   37.9980   28.7770   42.2870 C   0  0  0  0  0  0  0  0  0  0  0  0
   38.4130   29.6610   43.1110 O   0  0  0  0  0  0  0  0  0  0  0  0
   37.7500   29.5190   39.9120 C   0  0  0  0  0  0  0  0  0  0  0  0
   37.1980   29.0660   41.0940 C   0  0  0  0  0  0  0  0  0  0  0  0
   35.8190   28.8660   41.1530 C   0  0  0  0  0  0  0  0  0  0  0  0
   35.0010   29.1100   40.0600 C   0  0  0  0  0  0  0  0  0  0  0  0
   35.5470   29.5600   38.8860 C   0  0  0  0  0  0  0  0  0  0  0  0
   36.9020   29.7520   38.8430 C   0  0  0  0  0  0  0  0  0  0  0  0
   35.2910   28.5180   42.0280 H   0  0  0  0  0  0  0  0  0  0  0  0
   33.9540   28.9600   40.1020 H   0  0  0  0  0  0  0  0  0  0  0  0
   34.9650   29.7630   38.0170 H   0  0  0  0  0  0  0  0  0  0  0  0
   37.3350   30.1120   37.9030 H   0  0  0  0  0  0  0  0  0  0  0  0
   39.3890   29.8490   39.7760 S   0  0  0  0  0  0  0  0  0  0  0  0
   39.5780   30.0590   38.2980 O   0  0  0  0  0  0  0  0  0  0  0  0
   40.1800   28.5910   40.2120 O   0  0  0  0  0  0  0  0  0  0  0  0
   41.4200   32.7790   39.9670 H   0  0  0  0  0  0  0  0  0  0  0  0
   40.6370   32.2130   39.5300 N   0  0  0  0  0  0  0  0  0  0  0  0
   39.4240   32.9820   39.4800 C   0  0  0  0  0  2  0  0  0  0  0  0
   38.7000   32.6840   40.7450 C   0  0  0  0  0  2  0  0  0  0  0  0
   39.7430   31.8830   41.4720 C   0  0  0  0  0  2  0  0  0  0  0  0
   40.4240   31.0100   40.3110 C   0  0  1  0  0  3  0  0  0  0  0  0
   38.2740   27.3750   42.4400 C   0  0  0  0  0  0  0  0  0  0  0  0
   39.4320   27.0230   43.1900 C   0  0  0  0  0  0  0  0  0  0  0  0
   39.6920   25.6670   43.3440 C   0  0  0  0  0  0  0  0  0  0  0  0
   38.8400   24.7730   42.7780 N   0  0  0  0  0  0  0  0  0  0  0  0
   37.7360   25.1600   42.0620 C   0  0  0  0  0  0  0  0  0  0  0  0
   37.5190   26.4160   41.9360 N   0  0  0  0  0  0  0  0  0  0  0  0
   40.1310   27.6860   43.6530 H   0  0  0  0  0  0  0  0  0  0  0  0
   40.5330   25.2830   43.8860 H   0  0  0  0  0  0  0  0  0  0  0  0
   36.8610   24.1210   41.4880 C   0  0  1  0  0  0  0  0  0  0  0  0
   36.5620   24.1550   40.0050 C   0  0  0  0  0  0  0  0  0  0  0  0
   37.5460   23.1750   40.5680 C   0  0  1  0  0  0  0  0  0  0  0  0
   36.0220   23.7620   42.0900 H   0  0  0  0  0  0  0  0  0  0  0  0
   36.8930   25.0440   39.4350 H   0  0  0  0  0  0  0  0  0  0  0  0
   35.6100   23.7280   39.6430 H   0  0  0  0  0  0  0  0  0  0  0  0
   37.2610   22.1050   40.6160 H   0  0  0  0  0  0  0  0  0  0  0  0
   38.8970   23.4470   40.1210 N   0  0  0  0  0  0  0  0  0  0  0  0
   38.9140   23.9520   39.2090 H   0  0  0  0  0  0  0  0  0  0  0  0
   39.4360   22.5390   40.0640 H   0  0  0  0  0  0  0  0  0  0  0  0
  1 22  1  0  0  0  0
  1  2  2  0  0  0  0
  3  4  1  0  0  0  0
  4  5  2  0  0  0  0
  4  1  1  0  0  0  0
  5  9  1  0  0  0  0
  6 10  1  0  0  0  0
  6  5  1  0  0  0  0
  7  6  2  0  0  0  0
  8  7  1  0  0  0  0
  8  3  2  0  0  0  0
 11  7  1  0  0  0  0
 12  8  1  0  0  0  0
 13  3  1  0  0  0  0
 13 15  2  0  0  0  0
 14 13  2  0  0  0  0
 17 16  1  0  0  0  0
 17 21  1  0  0  0  0
 18 17  1  0  0  0  0
 18 19  1  0  0  0  0
 19 20  1  0  0  0  0
 21 13  1  6  0  0  0
 21 20  1  0  0  0  0
 22 23  1  0  0  0  0
 23 24  2  0  0  0  0
 23 28  1  0  0  0  0
 24 29  1  0  0  0  0
 25 24  1  0  0  0  0
 26 25  2  0  0  0  0
 27 26  1  0  0  0  0
 27 22  2  0  0  0  0
 30 26  1  0  0  0  0
 30 33  1  1  0  0  0
 31 32  1  0  0  0  0
 31 30  1  0  0  0  0
 32 36  1  1  0  0  0
 32 30  1  0  0  0  0
 34 31  1  0  0  0  0
 35 31  1  0  0  0  0
 37 32  1  0  0  0  0
 38 37  1  0  0  0  0
 39 37  1  0  0  0  0
M  END
>  <minimizedAffinity>
-5.72232294

$$$$

 OpenBabel03252508053D

 39 42  0  0  1  0  0  0  0  0999 V2000
   38.1240   26.6440   38.4630 C   0  0  0  0  0  0  0  0  0  0  0  0
   39.3040   26.5100   37.9890 O   0  0  0  0  0  0  0  0  0  0  0  0
   37.4390   25.2430   40.4170 C   0  0  0  0  0  0  0  0  0  0  0  0
   37.3490   25.5640   39.0760 C   0  0  0  0  0  0  0  0  0  0  0  0
   36.4750   24.8320   38.2730 C   0  0  0  0  0  0  0  0  0  0  0  0
   35.7030   23.8010   38.7870 C   0  0  0  0  0  0  0  0  0  0  0  0
   35.7920   23.4810   40.1170 C   0  0  0  0  0  0  0  0  0  0  0  0
   36.6530   24.2070   40.8940 C   0  0  0  0  0  0  0  0  0  0  0  0
   36.3340   25.0010   37.2150 H   0  0  0  0  0  0  0  0  0  0  0  0
   35.0390   23.2440   38.1790 H   0  0  0  0  0  0  0  0  0  0  0  0
   35.2220   22.6990   40.5630 H   0  0  0  0  0  0  0  0  0  0  0  0
   36.7210   23.9490   41.9570 H   0  0  0  0  0  0  0  0  0  0  0  0
   38.5130   26.0270   41.4390 S   0  0  0  0  0  0  0  0  0  0  0  0
   39.8000   26.0200   40.6620 O   0  0  0  0  0  0  0  0  0  0  0  0
   38.6890   25.1670   42.7160 O   0  0  0  0  0  0  0  0  0  0  0  0
   38.0550   29.4920   42.1630 H   0  0  0  0  0  0  0  0  0  0  0  0
   37.7360   28.5800   41.7280 N   0  0  0  0  0  0  0  0  0  0  0  0
   36.4060   28.2510   42.1600 C   0  0  0  0  0  2  0  0  0  0  0  0
   36.5690   27.4100   43.3770 C   0  0  0  0  0  2  0  0  0  0  0  0
   38.0500   27.5350   43.5950 C   0  0  0  0  0  2  0  0  0  0  0  0
   38.6520   27.5230   42.1080 C   0  0  1  0  0  3  0  0  0  0  0  0
   37.4140   27.8930   38.4470 C   0  0  0  0  0  0  0  0  0  0  0  0
   36.0550   27.8570   38.0220 C   0  0  0  0  0  0  0  0  0  0  0  0
   35.3680   29.0650   38.0160 C   0  0  0  0  0  0  0  0  0  0  0  0
   36.0230   30.1890   38.4080 N   0  0  0  0  0  0  0  0  0  0  0  0
   37.3340   30.1730   38.8090 C   0  0  0  0  0  0  0  0  0  0  0  0
   37.9450   29.0480   38.8060 N   0  0  0  0  0  0  0  0  0  0  0  0
   35.4970   27.0030   37.7040 H   0  0  0  0  0  0  0  0  0  0  0  0
   34.3430   29.1610   37.7150 H   0  0  0  0  0  0  0  0  0  0  0  0
   37.9650   31.4400   39.2250 C   0  0  1  0  0  0  0  0  0  0  0  0
   37.1660   32.7210   39.1250 C   0  0  0  0  0  0  0  0  0  0  0  0
   37.3780   32.0490   40.4480 C   0  0  1  0  0  0  0  0  0  0  0  0
   39.0300   31.5780   39.0220 H   0  0  0  0  0  0  0  0  0  0  0  0
   36.1900   32.6790   38.6060 H   0  0  0  0  0  0  0  0  0  0  0  0
   37.7040   33.6740   38.9780 H   0  0  0  0  0  0  0  0  0  0  0  0
   38.0700   32.5190   41.1770 H   0  0  0  0  0  0  0  0  0  0  0  0
   36.1420   31.5310   40.9970 N   0  0  0  0  0  0  0  0  0  0  0  0
   35.3090   32.0490   40.6450 H   0  0  0  0  0  0  0  0  0  0  0  0
   36.1900   31.5580   42.0540 H   0  0  0  0  0  0  0  0  0  0  0  0
  1  4  1  0  0  0  0
  2  1  2  0  0  0  0
  3  8  1  0  0  0  0
  3 13  1  0  0  0  0
  4  3  2  0  0  0  0
  5  6  2  0  0  0  0
  5  4  1  0  0  0  0
  6  7  1  0  0  0  0
  7 11  1  0  0  0  0
  7  8  2  0  0  0  0
  8 12  1  0  0  0  0
  9  5  1  0  0  0  0
 10  6  1  0  0  0  0
 13 15  2  0  0  0  0
 14 13  2  0  0  0  0
 17 21  1  0  0  0  0
 17 18  1  0  0  0  0
 17 16  1  0  0  0  0
 18 19  1  0  0  0  0
 19 20  1  0  0  0  0
 21 13  1  6  0  0  0
 21 20  1  0  0  0  0
 22  1  1  0  0  0  0
 22 27  1  0  0  0  0
 23 22  2  0  0  0  0
 24 23  1  0  0  0  0
 24 25  2  0  0  0  0
 25 26  1  0  0  0  0
 26 30  1  0  0  0  0
 27 26  2  0  0  0  0
 28 23  1  0  0  0  0
 29 24  1  0  0  0  0
 30 33  1  6  0  0  0
 30 32  1  0  0  0  0
 31 30  1  0  0  0  0
 31 32  1  0  0  0  0
 32 37  1  0  0  0  0
 32 36  1  1  0  0  0
 34 31  1  0  0  0  0
 35 31  1  0  0  0  0
 37 39  1  0  0  0  0
 38 37  1  0  0  0  0
M  END
>  <minimizedAffinity>
-5.72094107

$$$$

 OpenBabel03252508053D

 39 42  0  0  1  0  0  0  0  0999 V2000
   35.7080   29.2710   40.5420 C   0  0  0  0  0  0  0  0  0  0  0  0
   34.4570   29.0640   40.3860 O   0  0  0  0  0  0  0  0  0  0  0  0
   37.0220   30.1420   38.6020 C   0  0  0  0  0  0  0  0  0  0  0  0
   36.4690   30.3160   39.8550 C   0  0  0  0  0  0  0  0  0  0  0  0
   36.6360   31.5450   40.4930 C   0  0  0  0  0  0  0  0  0  0  0  0
   37.3370   32.5840   39.8990 C   0  0  0  0  0  0  0  0  0  0  0  0
   37.8870   32.4120   38.6550 C   0  0  0  0  0  0  0  0  0  0  0  0
   37.7150   31.2020   38.0410 C   0  0  0  0  0  0  0  0  0  0  0  0
   36.2480   31.7810   41.4720 H   0  0  0  0  0  0  0  0  0  0  0  0
   37.4660   33.5180   40.3810 H   0  0  0  0  0  0  0  0  0  0  0  0
   38.4350   33.1770   38.1540 H   0  0  0  0  0  0  0  0  0  0  0  0
   38.1560   31.0670   37.0460 H   0  0  0  0  0  0  0  0  0  0  0  0
   36.9270   28.6750   37.7940 S   0  0  0  0  0  0  0  0  0  0  0  0
   37.8030   27.7690   38.6150 O   0  0  0  0  0  0  0  0  0  0  0  0
   37.5560   28.8480   36.3890 O   0  0  0  0  0  0  0  0  0  0  0  0
   33.7830   26.9990   37.5740 H   0  0  0  0  0  0  0  0  0  0  0  0
   34.3700   27.8570   37.7800 N   0  0  0  0  0  0  0  0  0  0  0  0
   33.8870   28.9900   37.0400 C   0  0  0  0  0  2  0  0  0  0  0  0
   34.6440   28.9930   35.7590 C   0  0  0  0  0  2  0  0  0  0  0  0
   35.3650   27.6790   35.8680 C   0  0  0  0  0  2  0  0  0  0  0  0
   35.7490   27.5880   37.4230 C   0  0  1  0  0  3  0  0  0  0  0  0
   36.5240   28.4860   41.4280 C   0  0  0  0  0  0  0  0  0  0  0  0
   37.3500   29.1960   42.3450 C   0  0  0  0  0  0  0  0  0  0  0  0
   38.1310   28.4350   43.2050 C   0  0  0  0  0  0  0  0  0  0  0  0
   38.0610   27.0810   43.1220 N   0  0  0  0  0  0  0  0  0  0  0  0
   37.2500   26.4410   42.2200 C   0  0  0  0  0  0  0  0  0  0  0  0
   36.5400   27.1650   41.4390 N   0  0  0  0  0  0  0  0  0  0  0  0
   37.4400   30.2560   42.4490 H   0  0  0  0  0  0  0  0  0  0  0  0
   38.7910   28.8580   43.9360 H   0  0  0  0  0  0  0  0  0  0  0  0
   37.2320   24.9660   42.2030 C   0  0  1  0  0  0  0  0  0  0  0  0
   36.6990   24.2560   40.9780 C   0  0  0  0  0  0  0  0  0  0  0  0
   38.1730   24.3480   41.2320 C   0  0  1  0  0  0  0  0  0  0  0  0
   37.0110   24.4410   43.1370 H   0  0  0  0  0  0  0  0  0  0  0  0
   36.2080   24.8720   40.2000 H   0  0  0  0  0  0  0  0  0  0  0  0
   36.2520   23.2530   41.0940 H   0  0  0  0  0  0  0  0  0  0  0  0
   38.7150   23.4320   41.5460 H   0  0  0  0  0  0  0  0  0  0  0  0
   38.8440   25.1690   40.2460 N   0  0  0  0  0  0  0  0  0  0  0  0
   38.3260   25.1970   39.3410 H   0  0  0  0  0  0  0  0  0  0  0  0
   39.8320   24.8170   40.1100 H   0  0  0  0  0  0  0  0  0  0  0  0
  1 22  1  0  0  0  0
  2  1  2  0  0  0  0
  3  4  1  0  0  0  0
  4  5  2  0  0  0  0
  4  1  1  0  0  0  0
  5  9  1  0  0  0  0
  6 10  1  0  0  0  0
  6  5  1  0  0  0  0
  7  6  2  0  0  0  0
  8  3  2  0  0  0  0
  8  7  1  0  0  0  0
 11  7  1  0  0  0  0
 12  8  1  0  0  0  0
 13  3  1  0  0  0  0
 13 14  2  0  0  0  0
 15 13  2  0  0  0  0
 16 17  1  0  0  0  0
 18 17  1  0  0  0  0
 19 20  1  0  0  0  0
 19 18  1  0  0  0  0
 20 21  1  0  0  0  0
 21 17  1  0  0  0  0
 21 13  1  1  0  0  0
 22 27  2  0  0  0  0
 22 23  1  0  0  0  0
 23 28  1  0  0  0  0
 23 24  2  0  0  0  0
 24 29  1  0  0  0  0
 25 24  1  0  0  0  0
 26 25  2  0  0  0  0
 27 26  1  0  0  0  0
 30 26  1  0  0  0  0
 30 33  1  1  0  0  0
 31 35  1  0  0  0  0
 31 32  1  0  0  0  0
 31 30  1  0  0  0  0
 32 36  1  1  0  0  0
 32 30  1  0  0  0  0
 34 31  1  0  0  0  0
 37 32  1  0  0  0  0
 38 37  1  0  0  0  0
 39 37  1  0  0  0  0
M  END
>  <minimizedAffinity>
-5.68450165

$$$$

 OpenBabel03252508053D

 39 42  0  0  1  0  0  0  0  0999 V2000
   39.7050   29.6860   40.4680 C   0  0  0  0  0  0  0  0  0  0  0  0
   40.7610   29.3320   39.8400 O   0  0  0  0  0  0  0  0  0  0  0  0
   37.9010   31.0000   39.3410 C   0  0  0  0  0  0  0  0  0  0  0  0
   38.9670   30.9250   40.2160 C   0  0  0  0  0  0  0  0  0  0  0  0
   39.3530   32.0800   40.8980 C   0  0  0  0  0  0  0  0  0  0  0  0
   38.6950   33.2870   40.7160 C   0  0  0  0  0  0  0  0  0  0  0  0
   37.6370   33.3630   39.8470 C   0  0  0  0  0  0  0  0  0  0  0  0
   37.2690   32.2230   39.1860 C   0  0  0  0  0  0  0  0  0  0  0  0
   40.1730   32.1280   41.5990 H   0  0  0  0  0  0  0  0  0  0  0  0
   38.9860   34.1650   41.2320 H   0  0  0  0  0  0  0  0  0  0  0  0
   37.0970   34.2640   39.6700 H   0  0  0  0  0  0  0  0  0  0  0  0
   36.4230   32.2870   38.4920 H   0  0  0  0  0  0  0  0  0  0  0  0
   37.4140   29.6780   38.4320 S   0  0  0  0  0  0  0  0  0  0  0  0
   38.7090   29.1240   37.9040 O   0  0  0  0  0  0  0  0  0  0  0  0
   36.5630   30.1880   37.2430 O   0  0  0  0  0  0  0  0  0  0  0  0
   35.9770   26.8440   40.0580 H   0  0  0  0  0  0  0  0  0  0  0  0
   36.3570   27.8330   40.0700 N   0  0  0  0  0  0  0  0  0  0  0  0
   35.4080   28.7330   40.6640 C   0  0  0  0  0  2  0  0  0  0  0  0
   34.5800   29.2510   39.5420 C   0  0  0  0  0  2  0  0  0  0  0  0
   35.0760   28.3860   38.4180 C   0  0  0  0  0  2  0  0  0  0  0  0
   36.6470   28.2500   38.7120 C   0  0  1  0  0  3  0  0  0  0  0  0
   39.1120   28.8920   41.5090 C   0  0  0  0  0  0  0  0  0  0  0  0
   38.3790   29.5870   42.5120 C   0  0  0  0  0  0  0  0  0  0  0  0
   37.7990   28.8160   43.5130 C   0  0  0  0  0  0  0  0  0  0  0  0
   37.9650   27.4690   43.4750 N   0  0  0  0  0  0  0  0  0  0  0  0
   38.6830   26.8440   42.4870 C   0  0  0  0  0  0  0  0  0  0  0  0
   39.2060   27.5770   41.5760 N   0  0  0  0  0  0  0  0  0  0  0  0
   38.2200   30.6410   42.5860 H   0  0  0  0  0  0  0  0  0  0  0  0
   37.2260   29.2280   44.3200 H   0  0  0  0  0  0  0  0  0  0  0  0
   38.8070   25.3740   42.5200 C   0  0  1  0  0  0  0  0  0  0  0  0
   37.5930   24.5310   42.1970 C   0  0  0  0  0  0  0  0  0  0  0  0
   38.6900   24.7140   41.1930 C   0  0  1  0  0  0  0  0  0  0  0  0
   39.4530   24.9280   43.2800 H   0  0  0  0  0  0  0  0  0  0  0  0
   36.6200   25.0500   42.0920 H   0  0  0  0  0  0  0  0  0  0  0  0
   37.5090   23.5240   42.6410 H   0  0  0  0  0  0  0  0  0  0  0  0
   39.3610   23.8580   40.9780 H   0  0  0  0  0  0  0  0  0  0  0  0
   38.2490   25.4730   40.0410 N   0  0  0  0  0  0  0  0  0  0  0  0
   37.2210   25.3940   39.8890 H   0  0  0  0  0  0  0  0  0  0  0  0
   38.7860   25.1550   39.1860 H   0  0  0  0  0  0  0  0  0  0  0  0
  1 22  1  0  0  0  0
  2  1  2  0  0  0  0
  3  4  1  0  0  0  0
  4  1  1  0  0  0  0
  4  5  2  0  0  0  0
  5  9  1  0  0  0  0
  6  5  1  0  0  0  0
  6 10  1  0  0  0  0
  7  6  2  0  0  0  0
  8  3  2  0  0  0  0
  8  7  1  0  0  0  0
 11  7  1  0  0  0  0
 12  8  1  0  0  0  0
 13  3  1  0  0  0  0
 14 13  2  0  0  0  0
 15 13  2  0  0  0  0
 16 17  1  0  0  0  0
 17 18  1  0  0  0  0
 19 18  1  0  0  0  0
 20 21  1  0  0  0  0
 20 19  1  0  0  0  0
 21 13  1  1  0  0  0
 21 17  1  0  0  0  0
 22 27  2  0  0  0  0
 22 23  1  0  0  0  0
 23 28  1  0  0  0  0
 23 24  2  0  0  0  0
 24 29  1  0  0  0  0
 25 24  1  0  0  0  0
 26 30  1  0  0  0  0
 26 25  2  0  0  0  0
 27 26  1  0  0  0  0
 30 33  1  1  0  0  0
 31 30  1  0  0  0  0
 31 35  1  0  0  0  0
 32 36  1  6  0  0  0
 32 31  1  0  0  0  0
 32 30  1  0  0  0  0
 34 31  1  0  0  0  0
 37 32  1  0  0  0  0
 38 37  1  0  0  0  0
 39 37  1  0  0  0  0
M  END
>  <minimizedAffinity>
-5.66553497

$$$$

 OpenBabel03252508053D

 39 42  0  0  1  0  0  0  0  0999 V2000
   36.1800   29.9940   40.8790 C   0  0  0  0  0  0  0  0  0  0  0  0
   36.0990   31.1500   41.4210 O   0  0  0  0  0  0  0  0  0  0  0  0
   36.3840   29.9660   38.3880 C   0  0  0  0  0  0  0  0  0  0  0  0
   35.6830   29.6690   39.5410 C   0  0  0  0  0  0  0  0  0  0  0  0
   34.4520   29.0240   39.4260 C   0  0  0  0  0  0  0  0  0  0  0  0
   33.9240   28.6780   38.1920 C   0  0  0  0  0  0  0  0  0  0  0  0
   34.6170   28.9720   37.0460 C   0  0  0  0  0  0  0  0  0  0  0  0
   35.8240   29.6040   37.1740 C   0  0  0  0  0  0  0  0  0  0  0  0
   33.8260   28.7530   40.2630 H   0  0  0  0  0  0  0  0  0  0  0  0
   32.9890   28.1890   38.1020 H   0  0  0  0  0  0  0  0  0  0  0  0
   34.2570   28.7280   36.0730 H   0  0  0  0  0  0  0  0  0  0  0  0
   36.3760   29.8380   36.2560 H   0  0  0  0  0  0  0  0  0  0  0  0
   37.8390   30.7980   38.4310 S   0  0  0  0  0  0  0  0  0  0  0  0
   37.5090   32.0320   39.2270 O   0  0  0  0  0  0  0  0  0  0  0  0
   38.2070   31.2150   36.9850 O   0  0  0  0  0  0  0  0  0  0  0  0
   40.6110   29.4160   40.2040 H   0  0  0  0  0  0  0  0  0  0  0  0
   39.6290   29.3510   39.8110 N   0  0  0  0  0  0  0  0  0  0  0  0
   39.4890   28.1780   38.9920 C   0  0  0  0  0  2  0  0  0  0  0  0
   39.8280   28.6050   37.6070 C   0  0  0  0  0  2  0  0  0  0  0  0
   40.3250   29.9990   37.8680 C   0  0  0  0  0  2  0  0  0  0  0  0
   39.3500   30.5360   39.0230 C   0  0  1  0  0  3  0  0  0  0  0  0
   36.7780   28.8650   41.5360 C   0  0  0  0  0  0  0  0  0  0  0  0
   37.5220   29.1260   42.7220 C   0  0  0  0  0  0  0  0  0  0  0  0
   38.0920   28.0310   43.3590 C   0  0  0  0  0  0  0  0  0  0  0  0
   37.9100   26.7970   42.8200 N   0  0  0  0  0  0  0  0  0  0  0  0
   37.1860   26.5950   41.6730 C   0  0  0  0  0  0  0  0  0  0  0  0
   36.6700   27.6200   41.1060 N   0  0  0  0  0  0  0  0  0  0  0  0
   37.6940   30.0740   43.1830 H   0  0  0  0  0  0  0  0  0  0  0  0
   38.6730   28.1050   44.2570 H   0  0  0  0  0  0  0  0  0  0  0  0
   37.0330   25.2200   41.1630 C   0  0  1  0  0  0  0  0  0  0  0  0
   37.5260   24.8990   39.7690 C   0  0  0  0  0  0  0  0  0  0  0  0
   38.3120   24.4840   40.9760 C   0  0  1  0  0  0  0  0  0  0  0  0
   36.1350   24.6610   41.4430 H   0  0  0  0  0  0  0  0  0  0  0  0
   37.8490   25.7440   39.1310 H   0  0  0  0  0  0  0  0  0  0  0  0
   37.0410   24.0820   39.2060 H   0  0  0  0  0  0  0  0  0  0  0  0
   38.3370   23.4100   41.2490 H   0  0  0  0  0  0  0  0  0  0  0  0
   39.5740   25.1880   41.0690 N   0  0  0  0  0  0  0  0  0  0  0  0
   39.9150   25.5080   40.1360 H   0  0  0  0  0  0  0  0  0  0  0  0
   40.2880   24.5660   41.5420 H   0  0  0  0  0  0  0  0  0  0  0  0
  1  2  2  0  0  0  0
  1 22  1  0  0  0  0
  3 13  1  0  0  0  0
  3  4  1  0  0  0  0
  4  1  1  0  0  0  0
  5  4  2  0  0  0  0
  5  9  1  0  0  0  0
  6  5  1  0  0  0  0
  7  8  1  0  0  0  0
  7  6  2  0  0  0  0
  8  3  2  0  0  0  0
 10  6  1  0  0  0  0
 11  7  1  0  0  0  0
 12  8  1  0  0  0  0
 13 14  2  0  0  0  0
 15 13  2  0  0  0  0
 17 16  1  0  0  0  0
 18 17  1  0  0  0  0
 19 20  1  0  0  0  0
 19 18  1  0  0  0  0
 20 21  1  0  0  0  0
 21 13  1  6  0  0  0
 21 17  1  0  0  0  0
 22 23  1  0  0  0  0
 23 28  1  0  0  0  0
 23 24  2  0  0  0  0
 24 29  1  0  0  0  0
 25 24  1  0  0  0  0
 26 25  2  0  0  0  0
 27 22  2  0  0  0  0
 27 26  1  0  0  0  0
 30 33  1  1  0  0  0
 30 26  1  0  0  0  0
 31 32  1  0  0  0  0
 31 30  1  0  0  0  0
 32 37  1  0  0  0  0
 32 30  1  0  0  0  0
 32 36  1  1  0  0  0
 34 31  1  0  0  0  0
 35 31  1  0  0  0  0
 37 39  1  0  0  0  0
 38 37  1  0  0  0  0
M  END
>  <minimizedAffinity>
-5.43758249

$$$$
