
 OpenBabel03252502003D

 31 34  0  0  0  0  0  0  0  0999 V2000
   47.7690   32.2820   48.3210 C   0  0  0  0  0  0  0  0  0  0  0  0
   47.4850   30.9340   48.3720 C   0  0  0  0  0  0  0  0  0  0  0  0
   46.6380   30.4570   47.4160 C   0  0  0  0  0  0  0  0  0  0  0  0
   46.1230   31.2780   46.4870 N   0  0  0  0  0  0  0  0  0  0  0  0
   46.4010   32.5760   46.4440 C   0  0  0  0  0  0  0  0  0  0  0  0
   47.2290   33.0460   47.3780 N   0  0  0  0  0  0  0  0  0  0  0  0
   48.4480   32.6680   49.0850 H   0  0  0  0  0  0  0  0  0  0  0  0
   46.2740   29.1070   47.3630 N   0  0  0  0  0  0  0  0  0  0  0  0
   47.2050   27.9830   47.1910 C   0  0  0  0  0  2  0  0  0  0  0  0
   46.3590   26.7410   47.3410 C   0  0  0  0  0  2  0  0  0  0  0  0
   44.9840   27.2200   46.8670 C   0  0  0  0  0  2  0  0  0  0  0  0
   44.9210   28.5940   47.4700 C   0  0  0  0  0  3  0  0  0  0  0  0
   44.6960   28.5160   48.5730 H   0  0  0  0  0  0  0  0  0  0  0  0
   45.9550   33.6450   45.5270 C   0  0  0  0  0  0  0  0  0  0  0  0
   44.9580   34.5160   45.8230 N   0  0  0  0  0  0  0  0  0  0  0  0
   44.5340   35.4860   45.0230 C   0  0  0  0  0  0  0  0  0  0  0  0
   45.1080   35.6570   43.8090 N   0  0  0  0  0  0  0  0  0  0  0  0
   46.1070   34.8550   43.4010 C   0  0  0  0  0  0  0  0  0  0  0  0
   46.6840   35.0360   42.1650 C   0  0  0  0  0  0  0  0  0  0  0  0
   47.7000   34.2250   41.7400 C   0  0  0  0  0  0  0  0  0  0  0  0
   48.1210   33.2260   42.5940 C   0  0  0  0  0  0  0  0  0  0  0  0
   47.5150   33.0790   43.8210 C   0  0  0  0  0  0  0  0  0  0  0  0
   46.4960   33.8690   44.2840 C   0  0  0  0  0  0  0  0  0  0  0  0
   43.7280   36.1220   45.3730 H   0  0  0  0  0  0  0  0  0  0  0  0
   46.3480   35.8240   41.5010 H   0  0  0  0  0  0  0  0  0  0  0  0
   48.1430   34.3810   40.7660 H   0  0  0  0  0  0  0  0  0  0  0  0
   48.9220   32.5570   42.3050 H   0  0  0  0  0  0  0  0  0  0  0  0
   47.8850   32.2730   44.4580 H   0  0  0  0  0  0  0  0  0  0  0  0
   48.0510   30.1160   49.3670 N   0  0  0  0  0  0  0  0  0  0  0  0
   48.9410   29.6250   49.1190 H   0  0  0  0  0  0  0  0  0  0  0  0
   47.6310   29.9760   50.3300 H   0  0  0  0  0  0  0  0  0  0  0  0
  1  2  1  0  0  0  0
  1  7  1  0  0  0  0
  2 29  1  0  0  0  0
  3  2  2  0  0  0  0
  4  3  1  0  0  0  0
  5  4  2  0  0  0  0
  5  6  1  0  0  0  0
  6  1  2  0  0  0  0
  8  3  1  0  0  0  0
  8 12  1  0  0  0  0
  9 10  1  0  0  0  0
  9  8  1  0  0  0  0
 11 10  1  0  0  0  0
 11 12  1  0  0  0  0
 12 13  1  0  0  0  0
 14 15  1  0  0  0  0
 14  5  1  0  0  0  0
 16 24  1  0  0  0  0
 16 15  2  0  0  0  0
 17 16  1  0  0  0  0
 18 17  2  0  0  0  0
 18 23  1  0  0  0  0
 19 18  1  0  0  0  0
 20 19  2  0  0  0  0
 20 21  1  0  0  0  0
 21 22  2  0  0  0  0
 22 23  1  0  0  0  0
 22 28  1  0  0  0  0
 23 14  2  0  0  0  0
 25 19  1  0  0  0  0
 26 20  1  0  0  0  0
 27 21  1  0  0  0  0
 29 31  1  0  0  0  0
 30 29  1  0  0  0  0
M  END
>  <minimizedAffinity>
-6.41570425

>  <minimizedRMSD>
0.274581701

$$$$
