
 OpenBabel03252508023D

 39 42  0  0  1  0  0  0  0  0999 V2000
   44.2440   34.3680   41.5470 C   0  0  0  0  0  0  0  0  0  0  0  0
   45.1230   34.2650   40.6250 O   0  0  0  0  0  0  0  0  0  0  0  0
   42.0380   33.2470   41.1890 C   0  0  0  0  0  0  0  0  0  0  0  0
   42.7980   34.3930   41.3160 C   0  0  0  0  0  0  0  0  0  0  0  0
   42.1590   35.6300   41.2290 C   0  0  0  0  0  0  0  0  0  0  0  0
   40.7920   35.7300   41.0210 C   0  0  0  0  0  0  0  0  0  0  0  0
   40.0370   34.5940   40.8940 C   0  0  0  0  0  0  0  0  0  0  0  0
   40.6760   33.3870   40.9810 C   0  0  0  0  0  0  0  0  0  0  0  0
   42.6620   36.5820   41.3120 H   0  0  0  0  0  0  0  0  0  0  0  0
   40.3050   36.6680   40.9530 H   0  0  0  0  0  0  0  0  0  0  0  0
   38.9830   34.6140   40.7320 H   0  0  0  0  0  0  0  0  0  0  0  0
   40.0690   32.4800   40.8790 H   0  0  0  0  0  0  0  0  0  0  0  0
   42.7350   31.7220   41.2140 S   0  0  0  0  0  0  0  0  0  0  0  0
   41.7330   30.8710   40.4830 O   0  0  0  0  0  0  0  0  0  0  0  0
   42.8210   31.2470   42.6860 O   0  0  0  0  0  0  0  0  0  0  0  0
   45.8340   29.9650   40.9900 H   0  0  0  0  0  0  0  0  0  0  0  0
   44.9460   30.2270   41.5040 N   0  0  0  0  0  0  0  0  0  0  0  0
   44.2370   29.0480   41.9230 C   0  0  0  0  0  2  0  0  0  0  0  0
   43.2940   28.7260   40.8160 C   0  0  0  0  0  2  0  0  0  0  0  0
   43.7500   29.7110   39.7770 C   0  0  0  0  0  2  0  0  0  0  0  0
   44.1040   31.0220   40.6310 C   0  0  1  0  0  3  0  0  0  0  0  0
   44.5820   34.4730   42.9400 C   0  0  0  0  0  0  0  0  0  0  0  0
   44.3030   35.7130   43.5810 C   0  0  0  0  0  0  0  0  0  0  0  0
   44.6230   35.8080   44.9300 C   0  0  0  0  0  0  0  0  0  0  0  0
   45.1740   34.7300   45.5460 N   0  0  0  0  0  0  0  0  0  0  0  0
   45.4260   33.5550   44.8850 C   0  0  0  0  0  0  0  0  0  0  0  0
   45.1210   33.4930   43.6430 N   0  0  0  0  0  0  0  0  0  0  0  0
   43.8720   36.5870   43.1430 H   0  0  0  0  0  0  0  0  0  0  0  0
   44.4590   36.6900   45.5170 H   0  0  0  0  0  0  0  0  0  0  0  0
   46.0210   32.4320   45.6340 C   0  0  1  0  0  0  0  0  0  0  0  0
   46.9720   32.7350   46.7720 C   0  0  0  0  0  0  0  0  0  0  0  0
   45.5590   32.3140   47.0420 C   0  0  1  0  0  0  0  0  0  0  0  0
   46.2820   31.5240   45.0830 H   0  0  0  0  0  0  0  0  0  0  0  0
   47.2980   33.7840   46.9040 H   0  0  0  0  0  0  0  0  0  0  0  0
   47.7510   31.9960   47.0270 H   0  0  0  0  0  0  0  0  0  0  0  0
   45.3760   31.2970   47.4450 H   0  0  0  0  0  0  0  0  0  0  0  0
   44.7820   33.3780   47.6430 N   0  0  0  0  0  0  0  0  0  0  0  0
   45.3810   34.0560   48.1620 H   0  0  0  0  0  0  0  0  0  0  0  0
   44.0440   32.9590   48.2750 H   0  0  0  0  0  0  0  0  0  0  0  0
  1 22  1  0  0  0  0
  2  1  2  0  0  0  0
  3 13  1  0  0  0  0
  3  4  1  0  0  0  0
  4  1  1  0  0  0  0
  5  9  1  0  0  0  0
  5  4  2  0  0  0  0
  6  5  1  0  0  0  0
  7  8  1  0  0  0  0
  7  6  2  0  0  0  0
  8  3  2  0  0  0  0
 10  6  1  0  0  0  0
 11  7  1  0  0  0  0
 12  8  1  0  0  0  0
 13 15  2  0  0  0  0
 14 13  2  0  0  0  0
 16 17  1  0  0  0  0
 17 18  1  0  0  0  0
 19 18  1  0  0  0  0
 20 21  1  0  0  0  0
 20 19  1  0  0  0  0
 21 13  1  1  0  0  0
 21 17  1  0  0  0  0
 22 23  2  0  0  0  0
 22 27  1  0  0  0  0
 23 24  1  0  0  0  0
 24 29  1  0  0  0  0
 24 25  2  0  0  0  0
 26 25  1  0  0  0  0
 26 30  1  0  0  0  0
 27 26  2  0  0  0  0
 28 23  1  0  0  0  0
 30 33  1  6  0  0  0
 30 31  1  0  0  0  0
 30 32  1  0  0  0  0
 31 34  1  0  0  0  0
 31 35  1  0  0  0  0
 31 32  1  0  0  0  0
 32 36  1  1  0  0  0
 32 37  1  0  0  0  0
 37 38  1  0  0  0  0
 37 39  1  0  0  0  0
M  END
>  <minimizedAffinity>
-5.57993984

>  <minimizedRMSD>
1.23119617

$$$$
