
 OpenBabel03252501593D

 31 34  0  0  0  0  0  0  0  0999 V2000
   47.4400   32.3140   48.0590 C   0  0  0  0  0  0  0  0  0  0  0  0
   47.0920   30.9810   48.0710 C   0  0  0  0  0  0  0  0  0  0  0  0
   46.2990   30.5530   47.0480 C   0  0  0  0  0  0  0  0  0  0  0  0
   45.8940   31.4070   46.0930 N   0  0  0  0  0  0  0  0  0  0  0  0
   46.2350   32.6910   46.0890 C   0  0  0  0  0  0  0  0  0  0  0  0
   47.0100   33.1120   47.0890 N   0  0  0  0  0  0  0  0  0  0  0  0
   48.0760   32.6600   48.8780 H   0  0  0  0  0  0  0  0  0  0  0  0
   45.8780   29.2230   46.9490 N   0  0  0  0  0  0  0  0  0  0  0  0
   46.1690   28.3210   45.8240 C   0  0  0  0  0  2  0  0  0  0  0  0
   45.6310   26.9750   46.2460 C   0  0  0  0  0  2  0  0  0  0  0  0
   44.4850   27.3580   47.1880 C   0  0  0  0  0  2  0  0  0  0  0  0
   45.0860   28.5130   47.9370 C   0  0  0  0  0  3  0  0  0  0  0  0
   45.8120   28.1290   48.7100 H   0  0  0  0  0  0  0  0  0  0  0  0
   45.9090   33.7880   45.1550 C   0  0  0  0  0  0  0  0  0  0  0  0
   44.9270   34.6950   45.3810 N   0  0  0  0  0  0  0  0  0  0  0  0
   44.6100   35.6920   44.5640 C   0  0  0  0  0  0  0  0  0  0  0  0
   45.2890   35.8550   43.4050 N   0  0  0  0  0  0  0  0  0  0  0  0
   46.2870   35.0180   43.0690 C   0  0  0  0  0  0  0  0  0  0  0  0
   46.9730   35.1920   41.8890 C   0  0  0  0  0  0  0  0  0  0  0  0
   47.9890   34.3460   41.5360 C   0  0  0  0  0  0  0  0  0  0  0  0
   48.2960   33.3190   42.4070 C   0  0  0  0  0  0  0  0  0  0  0  0
   47.5840   33.1820   43.5760 C   0  0  0  0  0  0  0  0  0  0  0  0
   46.5610   34.0060   43.9660 C   0  0  0  0  0  0  0  0  0  0  0  0
   43.8030   36.3550   44.8550 H   0  0  0  0  0  0  0  0  0  0  0  0
   46.7240   36.0010   41.2110 H   0  0  0  0  0  0  0  0  0  0  0  0
   48.5170   34.4960   40.6060 H   0  0  0  0  0  0  0  0  0  0  0  0
   49.0920   32.6220   42.1750 H   0  0  0  0  0  0  0  0  0  0  0  0
   47.8680   32.3530   44.2290 H   0  0  0  0  0  0  0  0  0  0  0  0
   47.5420   30.1270   49.0940 N   0  0  0  0  0  0  0  0  0  0  0  0
   48.4250   29.5970   48.9080 H   0  0  0  0  0  0  0  0  0  0  0  0
   47.0430   29.9970   50.0210 H   0  0  0  0  0  0  0  0  0  0  0  0
  1  2  1  0  0  0  0
  1  7  1  0  0  0  0
  2 29  1  0  0  0  0
  3  2  2  0  0  0  0
  4  3  1  0  0  0  0
  5  4  2  0  0  0  0
  5  6  1  0  0  0  0
  6  1  2  0  0  0  0
  8  3  1  0  0  0  0
  8 12  1  0  0  0  0
  9 10  1  0  0  0  0
  9  8  1  0  0  0  0
 10 11  1  0  0  0  0
 11 12  1  0  0  0  0
 12 13  1  0  0  0  0
 14 15  1  0  0  0  0
 14  5  1  0  0  0  0
 16 24  1  0  0  0  0
 16 15  2  0  0  0  0
 17 16  1  0  0  0  0
 18 17  2  0  0  0  0
 18 23  1  0  0  0  0
 19 18  1  0  0  0  0
 20 19  2  0  0  0  0
 20 21  1  0  0  0  0
 21 22  2  0  0  0  0
 22 23  1  0  0  0  0
 22 28  1  0  0  0  0
 23 14  2  0  0  0  0
 25 19  1  0  0  0  0
 26 20  1  0  0  0  0
 27 21  1  0  0  0  0
 29 31  1  0  0  0  0
 30 29  1  0  0  0  0
M  END
>  <minimizedAffinity>
-6.33505774

>  <minimizedRMSD>
0.343085676

$$$$
