
 OpenBabel03252502003D

 31 34  0  0  0  0  0  0  0  0999 V2000
   47.1870   32.3210   47.9570 C   0  0  0  0  0  0  0  0  0  0  0  0
   46.8030   30.9970   47.9550 C   0  0  0  0  0  0  0  0  0  0  0  0
   46.0800   30.5780   46.8780 C   0  0  0  0  0  0  0  0  0  0  0  0
   45.7710   31.4310   45.8880 N   0  0  0  0  0  0  0  0  0  0  0  0
   46.1450   32.7060   45.8970 C   0  0  0  0  0  0  0  0  0  0  0  0
   46.8530   33.1190   46.9490 N   0  0  0  0  0  0  0  0  0  0  0  0
   47.7670   32.6600   48.8180 H   0  0  0  0  0  0  0  0  0  0  0  0
   45.6330   29.2580   46.7600 N   0  0  0  0  0  0  0  0  0  0  0  0
   45.4260   28.5410   45.4920 C   0  0  0  0  0  2  0  0  0  0  0  0
   45.0840   27.1250   45.8900 C   0  0  0  0  0  2  0  0  0  0  0  0
   44.4270   27.3160   47.2590 C   0  0  0  0  0  2  0  0  0  0  0  0
   45.3000   28.3790   47.8660 C   0  0  0  0  0  3  0  0  0  0  0  0
   46.2720   27.9200   48.2120 H   0  0  0  0  0  0  0  0  0  0  0  0
   45.9200   33.8010   44.9310 C   0  0  0  0  0  0  0  0  0  0  0  0
   44.9280   34.7170   45.0570 N   0  0  0  0  0  0  0  0  0  0  0  0
   44.7000   35.7120   44.2090 C   0  0  0  0  0  0  0  0  0  0  0  0
   45.4890   35.8620   43.1190 N   0  0  0  0  0  0  0  0  0  0  0  0
   46.5060   35.0140   42.8840 C   0  0  0  0  0  0  0  0  0  0  0  0
   47.3020   35.1750   41.7740 C   0  0  0  0  0  0  0  0  0  0  0  0
   48.3400   34.3180   41.5240 C   0  0  0  0  0  0  0  0  0  0  0  0
   48.5530   33.2940   42.4250 C   0  0  0  0  0  0  0  0  0  0  0  0
   47.7320   33.1700   43.5220 C   0  0  0  0  0  0  0  0  0  0  0  0
   46.6840   34.0060   43.8080 C   0  0  0  0  0  0  0  0  0  0  0  0
   43.8750   36.3840   44.4180 H   0  0  0  0  0  0  0  0  0  0  0  0
   47.1280   35.9830   41.0710 H   0  0  0  0  0  0  0  0  0  0  0  0
   48.9550   34.4590   40.6470 H   0  0  0  0  0  0  0  0  0  0  0  0
   49.3610   32.5890   42.2740 H   0  0  0  0  0  0  0  0  0  0  0  0
   47.9440   32.3430   44.2030 H   0  0  0  0  0  0  0  0  0  0  0  0
   47.1520   30.1450   49.0180 N   0  0  0  0  0  0  0  0  0  0  0  0
   48.0330   29.5900   48.9040 H   0  0  0  0  0  0  0  0  0  0  0  0
   46.5810   30.0380   49.9050 H   0  0  0  0  0  0  0  0  0  0  0  0
  1  7  1  0  0  0  0
  2  1  1  0  0  0  0
  2 29  1  0  0  0  0
  3  2  2  0  0  0  0
  4  5  2  0  0  0  0
  4  3  1  0  0  0  0
  5  6  1  0  0  0  0
  6  1  2  0  0  0  0
  8  3  1  0  0  0  0
  8 12  1  0  0  0  0
  9 10  1  0  0  0  0
  9  8  1  0  0  0  0
 10 11  1  0  0  0  0
 11 12  1  0  0  0  0
 12 13  1  0  0  0  0
 14 15  1  0  0  0  0
 14  5  1  0  0  0  0
 16 24  1  0  0  0  0
 16 15  2  0  0  0  0
 17 16  1  0  0  0  0
 18 17  2  0  0  0  0
 18 23  1  0  0  0  0
 19 18  1  0  0  0  0
 20 19  2  0  0  0  0
 20 21  1  0  0  0  0
 21 22  2  0  0  0  0
 22 23  1  0  0  0  0
 22 28  1  0  0  0  0
 23 14  2  0  0  0  0
 25 19  1  0  0  0  0
 26 20  1  0  0  0  0
 27 21  1  0  0  0  0
 29 31  1  0  0  0  0
 30 29  1  0  0  0  0
M  END
>  <minimizedAffinity>
-6.28107309

>  <minimizedRMSD>
0.608116806

$$$$
