
 OpenBabel03252502003D

 31 34  0  0  0  0  0  0  0  0999 V2000
   47.7080   32.2900   48.2630 C   0  0  0  0  0  0  0  0  0  0  0  0
   47.4040   30.9460   48.3120 C   0  0  0  0  0  0  0  0  0  0  0  0
   46.5570   30.4820   47.3490 C   0  0  0  0  0  0  0  0  0  0  0  0
   46.0610   31.3110   46.4170 N   0  0  0  0  0  0  0  0  0  0  0  0
   46.3580   32.6050   46.3770 C   0  0  0  0  0  0  0  0  0  0  0  0
   47.1870   33.0630   47.3170 N   0  0  0  0  0  0  0  0  0  0  0  0
   48.3870   32.6650   49.0330 H   0  0  0  0  0  0  0  0  0  0  0  0
   46.1740   29.1380   47.2930 N   0  0  0  0  0  0  0  0  0  0  0  0
   46.8780   28.0840   46.5470 C   0  0  0  0  0  2  0  0  0  0  0  0
   46.1700   26.8010   46.9110 C   0  0  0  0  0  2  0  0  0  0  0  0
   44.7500   27.2820   47.2170 C   0  0  0  0  0  2  0  0  0  0  0  0
   45.0200   28.5610   47.9580 C   0  0  0  0  0  3  0  0  0  0  0  0
   45.3440   28.3280   49.0130 H   0  0  0  0  0  0  0  0  0  0  0  0
   45.9340   33.6810   45.4580 C   0  0  0  0  0  0  0  0  0  0  0  0
   44.9430   34.5610   45.7440 N   0  0  0  0  0  0  0  0  0  0  0  0
   44.5390   35.5380   44.9410 C   0  0  0  0  0  0  0  0  0  0  0  0
   45.1290   35.7070   43.7350 N   0  0  0  0  0  0  0  0  0  0  0  0
   46.1250   34.8950   43.3370 C   0  0  0  0  0  0  0  0  0  0  0  0
   46.7200   35.0740   42.1090 C   0  0  0  0  0  0  0  0  0  0  0  0
   47.7330   34.2530   41.6940 C   0  0  0  0  0  0  0  0  0  0  0  0
   48.1330   33.2480   42.5510 C   0  0  0  0  0  0  0  0  0  0  0  0
   47.5100   33.1040   43.7690 C   0  0  0  0  0  0  0  0  0  0  0  0
   46.4930   33.9030   44.2230 C   0  0  0  0  0  0  0  0  0  0  0  0
   43.7350   36.1810   45.2830 H   0  0  0  0  0  0  0  0  0  0  0  0
   46.4000   35.8670   41.4430 H   0  0  0  0  0  0  0  0  0  0  0  0
   48.1890   34.4080   40.7260 H   0  0  0  0  0  0  0  0  0  0  0  0
   48.9300   32.5710   42.2700 H   0  0  0  0  0  0  0  0  0  0  0  0
   47.8640   32.2920   44.4090 H   0  0  0  0  0  0  0  0  0  0  0  0
   47.9510   30.1200   49.3100 N   0  0  0  0  0  0  0  0  0  0  0  0
   48.8360   29.6150   49.0680 H   0  0  0  0  0  0  0  0  0  0  0  0
   47.5210   29.9850   50.2700 H   0  0  0  0  0  0  0  0  0  0  0  0
  1  2  1  0  0  0  0
  1  7  1  0  0  0  0
  2 29  1  0  0  0  0
  3  2  2  0  0  0  0
  4  3  1  0  0  0  0
  5  4  2  0  0  0  0
  5  6  1  0  0  0  0
  6  1  2  0  0  0  0
  8  3  1  0  0  0  0
  8 12  1  0  0  0  0
  9 10  1  0  0  0  0
  9  8  1  0  0  0  0
 10 11  1  0  0  0  0
 11 12  1  0  0  0  0
 12 13  1  0  0  0  0
 14 15  1  0  0  0  0
 14  5  1  0  0  0  0
 16 24  1  0  0  0  0
 16 15  2  0  0  0  0
 17 16  1  0  0  0  0
 18 17  2  0  0  0  0
 18 23  1  0  0  0  0
 19 18  1  0  0  0  0
 20 19  2  0  0  0  0
 20 21  1  0  0  0  0
 21 22  2  0  0  0  0
 22 23  1  0  0  0  0
 22 28  1  0  0  0  0
 23 14  2  0  0  0  0
 25 19  1  0  0  0  0
 26 20  1  0  0  0  0
 27 21  1  0  0  0  0
 29 31  1  0  0  0  0
 30 29  1  0  0  0  0
M  END
>  <minimizedAffinity>
-6.40601158

>  <minimizedRMSD>
0.195557207

$$$$
