
 OpenBabel03242515413D

 33 36  0  0  0  0  0  0  0  0999 V2000
   39.3360   31.0440   41.0390 C   0  0  0  0  0  0  0  0  0  0  0  0
   40.4460   31.7980   40.6850 C   0  0  0  0  0  0  0  0  0  0  0  0
   40.3780   32.4480   39.4520 C   0  0  0  0  0  0  0  0  0  0  0  0
   39.2870   32.3290   38.6780 N   0  0  0  0  0  0  0  0  0  0  0  0
   38.2260   31.5840   39.0600 C   0  0  0  0  0  0  0  0  0  0  0  0
   38.2870   30.9650   40.2320 N   0  0  0  0  0  0  0  0  0  0  0  0
   41.3130   31.8830   41.3190 H   0  0  0  0  0  0  0  0  0  0  0  0
   41.4740   33.2440   39.0100 N   0  0  0  0  0  0  0  0  0  0  0  0
   42.4030   33.9740   39.8490 C   0  0  0  0  0  2  0  0  0  0  0  0
   43.7080   33.9570   39.0580 C   0  0  0  0  0  2  0  0  0  0  0  0
   43.3850   33.2510   37.7520 C   0  0  0  0  0  2  0  0  0  0  0  0
   41.8720   33.4780   37.6570 C   0  0  0  0  0  3  0  0  0  0  0  0
   41.4140   32.8090   36.9140 H   0  0  0  0  0  0  0  0  0  0  0  0
   39.4310   30.2060   42.6400 S   0  0  0  0  0  0  0  0  0  0  0  0
   37.3930   28.5500   43.2210 C   0  0  0  0  0  0  0  0  0  0  0  0
   38.6140   28.6210   42.5620 C   0  0  0  0  0  0  0  0  0  0  0  0
   39.1150   27.5290   41.9130 C   0  0  0  0  0  0  0  0  0  0  0  0
   38.4490   26.3240   41.8780 C   0  0  0  0  0  0  0  0  0  0  0  0
   37.2230   26.2510   42.5400 C   0  0  0  0  0  0  0  0  0  0  0  0
   36.6770   27.3480   43.2160 C   0  0  0  0  0  0  0  0  0  0  0  0
   36.7280   24.9300   42.3710 O   0  0  0  0  0  0  0  0  0  0  0  0
   37.8220   24.1740   41.9500 C   0  0  0  0  0  0  0  0  0  0  0  0
   38.7090   25.0800   41.3130 O   0  0  0  0  0  0  0  0  0  0  0  0
   36.9480   29.3810   43.7510 H   0  0  0  0  0  0  0  0  0  0  0  0
   40.0770   27.6320   41.4090 H   0  0  0  0  0  0  0  0  0  0  0  0
   35.7190   27.2710   43.7240 H   0  0  0  0  0  0  0  0  0  0  0  0
   37.5300   23.3400   41.2810 H   0  0  0  0  0  0  0  0  0  0  0  0
   38.3600   23.8140   42.8530 H   0  0  0  0  0  0  0  0  0  0  0  0
   37.0750   31.4050   38.3380 O   0  0  0  0  0  0  0  0  0  0  0  0
   37.0410   30.3740   37.3730 C   0  0  0  0  0  0  0  0  0  0  0  0
   38.1090   29.5350   37.4550 F   0  0  0  0  0  0  0  0  0  0  0  0
   35.8090   29.7510   37.5440 F   0  0  0  0  0  0  0  0  0  0  0  0
   37.0790   31.0040   36.1240 F   0  0  0  0  0  0  0  0  0  0  0  0
  1 14  1  0  0  0  0
  2  1  1  0  0  0  0
  2  7  1  0  0  0  0
  3  2  2  0  0  0  0
  4  5  2  0  0  0  0
  4  3  1  0  0  0  0
  5  6  1  0  0  0  0
  6  1  2  0  0  0  0
  8  3  1  0  0  0  0
  8  9  1  0  0  0  0
 10  9  1  0  0  0  0
 11 10  1  0  0  0  0
 12 11  1  0  0  0  0
 12  8  1  0  0  0  0
 13 12  1  0  0  0  0
 15 24  1  0  0  0  0
 16 14  1  0  0  0  0
 16 15  2  0  0  0  0
 17 16  1  0  0  0  0
 18 17  2  0  0  0  0
 18 19  1  0  0  0  0
 19 20  2  0  0  0  0
 20 15  1  0  0  0  0
 20 26  1  0  0  0  0
 21 19  1  0  0  0  0
 22 21  1  0  0  0  0
 22 28  1  0  0  0  0
 23 18  1  0  0  0  0
 23 22  1  0  0  0  0
 25 17  1  0  0  0  0
 27 22  1  0  0  0  0
 29  5  1  0  0  0  0
 30 31  1  0  0  0  0
 30 32  1  0  0  0  0
 30 29  1  0  0  0  0
 33 30  1  0  0  0  0
M  END
>  <minimizedAffinity>
-5.89648533

$$$$

 OpenBabel03242515413D

 33 36  0  0  0  0  0  0  0  0999 V2000
   37.1490   28.8640   41.8950 C   0  0  0  0  0  0  0  0  0  0  0  0
   38.0050   29.9340   41.6700 C   0  0  0  0  0  0  0  0  0  0  0  0
   37.5800   30.8710   40.7270 C   0  0  0  0  0  0  0  0  0  0  0  0
   36.4070   30.7160   40.0930 N   0  0  0  0  0  0  0  0  0  0  0  0
   35.6020   29.6590   40.3410 C   0  0  0  0  0  0  0  0  0  0  0  0
   36.0030   28.7660   41.2370 N   0  0  0  0  0  0  0  0  0  0  0  0
   38.9420   30.0420   42.1890 H   0  0  0  0  0  0  0  0  0  0  0  0
   38.3980   32.0000   40.4350 N   0  0  0  0  0  0  0  0  0  0  0  0
   39.3090   32.6640   41.3460 C   0  0  0  0  0  2  0  0  0  0  0  0
   40.4190   33.1910   40.4400 C   0  0  0  0  0  2  0  0  0  0  0  0
   39.9980   32.8290   39.0260 C   0  0  0  0  0  2  0  0  0  0  0  0
   38.4800   32.7000   39.1910 C   0  0  0  0  0  3  0  0  0  0  0  0
   38.0280   32.1800   38.3330 H   0  0  0  0  0  0  0  0  0  0  0  0
   37.7060   27.6540   43.1200 S   0  0  0  0  0  0  0  0  0  0  0  0
   39.0730   25.3890   42.6390 C   0  0  0  0  0  0  0  0  0  0  0  0
   37.8790   26.0440   42.3690 C   0  0  0  0  0  0  0  0  0  0  0  0
   36.9320   25.4590   41.5780 C   0  0  0  0  0  0  0  0  0  0  0  0
   37.1080   24.2130   41.0190 C   0  0  0  0  0  0  0  0  0  0  0  0
   38.3070   23.5530   41.2890 C   0  0  0  0  0  0  0  0  0  0  0  0
   39.3020   24.1200   42.0940 C   0  0  0  0  0  0  0  0  0  0  0  0
   38.2650   22.3030   40.6150 O   0  0  0  0  0  0  0  0  0  0  0  0
   37.2330   22.4180   39.6830 C   0  0  0  0  0  0  0  0  0  0  0  0
   36.3400   23.3930   40.1970 O   0  0  0  0  0  0  0  0  0  0  0  0
   39.8590   25.8020   43.2570 H   0  0  0  0  0  0  0  0  0  0  0  0
   36.0100   26.0110   41.3930 H   0  0  0  0  0  0  0  0  0  0  0  0
   40.2290   23.5890   42.2940 H   0  0  0  0  0  0  0  0  0  0  0  0
   36.7260   21.4510   39.4900 H   0  0  0  0  0  0  0  0  0  0  0  0
   37.6550   22.8590   38.7540 H   0  0  0  0  0  0  0  0  0  0  0  0
   34.3920   29.4200   39.7430 O   0  0  0  0  0  0  0  0  0  0  0  0
   34.3800   28.7920   38.4780 C   0  0  0  0  0  0  0  0  0  0  0  0
   34.9830   27.5720   38.4850 F   0  0  0  0  0  0  0  0  0  0  0  0
   33.0440   28.7670   38.0920 F   0  0  0  0  0  0  0  0  0  0  0  0
   35.1020   29.6280   37.6190 F   0  0  0  0  0  0  0  0  0  0  0  0
  1 14  1  0  0  0  0
  2  1  1  0  0  0  0
  2  7  1  0  0  0  0
  3  2  2  0  0  0  0
  4  5  2  0  0  0  0
  4  3  1  0  0  0  0
  5  6  1  0  0  0  0
  6  1  2  0  0  0  0
  8  3  1  0  0  0  0
  8  9  1  0  0  0  0
 10  9  1  0  0  0  0
 11 12  1  0  0  0  0
 11 10  1  0  0  0  0
 12  8  1  0  0  0  0
 13 12  1  0  0  0  0
 15 24  1  0  0  0  0
 16 15  1  0  0  0  0
 16 14  1  0  0  0  0
 17 16  2  0  0  0  0
 18 19  2  0  0  0  0
 18 17  1  0  0  0  0
 19 20  1  0  0  0  0
 20 26  1  0  0  0  0
 20 15  2  0  0  0  0
 21 19  1  0  0  0  0
 22 23  1  0  0  0  0
 22 21  1  0  0  0  0
 23 18  1  0  0  0  0
 25 17  1  0  0  0  0
 27 22  1  0  0  0  0
 28 22  1  0  0  0  0
 29  5  1  0  0  0  0
 30 31  1  0  0  0  0
 30 29  1  0  0  0  0
 32 30  1  0  0  0  0
 33 30  1  0  0  0  0
M  END
>  <minimizedAffinity>
-5.78551865

$$$$

 OpenBabel03242515413D

 33 36  0  0  0  0  0  0  0  0999 V2000
   36.5460   29.8290   39.2860 C   0  0  0  0  0  0  0  0  0  0  0  0
   37.5740   30.6810   39.6650 C   0  0  0  0  0  0  0  0  0  0  0  0
   38.2380   31.3390   38.6280 C   0  0  0  0  0  0  0  0  0  0  0  0
   37.8780   31.1350   37.3510 N   0  0  0  0  0  0  0  0  0  0  0  0
   36.8700   30.2950   37.0250 C   0  0  0  0  0  0  0  0  0  0  0  0
   36.2370   29.6690   38.0070 N   0  0  0  0  0  0  0  0  0  0  0  0
   37.8490   30.8330   40.6950 H   0  0  0  0  0  0  0  0  0  0  0  0
   39.3060   32.2320   38.9270 N   0  0  0  0  0  0  0  0  0  0  0  0
   39.4520   33.0300   40.1290 C   0  0  0  0  0  2  0  0  0  0  0  0
   40.9630   33.1380   40.3190 C   0  0  0  0  0  2  0  0  0  0  0  0
   41.5770   32.4230   39.1270 C   0  0  0  0  0  2  0  0  0  0  0  0
   40.4390   32.5190   38.1040 C   0  0  0  0  0  3  0  0  0  0  0  0
   40.5960   31.8230   37.2680 H   0  0  0  0  0  0  0  0  0  0  0  0
   35.6890   28.9810   40.6360 S   0  0  0  0  0  0  0  0  0  0  0  0
   37.2740   28.4970   42.7550 C   0  0  0  0  0  0  0  0  0  0  0  0
   36.8320   27.9600   41.5540 C   0  0  0  0  0  0  0  0  0  0  0  0
   37.2670   26.7340   41.1420 C   0  0  0  0  0  0  0  0  0  0  0  0
   38.1500   25.9800   41.8820 C   0  0  0  0  0  0  0  0  0  0  0  0
   38.5950   26.5180   43.0900 C   0  0  0  0  0  0  0  0  0  0  0  0
   38.1720   27.7710   43.5460 C   0  0  0  0  0  0  0  0  0  0  0  0
   39.4850   25.5760   43.6720 O   0  0  0  0  0  0  0  0  0  0  0  0
   39.8270   24.7000   42.6400 C   0  0  0  0  0  0  0  0  0  0  0  0
   38.7490   24.7350   41.7180 O   0  0  0  0  0  0  0  0  0  0  0  0
   36.9630   29.4630   43.1320 H   0  0  0  0  0  0  0  0  0  0  0  0
   36.8930   26.3520   40.1910 H   0  0  0  0  0  0  0  0  0  0  0  0
   38.5290   28.1730   44.4900 H   0  0  0  0  0  0  0  0  0  0  0  0
   40.0290   23.6730   43.0040 H   0  0  0  0  0  0  0  0  0  0  0  0
   40.6970   25.1290   42.0980 H   0  0  0  0  0  0  0  0  0  0  0  0
   36.4350   30.0270   35.7530 O   0  0  0  0  0  0  0  0  0  0  0  0
   36.8480   28.8220   35.1420 C   0  0  0  0  0  0  0  0  0  0  0  0
   38.0530   28.3820   35.5980 F   0  0  0  0  0  0  0  0  0  0  0  0
   35.8000   27.9290   35.3430 F   0  0  0  0  0  0  0  0  0  0  0  0
   36.9760   29.0970   33.7770 F   0  0  0  0  0  0  0  0  0  0  0  0
  1  2  1  0  0  0  0
  1 14  1  0  0  0  0
  2  7  1  0  0  0  0
  3  8  1  0  0  0  0
  3  2  2  0  0  0  0
  4  3  1  0  0  0  0
  5  4  2  0  0  0  0
  5  6  1  0  0  0  0
  6  1  2  0  0  0  0
  8  9  1  0  0  0  0
  9 10  1  0  0  0  0
 11 10  1  0  0  0  0
 12  8  1  0  0  0  0
 12 11  1  0  0  0  0
 13 12  1  0  0  0  0
 14 16  1  0  0  0  0
 15 24  1  0  0  0  0
 15 20  1  0  0  0  0
 16 15  2  0  0  0  0
 17 16  1  0  0  0  0
 17 18  2  0  0  0  0
 18 19  1  0  0  0  0
 19 20  2  0  0  0  0
 19 21  1  0  0  0  0
 20 26  1  0  0  0  0
 22 27  1  0  0  0  0
 22 21  1  0  0  0  0
 23 18  1  0  0  0  0
 23 22  1  0  0  0  0
 25 17  1  0  0  0  0
 28 22  1  0  0  0  0
 29  5  1  0  0  0  0
 30 32  1  0  0  0  0
 30 31  1  0  0  0  0
 30 29  1  0  0  0  0
 33 30  1  0  0  0  0
M  END
>  <minimizedAffinity>
-5.68790245

$$$$

 OpenBabel03242515413D

 33 36  0  0  0  0  0  0  0  0999 V2000
   33.9720   29.0470   36.2390 C   0  0  0  0  0  0  0  0  0  0  0  0
   34.6480   28.9360   37.4460 C   0  0  0  0  0  0  0  0  0  0  0  0
   36.0180   29.2020   37.4080 C   0  0  0  0  0  0  0  0  0  0  0  0
   36.6140   29.5430   36.2540 N   0  0  0  0  0  0  0  0  0  0  0  0
   35.9180   29.6400   35.0990 C   0  0  0  0  0  0  0  0  0  0  0  0
   34.6160   29.3880   35.1320 N   0  0  0  0  0  0  0  0  0  0  0  0
   34.1540   28.6610   38.3630 H   0  0  0  0  0  0  0  0  0  0  0  0
   36.7890   29.1110   38.6010 N   0  0  0  0  0  0  0  0  0  0  0  0
   36.3230   29.3610   39.9510 C   0  0  0  0  0  2  0  0  0  0  0  0
   37.1690   28.4280   40.8130 C   0  0  0  0  0  2  0  0  0  0  0  0
   38.1320   27.7460   39.8550 C   0  0  0  0  0  2  0  0  0  0  0  0
   38.1710   28.7580   38.7040 C   0  0  0  0  0  3  0  0  0  0  0  0
   38.6070   28.3140   37.7970 H   0  0  0  0  0  0  0  0  0  0  0  0
   32.1960   28.7010   36.2980 S   0  0  0  0  0  0  0  0  0  0  0  0
   30.9050   31.0570   36.1830 C   0  0  0  0  0  0  0  0  0  0  0  0
   31.2880   29.9620   35.4200 C   0  0  0  0  0  0  0  0  0  0  0  0
   30.9690   29.8970   34.0940 C   0  0  0  0  0  0  0  0  0  0  0  0
   30.2660   30.8940   33.4560 C   0  0  0  0  0  0  0  0  0  0  0  0
   29.8800   31.9950   34.2220 C   0  0  0  0  0  0  0  0  0  0  0  0
   30.1880   32.0980   35.5830 C   0  0  0  0  0  0  0  0  0  0  0  0
   29.1770   32.8830   33.3630 O   0  0  0  0  0  0  0  0  0  0  0  0
   28.8450   32.1270   32.2380 C   0  0  0  0  0  0  0  0  0  0  0  0
   29.8120   31.0920   32.1560 O   0  0  0  0  0  0  0  0  0  0  0  0
   31.1290   31.1630   37.2350 H   0  0  0  0  0  0  0  0  0  0  0  0
   31.2900   29.0170   33.5340 H   0  0  0  0  0  0  0  0  0  0  0  0
   29.8800   32.9650   36.1610 H   0  0  0  0  0  0  0  0  0  0  0  0
   28.8100   32.7370   31.3130 H   0  0  0  0  0  0  0  0  0  0  0  0
   27.8780   31.6170   32.4380 H   0  0  0  0  0  0  0  0  0  0  0  0
   36.4400   29.9800   33.8780 O   0  0  0  0  0  0  0  0  0  0  0  0
   36.5100   31.3480   33.5360 C   0  0  0  0  0  0  0  0  0  0  0  0
   36.9670   32.1270   34.5530 F   0  0  0  0  0  0  0  0  0  0  0  0
   37.2860   31.4000   32.3820 F   0  0  0  0  0  0  0  0  0  0  0  0
   35.2010   31.7460   33.2400 F   0  0  0  0  0  0  0  0  0  0  0  0
  1 14  1  0  0  0  0
  1  2  1  0  0  0  0
  2  7  1  0  0  0  0
  3  2  2  0  0  0  0
  3  8  1  0  0  0  0
  4  3  1  0  0  0  0
  5  6  1  0  0  0  0
  5  4  2  0  0  0  0
  6  1  2  0  0  0  0
  8 12  1  0  0  0  0
  8  9  1  0  0  0  0
  9 10  1  0  0  0  0
 11 10  1  0  0  0  0
 12 11  1  0  0  0  0
 13 12  1  0  0  0  0
 15 24  1  0  0  0  0
 16 15  2  0  0  0  0
 16 14  1  0  0  0  0
 17 16  1  0  0  0  0
 18 17  2  0  0  0  0
 18 19  1  0  0  0  0
 19 20  2  0  0  0  0
 20 26  1  0  0  0  0
 20 15  1  0  0  0  0
 21 19  1  0  0  0  0
 22 28  1  0  0  0  0
 22 21  1  0  0  0  0
 23 22  1  0  0  0  0
 23 18  1  0  0  0  0
 25 17  1  0  0  0  0
 27 22  1  0  0  0  0
 29  5  1  0  0  0  0
 30 29  1  0  0  0  0
 30 31  1  0  0  0  0
 32 30  1  0  0  0  0
 33 30  1  0  0  0  0
M  END
>  <minimizedAffinity>
-5.66449547

$$$$

 OpenBabel03242515413D

 33 36  0  0  0  0  0  0  0  0999 V2000
   38.2930   29.4420   42.5900 C   0  0  0  0  0  0  0  0  0  0  0  0
   39.6140   29.8280   42.7680 C   0  0  0  0  0  0  0  0  0  0  0  0
   40.0630   30.8710   41.9580 C   0  0  0  0  0  0  0  0  0  0  0  0
   39.2380   31.4470   41.0680 N   0  0  0  0  0  0  0  0  0  0  0  0
   37.9570   31.0410   40.9250 C   0  0  0  0  0  0  0  0  0  0  0  0
   37.5270   30.0490   41.6940 N   0  0  0  0  0  0  0  0  0  0  0  0
   40.2620   29.3550   43.4870 H   0  0  0  0  0  0  0  0  0  0  0  0
   41.4060   31.3300   42.0750 N   0  0  0  0  0  0  0  0  0  0  0  0
   42.2230   31.3120   43.2730 C   0  0  0  0  0  2  0  0  0  0  0  0
   43.6450   31.1330   42.7480 C   0  0  0  0  0  2  0  0  0  0  0  0
   43.5240   31.1330   41.2330 C   0  0  0  0  0  2  0  0  0  0  0  0
   42.2110   31.8990   41.0390 C   0  0  0  0  0  3  0  0  0  0  0  0
   41.8200   31.7680   40.0200 H   0  0  0  0  0  0  0  0  0  0  0  0
   37.7190   28.0890   43.6450 S   0  0  0  0  0  0  0  0  0  0  0  0
   39.2060   25.9690   42.9150 C   0  0  0  0  0  0  0  0  0  0  0  0
   37.9350   26.5210   42.8180 C   0  0  0  0  0  0  0  0  0  0  0  0
   36.9500   25.8740   42.1280 C   0  0  0  0  0  0  0  0  0  0  0  0
   37.1610   24.6650   41.5050 C   0  0  0  0  0  0  0  0  0  0  0  0
   38.4380   24.1090   41.6010 C   0  0  0  0  0  0  0  0  0  0  0  0
   39.4730   24.7420   42.2990 C   0  0  0  0  0  0  0  0  0  0  0  0
   38.4190   22.8790   40.8910 O   0  0  0  0  0  0  0  0  0  0  0  0
   37.2730   22.9240   40.0970 C   0  0  0  0  0  0  0  0  0  0  0  0
   36.3700   23.8010   40.7540 O   0  0  0  0  0  0  0  0  0  0  0  0
   40.0230   26.4360   43.4470 H   0  0  0  0  0  0  0  0  0  0  0  0
   35.9680   26.3450   42.0790 H   0  0  0  0  0  0  0  0  0  0  0  0
   40.4600   24.2920   42.3630 H   0  0  0  0  0  0  0  0  0  0  0  0
   36.8300   21.9210   39.9320 H   0  0  0  0  0  0  0  0  0  0  0  0
   37.5350   23.4260   39.1410 H   0  0  0  0  0  0  0  0  0  0  0  0
   37.0460   31.5670   40.0460 O   0  0  0  0  0  0  0  0  0  0  0  0
   37.1120   31.1700   38.6930 C   0  0  0  0  0  0  0  0  0  0  0  0
   38.2200   30.4320   38.4100 F   0  0  0  0  0  0  0  0  0  0  0  0
   35.9100   30.5160   38.4420 F   0  0  0  0  0  0  0  0  0  0  0  0
   37.1730   32.3480   37.9410 F   0  0  0  0  0  0  0  0  0  0  0  0
  1  2  1  0  0  0  0
  1 14  1  0  0  0  0
  2  7  1  0  0  0  0
  3  8  1  0  0  0  0
  3  2  2  0  0  0  0
  4  3  1  0  0  0  0
  5  4  2  0  0  0  0
  5  6  1  0  0  0  0
  6  1  2  0  0  0  0
  8  9  1  0  0  0  0
 10  9  1  0  0  0  0
 11 10  1  0  0  0  0
 12 11  1  0  0  0  0
 12  8  1  0  0  0  0
 13 12  1  0  0  0  0
 15 24  1  0  0  0  0
 16 15  1  0  0  0  0
 16 14  1  0  0  0  0
 17 16  2  0  0  0  0
 18 19  2  0  0  0  0
 18 17  1  0  0  0  0
 19 20  1  0  0  0  0
 20 26  1  0  0  0  0
 20 15  2  0  0  0  0
 21 19  1  0  0  0  0
 22 23  1  0  0  0  0
 22 21  1  0  0  0  0
 23 18  1  0  0  0  0
 25 17  1  0  0  0  0
 27 22  1  0  0  0  0
 28 22  1  0  0  0  0
 29  5  1  0  0  0  0
 30 29  1  0  0  0  0
 31 30  1  0  0  0  0
 32 30  1  0  0  0  0
 33 30  1  0  0  0  0
M  END
>  <minimizedAffinity>
-5.65010357

$$$$

 OpenBabel03242515413D

 33 36  0  0  0  0  0  0  0  0999 V2000
   36.8610   27.9770   40.8700 C   0  0  0  0  0  0  0  0  0  0  0  0
   36.0260   28.3050   39.8120 C   0  0  0  0  0  0  0  0  0  0  0  0
   35.8320   27.3100   38.8520 C   0  0  0  0  0  0  0  0  0  0  0  0
   36.4350   26.1160   38.9770 N   0  0  0  0  0  0  0  0  0  0  0  0
   37.2420   25.8370   40.0250 C   0  0  0  0  0  0  0  0  0  0  0  0
   37.4280   26.7810   40.9380 N   0  0  0  0  0  0  0  0  0  0  0  0
   35.5500   29.2670   39.7270 H   0  0  0  0  0  0  0  0  0  0  0  0
   34.9890   27.5610   37.7320 N   0  0  0  0  0  0  0  0  0  0  0  0
   33.8400   28.4440   37.6980 C   0  0  0  0  0  2  0  0  0  0  0  0
   33.8080   28.9550   36.2610 C   0  0  0  0  0  2  0  0  0  0  0  0
   34.9450   28.2420   35.5480 C   0  0  0  0  0  2  0  0  0  0  0  0
   35.1100   26.9950   36.4250 C   0  0  0  0  0  3  0  0  0  0  0  0
   36.0650   26.4890   36.2220 H   0  0  0  0  0  0  0  0  0  0  0  0
   37.1060   29.2720   42.1100 S   0  0  0  0  0  0  0  0  0  0  0  0
   36.9930   31.5340   40.6580 C   0  0  0  0  0  0  0  0  0  0  0  0
   37.8580   30.7110   41.3660 C   0  0  0  0  0  0  0  0  0  0  0  0
   39.1850   31.0190   41.4600 C   0  0  0  0  0  0  0  0  0  0  0  0
   39.7240   32.1400   40.8700 C   0  0  0  0  0  0  0  0  0  0  0  0
   38.8550   32.9690   40.1580 C   0  0  0  0  0  0  0  0  0  0  0  0
   37.4900   32.6860   40.0390 C   0  0  0  0  0  0  0  0  0  0  0  0
   39.6240   34.0470   39.6450 O   0  0  0  0  0  0  0  0  0  0  0  0
   40.9540   33.6370   39.7430 C   0  0  0  0  0  0  0  0  0  0  0  0
   41.0000   32.6910   40.7990 O   0  0  0  0  0  0  0  0  0  0  0  0
   35.9340   31.3410   40.5500 H   0  0  0  0  0  0  0  0  0  0  0  0
   39.8270   30.3430   42.0260 H   0  0  0  0  0  0  0  0  0  0  0  0
   36.8300   33.3450   39.4820 H   0  0  0  0  0  0  0  0  0  0  0  0
   41.6480   34.4840   39.9140 H   0  0  0  0  0  0  0  0  0  0  0  0
   41.2090   33.0690   38.8220 H   0  0  0  0  0  0  0  0  0  0  0  0
   37.8970   24.6510   40.2340 O   0  0  0  0  0  0  0  0  0  0  0  0
   37.4280   23.7960   41.2550 C   0  0  0  0  0  0  0  0  0  0  0  0
   38.0330   24.0190   42.4540 F   0  0  0  0  0  0  0  0  0  0  0  0
   36.0470   23.9660   41.2720 F   0  0  0  0  0  0  0  0  0  0  0  0
   37.7370   22.4940   40.8500 F   0  0  0  0  0  0  0  0  0  0  0  0
  1  6  1  0  0  0  0
  1 14  1  0  0  0  0
  2  1  2  0  0  0  0
  3  4  2  0  0  0  0
  3  2  1  0  0  0  0
  4  5  1  0  0  0  0
  5 29  1  0  0  0  0
  5  6  2  0  0  0  0
  7  2  1  0  0  0  0
  8  3  1  0  0  0  0
  9  8  1  0  0  0  0
 10  9  1  0  0  0  0
 11 10  1  0  0  0  0
 11 12  1  0  0  0  0
 12  8  1  0  0  0  0
 13 12  1  0  0  0  0
 15 16  1  0  0  0  0
 16 17  2  0  0  0  0
 16 14  1  0  0  0  0
 17 25  1  0  0  0  0
 18 17  1  0  0  0  0
 19 18  2  0  0  0  0
 20 19  1  0  0  0  0
 20 15  2  0  0  0  0
 21 22  1  0  0  0  0
 21 19  1  0  0  0  0
 22 27  1  0  0  0  0
 22 23  1  0  0  0  0
 23 18  1  0  0  0  0
 24 15  1  0  0  0  0
 26 20  1  0  0  0  0
 28 22  1  0  0  0  0
 29 30  1  0  0  0  0
 30 32  1  0  0  0  0
 30 31  1  0  0  0  0
 33 30  1  0  0  0  0
M  END
>  <minimizedAffinity>
-5.64661646

$$$$

 OpenBabel03242515413D

 33 36  0  0  0  0  0  0  0  0999 V2000
   37.0570   30.6400   39.4410 C   0  0  0  0  0  0  0  0  0  0  0  0
   38.1840   31.4280   39.6290 C   0  0  0  0  0  0  0  0  0  0  0  0
   38.8470   31.8330   38.4700 C   0  0  0  0  0  0  0  0  0  0  0  0
   38.3940   31.4650   37.2600 N   0  0  0  0  0  0  0  0  0  0  0  0
   37.2910   30.6960   37.1220 C   0  0  0  0  0  0  0  0  0  0  0  0
   36.6580   30.3090   38.2220 N   0  0  0  0  0  0  0  0  0  0  0  0
   38.5330   31.7140   40.6060 H   0  0  0  0  0  0  0  0  0  0  0  0
   40.0140   32.6440   38.5700 N   0  0  0  0  0  0  0  0  0  0  0  0
   40.3100   33.6050   39.6130 C   0  0  0  0  0  2  0  0  0  0  0  0
   41.8320   33.5800   39.7190 C   0  0  0  0  0  2  0  0  0  0  0  0
   42.3010   32.6200   38.6390 C   0  0  0  0  0  2  0  0  0  0  0  0
   41.1200   32.6700   37.6630 C   0  0  0  0  0  3  0  0  0  0  0  0
   41.1570   31.8350   36.9490 H   0  0  0  0  0  0  0  0  0  0  0  0
   36.2020   30.1190   40.9490 S   0  0  0  0  0  0  0  0  0  0  0  0
   36.8530   28.1450   42.6560 C   0  0  0  0  0  0  0  0  0  0  0  0
   36.5810   28.4140   41.3220 C   0  0  0  0  0  0  0  0  0  0  0  0
   36.6140   27.4140   40.3930 C   0  0  0  0  0  0  0  0  0  0  0  0
   36.9110   26.1120   40.7250 C   0  0  0  0  0  0  0  0  0  0  0  0
   37.1840   25.8390   42.0660 C   0  0  0  0  0  0  0  0  0  0  0  0
   37.1610   26.8370   43.0460 C   0  0  0  0  0  0  0  0  0  0  0  0
   37.4610   24.4490   42.1680 O   0  0  0  0  0  0  0  0  0  0  0  0
   37.7100   24.0220   40.8640 C   0  0  0  0  0  0  0  0  0  0  0  0
   37.0160   24.9210   40.0130 O   0  0  0  0  0  0  0  0  0  0  0  0
   36.8420   28.8960   43.4350 H   0  0  0  0  0  0  0  0  0  0  0  0
   36.3940   27.6730   39.3560 H   0  0  0  0  0  0  0  0  0  0  0  0
   37.3750   26.6040   44.0860 H   0  0  0  0  0  0  0  0  0  0  0  0
   37.4020   22.9700   40.6950 H   0  0  0  0  0  0  0  0  0  0  0  0
   38.7880   24.1800   40.6490 H   0  0  0  0  0  0  0  0  0  0  0  0
   36.7570   30.2740   35.9320 O   0  0  0  0  0  0  0  0  0  0  0  0
   36.9870   28.9400   35.5300 C   0  0  0  0  0  0  0  0  0  0  0  0
   38.1630   28.4390   35.9990 F   0  0  0  0  0  0  0  0  0  0  0  0
   35.8610   28.2320   35.9380 F   0  0  0  0  0  0  0  0  0  0  0  0
   37.0510   28.9570   34.1320 F   0  0  0  0  0  0  0  0  0  0  0  0
  1  2  1  0  0  0  0
  1 14  1  0  0  0  0
  2  7  1  0  0  0  0
  3  8  1  0  0  0  0
  3  2  2  0  0  0  0
  4  3  1  0  0  0  0
  5  4  2  0  0  0  0
  5  6  1  0  0  0  0
  6  1  2  0  0  0  0
  8  9  1  0  0  0  0
  9 10  1  0  0  0  0
 11 10  1  0  0  0  0
 12  8  1  0  0  0  0
 12 11  1  0  0  0  0
 13 12  1  0  0  0  0
 14 16  1  0  0  0  0
 15 20  1  0  0  0  0
 15 24  1  0  0  0  0
 16 15  2  0  0  0  0
 17 18  2  0  0  0  0
 17 16  1  0  0  0  0
 18 19  1  0  0  0  0
 19 21  1  0  0  0  0
 19 20  2  0  0  0  0
 20 26  1  0  0  0  0
 22 21  1  0  0  0  0
 23 18  1  0  0  0  0
 23 22  1  0  0  0  0
 25 17  1  0  0  0  0
 27 22  1  0  0  0  0
 28 22  1  0  0  0  0
 29  5  1  0  0  0  0
 30 29  1  0  0  0  0
 30 32  1  0  0  0  0
 30 31  1  0  0  0  0
 33 30  1  0  0  0  0
M  END
>  <minimizedAffinity>
-5.60988808

$$$$

 OpenBabel03242515413D

 33 36  0  0  0  0  0  0  0  0999 V2000
   41.1410   31.1590   41.2460 C   0  0  0  0  0  0  0  0  0  0  0  0
   42.2880   31.8760   40.9370 C   0  0  0  0  0  0  0  0  0  0  0  0
   42.1600   32.8320   39.9280 C   0  0  0  0  0  0  0  0  0  0  0  0
   40.9810   33.0200   39.3130 N   0  0  0  0  0  0  0  0  0  0  0  0
   39.8870   32.2990   39.6440 C   0  0  0  0  0  0  0  0  0  0  0  0
   40.0050   31.3900   40.6030 N   0  0  0  0  0  0  0  0  0  0  0  0
   43.2260   31.7120   41.4410 H   0  0  0  0  0  0  0  0  0  0  0  0
   43.2880   33.6140   39.5470 N   0  0  0  0  0  0  0  0  0  0  0  0
   44.3910   34.0100   40.4000 C   0  0  0  0  0  2  0  0  0  0  0  0
   45.5840   34.0850   39.4520 C   0  0  0  0  0  2  0  0  0  0  0  0
   45.0280   33.7810   38.0710 C   0  0  0  0  0  2  0  0  0  0  0  0
   43.5540   34.1610   38.2530 C   0  0  0  0  0  3  0  0  0  0  0  0
   42.9350   33.7560   37.4390 H   0  0  0  0  0  0  0  0  0  0  0  0
   41.3150   29.9220   42.5560 S   0  0  0  0  0  0  0  0  0  0  0  0
   38.7780   29.2760   43.1720 C   0  0  0  0  0  0  0  0  0  0  0  0
   39.9230   28.8040   42.5440 C   0  0  0  0  0  0  0  0  0  0  0  0
   39.9380   27.5640   41.9720 C   0  0  0  0  0  0  0  0  0  0  0  0
   38.8400   26.7340   41.9870 C   0  0  0  0  0  0  0  0  0  0  0  0
   37.6890   27.2070   42.6180 C   0  0  0  0  0  0  0  0  0  0  0  0
   37.6350   28.4710   43.2150 C   0  0  0  0  0  0  0  0  0  0  0  0
   36.7000   26.1920   42.5090 O   0  0  0  0  0  0  0  0  0  0  0  0
   37.3920   25.0320   42.1630 C   0  0  0  0  0  0  0  0  0  0  0  0
   38.5730   25.4580   41.5010 O   0  0  0  0  0  0  0  0  0  0  0  0
   38.7080   30.2480   43.6410 H   0  0  0  0  0  0  0  0  0  0  0  0
   40.8600   27.2360   41.4910 H   0  0  0  0  0  0  0  0  0  0  0  0
   36.7270   28.8210   43.7000 H   0  0  0  0  0  0  0  0  0  0  0  0
   36.7880   24.3480   41.5340 H   0  0  0  0  0  0  0  0  0  0  0  0
   37.7360   24.5420   43.0990 H   0  0  0  0  0  0  0  0  0  0  0  0
   38.6470   32.4230   39.0720 O   0  0  0  0  0  0  0  0  0  0  0  0
   37.6420   33.1070   39.7910 C   0  0  0  0  0  0  0  0  0  0  0  0
   36.9450   32.2950   40.6320 F   0  0  0  0  0  0  0  0  0  0  0  0
   38.2940   34.1610   40.4230 F   0  0  0  0  0  0  0  0  0  0  0  0
   36.7500   33.6090   38.8360 F   0  0  0  0  0  0  0  0  0  0  0  0
  1 14  1  0  0  0  0
  2  1  1  0  0  0  0
  2  7  1  0  0  0  0
  3  2  2  0  0  0  0
  4  5  2  0  0  0  0
  4  3  1  0  0  0  0
  5  6  1  0  0  0  0
  6  1  2  0  0  0  0
  8  3  1  0  0  0  0
  8  9  1  0  0  0  0
 10  9  1  0  0  0  0
 11 12  1  0  0  0  0
 11 10  1  0  0  0  0
 12  8  1  0  0  0  0
 13 12  1  0  0  0  0
 15 20  1  0  0  0  0
 15 24  1  0  0  0  0
 16 14  1  0  0  0  0
 16 15  2  0  0  0  0
 17 18  2  0  0  0  0
 17 16  1  0  0  0  0
 18 19  1  0  0  0  0
 19 20  2  0  0  0  0
 20 26  1  0  0  0  0
 21 19  1  0  0  0  0
 22 21  1  0  0  0  0
 22 28  1  0  0  0  0
 23 18  1  0  0  0  0
 23 22  1  0  0  0  0
 25 17  1  0  0  0  0
 27 22  1  0  0  0  0
 29  5  1  0  0  0  0
 29 30  1  0  0  0  0
 30 32  1  0  0  0  0
 30 31  1  0  0  0  0
 33 30  1  0  0  0  0
M  END
>  <minimizedAffinity>
-5.60166359

$$$$

 OpenBabel03242515413D

 33 36  0  0  0  0  0  0  0  0999 V2000
   36.6770   28.8350   41.8120 C   0  0  0  0  0  0  0  0  0  0  0  0
   37.5730   29.8730   41.5950 C   0  0  0  0  0  0  0  0  0  0  0  0
   37.3400   30.6580   40.4640 C   0  0  0  0  0  0  0  0  0  0  0  0
   36.3000   30.3960   39.6550 N   0  0  0  0  0  0  0  0  0  0  0  0
   35.4500   29.3750   39.9030 C   0  0  0  0  0  0  0  0  0  0  0  0
   35.6690   28.6270   40.9770 N   0  0  0  0  0  0  0  0  0  0  0  0
   38.4010   30.0690   42.2540 H   0  0  0  0  0  0  0  0  0  0  0  0
   38.2110   31.7440   40.1660 N   0  0  0  0  0  0  0  0  0  0  0  0
   38.9490   32.5460   41.1210 C   0  0  0  0  0  2  0  0  0  0  0  0
   40.2120   32.9510   40.3670 C   0  0  0  0  0  2  0  0  0  0  0  0
   40.0530   32.3820   38.9670 C   0  0  0  0  0  2  0  0  0  0  0  0
   38.5280   32.2570   38.8690 C   0  0  0  0  0  3  0  0  0  0  0  0
   38.2340   31.6120   38.0280 H   0  0  0  0  0  0  0  0  0  0  0  0
   36.9850   27.8240   43.2800 S   0  0  0  0  0  0  0  0  0  0  0  0
   38.4350   25.6860   42.5310 C   0  0  0  0  0  0  0  0  0  0  0  0
   38.5290   26.9420   43.1140 C   0  0  0  0  0  0  0  0  0  0  0  0
   39.7390   27.4290   43.5180 C   0  0  0  0  0  0  0  0  0  0  0  0
   40.9060   26.7140   43.3710 C   0  0  0  0  0  0  0  0  0  0  0  0
   40.8140   25.4510   42.7850 C   0  0  0  0  0  0  0  0  0  0  0  0
   39.5920   24.9180   42.3590 C   0  0  0  0  0  0  0  0  0  0  0  0
   42.1260   24.9080   42.7380 O   0  0  0  0  0  0  0  0  0  0  0  0
   42.8820   25.6840   43.6180 C   0  0  0  0  0  0  0  0  0  0  0  0
   42.2430   26.9490   43.6800 O   0  0  0  0  0  0  0  0  0  0  0  0
   37.5050   25.2490   42.1930 H   0  0  0  0  0  0  0  0  0  0  0  0
   39.7650   28.4210   43.9710 H   0  0  0  0  0  0  0  0  0  0  0  0
   39.5410   23.9320   41.9040 H   0  0  0  0  0  0  0  0  0  0  0  0
   43.9420   25.7690   43.3050 H   0  0  0  0  0  0  0  0  0  0  0  0
   42.7810   25.2480   44.6350 H   0  0  0  0  0  0  0  0  0  0  0  0
   34.3660   29.0350   39.1360 O   0  0  0  0  0  0  0  0  0  0  0  0
   34.5960   28.4300   37.8800 C   0  0  0  0  0  0  0  0  0  0  0  0
   35.7650   27.7350   37.8320 F   0  0  0  0  0  0  0  0  0  0  0  0
   33.4630   27.6620   37.6290 F   0  0  0  0  0  0  0  0  0  0  0  0
   34.6730   29.4730   36.9510 F   0  0  0  0  0  0  0  0  0  0  0  0
  1 14  1  0  0  0  0
  2  1  1  0  0  0  0
  2  7  1  0  0  0  0
  3  2  2  0  0  0  0
  4  5  2  0  0  0  0
  4  3  1  0  0  0  0
  5  6  1  0  0  0  0
  6  1  2  0  0  0  0
  8  3  1  0  0  0  0
  8  9  1  0  0  0  0
 10  9  1  0  0  0  0
 11 10  1  0  0  0  0
 12 11  1  0  0  0  0
 12  8  1  0  0  0  0
 13 12  1  0  0  0  0
 15 16  1  0  0  0  0
 16 14  1  0  0  0  0
 16 17  2  0  0  0  0
 17 25  1  0  0  0  0
 18 17  1  0  0  0  0
 18 23  1  0  0  0  0
 19 18  2  0  0  0  0
 20 15  2  0  0  0  0
 20 19  1  0  0  0  0
 21 19  1  0  0  0  0
 21 22  1  0  0  0  0
 22 23  1  0  0  0  0
 22 28  1  0  0  0  0
 24 15  1  0  0  0  0
 26 20  1  0  0  0  0
 27 22  1  0  0  0  0
 29  5  1  0  0  0  0
 30 29  1  0  0  0  0
 31 30  1  0  0  0  0
 32 30  1  0  0  0  0
 33 30  1  0  0  0  0
M  END
>  <minimizedAffinity>
-5.59492874

$$$$
