
 OpenBabel03252501593D

 31 34  0  0  0  0  0  0  0  0999 V2000
   47.6450   32.2860   48.1850 C   0  0  0  0  0  0  0  0  0  0  0  0
   47.3070   30.9510   48.2330 C   0  0  0  0  0  0  0  0  0  0  0  0
   46.4510   30.5080   47.2680 C   0  0  0  0  0  0  0  0  0  0  0  0
   45.9780   31.3500   46.3350 N   0  0  0  0  0  0  0  0  0  0  0  0
   46.3090   32.6360   46.2960 C   0  0  0  0  0  0  0  0  0  0  0  0
   47.1460   33.0720   47.2380 N   0  0  0  0  0  0  0  0  0  0  0  0
   48.3310   32.6440   48.9570 H   0  0  0  0  0  0  0  0  0  0  0  0
   46.0340   29.1740   47.2100 N   0  0  0  0  0  0  0  0  0  0  0  0
   46.9120   28.0030   47.3590 C   0  0  0  0  0  2  0  0  0  0  0  0
   45.9830   26.8120   47.3640 C   0  0  0  0  0  2  0  0  0  0  0  0
   44.8060   27.3050   46.5200 C   0  0  0  0  0  2  0  0  0  0  0  0
   44.6710   28.7250   46.9950 C   0  0  0  0  0  3  0  0  0  0  0  0
   44.1680   28.7410   48.0050 H   0  0  0  0  0  0  0  0  0  0  0  0
   45.9140   33.7220   45.3750 C   0  0  0  0  0  0  0  0  0  0  0  0
   44.9360   34.6180   45.6530 N   0  0  0  0  0  0  0  0  0  0  0  0
   44.5580   35.6050   44.8490 C   0  0  0  0  0  0  0  0  0  0  0  0
   45.1650   35.7670   43.6510 N   0  0  0  0  0  0  0  0  0  0  0  0
   46.1510   34.9400   43.2620 C   0  0  0  0  0  0  0  0  0  0  0  0
   46.7630   35.1120   42.0420 C   0  0  0  0  0  0  0  0  0  0  0  0
   47.7670   34.2760   41.6350 C   0  0  0  0  0  0  0  0  0  0  0  0
   48.1390   33.2600   42.4930 C   0  0  0  0  0  0  0  0  0  0  0  0
   47.4990   33.1240   43.7030 C   0  0  0  0  0  0  0  0  0  0  0  0
   46.4910   33.9390   44.1480 C   0  0  0  0  0  0  0  0  0  0  0  0
   43.7610   36.2600   45.1840 H   0  0  0  0  0  0  0  0  0  0  0  0
   46.4650   35.9130   41.3740 H   0  0  0  0  0  0  0  0  0  0  0  0
   48.2360   34.4260   40.6730 H   0  0  0  0  0  0  0  0  0  0  0  0
   48.9280   32.5710   42.2190 H   0  0  0  0  0  0  0  0  0  0  0  0
   47.8320   32.3030   44.3440 H   0  0  0  0  0  0  0  0  0  0  0  0
   47.8310   30.1110   49.2320 N   0  0  0  0  0  0  0  0  0  0  0  0
   48.7030   29.5840   48.9930 H   0  0  0  0  0  0  0  0  0  0  0  0
   47.3950   29.9870   50.1910 H   0  0  0  0  0  0  0  0  0  0  0  0
  1  2  1  0  0  0  0
  1  7  1  0  0  0  0
  2 29  1  0  0  0  0
  3  2  2  0  0  0  0
  4  3  1  0  0  0  0
  5  4  2  0  0  0  0
  5  6  1  0  0  0  0
  6  1  2  0  0  0  0
  8  3  1  0  0  0  0
  8  9  1  0  0  0  0
  9 10  1  0  0  0  0
 11 12  1  0  0  0  0
 11 10  1  0  0  0  0
 12  8  1  0  0  0  0
 12 13  1  0  0  0  0
 14 15  1  0  0  0  0
 14  5  1  0  0  0  0
 16 24  1  0  0  0  0
 16 15  2  0  0  0  0
 17 16  1  0  0  0  0
 18 17  2  0  0  0  0
 18 23  1  0  0  0  0
 19 18  1  0  0  0  0
 20 19  2  0  0  0  0
 20 21  1  0  0  0  0
 21 22  2  0  0  0  0
 22 23  1  0  0  0  0
 22 28  1  0  0  0  0
 23 14  2  0  0  0  0
 25 19  1  0  0  0  0
 26 20  1  0  0  0  0
 27 21  1  0  0  0  0
 29 31  1  0  0  0  0
 30 29  1  0  0  0  0
M  END
>  <minimizedAffinity>
-6.39070034

>  <minimizedRMSD>
0.131285578

$$$$
