
 OpenBabel03252508023D

 39 42  0  0  1  0  0  0  0  0999 V2000
   44.1560   34.1200   41.5020 C   0  0  0  0  0  0  0  0  0  0  0  0
   44.9920   33.7850   40.5950 O   0  0  0  0  0  0  0  0  0  0  0  0
   41.7930   33.3170   41.3560 C   0  0  0  0  0  0  0  0  0  0  0  0
   42.7250   34.3330   41.2740 C   0  0  0  0  0  0  0  0  0  0  0  0
   42.2840   35.6210   40.9700 C   0  0  0  0  0  0  0  0  0  0  0  0
   40.9430   35.8980   40.7500 C   0  0  0  0  0  0  0  0  0  0  0  0
   40.0170   34.8910   40.8300 C   0  0  0  0  0  0  0  0  0  0  0  0
   40.4630   33.6330   41.1300 C   0  0  0  0  0  0  0  0  0  0  0  0
   42.9310   36.4810   40.8790 H   0  0  0  0  0  0  0  0  0  0  0  0
   40.6060   36.8740   40.5180 H   0  0  0  0  0  0  0  0  0  0  0  0
   38.9740   35.0490   40.6700 H   0  0  0  0  0  0  0  0  0  0  0  0
   39.7200   32.8300   41.1930 H   0  0  0  0  0  0  0  0  0  0  0  0
   42.2440   31.7290   41.6510 S   0  0  0  0  0  0  0  0  0  0  0  0
   42.0590   31.0620   40.3150 O   0  0  0  0  0  0  0  0  0  0  0  0
   41.2450   31.1170   42.6640 O   0  0  0  0  0  0  0  0  0  0  0  0
   44.6640   29.9600   43.5890 H   0  0  0  0  0  0  0  0  0  0  0  0
   43.6760   30.3040   43.4190 N   0  0  0  0  0  0  0  0  0  0  0  0
   42.7420   29.2120   43.4740 C   0  0  0  0  0  2  0  0  0  0  0  0
   42.6210   28.7080   42.0780 C   0  0  0  0  0  2  0  0  0  0  0  0
   43.7050   29.5060   41.4080 C   0  0  0  0  0  2  0  0  0  0  0  0
   43.6100   30.9410   42.1180 C   0  0  1  0  0  3  0  0  0  0  0  0
   44.5330   34.3300   42.8730 C   0  0  0  0  0  0  0  0  0  0  0  0
   44.3010   35.6250   43.4160 C   0  0  0  0  0  0  0  0  0  0  0  0
   44.6590   35.8220   44.7440 C   0  0  0  0  0  0  0  0  0  0  0  0
   45.2010   34.7840   45.4330 N   0  0  0  0  0  0  0  0  0  0  0  0
   45.4070   33.5530   44.8650 C   0  0  0  0  0  0  0  0  0  0  0  0
   45.0680   33.3970   43.6410 N   0  0  0  0  0  0  0  0  0  0  0  0
   43.8800   36.4710   42.9170 H   0  0  0  0  0  0  0  0  0  0  0  0
   44.5330   36.7540   45.2590 H   0  0  0  0  0  0  0  0  0  0  0  0
   45.9950   32.4800   45.6900 C   0  0  1  0  0  0  0  0  0  0  0  0
   46.9290   32.8550   46.8190 C   0  0  0  0  0  0  0  0  0  0  0  0
   45.5140   32.4470   47.0960 C   0  0  1  0  0  0  0  0  0  0  0  0
   46.2650   31.5410   45.1990 H   0  0  0  0  0  0  0  0  0  0  0  0
   47.2510   33.9120   46.8900 H   0  0  0  0  0  0  0  0  0  0  0  0
   47.7070   32.1350   47.1290 H   0  0  0  0  0  0  0  0  0  0  0  0
   45.3280   31.4560   47.5580 H   0  0  0  0  0  0  0  0  0  0  0  0
   44.7270   33.5440   47.6210 N   0  0  0  0  0  0  0  0  0  0  0  0
   45.3170   34.2550   48.1040 H   0  0  0  0  0  0  0  0  0  0  0  0
   43.9820   33.1620   48.2680 H   0  0  0  0  0  0  0  0  0  0  0  0
  1 22  1  0  0  0  0
  2  1  2  0  0  0  0
  3 13  1  0  0  0  0
  4  3  1  0  0  0  0
  4  1  1  0  0  0  0
  5  4  2  0  0  0  0
  6  7  2  0  0  0  0
  6  5  1  0  0  0  0
  7  8  1  0  0  0  0
  8 12  1  0  0  0  0
  8  3  2  0  0  0  0
  9  5  1  0  0  0  0
 10  6  1  0  0  0  0
 11  7  1  0  0  0  0
 13 15  2  0  0  0  0
 14 13  2  0  0  0  0
 17 18  1  0  0  0  0
 17 16  1  0  0  0  0
 19 18  1  0  0  0  0
 20 19  1  0  0  0  0
 20 21  1  0  0  0  0
 21 13  1  1  0  0  0
 21 17  1  0  0  0  0
 22 23  2  0  0  0  0
 22 27  1  0  0  0  0
 23 24  1  0  0  0  0
 24 29  1  0  0  0  0
 24 25  2  0  0  0  0
 26 25  1  0  0  0  0
 26 30  1  0  0  0  0
 27 26  2  0  0  0  0
 28 23  1  0  0  0  0
 30 33  1  6  0  0  0
 30 31  1  0  0  0  0
 30 32  1  0  0  0  0
 31 34  1  0  0  0  0
 31 32  1  0  0  0  0
 31 35  1  0  0  0  0
 32 36  1  1  0  0  0
 32 37  1  0  0  0  0
 37 38  1  0  0  0  0
 37 39  1  0  0  0  0
M  END
>  <minimizedAffinity>
-6.03402853

>  <minimizedRMSD>
0.293357819

$$$$
