
 OpenBabel03252507373D

 35 39  0  0  0  0  0  0  0  0999 V2000
   45.7520   34.5170   43.9120 C   0  0  0  0  0  0  0  0  0  0  0  0
   46.5060   33.4920   44.5170 C   0  0  0  0  0  0  0  0  0  0  0  0
   46.2940   33.2230   45.8520 C   0  0  0  0  0  0  0  0  0  0  0  0
   45.3860   33.9370   46.5150 N   0  0  0  0  0  0  0  0  0  0  0  0
   44.6600   34.9230   45.9290 C   0  0  0  0  0  0  0  0  0  0  0  0
   44.8480   35.2000   44.6430 N   0  0  0  0  0  0  0  0  0  0  0  0
   47.2390   32.9200   43.9770 H   0  0  0  0  0  0  0  0  0  0  0  0
   43.9340   35.4960   46.4670 H   0  0  0  0  0  0  0  0  0  0  0  0
   47.3680   32.4810   47.9160 C   0  0  0  0  0  0  0  0  0  0  0  0
   47.0220   32.1890   46.5900 C   0  0  0  0  0  0  0  0  0  0  0  0
   47.3840   30.9740   46.0860 C   0  0  0  0  0  0  0  0  0  0  0  0
   48.0670   30.0330   46.8180 C   0  0  0  0  0  0  0  0  0  0  0  0
   48.5180   28.7950   46.5300 N   0  0  0  0  0  0  0  0  0  0  0  0
   49.1430   28.3100   47.6740 C   0  0  0  0  0  0  0  0  0  0  0  0
   49.0600   29.2530   48.6200 N   0  0  0  0  0  0  0  0  0  0  0  0
   48.4090   30.3090   48.1170 C   0  0  0  0  0  0  0  0  0  0  0  0
   48.0550   31.5390   48.6610 C   0  0  0  0  0  0  0  0  0  0  0  0
   47.0930   33.4440   48.3390 H   0  0  0  0  0  0  0  0  0  0  0  0
   47.1050   30.7610   45.0430 H   0  0  0  0  0  0  0  0  0  0  0  0
   48.4190   28.2850   45.6200 H   0  0  0  0  0  0  0  0  0  0  0  0
   49.5980   27.3320   47.7320 H   0  0  0  0  0  0  0  0  0  0  0  0
   48.3080   31.7850   49.6850 H   0  0  0  0  0  0  0  0  0  0  0  0
   45.9590   34.7930   42.5660 O   0  0  0  0  0  0  0  0  0  0  0  0
   44.9250   34.6330   41.6480 C   0  0  0  0  0  0  0  0  0  0  0  0
   45.5930   33.9060   40.7100 C   0  0  0  0  0  0  0  0  0  0  0  0
   44.1900   33.6620   39.4250 S   0  0  0  0  0  0  0  0  0  0  0  0
   43.0070   34.6470   40.5270 C   0  0  0  0  0  0  0  0  0  0  0  0
   43.6550   34.8970   41.3730 N   0  0  0  0  0  0  0  0  0  0  0  0
   46.5200   33.3720   40.2840 H   0  0  0  0  0  0  0  0  0  0  0  0
   41.7370   34.6980   39.8800 N   0  0  0  0  0  0  0  0  0  0  0  0
   40.4250   35.2560   40.0660 C   0  0  0  0  0  2  0  0  0  0  0  0
   40.3620   36.1590   38.8190 C   0  0  0  0  0  2  0  0  0  0  0  0
   41.0630   35.2770   37.7820 C   0  0  0  0  0  2  0  0  0  0  0  0
   41.4960   34.0420   38.5810 C   0  0  0  0  0  3  0  0  0  0  0  0
   42.4300   33.6470   38.1870 H   0  0  0  0  0  0  0  0  0  0  0  0
  1  2  2  0  0  0  0
  1  6  1  0  0  0  0
  2  3  1  0  0  0  0
  3  4  2  0  0  0  0
  3 10  1  0  0  0  0
  5  8  1  0  0  0  0
  5  4  1  0  0  0  0
  6  5  2  0  0  0  0
  7  2  1  0  0  0  0
  9 18  1  0  0  0  0
  9 17  1  0  0  0  0
 10  9  2  0  0  0  0
 11 10  1  0  0  0  0
 11 12  2  0  0  0  0
 12 16  1  0  0  0  0
 13 12  1  0  0  0  0
 13 14  1  0  0  0  0
 14 21  1  0  0  0  0
 14 15  2  0  0  0  0
 16 15  1  0  0  0  0
 16 17  2  0  0  0  0
 17 22  1  0  0  0  0
 19 11  1  0  0  0  0
 20 13  1  0  0  0  0
 23  1  1  0  0  0  0
 24 23  1  0  0  0  0
 25 24  2  0  0  0  0
 26 27  1  0  0  0  0
 26 25  1  0  0  0  0
 27 28  2  0  0  0  0
 28 24  1  0  0  0  0
 29 25  1  0  0  0  0
 30 31  1  0  0  0  0
 30 27  1  0  0  0  0
 32 31  1  0  0  0  0
 33 34  1  0  0  0  0
 33 32  1  0  0  0  0
 34 30  1  0  0  0  0
 35 34  1  0  0  0  0
M  END
>  <minimizedAffinity>
-6.03068399

>  <minimizedRMSD>
0.651157796

$$$$
