
 OpenBabel03252506323D

 29 31  0  0  1  0  0  0  0  0999 V2000
   38.5170   31.9060   38.9680 C   0  0  0  0  0  0  0  0  0  0  0  0
   38.9750   31.3000   37.8020 C   0  0  0  0  0  0  0  0  0  0  0  0
   39.1100   29.9350   37.7910 C   0  0  0  0  0  0  0  0  0  0  0  0
   38.7890   29.2330   38.9220 N   0  0  0  0  0  0  0  0  0  0  0  0
   38.3530   29.8510   40.0210 C   0  0  0  0  0  0  0  0  0  0  0  0
   38.2120   31.1790   40.0600 N   0  0  0  0  0  0  0  0  0  0  0  0
   38.0280   29.0700   41.1600 N   0  0  0  0  0  0  0  0  0  0  0  0
   37.2190   29.5250   42.2770 C   0  0  0  0  0  0  0  0  0  0  0  0
   37.8680   28.8110   43.4340 C   0  0  0  0  0  0  0  0  0  0  0  0
   38.8950   27.8570   42.8770 C   0  0  0  0  0  0  0  0  0  0  0  0
   38.4070   27.7200   41.4560 C   0  0  1  0  0  0  0  0  0  0  0  0
   38.3690   32.9720   39.1020 H   0  0  0  0  0  0  0  0  0  0  0  0
   39.4660   29.4800   36.8800 H   0  0  0  0  0  0  0  0  0  0  0  0
   36.1500   29.3480   42.1660 H   0  0  0  0  0  0  0  0  0  0  0  0
   37.4050   30.6160   42.3970 H   0  0  0  0  0  0  0  0  0  0  0  0
   37.0680   28.2350   43.9470 H   0  0  0  0  0  0  0  0  0  0  0  0
   38.3390   29.5190   44.1410 H   0  0  0  0  0  0  0  0  0  0  0  0
   38.7820   26.8590   43.3630 H   0  0  0  0  0  0  0  0  0  0  0  0
   39.9230   28.2250   42.9510 H   0  0  0  0  0  0  0  0  0  0  0  0
   39.2530   27.4360   40.8000 H   0  0  0  0  0  0  0  0  0  0  0  0
   37.3640   26.7610   41.3030 N   0  0  1  0  0  0  0  0  0  0  0  0
   37.0430   26.3680   39.9770 C   0  0  0  0  0  2  0  0  0  0  0  0
   36.5590   24.9380   40.0230 C   0  0  0  0  0  2  0  0  0  0  0  0
   36.8470   24.4490   41.4230 C   0  0  0  0  0  2  0  0  0  0  0  0
   37.5250   25.6060   42.1170 C   0  0  0  0  0  3  0  0  0  0  0  0
   38.5920   25.3360   42.2380 H   0  0  0  0  0  0  0  0  0  0  0  0
   39.2560   32.1850   36.7090 N   0  0  0  0  0  0  0  0  0  0  0  0
   40.0100   32.9070   36.7640 H   0  0  0  0  0  0  0  0  0  0  0  0
   38.7110   32.1240   35.8310 H   0  0  0  0  0  0  0  0  0  0  0  0
  1 12  1  0  0  0  0
  1  6  1  0  0  0  0
  2  1  2  0  0  0  0
  3  2  1  0  0  0  0
  3  4  2  0  0  0  0
  4  5  1  0  0  0  0
  5  6  2  0  0  0  0
  5  7  1  0  0  0  0
  7 11  1  0  0  0  0
  7  8  1  0  0  0  0
  8 15  1  0  0  0  0
  8  9  1  0  0  0  0
  9 16  1  0  0  0  0
  9 17  1  0  0  0  0
 10 19  1  0  0  0  0
 10 18  1  0  0  0  0
 10  9  1  0  0  0  0
 11 20  1  6  0  0  0
 11 10  1  0  0  0  0
 13  3  1  0  0  0  0
 14  8  1  0  0  0  0
 21 22  1  6  0  0  0
 21 11  1  0  0  0  0
 21 25  1  0  0  0  0
 22 23  1  0  0  0  0
 23 24  1  0  0  0  0
 24 25  1  0  0  0  0
 25 26  1  0  0  0  0
 27 28  1  0  0  0  0
 27  2  1  0  0  0  0
 29 27  1  0  0  0  0
M  END
>  <minimizedAffinity>
-5.18293333

$$$$

 OpenBabel03252506323D

 29 31  0  0  1  0  0  0  0  0999 V2000
   38.0280   30.9080   38.1040 C   0  0  0  0  0  0  0  0  0  0  0  0
   39.3250   31.4090   38.0390 C   0  0  0  0  0  0  0  0  0  0  0  0
   40.2180   31.0200   39.0040 C   0  0  0  0  0  0  0  0  0  0  0  0
   39.7980   30.1590   39.9820 N   0  0  0  0  0  0  0  0  0  0  0  0
   38.5460   29.7000   40.0090 C   0  0  0  0  0  0  0  0  0  0  0  0
   37.6540   30.0630   39.0830 N   0  0  0  0  0  0  0  0  0  0  0  0
   38.1700   28.8040   41.0430 N   0  0  0  0  0  0  0  0  0  0  0  0
   36.9950   27.9490   41.0160 C   0  0  0  0  0  0  0  0  0  0  0  0
   36.5960   27.9340   42.4680 C   0  0  0  0  0  0  0  0  0  0  0  0
   37.6720   28.6400   43.2560 C   0  0  0  0  0  0  0  0  0  0  0  0
   38.8270   28.5500   42.2900 C   0  0  1  0  0  0  0  0  0  0  0  0
   37.2320   31.1400   37.4040 H   0  0  0  0  0  0  0  0  0  0  0  0
   41.2190   31.4170   38.9410 H   0  0  0  0  0  0  0  0  0  0  0  0
   37.1580   26.9680   40.5720 H   0  0  0  0  0  0  0  0  0  0  0  0
   36.2070   28.4900   40.4470 H   0  0  0  0  0  0  0  0  0  0  0  0
   36.5490   26.8680   42.7790 H   0  0  0  0  0  0  0  0  0  0  0  0
   35.6160   28.4210   42.6290 H   0  0  0  0  0  0  0  0  0  0  0  0
   37.9410   28.0300   44.1510 H   0  0  0  0  0  0  0  0  0  0  0  0
   37.4130   29.6660   43.5320 H   0  0  0  0  0  0  0  0  0  0  0  0
   39.5410   29.3740   42.4910 H   0  0  0  0  0  0  0  0  0  0  0  0
   39.5280   27.3100   42.3540 N   0  0  1  0  0  0  0  0  0  0  0  0
   40.7380   27.2190   41.6170 C   0  0  0  0  0  2  0  0  0  0  0  0
   41.6520   26.2650   42.3490 C   0  0  0  0  0  2  0  0  0  0  0  0
   40.9900   25.9960   43.6800 C   0  0  0  0  0  2  0  0  0  0  0  0
   39.7390   26.8400   43.6800 C   0  0  0  0  0  3  0  0  0  0  0  0
   39.9060   27.6740   44.3880 H   0  0  0  0  0  0  0  0  0  0  0  0
   39.5970   32.2940   36.9430 N   0  0  0  0  0  0  0  0  0  0  0  0
   39.1150   33.2150   36.8460 H   0  0  0  0  0  0  0  0  0  0  0  0
   40.2870   32.0320   36.2180 H   0  0  0  0  0  0  0  0  0  0  0  0
  1  6  1  0  0  0  0
  2  1  2  0  0  0  0
  2  3  1  0  0  0  0
  3  4  2  0  0  0  0
  4  5  1  0  0  0  0
  5  7  1  0  0  0  0
  6  5  2  0  0  0  0
  7 11  1  0  0  0  0
  8  7  1  0  0  0  0
  8  9  1  0  0  0  0
  9 17  1  0  0  0  0
  9 16  1  0  0  0  0
  9 10  1  0  0  0  0
 10 19  1  0  0  0  0
 10 18  1  0  0  0  0
 11 21  1  0  0  0  0
 11 20  1  1  0  0  0
 11 10  1  0  0  0  0
 12  1  1  0  0  0  0
 13  3  1  0  0  0  0
 14  8  1  0  0  0  0
 15  8  1  0  0  0  0
 21 22  1  1  0  0  0
 21 25  1  0  0  0  0
 22 23  1  0  0  0  0
 23 24  1  0  0  0  0
 24 25  1  0  0  0  0
 25 26  1  0  0  0  0
 27  2  1  0  0  0  0
 28 27  1  0  0  0  0
 29 27  1  0  0  0  0
M  END
>  <minimizedAffinity>
-4.80433321

$$$$

 OpenBabel03252506323D

 29 31  0  0  1  0  0  0  0  0999 V2000
   41.8420   33.5980   39.0510 C   0  0  0  0  0  0  0  0  0  0  0  0
   41.7450   33.3030   37.6940 C   0  0  0  0  0  0  0  0  0  0  0  0
   40.9590   32.2450   37.3170 C   0  0  0  0  0  0  0  0  0  0  0  0
   40.3080   31.5300   38.2860 N   0  0  0  0  0  0  0  0  0  0  0  0
   40.4270   31.8440   39.5760 C   0  0  0  0  0  0  0  0  0  0  0  0
   41.1850   32.8690   39.9730 N   0  0  0  0  0  0  0  0  0  0  0  0
   39.7220   31.0710   40.5340 N   0  0  0  0  0  0  0  0  0  0  0  0
   39.4520   31.4840   41.9010 C   0  0  0  0  0  0  0  0  0  0  0  0
   39.5300   30.1720   42.6370 C   0  0  0  0  0  0  0  0  0  0  0  0
   39.6650   29.0700   41.6150 C   0  0  0  0  0  0  0  0  0  0  0  0
   39.1440   29.7680   40.3830 C   0  0  1  0  0  0  0  0  0  0  0  0
   42.4290   34.4060   39.4760 H   0  0  0  0  0  0  0  0  0  0  0  0
   40.8950   32.0290   36.2620 H   0  0  0  0  0  0  0  0  0  0  0  0
   38.5210   32.0340   42.0340 H   0  0  0  0  0  0  0  0  0  0  0  0
   40.3070   32.1150   42.2300 H   0  0  0  0  0  0  0  0  0  0  0  0
   38.5710   30.0530   43.1850 H   0  0  0  0  0  0  0  0  0  0  0  0
   40.3780   30.1490   43.3460 H   0  0  0  0  0  0  0  0  0  0  0  0
   38.9500   28.2470   41.8550 H   0  0  0  0  0  0  0  0  0  0  0  0
   40.6870   28.6960   41.5050 H   0  0  0  0  0  0  0  0  0  0  0  0
   39.5730   29.2910   39.4790 H   0  0  0  0  0  0  0  0  0  0  0  0
   37.7220   29.7540   40.2790 N   0  0  1  0  0  0  0  0  0  0  0  0
   37.1580   30.3550   39.1230 C   0  0  0  0  0  2  0  0  0  0  0  0
   35.8730   29.6280   38.8070 C   0  0  0  0  0  2  0  0  0  0  0  0
   35.8510   28.4150   39.7070 C   0  0  0  0  0  2  0  0  0  0  0  0
   37.1470   28.4690   40.4790 C   0  0  0  0  0  3  0  0  0  0  0  0
   37.7960   27.6640   40.0870 H   0  0  0  0  0  0  0  0  0  0  0  0
   42.4870   34.1610   36.8160 N   0  0  0  0  0  0  0  0  0  0  0  0
   43.5300   34.2110   36.8470 H   0  0  0  0  0  0  0  0  0  0  0  0
   41.9960   34.7540   36.1250 H   0  0  0  0  0  0  0  0  0  0  0  0
  1 12  1  0  0  0  0
  1  6  1  0  0  0  0
  2  1  2  0  0  0  0
  3  2  1  0  0  0  0
  3  4  2  0  0  0  0
  4  5  1  0  0  0  0
  5  6  2  0  0  0  0
  5  7  1  0  0  0  0
  7  8  1  0  0  0  0
  8 14  1  0  0  0  0
  8 15  1  0  0  0  0
  8  9  1  0  0  0  0
  9 16  1  0  0  0  0
  9 17  1  0  0  0  0
 10 18  1  0  0  0  0
 10  9  1  0  0  0  0
 11 20  1  6  0  0  0
 11  7  1  0  0  0  0
 11 10  1  0  0  0  0
 13  3  1  0  0  0  0
 19 10  1  0  0  0  0
 21 22  1  6  0  0  0
 21 11  1  0  0  0  0
 21 25  1  0  0  0  0
 23 22  1  0  0  0  0
 23 24  1  0  0  0  0
 24 25  1  0  0  0  0
 26 25  1  0  0  0  0
 27 28  1  0  0  0  0
 27  2  1  0  0  0  0
 29 27  1  0  0  0  0
M  END
>  <minimizedAffinity>
-4.7359252

$$$$

 OpenBabel03252506323D

 29 31  0  0  1  0  0  0  0  0999 V2000
   36.0670   28.6120   40.8550 C   0  0  0  0  0  0  0  0  0  0  0  0
   36.5360   29.7810   41.4470 C   0  0  0  0  0  0  0  0  0  0  0  0
   37.7420   29.7380   42.0990 C   0  0  0  0  0  0  0  0  0  0  0  0
   38.4270   28.5530   42.1380 N   0  0  0  0  0  0  0  0  0  0  0  0
   37.9430   27.4540   41.5570 C   0  0  0  0  0  0  0  0  0  0  0  0
   36.7720   27.4670   40.9160 N   0  0  0  0  0  0  0  0  0  0  0  0
   38.7020   26.2570   41.6240 N   0  0  0  0  0  0  0  0  0  0  0  0
   38.5110   25.1020   40.7640 C   0  0  0  0  0  0  0  0  0  0  0  0
   38.8340   23.9680   41.7010 C   0  0  0  0  0  0  0  0  0  0  0  0
   39.3600   24.5590   42.9860 C   0  0  0  0  0  0  0  0  0  0  0  0
   39.7780   25.9280   42.5110 C   0  0  1  0  0  0  0  0  0  0  0  0
   35.1320   28.5170   40.3130 H   0  0  0  0  0  0  0  0  0  0  0  0
   38.0910   30.6520   42.5540 H   0  0  0  0  0  0  0  0  0  0  0  0
   39.0920   25.1190   39.8430 H   0  0  0  0  0  0  0  0  0  0  0  0
   37.4260   25.0490   40.5200 H   0  0  0  0  0  0  0  0  0  0  0  0
   39.6320   23.3660   41.2160 H   0  0  0  0  0  0  0  0  0  0  0  0
   37.9490   23.3350   41.9000 H   0  0  0  0  0  0  0  0  0  0  0  0
   40.2860   24.0180   43.2950 H   0  0  0  0  0  0  0  0  0  0  0  0
   38.6220   24.5830   43.7930 H   0  0  0  0  0  0  0  0  0  0  0  0
   39.7650   26.6350   43.3650 H   0  0  0  0  0  0  0  0  0  0  0  0
   41.0730   25.9520   41.9150 N   0  0  1  0  0  0  0  0  0  0  0  0
   41.6100   27.2290   41.6010 C   0  0  0  0  0  2  0  0  0  0  0  0
   43.1130   27.1390   41.7240 C   0  0  0  0  0  2  0  0  0  0  0  0
   43.3970   25.7990   42.3610 C   0  0  0  0  0  2  0  0  0  0  0  0
   42.0420   25.1860   42.6190 C   0  0  0  0  0  3  0  0  0  0  0  0
   41.8720   25.2160   43.7130 H   0  0  0  0  0  0  0  0  0  0  0  0
   35.6940   30.9340   41.3030 N   0  0  0  0  0  0  0  0  0  0  0  0
   34.7370   30.9720   41.7200 H   0  0  0  0  0  0  0  0  0  0  0  0
   36.0240   31.7610   40.7770 H   0  0  0  0  0  0  0  0  0  0  0  0
  1  6  2  0  0  0  0
  1  2  1  0  0  0  0
  2  3  2  0  0  0  0
  3  4  1  0  0  0  0
  3 13  1  0  0  0  0
  5  7  1  0  0  0  0
  5  4  2  0  0  0  0
  6  5  1  0  0  0  0
  7 11  1  0  0  0  0
  8  7  1  0  0  0  0
  8  9  1  0  0  0  0
  9 17  1  0  0  0  0
  9 10  1  0  0  0  0
 10 18  1  0  0  0  0
 10 19  1  0  0  0  0
 11 10  1  0  0  0  0
 11 20  1  1  0  0  0
 12  1  1  0  0  0  0
 14  8  1  0  0  0  0
 15  8  1  0  0  0  0
 16  9  1  0  0  0  0
 21 22  1  1  0  0  0
 21 11  1  0  0  0  0
 21 25  1  0  0  0  0
 22 23  1  0  0  0  0
 23 24  1  0  0  0  0
 24 25  1  0  0  0  0
 25 26  1  0  0  0  0
 27  2  1  0  0  0  0
 27 28  1  0  0  0  0
 29 27  1  0  0  0  0
M  END
>  <minimizedAffinity>
-4.71781158

$$$$

 OpenBabel03252506323D

 29 31  0  0  1  0  0  0  0  0999 V2000
   39.5370   31.8060   37.2790 C   0  0  0  0  0  0  0  0  0  0  0  0
   40.3520   32.5010   38.1680 C   0  0  0  0  0  0  0  0  0  0  0  0
   40.2110   32.2480   39.5080 C   0  0  0  0  0  0  0  0  0  0  0  0
   39.2810   31.3280   39.9100 N   0  0  0  0  0  0  0  0  0  0  0  0
   38.5180   30.6830   39.0270 C   0  0  0  0  0  0  0  0  0  0  0  0
   38.6330   30.9080   37.7160 N   0  0  0  0  0  0  0  0  0  0  0  0
   37.5760   29.7340   39.5030 N   0  0  0  0  0  0  0  0  0  0  0  0
   36.9450   28.7090   38.6900 C   0  0  0  0  0  0  0  0  0  0  0  0
   35.5760   28.6260   39.3140 C   0  0  0  0  0  0  0  0  0  0  0  0
   35.5750   29.4850   40.5540 C   0  0  0  0  0  0  0  0  0  0  0  0
   37.0550   29.5790   40.8290 C   0  0  1  0  0  0  0  0  0  0  0  0
   39.5510   31.9160   36.1990 H   0  0  0  0  0  0  0  0  0  0  0  0
   40.8500   32.7950   40.1840 H   0  0  0  0  0  0  0  0  0  0  0  0
   37.4890   27.7670   38.6440 H   0  0  0  0  0  0  0  0  0  0  0  0
   36.8310   29.1250   37.6640 H   0  0  0  0  0  0  0  0  0  0  0  0
   35.4160   27.5640   39.5990 H   0  0  0  0  0  0  0  0  0  0  0  0
   34.7860   28.9550   38.6140 H   0  0  0  0  0  0  0  0  0  0  0  0
   35.1170   28.9190   41.4010 H   0  0  0  0  0  0  0  0  0  0  0  0
   35.0950   30.4570   40.4150 H   0  0  0  0  0  0  0  0  0  0  0  0
   37.2660   30.5010   41.4050 H   0  0  0  0  0  0  0  0  0  0  0  0
   37.5730   28.4610   41.5460 N   0  0  1  0  0  0  0  0  0  0  0  0
   38.9240   28.5450   41.9760 C   0  0  0  0  0  2  0  0  0  0  0  0
   39.0510   27.7510   43.2550 C   0  0  0  0  0  2  0  0  0  0  0  0
   37.6400   27.4020   43.6670 C   0  0  0  0  0  2  0  0  0  0  0  0
   36.7520   28.0460   42.6300 C   0  0  0  0  0  3  0  0  0  0  0  0
   36.2500   28.9040   43.1150 H   0  0  0  0  0  0  0  0  0  0  0  0
   41.2780   33.4220   37.5740 N   0  0  0  0  0  0  0  0  0  0  0  0
   40.9550   34.2590   37.0380 H   0  0  0  0  0  0  0  0  0  0  0  0
   42.2980   33.2730   37.6670 H   0  0  0  0  0  0  0  0  0  0  0  0
  1  6  2  0  0  0  0
  1  2  1  0  0  0  0
  2  3  2  0  0  0  0
  3  4  1  0  0  0  0
  3 13  1  0  0  0  0
  5  7  1  0  0  0  0
  5  4  2  0  0  0  0
  6  5  1  0  0  0  0
  7 11  1  0  0  0  0
  8  9  1  0  0  0  0
  8  7  1  0  0  0  0
  9 16  1  0  0  0  0
  9 10  1  0  0  0  0
 10 11  1  0  0  0  0
 10 18  1  0  0  0  0
 11 20  1  1  0  0  0
 11 21  1  0  0  0  0
 12  1  1  0  0  0  0
 14  8  1  0  0  0  0
 15  8  1  0  0  0  0
 17  9  1  0  0  0  0
 19 10  1  0  0  0  0
 21 22  1  1  0  0  0
 21 25  1  0  0  0  0
 22 23  1  0  0  0  0
 23 24  1  0  0  0  0
 25 26  1  0  0  0  0
 25 24  1  0  0  0  0
 27 29  1  0  0  0  0
 27  2  1  0  0  0  0
 28 27  1  0  0  0  0
M  END
>  <minimizedAffinity>
-4.66094255

$$$$

 OpenBabel03252506323D

 29 31  0  0  1  0  0  0  0  0999 V2000
   37.2620   31.6200   38.3620 C   0  0  0  0  0  0  0  0  0  0  0  0
   37.2140   32.4580   39.4720 C   0  0  0  0  0  0  0  0  0  0  0  0
   37.3620   31.8960   40.7140 C   0  0  0  0  0  0  0  0  0  0  0  0
   37.5500   30.5430   40.8060 N   0  0  0  0  0  0  0  0  0  0  0  0
   37.5910   29.7740   39.7170 C   0  0  0  0  0  0  0  0  0  0  0  0
   37.4500   30.2940   38.4950 N   0  0  0  0  0  0  0  0  0  0  0  0
   37.7960   28.3790   39.8750 N   0  0  0  0  0  0  0  0  0  0  0  0
   38.2210   27.4760   38.8190 C   0  0  0  0  0  0  0  0  0  0  0  0
   37.4820   26.2140   39.1810 C   0  0  0  0  0  0  0  0  0  0  0  0
   36.8220   26.4280   40.5210 C   0  0  0  0  0  0  0  0  0  0  0  0
   37.6390   27.5790   41.0530 C   0  0  1  0  0  0  0  0  0  0  0  0
   37.1580   31.9420   37.3300 H   0  0  0  0  0  0  0  0  0  0  0  0
   37.3210   32.5580   41.5650 H   0  0  0  0  0  0  0  0  0  0  0  0
   39.3000   27.3670   38.7210 H   0  0  0  0  0  0  0  0  0  0  0  0
   37.7970   27.8620   37.8650 H   0  0  0  0  0  0  0  0  0  0  0  0
   38.2420   25.4090   39.2670 H   0  0  0  0  0  0  0  0  0  0  0  0
   36.7290   25.9460   38.4160 H   0  0  0  0  0  0  0  0  0  0  0  0
   37.0190   25.5490   41.1790 H   0  0  0  0  0  0  0  0  0  0  0  0
   35.7520   26.6470   40.4530 H   0  0  0  0  0  0  0  0  0  0  0  0
   37.0390   28.1470   41.7920 H   0  0  0  0  0  0  0  0  0  0  0  0
   38.8600   27.1730   41.6670 N   0  0  1  0  0  0  0  0  0  0  0  0
   39.6190   28.1840   42.3130 C   0  0  0  0  0  2  0  0  0  0  0  0
   40.3600   27.5400   43.4610 C   0  0  0  0  0  2  0  0  0  0  0  0
   39.7960   26.1450   43.5880 C   0  0  0  0  0  2  0  0  0  0  0  0
   38.7210   26.0530   42.5320 C   0  0  0  0  0  3  0  0  0  0  0  0
   37.7460   26.0580   43.0550 H   0  0  0  0  0  0  0  0  0  0  0  0
   37.0180   33.8520   39.1930 N   0  0  0  0  0  0  0  0  0  0  0  0
   36.1420   34.2060   38.7460 H   0  0  0  0  0  0  0  0  0  0  0  0
   37.7500   34.5420   39.4340 H   0  0  0  0  0  0  0  0  0  0  0  0
  1  6  2  0  0  0  0
  1  2  1  0  0  0  0
  2  3  2  0  0  0  0
  3  4  1  0  0  0  0
  3 13  1  0  0  0  0
  5  7  1  0  0  0  0
  5  4  2  0  0  0  0
  6  5  1  0  0  0  0
  7 11  1  0  0  0  0
  8  9  1  0  0  0  0
  8  7  1  0  0  0  0
  9 16  1  0  0  0  0
  9 10  1  0  0  0  0
 10 11  1  0  0  0  0
 10 18  1  0  0  0  0
 11 21  1  0  0  0  0
 11 20  1  1  0  0  0
 12  1  1  0  0  0  0
 14  8  1  0  0  0  0
 15  8  1  0  0  0  0
 17  9  1  0  0  0  0
 19 10  1  0  0  0  0
 21 22  1  1  0  0  0
 21 25  1  0  0  0  0
 22 23  1  0  0  0  0
 23 24  1  0  0  0  0
 25 26  1  0  0  0  0
 25 24  1  0  0  0  0
 27 29  1  0  0  0  0
 27  2  1  0  0  0  0
 28 27  1  0  0  0  0
M  END
>  <minimizedAffinity>
-4.65703964

$$$$

 OpenBabel03252506323D

 29 31  0  0  1  0  0  0  0  0999 V2000
   37.8710   25.7680   42.3930 C   0  0  0  0  0  0  0  0  0  0  0  0
   39.2510   25.9240   42.4880 C   0  0  0  0  0  0  0  0  0  0  0  0
   39.8150   27.0430   41.9290 C   0  0  0  0  0  0  0  0  0  0  0  0
   39.0010   27.9510   41.3080 N   0  0  0  0  0  0  0  0  0  0  0  0
   37.6820   27.7640   41.2380 C   0  0  0  0  0  0  0  0  0  0  0  0
   37.1050   26.6850   41.7720 N   0  0  0  0  0  0  0  0  0  0  0  0
   36.8880   28.7440   40.5870 N   0  0  0  0  0  0  0  0  0  0  0  0
   35.4500   28.8800   40.7350 C   0  0  0  0  0  0  0  0  0  0  0  0
   35.0430   29.3370   39.3580 C   0  0  0  0  0  0  0  0  0  0  0  0
   36.3000   29.6000   38.5640 C   0  0  0  0  0  0  0  0  0  0  0  0
   37.3020   29.7710   39.6780 C   0  0  1  0  0  0  0  0  0  0  0  0
   37.3080   24.9300   42.7910 H   0  0  0  0  0  0  0  0  0  0  0  0
   40.8860   27.1490   42.0110 H   0  0  0  0  0  0  0  0  0  0  0  0
   35.1360   29.5340   41.5490 H   0  0  0  0  0  0  0  0  0  0  0  0
   35.0360   27.8600   40.8960 H   0  0  0  0  0  0  0  0  0  0  0  0
   34.4810   30.2860   39.4860 H   0  0  0  0  0  0  0  0  0  0  0  0
   34.4120   28.5860   38.8470 H   0  0  0  0  0  0  0  0  0  0  0  0
   36.2130   30.5830   38.0430 H   0  0  0  0  0  0  0  0  0  0  0  0
   36.5550   28.7970   37.8670 H   0  0  0  0  0  0  0  0  0  0  0  0
   38.3160   29.5280   39.3030 H   0  0  0  0  0  0  0  0  0  0  0  0
   37.3200   31.0850   40.2300 N   0  0  1  0  0  0  0  0  0  0  0  0
   38.4670   31.4490   40.9830 C   0  0  0  0  0  2  0  0  0  0  0  0
   38.6710   32.9370   40.8230 C   0  0  0  0  0  2  0  0  0  0  0  0
   37.7140   33.3710   39.7380 C   0  0  0  0  0  2  0  0  0  0  0  0
   37.0240   32.1070   39.2870 C   0  0  0  0  0  3  0  0  0  0  0  0
   37.4150   31.8610   38.2810 H   0  0  0  0  0  0  0  0  0  0  0  0
   39.9500   24.8810   43.1810 N   0  0  0  0  0  0  0  0  0  0  0  0
   39.9720   23.9000   42.8210 H   0  0  0  0  0  0  0  0  0  0  0  0
   40.4540   25.0830   44.0610 H   0  0  0  0  0  0  0  0  0  0  0  0
  1  2  1  0  0  0  0
  1 12  1  0  0  0  0
  2 27  1  0  0  0  0
  3 13  1  0  0  0  0
  3  2  2  0  0  0  0
  4  3  1  0  0  0  0
  5  4  2  0  0  0  0
  5  6  1  0  0  0  0
  6  1  2  0  0  0  0
  7  8  1  0  0  0  0
  7  5  1  0  0  0  0
  8 15  1  0  0  0  0
  8 14  1  0  0  0  0
  9 16  1  0  0  0  0
  9  8  1  0  0  0  0
 10  9  1  0  0  0  0
 10 11  1  0  0  0  0
 11 20  1  6  0  0  0
 11 21  1  0  0  0  0
 11  7  1  0  0  0  0
 17  9  1  0  0  0  0
 18 10  1  0  0  0  0
 19 10  1  0  0  0  0
 21 22  1  6  0  0  0
 23 22  1  0  0  0  0
 24 23  1  0  0  0  0
 25 24  1  0  0  0  0
 25 21  1  0  0  0  0
 26 25  1  0  0  0  0
 27 29  1  0  0  0  0
 28 27  1  0  0  0  0
M  END
>  <minimizedAffinity>
-4.63762712

$$$$

 OpenBabel03252506323D

 29 31  0  0  1  0  0  0  0  0999 V2000
   41.8400   33.1740   37.3420 C   0  0  0  0  0  0  0  0  0  0  0  0
   42.7150   33.5200   38.3670 C   0  0  0  0  0  0  0  0  0  0  0  0
   42.3540   33.2190   39.6550 C   0  0  0  0  0  0  0  0  0  0  0  0
   41.1560   32.5950   39.8740 N   0  0  0  0  0  0  0  0  0  0  0  0
   40.3440   32.2790   38.8640 C   0  0  0  0  0  0  0  0  0  0  0  0
   40.6700   32.5600   37.6000 N   0  0  0  0  0  0  0  0  0  0  0  0
   39.1180   31.6260   39.1520 N   0  0  0  0  0  0  0  0  0  0  0  0
   38.3120   30.9040   38.1820 C   0  0  0  0  0  0  0  0  0  0  0  0
   36.9170   31.1900   38.6720 C   0  0  0  0  0  0  0  0  0  0  0  0
   37.0250   31.9110   39.9940 C   0  0  0  0  0  0  0  0  0  0  0  0
   38.4260   31.5330   40.4030 C   0  0  1  0  0  0  0  0  0  0  0  0
   42.0100   33.3570   36.2850 H   0  0  0  0  0  0  0  0  0  0  0  0
   43.0430   33.4940   40.4390 H   0  0  0  0  0  0  0  0  0  0  0  0
   38.5590   29.8480   38.0820 H   0  0  0  0  0  0  0  0  0  0  0  0
   38.4440   31.4120   37.2010 H   0  0  0  0  0  0  0  0  0  0  0  0
   36.4220   30.2080   38.8270 H   0  0  0  0  0  0  0  0  0  0  0  0
   36.3430   31.7960   37.9460 H   0  0  0  0  0  0  0  0  0  0  0  0
   36.3280   31.4470   40.7310 H   0  0  0  0  0  0  0  0  0  0  0  0
   36.8690   32.9910   39.9180 H   0  0  0  0  0  0  0  0  0  0  0  0
   38.8300   32.3020   41.0910 H   0  0  0  0  0  0  0  0  0  0  0  0
   38.5090   30.2590   41.0380 N   0  0  1  0  0  0  0  0  0  0  0  0
   39.6760   29.9990   41.8040 C   0  0  0  0  0  2  0  0  0  0  0  0
   39.2920   29.0660   42.9280 C   0  0  0  0  0  2  0  0  0  0  0  0
   37.7830   28.9940   42.9080 C   0  0  0  0  0  2  0  0  0  0  0  0
   37.3550   29.9220   41.7980 C   0  0  0  0  0  3  0  0  0  0  0  0
   36.9020   30.8140   42.2720 H   0  0  0  0  0  0  0  0  0  0  0  0
   43.9320   34.1610   37.9580 N   0  0  0  0  0  0  0  0  0  0  0  0
   43.9310   35.0950   37.4900 H   0  0  0  0  0  0  0  0  0  0  0  0
   44.8460   33.7050   38.1230 H   0  0  0  0  0  0  0  0  0  0  0  0
  1  6  2  0  0  0  0
  1  2  1  0  0  0  0
  2  3  2  0  0  0  0
  3  4  1  0  0  0  0
  3 13  1  0  0  0  0
  5  7  1  0  0  0  0
  5  4  2  0  0  0  0
  6  5  1  0  0  0  0
  7 11  1  0  0  0  0
  8  9  1  0  0  0  0
  8  7  1  0  0  0  0
  9 16  1  0  0  0  0
  9 10  1  0  0  0  0
 10 11  1  0  0  0  0
 10 18  1  0  0  0  0
 11 21  1  0  0  0  0
 11 20  1  1  0  0  0
 12  1  1  0  0  0  0
 14  8  1  0  0  0  0
 15  8  1  0  0  0  0
 17  9  1  0  0  0  0
 19 10  1  0  0  0  0
 21 25  1  0  0  0  0
 21 22  1  1  0  0  0
 22 23  1  0  0  0  0
 24 23  1  0  0  0  0
 25 26  1  0  0  0  0
 25 24  1  0  0  0  0
 27 29  1  0  0  0  0
 27  2  1  0  0  0  0
 28 27  1  0  0  0  0
M  END
>  <minimizedAffinity>
-4.63641214

$$$$

 OpenBabel03252506323D

 29 31  0  0  1  0  0  0  0  0999 V2000
   36.6170   29.8060   35.9480 C   0  0  0  0  0  0  0  0  0  0  0  0
   36.8480   28.4430   35.7920 C   0  0  0  0  0  0  0  0  0  0  0  0
   37.2960   27.7340   36.8770 C   0  0  0  0  0  0  0  0  0  0  0  0
   37.4940   28.3940   38.0590 N   0  0  0  0  0  0  0  0  0  0  0  0
   37.2610   29.7030   38.1690 C   0  0  0  0  0  0  0  0  0  0  0  0
   36.8250   30.4190   37.1300 N   0  0  0  0  0  0  0  0  0  0  0  0
   37.4770   30.3320   39.4220 N   0  0  0  0  0  0  0  0  0  0  0  0
   36.9430   31.6270   39.8060 C   0  0  0  0  0  0  0  0  0  0  0  0
   38.0500   32.1690   40.6720 C   0  0  0  0  0  0  0  0  0  0  0  0
   39.0680   31.0730   40.8680 C   0  0  0  0  0  0  0  0  0  0  0  0
   38.2360   29.8580   40.5420 C   0  0  1  0  0  0  0  0  0  0  0  0
   36.2650   30.4750   35.1700 H   0  0  0  0  0  0  0  0  0  0  0  0
   37.4700   26.6780   36.7400 H   0  0  0  0  0  0  0  0  0  0  0  0
   35.9620   31.5920   40.2790 H   0  0  0  0  0  0  0  0  0  0  0  0
   36.8900   32.2480   38.8850 H   0  0  0  0  0  0  0  0  0  0  0  0
   37.5950   32.4310   41.6510 H   0  0  0  0  0  0  0  0  0  0  0  0
   38.5230   33.0620   40.2210 H   0  0  0  0  0  0  0  0  0  0  0  0
   39.3420   31.0060   41.9480 H   0  0  0  0  0  0  0  0  0  0  0  0
   39.9540   31.1790   40.2350 H   0  0  0  0  0  0  0  0  0  0  0  0
   38.8980   29.0380   40.2010 H   0  0  0  0  0  0  0  0  0  0  0  0
   37.4540   29.3930   41.6390 N   0  0  1  0  0  0  0  0  0  0  0  0
   36.6810   28.2210   41.4240 C   0  0  0  0  0  2  0  0  0  0  0  0
   36.5740   27.4920   42.7430 C   0  0  0  0  0  2  0  0  0  0  0  0
   37.5330   28.1880   43.6800 C   0  0  0  0  0  2  0  0  0  0  0  0
   38.1870   29.2660   42.8510 C   0  0  0  0  0  3  0  0  0  0  0  0
   39.2320   28.9500   42.6670 H   0  0  0  0  0  0  0  0  0  0  0  0
   36.5810   27.9120   34.4870 N   0  0  0  0  0  0  0  0  0  0  0  0
   37.1230   28.2150   33.6470 H   0  0  0  0  0  0  0  0  0  0  0  0
   35.8350   27.2070   34.3500 H   0  0  0  0  0  0  0  0  0  0  0  0
  1  6  1  0  0  0  0
  2  1  2  0  0  0  0
  2  3  1  0  0  0  0
  3  4  2  0  0  0  0
  4  5  1  0  0  0  0
  5  7  1  0  0  0  0
  6  5  2  0  0  0  0
  7  8  1  0  0  0  0
  7 11  1  0  0  0  0
  8 14  1  0  0  0  0
  8  9  1  0  0  0  0
  9 10  1  0  0  0  0
  9 16  1  0  0  0  0
 10 18  1  0  0  0  0
 11 20  1  6  0  0  0
 11 10  1  0  0  0  0
 11 21  1  0  0  0  0
 12  1  1  0  0  0  0
 13  3  1  0  0  0  0
 15  8  1  0  0  0  0
 17  9  1  0  0  0  0
 19 10  1  0  0  0  0
 21 22  1  6  0  0  0
 21 25  1  0  0  0  0
 22 23  1  0  0  0  0
 23 24  1  0  0  0  0
 25 24  1  0  0  0  0
 26 25  1  0  0  0  0
 27  2  1  0  0  0  0
 28 27  1  0  0  0  0
 29 27  1  0  0  0  0
M  END
>  <minimizedAffinity>
-4.5730958

$$$$
