
 OpenBabel03242520073D

 46 50  0  0  1  0  0  0  0  0999 V2000
   38.1090   29.6010   40.0700 N   0  0  0  0  0  0  0  0  0  0  0  0
   38.3160   30.7160   39.2480 C   0  0  1  0  0  0  0  0  0  0  0  0
   37.0050   31.4330   39.0670 C   0  0  0  0  0  0  0  0  0  0  0  0
   36.6610   31.9290   40.3680 N   0  0  0  0  0  0  0  0  0  0  0  0
   36.3650   30.8720   41.2980 C   0  0  0  0  0  0  0  0  0  0  0  0
   37.2690   29.6810   41.2040 C   0  0  2  0  0  0  0  0  0  0  0  0
   37.9400   28.7550   39.4470 H   0  0  0  0  0  0  0  0  0  0  0  0
   38.6570   30.4190   38.2550 H   0  0  0  0  0  0  0  0  0  0  0  0
   37.1090   32.3290   38.3990 H   0  0  0  0  0  0  0  0  0  0  0  0
   36.1950   30.7920   38.7050 H   0  0  0  0  0  0  0  0  0  0  0  0
   37.2940   32.6630   40.7200 H   0  0  0  0  0  0  0  0  0  0  0  0
   35.2810   30.6420   41.1470 H   0  0  0  0  0  0  0  0  0  0  0  0
   36.3800   31.3640   42.3130 H   0  0  0  0  0  0  0  0  0  0  0  0
   36.5660   28.7980   41.1170 H   0  0  0  0  0  0  0  0  0  0  0  0
   40.9400   32.3920   40.9210 C   0  0  0  0  0  0  0  0  0  0  0  0
   40.3470   33.4680   40.2940 C   0  0  0  0  0  0  0  0  0  0  0  0
   39.2880   33.0020   39.5830 C   0  0  0  0  0  0  0  0  0  0  0  0
   39.2530   31.6600   39.7860 N   0  0  0  0  0  0  0  0  0  0  0  0
   40.2490   31.3190   40.5870 N   0  0  0  0  0  0  0  0  0  0  0  0
   40.7350   34.4830   40.4110 H   0  0  0  0  0  0  0  0  0  0  0  0
   38.6160   33.5900   38.9810 H   0  0  0  0  0  0  0  0  0  0  0  0
   43.4600   31.5280   43.4680 C   0  0  0  0  0  0  0  0  0  0  0  0
   44.3610   32.5970   43.3980 C   0  0  0  0  0  0  0  0  0  0  0  0
   44.0900   33.5950   42.4770 C   0  0  0  0  0  0  0  0  0  0  0  0
   42.9760   33.4820   41.7040 N   0  0  0  0  0  0  0  0  0  0  0  0
   42.1330   32.4350   41.8030 C   0  0  0  0  0  0  0  0  0  0  0  0
   42.3590   31.4460   42.6830 N   0  0  0  0  0  0  0  0  0  0  0  0
   43.5600   30.6850   44.1470 H   0  0  0  0  0  0  0  0  0  0  0  0
   45.2150   32.5740   44.0700 H   0  0  0  0  0  0  0  0  0  0  0  0
   44.7680   34.4160   42.4120 H   0  0  0  0  0  0  0  0  0  0  0  0
   38.0100   29.5800   42.5230 C   0  0  1  0  0  0  0  0  0  0  0  0
   37.5750   28.4410   43.4310 C   0  0  0  0  0  0  0  0  0  0  0  0
   38.9420   28.4710   42.8230 C   0  0  1  0  0  0  0  0  0  0  0  0
   38.1650   30.5280   43.1210 H   0  0  0  0  0  0  0  0  0  0  0  0
   36.8920   27.6740   43.0020 H   0  0  0  0  0  0  0  0  0  0  0  0
   37.4360   28.5960   44.5070 H   0  0  0  0  0  0  0  0  0  0  0  0
   39.7530   28.6720   43.5530 H   0  0  0  0  0  0  0  0  0  0  0  0
   39.2920   27.4650   41.7350 C   0  0  0  0  0  0  0  0  0  0  0  0
   39.1170   27.9760   40.7670 H   0  0  0  0  0  0  0  0  0  0  0  0
   40.3280   27.0690   41.8500 H   0  0  0  0  0  0  0  0  0  0  0  0
   38.4420   26.3350   41.9340 N   0  0  0  0  0  0  0  0  0  0  0  0
   37.6750   25.9250   40.7840 C   0  0  0  0  0  2  0  0  0  0  0  0
   36.8730   24.7930   41.4440 C   0  0  0  0  0  2  0  0  0  0  0  0
   37.9890   24.1240   42.2590 C   0  0  0  0  0  2  0  0  0  0  0  0
   39.1540   25.1070   42.2180 C   0  0  0  0  0  3  0  0  0  0  0  0
   39.7490   24.7920   41.3160 H   0  0  0  0  0  0  0  0  0  0  0  0
  1  6  1  0  0  0  0
  2  8  1  6  0  0  0
  2 18  1  0  0  0  0
  2  1  1  0  0  0  0
  3  2  1  0  0  0  0
  3  4  1  0  0  0  0
  4 11  1  0  0  0  0
  4  5  1  0  0  0  0
  5 13  1  0  0  0  0
  6 14  1  6  0  0  0
  6  5  1  0  0  0  0
  6 31  1  0  0  0  0
  7  1  1  0  0  0  0
  9  3  1  0  0  0  0
 10  3  1  0  0  0  0
 12  5  1  0  0  0  0
 15 26  1  0  0  0  0
 16 20  1  0  0  0  0
 16 15  1  0  0  0  0
 17 18  1  0  0  0  0
 17 16  2  0  0  0  0
 18 19  1  0  0  0  0
 19 15  2  0  0  0  0
 21 17  1  0  0  0  0
 22 28  1  0  0  0  0
 23 22  1  0  0  0  0
 23 29  1  0  0  0  0
 24 23  2  0  0  0  0
 25 26  2  0  0  0  0
 25 24  1  0  0  0  0
 26 27  1  0  0  0  0
 27 22  2  0  0  0  0
 30 24  1  0  0  0  0
 31 33  1  0  0  0  0
 31 34  1  1  0  0  0
 31 32  1  0  0  0  0
 32 36  1  0  0  0  0
 33 32  1  0  0  0  0
 33 37  1  1  0  0  0
 35 32  1  0  0  0  0
 38 40  1  0  0  0  0
 38 41  1  0  0  0  0
 38 33  1  0  0  0  0
 39 38  1  0  0  0  0
 41 45  1  0  0  0  0
 42 43  1  0  0  0  0
 42 41  1  0  0  0  0
 43 44  1  0  0  0  0
 45 44  1  0  0  0  0
 46 45  1  0  0  0  0
M  END
>  <minimizedAffinity>
-5.7827034

$$$$

 OpenBabel03242520073D

 46 50  0  0  1  0  0  0  0  0999 V2000
   38.2830   31.7800   39.2910 N   0  0  0  0  0  0  0  0  0  0  0  0
   38.8910   33.0280   39.4830 C   0  0  1  0  0  0  0  0  0  0  0  0
   38.9550   33.3130   40.9600 C   0  0  0  0  0  0  0  0  0  0  0  0
   39.8450   32.3250   41.4980 N   0  0  0  0  0  0  0  0  0  0  0  0
   39.3050   30.9940   41.4140 C   0  0  0  0  0  0  0  0  0  0  0  0
   38.5880   30.6870   40.1350 C   0  0  2  0  0  0  0  0  0  0  0  0
   37.2450   31.9390   39.1210 H   0  0  0  0  0  0  0  0  0  0  0  0
   38.3060   33.8280   39.0280 H   0  0  0  0  0  0  0  0  0  0  0  0
   39.4200   34.3120   41.1720 H   0  0  0  0  0  0  0  0  0  0  0  0
   37.9890   33.2360   41.4690 H   0  0  0  0  0  0  0  0  0  0  0  0
   40.8230   32.4250   41.1880 H   0  0  0  0  0  0  0  0  0  0  0  0
   38.6810   30.8710   42.3340 H   0  0  0  0  0  0  0  0  0  0  0  0
   40.1800   30.3110   41.6090 H   0  0  0  0  0  0  0  0  0  0  0  0
   37.5850   30.2770   40.4630 H   0  0  0  0  0  0  0  0  0  0  0  0
   41.9940   32.5090   37.8710 C   0  0  0  0  0  0  0  0  0  0  0  0
   42.2650   33.7020   38.5070 C   0  0  0  0  0  0  0  0  0  0  0  0
   41.1540   34.0670   39.1960 C   0  0  0  0  0  0  0  0  0  0  0  0
   40.2300   33.0980   38.9720 N   0  0  0  0  0  0  0  0  0  0  0  0
   40.7540   32.1790   38.1780 N   0  0  0  0  0  0  0  0  0  0  0  0
   43.2380   34.1930   38.4120 H   0  0  0  0  0  0  0  0  0  0  0  0
   41.0400   34.9520   39.8000 H   0  0  0  0  0  0  0  0  0  0  0  0
   43.3600   30.0240   35.5160 C   0  0  0  0  0  0  0  0  0  0  0  0
   44.7110   30.3800   35.4290 C   0  0  0  0  0  0  0  0  0  0  0  0
   45.1310   31.4660   36.1790 C   0  0  0  0  0  0  0  0  0  0  0  0
   44.2170   32.1170   36.9490 N   0  0  0  0  0  0  0  0  0  0  0  0
   42.9240   31.7420   37.0050 C   0  0  0  0  0  0  0  0  0  0  0  0
   42.4760   30.6950   36.2930 N   0  0  0  0  0  0  0  0  0  0  0  0
   42.9090   29.1950   34.9800 H   0  0  0  0  0  0  0  0  0  0  0  0
   45.3440   29.7810   34.7790 H   0  0  0  0  0  0  0  0  0  0  0  0
   46.1580   31.7490   36.1230 H   0  0  0  0  0  0  0  0  0  0  0  0
   39.3600   29.5790   39.4460 C   0  0  1  0  0  0  0  0  0  0  0  0
   39.7920   28.4290   40.3420 C   0  0  0  0  0  0  0  0  0  0  0  0
   38.7950   28.2280   39.2450 C   0  0  1  0  0  0  0  0  0  0  0  0
   40.1970   29.8720   38.7430 H   0  0  0  0  0  0  0  0  0  0  0  0
   39.3670   28.3910   41.3700 H   0  0  0  0  0  0  0  0  0  0  0  0
   40.7990   28.0030   40.2700 H   0  0  0  0  0  0  0  0  0  0  0  0
   39.1820   27.6370   38.3900 H   0  0  0  0  0  0  0  0  0  0  0  0
   37.3400   27.9570   39.6050 C   0  0  0  0  0  0  0  0  0  0  0  0
   36.8050   28.9230   39.4980 H   0  0  0  0  0  0  0  0  0  0  0  0
   36.9030   27.1340   38.9930 H   0  0  0  0  0  0  0  0  0  0  0  0
   37.3370   27.4610   40.9450 N   0  0  0  0  0  0  0  0  0  0  0  0
   36.3280   28.0190   41.8110 C   0  0  0  0  0  2  0  0  0  0  0  0
   36.7320   27.3060   43.1110 C   0  0  0  0  0  2  0  0  0  0  0  0
   36.9880   25.8940   42.5640 C   0  0  0  0  0  2  0  0  0  0  0  0
   37.0130   26.0540   41.0480 C   0  0  0  0  0  3  0  0  0  0  0  0
   35.9450   25.8820   40.7350 H   0  0  0  0  0  0  0  0  0  0  0  0
  1  2  1  0  0  0  0
  1  6  1  0  0  0  0
  2  8  1  6  0  0  0
  2  3  1  0  0  0  0
  3  9  1  0  0  0  0
  3 10  1  0  0  0  0
  3  4  1  0  0  0  0
  5  4  1  0  0  0  0
  5 13  1  0  0  0  0
  5 12  1  0  0  0  0
  6 14  1  1  0  0  0
  6  5  1  0  0  0  0
  7  1  1  0  0  0  0
 11  4  1  0  0  0  0
 15 19  2  0  0  0  0
 15 16  1  0  0  0  0
 16 17  2  0  0  0  0
 17 21  1  0  0  0  0
 18 17  1  0  0  0  0
 18  2  1  0  0  0  0
 19 18  1  0  0  0  0
 20 16  1  0  0  0  0
 22 27  1  0  0  0  0
 23 22  2  0  0  0  0
 23 24  1  0  0  0  0
 24 25  2  0  0  0  0
 25 26  1  0  0  0  0
 26 15  1  0  0  0  0
 27 26  2  0  0  0  0
 28 22  1  0  0  0  0
 29 23  1  0  0  0  0
 30 24  1  0  0  0  0
 31 34  1  6  0  0  0
 31  6  1  0  0  0  0
 31 32  1  0  0  0  0
 32 35  1  0  0  0  0
 33 37  1  6  0  0  0
 33 31  1  0  0  0  0
 33 38  1  0  0  0  0
 33 32  1  0  0  0  0
 36 32  1  0  0  0  0
 38 41  1  0  0  0  0
 39 38  1  0  0  0  0
 40 38  1  0  0  0  0
 41 45  1  0  0  0  0
 41 42  1  0  0  0  0
 42 43  1  0  0  0  0
 44 43  1  0  0  0  0
 45 44  1  0  0  0  0
 46 45  1  0  0  0  0
M  END
>  <minimizedAffinity>
-5.40064144

$$$$

 OpenBabel03242520073D

 46 50  0  0  1  0  0  0  0  0999 V2000
   39.1060   33.0690   40.3680 N   0  0  0  0  0  0  0  0  0  0  0  0
   37.7580   32.6910   40.3160 C   0  0  1  0  0  0  0  0  0  0  0  0
   37.3190   32.6660   38.8750 C   0  0  0  0  0  0  0  0  0  0  0  0
   38.0740   31.6110   38.2670 N   0  0  0  0  0  0  0  0  0  0  0  0
   39.4820   31.9060   38.2060 C   0  0  0  0  0  0  0  0  0  0  0  0
   40.0380   32.5680   39.4300 C   0  0  2  0  0  0  0  0  0  0  0  0
   39.1510   34.1200   40.5260 H   0  0  0  0  0  0  0  0  0  0  0  0
   37.1240   33.4140   40.8310 H   0  0  0  0  0  0  0  0  0  0  0  0
   36.2370   32.3860   38.7750 H   0  0  0  0  0  0  0  0  0  0  0  0
   37.5130   33.5990   38.3370 H   0  0  0  0  0  0  0  0  0  0  0  0
   37.8360   30.6690   38.6100 H   0  0  0  0  0  0  0  0  0  0  0  0
   39.6190   32.4910   37.2620 H   0  0  0  0  0  0  0  0  0  0  0  0
   39.9760   30.9220   37.9680 H   0  0  0  0  0  0  0  0  0  0  0  0
   40.5830   33.4790   39.0370 H   0  0  0  0  0  0  0  0  0  0  0  0
   37.9290   29.4730   41.7680 C   0  0  0  0  0  0  0  0  0  0  0  0
   36.5670   29.5620   41.5730 C   0  0  0  0  0  0  0  0  0  0  0  0
   36.3070   30.7670   41.0060 C   0  0  0  0  0  0  0  0  0  0  0  0
   37.5050   31.3900   40.8660 N   0  0  0  0  0  0  0  0  0  0  0  0
   38.4590   30.5990   41.3280 N   0  0  0  0  0  0  0  0  0  0  0  0
   35.8940   28.7480   41.8580 H   0  0  0  0  0  0  0  0  0  0  0  0
   35.3370   31.1450   40.7260 H   0  0  0  0  0  0  0  0  0  0  0  0
   40.4950   27.4370   43.4580 C   0  0  0  0  0  0  0  0  0  0  0  0
   39.9430   26.1500   43.4360 C   0  0  0  0  0  0  0  0  0  0  0  0
   38.7000   26.0030   42.8430 C   0  0  0  0  0  0  0  0  0  0  0  0
   38.0940   27.1040   42.3200 N   0  0  0  0  0  0  0  0  0  0  0  0
   38.6600   28.3260   42.3630 C   0  0  0  0  0  0  0  0  0  0  0  0
   39.8640   28.5120   42.9290 N   0  0  0  0  0  0  0  0  0  0  0  0
   41.4590   27.6830   43.8930 H   0  0  0  0  0  0  0  0  0  0  0  0
   40.5250   25.3500   43.8860 H   0  0  0  0  0  0  0  0  0  0  0  0
   38.2670   25.0280   42.8190 H   0  0  0  0  0  0  0  0  0  0  0  0
   41.0560   31.6160   40.0260 C   0  0  1  0  0  0  0  0  0  0  0  0
   42.3890   31.5450   39.2990 C   0  0  0  0  0  0  0  0  0  0  0  0
   42.2900   32.0910   40.6890 C   0  0  1  0  0  0  0  0  0  0  0  0
   40.7070   30.5800   40.3210 H   0  0  0  0  0  0  0  0  0  0  0  0
   42.5860   32.3070   38.5130 H   0  0  0  0  0  0  0  0  0  0  0  0
   42.8790   30.5840   39.1080 H   0  0  0  0  0  0  0  0  0  0  0  0
   42.7370   31.4340   41.4620 H   0  0  0  0  0  0  0  0  0  0  0  0
   42.4970   33.5830   40.9160 C   0  0  0  0  0  0  0  0  0  0  0  0
   42.8480   34.0020   39.9510 H   0  0  0  0  0  0  0  0  0  0  0  0
   41.5790   34.0770   41.3100 H   0  0  0  0  0  0  0  0  0  0  0  0
   43.4610   33.7070   41.9630 N   0  0  0  0  0  0  0  0  0  0  0  0
   43.8330   32.4750   42.6140 C   0  0  0  0  0  2  0  0  0  0  0  0
   44.7710   33.0610   43.6800 C   0  0  0  0  0  2  0  0  0  0  0  0
   45.5420   34.0730   42.8190 C   0  0  0  0  0  2  0  0  0  0  0  0
   44.7600   34.1610   41.5130 C   0  0  0  0  0  3  0  0  0  0  0  0
   45.2330   33.3800   40.8550 H   0  0  0  0  0  0  0  0  0  0  0  0
  1  7  1  0  0  0  0
  2  1  1  0  0  0  0
  2  8  1  1  0  0  0
  2 18  1  0  0  0  0
  3  2  1  0  0  0  0
  4 11  1  0  0  0  0
  4  3  1  0  0  0  0
  5  4  1  0  0  0  0
  5  6  1  0  0  0  0
  6 14  1  6  0  0  0
  6 31  1  0  0  0  0
  6  1  1  0  0  0  0
  9  3  1  0  0  0  0
 10  3  1  0  0  0  0
 12  5  1  0  0  0  0
 13  5  1  0  0  0  0
 15 26  1  0  0  0  0
 16 15  1  0  0  0  0
 16 20  1  0  0  0  0
 17 16  2  0  0  0  0
 18 17  1  0  0  0  0
 18 19  1  0  0  0  0
 19 15  2  0  0  0  0
 21 17  1  0  0  0  0
 22 28  1  0  0  0  0
 23 22  1  0  0  0  0
 23 29  1  0  0  0  0
 24 23  2  0  0  0  0
 25 26  2  0  0  0  0
 25 24  1  0  0  0  0
 26 27  1  0  0  0  0
 27 22  2  0  0  0  0
 30 24  1  0  0  0  0
 31 34  1  1  0  0  0
 31 33  1  0  0  0  0
 32 31  1  0  0  0  0
 32 33  1  0  0  0  0
 33 38  1  0  0  0  0
 33 37  1  1  0  0  0
 35 32  1  0  0  0  0
 36 32  1  0  0  0  0
 38 40  1  0  0  0  0
 38 41  1  0  0  0  0
 39 38  1  0  0  0  0
 41 42  1  0  0  0  0
 42 43  1  0  0  0  0
 44 43  1  0  0  0  0
 45 41  1  0  0  0  0
 45 44  1  0  0  0  0
 46 45  1  0  0  0  0
M  END
>  <minimizedAffinity>
-5.2132988

$$$$

 OpenBabel03242520073D

 46 50  0  0  1  0  0  0  0  0999 V2000
   37.5900   27.9560   39.9580 N   0  0  0  0  0  0  0  0  0  0  0  0
   37.2840   28.6910   38.8050 C   0  0  1  0  0  0  0  0  0  0  0  0
   35.7870   28.7980   38.6830 C   0  0  0  0  0  0  0  0  0  0  0  0
   35.3700   29.5860   39.8050 N   0  0  0  0  0  0  0  0  0  0  0  0
   35.5800   28.9110   41.0590 C   0  0  0  0  0  0  0  0  0  0  0  0
   36.8680   28.1540   41.1580 C   0  0  2  0  0  0  0  0  0  0  0  0
   37.7220   26.9380   39.6780 H   0  0  0  0  0  0  0  0  0  0  0  0
   37.6430   28.1860   37.9070 H   0  0  0  0  0  0  0  0  0  0  0  0
   35.4840   29.3640   37.7630 H   0  0  0  0  0  0  0  0  0  0  0  0
   35.2700   27.8340   38.7130 H   0  0  0  0  0  0  0  0  0  0  0  0
   35.6880   30.5660   39.7740 H   0  0  0  0  0  0  0  0  0  0  0  0
   34.6640   28.2860   41.2130 H   0  0  0  0  0  0  0  0  0  0  0  0
   35.4720   29.7130   41.8440 H   0  0  0  0  0  0  0  0  0  0  0  0
   36.5640   27.1180   41.4960 H   0  0  0  0  0  0  0  0  0  0  0  0
   39.1760   31.6420   39.2590 C   0  0  0  0  0  0  0  0  0  0  0  0
   38.1260   32.1560   38.5280 C   0  0  0  0  0  0  0  0  0  0  0  0
   37.2720   31.1360   38.2550 C   0  0  0  0  0  0  0  0  0  0  0  0
   37.8120   30.0250   38.8180 N   0  0  0  0  0  0  0  0  0  0  0  0
   38.9480   30.3510   39.4120 N   0  0  0  0  0  0  0  0  0  0  0  0
   38.0770   33.2160   38.2650 H   0  0  0  0  0  0  0  0  0  0  0  0
   36.3520   31.2060   37.7000 H   0  0  0  0  0  0  0  0  0  0  0  0
   41.8380   34.1610   39.6450 C   0  0  0  0  0  0  0  0  0  0  0  0
   42.5100   33.7380   40.7980 C   0  0  0  0  0  0  0  0  0  0  0  0
   42.0380   32.5970   41.4240 C   0  0  0  0  0  0  0  0  0  0  0  0
   40.9620   31.9580   40.8880 N   0  0  0  0  0  0  0  0  0  0  0  0
   40.3440   32.3990   39.7750 C   0  0  0  0  0  0  0  0  0  0  0  0
   40.7690   33.5020   39.1380 N   0  0  0  0  0  0  0  0  0  0  0  0
   42.1100   35.0380   39.0640 H   0  0  0  0  0  0  0  0  0  0  0  0
   43.3580   34.3330   41.1280 H   0  0  0  0  0  0  0  0  0  0  0  0
   42.5400   32.2620   42.3040 H   0  0  0  0  0  0  0  0  0  0  0  0
   37.6820   28.8030   42.2610 C   0  0  1  0  0  0  0  0  0  0  0  0
   37.2320   28.4830   43.6780 C   0  0  0  0  0  0  0  0  0  0  0  0
   38.5590   28.0220   43.1600 C   0  0  1  0  0  0  0  0  0  0  0  0
   37.9330   29.9010   42.1610 H   0  0  0  0  0  0  0  0  0  0  0  0
   36.4780   27.6760   43.8080 H   0  0  0  0  0  0  0  0  0  0  0  0
   37.1710   29.2660   44.4420 H   0  0  0  0  0  0  0  0  0  0  0  0
   39.4240   28.5490   43.6100 H   0  0  0  0  0  0  0  0  0  0  0  0
   38.7770   26.5370   42.8990 C   0  0  0  0  0  0  0  0  0  0  0  0
   38.3660   26.0000   43.7770 H   0  0  0  0  0  0  0  0  0  0  0  0
   38.3320   26.2140   41.9290 H   0  0  0  0  0  0  0  0  0  0  0  0
   40.1840   26.3530   42.7380 N   0  0  0  0  0  0  0  0  0  0  0  0
   41.0180   27.1600   43.5940 C   0  0  0  0  0  2  0  0  0  0  0  0
   42.3860   26.7270   43.0440 C   0  0  0  0  0  2  0  0  0  0  0  0
   42.1510   25.2150   42.9240 C   0  0  0  0  0  2  0  0  0  0  0  0
   40.6480   25.0310   43.1020 C   0  0  0  0  0  3  0  0  0  0  0  0
   40.5190   24.8700   44.2080 H   0  0  0  0  0  0  0  0  0  0  0  0
  1  6  1  0  0  0  0
  2  8  1  6  0  0  0
  2 18  1  0  0  0  0
  2  1  1  0  0  0  0
  3 10  1  0  0  0  0
  3  2  1  0  0  0  0
  3  4  1  0  0  0  0
  4  5  1  0  0  0  0
  5  6  1  0  0  0  0
  5 12  1  0  0  0  0
  5 13  1  0  0  0  0
  6 14  1  1  0  0  0
  6 31  1  0  0  0  0
  7  1  1  0  0  0  0
  9  3  1  0  0  0  0
 11  4  1  0  0  0  0
 15 19  2  0  0  0  0
 15 26  1  0  0  0  0
 16 15  1  0  0  0  0
 17 16  2  0  0  0  0
 17 18  1  0  0  0  0
 18 19  1  0  0  0  0
 20 16  1  0  0  0  0
 21 17  1  0  0  0  0
 22 23  1  0  0  0  0
 23 29  1  0  0  0  0
 23 24  2  0  0  0  0
 24 30  1  0  0  0  0
 25 24  1  0  0  0  0
 26 25  2  0  0  0  0
 27 22  2  0  0  0  0
 27 26  1  0  0  0  0
 28 22  1  0  0  0  0
 31 34  1  6  0  0  0
 31 33  1  0  0  0  0
 31 32  1  0  0  0  0
 32 35  1  0  0  0  0
 32 36  1  0  0  0  0
 33 37  1  1  0  0  0
 33 32  1  0  0  0  0
 38 33  1  0  0  0  0
 38 39  1  0  0  0  0
 40 38  1  0  0  0  0
 41 38  1  0  0  0  0
 41 45  1  0  0  0  0
 41 42  1  0  0  0  0
 43 42  1  0  0  0  0
 44 43  1  0  0  0  0
 44 45  1  0  0  0  0
 45 46  1  0  0  0  0
M  END
>  <minimizedAffinity>
-5.17603159

$$$$

 OpenBabel03242520073D

 46 50  0  0  1  0  0  0  0  0999 V2000
   36.8700   27.6570   39.8790 N   0  0  0  0  0  0  0  0  0  0  0  0
   37.2580   28.5070   38.8350 C   0  0  1  0  0  0  0  0  0  0  0  0
   36.2270   29.5950   38.6890 C   0  0  0  0  0  0  0  0  0  0  0  0
   36.3060   30.3560   39.9020 N   0  0  0  0  0  0  0  0  0  0  0  0
   35.8730   29.6050   41.0510 C   0  0  0  0  0  0  0  0  0  0  0  0
   36.3240   28.1780   41.0750 C   0  0  2  0  0  0  0  0  0  0  0  0
   36.3320   26.8400   39.4590 H   0  0  0  0  0  0  0  0  0  0  0  0
   37.2980   27.9750   37.8840 H   0  0  0  0  0  0  0  0  0  0  0  0
   36.4800   30.2990   37.8520 H   0  0  0  0  0  0  0  0  0  0  0  0
   35.2050   29.2240   38.5670 H   0  0  0  0  0  0  0  0  0  0  0  0
   37.1900   30.8720   40.0200 H   0  0  0  0  0  0  0  0  0  0  0  0
   34.7620   29.7400   41.0890 H   0  0  0  0  0  0  0  0  0  0  0  0
   36.2290   30.2010   41.9390 H   0  0  0  0  0  0  0  0  0  0  0  0
   35.3770   27.5830   41.2520 H   0  0  0  0  0  0  0  0  0  0  0  0
   40.0660   30.6520   38.9230 C   0  0  0  0  0  0  0  0  0  0  0  0
   40.5490   29.6150   39.6920 C   0  0  0  0  0  0  0  0  0  0  0  0
   39.5780   28.6690   39.7710 C   0  0  0  0  0  0  0  0  0  0  0  0
   38.5260   29.1410   39.0540 N   0  0  0  0  0  0  0  0  0  0  0  0
   38.8410   30.3270   38.5570 N   0  0  0  0  0  0  0  0  0  0  0  0
   41.5540   29.6410   40.1220 H   0  0  0  0  0  0  0  0  0  0  0  0
   39.6400   27.7340   40.3000 H   0  0  0  0  0  0  0  0  0  0  0  0
   41.2540   34.1410   38.9140 C   0  0  0  0  0  0  0  0  0  0  0  0
   42.1720   34.1610   37.8560 C   0  0  0  0  0  0  0  0  0  0  0  0
   42.3680   32.9770   37.1650 C   0  0  0  0  0  0  0  0  0  0  0  0
   41.6650   31.8760   37.5470 N   0  0  0  0  0  0  0  0  0  0  0  0
   40.7900   31.9000   38.5720 C   0  0  0  0  0  0  0  0  0  0  0  0
   40.5710   33.0260   39.2690 N   0  0  0  0  0  0  0  0  0  0  0  0
   41.0120   35.0020   39.5320 H   0  0  0  0  0  0  0  0  0  0  0  0
   42.6710   35.1030   37.6460 H   0  0  0  0  0  0  0  0  0  0  0  0
   43.0640   32.9760   36.3560 H   0  0  0  0  0  0  0  0  0  0  0  0
   37.2280   28.0170   42.2810 C   0  0  1  0  0  0  0  0  0  0  0  0
   36.5410   27.5530   43.5550 C   0  0  0  0  0  0  0  0  0  0  0  0
   37.5480   26.6930   42.8590 C   0  0  1  0  0  0  0  0  0  0  0  0
   37.9680   28.8430   42.5050 H   0  0  0  0  0  0  0  0  0  0  0  0
   35.4900   27.1990   43.4730 H   0  0  0  0  0  0  0  0  0  0  0  0
   36.7710   28.0150   44.5220 H   0  0  0  0  0  0  0  0  0  0  0  0
   38.5090   26.5960   43.4040 H   0  0  0  0  0  0  0  0  0  0  0  0
   37.0800   25.4280   42.1510 C   0  0  0  0  0  0  0  0  0  0  0  0
   36.9880   24.6470   42.9320 H   0  0  0  0  0  0  0  0  0  0  0  0
   36.1410   25.5960   41.5740 H   0  0  0  0  0  0  0  0  0  0  0  0
   38.0680   25.1220   41.1660 N   0  0  0  0  0  0  0  0  0  0  0  0
   39.4330   25.1350   41.6310 C   0  0  0  0  0  2  0  0  0  0  0  0
   40.1280   24.8560   40.2890 C   0  0  0  0  0  2  0  0  0  0  0  0
   39.2100   23.7510   39.7450 C   0  0  0  0  0  2  0  0  0  0  0  0
   37.9850   23.7700   40.6540 C   0  0  0  0  0  3  0  0  0  0  0  0
   38.2360   23.0350   41.4690 H   0  0  0  0  0  0  0  0  0  0  0  0
  1  6  1  0  0  0  0
  2  8  1  6  0  0  0
  2 18  1  0  0  0  0
  2  1  1  0  0  0  0
  3  2  1  0  0  0  0
  3  4  1  0  0  0  0
  4 11  1  0  0  0  0
  4  5  1  0  0  0  0
  5  6  1  0  0  0  0
  5 12  1  0  0  0  0
  5 13  1  0  0  0  0
  6 14  1  1  0  0  0
  6 31  1  0  0  0  0
  7  1  1  0  0  0  0
  9  3  1  0  0  0  0
 10  3  1  0  0  0  0
 15 16  1  0  0  0  0
 16 17  2  0  0  0  0
 16 20  1  0  0  0  0
 17 21  1  0  0  0  0
 18 17  1  0  0  0  0
 19 15  2  0  0  0  0
 19 18  1  0  0  0  0
 22 27  1  0  0  0  0
 22 28  1  0  0  0  0
 23 22  2  0  0  0  0
 24 25  2  0  0  0  0
 24 23  1  0  0  0  0
 25 26  1  0  0  0  0
 26 15  1  0  0  0  0
 26 27  2  0  0  0  0
 29 23  1  0  0  0  0
 30 24  1  0  0  0  0
 31 34  1  1  0  0  0
 31 33  1  0  0  0  0
 31 32  1  0  0  0  0
 32 36  1  0  0  0  0
 33 37  1  1  0  0  0
 33 32  1  0  0  0  0
 35 32  1  0  0  0  0
 38 33  1  0  0  0  0
 38 39  1  0  0  0  0
 40 38  1  0  0  0  0
 41 42  1  0  0  0  0
 41 38  1  0  0  0  0
 43 42  1  0  0  0  0
 44 43  1  0  0  0  0
 44 45  1  0  0  0  0
 45 41  1  0  0  0  0
 45 46  1  0  0  0  0
M  END
>  <minimizedAffinity>
-5.14414072

$$$$

 OpenBabel03242520073D

 46 50  0  0  1  0  0  0  0  0999 V2000
   37.3190   30.0810   38.8710 N   0  0  0  0  0  0  0  0  0  0  0  0
   37.7320   30.8290   39.9810 C   0  0  1  0  0  0  0  0  0  0  0  0
   36.5200   31.4560   40.6190 C   0  0  0  0  0  0  0  0  0  0  0  0
   35.7440   30.3590   41.1180 N   0  0  0  0  0  0  0  0  0  0  0  0
   35.2090   29.5390   40.0620 C   0  0  0  0  0  0  0  0  0  0  0  0
   36.1490   29.2890   38.9230 C   0  0  2  0  0  0  0  0  0  0  0  0
   37.4060   30.6940   38.0060 H   0  0  0  0  0  0  0  0  0  0  0  0
   38.3950   31.6440   39.6860 H   0  0  0  0  0  0  0  0  0  0  0  0
   36.7950   32.0840   41.5070 H   0  0  0  0  0  0  0  0  0  0  0  0
   35.9070   32.0400   39.9260 H   0  0  0  0  0  0  0  0  0  0  0  0
   36.1880   29.8450   41.8920 H   0  0  0  0  0  0  0  0  0  0  0  0
   34.2470   30.0300   39.7670 H   0  0  0  0  0  0  0  0  0  0  0  0
   34.8650   28.5950   40.5720 H   0  0  0  0  0  0  0  0  0  0  0  0
   35.5590   29.5700   38.0000 H   0  0  0  0  0  0  0  0  0  0  0  0
   39.0960   28.2860   42.0210 C   0  0  0  0  0  0  0  0  0  0  0  0
   39.5160   29.3930   42.7280 C   0  0  0  0  0  0  0  0  0  0  0  0
   39.0710   30.4960   42.0730 C   0  0  0  0  0  0  0  0  0  0  0  0
   38.3920   30.0480   40.9870 N   0  0  0  0  0  0  0  0  0  0  0  0
   38.4200   28.7250   40.9760 N   0  0  0  0  0  0  0  0  0  0  0  0
   40.1030   29.2970   43.6460 H   0  0  0  0  0  0  0  0  0  0  0  0
   39.2310   31.5200   42.3680 H   0  0  0  0  0  0  0  0  0  0  0  0
   40.7040   25.2120   43.2660 C   0  0  0  0  0  0  0  0  0  0  0  0
   39.7550   24.2210   42.9840 C   0  0  0  0  0  0  0  0  0  0  0  0
   38.5800   24.6250   42.3720 C   0  0  0  0  0  0  0  0  0  0  0  0
   38.4170   25.9450   42.0830 N   0  0  0  0  0  0  0  0  0  0  0  0
   39.3560   26.8670   42.3720 C   0  0  0  0  0  0  0  0  0  0  0  0
   40.5100   26.5180   42.9650 N   0  0  0  0  0  0  0  0  0  0  0  0
   41.6630   25.0240   43.7420 H   0  0  0  0  0  0  0  0  0  0  0  0
   40.0020   23.2000   43.2630 H   0  0  0  0  0  0  0  0  0  0  0  0
   37.8470   23.8820   42.1510 H   0  0  0  0  0  0  0  0  0  0  0  0
   36.4180   27.7970   38.8880 C   0  0  1  0  0  0  0  0  0  0  0  0
   35.5700   27.0030   37.9080 C   0  0  0  0  0  0  0  0  0  0  0  0
   37.0500   27.1340   37.7270 C   0  0  1  0  0  0  0  0  0  0  0  0
   36.5050   27.2490   39.8740 H   0  0  0  0  0  0  0  0  0  0  0  0
   34.9590   27.5760   37.1760 H   0  0  0  0  0  0  0  0  0  0  0  0
   35.1230   26.0440   38.1930 H   0  0  0  0  0  0  0  0  0  0  0  0
   37.6100   26.1970   37.9190 H   0  0  0  0  0  0  0  0  0  0  0  0
   37.5840   27.9770   36.5760 C   0  0  0  0  0  0  0  0  0  0  0  0
   36.9660   27.7260   35.6900 H   0  0  0  0  0  0  0  0  0  0  0  0
   37.5910   29.0640   36.8220 H   0  0  0  0  0  0  0  0  0  0  0  0
   38.9590   27.6270   36.4170 N   0  0  0  0  0  0  0  0  0  0  0  0
   39.8560   28.1680   37.4070 C   0  0  0  0  0  2  0  0  0  0  0  0
   41.1760   27.6410   36.8240 C   0  0  0  0  0  2  0  0  0  0  0  0
   40.7470   26.2120   36.4600 C   0  0  0  0  0  2  0  0  0  0  0  0
   39.2270   26.2130   36.5750 C   0  0  0  0  0  3  0  0  0  0  0  0
   39.0310   25.9020   37.6390 H   0  0  0  0  0  0  0  0  0  0  0  0
  1  6  1  0  0  0  0
  1  2  1  0  0  0  0
  2  8  1  6  0  0  0
  2  3  1  0  0  0  0
  2 18  1  0  0  0  0
  3  4  1  0  0  0  0
  3  9  1  0  0  0  0
  4 11  1  0  0  0  0
  5 13  1  0  0  0  0
  5  4  1  0  0  0  0
  6 14  1  6  0  0  0
  6  5  1  0  0  0  0
  7  1  1  0  0  0  0
 10  3  1  0  0  0  0
 12  5  1  0  0  0  0
 15 26  1  0  0  0  0
 15 16  1  0  0  0  0
 16 20  1  0  0  0  0
 17 21  1  0  0  0  0
 17 16  2  0  0  0  0
 18 17  1  0  0  0  0
 19 18  1  0  0  0  0
 19 15  2  0  0  0  0
 22 28  1  0  0  0  0
 23 29  1  0  0  0  0
 23 22  1  0  0  0  0
 24 23  2  0  0  0  0
 25 24  1  0  0  0  0
 25 26  2  0  0  0  0
 26 27  1  0  0  0  0
 27 22  2  0  0  0  0
 30 24  1  0  0  0  0
 31  6  1  0  0  0  0
 31 34  1  1  0  0  0
 32 36  1  0  0  0  0
 32 31  1  0  0  0  0
 33 32  1  0  0  0  0
 33 37  1  1  0  0  0
 33 31  1  0  0  0  0
 35 32  1  0  0  0  0
 38 40  1  0  0  0  0
 38 33  1  0  0  0  0
 39 38  1  0  0  0  0
 41 45  1  0  0  0  0
 41 38  1  0  0  0  0
 41 42  1  0  0  0  0
 43 42  1  0  0  0  0
 44 45  1  0  0  0  0
 44 43  1  0  0  0  0
 45 46  1  0  0  0  0
M  END
>  <minimizedAffinity>
-5.12531042

$$$$

 OpenBabel03242520073D

 46 50  0  0  1  0  0  0  0  0999 V2000
   37.9860   30.9180   41.1020 N   0  0  0  0  0  0  0  0  0  0  0  0
   38.6790   31.7390   40.2020 C   0  0  1  0  0  0  0  0  0  0  0  0
   39.5730   32.6650   40.9830 C   0  0  0  0  0  0  0  0  0  0  0  0
   40.5440   31.8160   41.6080 N   0  0  0  0  0  0  0  0  0  0  0  0
   39.9620   30.9560   42.6060 C   0  0  0  0  0  0  0  0  0  0  0  0
   38.6360   30.3690   42.2320 C   0  0  2  0  0  0  0  0  0  0  0  0
   37.0420   31.3660   41.3030 H   0  0  0  0  0  0  0  0  0  0  0  0
   37.9930   32.3640   39.6290 H   0  0  0  0  0  0  0  0  0  0  0  0
   40.1410   33.3610   40.3100 H   0  0  0  0  0  0  0  0  0  0  0  0
   39.0510   33.2380   41.7560 H   0  0  0  0  0  0  0  0  0  0  0  0
   41.1880   31.3540   40.9490 H   0  0  0  0  0  0  0  0  0  0  0  0
   39.9500   31.5620   43.5460 H   0  0  0  0  0  0  0  0  0  0  0  0
   40.7510   30.1790   42.8170 H   0  0  0  0  0  0  0  0  0  0  0  0
   37.9620   30.6090   43.1080 H   0  0  0  0  0  0  0  0  0  0  0  0
   41.1830   30.6020   37.9820 C   0  0  0  0  0  0  0  0  0  0  0  0
   40.3420   29.5100   37.9540 C   0  0  0  0  0  0  0  0  0  0  0  0
   39.2920   29.7730   38.7730 C   0  0  0  0  0  0  0  0  0  0  0  0
   39.5070   31.0130   39.2840 N   0  0  0  0  0  0  0  0  0  0  0  0
   40.6430   31.4870   38.7980 N   0  0  0  0  0  0  0  0  0  0  0  0
   40.5670   28.6300   37.3450 H   0  0  0  0  0  0  0  0  0  0  0  0
   38.4570   29.1210   38.9700 H   0  0  0  0  0  0  0  0  0  0  0  0
   44.5370   31.7240   36.9440 C   0  0  0  0  0  0  0  0  0  0  0  0
   44.7830   30.9650   35.7930 C   0  0  0  0  0  0  0  0  0  0  0  0
   43.7950   30.0810   35.3940 C   0  0  0  0  0  0  0  0  0  0  0  0
   42.6540   30.0020   36.1330 N   0  0  0  0  0  0  0  0  0  0  0  0
   42.4570   30.7510   37.2350 C   0  0  0  0  0  0  0  0  0  0  0  0
   43.3900   31.6210   37.6570 N   0  0  0  0  0  0  0  0  0  0  0  0
   45.2300   32.4510   37.3590 H   0  0  0  0  0  0  0  0  0  0  0  0
   45.7330   31.1180   35.2880 H   0  0  0  0  0  0  0  0  0  0  0  0
   43.9680   29.4950   34.5190 H   0  0  0  0  0  0  0  0  0  0  0  0
   38.8200   28.8650   42.1620 C   0  0  1  0  0  0  0  0  0  0  0  0
   38.2860   28.0860   43.3530 C   0  0  0  0  0  0  0  0  0  0  0  0
   37.6810   27.9370   41.9920 C   0  0  1  0  0  0  0  0  0  0  0  0
   39.8300   28.4670   41.8450 H   0  0  0  0  0  0  0  0  0  0  0  0
   37.6550   28.6350   44.0850 H   0  0  0  0  0  0  0  0  0  0  0  0
   38.8660   27.2710   43.8010 H   0  0  0  0  0  0  0  0  0  0  0  0
   37.8900   26.9590   41.5130 H   0  0  0  0  0  0  0  0  0  0  0  0
   36.2860   28.4920   41.7360 C   0  0  0  0  0  0  0  0  0  0  0  0
   35.5730   27.7640   42.1730 H   0  0  0  0  0  0  0  0  0  0  0  0
   36.1690   29.5270   42.1350 H   0  0  0  0  0  0  0  0  0  0  0  0
   36.1530   28.6260   40.3210 N   0  0  0  0  0  0  0  0  0  0  0  0
   36.2070   27.3940   39.5720 C   0  0  0  0  0  2  0  0  0  0  0  0
   36.1210   27.9890   38.1580 C   0  0  0  0  0  2  0  0  0  0  0  0
   35.0220   29.0370   38.3840 C   0  0  0  0  0  2  0  0  0  0  0  0
   34.8620   29.1260   39.8980 C   0  0  0  0  0  3  0  0  0  0  0  0
   34.0620   28.3700   40.1340 H   0  0  0  0  0  0  0  0  0  0  0  0
  1  7  1  0  0  0  0
  1  6  1  0  0  0  0
  2  8  1  6  0  0  0
  2  3  1  0  0  0  0
  2  1  1  0  0  0  0
  3  4  1  0  0  0  0
  3 10  1  0  0  0  0
  4  5  1  0  0  0  0
  5 13  1  0  0  0  0
  5 12  1  0  0  0  0
  6  5  1  0  0  0  0
  6 14  1  1  0  0  0
  9  3  1  0  0  0  0
 11  4  1  0  0  0  0
 15 19  2  0  0  0  0
 16 15  1  0  0  0  0
 16 17  2  0  0  0  0
 17 21  1  0  0  0  0
 17 18  1  0  0  0  0
 18  2  1  0  0  0  0
 19 18  1  0  0  0  0
 20 16  1  0  0  0  0
 22 28  1  0  0  0  0
 22 27  1  0  0  0  0
 23 22  2  0  0  0  0
 24 23  1  0  0  0  0
 24 25  2  0  0  0  0
 25 26  1  0  0  0  0
 26 27  2  0  0  0  0
 26 15  1  0  0  0  0
 29 23  1  0  0  0  0
 30 24  1  0  0  0  0
 31 34  1  6  0  0  0
 31  6  1  0  0  0  0
 31 32  1  0  0  0  0
 32 36  1  0  0  0  0
 32 35  1  0  0  0  0
 33 37  1  6  0  0  0
 33 31  1  0  0  0  0
 33 32  1  0  0  0  0
 38 33  1  0  0  0  0
 38 40  1  0  0  0  0
 38 39  1  0  0  0  0
 41 38  1  0  0  0  0
 42 41  1  0  0  0  0
 43 44  1  0  0  0  0
 43 42  1  0  0  0  0
 44 45  1  0  0  0  0
 45 46  1  0  0  0  0
 45 41  1  0  0  0  0
M  END
>  <minimizedAffinity>
-5.11559916

$$$$

 OpenBabel03242520073D

 46 50  0  0  1  0  0  0  0  0999 V2000
   37.2780   28.3190   38.1540 N   0  0  0  0  0  0  0  0  0  0  0  0
   37.8670   27.4370   37.2380 C   0  0  1  0  0  0  0  0  0  0  0  0
   37.1980   27.6110   35.9010 C   0  0  0  0  0  0  0  0  0  0  0  0
   37.5340   28.9390   35.4790 N   0  0  0  0  0  0  0  0  0  0  0  0
   36.9350   29.9490   36.3120 C   0  0  0  0  0  0  0  0  0  0  0  0
   36.9470   29.6410   37.7780 C   0  0  2  0  0  0  0  0  0  0  0  0
   36.5100   27.7960   38.6730 H   0  0  0  0  0  0  0  0  0  0  0  0
   37.7180   26.3980   37.5370 H   0  0  0  0  0  0  0  0  0  0  0  0
   37.6200   26.9130   35.1300 H   0  0  0  0  0  0  0  0  0  0  0  0
   36.1080   27.5130   35.9340 H   0  0  0  0  0  0  0  0  0  0  0  0
   38.5340   29.0760   35.2710 H   0  0  0  0  0  0  0  0  0  0  0  0
   35.9150   30.1170   35.8830 H   0  0  0  0  0  0  0  0  0  0  0  0
   37.4790   30.9010   36.0520 H   0  0  0  0  0  0  0  0  0  0  0  0
   35.8730   29.7830   38.1060 H   0  0  0  0  0  0  0  0  0  0  0  0
   41.1430   28.7370   36.9760 C   0  0  0  0  0  0  0  0  0  0  0  0
   41.3920   27.4240   36.6360 C   0  0  0  0  0  0  0  0  0  0  0  0
   40.2130   26.7520   36.6840 C   0  0  0  0  0  0  0  0  0  0  0  0
   39.2710   27.6590   37.0500 N   0  0  0  0  0  0  0  0  0  0  0  0
   39.8500   28.8370   37.2190 N   0  0  0  0  0  0  0  0  0  0  0  0
   42.3990   27.0780   36.3870 H   0  0  0  0  0  0  0  0  0  0  0  0
   40.0660   25.7060   36.4720 H   0  0  0  0  0  0  0  0  0  0  0  0
   42.6930   32.0780   37.1100 C   0  0  0  0  0  0  0  0  0  0  0  0
   44.0600   31.7900   37.2010 C   0  0  0  0  0  0  0  0  0  0  0  0
   44.4270   30.4540   37.2150 C   0  0  0  0  0  0  0  0  0  0  0  0
   43.4500   29.5100   37.1400 N   0  0  0  0  0  0  0  0  0  0  0  0
   42.1430   29.8300   37.0540 C   0  0  0  0  0  0  0  0  0  0  0  0
   41.7450   31.1130   37.0380 N   0  0  0  0  0  0  0  0  0  0  0  0
   42.2780   33.0820   37.0900 H   0  0  0  0  0  0  0  0  0  0  0  0
   44.7450   32.6320   37.2540 H   0  0  0  0  0  0  0  0  0  0  0  0
   45.4650   30.2190   37.2830 H   0  0  0  0  0  0  0  0  0  0  0  0
   37.8010   30.7000   38.4470 C   0  0  1  0  0  0  0  0  0  0  0  0
   37.1750   32.0820   38.5390 C   0  0  0  0  0  0  0  0  0  0  0  0
   37.4580   31.2750   39.7670 C   0  0  1  0  0  0  0  0  0  0  0  0
   38.8890   30.7740   38.1460 H   0  0  0  0  0  0  0  0  0  0  0  0
   36.0970   32.1760   38.2820 H   0  0  0  0  0  0  0  0  0  0  0  0
   37.7580   32.9830   38.3140 H   0  0  0  0  0  0  0  0  0  0  0  0
   38.2920   31.6700   40.3810 H   0  0  0  0  0  0  0  0  0  0  0  0
   36.2930   30.6990   40.5600 C   0  0  0  0  0  0  0  0  0  0  0  0
   35.6290   31.5520   40.8070 H   0  0  0  0  0  0  0  0  0  0  0  0
   35.7780   29.8770   40.0100 H   0  0  0  0  0  0  0  0  0  0  0  0
   36.8540   30.0740   41.7160 N   0  0  0  0  0  0  0  0  0  0  0  0
   36.7400   28.6380   41.7620 C   0  0  0  0  0  2  0  0  0  0  0  0
   37.3610   28.4100   43.1490 C   0  0  0  0  0  2  0  0  0  0  0  0
   38.5560   29.3700   43.0600 C   0  0  0  0  0  2  0  0  0  0  0  0
   38.2900   30.2210   41.8230 C   0  0  0  0  0  3  0  0  0  0  0  0
   38.7970   29.6600   40.9880 H   0  0  0  0  0  0  0  0  0  0  0  0
  1  7  1  0  0  0  0
  2  8  1  1  0  0  0
  2  1  1  0  0  0  0
  3 10  1  0  0  0  0
  3  2  1  0  0  0  0
  4  3  1  0  0  0  0
  4  5  1  0  0  0  0
  5  6  1  0  0  0  0
  6 14  1  1  0  0  0
  6  1  1  0  0  0  0
  6 31  1  0  0  0  0
  9  3  1  0  0  0  0
 11  4  1  0  0  0  0
 12  5  1  0  0  0  0
 13  5  1  0  0  0  0
 15 26  1  0  0  0  0
 15 19  2  0  0  0  0
 16 17  2  0  0  0  0
 16 15  1  0  0  0  0
 17 18  1  0  0  0  0
 18 19  1  0  0  0  0
 18  2  1  0  0  0  0
 20 16  1  0  0  0  0
 21 17  1  0  0  0  0
 22 23  1  0  0  0  0
 23 24  2  0  0  0  0
 23 29  1  0  0  0  0
 24 30  1  0  0  0  0
 25 24  1  0  0  0  0
 26 25  2  0  0  0  0
 27 26  1  0  0  0  0
 27 22  2  0  0  0  0
 28 22  1  0  0  0  0
 31 34  1  6  0  0  0
 31 32  1  0  0  0  0
 31 33  1  0  0  0  0
 32 33  1  0  0  0  0
 33 37  1  1  0  0  0
 33 38  1  0  0  0  0
 35 32  1  0  0  0  0
 36 32  1  0  0  0  0
 38 39  1  0  0  0  0
 38 41  1  0  0  0  0
 40 38  1  0  0  0  0
 41 42  1  0  0  0  0
 41 45  1  0  0  0  0
 42 43  1  0  0  0  0
 44 43  1  0  0  0  0
 45 44  1  0  0  0  0
 46 45  1  0  0  0  0
M  END
>  <minimizedAffinity>
-5.09317541

$$$$

 OpenBabel03242520073D

 46 50  0  0  1  0  0  0  0  0999 V2000
   37.2020   27.0080   41.8680 N   0  0  0  0  0  0  0  0  0  0  0  0
   37.1330   28.3490   41.4660 C   0  0  1  0  0  0  0  0  0  0  0  0
   37.4300   29.2260   42.6540 C   0  0  0  0  0  0  0  0  0  0  0  0
   38.7980   28.9580   42.9900 N   0  0  0  0  0  0  0  0  0  0  0  0
   38.9920   27.6180   43.4780 C   0  0  0  0  0  0  0  0  0  0  0  0
   38.2180   26.5650   42.7460 C   0  0  2  0  0  0  0  0  0  0  0  0
   36.2200   26.6860   42.1210 H   0  0  0  0  0  0  0  0  0  0  0  0
   36.1320   28.6080   41.1190 H   0  0  0  0  0  0  0  0  0  0  0  0
   37.3710   30.3150   42.3920 H   0  0  0  0  0  0  0  0  0  0  0  0
   36.8010   29.0180   43.5250 H   0  0  0  0  0  0  0  0  0  0  0  0
   39.4760   29.2720   42.2800 H   0  0  0  0  0  0  0  0  0  0  0  0
   38.7770   27.6700   44.5750 H   0  0  0  0  0  0  0  0  0  0  0  0
   40.1060   27.4550   43.4470 H   0  0  0  0  0  0  0  0  0  0  0  0
   37.6780   25.9920   43.5590 H   0  0  0  0  0  0  0  0  0  0  0  0
   39.3910   29.9170   39.2430 C   0  0  0  0  0  0  0  0  0  0  0  0
   39.4410   28.6310   38.7480 C   0  0  0  0  0  0  0  0  0  0  0  0
   38.6120   27.8630   39.5010 C   0  0  0  0  0  0  0  0  0  0  0  0
   38.0720   28.6870   40.4350 N   0  0  0  0  0  0  0  0  0  0  0  0
   38.5520   29.9080   40.2620 N   0  0  0  0  0  0  0  0  0  0  0  0
   40.0710   28.3710   37.8930 H   0  0  0  0  0  0  0  0  0  0  0  0
   38.4250   26.8100   39.3720 H   0  0  0  0  0  0  0  0  0  0  0  0
   41.5200   32.0850   37.1580 C   0  0  0  0  0  0  0  0  0  0  0  0
   41.4940   33.3060   37.8420 C   0  0  0  0  0  0  0  0  0  0  0  0
   40.7460   33.3660   39.0060 C   0  0  0  0  0  0  0  0  0  0  0  0
   40.0880   32.2470   39.4140 N   0  0  0  0  0  0  0  0  0  0  0  0
   40.1390   31.0890   38.7260 C   0  0  0  0  0  0  0  0  0  0  0  0
   40.8520   30.9890   37.5920 N   0  0  0  0  0  0  0  0  0  0  0  0
   42.0680   31.9100   36.2360 H   0  0  0  0  0  0  0  0  0  0  0  0
   42.0620   34.1290   37.4150 H   0  0  0  0  0  0  0  0  0  0  0  0
   40.7170   34.2900   39.5380 H   0  0  0  0  0  0  0  0  0  0  0  0
   39.2290   25.6420   42.0950 C   0  0  1  0  0  0  0  0  0  0  0  0
   39.5830   24.3950   42.8890 C   0  0  0  0  0  0  0  0  0  0  0  0
   38.8630   24.3050   41.5800 C   0  0  1  0  0  0  0  0  0  0  0  0
   40.1590   26.1040   41.6450 H   0  0  0  0  0  0  0  0  0  0  0  0
   38.9590   24.1600   43.7800 H   0  0  0  0  0  0  0  0  0  0  0  0
   40.6220   24.0590   42.9830 H   0  0  0  0  0  0  0  0  0  0  0  0
   39.4800   23.8900   40.7570 H   0  0  0  0  0  0  0  0  0  0  0  0
   37.4020   23.8760   41.5660 C   0  0  0  0  0  0  0  0  0  0  0  0
   37.3970   22.7720   41.6670 H   0  0  0  0  0  0  0  0  0  0  0  0
   36.8050   24.3990   42.3490 H   0  0  0  0  0  0  0  0  0  0  0  0
   36.8560   24.3270   40.3250 N   0  0  0  0  0  0  0  0  0  0  0  0
   37.7060   24.1540   39.1730 C   0  0  0  0  0  2  0  0  0  0  0  0
   36.8030   24.8270   38.1280 C   0  0  0  0  0  2  0  0  0  0  0  0
   35.4470   24.2340   38.5350 C   0  0  0  0  0  2  0  0  0  0  0  0
   35.6880   23.5880   39.8950 C   0  0  0  0  0  3  0  0  0  0  0  0
   35.9750   22.5270   39.6490 H   0  0  0  0  0  0  0  0  0  0  0  0
  1  7  1  0  0  0  0
  1  6  1  0  0  0  0
  2  8  1  6  0  0  0
  2  1  1  0  0  0  0
  2  3  1  0  0  0  0
  3  4  1  0  0  0  0
  3 10  1  0  0  0  0
  4  5  1  0  0  0  0
  5 12  1  0  0  0  0
  6  5  1  0  0  0  0
  6 14  1  1  0  0  0
  9  3  1  0  0  0  0
 11  4  1  0  0  0  0
 13  5  1  0  0  0  0
 15 19  2  0  0  0  0
 16 15  1  0  0  0  0
 16 17  2  0  0  0  0
 17 18  1  0  0  0  0
 18  2  1  0  0  0  0
 19 18  1  0  0  0  0
 20 16  1  0  0  0  0
 21 17  1  0  0  0  0
 22 27  2  0  0  0  0
 22 23  1  0  0  0  0
 23 24  2  0  0  0  0
 24 25  1  0  0  0  0
 24 30  1  0  0  0  0
 26 15  1  0  0  0  0
 26 25  2  0  0  0  0
 27 26  1  0  0  0  0
 28 22  1  0  0  0  0
 29 23  1  0  0  0  0
 31 34  1  6  0  0  0
 31  6  1  0  0  0  0
 31 32  1  0  0  0  0
 32 36  1  0  0  0  0
 32 35  1  0  0  0  0
 33 37  1  6  0  0  0
 33 31  1  0  0  0  0
 33 32  1  0  0  0  0
 38 33  1  0  0  0  0
 38 39  1  0  0  0  0
 38 40  1  0  0  0  0
 41 38  1  0  0  0  0
 42 41  1  0  0  0  0
 43 44  1  0  0  0  0
 43 42  1  0  0  0  0
 44 45  1  0  0  0  0
 45 41  1  0  0  0  0
 46 45  1  0  0  0  0
M  END
>  <minimizedAffinity>
-5.0757494

$$$$
