
 OpenBabel03252507373D

 35 39  0  0  0  0  0  0  0  0999 V2000
   45.6910   34.7470   43.5070 C   0  0  0  0  0  0  0  0  0  0  0  0
   46.3800   33.6890   44.1320 C   0  0  0  0  0  0  0  0  0  0  0  0
   46.1480   33.4560   45.4710 C   0  0  0  0  0  0  0  0  0  0  0  0
   45.2830   34.2360   46.1180 N   0  0  0  0  0  0  0  0  0  0  0  0
   44.6210   35.2540   45.5120 C   0  0  0  0  0  0  0  0  0  0  0  0
   44.8290   35.4970   44.2220 N   0  0  0  0  0  0  0  0  0  0  0  0
   47.0780   33.0640   43.6040 H   0  0  0  0  0  0  0  0  0  0  0  0
   43.9290   35.8780   46.0380 H   0  0  0  0  0  0  0  0  0  0  0  0
   47.0540   32.6400   47.5870 C   0  0  0  0  0  0  0  0  0  0  0  0
   46.8100   32.3930   46.2290 C   0  0  0  0  0  0  0  0  0  0  0  0
   47.2010   31.1910   45.7150 C   0  0  0  0  0  0  0  0  0  0  0  0
   47.8190   30.2210   46.4680 C   0  0  0  0  0  0  0  0  0  0  0  0
   48.2830   28.9880   46.1760 N   0  0  0  0  0  0  0  0  0  0  0  0
   48.8140   28.4620   47.3480 C   0  0  0  0  0  0  0  0  0  0  0  0
   48.6630   29.3760   48.3140 N   0  0  0  0  0  0  0  0  0  0  0  0
   48.0610   30.4530   47.7970 C   0  0  0  0  0  0  0  0  0  0  0  0
   47.6740   31.6680   48.3510 C   0  0  0  0  0  0  0  0  0  0  0  0
   46.7540   33.5910   48.0170 H   0  0  0  0  0  0  0  0  0  0  0  0
   47.0020   31.0140   44.6470 H   0  0  0  0  0  0  0  0  0  0  0  0
   48.2510   28.5090   45.2440 H   0  0  0  0  0  0  0  0  0  0  0  0
   49.2560   27.4780   47.4100 H   0  0  0  0  0  0  0  0  0  0  0  0
   47.8490   31.8800   49.3990 H   0  0  0  0  0  0  0  0  0  0  0  0
   45.9190   34.9870   42.1570 O   0  0  0  0  0  0  0  0  0  0  0  0
   44.9970   34.5670   41.2020 C   0  0  0  0  0  0  0  0  0  0  0  0
   45.8240   33.8010   40.4390 C   0  0  0  0  0  0  0  0  0  0  0  0
   44.5800   33.1990   39.1100 S   0  0  0  0  0  0  0  0  0  0  0  0
   43.1980   34.1780   39.9570 C   0  0  0  0  0  0  0  0  0  0  0  0
   43.7360   34.6280   40.7990 N   0  0  0  0  0  0  0  0  0  0  0  0
   46.8400   33.3300   40.1700 H   0  0  0  0  0  0  0  0  0  0  0  0
   41.9940   33.9750   39.2210 N   0  0  0  0  0  0  0  0  0  0  0  0
   40.9710   32.9820   39.0280 C   0  0  0  0  0  2  0  0  0  0  0  0
   39.7540   33.7800   39.5360 C   0  0  0  0  0  2  0  0  0  0  0  0
   40.0710   35.1770   38.9930 C   0  0  0  0  0  2  0  0  0  0  0  0
   41.4420   35.0100   38.3280 C   0  0  0  0  0  3  0  0  0  0  0  0
   42.0200   35.9270   38.4230 H   0  0  0  0  0  0  0  0  0  0  0  0
  1  2  2  0  0  0  0
  1  6  1  0  0  0  0
  2  3  1  0  0  0  0
  3  4  2  0  0  0  0
  3 10  1  0  0  0  0
  5  8  1  0  0  0  0
  5  4  1  0  0  0  0
  6  5  2  0  0  0  0
  7  2  1  0  0  0  0
  9 18  1  0  0  0  0
  9 17  1  0  0  0  0
 10  9  2  0  0  0  0
 11 10  1  0  0  0  0
 11 12  2  0  0  0  0
 12 16  1  0  0  0  0
 13 12  1  0  0  0  0
 13 14  1  0  0  0  0
 14 21  1  0  0  0  0
 14 15  2  0  0  0  0
 16 15  1  0  0  0  0
 16 17  2  0  0  0  0
 17 22  1  0  0  0  0
 19 11  1  0  0  0  0
 20 13  1  0  0  0  0
 23  1  1  0  0  0  0
 24 23  1  0  0  0  0
 25 24  2  0  0  0  0
 26 27  1  0  0  0  0
 26 25  1  0  0  0  0
 27 28  2  0  0  0  0
 28 24  1  0  0  0  0
 29 25  1  0  0  0  0
 30 27  1  0  0  0  0
 31 30  1  0  0  0  0
 31 32  1  0  0  0  0
 33 32  1  0  0  0  0
 34 35  1  0  0  0  0
 34 33  1  0  0  0  0
 34 30  1  0  0  0  0
M  END
>  <minimizedAffinity>
-6.4365344

>  <minimizedRMSD>
0.885559559

$$$$
