
 OpenBabel03252507373D

 35 39  0  0  0  0  0  0  0  0999 V2000
   45.5310   34.7010   43.4560 C   0  0  0  0  0  0  0  0  0  0  0  0
   46.2240   33.6500   44.0870 C   0  0  0  0  0  0  0  0  0  0  0  0
   46.0530   33.4710   45.4420 C   0  0  0  0  0  0  0  0  0  0  0  0
   45.2400   34.2950   46.1010 N   0  0  0  0  0  0  0  0  0  0  0  0
   44.5720   35.3070   45.4900 C   0  0  0  0  0  0  0  0  0  0  0  0
   44.7230   35.4980   44.1840 N   0  0  0  0  0  0  0  0  0  0  0  0
   46.8800   32.9880   43.5490 H   0  0  0  0  0  0  0  0  0  0  0  0
   43.9220   35.9670   46.0260 H   0  0  0  0  0  0  0  0  0  0  0  0
   47.0160   32.6970   47.5490 C   0  0  0  0  0  0  0  0  0  0  0  0
   46.7250   32.4190   46.2070 C   0  0  0  0  0  0  0  0  0  0  0  0
   47.0850   31.1990   45.7130 C   0  0  0  0  0  0  0  0  0  0  0  0
   47.7150   30.2410   46.4700 C   0  0  0  0  0  0  0  0  0  0  0  0
   48.1550   28.9950   46.1960 N   0  0  0  0  0  0  0  0  0  0  0  0
   48.7170   28.4920   47.3640 C   0  0  0  0  0  0  0  0  0  0  0  0
   48.6080   29.4330   48.3110 N   0  0  0  0  0  0  0  0  0  0  0  0
   48.0030   30.5040   47.7850 C   0  0  0  0  0  0  0  0  0  0  0  0
   47.6480   31.7380   48.3190 C   0  0  0  0  0  0  0  0  0  0  0  0
   46.7410   33.6630   47.9650 H   0  0  0  0  0  0  0  0  0  0  0  0
   46.8510   30.9970   44.6570 H   0  0  0  0  0  0  0  0  0  0  0  0
   48.0880   28.4920   45.2790 H   0  0  0  0  0  0  0  0  0  0  0  0
   49.1490   27.5050   47.4370 H   0  0  0  0  0  0  0  0  0  0  0  0
   47.8590   31.9740   49.3550 H   0  0  0  0  0  0  0  0  0  0  0  0
   45.6980   34.8870   42.0890 O   0  0  0  0  0  0  0  0  0  0  0  0
   44.6020   34.8250   41.2320 C   0  0  0  0  0  0  0  0  0  0  0  0
   44.8660   33.6240   40.6470 C   0  0  0  0  0  0  0  0  0  0  0  0
   43.3670   33.5040   39.4570 S   0  0  0  0  0  0  0  0  0  0  0  0
   42.7370   35.1780   40.0770 C   0  0  0  0  0  0  0  0  0  0  0  0
   43.5040   35.4390   40.8140 N   0  0  0  0  0  0  0  0  0  0  0  0
   45.4860   32.6670   40.4870 H   0  0  0  0  0  0  0  0  0  0  0  0
   41.5260   35.4800   39.3870 N   0  0  0  0  0  0  0  0  0  0  0  0
   41.0310   35.6550   38.0480 C   0  0  0  0  0  2  0  0  0  0  0  0
   39.9970   34.5150   38.0150 C   0  0  0  0  0  2  0  0  0  0  0  0
   39.4270   34.5930   39.4370 C   0  0  0  0  0  2  0  0  0  0  0  0
   40.2550   35.6970   40.1030 C   0  0  0  0  0  3  0  0  0  0  0  0
   40.3860   35.4830   41.1620 H   0  0  0  0  0  0  0  0  0  0  0  0
  1  2  2  0  0  0  0
  1  6  1  0  0  0  0
  2  3  1  0  0  0  0
  3  4  2  0  0  0  0
  3 10  1  0  0  0  0
  5  8  1  0  0  0  0
  5  4  1  0  0  0  0
  6  5  2  0  0  0  0
  7  2  1  0  0  0  0
  9 18  1  0  0  0  0
  9 17  1  0  0  0  0
 10  9  2  0  0  0  0
 11 10  1  0  0  0  0
 11 12  2  0  0  0  0
 12 16  1  0  0  0  0
 13 12  1  0  0  0  0
 13 14  1  0  0  0  0
 14 21  1  0  0  0  0
 14 15  2  0  0  0  0
 16 15  1  0  0  0  0
 16 17  2  0  0  0  0
 17 22  1  0  0  0  0
 19 11  1  0  0  0  0
 20 13  1  0  0  0  0
 23  1  1  0  0  0  0
 24 23  1  0  0  0  0
 25 24  2  0  0  0  0
 26 27  1  0  0  0  0
 26 25  1  0  0  0  0
 27 28  2  0  0  0  0
 28 24  1  0  0  0  0
 29 25  1  0  0  0  0
 30 27  1  0  0  0  0
 30 34  1  0  0  0  0
 31 30  1  0  0  0  0
 32 31  1  0  0  0  0
 32 33  1  0  0  0  0
 33 34  1  0  0  0  0
 34 35  1  0  0  0  0
M  END
>  <minimizedAffinity>
-7.03984261

>  <minimizedRMSD>
0.213180289

$$$$
