
 OpenBabel03252507373D

 35 39  0  0  0  0  0  0  0  0999 V2000
   45.3210   34.7000   43.5050 C   0  0  0  0  0  0  0  0  0  0  0  0
   46.0240   33.6350   44.1010 C   0  0  0  0  0  0  0  0  0  0  0  0
   45.9410   33.4770   45.4680 C   0  0  0  0  0  0  0  0  0  0  0  0
   45.1990   34.3340   46.1690 N   0  0  0  0  0  0  0  0  0  0  0  0
   44.5230   35.3590   45.5910 C   0  0  0  0  0  0  0  0  0  0  0  0
   44.5890   35.5300   44.2750 N   0  0  0  0  0  0  0  0  0  0  0  0
   46.6220   32.9470   43.5300 H   0  0  0  0  0  0  0  0  0  0  0  0
   43.9310   36.0460   46.1600 H   0  0  0  0  0  0  0  0  0  0  0  0
   46.9830   32.6840   47.5290 C   0  0  0  0  0  0  0  0  0  0  0  0
   46.6320   32.4140   46.2000 C   0  0  0  0  0  0  0  0  0  0  0  0
   46.9550   31.1920   45.6860 C   0  0  0  0  0  0  0  0  0  0  0  0
   47.6050   30.2240   46.4130 C   0  0  0  0  0  0  0  0  0  0  0  0
   48.0160   28.9730   46.1160 N   0  0  0  0  0  0  0  0  0  0  0  0
   48.6210   28.4590   47.2580 C   0  0  0  0  0  0  0  0  0  0  0  0
   48.5650   29.3970   48.2110 N   0  0  0  0  0  0  0  0  0  0  0  0
   47.9510   30.4780   47.7150 C   0  0  0  0  0  0  0  0  0  0  0  0
   47.6360   31.7140   48.2680 C   0  0  0  0  0  0  0  0  0  0  0  0
   46.7380   33.6520   47.9590 H   0  0  0  0  0  0  0  0  0  0  0  0
   46.6730   30.9970   44.6410 H   0  0  0  0  0  0  0  0  0  0  0  0
   47.9040   28.4750   45.2010 H   0  0  0  0  0  0  0  0  0  0  0  0
   49.0430   27.4660   47.3090 H   0  0  0  0  0  0  0  0  0  0  0  0
   47.8940   31.9430   49.2950 H   0  0  0  0  0  0  0  0  0  0  0  0
   45.4010   34.8640   42.1270 O   0  0  0  0  0  0  0  0  0  0  0  0
   44.3540   34.4480   41.3080 C   0  0  0  0  0  0  0  0  0  0  0  0
   45.0870   33.9220   40.2880 C   0  0  0  0  0  0  0  0  0  0  0  0
   43.6710   33.3330   39.1380 S   0  0  0  0  0  0  0  0  0  0  0  0
   42.3930   33.9740   40.3790 C   0  0  0  0  0  0  0  0  0  0  0  0
   43.0380   34.3790   41.1650 N   0  0  0  0  0  0  0  0  0  0  0  0
   46.0720   33.6470   39.7590 H   0  0  0  0  0  0  0  0  0  0  0  0
   41.0930   33.7000   39.8590 N   0  0  0  0  0  0  0  0  0  0  0  0
   39.7180   33.6800   40.2800 C   0  0  0  0  0  2  0  0  0  0  0  0
   39.1530   34.7540   39.3310 C   0  0  0  0  0  2  0  0  0  0  0  0
   39.9340   34.4520   38.0470 C   0  0  0  0  0  2  0  0  0  0  0  0
   40.8810   33.3150   38.4520 C   0  0  0  0  0  3  0  0  0  0  0  0
   41.8160   33.3930   37.9010 H   0  0  0  0  0  0  0  0  0  0  0  0
  1  2  2  0  0  0  0
  1  6  1  0  0  0  0
  2  3  1  0  0  0  0
  3  4  2  0  0  0  0
  3 10  1  0  0  0  0
  5  8  1  0  0  0  0
  5  4  1  0  0  0  0
  6  5  2  0  0  0  0
  7  2  1  0  0  0  0
  9 18  1  0  0  0  0
  9 17  1  0  0  0  0
 10  9  2  0  0  0  0
 11 10  1  0  0  0  0
 11 12  2  0  0  0  0
 12 16  1  0  0  0  0
 13 12  1  0  0  0  0
 13 14  1  0  0  0  0
 14 21  1  0  0  0  0
 14 15  2  0  0  0  0
 16 15  1  0  0  0  0
 16 17  2  0  0  0  0
 17 22  1  0  0  0  0
 19 11  1  0  0  0  0
 20 13  1  0  0  0  0
 23  1  1  0  0  0  0
 24 23  1  0  0  0  0
 25 24  2  0  0  0  0
 26 25  1  0  0  0  0
 26 27  1  0  0  0  0
 27 28  2  0  0  0  0
 28 24  1  0  0  0  0
 29 25  1  0  0  0  0
 30 31  1  0  0  0  0
 30 27  1  0  0  0  0
 32 31  1  0  0  0  0
 33 34  1  0  0  0  0
 33 32  1  0  0  0  0
 34 30  1  0  0  0  0
 35 34  1  0  0  0  0
M  END
>  <minimizedAffinity>
-6.53059769

>  <minimizedRMSD>
0.964873254

$$$$
