
 OpenBabel03242512133D

 38 41  0  0  1  0  0  0  0  0999 V2000
   37.0620   28.6930   40.4270 O   0  0  0  0  0  0  0  0  0  0  0  0
   37.1140   26.4180   41.3710 C   0  0  1  0  0  0  0  0  0  0  0  0
   36.4950   27.4670   42.3790 C   0  0  0  0  0  0  0  0  0  0  0  0
   37.5090   27.8470   41.4250 C   0  0  2  0  0  0  0  0  0  0  0  0
   36.4320   26.1050   40.5860 H   0  0  0  0  0  0  0  0  0  0  0  0
   35.4170   27.6120   42.2440 H   0  0  0  0  0  0  0  0  0  0  0  0
   36.7740   27.3420   43.4430 H   0  0  0  0  0  0  0  0  0  0  0  0
   38.5830   27.9600   41.6660 H   0  0  0  0  0  0  0  0  0  0  0  0
   37.9360   25.3960   42.0830 C   0  0  0  0  0  0  0  0  0  0  0  0
   37.3770   24.3600   42.4220 O   0  0  0  0  0  0  0  0  0  0  0  0
   39.8020   25.8610   43.6070 C   0  0  0  0  0  0  0  0  0  0  0  0
   39.3140   25.5330   42.3950 C   0  0  0  0  0  0  0  0  0  0  0  0
   40.2790   25.3070   41.3590 C   0  0  0  0  0  0  0  0  0  0  0  0
   41.6050   25.4240   41.6050 N   0  0  0  0  0  0  0  0  0  0  0  0
   42.0400   25.7570   42.8460 C   0  0  0  0  0  0  0  0  0  0  0  0
   41.1590   25.9670   43.8080 N   0  0  0  0  0  0  0  0  0  0  0  0
   39.0490   26.0250   44.3730 H   0  0  0  0  0  0  0  0  0  0  0  0
   40.0520   25.0370   40.3610 H   0  0  0  0  0  0  0  0  0  0  0  0
   43.0460   25.8850   43.1880 H   0  0  0  0  0  0  0  0  0  0  0  0
   38.1880   30.2490   42.1540 O   0  0  0  0  0  0  0  0  0  0  0  0
   37.1950   30.2780   40.9990 P   0  0  2  0  0  0  0  0  0  0  0  0
   35.7710   31.0040   41.4170 O   0  0  0  0  0  0  0  0  0  0  0  0
   35.4580   30.6740   42.2930 H   0  0  0  0  0  0  0  0  0  0  0  0
   38.0260   31.1890   39.7720 O   0  0  0  0  0  0  0  0  0  0  0  0
   38.5710   32.4370   39.9790 C   0  0  0  0  0  0  0  0  0  0  0  0
   37.9420   33.6740   40.0070 C   0  0  0  0  0  0  0  0  0  0  0  0
   38.6810   34.8210   40.2360 C   0  0  0  0  0  0  0  0  0  0  0  0
   40.0150   34.7120   40.4290 N   0  0  0  0  0  0  0  0  0  0  0  0
   40.6350   33.5180   40.4050 C   0  0  0  0  0  0  0  0  0  0  0  0
   39.9200   32.3670   40.1790 N   0  0  0  0  0  0  0  0  0  0  0  0
   36.8840   33.5720   39.8340 H   0  0  0  0  0  0  0  0  0  0  0  0
   38.0990   35.7200   40.2360 H   0  0  0  0  0  0  0  0  0  0  0  0
   42.0430   33.4640   40.6140 N   0  0  0  0  0  0  0  0  0  0  0  0
   42.8840   32.4530   40.0280 C   0  0  0  0  0  2  0  0  0  0  0  0
   44.2920   32.8800   40.3440 C   0  0  0  0  0  2  0  0  0  0  0  0
   44.2220   34.3060   40.8110 C   0  0  0  0  0  2  0  0  0  0  0  0
   42.8370   34.3740   41.4190 C   0  0  0  0  0  3  0  0  0  0  0  0
   42.4040   35.3990   41.2450 H   0  0  0  0  0  0  0  0  0  0  0  0
  1 21  1  0  0  0  0
  1  4  1  0  0  0  0
  2  5  1  6  0  0  0
  2  4  1  0  0  0  0
  2  9  1  0  0  0  0
  2  3  1  0  0  0  0
  3  7  1  0  0  0  0
  4  8  1  1  0  0  0
  4  3  1  0  0  0  0
  6  3  1  0  0  0  0
  9 12  1  0  0  0  0
  9 10  2  0  0  0  0
 11 16  1  0  0  0  0
 11 17  1  0  0  0  0
 12 11  2  0  0  0  0
 13 14  2  0  0  0  0
 13 12  1  0  0  0  0
 14 15  1  0  0  0  0
 15 19  1  0  0  0  0
 15 16  2  0  0  0  0
 18 13  1  0  0  0  0
 21 22  1  0  0  0  0
 21 20  2  1  0  0  0
 22 23  1  0  0  0  0
 24 25  1  0  0  0  0
 24 21  1  0  0  0  0
 25 26  2  0  0  0  0
 25 30  1  0  0  0  0
 26 27  1  0  0  0  0
 27 32  1  0  0  0  0
 27 28  2  0  0  0  0
 29 28  1  0  0  0  0
 29 33  1  0  0  0  0
 30 29  2  0  0  0  0
 31 26  1  0  0  0  0
 33 37  1  0  0  0  0
 34 35  1  0  0  0  0
 34 33  1  0  0  0  0
 35 36  1  0  0  0  0
 36 37  1  0  0  0  0
 38 37  1  0  0  0  0
M  END
>  <minimizedAffinity>
-6.062953

$$$$

 OpenBabel03242512133D

 38 41  0  0  1  0  0  0  0  0999 V2000
   38.9160   31.0400   40.1480 O   0  0  0  0  0  0  0  0  0  0  0  0
   40.9530   32.4230   40.2430 C   0  0  1  0  0  0  0  0  0  0  0  0
   40.7230   31.6080   41.5780 C   0  0  0  0  0  0  0  0  0  0  0  0
   39.6150   32.0580   40.7700 C   0  0  2  0  0  0  0  0  0  0  0  0
   41.3610   31.8300   39.4300 H   0  0  0  0  0  0  0  0  0  0  0  0
   41.1550   30.6020   41.5510 H   0  0  0  0  0  0  0  0  0  0  0  0
   40.9560   32.1420   42.5200 H   0  0  0  0  0  0  0  0  0  0  0  0
   39.0070   32.9570   40.9870 H   0  0  0  0  0  0  0  0  0  0  0  0
   41.5120   33.7780   40.5200 C   0  0  0  0  0  0  0  0  0  0  0  0
   40.7260   34.7180   40.5460 O   0  0  0  0  0  0  0  0  0  0  0  0
   43.8780   33.8490   39.8730 C   0  0  0  0  0  0  0  0  0  0  0  0
   42.8830   34.0620   40.7550 C   0  0  0  0  0  0  0  0  0  0  0  0
   43.2610   34.6190   42.0220 C   0  0  0  0  0  0  0  0  0  0  0  0
   44.5550   34.9090   42.2970 N   0  0  0  0  0  0  0  0  0  0  0  0
   45.5160   34.6730   41.3690 C   0  0  0  0  0  0  0  0  0  0  0  0
   45.1780   34.1610   40.1990 N   0  0  0  0  0  0  0  0  0  0  0  0
   43.5630   33.4270   38.9230 H   0  0  0  0  0  0  0  0  0  0  0  0
   42.5950   34.8480   42.8120 H   0  0  0  0  0  0  0  0  0  0  0  0
   46.5690   34.8490   41.4400 H   0  0  0  0  0  0  0  0  0  0  0  0
   36.6270   30.8760   38.9620 O   0  0  0  0  0  0  0  0  0  0  0  0
   37.2710   31.4200   40.2310 P   0  0  2  0  0  0  0  0  0  0  0  0
   36.9220   33.0170   40.4730 O   0  0  0  0  0  0  0  0  0  0  0  0
   37.0370   33.5280   39.6350 H   0  0  0  0  0  0  0  0  0  0  0  0
   36.5870   30.4330   41.4880 O   0  0  0  0  0  0  0  0  0  0  0  0
   37.1980   29.3100   42.0010 C   0  0  0  0  0  0  0  0  0  0  0  0
   38.1070   29.2070   43.0460 C   0  0  0  0  0  0  0  0  0  0  0  0
   38.6050   27.9690   43.4100 C   0  0  0  0  0  0  0  0  0  0  0  0
   38.1910   26.8730   42.7340 N   0  0  0  0  0  0  0  0  0  0  0  0
   37.3100   26.9610   41.7210 C   0  0  0  0  0  0  0  0  0  0  0  0
   36.8030   28.1810   41.3440 N   0  0  0  0  0  0  0  0  0  0  0  0
   38.3220   30.1750   43.4650 H   0  0  0  0  0  0  0  0  0  0  0  0
   39.2990   28.0020   44.2250 H   0  0  0  0  0  0  0  0  0  0  0  0
   36.9100   25.7720   41.0450 N   0  0  0  0  0  0  0  0  0  0  0  0
   36.5250   25.7520   39.6580 C   0  0  0  0  0  2  0  0  0  0  0  0
   36.3740   24.2940   39.3120 C   0  0  0  0  0  2  0  0  0  0  0  0
   37.0100   23.5130   40.4270 C   0  0  0  0  0  2  0  0  0  0  0  0
   36.8240   24.4390   41.6110 C   0  0  0  0  0  3  0  0  0  0  0  0
   37.7060   24.3380   42.3030 H   0  0  0  0  0  0  0  0  0  0  0  0
  1 21  1  0  0  0  0
  1  4  1  0  0  0  0
  2  5  1  6  0  0  0
  2  9  1  0  0  0  0
  2  4  1  0  0  0  0
  2  3  1  0  0  0  0
  3  7  1  0  0  0  0
  4  8  1  1  0  0  0
  4  3  1  0  0  0  0
  6  3  1  0  0  0  0
  9 10  2  0  0  0  0
  9 12  1  0  0  0  0
 11 16  2  0  0  0  0
 11 12  1  0  0  0  0
 12 13  2  0  0  0  0
 13 14  1  0  0  0  0
 13 18  1  0  0  0  0
 15 19  1  0  0  0  0
 15 14  2  0  0  0  0
 16 15  1  0  0  0  0
 17 11  1  0  0  0  0
 21 20  2  6  0  0  0
 21 22  1  0  0  0  0
 21 24  1  0  0  0  0
 23 22  1  0  0  0  0
 24 25  1  0  0  0  0
 25 26  1  0  0  0  0
 26 27  2  0  0  0  0
 26 31  1  0  0  0  0
 27 32  1  0  0  0  0
 28 27  1  0  0  0  0
 29 28  2  0  0  0  0
 30 29  1  0  0  0  0
 30 25  2  0  0  0  0
 33 37  1  0  0  0  0
 33 29  1  0  0  0  0
 34 33  1  0  0  0  0
 35 34  1  0  0  0  0
 35 36  1  0  0  0  0
 36 37  1  0  0  0  0
 37 38  1  0  0  0  0
M  END
>  <minimizedAffinity>
-6.00711536

$$$$

 OpenBabel03242512133D

 38 41  0  0  1  0  0  0  0  0999 V2000
   35.9760   30.4050   38.4800 O   0  0  0  0  0  0  0  0  0  0  0  0
   37.9860   31.6390   39.1930 C   0  0  1  0  0  0  0  0  0  0  0  0
   37.7690   31.7060   37.6280 C   0  0  0  0  0  0  0  0  0  0  0  0
   37.3470   30.5610   38.3990 C   0  0  2  0  0  0  0  0  0  0  0  0
   37.3420   32.3090   39.7560 H   0  0  0  0  0  0  0  0  0  0  0  0
   37.1190   32.5300   37.3160 H   0  0  0  0  0  0  0  0  0  0  0  0
   38.6830   31.6320   37.0070 H   0  0  0  0  0  0  0  0  0  0  0  0
   37.9150   29.6140   38.4730 H   0  0  0  0  0  0  0  0  0  0  0  0
   39.4340   31.5430   39.5400 C   0  0  0  0  0  0  0  0  0  0  0  0
   39.9530   30.4350   39.4910 O   0  0  0  0  0  0  0  0  0  0  0  0
   39.8520   33.9210   39.9830 C   0  0  0  0  0  0  0  0  0  0  0  0
   40.2540   32.6370   39.9230 C   0  0  0  0  0  0  0  0  0  0  0  0
   41.6200   32.3800   40.2790 C   0  0  0  0  0  0  0  0  0  0  0  0
   42.4440   33.3860   40.6530 N   0  0  0  0  0  0  0  0  0  0  0  0
   41.9830   34.6620   40.6950 C   0  0  0  0  0  0  0  0  0  0  0  0
   40.7270   34.9100   40.3690 N   0  0  0  0  0  0  0  0  0  0  0  0
   38.8130   34.0860   39.7090 H   0  0  0  0  0  0  0  0  0  0  0  0
   42.0790   31.4260   40.2880 H   0  0  0  0  0  0  0  0  0  0  0  0
   42.5100   35.5530   40.9680 H   0  0  0  0  0  0  0  0  0  0  0  0
   34.3500   28.9200   39.8310 O   0  0  0  0  0  0  0  0  0  0  0  0
   35.6230   29.7430   39.9940 P   0  0  2  0  0  0  0  0  0  0  0  0
   35.5100   30.8280   41.2360 O   0  0  0  0  0  0  0  0  0  0  0  0
   34.6470   31.3050   41.2010 H   0  0  0  0  0  0  0  0  0  0  0  0
   36.8410   28.5450   40.3180 O   0  0  0  0  0  0  0  0  0  0  0  0
   37.2440   28.1810   41.5830 C   0  0  0  0  0  0  0  0  0  0  0  0
   36.4710   27.8140   42.6770 C   0  0  0  0  0  0  0  0  0  0  0  0
   37.0790   27.4780   43.8740 C   0  0  0  0  0  0  0  0  0  0  0  0
   38.4290   27.5150   43.9530 N   0  0  0  0  0  0  0  0  0  0  0  0
   39.1880   27.8680   42.8990 C   0  0  0  0  0  0  0  0  0  0  0  0
   38.6030   28.2050   41.7030 N   0  0  0  0  0  0  0  0  0  0  0  0
   35.4220   27.8420   42.4340 H   0  0  0  0  0  0  0  0  0  0  0  0
   36.3930   27.2130   44.6510 H   0  0  0  0  0  0  0  0  0  0  0  0
   40.6060   27.8880   43.0420 N   0  0  0  0  0  0  0  0  0  0  0  0
   41.4540   28.7820   42.2990 C   0  0  0  0  0  2  0  0  0  0  0  0
   42.8270   28.6050   42.8910 C   0  0  0  0  0  2  0  0  0  0  0  0
   42.6520   27.8610   44.1840 C   0  0  0  0  0  2  0  0  0  0  0  0
   41.4020   27.0490   43.9180 C   0  0  0  0  0  3  0  0  0  0  0  0
   40.8130   26.9500   44.8720 H   0  0  0  0  0  0  0  0  0  0  0  0
  1 21  1  0  0  0  0
  2  9  1  0  0  0  0
  2  5  1  1  0  0  0
  3  4  1  0  0  0  0
  3  2  1  0  0  0  0
  4  8  1  6  0  0  0
  4  1  1  0  0  0  0
  4  2  1  0  0  0  0
  6  3  1  0  0  0  0
  7  3  1  0  0  0  0
  9 12  1  0  0  0  0
 10  9  2  0  0  0  0
 11 16  1  0  0  0  0
 12 11  2  0  0  0  0
 12 13  1  0  0  0  0
 13 18  1  0  0  0  0
 13 14  2  0  0  0  0
 14 15  1  0  0  0  0
 15 19  1  0  0  0  0
 16 15  2  0  0  0  0
 17 11  1  0  0  0  0
 21 20  2  6  0  0  0
 21 24  1  0  0  0  0
 21 22  1  0  0  0  0
 23 22  1  0  0  0  0
 24 25  1  0  0  0  0
 25 30  2  0  0  0  0
 25 26  1  0  0  0  0
 26 27  2  0  0  0  0
 27 28  1  0  0  0  0
 27 32  1  0  0  0  0
 29 33  1  0  0  0  0
 29 28  2  0  0  0  0
 30 29  1  0  0  0  0
 31 26  1  0  0  0  0
 33 37  1  0  0  0  0
 34 35  1  0  0  0  0
 34 33  1  0  0  0  0
 35 36  1  0  0  0  0
 37 36  1  0  0  0  0
 37 38  1  0  0  0  0
M  END
>  <minimizedAffinity>
-5.79579639

$$$$

 OpenBabel03242512133D

 38 41  0  0  1  0  0  0  0  0999 V2000
   36.2920   30.6520   38.6970 O   0  0  0  0  0  0  0  0  0  0  0  0
   37.2750   32.8260   39.3120 C   0  0  1  0  0  0  0  0  0  0  0  0
   37.6390   32.4050   37.8320 C   0  0  0  0  0  0  0  0  0  0  0  0
   37.4300   31.4200   38.8660 C   0  0  2  0  0  0  0  0  0  0  0  0
   36.2690   33.2200   39.4230 H   0  0  0  0  0  0  0  0  0  0  0  0
   36.8890   32.7160   37.0970 H   0  0  0  0  0  0  0  0  0  0  0  0
   38.6710   32.6310   37.5020 H   0  0  0  0  0  0  0  0  0  0  0  0
   38.2420   30.9090   39.4160 H   0  0  0  0  0  0  0  0  0  0  0  0
   38.4150   33.5200   39.9780 C   0  0  0  0  0  0  0  0  0  0  0  0
   38.3690   34.7420   40.0470 O   0  0  0  0  0  0  0  0  0  0  0  0
   40.8250   33.0890   40.1640 C   0  0  0  0  0  0  0  0  0  0  0  0
   39.5490   32.8730   40.5380 C   0  0  0  0  0  0  0  0  0  0  0  0
   39.3450   31.9130   41.5830 C   0  0  0  0  0  0  0  0  0  0  0  0
   40.3910   31.2680   42.1510 N   0  0  0  0  0  0  0  0  0  0  0  0
   41.6560   31.5270   41.7330 C   0  0  0  0  0  0  0  0  0  0  0  0
   41.8550   32.4090   40.7710 N   0  0  0  0  0  0  0  0  0  0  0  0
   40.9490   33.8210   39.3700 H   0  0  0  0  0  0  0  0  0  0  0  0
   38.4050   31.6410   41.9880 H   0  0  0  0  0  0  0  0  0  0  0  0
   42.5740   31.1010   42.0840 H   0  0  0  0  0  0  0  0  0  0  0  0
   34.8140   28.9270   39.9260 O   0  0  0  0  0  0  0  0  0  0  0  0
   35.9390   29.9230   40.1800 P   0  0  2  0  0  0  0  0  0  0  0  0
   35.5870   30.9610   41.4160 O   0  0  0  0  0  0  0  0  0  0  0  0
   34.6670   31.3090   41.3250 H   0  0  0  0  0  0  0  0  0  0  0  0
   37.2950   28.9100   40.5800 O   0  0  0  0  0  0  0  0  0  0  0  0
   37.1890   27.7180   41.2610 C   0  0  0  0  0  0  0  0  0  0  0  0
   36.7830   27.4900   42.5690 C   0  0  0  0  0  0  0  0  0  0  0  0
   36.7450   26.1990   43.0670 C   0  0  0  0  0  0  0  0  0  0  0  0
   37.1070   25.1760   42.2590 N   0  0  0  0  0  0  0  0  0  0  0  0
   37.5010   25.3860   40.9890 C   0  0  0  0  0  0  0  0  0  0  0  0
   37.5460   26.6600   40.4770 N   0  0  0  0  0  0  0  0  0  0  0  0
   36.5350   28.4150   43.0620 H   0  0  0  0  0  0  0  0  0  0  0  0
   36.4190   26.1350   44.0850 H   0  0  0  0  0  0  0  0  0  0  0  0
   37.8710   24.2690   40.1860 N   0  0  0  0  0  0  0  0  0  0  0  0
   38.8450   24.3540   39.1300 C   0  0  0  0  0  2  0  0  0  0  0  0
   39.0680   22.9340   38.6840 C   0  0  0  0  0  2  0  0  0  0  0  0
   38.4620   22.0470   39.7340 C   0  0  0  0  0  2  0  0  0  0  0  0
   37.3530   22.9180   40.2860 C   0  0  0  0  0  3  0  0  0  0  0  0
   37.2320   22.7130   41.3870 H   0  0  0  0  0  0  0  0  0  0  0  0
  1  4  1  0  0  0  0
  1 21  1  0  0  0  0
  2  5  1  1  0  0  0
  2  9  1  0  0  0  0
  3  4  1  0  0  0  0
  3  2  1  0  0  0  0
  4  2  1  0  0  0  0
  4  8  1  1  0  0  0
  6  3  1  0  0  0  0
  7  3  1  0  0  0  0
  9 10  2  0  0  0  0
  9 12  1  0  0  0  0
 11 12  2  0  0  0  0
 11 16  1  0  0  0  0
 12 13  1  0  0  0  0
 13 18  1  0  0  0  0
 13 14  2  0  0  0  0
 15 19  1  0  0  0  0
 15 14  1  0  0  0  0
 16 15  2  0  0  0  0
 17 11  1  0  0  0  0
 21 20  2  6  0  0  0
 21 24  1  0  0  0  0
 21 22  1  0  0  0  0
 23 22  1  0  0  0  0
 24 25  1  0  0  0  0
 25 26  1  0  0  0  0
 26 31  1  0  0  0  0
 26 27  2  0  0  0  0
 27 32  1  0  0  0  0
 28 27  1  0  0  0  0
 29 28  2  0  0  0  0
 30 29  1  0  0  0  0
 30 25  2  0  0  0  0
 33 37  1  0  0  0  0
 33 29  1  0  0  0  0
 34 33  1  0  0  0  0
 35 34  1  0  0  0  0
 35 36  1  0  0  0  0
 36 37  1  0  0  0  0
 37 38  1  0  0  0  0
M  END
>  <minimizedAffinity>
-5.70470095

$$$$

 OpenBabel03242512133D

 38 41  0  0  1  0  0  0  0  0999 V2000
   37.3420   32.8500   40.6980 O   0  0  0  0  0  0  0  0  0  0  0  0
   39.7490   33.3700   40.7540 C   0  0  1  0  0  0  0  0  0  0  0  0
   38.9160   34.4870   40.0080 C   0  0  0  0  0  0  0  0  0  0  0  0
   38.5040   33.1030   39.9930 C   0  0  2  0  0  0  0  0  0  0  0  0
   39.6860   33.4220   41.8370 H   0  0  0  0  0  0  0  0  0  0  0  0
   38.5210   35.2550   40.6820 H   0  0  0  0  0  0  0  0  0  0  0  0
   39.3840   34.9200   39.1030 H   0  0  0  0  0  0  0  0  0  0  0  0
   38.6850   32.4060   39.1540 H   0  0  0  0  0  0  0  0  0  0  0  0
   41.0740   33.1510   40.1030 C   0  0  0  0  0  0  0  0  0  0  0  0
   42.0140   33.8330   40.4940 O   0  0  0  0  0  0  0  0  0  0  0  0
   41.5340   32.5280   37.7730 C   0  0  0  0  0  0  0  0  0  0  0  0
   41.3280   32.2140   39.0670 C   0  0  0  0  0  0  0  0  0  0  0  0
   41.3760   30.8190   39.3990 C   0  0  0  0  0  0  0  0  0  0  0  0
   41.6150   29.8850   38.4490 N   0  0  0  0  0  0  0  0  0  0  0  0
   41.8150   30.2610   37.1610 C   0  0  0  0  0  0  0  0  0  0  0  0
   41.7740   31.5430   36.8440 N   0  0  0  0  0  0  0  0  0  0  0  0
   41.4920   33.5910   37.5510 H   0  0  0  0  0  0  0  0  0  0  0  0
   41.2410   30.4170   40.3690 H   0  0  0  0  0  0  0  0  0  0  0  0
   42.0140   29.6440   36.3090 H   0  0  0  0  0  0  0  0  0  0  0  0
   36.8380   31.1170   38.8500 O   0  0  0  0  0  0  0  0  0  0  0  0
   36.8760   31.2600   40.3670 P   0  0  2  0  0  0  0  0  0  0  0  0
   35.4660   30.7700   41.0760 O   0  0  0  0  0  0  0  0  0  0  0  0
   34.6880   31.1390   40.5920 H   0  0  0  0  0  0  0  0  0  0  0  0
   38.2020   30.2360   40.8370 O   0  0  0  0  0  0  0  0  0  0  0  0
   38.0820   29.1730   41.7040 C   0  0  0  0  0  0  0  0  0  0  0  0
   38.0920   29.1700   43.0920 C   0  0  0  0  0  0  0  0  0  0  0  0
   37.9530   27.9790   43.7830 C   0  0  0  0  0  0  0  0  0  0  0  0
   37.8090   26.8310   43.0820 N   0  0  0  0  0  0  0  0  0  0  0  0
   37.7970   26.8220   41.7360 C   0  0  0  0  0  0  0  0  0  0  0  0
   37.9330   27.9940   41.0330 N   0  0  0  0  0  0  0  0  0  0  0  0
   38.2160   30.1670   43.4790 H   0  0  0  0  0  0  0  0  0  0  0  0
   37.9750   28.0880   44.8480 H   0  0  0  0  0  0  0  0  0  0  0  0
   37.6420   25.5820   41.0520 N   0  0  0  0  0  0  0  0  0  0  0  0
   38.2090   25.3280   39.7540 C   0  0  0  0  0  2  0  0  0  0  0  0
   37.9740   23.8630   39.5010 C   0  0  0  0  0  2  0  0  0  0  0  0
   37.5790   23.2510   40.8150 C   0  0  0  0  0  2  0  0  0  0  0  0
   36.9190   24.4160   41.5230 C   0  0  0  0  0  3  0  0  0  0  0  0
   37.1270   24.3460   42.6270 H   0  0  0  0  0  0  0  0  0  0  0  0
  2  5  1  1  0  0  0
  3  6  1  0  0  0  0
  3  2  1  0  0  0  0
  4  8  1  6  0  0  0
  4  3  1  0  0  0  0
  4  1  1  0  0  0  0
  4  2  1  0  0  0  0
  7  3  1  0  0  0  0
  9 10  2  0  0  0  0
  9  2  1  0  0  0  0
 11 12  1  0  0  0  0
 12 13  2  0  0  0  0
 12  9  1  0  0  0  0
 13 18  1  0  0  0  0
 14 13  1  0  0  0  0
 15 14  2  0  0  0  0
 16 15  1  0  0  0  0
 16 11  2  0  0  0  0
 17 11  1  0  0  0  0
 19 15  1  0  0  0  0
 21 20  2  6  0  0  0
 21  1  1  0  0  0  0
 21 24  1  0  0  0  0
 21 22  1  0  0  0  0
 23 22  1  0  0  0  0
 24 25  1  0  0  0  0
 25 26  1  0  0  0  0
 26 31  1  0  0  0  0
 26 27  2  0  0  0  0
 27 32  1  0  0  0  0
 28 27  1  0  0  0  0
 29 28  2  0  0  0  0
 30 25  2  0  0  0  0
 30 29  1  0  0  0  0
 33 37  1  0  0  0  0
 33 29  1  0  0  0  0
 34 33  1  0  0  0  0
 35 34  1  0  0  0  0
 35 36  1  0  0  0  0
 36 37  1  0  0  0  0
 37 38  1  0  0  0  0
M  END
>  <minimizedAffinity>
-5.70190239

$$$$

 OpenBabel03242512133D

 38 41  0  0  1  0  0  0  0  0999 V2000
   35.8490   29.6700   37.3500 O   0  0  0  0  0  0  0  0  0  0  0  0
   36.9410   31.4750   38.6230 C   0  0  1  0  0  0  0  0  0  0  0  0
   37.9820   30.5990   37.8180 C   0  0  0  0  0  0  0  0  0  0  0  0
   36.7560   30.0330   38.3280 C   0  0  2  0  0  0  0  0  0  0  0  0
   36.4050   32.1950   38.0110 H   0  0  0  0  0  0  0  0  0  0  0  0
   38.1370   30.9450   36.7910 H   0  0  0  0  0  0  0  0  0  0  0  0
   38.9350   30.3780   38.3370 H   0  0  0  0  0  0  0  0  0  0  0  0
   36.6820   29.4370   39.2580 H   0  0  0  0  0  0  0  0  0  0  0  0
   37.4880   31.8950   39.9460 C   0  0  0  0  0  0  0  0  0  0  0  0
   36.9560   31.4320   40.9480 O   0  0  0  0  0  0  0  0  0  0  0  0
   38.4900   34.1320   40.0800 C   0  0  0  0  0  0  0  0  0  0  0  0
   38.5760   32.7880   40.1320 C   0  0  0  0  0  0  0  0  0  0  0  0
   39.8750   32.2430   40.3990 C   0  0  0  0  0  0  0  0  0  0  0  0
   40.9450   33.0500   40.5850 N   0  0  0  0  0  0  0  0  0  0  0  0
   40.7990   34.3980   40.5210 C   0  0  0  0  0  0  0  0  0  0  0  0
   39.6070   34.9110   40.2770 N   0  0  0  0  0  0  0  0  0  0  0  0
   37.4940   34.5170   39.8770 H   0  0  0  0  0  0  0  0  0  0  0  0
   40.1000   31.2110   40.4760 H   0  0  0  0  0  0  0  0  0  0  0  0
   41.5440   35.1560   40.6460 H   0  0  0  0  0  0  0  0  0  0  0  0
   33.3270   29.1130   37.2750 O   0  0  0  0  0  0  0  0  0  0  0  0
   34.5770   28.8530   38.1060 P   0  0  2  0  0  0  0  0  0  0  0  0
   34.3520   29.2120   39.7030 O   0  0  0  0  0  0  0  0  0  0  0  0
   33.8990   30.0840   39.8010 H   0  0  0  0  0  0  0  0  0  0  0  0
   34.8670   27.1520   37.8820 O   0  0  0  0  0  0  0  0  0  0  0  0
   35.8780   26.4560   38.5060 C   0  0  0  0  0  0  0  0  0  0  0  0
   36.5320   25.3030   38.0930 C   0  0  0  0  0  0  0  0  0  0  0  0
   37.5340   24.7580   38.8760 C   0  0  0  0  0  0  0  0  0  0  0  0
   37.8590   25.3670   40.0390 N   0  0  0  0  0  0  0  0  0  0  0  0
   37.2320   26.4850   40.4490 C   0  0  0  0  0  0  0  0  0  0  0  0
   36.2340   27.0420   39.6870 N   0  0  0  0  0  0  0  0  0  0  0  0
   36.1450   24.9580   37.1490 H   0  0  0  0  0  0  0  0  0  0  0  0
   37.9720   23.8700   38.4660 H   0  0  0  0  0  0  0  0  0  0  0  0
   37.6170   27.0820   41.6840 N   0  0  0  0  0  0  0  0  0  0  0  0
   36.7040   27.8250   42.5120 C   0  0  0  0  0  2  0  0  0  0  0  0
   37.4610   28.1020   43.7840 C   0  0  0  0  0  2  0  0  0  0  0  0
   38.6700   27.2110   43.7740 C   0  0  0  0  0  2  0  0  0  0  0  0
   38.9340   27.0480   42.2920 C   0  0  0  0  0  3  0  0  0  0  0  0
   39.3390   26.0150   42.0970 H   0  0  0  0  0  0  0  0  0  0  0  0
  1 21  1  0  0  0  0
  1  4  1  0  0  0  0
  2  5  1  6  0  0  0
  2  9  1  0  0  0  0
  3  4  1  0  0  0  0
  3  7  1  0  0  0  0
  3  2  1  0  0  0  0
  4  2  1  0  0  0  0
  4  8  1  1  0  0  0
  6  3  1  0  0  0  0
  9 12  1  0  0  0  0
  9 10  2  0  0  0  0
 11 12  2  0  0  0  0
 11 16  1  0  0  0  0
 12 13  1  0  0  0  0
 13 18  1  0  0  0  0
 13 14  2  0  0  0  0
 15 14  1  0  0  0  0
 15 19  1  0  0  0  0
 16 15  2  0  0  0  0
 17 11  1  0  0  0  0
 21 20  2  6  0  0  0
 21 22  1  0  0  0  0
 22 23  1  0  0  0  0
 24 21  1  0  0  0  0
 24 25  1  0  0  0  0
 25 30  1  0  0  0  0
 26 25  2  0  0  0  0
 26 27  1  0  0  0  0
 27 28  2  0  0  0  0
 28 29  1  0  0  0  0
 29 33  1  0  0  0  0
 30 29  2  0  0  0  0
 31 26  1  0  0  0  0
 32 27  1  0  0  0  0
 33 37  1  0  0  0  0
 33 34  1  0  0  0  0
 34 35  1  0  0  0  0
 36 35  1  0  0  0  0
 37 36  1  0  0  0  0
 38 37  1  0  0  0  0
M  END
>  <minimizedAffinity>
-5.68791294

$$$$

 OpenBabel03242512133D

 38 41  0  0  1  0  0  0  0  0999 V2000
   40.6470   34.5610   39.3650 O   0  0  0  0  0  0  0  0  0  0  0  0
   42.8590   33.5350   39.0110 C   0  0  1  0  0  0  0  0  0  0  0  0
   42.5290   34.6300   37.9200 C   0  0  0  0  0  0  0  0  0  0  0  0
   41.4870   33.8420   38.5350 C   0  0  2  0  0  0  0  0  0  0  0  0
   43.1720   33.9450   39.9670 H   0  0  0  0  0  0  0  0  0  0  0  0
   42.8150   35.6430   38.2230 H   0  0  0  0  0  0  0  0  0  0  0  0
   42.8430   34.3950   36.8850 H   0  0  0  0  0  0  0  0  0  0  0  0
   41.0140   32.9580   38.0680 H   0  0  0  0  0  0  0  0  0  0  0  0
   43.6050   32.3850   38.4220 C   0  0  0  0  0  0  0  0  0  0  0  0
   44.8290   32.4300   38.4560 O   0  0  0  0  0  0  0  0  0  0  0  0
   43.0960   30.9140   36.5240 C   0  0  0  0  0  0  0  0  0  0  0  0
   43.0060   31.2430   37.8270 C   0  0  0  0  0  0  0  0  0  0  0  0
   42.2420   30.3570   38.6570 C   0  0  0  0  0  0  0  0  0  0  0  0
   41.6510   29.2540   38.1390 N   0  0  0  0  0  0  0  0  0  0  0  0
   41.7770   28.9730   36.8180 C   0  0  0  0  0  0  0  0  0  0  0  0
   42.4780   29.7820   36.0450 N   0  0  0  0  0  0  0  0  0  0  0  0
   43.6810   31.6030   35.9200 H   0  0  0  0  0  0  0  0  0  0  0  0
   42.0860   30.4770   39.6970 H   0  0  0  0  0  0  0  0  0  0  0  0
   41.3720   28.1470   36.2710 H   0  0  0  0  0  0  0  0  0  0  0  0
   38.1780   34.2130   40.0420 O   0  0  0  0  0  0  0  0  0  0  0  0
   39.5160   33.4830   40.0090 P   0  0  2  0  0  0  0  0  0  0  0  0
   39.9090   32.8340   41.4770 O   0  0  0  0  0  0  0  0  0  0  0  0
   39.7520   33.4890   42.1990 H   0  0  0  0  0  0  0  0  0  0  0  0
   39.2700   32.2380   38.8200 O   0  0  0  0  0  0  0  0  0  0  0  0
   38.2610   31.3030   38.8840 C   0  0  0  0  0  0  0  0  0  0  0  0
   37.2720   31.0150   37.9530 C   0  0  0  0  0  0  0  0  0  0  0  0
   36.3440   30.0230   38.2130 C   0  0  0  0  0  0  0  0  0  0  0  0
   36.4210   29.3470   39.3820 N   0  0  0  0  0  0  0  0  0  0  0  0
   37.3760   29.6160   40.2910 C   0  0  0  0  0  0  0  0  0  0  0  0
   38.3060   30.5970   40.0520 N   0  0  0  0  0  0  0  0  0  0  0  0
   37.3620   31.6500   37.0870 H   0  0  0  0  0  0  0  0  0  0  0  0
   35.6260   29.8840   37.4310 H   0  0  0  0  0  0  0  0  0  0  0  0
   37.4070   28.8700   41.5050 N   0  0  0  0  0  0  0  0  0  0  0  0
   37.8990   29.4130   42.7440 C   0  0  0  0  0  2  0  0  0  0  0  0
   37.5730   28.3750   43.7850 C   0  0  0  0  0  2  0  0  0  0  0  0
   36.5980   27.4190   43.1580 C   0  0  0  0  0  2  0  0  0  0  0  0
   36.9710   27.4990   41.6930 C   0  0  0  0  0  3  0  0  0  0  0  0
   36.0430   27.3800   41.0660 H   0  0  0  0  0  0  0  0  0  0  0  0
  1 21  1  0  0  0  0
  2  5  1  1  0  0  0
  3  6  1  0  0  0  0
  3  4  1  0  0  0  0
  3  2  1  0  0  0  0
  4  8  1  6  0  0  0
  4  2  1  0  0  0  0
  4  1  1  0  0  0  0
  7  3  1  0  0  0  0
  9 10  2  0  0  0  0
  9  2  1  0  0  0  0
 11 12  1  0  0  0  0
 12  9  1  0  0  0  0
 12 13  2  0  0  0  0
 13 18  1  0  0  0  0
 14 13  1  0  0  0  0
 15 14  2  0  0  0  0
 16 11  2  0  0  0  0
 16 15  1  0  0  0  0
 17 11  1  0  0  0  0
 19 15  1  0  0  0  0
 21 20  2  1  0  0  0
 21 22  1  0  0  0  0
 22 23  1  0  0  0  0
 24 25  1  0  0  0  0
 24 21  1  0  0  0  0
 25 30  1  0  0  0  0
 26 27  1  0  0  0  0
 26 25  2  0  0  0  0
 27 28  2  0  0  0  0
 28 29  1  0  0  0  0
 29 33  1  0  0  0  0
 30 29  2  0  0  0  0
 31 26  1  0  0  0  0
 32 27  1  0  0  0  0
 33 37  1  0  0  0  0
 33 34  1  0  0  0  0
 34 35  1  0  0  0  0
 36 35  1  0  0  0  0
 37 36  1  0  0  0  0
 38 37  1  0  0  0  0
M  END
>  <minimizedAffinity>
-5.67714787

$$$$

 OpenBabel03242512133D

 38 41  0  0  1  0  0  0  0  0999 V2000
   39.0490   32.7780   40.8690 O   0  0  0  0  0  0  0  0  0  0  0  0
   41.4340   33.2380   40.4600 C   0  0  1  0  0  0  0  0  0  0  0  0
   40.5090   34.4320   39.9940 C   0  0  0  0  0  0  0  0  0  0  0  0
   40.0490   33.0650   39.9580 C   0  0  2  0  0  0  0  0  0  0  0  0
   41.5980   33.2000   41.5320 H   0  0  0  0  0  0  0  0  0  0  0  0
   40.2930   35.1490   40.7930 H   0  0  0  0  0  0  0  0  0  0  0  0
   40.7960   34.9300   39.0470 H   0  0  0  0  0  0  0  0  0  0  0  0
   40.0250   32.4370   39.0480 H   0  0  0  0  0  0  0  0  0  0  0  0
   42.5860   33.0450   39.5310 C   0  0  0  0  0  0  0  0  0  0  0  0
   43.4900   33.8700   39.5760 O   0  0  0  0  0  0  0  0  0  0  0  0
   42.7860   32.1260   37.2630 C   0  0  0  0  0  0  0  0  0  0  0  0
   42.7130   31.9800   38.6010 C   0  0  0  0  0  0  0  0  0  0  0  0
   42.7720   30.6360   39.0990 C   0  0  0  0  0  0  0  0  0  0  0  0
   42.8950   29.5850   38.2550 N   0  0  0  0  0  0  0  0  0  0  0  0
   42.9630   29.7930   36.9160 C   0  0  0  0  0  0  0  0  0  0  0  0
   42.9100   31.0270   36.4460 N   0  0  0  0  0  0  0  0  0  0  0  0
   42.7390   33.1540   36.9150 H   0  0  0  0  0  0  0  0  0  0  0  0
   42.7350   30.3620   40.1200 H   0  0  0  0  0  0  0  0  0  0  0  0
   43.0600   29.0700   36.1330 H   0  0  0  0  0  0  0  0  0  0  0  0
   37.9900   31.7350   38.7570 O   0  0  0  0  0  0  0  0  0  0  0  0
   37.6190   32.5300   40.0020 P   0  0  2  0  0  0  0  0  0  0  0  0
   36.7620   33.8960   39.6400 O   0  0  0  0  0  0  0  0  0  0  0  0
   37.1800   34.3770   38.8860 H   0  0  0  0  0  0  0  0  0  0  0  0
   36.6570   31.4130   40.9250 O   0  0  0  0  0  0  0  0  0  0  0  0
   36.5920   30.0620   40.6700 C   0  0  0  0  0  0  0  0  0  0  0  0
   35.7660   29.3740   39.7920 C   0  0  0  0  0  0  0  0  0  0  0  0
   35.8630   27.9980   39.6820 C   0  0  0  0  0  0  0  0  0  0  0  0
   36.7720   27.3450   40.4420 N   0  0  0  0  0  0  0  0  0  0  0  0
   37.5800   28.0010   41.2960 C   0  0  0  0  0  0  0  0  0  0  0  0
   37.4980   29.3670   41.4190 N   0  0  0  0  0  0  0  0  0  0  0  0
   35.1070   30.0510   39.2730 H   0  0  0  0  0  0  0  0  0  0  0  0
   35.1800   27.5680   38.9780 H   0  0  0  0  0  0  0  0  0  0  0  0
   38.5180   27.2610   42.0700 N   0  0  0  0  0  0  0  0  0  0  0  0
   38.9570   27.6770   43.3760 C   0  0  0  0  0  2  0  0  0  0  0  0
   39.7770   26.5280   43.9010 C   0  0  0  0  0  2  0  0  0  0  0  0
   39.4970   25.3500   43.0120 C   0  0  0  0  0  2  0  0  0  0  0  0
   39.1650   26.0180   41.6930 C   0  0  0  0  0  3  0  0  0  0  0  0
   38.3840   25.4120   41.1560 H   0  0  0  0  0  0  0  0  0  0  0  0
  2  5  1  1  0  0  0
  3  2  1  0  0  0  0
  3  6  1  0  0  0  0
  4  8  1  6  0  0  0
  4  3  1  0  0  0  0
  4  2  1  0  0  0  0
  4  1  1  0  0  0  0
  7  3  1  0  0  0  0
  9 10  2  0  0  0  0
  9  2  1  0  0  0  0
 11 12  1  0  0  0  0
 12 13  2  0  0  0  0
 12  9  1  0  0  0  0
 13 18  1  0  0  0  0
 14 13  1  0  0  0  0
 15 14  2  0  0  0  0
 16 15  1  0  0  0  0
 16 11  2  0  0  0  0
 17 11  1  0  0  0  0
 19 15  1  0  0  0  0
 21 20  2  6  0  0  0
 21  1  1  0  0  0  0
 21 24  1  0  0  0  0
 22 21  1  0  0  0  0
 23 22  1  0  0  0  0
 25 24  1  0  0  0  0
 25 30  1  0  0  0  0
 26 25  2  0  0  0  0
 27 26  1  0  0  0  0
 27 28  2  0  0  0  0
 28 29  1  0  0  0  0
 29 30  2  0  0  0  0
 29 33  1  0  0  0  0
 31 26  1  0  0  0  0
 32 27  1  0  0  0  0
 33 34  1  0  0  0  0
 34 35  1  0  0  0  0
 36 35  1  0  0  0  0
 37 33  1  0  0  0  0
 37 36  1  0  0  0  0
 38 37  1  0  0  0  0
M  END
>  <minimizedAffinity>
-5.55276012

$$$$

 OpenBabel03242512133D

 38 41  0  0  1  0  0  0  0  0999 V2000
   37.7700   26.4990   42.8120 O   0  0  0  0  0  0  0  0  0  0  0  0
   37.1400   24.3270   41.8330 C   0  0  1  0  0  0  0  0  0  0  0  0
   38.6800   24.3990   42.1830 C   0  0  0  0  0  0  0  0  0  0  0  0
   37.9400   25.5760   41.7960 C   0  0  2  0  0  0  0  0  0  0  0  0
   36.5000   24.1550   42.6930 H   0  0  0  0  0  0  0  0  0  0  0  0
   38.9030   24.1050   43.2140 H   0  0  0  0  0  0  0  0  0  0  0  0
   39.3670   23.9290   41.4530 H   0  0  0  0  0  0  0  0  0  0  0  0
   37.9530   26.0180   40.7820 H   0  0  0  0  0  0  0  0  0  0  0  0
   36.9010   23.5660   40.5720 C   0  0  0  0  0  0  0  0  0  0  0  0
   37.4800   22.4930   40.4430 O   0  0  0  0  0  0  0  0  0  0  0  0
   36.2480   25.0920   38.7640 C   0  0  0  0  0  0  0  0  0  0  0  0
   36.0560   23.9880   39.5120 C   0  0  0  0  0  0  0  0  0  0  0  0
   34.9040   23.1940   39.1940 C   0  0  0  0  0  0  0  0  0  0  0  0
   34.0670   23.5520   38.1920 N   0  0  0  0  0  0  0  0  0  0  0  0
   34.3110   24.6750   37.4710 C   0  0  0  0  0  0  0  0  0  0  0  0
   35.3690   25.4130   37.7550 N   0  0  0  0  0  0  0  0  0  0  0  0
   37.1280   25.6730   39.0270 H   0  0  0  0  0  0  0  0  0  0  0  0
   34.6250   22.3000   39.6850 H   0  0  0  0  0  0  0  0  0  0  0  0
   33.7450   25.0820   36.6580 H   0  0  0  0  0  0  0  0  0  0  0  0
   39.3660   27.7450   41.2090 O   0  0  0  0  0  0  0  0  0  0  0  0
   39.0130   27.6360   42.6870 P   0  0  2  0  0  0  0  0  0  0  0  0
   40.3400   27.3440   43.6270 O   0  0  0  0  0  0  0  0  0  0  0  0
   40.8980   26.6340   43.2270 H   0  0  0  0  0  0  0  0  0  0  0  0
   38.3160   29.1880   43.0530 O   0  0  0  0  0  0  0  0  0  0  0  0
   37.9350   30.1030   42.0980 C   0  0  0  0  0  0  0  0  0  0  0  0
   36.7400   30.1910   41.3960 C   0  0  0  0  0  0  0  0  0  0  0  0
   36.5540   31.2010   40.4690 C   0  0  0  0  0  0  0  0  0  0  0  0
   37.5510   32.0910   40.2640 N   0  0  0  0  0  0  0  0  0  0  0  0
   38.7130   32.0170   40.9400 C   0  0  0  0  0  0  0  0  0  0  0  0
   38.9170   31.0220   41.8640 N   0  0  0  0  0  0  0  0  0  0  0  0
   36.0650   29.4020   41.6850 H   0  0  0  0  0  0  0  0  0  0  0  0
   35.5990   31.1760   39.9840 H   0  0  0  0  0  0  0  0  0  0  0  0
   39.7280   32.9830   40.6820 N   0  0  0  0  0  0  0  0  0  0  0  0
   41.1320   32.6980   40.8150 C   0  0  0  0  0  2  0  0  0  0  0  0
   41.8340   33.9120   40.2680 C   0  0  0  0  0  2  0  0  0  0  0  0
   40.8040   34.7150   39.5250 C   0  0  0  0  0  2  0  0  0  0  0  0
   39.5300   34.3590   40.2630 C   0  0  0  0  0  3  0  0  0  0  0  0
   38.6710   34.3400   39.5350 H   0  0  0  0  0  0  0  0  0  0  0  0
  2  3  1  0  0  0  0
  2  5  1  1  0  0  0
  3  6  1  0  0  0  0
  4  8  1  6  0  0  0
  4  2  1  0  0  0  0
  4  3  1  0  0  0  0
  4  1  1  0  0  0  0
  7  3  1  0  0  0  0
  9  2  1  0  0  0  0
 10  9  2  0  0  0  0
 11 17  1  0  0  0  0
 11 12  1  0  0  0  0
 12  9  1  0  0  0  0
 13 12  2  0  0  0  0
 13 18  1  0  0  0  0
 14 13  1  0  0  0  0
 15 16  1  0  0  0  0
 15 14  2  0  0  0  0
 16 11  2  0  0  0  0
 19 15  1  0  0  0  0
 21 20  2  6  0  0  0
 21  1  1  0  0  0  0
 21 24  1  0  0  0  0
 21 22  1  0  0  0  0
 23 22  1  0  0  0  0
 25 24  1  0  0  0  0
 26 31  1  0  0  0  0
 26 25  2  0  0  0  0
 27 26  1  0  0  0  0
 28 27  2  0  0  0  0
 28 29  1  0  0  0  0
 29 30  2  0  0  0  0
 30 25  1  0  0  0  0
 32 27  1  0  0  0  0
 33 34  1  0  0  0  0
 33 29  1  0  0  0  0
 35 34  1  0  0  0  0
 36 37  1  0  0  0  0
 36 35  1  0  0  0  0
 37 33  1  0  0  0  0
 38 37  1  0  0  0  0
M  END
>  <minimizedAffinity>
-5.50228643

$$$$
