
 OpenBabel03252507343D

 46 49  0  0  1  0  0  0  0  0999 V2000
   38.0060   25.8420   41.0920 C   0  0  2  0  0  0  0  0  0  0  0  0
   37.2480   24.6840   41.8130 C   0  0  0  0  0  0  0  0  0  0  0  0
   37.2930   23.4630   40.9600 C   0  0  0  0  0  0  0  0  0  0  0  0
   38.6160   23.1380   40.3500 C   0  0  0  0  0  0  0  0  0  0  0  0
   39.3660   24.2900   39.9080 C   0  0  0  0  0  0  0  0  0  0  0  0
   39.3890   25.4460   40.9330 C   0  0  2  0  0  0  0  0  0  0  0  0
   37.4680   25.9040   40.1240 H   0  0  0  0  0  0  0  0  0  0  0  0
   36.2090   25.0630   41.8930 H   0  0  0  0  0  0  0  0  0  0  0  0
   37.6070   24.5470   42.8380 H   0  0  0  0  0  0  0  0  0  0  0  0
   36.4330   23.5390   40.2670 H   0  0  0  0  0  0  0  0  0  0  0  0
   37.0240   22.5960   41.6280 H   0  0  0  0  0  0  0  0  0  0  0  0
   39.0820   22.1870   40.6020 H   0  0  0  0  0  0  0  0  0  0  0  0
   38.2450   22.7520   39.3160 H   0  0  0  0  0  0  0  0  0  0  0  0
   40.4400   24.0080   39.7270 H   0  0  0  0  0  0  0  0  0  0  0  0
   39.0620   24.7910   38.9570 H   0  0  0  0  0  0  0  0  0  0  0  0
   40.0500   26.1560   40.4310 H   0  0  0  0  0  0  0  0  0  0  0  0
   37.8580   27.0960   41.8030 C   0  0  0  0  0  0  0  0  0  0  0  0
   37.4610   27.0350   43.1320 C   0  0  0  0  0  0  0  0  0  0  0  0
   37.2790   28.2340   43.8610 C   0  0  0  0  0  0  0  0  0  0  0  0
   37.5220   29.4200   43.1760 N   0  0  0  0  0  0  0  0  0  0  0  0
   37.9040   29.4080   41.8940 C   0  0  0  0  0  0  0  0  0  0  0  0
   38.0690   28.2700   41.2220 N   0  0  0  0  0  0  0  0  0  0  0  0
   37.2610   26.2650   43.8470 H   0  0  0  0  0  0  0  0  0  0  0  0
   36.9840   28.3840   44.8630 H   0  0  0  0  0  0  0  0  0  0  0  0
   38.1620   30.6930   41.2360 C   0  0  0  0  0  0  0  0  0  0  0  0
   37.1470   31.3960   40.6280 C   0  0  0  0  0  0  0  0  0  0  0  0
   37.2940   32.6040   39.9910 C   0  0  0  0  0  0  0  0  0  0  0  0
   38.5930   33.0910   40.0000 C   0  0  0  0  0  0  0  0  0  0  0  0
   39.6220   32.4080   40.6000 C   0  0  0  0  0  0  0  0  0  0  0  0
   39.4050   31.2040   41.2200 N   0  0  0  0  0  0  0  0  0  0  0  0
   36.1670   30.9420   40.6700 H   0  0  0  0  0  0  0  0  0  0  0  0
   36.4480   33.1000   39.5350 H   0  0  0  0  0  0  0  0  0  0  0  0
   38.7730   34.0440   39.5110 H   0  0  0  0  0  0  0  0  0  0  0  0
   40.9500   32.9180   40.6010 N   0  0  0  0  0  0  0  0  0  0  0  0
   41.4880   33.9830   39.7750 C   0  0  0  0  0  2  0  0  0  0  0  0
   42.7610   33.3010   39.2580 C   0  0  0  0  0  2  0  0  0  0  0  0
   43.1690   32.4120   40.4010 C   0  0  0  0  0  2  0  0  0  0  0  0
   42.0600   32.4880   41.4290 C   0  0  0  0  0  3  0  0  0  0  0  0
   42.3550   33.3140   42.1390 H   0  0  0  0  0  0  0  0  0  0  0  0
   39.9140   24.9350   42.2000 N   0  0  0  0  0  0  0  0  0  0  0  0
   40.9240   25.4120   43.0530 C   0  0  0  0  0  0  0  0  0  0  0  0
   40.7560   26.4060   43.8480 O   0  0  0  0  0  0  0  0  0  0  0  0
   42.1580   24.6970   42.9730 N   0  0  0  0  0  0  0  0  0  0  0  0
   39.5750   23.9900   42.6220 H   0  0  0  0  0  0  0  0  0  0  0  0
   42.3570   23.6810   43.1270 H   0  0  0  0  0  0  0  0  0  0  0  0
   43.1920   24.5250   42.8260 H   0  0  0  0  0  0  0  0  0  0  0  0
  1  7  1  6  0  0  0
  1 17  1  0  0  0  0
  1  2  1  0  0  0  0
  2  8  1  0  0  0  0
  2  9  1  0  0  0  0
  3 11  1  0  0  0  0
  3  2  1  0  0  0  0
  4 12  1  0  0  0  0
  4  3  1  0  0  0  0
  5  4  1  0  0  0  0
  5  6  1  0  0  0  0
  6 16  1  6  0  0  0
  6  1  1  0  0  0  0
  6 40  1  0  0  0  0
 10  3  1  0  0  0  0
 13  4  1  0  0  0  0
 14  5  1  0  0  0  0
 15  5  1  0  0  0  0
 17 18  1  0  0  0  0
 18 23  1  0  0  0  0
 18 19  2  0  0  0  0
 19 24  1  0  0  0  0
 20 19  1  0  0  0  0
 21 20  2  0  0  0  0
 22 17  2  0  0  0  0
 22 21  1  0  0  0  0
 25 21  1  0  0  0  0
 26 31  1  0  0  0  0
 26 25  2  0  0  0  0
 27 28  2  0  0  0  0
 27 26  1  0  0  0  0
 28 29  1  0  0  0  0
 29 34  1  0  0  0  0
 29 30  2  0  0  0  0
 30 25  1  0  0  0  0
 32 27  1  0  0  0  0
 33 28  1  0  0  0  0
 34 38  1  0  0  0  0
 35 34  1  0  0  0  0
 36 35  1  0  0  0  0
 36 37  1  0  0  0  0
 37 38  1  0  0  0  0
 38 39  1  0  0  0  0
 40 44  1  0  0  0  0
 40 41  1  0  0  0  0
 41 42  2  0  0  0  0
 43 41  1  0  0  0  0
 43 45  1  0  0  0  0
 46 43  1  0  0  0  0
M  END
>  <minimizedAffinity>
-6.87851286

$$$$

 OpenBabel03252507343D

 46 49  0  0  1  0  0  0  0  0999 V2000
   38.7820   32.3100   40.8910 C   0  0  2  0  0  0  0  0  0  0  0  0
   38.0680   33.5090   40.1930 C   0  0  0  0  0  0  0  0  0  0  0  0
   38.9260   34.7230   40.3050 C   0  0  0  0  0  0  0  0  0  0  0  0
   40.3770   34.5280   40.0150 C   0  0  0  0  0  0  0  0  0  0  0  0
   40.9180   33.2800   40.5000 C   0  0  0  0  0  0  0  0  0  0  0  0
   40.0250   32.0570   40.1960 C   0  0  2  0  0  0  0  0  0  0  0  0
   38.9410   32.7010   41.9170 H   0  0  0  0  0  0  0  0  0  0  0  0
   37.1370   33.6380   40.7820 H   0  0  0  0  0  0  0  0  0  0  0  0
   37.7580   33.2530   39.1740 H   0  0  0  0  0  0  0  0  0  0  0  0
   38.6730   35.1910   41.2760 H   0  0  0  0  0  0  0  0  0  0  0  0
   38.5410   35.4590   39.5430 H   0  0  0  0  0  0  0  0  0  0  0  0
   40.8200   35.0880   39.1940 H   0  0  0  0  0  0  0  0  0  0  0  0
   40.8170   35.2440   40.8210 H   0  0  0  0  0  0  0  0  0  0  0  0
   41.9120   33.0730   40.0150 H   0  0  0  0  0  0  0  0  0  0  0  0
   41.1330   33.1800   41.5910 H   0  0  0  0  0  0  0  0  0  0  0  0
   40.6460   31.2450   40.5780 H   0  0  0  0  0  0  0  0  0  0  0  0
   37.9220   31.1450   40.9520 C   0  0  0  0  0  0  0  0  0  0  0  0
   36.5870   31.3160   40.6130 C   0  0  0  0  0  0  0  0  0  0  0  0
   35.7040   30.2130   40.6800 C   0  0  0  0  0  0  0  0  0  0  0  0
   36.2530   29.0010   41.0880 N   0  0  0  0  0  0  0  0  0  0  0  0
   37.5510   28.9040   41.3980 C   0  0  0  0  0  0  0  0  0  0  0  0
   38.3680   29.9540   41.3320 N   0  0  0  0  0  0  0  0  0  0  0  0
   35.9750   32.1150   40.2510 H   0  0  0  0  0  0  0  0  0  0  0  0
   34.6720   30.1510   40.4660 H   0  0  0  0  0  0  0  0  0  0  0  0
   38.0710   27.5940   41.8020 C   0  0  0  0  0  0  0  0  0  0  0  0
   39.0680   27.4860   42.7450 C   0  0  0  0  0  0  0  0  0  0  0  0
   39.6140   26.3040   43.1840 C   0  0  0  0  0  0  0  0  0  0  0  0
   39.0700   25.1760   42.5880 C   0  0  0  0  0  0  0  0  0  0  0  0
   38.0750   25.2590   41.6450 C   0  0  0  0  0  0  0  0  0  0  0  0
   37.5740   26.4730   41.2520 N   0  0  0  0  0  0  0  0  0  0  0  0
   39.4310   28.4160   43.1560 H   0  0  0  0  0  0  0  0  0  0  0  0
   40.3960   26.2960   43.9310 H   0  0  0  0  0  0  0  0  0  0  0  0
   39.4610   24.2100   42.8950 H   0  0  0  0  0  0  0  0  0  0  0  0
   37.5260   24.0940   41.0420 N   0  0  0  0  0  0  0  0  0  0  0  0
   38.0750   22.7500   41.0540 C   0  0  0  0  0  2  0  0  0  0  0  0
   37.9890   22.4140   39.5600 C   0  0  0  0  0  2  0  0  0  0  0  0
   36.7590   23.1510   39.1070 C   0  0  0  0  0  2  0  0  0  0  0  0
   36.2960   23.9900   40.2790 C   0  0  0  0  0  3  0  0  0  0  0  0
   35.5500   23.3540   40.8370 H   0  0  0  0  0  0  0  0  0  0  0  0
   39.7890   31.9990   38.7520 N   0  0  0  0  0  0  0  0  0  0  0  0
   40.6470   31.7080   37.6770 C   0  0  0  0  0  0  0  0  0  0  0  0
   41.0130   30.5150   37.3790 O   0  0  0  0  0  0  0  0  0  0  0  0
   41.0750   32.8480   36.9300 N   0  0  0  0  0  0  0  0  0  0  0  0
   38.8290   32.2710   38.3170 H   0  0  0  0  0  0  0  0  0  0  0  0
   40.5100   33.5710   36.4270 H   0  0  0  0  0  0  0  0  0  0  0  0
   41.7330   33.5480   36.4860 H   0  0  0  0  0  0  0  0  0  0  0  0
  1 17  1  0  0  0  0
  1  7  1  1  0  0  0
  2  3  1  0  0  0  0
  2  8  1  0  0  0  0
  2  1  1  0  0  0  0
  3 10  1  0  0  0  0
  4  3  1  0  0  0  0
  4  5  1  0  0  0  0
  4 13  1  0  0  0  0
  5 15  1  0  0  0  0
  6  5  1  0  0  0  0
  6 16  1  1  0  0  0
  6  1  1  0  0  0  0
  9  2  1  0  0  0  0
 11  3  1  0  0  0  0
 12  4  1  0  0  0  0
 14  5  1  0  0  0  0
 17 22  1  0  0  0  0
 18 19  1  0  0  0  0
 18 17  2  0  0  0  0
 19 20  2  0  0  0  0
 20 21  1  0  0  0  0
 21 25  1  0  0  0  0
 22 21  2  0  0  0  0
 23 18  1  0  0  0  0
 24 19  1  0  0  0  0
 25 26  1  0  0  0  0
 26 31  1  0  0  0  0
 26 27  2  0  0  0  0
 27 32  1  0  0  0  0
 28 33  1  0  0  0  0
 28 27  1  0  0  0  0
 29 28  2  0  0  0  0
 30 29  1  0  0  0  0
 30 25  2  0  0  0  0
 34 35  1  0  0  0  0
 34 29  1  0  0  0  0
 36 35  1  0  0  0  0
 37 36  1  0  0  0  0
 37 38  1  0  0  0  0
 38 39  1  0  0  0  0
 38 34  1  0  0  0  0
 40  6  1  0  0  0  0
 41 40  1  0  0  0  0
 42 41  2  0  0  0  0
 43 41  1  0  0  0  0
 44 40  1  0  0  0  0
 45 43  1  0  0  0  0
 46 43  1  0  0  0  0
M  END
>  <minimizedAffinity>
-6.74407482

$$$$

 OpenBabel03252507343D

 46 49  0  0  1  0  0  0  0  0999 V2000
   38.0590   31.8880   40.6940 C   0  0  2  0  0  0  0  0  0  0  0  0
   37.2390   32.8840   39.8180 C   0  0  0  0  0  0  0  0  0  0  0  0
   37.8680   34.2330   39.8910 C   0  0  0  0  0  0  0  0  0  0  0  0
   39.3540   34.2710   39.7590 C   0  0  0  0  0  0  0  0  0  0  0  0
   40.0360   33.1790   40.4120 C   0  0  0  0  0  0  0  0  0  0  0  0
   39.3960   31.7990   40.1460 C   0  0  2  0  0  0  0  0  0  0  0  0
   38.0390   32.3810   41.6870 H   0  0  0  0  0  0  0  0  0  0  0  0
   36.2400   32.8960   40.3010 H   0  0  0  0  0  0  0  0  0  0  0  0
   37.0870   32.4980   38.8050 H   0  0  0  0  0  0  0  0  0  0  0  0
   37.4370   34.7270   40.7840 H   0  0  0  0  0  0  0  0  0  0  0  0
   37.4520   34.8280   39.0280 H   0  0  0  0  0  0  0  0  0  0  0  0
   39.7860   34.8320   38.9320 H   0  0  0  0  0  0  0  0  0  0  0  0
   39.5790   35.1150   40.5290 H   0  0  0  0  0  0  0  0  0  0  0  0
   41.0980   33.1100   40.0450 H   0  0  0  0  0  0  0  0  0  0  0  0
   40.1450   33.2060   41.5230 H   0  0  0  0  0  0  0  0  0  0  0  0
   40.0960   31.1400   40.6620 H   0  0  0  0  0  0  0  0  0  0  0  0
   37.4020   30.5990   40.7870 C   0  0  0  0  0  0  0  0  0  0  0  0
   36.0500   30.5460   40.4750 C   0  0  0  0  0  0  0  0  0  0  0  0
   35.3600   29.3160   40.5740 C   0  0  0  0  0  0  0  0  0  0  0  0
   36.1060   28.2150   40.9840 N   0  0  0  0  0  0  0  0  0  0  0  0
   37.4070   28.3350   41.2680 C   0  0  0  0  0  0  0  0  0  0  0  0
   38.0420   29.5020   41.1710 N   0  0  0  0  0  0  0  0  0  0  0  0
   35.3100   31.2300   40.1160 H   0  0  0  0  0  0  0  0  0  0  0  0
   34.3480   29.0840   40.3830 H   0  0  0  0  0  0  0  0  0  0  0  0
   38.1410   27.1320   41.6760 C   0  0  0  0  0  0  0  0  0  0  0  0
   37.4900   25.9340   41.8670 C   0  0  0  0  0  0  0  0  0  0  0  0
   38.0930   24.7610   42.2460 C   0  0  0  0  0  0  0  0  0  0  0  0
   39.4640   24.8650   42.4330 C   0  0  0  0  0  0  0  0  0  0  0  0
   40.1350   26.0490   42.2480 C   0  0  0  0  0  0  0  0  0  0  0  0
   39.4700   27.1870   41.8680 N   0  0  0  0  0  0  0  0  0  0  0  0
   36.4230   25.9460   41.6990 H   0  0  0  0  0  0  0  0  0  0  0  0
   37.5170   23.8550   42.3770 H   0  0  0  0  0  0  0  0  0  0  0  0
   39.9980   23.9680   42.7340 H   0  0  0  0  0  0  0  0  0  0  0  0
   41.5400   26.1430   42.4440 N   0  0  0  0  0  0  0  0  0  0  0  0
   42.4040   25.1940   43.1230 C   0  0  0  0  0  2  0  0  0  0  0  0
   43.1650   26.1470   44.0550 C   0  0  0  0  0  2  0  0  0  0  0  0
   43.2550   27.4180   43.2550 C   0  0  0  0  0  2  0  0  0  0  0  0
   42.4240   27.2080   42.0070 C   0  0  0  0  0  3  0  0  0  0  0  0
   43.1370   26.8200   41.2240 H   0  0  0  0  0  0  0  0  0  0  0  0
   39.3310   31.5860   38.6990 N   0  0  0  0  0  0  0  0  0  0  0  0
   40.3380   31.3910   37.7380 C   0  0  0  0  0  0  0  0  0  0  0  0
   40.9570   30.2760   37.5900 O   0  0  0  0  0  0  0  0  0  0  0  0
   40.6170   32.5330   36.9270 N   0  0  0  0  0  0  0  0  0  0  0  0
   38.3890   31.6260   38.1550 H   0  0  0  0  0  0  0  0  0  0  0  0
   39.9820   33.0890   36.3080 H   0  0  0  0  0  0  0  0  0  0  0  0
   41.1730   33.3150   36.4790 H   0  0  0  0  0  0  0  0  0  0  0  0
  1 17  1  0  0  0  0
  1  7  1  1  0  0  0
  2  3  1  0  0  0  0
  2  8  1  0  0  0  0
  2  1  1  0  0  0  0
  3 10  1  0  0  0  0
  4  3  1  0  0  0  0
  4  5  1  0  0  0  0
  4 13  1  0  0  0  0
  5 15  1  0  0  0  0
  6  5  1  0  0  0  0
  6 16  1  1  0  0  0
  6  1  1  0  0  0  0
  9  2  1  0  0  0  0
 11  3  1  0  0  0  0
 12  4  1  0  0  0  0
 14  5  1  0  0  0  0
 17 22  1  0  0  0  0
 18 19  1  0  0  0  0
 18 17  2  0  0  0  0
 19 20  2  0  0  0  0
 20 21  1  0  0  0  0
 21 25  1  0  0  0  0
 22 21  2  0  0  0  0
 23 18  1  0  0  0  0
 24 19  1  0  0  0  0
 25 26  2  0  0  0  0
 25 30  1  0  0  0  0
 26 27  1  0  0  0  0
 27 32  1  0  0  0  0
 27 28  2  0  0  0  0
 28 33  1  0  0  0  0
 29 28  1  0  0  0  0
 29 34  1  0  0  0  0
 30 29  2  0  0  0  0
 31 26  1  0  0  0  0
 34 35  1  0  0  0  0
 35 36  1  0  0  0  0
 37 36  1  0  0  0  0
 38 34  1  0  0  0  0
 38 37  1  0  0  0  0
 39 38  1  0  0  0  0
 40  6  1  0  0  0  0
 41 40  1  0  0  0  0
 42 41  2  0  0  0  0
 43 41  1  0  0  0  0
 44 40  1  0  0  0  0
 45 43  1  0  0  0  0
 46 43  1  0  0  0  0
M  END
>  <minimizedAffinity>
-6.58949995

$$$$

 OpenBabel03252507343D

 46 49  0  0  1  0  0  0  0  0999 V2000
   38.0880   27.3600   42.4230 C   0  0  2  0  0  0  0  0  0  0  0  0
   39.3270   27.8500   43.2340 C   0  0  0  0  0  0  0  0  0  0  0  0
   39.8590   26.7190   44.0460 C   0  0  0  0  0  0  0  0  0  0  0  0
   39.9770   25.4070   43.3450 C   0  0  0  0  0  0  0  0  0  0  0  0
   38.8960   25.1230   42.4300 C   0  0  0  0  0  0  0  0  0  0  0  0
   38.5230   26.3150   41.5210 C   0  0  2  0  0  0  0  0  0  0  0  0
   37.4210   26.9800   43.2240 H   0  0  0  0  0  0  0  0  0  0  0  0
   38.9120   28.6390   43.8940 H   0  0  0  0  0  0  0  0  0  0  0  0
   40.0610   28.3420   42.5880 H   0  0  0  0  0  0  0  0  0  0  0  0
   39.2880   26.7250   44.9950 H   0  0  0  0  0  0  0  0  0  0  0  0
   40.9020   27.0120   44.3590 H   0  0  0  0  0  0  0  0  0  0  0  0
   40.9630   24.9530   43.2580 H   0  0  0  0  0  0  0  0  0  0  0  0
   39.6640   24.7080   44.2220 H   0  0  0  0  0  0  0  0  0  0  0  0
   39.1810   24.2790   41.7430 H   0  0  0  0  0  0  0  0  0  0  0  0
   37.9140   24.7980   42.8510 H   0  0  0  0  0  0  0  0  0  0  0  0
   37.7580   25.8620   40.8870 H   0  0  0  0  0  0  0  0  0  0  0  0
   37.4350   28.4590   41.7390 C   0  0  0  0  0  0  0  0  0  0  0  0
   36.1230   28.2680   41.3280 C   0  0  0  0  0  0  0  0  0  0  0  0
   35.4520   29.3020   40.6350 C   0  0  0  0  0  0  0  0  0  0  0  0
   36.1730   30.4710   40.4130 N   0  0  0  0  0  0  0  0  0  0  0  0
   37.4360   30.5910   40.8380 C   0  0  0  0  0  0  0  0  0  0  0  0
   38.0540   29.6050   41.4870 N   0  0  0  0  0  0  0  0  0  0  0  0
   35.3870   27.4970   41.4180 H   0  0  0  0  0  0  0  0  0  0  0  0
   34.4700   29.3390   40.2490 H   0  0  0  0  0  0  0  0  0  0  0  0
   38.1340   31.8570   40.5890 C   0  0  0  0  0  0  0  0  0  0  0  0
   37.4610   32.9530   40.0970 C   0  0  0  0  0  0  0  0  0  0  0  0
   38.0300   34.1750   39.8350 C   0  0  0  0  0  0  0  0  0  0  0  0
   39.3880   34.2360   40.1110 C   0  0  0  0  0  0  0  0  0  0  0  0
   40.0800   33.1560   40.6030 C   0  0  0  0  0  0  0  0  0  0  0  0
   39.4490   31.9620   40.8420 N   0  0  0  0  0  0  0  0  0  0  0  0
   36.4060   32.8150   39.9110 H   0  0  0  0  0  0  0  0  0  0  0  0
   37.4380   34.9940   39.4490 H   0  0  0  0  0  0  0  0  0  0  0  0
   39.8950   35.1780   39.9250 H   0  0  0  0  0  0  0  0  0  0  0  0
   41.4720   33.2310   40.8810 N   0  0  0  0  0  0  0  0  0  0  0  0
   42.4080   34.2490   40.4400 C   0  0  0  0  0  2  0  0  0  0  0  0
   43.5300   33.3590   39.8890 C   0  0  0  0  0  2  0  0  0  0  0  0
   43.4820   32.1470   40.7790 C   0  0  0  0  0  2  0  0  0  0  0  0
   42.2670   32.3070   41.6690 C   0  0  0  0  0  3  0  0  0  0  0  0
   42.6360   32.8180   42.6040 H   0  0  0  0  0  0  0  0  0  0  0  0
   39.7210   26.7430   40.7980 N   0  0  0  0  0  0  0  0  0  0  0  0
   39.9560   26.9640   39.4290 C   0  0  0  0  0  0  0  0  0  0  0  0
   39.5520   28.0140   38.8110 O   0  0  0  0  0  0  0  0  0  0  0  0
   40.6930   25.9290   38.7770 N   0  0  0  0  0  0  0  0  0  0  0  0
   40.6740   26.8870   41.3030 H   0  0  0  0  0  0  0  0  0  0  0  0
   41.6420   25.5430   38.9900 H   0  0  0  0  0  0  0  0  0  0  0  0
   40.9160   25.1640   38.0790 H   0  0  0  0  0  0  0  0  0  0  0  0
  1  7  1  1  0  0  0
  1  2  1  0  0  0  0
  2  8  1  0  0  0  0
  2  3  1  0  0  0  0
  3 11  1  0  0  0  0
  3 10  1  0  0  0  0
  4  3  1  0  0  0  0
  4 13  1  0  0  0  0
  5 15  1  0  0  0  0
  5  4  1  0  0  0  0
  6 16  1  6  0  0  0
  6  1  1  0  0  0  0
  6  5  1  0  0  0  0
  9  2  1  0  0  0  0
 12  4  1  0  0  0  0
 14  5  1  0  0  0  0
 17  1  1  0  0  0  0
 18 23  1  0  0  0  0
 18 17  2  0  0  0  0
 19 18  1  0  0  0  0
 20 19  2  0  0  0  0
 20 21  1  0  0  0  0
 21 22  2  0  0  0  0
 22 17  1  0  0  0  0
 24 19  1  0  0  0  0
 25 21  1  0  0  0  0
 25 30  1  0  0  0  0
 26 25  2  0  0  0  0
 27 26  1  0  0  0  0
 27 28  2  0  0  0  0
 28 29  1  0  0  0  0
 29 30  2  0  0  0  0
 29 34  1  0  0  0  0
 31 26  1  0  0  0  0
 32 27  1  0  0  0  0
 33 28  1  0  0  0  0
 34 38  1  0  0  0  0
 35 34  1  0  0  0  0
 36 35  1  0  0  0  0
 36 37  1  0  0  0  0
 37 38  1  0  0  0  0
 38 39  1  0  0  0  0
 40 44  1  0  0  0  0
 40  6  1  0  0  0  0
 41 40  1  0  0  0  0
 42 41  2  0  0  0  0
 43 45  1  0  0  0  0
 43 41  1  0  0  0  0
 46 43  1  0  0  0  0
M  END
>  <minimizedAffinity>
-6.44492388

$$$$

 OpenBabel03252507343D

 46 49  0  0  1  0  0  0  0  0999 V2000
   37.9880   31.8490   40.6250 C   0  0  2  0  0  0  0  0  0  0  0  0
   37.3170   33.0110   39.8300 C   0  0  0  0  0  0  0  0  0  0  0  0
   38.1110   34.2580   40.0200 C   0  0  0  0  0  0  0  0  0  0  0  0
   39.5920   34.1160   39.9020 C   0  0  0  0  0  0  0  0  0  0  0  0
   40.1180   32.8960   40.4660 C   0  0  0  0  0  0  0  0  0  0  0  0
   39.3130   31.6360   40.0810 C   0  0  2  0  0  0  0  0  0  0  0  0
   38.0140   32.2580   41.6560 H   0  0  0  0  0  0  0  0  0  0  0  0
   36.3200   33.1110   40.3060 H   0  0  0  0  0  0  0  0  0  0  0  0
   37.1360   32.7320   38.7870 H   0  0  0  0  0  0  0  0  0  0  0  0
   37.7300   34.7280   40.9480 H   0  0  0  0  0  0  0  0  0  0  0  0
   37.7890   34.9690   39.2070 H   0  0  0  0  0  0  0  0  0  0  0  0
   40.1050   34.6830   39.1270 H   0  0  0  0  0  0  0  0  0  0  0  0
   39.9090   34.8580   40.7410 H   0  0  0  0  0  0  0  0  0  0  0  0
   41.1690   32.7220   40.1020 H   0  0  0  0  0  0  0  0  0  0  0  0
   40.2100   32.8170   41.5760 H   0  0  0  0  0  0  0  0  0  0  0  0
   39.9150   30.8530   40.5450 H   0  0  0  0  0  0  0  0  0  0  0  0
   37.1710   30.6520   40.6050 C   0  0  0  0  0  0  0  0  0  0  0  0
   37.2300   29.8180   41.7140 C   0  0  0  0  0  0  0  0  0  0  0  0
   36.4690   28.6270   41.7300 C   0  0  0  0  0  0  0  0  0  0  0  0
   35.6920   28.3700   40.6050 N   0  0  0  0  0  0  0  0  0  0  0  0
   35.6790   29.2170   39.5710 C   0  0  0  0  0  0  0  0  0  0  0  0
   36.4040   30.3350   39.5700 N   0  0  0  0  0  0  0  0  0  0  0  0
   37.7110   29.8320   42.6690 H   0  0  0  0  0  0  0  0  0  0  0  0
   36.3880   27.8790   42.4710 H   0  0  0  0  0  0  0  0  0  0  0  0
   34.8220   28.8980   38.4240 C   0  0  0  0  0  0  0  0  0  0  0  0
   35.2840   28.1160   37.3880 C   0  0  0  0  0  0  0  0  0  0  0  0
   34.5560   27.7650   36.2790 C   0  0  0  0  0  0  0  0  0  0  0  0
   33.2650   28.2730   36.2680 C   0  0  0  0  0  0  0  0  0  0  0  0
   32.7820   29.0540   37.2890 C   0  0  0  0  0  0  0  0  0  0  0  0
   33.5650   29.3670   38.3710 N   0  0  0  0  0  0  0  0  0  0  0  0
   36.3020   27.7650   37.4810 H   0  0  0  0  0  0  0  0  0  0  0  0
   34.9850   27.1460   35.5030 H   0  0  0  0  0  0  0  0  0  0  0  0
   32.6390   28.0290   35.4150 H   0  0  0  0  0  0  0  0  0  0  0  0
   31.4560   29.5690   37.2650 N   0  0  0  0  0  0  0  0  0  0  0  0
   30.5560   29.6400   36.1290 C   0  0  0  0  0  2  0  0  0  0  0  0
   30.1110   31.1050   36.2340 C   0  0  0  0  0  2  0  0  0  0  0  0
   30.1180   31.3660   37.7150 C   0  0  0  0  0  2  0  0  0  0  0  0
   30.7090   30.1360   38.3720 C   0  0  0  0  0  3  0  0  0  0  0  0
   29.8340   29.4720   38.6260 H   0  0  0  0  0  0  0  0  0  0  0  0
   39.2470   31.5520   38.6210 N   0  0  0  0  0  0  0  0  0  0  0  0
   40.2440   31.3480   37.6510 C   0  0  0  0  0  0  0  0  0  0  0  0
   40.7620   30.1990   37.4120 O   0  0  0  0  0  0  0  0  0  0  0  0
   40.6340   32.5260   36.9420 N   0  0  0  0  0  0  0  0  0  0  0  0
   38.3190   31.7220   38.0780 H   0  0  0  0  0  0  0  0  0  0  0  0
   40.0590   33.1860   36.3700 H   0  0  0  0  0  0  0  0  0  0  0  0
   41.2630   33.2890   36.5650 H   0  0  0  0  0  0  0  0  0  0  0  0
  1  7  1  1  0  0  0
  2  3  1  0  0  0  0
  2  8  1  0  0  0  0
  2  1  1  0  0  0  0
  3 10  1  0  0  0  0
  4  3  1  0  0  0  0
  4  5  1  0  0  0  0
  4 13  1  0  0  0  0
  5 15  1  0  0  0  0
  6  5  1  0  0  0  0
  6 16  1  1  0  0  0
  6  1  1  0  0  0  0
  9  2  1  0  0  0  0
 11  3  1  0  0  0  0
 12  4  1  0  0  0  0
 14  5  1  0  0  0  0
 17  1  1  0  0  0  0
 17 18  1  0  0  0  0
 18 19  2  0  0  0  0
 18 23  1  0  0  0  0
 19 24  1  0  0  0  0
 20 19  1  0  0  0  0
 21 20  2  0  0  0  0
 22 21  1  0  0  0  0
 22 17  2  0  0  0  0
 25 21  1  0  0  0  0
 26 31  1  0  0  0  0
 26 25  2  0  0  0  0
 27 26  1  0  0  0  0
 28 27  2  0  0  0  0
 28 29  1  0  0  0  0
 29 30  2  0  0  0  0
 30 25  1  0  0  0  0
 32 27  1  0  0  0  0
 33 28  1  0  0  0  0
 34 29  1  0  0  0  0
 34 38  1  0  0  0  0
 35 36  1  0  0  0  0
 35 34  1  0  0  0  0
 36 37  1  0  0  0  0
 37 38  1  0  0  0  0
 38 39  1  0  0  0  0
 40  6  1  0  0  0  0
 41 40  1  0  0  0  0
 42 41  2  0  0  0  0
 43 41  1  0  0  0  0
 44 40  1  0  0  0  0
 45 43  1  0  0  0  0
 46 43  1  0  0  0  0
M  END
>  <minimizedAffinity>
-6.43163538

$$$$

 OpenBabel03252507343D

 46 49  0  0  1  0  0  0  0  0999 V2000
   39.1520   31.7890   41.3270 C   0  0  2  0  0  0  0  0  0  0  0  0
   37.8700   31.1480   40.7110 C   0  0  0  0  0  0  0  0  0  0  0  0
   36.9430   32.2290   40.2720 C   0  0  0  0  0  0  0  0  0  0  0  0
   37.5650   33.3620   39.5260 C   0  0  0  0  0  0  0  0  0  0  0  0
   38.8650   33.7550   40.0180 C   0  0  0  0  0  0  0  0  0  0  0  0
   39.8090   32.5650   40.2960 C   0  0  2  0  0  0  0  0  0  0  0  0
   38.7290   32.4250   42.1310 H   0  0  0  0  0  0  0  0  0  0  0  0
   37.4300   30.5800   41.5560 H   0  0  0  0  0  0  0  0  0  0  0  0
   38.1210   30.4110   39.9400 H   0  0  0  0  0  0  0  0  0  0  0  0
   36.3350   32.4930   41.1580 H   0  0  0  0  0  0  0  0  0  0  0  0
   36.2020   31.7500   39.5700 H   0  0  0  0  0  0  0  0  0  0  0  0
   37.2310   33.5580   38.5090 H   0  0  0  0  0  0  0  0  0  0  0  0
   36.9310   34.2340   39.9670 H   0  0  0  0  0  0  0  0  0  0  0  0
   39.3880   34.4020   39.2600 H   0  0  0  0  0  0  0  0  0  0  0  0
   38.9200   34.3560   40.9580 H   0  0  0  0  0  0  0  0  0  0  0  0
   40.7240   33.0860   40.5810 H   0  0  0  0  0  0  0  0  0  0  0  0
   40.0160   30.7860   41.9150 C   0  0  0  0  0  0  0  0  0  0  0  0
   41.2530   31.2030   42.3870 C   0  0  0  0  0  0  0  0  0  0  0  0
   42.1410   30.2560   42.9470 C   0  0  0  0  0  0  0  0  0  0  0  0
   41.6990   28.9380   42.9890 N   0  0  0  0  0  0  0  0  0  0  0  0
   40.4920   28.6030   42.5190 C   0  0  0  0  0  0  0  0  0  0  0  0
   39.6690   29.5080   41.9920 N   0  0  0  0  0  0  0  0  0  0  0  0
   41.7710   32.1340   42.4860 H   0  0  0  0  0  0  0  0  0  0  0  0
   43.1090   30.3830   43.3490 H   0  0  0  0  0  0  0  0  0  0  0  0
   40.0780   27.1990   42.6120 C   0  0  0  0  0  0  0  0  0  0  0  0
   40.6780   26.3390   43.5040 C   0  0  0  0  0  0  0  0  0  0  0  0
   40.3560   25.0140   43.6610 C   0  0  0  0  0  0  0  0  0  0  0  0
   39.3390   24.5770   42.8240 C   0  0  0  0  0  0  0  0  0  0  0  0
   38.7250   25.4160   41.9270 C   0  0  0  0  0  0  0  0  0  0  0  0
   39.0970   26.7330   41.8220 N   0  0  0  0  0  0  0  0  0  0  0  0
   41.4610   26.7650   44.1150 H   0  0  0  0  0  0  0  0  0  0  0  0
   40.8720   24.3960   44.3840 H   0  0  0  0  0  0  0  0  0  0  0  0
   39.0390   23.5370   42.9030 H   0  0  0  0  0  0  0  0  0  0  0  0
   37.6840   24.9570   41.0750 N   0  0  0  0  0  0  0  0  0  0  0  0
   37.3250   23.5810   40.7790 C   0  0  0  0  0  2  0  0  0  0  0  0
   37.2630   23.6450   39.2480 C   0  0  0  0  0  2  0  0  0  0  0  0
   36.7810   25.0440   38.9770 C   0  0  0  0  0  2  0  0  0  0  0  0
   36.7480   25.7600   40.3110 C   0  0  0  0  0  3  0  0  0  0  0  0
   35.7030   25.6180   40.7100 H   0  0  0  0  0  0  0  0  0  0  0  0
   39.9310   31.7700   39.0720 N   0  0  0  0  0  0  0  0  0  0  0  0
   40.5860   32.0250   37.8550 C   0  0  0  0  0  0  0  0  0  0  0  0
   41.8570   31.9220   37.7110 O   0  0  0  0  0  0  0  0  0  0  0  0
   39.7230   32.4000   36.7810 N   0  0  0  0  0  0  0  0  0  0  0  0
   39.4100   30.8220   38.9510 H   0  0  0  0  0  0  0  0  0  0  0  0
   38.9110   31.8910   36.3620 H   0  0  0  0  0  0  0  0  0  0  0  0
   39.3190   32.9860   35.9970 H   0  0  0  0  0  0  0  0  0  0  0  0
  1 17  1  0  0  0  0
  1  7  1  1  0  0  0
  2  1  1  0  0  0  0
  2  8  1  0  0  0  0
  3  2  1  0  0  0  0
  3 10  1  0  0  0  0
  4 13  1  0  0  0  0
  4  5  1  0  0  0  0
  4  3  1  0  0  0  0
  5  6  1  0  0  0  0
  5 15  1  0  0  0  0
  6 16  1  1  0  0  0
  6  1  1  0  0  0  0
  9  2  1  0  0  0  0
 11  3  1  0  0  0  0
 12  4  1  0  0  0  0
 14  5  1  0  0  0  0
 17 22  2  0  0  0  0
 17 18  1  0  0  0  0
 18 23  1  0  0  0  0
 18 19  2  0  0  0  0
 19 20  1  0  0  0  0
 19 24  1  0  0  0  0
 21 25  1  0  0  0  0
 21 20  2  0  0  0  0
 22 21  1  0  0  0  0
 25 26  1  0  0  0  0
 26 27  2  0  0  0  0
 26 31  1  0  0  0  0
 27 32  1  0  0  0  0
 28 33  1  0  0  0  0
 28 27  1  0  0  0  0
 29 28  2  0  0  0  0
 30 29  1  0  0  0  0
 30 25  2  0  0  0  0
 34 29  1  0  0  0  0
 35 34  1  0  0  0  0
 36 35  1  0  0  0  0
 37 36  1  0  0  0  0
 37 38  1  0  0  0  0
 38 39  1  0  0  0  0
 38 34  1  0  0  0  0
 40  6  1  0  0  0  0
 41 40  1  0  0  0  0
 42 41  2  0  0  0  0
 43 41  1  0  0  0  0
 44 40  1  0  0  0  0
 45 43  1  0  0  0  0
 46 43  1  0  0  0  0
M  END
>  <minimizedAffinity>
-6.39942837

$$$$

 OpenBabel03252507343D

 46 49  0  0  1  0  0  0  0  0999 V2000
   39.7210   32.9980   39.0680 C   0  0  2  0  0  0  0  0  0  0  0  0
   41.0390   32.8200   38.2510 C   0  0  0  0  0  0  0  0  0  0  0  0
   41.8370   34.0760   38.3290 C   0  0  0  0  0  0  0  0  0  0  0  0
   41.9500   34.6980   39.6800 C   0  0  0  0  0  0  0  0  0  0  0  0
   40.7450   34.6230   40.4720 C   0  0  0  0  0  0  0  0  0  0  0  0
   40.0760   33.2310   40.4520 C   0  0  2  0  0  0  0  0  0  0  0  0
   39.2710   33.8920   38.5890 H   0  0  0  0  0  0  0  0  0  0  0  0
   40.6820   32.6510   37.2140 H   0  0  0  0  0  0  0  0  0  0  0  0
   41.5740   31.9120   38.5470 H   0  0  0  0  0  0  0  0  0  0  0  0
   41.4680   34.7270   37.5120 H   0  0  0  0  0  0  0  0  0  0  0  0
   42.8840   33.8100   38.0070 H   0  0  0  0  0  0  0  0  0  0  0  0
   42.9410   34.8120   40.1160 H   0  0  0  0  0  0  0  0  0  0  0  0
   41.8930   35.8180   39.3660 H   0  0  0  0  0  0  0  0  0  0  0  0
   40.9740   34.8460   41.5510 H   0  0  0  0  0  0  0  0  0  0  0  0
   39.9050   35.3190   40.2330 H   0  0  0  0  0  0  0  0  0  0  0  0
   39.2520   33.3850   41.1510 H   0  0  0  0  0  0  0  0  0  0  0  0
   38.8340   31.8650   38.8960 C   0  0  0  0  0  0  0  0  0  0  0  0
   38.1940   31.7330   37.6710 C   0  0  0  0  0  0  0  0  0  0  0  0
   37.3000   30.6570   37.4640 C   0  0  0  0  0  0  0  0  0  0  0  0
   37.1240   29.7810   38.5310 N   0  0  0  0  0  0  0  0  0  0  0  0
   37.7740   29.9650   39.6850 C   0  0  0  0  0  0  0  0  0  0  0  0
   38.6110   30.9860   39.8640 N   0  0  0  0  0  0  0  0  0  0  0  0
   38.2040   32.2450   36.7320 H   0  0  0  0  0  0  0  0  0  0  0  0
   36.7290   30.3980   36.6150 H   0  0  0  0  0  0  0  0  0  0  0  0
   37.5590   28.9940   40.7640 C   0  0  0  0  0  0  0  0  0  0  0  0
   37.5740   29.3850   42.0840 C   0  0  0  0  0  0  0  0  0  0  0  0
   37.3820   28.5490   43.1560 C   0  0  0  0  0  0  0  0  0  0  0  0
   37.1620   27.2250   42.8070 C   0  0  0  0  0  0  0  0  0  0  0  0
   37.1430   26.8120   41.4970 C   0  0  0  0  0  0  0  0  0  0  0  0
   37.3420   27.7010   40.4720 N   0  0  0  0  0  0  0  0  0  0  0  0
   37.7520   30.4360   42.2630 H   0  0  0  0  0  0  0  0  0  0  0  0
   37.4060   28.9280   44.1690 H   0  0  0  0  0  0  0  0  0  0  0  0
   37.0030   26.5150   43.6130 H   0  0  0  0  0  0  0  0  0  0  0  0
   36.9170   25.4510   41.1520 N   0  0  0  0  0  0  0  0  0  0  0  0
   36.9830   24.2940   42.0270 C   0  0  0  0  0  2  0  0  0  0  0  0
   37.8760   23.3740   41.1850 C   0  0  0  0  0  2  0  0  0  0  0  0
   37.5050   23.7280   39.7710 C   0  0  0  0  0  2  0  0  0  0  0  0
   36.5690   24.9160   39.8490 C   0  0  0  0  0  3  0  0  0  0  0  0
   35.5270   24.4850   39.8760 H   0  0  0  0  0  0  0  0  0  0  0  0
   41.0540   32.2360   40.8920 N   0  0  0  0  0  0  0  0  0  0  0  0
   41.3480   31.7140   42.1650 C   0  0  0  0  0  0  0  0  0  0  0  0
   40.6140   30.8360   42.7460 O   0  0  0  0  0  0  0  0  0  0  0  0
   42.5370   32.2330   42.7610 N   0  0  0  0  0  0  0  0  0  0  0  0
   41.7770   31.8000   40.2050 H   0  0  0  0  0  0  0  0  0  0  0  0
   43.5230   32.2250   42.4100 H   0  0  0  0  0  0  0  0  0  0  0  0
   43.1580   32.7110   43.4730 H   0  0  0  0  0  0  0  0  0  0  0  0
  1  7  1  6  0  0  0
  1  6  1  0  0  0  0
  2  3  1  0  0  0  0
  2  9  1  0  0  0  0
  2  1  1  0  0  0  0
  3  4  1  0  0  0  0
  4 12  1  0  0  0  0
  4  5  1  0  0  0  0
  5 14  1  0  0  0  0
  6  5  1  0  0  0  0
  6 40  1  0  0  0  0
  6 16  1  1  0  0  0
  8  2  1  0  0  0  0
 10  3  1  0  0  0  0
 11  3  1  0  0  0  0
 13  4  1  0  0  0  0
 15  5  1  0  0  0  0
 17  1  1  0  0  0  0
 17 22  1  0  0  0  0
 18 17  2  0  0  0  0
 19 18  1  0  0  0  0
 19 20  2  0  0  0  0
 20 21  1  0  0  0  0
 21 22  2  0  0  0  0
 21 25  1  0  0  0  0
 23 18  1  0  0  0  0
 24 19  1  0  0  0  0
 25 26  1  0  0  0  0
 26 31  1  0  0  0  0
 26 27  2  0  0  0  0
 27 32  1  0  0  0  0
 28 27  1  0  0  0  0
 28 33  1  0  0  0  0
 29 28  2  0  0  0  0
 30 25  2  0  0  0  0
 30 29  1  0  0  0  0
 34 29  1  0  0  0  0
 34 35  1  0  0  0  0
 36 35  1  0  0  0  0
 37 38  1  0  0  0  0
 37 36  1  0  0  0  0
 38 39  1  0  0  0  0
 38 34  1  0  0  0  0
 40 41  1  0  0  0  0
 41 42  2  0  0  0  0
 41 43  1  0  0  0  0
 43 46  1  0  0  0  0
 44 40  1  0  0  0  0
 45 43  1  0  0  0  0
M  END
>  <minimizedAffinity>
-6.37451887

$$$$

 OpenBabel03252507343D

 46 49  0  0  1  0  0  0  0  0999 V2000
   43.1830   32.7340   38.7550 C   0  0  2  0  0  0  0  0  0  0  0  0
   43.6900   33.6460   37.5960 C   0  0  0  0  0  0  0  0  0  0  0  0
   45.1430   33.3940   37.3740 C   0  0  0  0  0  0  0  0  0  0  0  0
   45.5630   31.9630   37.3500 C   0  0  0  0  0  0  0  0  0  0  0  0
   44.8780   31.1260   38.3070 C   0  0  0  0  0  0  0  0  0  0  0  0
   43.3510   31.3540   38.3500 C   0  0  2  0  0  0  0  0  0  0  0  0
   43.8590   33.0170   39.5870 H   0  0  0  0  0  0  0  0  0  0  0  0
   43.5300   34.6730   37.9840 H   0  0  0  0  0  0  0  0  0  0  0  0
   43.0620   33.5500   36.7040 H   0  0  0  0  0  0  0  0  0  0  0  0
   45.6820   34.0580   38.0780 H   0  0  0  0  0  0  0  0  0  0  0  0
   45.3900   33.8200   36.3600 H   0  0  0  0  0  0  0  0  0  0  0  0
   46.0230   31.5740   36.4440 H   0  0  0  0  0  0  0  0  0  0  0  0
   46.5850   32.0680   37.8970 H   0  0  0  0  0  0  0  0  0  0  0  0
   45.0280   30.0410   38.0520 H   0  0  0  0  0  0  0  0  0  0  0  0
   45.1800   31.1860   39.3810 H   0  0  0  0  0  0  0  0  0  0  0  0
   43.0460   30.5900   39.0680 H   0  0  0  0  0  0  0  0  0  0  0  0
   41.8160   33.0510   39.1190 C   0  0  0  0  0  0  0  0  0  0  0  0
   41.5310   34.3690   39.4490 C   0  0  0  0  0  0  0  0  0  0  0  0
   40.2180   34.7230   39.8340 C   0  0  0  0  0  0  0  0  0  0  0  0
   39.2780   33.6970   39.8530 N   0  0  0  0  0  0  0  0  0  0  0  0
   39.6180   32.4470   39.5210 C   0  0  0  0  0  0  0  0  0  0  0  0
   40.8620   32.1300   39.1620 N   0  0  0  0  0  0  0  0  0  0  0  0
   42.0650   35.2960   39.4690 H   0  0  0  0  0  0  0  0  0  0  0  0
   39.8180   35.6580   40.1170 H   0  0  0  0  0  0  0  0  0  0  0  0
   38.5760   31.4160   39.5420 C   0  0  0  0  0  0  0  0  0  0  0  0
   37.5170   31.4600   38.6630 C   0  0  0  0  0  0  0  0  0  0  0  0
   36.4980   30.5400   38.6080 C   0  0  0  0  0  0  0  0  0  0  0  0
   36.6110   29.5180   39.5390 C   0  0  0  0  0  0  0  0  0  0  0  0
   37.6570   29.4530   40.4250 C   0  0  0  0  0  0  0  0  0  0  0  0
   38.6440   30.4060   40.4250 N   0  0  0  0  0  0  0  0  0  0  0  0
   37.5100   32.2910   37.9730 H   0  0  0  0  0  0  0  0  0  0  0  0
   35.6960   30.6390   37.8890 H   0  0  0  0  0  0  0  0  0  0  0  0
   35.8340   28.7590   39.5450 H   0  0  0  0  0  0  0  0  0  0  0  0
   37.7610   28.4000   41.3750 N   0  0  0  0  0  0  0  0  0  0  0  0
   36.7240   27.4660   41.7770 C   0  0  0  0  0  2  0  0  0  0  0  0
   36.8400   27.5800   43.3030 C   0  0  0  0  0  2  0  0  0  0  0  0
   38.3060   27.8370   43.5220 C   0  0  0  0  0  2  0  0  0  0  0  0
   38.9260   28.0230   42.1530 C   0  0  0  0  0  3  0  0  0  0  0  0
   39.2870   27.0020   41.8380 H   0  0  0  0  0  0  0  0  0  0  0  0
   42.8120   31.1580   37.0030 N   0  0  0  0  0  0  0  0  0  0  0  0
   42.6510   30.0000   36.2210 C   0  0  0  0  0  0  0  0  0  0  0  0
   41.7090   29.1510   36.4160 O   0  0  0  0  0  0  0  0  0  0  0  0
   43.6170   29.8450   35.1810 N   0  0  0  0  0  0  0  0  0  0  0  0
   42.5070   31.9970   36.3800 H   0  0  0  0  0  0  0  0  0  0  0  0
   43.8550   30.4820   34.3860 H   0  0  0  0  0  0  0  0  0  0  0  0
   44.3880   29.4020   34.6070 H   0  0  0  0  0  0  0  0  0  0  0  0
  1 17  1  0  0  0  0
  1  7  1  1  0  0  0
  2  8  1  0  0  0  0
  2  1  1  0  0  0  0
  3  2  1  0  0  0  0
  3 10  1  0  0  0  0
  4  3  1  0  0  0  0
  4 13  1  0  0  0  0
  4  5  1  0  0  0  0
  5  6  1  0  0  0  0
  5 15  1  0  0  0  0
  6  1  1  0  0  0  0
  6 16  1  1  0  0  0
  9  2  1  0  0  0  0
 11  3  1  0  0  0  0
 12  4  1  0  0  0  0
 14  5  1  0  0  0  0
 17 22  2  0  0  0  0
 17 18  1  0  0  0  0
 18 23  1  0  0  0  0
 18 19  2  0  0  0  0
 19 20  1  0  0  0  0
 19 24  1  0  0  0  0
 21 25  1  0  0  0  0
 21 20  2  0  0  0  0
 22 21  1  0  0  0  0
 25 30  1  0  0  0  0
 26 25  2  0  0  0  0
 27 26  1  0  0  0  0
 27 28  2  0  0  0  0
 28 33  1  0  0  0  0
 28 29  1  0  0  0  0
 29 34  1  0  0  0  0
 30 29  2  0  0  0  0
 31 26  1  0  0  0  0
 32 27  1  0  0  0  0
 34 35  1  0  0  0  0
 34 38  1  0  0  0  0
 35 36  1  0  0  0  0
 36 37  1  0  0  0  0
 38 37  1  0  0  0  0
 39 38  1  0  0  0  0
 40  6  1  0  0  0  0
 41 42  2  0  0  0  0
 41 40  1  0  0  0  0
 43 41  1  0  0  0  0
 44 40  1  0  0  0  0
 45 43  1  0  0  0  0
 46 43  1  0  0  0  0
M  END
>  <minimizedAffinity>
-6.36092997

$$$$

 OpenBabel03252507343D

 46 49  0  0  1  0  0  0  0  0999 V2000
   36.2280   27.2060   39.7030 C   0  0  2  0  0  0  0  0  0  0  0  0
   37.0680   25.9010   39.5400 C   0  0  0  0  0  0  0  0  0  0  0  0
   36.3150   24.9370   38.6880 C   0  0  0  0  0  0  0  0  0  0  0  0
   35.6860   25.5020   37.4580 C   0  0  0  0  0  0  0  0  0  0  0  0
   35.1250   26.8210   37.6310 C   0  0  0  0  0  0  0  0  0  0  0  0
   36.0510   27.7950   38.3920 C   0  0  2  0  0  0  0  0  0  0  0  0
   35.2780   26.8200   40.1260 H   0  0  0  0  0  0  0  0  0  0  0  0
   37.1540   25.5160   40.5770 H   0  0  0  0  0  0  0  0  0  0  0  0
   38.0870   26.1190   39.2040 H   0  0  0  0  0  0  0  0  0  0  0  0
   35.6500   24.3750   39.3720 H   0  0  0  0  0  0  0  0  0  0  0  0
   37.0610   24.1650   38.3430 H   0  0  0  0  0  0  0  0  0  0  0  0
   35.9970   25.1100   36.4910 H   0  0  0  0  0  0  0  0  0  0  0  0
   34.7010   24.8810   37.4610 H   0  0  0  0  0  0  0  0  0  0  0  0
   34.9280   27.2930   36.6280 H   0  0  0  0  0  0  0  0  0  0  0  0
   34.1480   26.9200   38.1630 H   0  0  0  0  0  0  0  0  0  0  0  0
   35.4700   28.7180   38.3430 H   0  0  0  0  0  0  0  0  0  0  0  0
   36.8400   28.1150   40.6510 C   0  0  0  0  0  0  0  0  0  0  0  0
   36.9740   27.6780   41.9620 C   0  0  0  0  0  0  0  0  0  0  0  0
   37.5430   28.5380   42.9290 C   0  0  0  0  0  0  0  0  0  0  0  0
   37.9430   29.7950   42.4840 N   0  0  0  0  0  0  0  0  0  0  0  0
   37.7870   30.1530   41.2050 C   0  0  0  0  0  0  0  0  0  0  0  0
   37.2470   29.3300   40.3070 N   0  0  0  0  0  0  0  0  0  0  0  0
   36.7790   26.7750   42.5020 H   0  0  0  0  0  0  0  0  0  0  0  0
   37.7220   28.3850   43.9580 H   0  0  0  0  0  0  0  0  0  0  0  0
   38.2470   31.4840   40.7970 C   0  0  0  0  0  0  0  0  0  0  0  0
   37.3720   32.4070   40.2700 C   0  0  0  0  0  0  0  0  0  0  0  0
   37.7110   33.6740   39.8640 C   0  0  0  0  0  0  0  0  0  0  0  0
   39.0550   33.9770   40.0250 C   0  0  0  0  0  0  0  0  0  0  0  0
   39.9470   33.0730   40.5480 C   0  0  0  0  0  0  0  0  0  0  0  0
   39.5400   31.8220   40.9360 N   0  0  0  0  0  0  0  0  0  0  0  0
   36.3440   32.0850   40.1810 H   0  0  0  0  0  0  0  0  0  0  0  0
   36.9680   34.3480   39.4580 H   0  0  0  0  0  0  0  0  0  0  0  0
   39.3850   34.9660   39.7210 H   0  0  0  0  0  0  0  0  0  0  0  0
   41.3230   33.3960   40.7090 N   0  0  0  0  0  0  0  0  0  0  0  0
   42.0460   34.5040   40.1120 C   0  0  0  0  0  2  0  0  0  0  0  0
   43.2620   33.7560   39.5490 C   0  0  0  0  0  2  0  0  0  0  0  0
   43.4730   32.6420   40.5380 C   0  0  0  0  0  2  0  0  0  0  0  0
   42.3090   32.6900   41.5050 C   0  0  0  0  0  3  0  0  0  0  0  0
   42.6480   33.3390   42.3630 H   0  0  0  0  0  0  0  0  0  0  0  0
   37.3360   27.8600   37.6940 N   0  0  0  0  0  0  0  0  0  0  0  0
   37.8590   28.7970   36.7860 C   0  0  0  0  0  0  0  0  0  0  0  0
   38.3180   29.9400   37.1470 O   0  0  0  0  0  0  0  0  0  0  0  0
   37.8470   28.3750   35.4220 N   0  0  0  0  0  0  0  0  0  0  0  0
   38.0710   27.0610   37.7720 H   0  0  0  0  0  0  0  0  0  0  0  0
   38.2840   27.5350   34.9750 H   0  0  0  0  0  0  0  0  0  0  0  0
   37.6300   28.3860   34.3850 H   0  0  0  0  0  0  0  0  0  0  0  0
  1  7  1  1  0  0  0
  1 17  1  0  0  0  0
  2  1  1  0  0  0  0
  2  8  1  0  0  0  0
  3 10  1  0  0  0  0
  3  2  1  0  0  0  0
  4 13  1  0  0  0  0
  4  5  1  0  0  0  0
  4  3  1  0  0  0  0
  5 15  1  0  0  0  0
  5  6  1  0  0  0  0
  6 16  1  1  0  0  0
  6  1  1  0  0  0  0
  9  2  1  0  0  0  0
 11  3  1  0  0  0  0
 12  4  1  0  0  0  0
 14  5  1  0  0  0  0
 17 18  1  0  0  0  0
 18 23  1  0  0  0  0
 18 19  2  0  0  0  0
 19 24  1  0  0  0  0
 20 19  1  0  0  0  0
 21 20  2  0  0  0  0
 22 17  2  0  0  0  0
 22 21  1  0  0  0  0
 25 30  1  0  0  0  0
 25 21  1  0  0  0  0
 26 25  2  0  0  0  0
 27 28  2  0  0  0  0
 27 26  1  0  0  0  0
 28 29  1  0  0  0  0
 29 34  1  0  0  0  0
 29 30  2  0  0  0  0
 31 26  1  0  0  0  0
 32 27  1  0  0  0  0
 33 28  1  0  0  0  0
 34 38  1  0  0  0  0
 35 34  1  0  0  0  0
 36 35  1  0  0  0  0
 36 37  1  0  0  0  0
 37 38  1  0  0  0  0
 38 39  1  0  0  0  0
 40 44  1  0  0  0  0
 40  6  1  0  0  0  0
 41 42  2  0  0  0  0
 41 40  1  0  0  0  0
 43 41  1  0  0  0  0
 45 43  1  0  0  0  0
 46 43  1  0  0  0  0
M  END
>  <minimizedAffinity>
-6.2782135

$$$$
