
 OpenBabel03252501053D

 37 40  0  0  1  0  0  0  0  0999 V2000
   48.8930   32.4880   38.4140 O   0  0  0  0  0  0  0  0  0  0  0  0
   48.0770   33.7770   38.5210 P   0  0  2  0  0  0  0  0  0  0  0  0
   48.9460   34.9310   37.6340 O   0  0  0  0  0  0  0  0  0  0  0  0
   48.3790   35.3830   36.9390 H   0  0  0  0  0  0  0  0  0  0  0  0
   47.7670   34.1910   40.0720 O   0  0  0  0  0  0  0  0  0  0  0  0
   48.2180   35.5510   42.0190 C   0  0  1  0  0  0  0  0  0  0  0  0
   49.4390   34.7550   41.8450 C   0  0  0  0  0  0  0  0  0  0  0  0
   48.5360   35.1280   40.6570 C   0  0  1  0  0  0  0  0  0  0  0  0
   48.3190   36.6160   42.3280 H   0  0  0  0  0  0  0  0  0  0  0  0
   49.4250   33.6390   42.0140 H   0  0  0  0  0  0  0  0  0  0  0  0
   50.4460   35.1600   41.9200 H   0  0  0  0  0  0  0  0  0  0  0  0
   49.0860   35.7910   39.9620 H   0  0  0  0  0  0  0  0  0  0  0  0
   46.2840   33.0500   44.1050 C   0  0  0  0  0  0  0  0  0  0  0  0
   47.3510   33.7090   43.5010 C   0  0  0  0  0  0  0  0  0  0  0  0
   47.0850   34.8330   42.6950 C   0  0  0  0  0  0  0  0  0  0  0  0
   45.7990   35.2420   42.5280 N   0  0  0  0  0  0  0  0  0  0  0  0
   44.7770   34.5800   43.1300 C   0  0  0  0  0  0  0  0  0  0  0  0
   45.0170   33.4900   43.9140 N   0  0  0  0  0  0  0  0  0  0  0  0
   46.5070   32.1940   44.7190 H   0  0  0  0  0  0  0  0  0  0  0  0
   48.3370   33.3500   43.6630 H   0  0  0  0  0  0  0  0  0  0  0  0
   43.7830   34.9760   42.9420 H   0  0  0  0  0  0  0  0  0  0  0  0
   46.6610   33.4580   37.6800 O   0  0  0  0  0  0  0  0  0  0  0  0
   45.5460   32.8510   38.2380 C   0  0  0  0  0  0  0  0  0  0  0  0
   45.4570   31.6370   38.9050 C   0  0  0  0  0  0  0  0  0  0  0  0
   44.2780   31.1790   39.3970 C   0  0  0  0  0  0  0  0  0  0  0  0
   43.1370   31.9190   39.2430 C   0  0  0  0  0  0  0  0  0  0  0  0
   43.2490   33.1350   38.5700 C   0  0  0  0  0  0  0  0  0  0  0  0
   44.4260   33.5850   38.0820 N   0  0  0  0  0  0  0  0  0  0  0  0
   46.4090   31.1250   38.9770 H   0  0  0  0  0  0  0  0  0  0  0  0
   44.3110   30.2220   39.9000 H   0  0  0  0  0  0  0  0  0  0  0  0
   42.2230   31.5150   39.6500 H   0  0  0  0  0  0  0  0  0  0  0  0
   42.0720   33.9190   38.3980 N   0  0  0  0  0  0  0  0  0  0  0  0
   40.7330   33.4290   38.2850 C   0  0  0  0  0  0  0  0  0  0  0  0
   39.8400   34.5510   38.8060 C   0  0  0  0  0  0  0  0  0  0  0  0
   40.8030   35.6230   39.2740 C   0  0  0  0  0  0  0  0  0  0  0  0
   41.9620   35.3580   38.3020 C   0  0  0  0  0  0  0  0  0  0  0  0
   42.8570   35.9070   38.5820 H   0  0  0  0  0  0  0  0  0  0  0  0
  2  1  2  1  0  0  0
  2  5  1  0  0  0  0
  3  2  1  0  0  0  0
  4  3  1  0  0  0  0
  5  8  1  0  0  0  0
  6  9  1  1  0  0  0
  6 15  1  0  0  0  0
  7 11  1  0  0  0  0
  7 10  1  0  0  0  0
  7  6  1  0  0  0  0
  8 12  1  6  0  0  0
  8  7  1  0  0  0  0
  8  6  1  0  0  0  0
 13 19  1  0  0  0  0
 14 20  1  0  0  0  0
 14 13  2  0  0  0  0
 15 14  1  0  0  0  0
 16 15  2  0  0  0  0
 16 17  1  0  0  0  0
 17 18  2  0  0  0  0
 18 13  1  0  0  0  0
 21 17  1  0  0  0  0
 22 23  1  0  0  0  0
 22  2  1  0  0  0  0
 23 24  1  0  0  0  0
 24 29  1  0  0  0  0
 24 25  2  0  0  0  0
 25 30  1  0  0  0  0
 26 25  1  0  0  0  0
 26 31  1  0  0  0  0
 27 26  2  0  0  0  0
 28 23  2  0  0  0  0
 28 27  1  0  0  0  0
 32 27  1  0  0  0  0
 33 32  1  0  0  0  0
 33 34  1  0  0  0  0
 34 35  1  0  0  0  0
 36 32  1  0  0  0  0
 36 37  1  0  0  0  0
 36 35  1  0  0  0  0
M  END
>  <minimizedAffinity>
-5.64041996

>  <minimizedRMSD>
2.10136223

$$$$
