
 OpenBabel03252508363D

 28 30  0  0  0  0  0  0  0  0999 V2000
   37.8780   28.0520   41.1350 C   0  0  0  0  0  0  0  0  0  0  0  0
   37.8180   29.1310   41.9800 C   0  0  0  0  0  0  0  0  0  0  0  0
   37.3240   28.9180   43.2340 C   0  0  0  0  0  0  0  0  0  0  0  0
   36.8890   27.6780   43.6790 C   0  0  0  0  0  0  0  0  0  0  0  0
   36.9660   26.6110   42.7970 C   0  0  0  0  0  0  0  0  0  0  0  0
   37.4590   26.8050   41.5300 C   0  0  0  0  0  0  0  0  0  0  0  0
   37.2820   29.7810   43.8940 H   0  0  0  0  0  0  0  0  0  0  0  0
   36.5170   27.6160   44.6860 H   0  0  0  0  0  0  0  0  0  0  0  0
   36.6220   25.6410   43.1530 H   0  0  0  0  0  0  0  0  0  0  0  0
   37.8790   32.5650   40.4210 C   0  0  0  0  0  0  0  0  0  0  0  0
   37.4080   31.3390   40.9020 C   0  0  0  0  0  0  0  0  0  0  0  0
   38.2830   30.4100   41.4730 C   0  0  0  0  0  0  0  0  0  0  0  0
   39.5920   30.7870   41.5220 N   0  0  0  0  0  0  0  0  0  0  0  0
   40.0220   31.9660   41.0550 C   0  0  0  0  0  0  0  0  0  0  0  0
   39.1720   32.8470   40.5100 N   0  0  0  0  0  0  0  0  0  0  0  0
   36.9490   33.4700   39.8520 N   0  0  0  0  0  0  0  0  0  0  0  0
   36.3520   31.1140   40.8280 H   0  0  0  0  0  0  0  0  0  0  0  0
   41.0840   32.1360   41.1560 H   0  0  0  0  0  0  0  0  0  0  0  0
   37.0980   34.5060   39.9420 H   0  0  0  0  0  0  0  0  0  0  0  0
   36.0810   33.2130   39.3200 H   0  0  0  0  0  0  0  0  0  0  0  0
   37.4980   25.6540   40.6970 N   0  0  0  0  0  0  0  0  0  0  0  0
   36.5760   25.2480   39.6710 C   0  0  0  0  0  2  0  0  0  0  0  0
   37.3560   24.1550   38.9300 C   0  0  0  0  0  2  0  0  0  0  0  0
   38.0220   23.4750   40.1210 C   0  0  0  0  0  2  0  0  0  0  0  0
   38.5800   24.7040   40.8280 C   0  0  0  0  0  3  0  0  0  0  0  0
   39.4450   25.0290   40.1790 H   0  0  0  0  0  0  0  0  0  0  0  0
   38.7910   28.2980   38.6900 N   0  0  0  0  0  0  0  0  0  0  0  0
   38.3860   28.1950   39.7940 C   0  0  0  0  0  0  0  0  0  0  0  0
  1  6  2  0  0  0  0
  1  2  1  0  0  0  0
  2  3  2  0  0  0  0
  3  4  1  0  0  0  0
  3  7  1  0  0  0  0
  4  8  1  0  0  0  0
  5  9  1  0  0  0  0
  5  4  2  0  0  0  0
  6  5  1  0  0  0  0
 10 15  2  0  0  0  0
 10 11  1  0  0  0  0
 11 12  2  0  0  0  0
 12 13  1  0  0  0  0
 12  2  1  0  0  0  0
 14 18  1  0  0  0  0
 14 13  2  0  0  0  0
 15 14  1  0  0  0  0
 16 19  1  0  0  0  0
 16 10  1  0  0  0  0
 17 11  1  0  0  0  0
 20 16  1  0  0  0  0
 21 25  1  0  0  0  0
 21  6  1  0  0  0  0
 22 21  1  0  0  0  0
 23 22  1  0  0  0  0
 23 24  1  0  0  0  0
 24 25  1  0  0  0  0
 26 25  1  0  0  0  0
 27 28  3  0  0  0  0
 28  1  1  0  0  0  0
M  END
>  <minimizedAffinity>
-5.24659395

$$$$

 OpenBabel03252508363D

 28 30  0  0  0  0  0  0  0  0999 V2000
   38.8000   28.2060   41.5960 C   0  0  0  0  0  0  0  0  0  0  0  0
   39.1590   27.6770   42.8100 C   0  0  0  0  0  0  0  0  0  0  0  0
   38.1550   27.3660   43.6800 C   0  0  0  0  0  0  0  0  0  0  0  0
   36.8120   27.5600   43.3910 C   0  0  0  0  0  0  0  0  0  0  0  0
   36.4880   28.0950   42.1530 C   0  0  0  0  0  0  0  0  0  0  0  0
   37.4840   28.4160   41.2640 C   0  0  0  0  0  0  0  0  0  0  0  0
   38.4530   26.9480   44.6380 H   0  0  0  0  0  0  0  0  0  0  0  0
   36.0980   27.2820   44.1450 H   0  0  0  0  0  0  0  0  0  0  0  0
   35.4320   28.2450   41.9340 H   0  0  0  0  0  0  0  0  0  0  0  0
   42.5210   26.0640   43.3780 C   0  0  0  0  0  0  0  0  0  0  0  0
   41.1540   26.2190   43.1250 C   0  0  0  0  0  0  0  0  0  0  0  0
   40.5760   27.4910   43.0710 C   0  0  0  0  0  0  0  0  0  0  0  0
   41.4280   28.5340   43.2780 N   0  0  0  0  0  0  0  0  0  0  0  0
   42.7340   28.3640   43.5190 C   0  0  0  0  0  0  0  0  0  0  0  0
   43.2750   27.1390   43.5680 N   0  0  0  0  0  0  0  0  0  0  0  0
   43.0560   24.7530   43.4210 N   0  0  0  0  0  0  0  0  0  0  0  0
   40.5430   25.3390   42.9690 H   0  0  0  0  0  0  0  0  0  0  0  0
   43.2930   29.2770   43.6650 H   0  0  0  0  0  0  0  0  0  0  0  0
   44.0420   24.5740   43.1070 H   0  0  0  0  0  0  0  0  0  0  0  0
   42.5540   23.8900   43.7490 H   0  0  0  0  0  0  0  0  0  0  0  0
   37.0560   28.9600   40.0230 N   0  0  0  0  0  0  0  0  0  0  0  0
   36.7960   28.2830   38.7790 C   0  0  0  0  0  2  0  0  0  0  0  0
   36.0420   29.3440   37.9700 C   0  0  0  0  0  2  0  0  0  0  0  0
   36.8300   30.5820   38.3880 C   0  0  0  0  0  2  0  0  0  0  0  0
   36.8230   30.3810   39.8980 C   0  0  0  0  0  3  0  0  0  0  0  0
   35.7610   30.6150   40.2060 H   0  0  0  0  0  0  0  0  0  0  0  0
   40.6170   28.8370   39.8150 N   0  0  0  0  0  0  0  0  0  0  0  0
   39.8010   28.5610   40.6230 C   0  0  0  0  0  0  0  0  0  0  0  0
  1  2  1  0  0  0  0
  2 12  1  0  0  0  0
  2  3  2  0  0  0  0
  3  7  1  0  0  0  0
  4  3  1  0  0  0  0
  4  8  1  0  0  0  0
  5  4  2  0  0  0  0
  6  1  2  0  0  0  0
  6  5  1  0  0  0  0
  9  5  1  0  0  0  0
 10 16  1  0  0  0  0
 10 15  1  0  0  0  0
 11 10  2  0  0  0  0
 12 11  1  0  0  0  0
 12 13  2  0  0  0  0
 13 14  1  0  0  0  0
 14 15  2  0  0  0  0
 14 18  1  0  0  0  0
 16 20  1  0  0  0  0
 17 11  1  0  0  0  0
 19 16  1  0  0  0  0
 21  6  1  0  0  0  0
 22 21  1  0  0  0  0
 23 24  1  0  0  0  0
 23 22  1  0  0  0  0
 24 25  1  0  0  0  0
 25 21  1  0  0  0  0
 25 26  1  0  0  0  0
 27 28  3  0  0  0  0
 28  1  1  0  0  0  0
M  END
>  <minimizedAffinity>
-5.09325695

$$$$

 OpenBabel03252508363D

 28 30  0  0  0  0  0  0  0  0999 V2000
   38.8380   28.3970   41.5810 C   0  0  0  0  0  0  0  0  0  0  0  0
   37.5880   28.9300   41.3910 C   0  0  0  0  0  0  0  0  0  0  0  0
   36.5860   28.4810   42.2000 C   0  0  0  0  0  0  0  0  0  0  0  0
   36.7760   27.5260   43.1870 C   0  0  0  0  0  0  0  0  0  0  0  0
   38.0530   27.0110   43.3500 C   0  0  0  0  0  0  0  0  0  0  0  0
   39.0760   27.4490   42.5460 C   0  0  0  0  0  0  0  0  0  0  0  0
   35.6000   28.9110   42.0390 H   0  0  0  0  0  0  0  0  0  0  0  0
   35.9200   27.2390   43.7710 H   0  0  0  0  0  0  0  0  0  0  0  0
   38.1950   26.2610   44.1270 H   0  0  0  0  0  0  0  0  0  0  0  0
   37.1560   32.2320   39.6190 C   0  0  0  0  0  0  0  0  0  0  0  0
   37.3040   31.2880   40.6400 C   0  0  0  0  0  0  0  0  0  0  0  0
   37.4340   29.9270   40.3460 C   0  0  0  0  0  0  0  0  0  0  0  0
   37.4050   29.6070   39.0220 N   0  0  0  0  0  0  0  0  0  0  0  0
   37.2630   30.5260   38.0590 C   0  0  0  0  0  0  0  0  0  0  0  0
   37.1400   31.8260   38.3550 N   0  0  0  0  0  0  0  0  0  0  0  0
   37.0300   33.5970   39.9720 N   0  0  0  0  0  0  0  0  0  0  0  0
   37.3180   31.6240   41.6700 H   0  0  0  0  0  0  0  0  0  0  0  0
   37.2570   30.1330   37.0520 H   0  0  0  0  0  0  0  0  0  0  0  0
   37.4080   34.3450   39.3380 H   0  0  0  0  0  0  0  0  0  0  0  0
   36.5760   33.9730   40.8420 H   0  0  0  0  0  0  0  0  0  0  0  0
   40.3480   26.8630   42.7870 N   0  0  0  0  0  0  0  0  0  0  0  0
   41.5150   27.4500   43.3920 C   0  0  0  0  0  2  0  0  0  0  0  0
   42.3960   26.2280   43.6780 C   0  0  0  0  0  2  0  0  0  0  0  0
   42.1190   25.4210   42.4140 C   0  0  0  0  0  2  0  0  0  0  0  0
   40.5970   25.4920   42.4030 C   0  0  0  0  0  3  0  0  0  0  0  0
   40.2800   24.8050   43.2420 H   0  0  0  0  0  0  0  0  0  0  0  0
   40.8710   29.1510   40.1090 N   0  0  0  0  0  0  0  0  0  0  0  0
   39.9500   28.8190   40.7680 C   0  0  0  0  0  0  0  0  0  0  0  0
  1  6  1  0  0  0  0
  2  1  2  0  0  0  0
  2  3  1  0  0  0  0
  3  4  2  0  0  0  0
  4  5  1  0  0  0  0
  4  8  1  0  0  0  0
  5  9  1  0  0  0  0
  6 21  1  0  0  0  0
  6  5  2  0  0  0  0
  7  3  1  0  0  0  0
 10 16  1  0  0  0  0
 10 11  1  0  0  0  0
 11 17  1  0  0  0  0
 12 11  2  0  0  0  0
 12  2  1  0  0  0  0
 13 12  1  0  0  0  0
 14 15  1  0  0  0  0
 14 13  2  0  0  0  0
 15 10  2  0  0  0  0
 16 20  1  0  0  0  0
 18 14  1  0  0  0  0
 19 16  1  0  0  0  0
 21 22  1  0  0  0  0
 22 23  1  0  0  0  0
 24 23  1  0  0  0  0
 25 24  1  0  0  0  0
 25 21  1  0  0  0  0
 25 26  1  0  0  0  0
 27 28  3  0  0  0  0
 28  1  1  0  0  0  0
M  END
>  <minimizedAffinity>
-5.0242033

$$$$

 OpenBabel03252508363D

 28 30  0  0  0  0  0  0  0  0999 V2000
   39.3240   30.1860   39.4960 C   0  0  0  0  0  0  0  0  0  0  0  0
   39.3330   30.8490   38.2960 C   0  0  0  0  0  0  0  0  0  0  0  0
   38.1250   31.1470   37.7350 C   0  0  0  0  0  0  0  0  0  0  0  0
   36.9130   30.8120   38.3180 C   0  0  0  0  0  0  0  0  0  0  0  0
   36.9430   30.1420   39.5330 C   0  0  0  0  0  0  0  0  0  0  0  0
   38.1480   29.8330   40.1140 C   0  0  0  0  0  0  0  0  0  0  0  0
   38.1460   31.6730   36.7830 H   0  0  0  0  0  0  0  0  0  0  0  0
   36.0160   31.0910   37.7950 H   0  0  0  0  0  0  0  0  0  0  0  0
   35.9880   29.8820   39.9850 H   0  0  0  0  0  0  0  0  0  0  0  0
   42.3060   32.8020   37.0400 C   0  0  0  0  0  0  0  0  0  0  0  0
   41.0580   32.5050   37.5970 C   0  0  0  0  0  0  0  0  0  0  0  0
   40.6240   31.1810   37.7190 C   0  0  0  0  0  0  0  0  0  0  0  0
   41.4920   30.2340   37.2640 N   0  0  0  0  0  0  0  0  0  0  0  0
   42.6820   30.5390   36.7330 C   0  0  0  0  0  0  0  0  0  0  0  0
   43.0850   31.8120   36.6230 N   0  0  0  0  0  0  0  0  0  0  0  0
   42.6970   34.1590   36.9400 N   0  0  0  0  0  0  0  0  0  0  0  0
   40.4260   33.3160   37.9370 H   0  0  0  0  0  0  0  0  0  0  0  0
   43.2680   29.6900   36.4130 H   0  0  0  0  0  0  0  0  0  0  0  0
   43.7100   34.4250   37.0230 H   0  0  0  0  0  0  0  0  0  0  0  0
   42.0570   34.9780   36.7840 H   0  0  0  0  0  0  0  0  0  0  0  0
   38.0800   29.1460   41.3560 N   0  0  0  0  0  0  0  0  0  0  0  0
   38.1090   29.6830   42.6900 C   0  0  0  0  0  2  0  0  0  0  0  0
   37.6450   28.4960   43.5420 C   0  0  0  0  0  2  0  0  0  0  0  0
   38.3660   27.3680   42.8100 C   0  0  0  0  0  2  0  0  0  0  0  0
   37.9640   27.7050   41.3790 C   0  0  0  0  0  3  0  0  0  0  0  0
   36.8730   27.4160   41.3210 H   0  0  0  0  0  0  0  0  0  0  0  0
   41.5760   29.5630   40.6830 N   0  0  0  0  0  0  0  0  0  0  0  0
   40.5570   29.8360   40.1530 C   0  0  0  0  0  0  0  0  0  0  0  0
  1  6  1  0  0  0  0
  1 28  1  0  0  0  0
  2  1  2  0  0  0  0
  3  2  1  0  0  0  0
  3  4  2  0  0  0  0
  4  5  1  0  0  0  0
  5  9  1  0  0  0  0
  5  6  2  0  0  0  0
  6 21  1  0  0  0  0
  7  3  1  0  0  0  0
  8  4  1  0  0  0  0
 10 11  1  0  0  0  0
 11 12  2  0  0  0  0
 11 17  1  0  0  0  0
 12  2  1  0  0  0  0
 13 12  1  0  0  0  0
 14 13  2  0  0  0  0
 15 14  1  0  0  0  0
 15 10  2  0  0  0  0
 16 19  1  0  0  0  0
 16 10  1  0  0  0  0
 18 14  1  0  0  0  0
 20 16  1  0  0  0  0
 21 25  1  0  0  0  0
 21 22  1  0  0  0  0
 22 23  1  0  0  0  0
 24 23  1  0  0  0  0
 25 24  1  0  0  0  0
 26 25  1  0  0  0  0
 28 27  3  0  0  0  0
M  END
>  <minimizedAffinity>
-5.02233553

$$$$

 OpenBabel03252508363D

 28 30  0  0  0  0  0  0  0  0999 V2000
   37.1370   29.4200   39.6690 C   0  0  0  0  0  0  0  0  0  0  0  0
   36.7260   30.3060   38.7060 C   0  0  0  0  0  0  0  0  0  0  0  0
   36.9200   31.6340   38.9530 C   0  0  0  0  0  0  0  0  0  0  0  0
   37.5030   32.1140   40.1160 C   0  0  0  0  0  0  0  0  0  0  0  0
   37.9060   31.1880   41.0660 C   0  0  0  0  0  0  0  0  0  0  0  0
   37.7200   29.8470   40.8370 C   0  0  0  0  0  0  0  0  0  0  0  0
   36.5890   32.3260   38.1820 H   0  0  0  0  0  0  0  0  0  0  0  0
   37.6110   33.1790   40.2140 H   0  0  0  0  0  0  0  0  0  0  0  0
   38.3640   31.5710   41.9770 H   0  0  0  0  0  0  0  0  0  0  0  0
   36.2210   29.1420   35.1540 C   0  0  0  0  0  0  0  0  0  0  0  0
   36.8240   29.6710   36.2990 C   0  0  0  0  0  0  0  0  0  0  0  0
   36.1200   29.7620   37.5040 C   0  0  0  0  0  0  0  0  0  0  0  0
   34.8360   29.3060   37.4690 N   0  0  0  0  0  0  0  0  0  0  0  0
   34.2770   28.8030   36.3620 C   0  0  0  0  0  0  0  0  0  0  0  0
   34.9640   28.7220   35.2150 N   0  0  0  0  0  0  0  0  0  0  0  0
   36.9800   29.0730   33.9600 N   0  0  0  0  0  0  0  0  0  0  0  0
   37.8510   30.0110   36.2450 H   0  0  0  0  0  0  0  0  0  0  0  0
   33.2520   28.4790   36.4760 H   0  0  0  0  0  0  0  0  0  0  0  0
   36.8160   28.2940   33.2730 H   0  0  0  0  0  0  0  0  0  0  0  0
   37.7300   29.7450   33.6630 H   0  0  0  0  0  0  0  0  0  0  0  0
   38.1640   28.9740   41.8670 N   0  0  0  0  0  0  0  0  0  0  0  0
   37.4750   28.5590   43.0600 C   0  0  0  0  0  2  0  0  0  0  0  0
   38.3200   27.3730   43.5410 C   0  0  0  0  0  2  0  0  0  0  0  0
   39.7110   27.9140   43.2230 C   0  0  0  0  0  2  0  0  0  0  0  0
   39.4760   28.3720   41.7890 C   0  0  0  0  0  3  0  0  0  0  0  0
   39.4130   27.4120   41.1970 H   0  0  0  0  0  0  0  0  0  0  0  0
   36.8420   26.8360   39.3450 N   0  0  0  0  0  0  0  0  0  0  0  0
   36.9670   28.0020   39.4840 C   0  0  0  0  0  0  0  0  0  0  0  0
  1  6  1  0  0  0  0
  2  3  1  0  0  0  0
  2  1  2  0  0  0  0
  3  4  2  0  0  0  0
  4  8  1  0  0  0  0
  4  5  1  0  0  0  0
  5  9  1  0  0  0  0
  6  5  2  0  0  0  0
  6 21  1  0  0  0  0
  7  3  1  0  0  0  0
 10 15  2  0  0  0  0
 10 11  1  0  0  0  0
 11 12  2  0  0  0  0
 12  2  1  0  0  0  0
 13 12  1  0  0  0  0
 14 18  1  0  0  0  0
 14 13  2  0  0  0  0
 15 14  1  0  0  0  0
 16 10  1  0  0  0  0
 17 11  1  0  0  0  0
 19 16  1  0  0  0  0
 20 16  1  0  0  0  0
 21 22  1  0  0  0  0
 22 23  1  0  0  0  0
 24 23  1  0  0  0  0
 25 21  1  0  0  0  0
 25 24  1  0  0  0  0
 26 25  1  0  0  0  0
 27 28  3  0  0  0  0
 28  1  1  0  0  0  0
M  END
>  <minimizedAffinity>
-5.01390934

$$$$

 OpenBabel03252508363D

 28 30  0  0  0  0  0  0  0  0999 V2000
   37.9620   29.0020   40.3770 C   0  0  0  0  0  0  0  0  0  0  0  0
   37.7220   30.3300   40.1300 C   0  0  0  0  0  0  0  0  0  0  0  0
   36.4290   30.7590   40.2090 C   0  0  0  0  0  0  0  0  0  0  0  0
   35.3690   29.9220   40.5220 C   0  0  0  0  0  0  0  0  0  0  0  0
   35.6500   28.5860   40.7650 C   0  0  0  0  0  0  0  0  0  0  0  0
   36.9440   28.1340   40.6910 C   0  0  0  0  0  0  0  0  0  0  0  0
   36.2530   31.8130   40.0110 H   0  0  0  0  0  0  0  0  0  0  0  0
   34.3870   30.3580   40.5590 H   0  0  0  0  0  0  0  0  0  0  0  0
   34.8130   27.9340   41.0100 H   0  0  0  0  0  0  0  0  0  0  0  0
   40.3010   32.2880   38.1950 C   0  0  0  0  0  0  0  0  0  0  0  0
   39.2000   31.4760   38.4840 C   0  0  0  0  0  0  0  0  0  0  0  0
   38.8610   31.1710   39.8060 C   0  0  0  0  0  0  0  0  0  0  0  0
   39.6680   31.7160   40.7590 N   0  0  0  0  0  0  0  0  0  0  0  0
   40.7180   32.4910   40.4620 C   0  0  0  0  0  0  0  0  0  0  0  0
   41.0300   32.7750   39.1910 N   0  0  0  0  0  0  0  0  0  0  0  0
   40.5990   32.5660   36.8380 N   0  0  0  0  0  0  0  0  0  0  0  0
   38.6060   31.0820   37.6680 H   0  0  0  0  0  0  0  0  0  0  0  0
   41.2710   32.8550   41.3150 H   0  0  0  0  0  0  0  0  0  0  0  0
   41.0260   33.4870   36.5690 H   0  0  0  0  0  0  0  0  0  0  0  0
   40.4340   31.9230   36.0240 H   0  0  0  0  0  0  0  0  0  0  0  0
   37.1360   26.7510   40.9550 N   0  0  0  0  0  0  0  0  0  0  0  0
   37.2750   25.6620   40.0240 C   0  0  0  0  0  2  0  0  0  0  0  0
   37.8010   24.5270   40.9100 C   0  0  0  0  0  2  0  0  0  0  0  0
   36.9700   24.7840   42.1630 C   0  0  0  0  0  2  0  0  0  0  0  0
   37.2140   26.2800   42.3200 C   0  0  0  0  0  3  0  0  0  0  0  0
   38.2820   26.3520   42.6800 H   0  0  0  0  0  0  0  0  0  0  0  0
   40.3910   28.0250   40.2470 N   0  0  0  0  0  0  0  0  0  0  0  0
   39.3000   28.4720   40.3130 C   0  0  0  0  0  0  0  0  0  0  0  0
  1  6  1  0  0  0  0
  2  3  1  0  0  0  0
  2  1  2  0  0  0  0
  3  4  2  0  0  0  0
  4  8  1  0  0  0  0
  4  5  1  0  0  0  0
  5  9  1  0  0  0  0
  6  5  2  0  0  0  0
  6 21  1  0  0  0  0
  7  3  1  0  0  0  0
 10 11  2  0  0  0  0
 10 15  1  0  0  0  0
 11 12  1  0  0  0  0
 12  2  1  0  0  0  0
 12 13  2  0  0  0  0
 14 13  1  0  0  0  0
 14 18  1  0  0  0  0
 15 14  2  0  0  0  0
 16 10  1  0  0  0  0
 17 11  1  0  0  0  0
 19 16  1  0  0  0  0
 20 16  1  0  0  0  0
 21 25  1  0  0  0  0
 22 23  1  0  0  0  0
 22 21  1  0  0  0  0
 23 24  1  0  0  0  0
 24 25  1  0  0  0  0
 25 26  1  0  0  0  0
 27 28  3  0  0  0  0
 28  1  1  0  0  0  0
M  END
>  <minimizedAffinity>
-4.98765135

$$$$

 OpenBabel03252508363D

 28 30  0  0  0  0  0  0  0  0999 V2000
   38.8200   30.5690   40.3820 C   0  0  0  0  0  0  0  0  0  0  0  0
   38.7180   31.5590   39.4380 C   0  0  0  0  0  0  0  0  0  0  0  0
   37.5570   31.6270   38.7230 C   0  0  0  0  0  0  0  0  0  0  0  0
   36.4980   30.7520   38.9090 C   0  0  0  0  0  0  0  0  0  0  0  0
   36.6380   29.7640   39.8730 C   0  0  0  0  0  0  0  0  0  0  0  0
   37.7970   29.6790   40.6030 C   0  0  0  0  0  0  0  0  0  0  0  0
   37.4890   32.4170   37.9780 H   0  0  0  0  0  0  0  0  0  0  0  0
   35.6270   30.8900   38.2950 H   0  0  0  0  0  0  0  0  0  0  0  0
   35.8020   29.0800   40.0140 H   0  0  0  0  0  0  0  0  0  0  0  0
   41.7050   33.3370   37.9720 C   0  0  0  0  0  0  0  0  0  0  0  0
   40.6190   32.4660   38.1070 C   0  0  0  0  0  0  0  0  0  0  0  0
   39.8500   32.4540   39.2760 C   0  0  0  0  0  0  0  0  0  0  0  0
   40.2360   33.3350   40.2420 N   0  0  0  0  0  0  0  0  0  0  0  0
   41.2800   34.1600   40.0930 C   0  0  0  0  0  0  0  0  0  0  0  0
   42.0060   34.1610   38.9680 N   0  0  0  0  0  0  0  0  0  0  0  0
   42.4490   33.3080   36.7680 N   0  0  0  0  0  0  0  0  0  0  0  0
   40.3750   31.7970   37.2920 H   0  0  0  0  0  0  0  0  0  0  0  0
   41.4740   34.8050   40.9380 H   0  0  0  0  0  0  0  0  0  0  0  0
   42.8940   34.1870   36.4000 H   0  0  0  0  0  0  0  0  0  0  0  0
   42.6190   32.4660   36.1650 H   0  0  0  0  0  0  0  0  0  0  0  0
   37.8490   28.6350   41.5660 N   0  0  0  0  0  0  0  0  0  0  0  0
   38.3390   27.2900   41.4180 C   0  0  0  0  0  2  0  0  0  0  0  0
   38.4500   26.8100   42.8700 C   0  0  0  0  0  2  0  0  0  0  0  0
   37.1870   27.4490   43.4390 C   0  0  0  0  0  2  0  0  0  0  0  0
   37.3650   28.8660   42.9090 C   0  0  0  0  0  3  0  0  0  0  0  0
   38.1980   29.2970   43.5380 H   0  0  0  0  0  0  0  0  0  0  0  0
   40.9970   30.3060   41.8170 N   0  0  0  0  0  0  0  0  0  0  0  0
   40.0120   30.4310   41.1770 C   0  0  0  0  0  0  0  0  0  0  0  0
  1  6  1  0  0  0  0
  1 28  1  0  0  0  0
  2  1  2  0  0  0  0
  3  4  2  0  0  0  0
  3  2  1  0  0  0  0
  4  5  1  0  0  0  0
  5  9  1  0  0  0  0
  5  6  2  0  0  0  0
  6 21  1  0  0  0  0
  7  3  1  0  0  0  0
  8  4  1  0  0  0  0
 10 11  2  0  0  0  0
 10 15  1  0  0  0  0
 11 12  1  0  0  0  0
 12  2  1  0  0  0  0
 12 13  2  0  0  0  0
 14 13  1  0  0  0  0
 14 18  1  0  0  0  0
 15 14  2  0  0  0  0
 16 10  1  0  0  0  0
 17 11  1  0  0  0  0
 19 16  1  0  0  0  0
 20 16  1  0  0  0  0
 21 25  1  0  0  0  0
 22 21  1  0  0  0  0
 22 23  1  0  0  0  0
 23 24  1  0  0  0  0
 25 24  1  0  0  0  0
 25 26  1  0  0  0  0
 28 27  3  0  0  0  0
M  END
>  <minimizedAffinity>
-4.98645735

$$$$

 OpenBabel03252508363D

 28 30  0  0  0  0  0  0  0  0999 V2000
   37.8950   28.0990   41.0910 C   0  0  0  0  0  0  0  0  0  0  0  0
   37.7300   29.1710   41.9310 C   0  0  0  0  0  0  0  0  0  0  0  0
   37.3250   28.9100   43.2070 C   0  0  0  0  0  0  0  0  0  0  0  0
   37.0770   27.6300   43.6800 C   0  0  0  0  0  0  0  0  0  0  0  0
   37.2550   26.5710   42.8010 C   0  0  0  0  0  0  0  0  0  0  0  0
   37.6620   26.8120   41.5120 C   0  0  0  0  0  0  0  0  0  0  0  0
   37.1970   29.7680   43.8630 H   0  0  0  0  0  0  0  0  0  0  0  0
   36.7600   27.5310   44.7020 H   0  0  0  0  0  0  0  0  0  0  0  0
   37.0580   25.5690   43.1780 H   0  0  0  0  0  0  0  0  0  0  0  0
   39.4740   32.3980   41.0530 C   0  0  0  0  0  0  0  0  0  0  0  0
   39.2360   31.1240   41.5770 C   0  0  0  0  0  0  0  0  0  0  0  0
   38.0000   30.4940   41.3960 C   0  0  0  0  0  0  0  0  0  0  0  0
   37.0770   31.2030   40.6880 N   0  0  0  0  0  0  0  0  0  0  0  0
   37.3250   32.4230   40.1940 C   0  0  0  0  0  0  0  0  0  0  0  0
   38.5140   33.0140   40.3750 N   0  0  0  0  0  0  0  0  0  0  0  0
   40.7430   32.9900   41.2650 N   0  0  0  0  0  0  0  0  0  0  0  0
   40.0230   30.6240   42.1290 H   0  0  0  0  0  0  0  0  0  0  0  0
   36.5050   32.8700   39.6530 H   0  0  0  0  0  0  0  0  0  0  0  0
   41.1540   33.6340   40.5430 H   0  0  0  0  0  0  0  0  0  0  0  0
   41.3570   32.8540   42.1060 H   0  0  0  0  0  0  0  0  0  0  0  0
   37.8170   25.6670   40.6860 N   0  0  0  0  0  0  0  0  0  0  0  0
   36.8620   25.0540   39.8010 C   0  0  0  0  0  2  0  0  0  0  0  0
   37.7360   24.1150   38.9610 C   0  0  0  0  0  2  0  0  0  0  0  0
   38.6820   23.6180   40.0490 C   0  0  0  0  0  2  0  0  0  0  0  0
   39.0740   24.9540   40.6660 C   0  0  0  0  0  3  0  0  0  0  0  0
   39.7590   25.4250   39.9000 H   0  0  0  0  0  0  0  0  0  0  0  0
   38.6520   28.4440   38.6050 N   0  0  0  0  0  0  0  0  0  0  0  0
   38.3210   28.2910   39.7280 C   0  0  0  0  0  0  0  0  0  0  0  0
  1  6  2  0  0  0  0
  1  2  1  0  0  0  0
  2  3  2  0  0  0  0
  3  4  1  0  0  0  0
  3  7  1  0  0  0  0
  4  8  1  0  0  0  0
  5  9  1  0  0  0  0
  5  4  2  0  0  0  0
  6  5  1  0  0  0  0
 10 16  1  0  0  0  0
 10 11  1  0  0  0  0
 11 17  1  0  0  0  0
 12 11  2  0  0  0  0
 12  2  1  0  0  0  0
 13 12  1  0  0  0  0
 14 15  1  0  0  0  0
 14 13  2  0  0  0  0
 15 10  2  0  0  0  0
 16 20  1  0  0  0  0
 18 14  1  0  0  0  0
 19 16  1  0  0  0  0
 21  6  1  0  0  0  0
 22 21  1  0  0  0  0
 23 22  1  0  0  0  0
 23 24  1  0  0  0  0
 24 25  1  0  0  0  0
 25 21  1  0  0  0  0
 26 25  1  0  0  0  0
 27 28  3  0  0  0  0
 28  1  1  0  0  0  0
M  END
>  <minimizedAffinity>
-4.93859577

$$$$

 OpenBabel03252508363D

 28 30  0  0  0  0  0  0  0  0999 V2000
   37.7540   28.8260   39.8430 C   0  0  0  0  0  0  0  0  0  0  0  0
   37.3750   29.9730   39.1940 C   0  0  0  0  0  0  0  0  0  0  0  0
   36.1920   29.9460   38.5130 C   0  0  0  0  0  0  0  0  0  0  0  0
   35.3760   28.8270   38.4520 C   0  0  0  0  0  0  0  0  0  0  0  0
   35.7920   27.6860   39.1210 C   0  0  0  0  0  0  0  0  0  0  0  0
   36.9790   27.6920   39.8120 C   0  0  0  0  0  0  0  0  0  0  0  0
   35.9030   30.8620   38.0030 H   0  0  0  0  0  0  0  0  0  0  0  0
   34.4640   28.9090   37.8890 H   0  0  0  0  0  0  0  0  0  0  0  0
   35.1460   26.8110   39.0690 H   0  0  0  0  0  0  0  0  0  0  0  0
   38.9630   33.1980   40.3380 C   0  0  0  0  0  0  0  0  0  0  0  0
   38.0990   32.1000   40.2690 C   0  0  0  0  0  0  0  0  0  0  0  0
   38.2590   31.1220   39.2840 C   0  0  0  0  0  0  0  0  0  0  0  0
   39.2960   31.3210   38.4210 N   0  0  0  0  0  0  0  0  0  0  0  0
   40.1120   32.3790   38.5030 C   0  0  0  0  0  0  0  0  0  0  0  0
   39.9460   33.3080   39.4530 N   0  0  0  0  0  0  0  0  0  0  0  0
   38.7560   34.1590   41.3570 N   0  0  0  0  0  0  0  0  0  0  0  0
   37.2990   32.0130   40.9940 H   0  0  0  0  0  0  0  0  0  0  0  0
   40.8910   32.4120   37.7560 H   0  0  0  0  0  0  0  0  0  0  0  0
   39.5730   34.6730   41.7730 H   0  0  0  0  0  0  0  0  0  0  0  0
   37.8300   34.4360   41.7680 H   0  0  0  0  0  0  0  0  0  0  0  0
   37.3230   26.4780   40.4650 N   0  0  0  0  0  0  0  0  0  0  0  0
   38.0020   25.3260   39.9340 C   0  0  0  0  0  2  0  0  0  0  0  0
   38.3750   24.5430   41.1990 C   0  0  0  0  0  2  0  0  0  0  0  0
   37.1090   24.7750   42.0170 C   0  0  0  0  0  2  0  0  0  0  0  0
   36.9840   26.2850   41.8570 C   0  0  0  0  0  3  0  0  0  0  0  0
   37.8100   26.7030   42.5050 H   0  0  0  0  0  0  0  0  0  0  0  0
   39.9930   28.7420   41.2040 N   0  0  0  0  0  0  0  0  0  0  0  0
   38.9890   28.7730   40.5840 C   0  0  0  0  0  0  0  0  0  0  0  0
  1 28  1  0  0  0  0
  2 12  1  0  0  0  0
  2  1  2  0  0  0  0
  3  2  1  0  0  0  0
  4  3  2  0  0  0  0
  4  5  1  0  0  0  0
  5  6  2  0  0  0  0
  6  1  1  0  0  0  0
  6 21  1  0  0  0  0
  7  3  1  0  0  0  0
  8  4  1  0  0  0  0
  9  5  1  0  0  0  0
 10 16  1  0  0  0  0
 11 10  1  0  0  0  0
 11 17  1  0  0  0  0
 12 11  2  0  0  0  0
 13 14  2  0  0  0  0
 13 12  1  0  0  0  0
 14 15  1  0  0  0  0
 15 10  2  0  0  0  0
 16 20  1  0  0  0  0
 16 19  1  0  0  0  0
 18 14  1  0  0  0  0
 21 25  1  0  0  0  0
 22 21  1  0  0  0  0
 22 23  1  0  0  0  0
 23 24  1  0  0  0  0
 25 24  1  0  0  0  0
 25 26  1  0  0  0  0
 28 27  3  0  0  0  0
M  END
>  <minimizedAffinity>
-4.84280729

$$$$
