
 OpenBabel03252507373D

 35 39  0  0  0  0  0  0  0  0999 V2000
   45.1400   34.7430   43.5080 C   0  0  0  0  0  0  0  0  0  0  0  0
   45.8520   33.6550   44.0490 C   0  0  0  0  0  0  0  0  0  0  0  0
   45.8570   33.4890   45.4170 C   0  0  0  0  0  0  0  0  0  0  0  0
   45.1880   34.3600   46.1720 N   0  0  0  0  0  0  0  0  0  0  0  0
   44.5010   35.4070   45.6460 C   0  0  0  0  0  0  0  0  0  0  0  0
   44.4840   35.5860   44.3300 N   0  0  0  0  0  0  0  0  0  0  0  0
   46.3910   32.9560   43.4340 H   0  0  0  0  0  0  0  0  0  0  0  0
   43.9680   36.1040   46.2580 H   0  0  0  0  0  0  0  0  0  0  0  0
   46.9550   32.6280   47.4210 C   0  0  0  0  0  0  0  0  0  0  0  0
   46.5670   32.4030   46.0940 C   0  0  0  0  0  0  0  0  0  0  0  0
   46.8740   31.1980   45.5320 C   0  0  0  0  0  0  0  0  0  0  0  0
   47.5430   30.2060   46.2080 C   0  0  0  0  0  0  0  0  0  0  0  0
   47.9450   28.9660   45.8590 N   0  0  0  0  0  0  0  0  0  0  0  0
   48.5810   28.4140   46.9660 C   0  0  0  0  0  0  0  0  0  0  0  0
   48.5520   29.3210   47.9510 N   0  0  0  0  0  0  0  0  0  0  0  0
   47.9260   30.4170   47.5080 C   0  0  0  0  0  0  0  0  0  0  0  0
   47.6270   31.6340   48.1100 C   0  0  0  0  0  0  0  0  0  0  0  0
   46.7230   33.5820   47.8890 H   0  0  0  0  0  0  0  0  0  0  0  0
   46.5640   31.0370   44.4890 H   0  0  0  0  0  0  0  0  0  0  0  0
   47.8070   28.4980   44.9320 H   0  0  0  0  0  0  0  0  0  0  0  0
   49.0040   27.4200   46.9730 H   0  0  0  0  0  0  0  0  0  0  0  0
   47.9130   31.8300   49.1360 H   0  0  0  0  0  0  0  0  0  0  0  0
   45.1300   34.9160   42.1290 O   0  0  0  0  0  0  0  0  0  0  0  0
   44.0380   34.4920   41.3750 C   0  0  0  0  0  0  0  0  0  0  0  0
   44.7130   33.9170   40.3410 C   0  0  0  0  0  0  0  0  0  0  0  0
   43.2330   33.3160   39.2790 S   0  0  0  0  0  0  0  0  0  0  0  0
   42.0270   34.0250   40.5550 C   0  0  0  0  0  0  0  0  0  0  0  0
   42.7160   34.4440   41.2960 N   0  0  0  0  0  0  0  0  0  0  0  0
   45.6660   33.6040   39.7760 H   0  0  0  0  0  0  0  0  0  0  0  0
   40.7000   33.7590   40.1070 N   0  0  0  0  0  0  0  0  0  0  0  0
   39.3820   34.3320   40.1550 C   0  0  0  0  0  2  0  0  0  0  0  0
   39.1460   34.5400   38.6470 C   0  0  0  0  0  2  0  0  0  0  0  0
   39.7950   33.2760   38.0720 C   0  0  0  0  0  2  0  0  0  0  0  0
   40.3720   32.5670   39.3020 C   0  0  0  0  0  3  0  0  0  0  0  0
   41.2860   32.0370   39.0370 H   0  0  0  0  0  0  0  0  0  0  0  0
  1  2  2  0  0  0  0
  1  6  1  0  0  0  0
  2  3  1  0  0  0  0
  3 10  1  0  0  0  0
  3  4  2  0  0  0  0
  5  4  1  0  0  0  0
  5  8  1  0  0  0  0
  6  5  2  0  0  0  0
  7  2  1  0  0  0  0
  9 18  1  0  0  0  0
  9 17  1  0  0  0  0
 10  9  2  0  0  0  0
 11 10  1  0  0  0  0
 11 12  2  0  0  0  0
 12 16  1  0  0  0  0
 13 12  1  0  0  0  0
 13 14  1  0  0  0  0
 14 21  1  0  0  0  0
 14 15  2  0  0  0  0
 16 15  1  0  0  0  0
 16 17  2  0  0  0  0
 17 22  1  0  0  0  0
 19 11  1  0  0  0  0
 20 13  1  0  0  0  0
 23  1  1  0  0  0  0
 24 23  1  0  0  0  0
 25 24  2  0  0  0  0
 26 25  1  0  0  0  0
 26 27  1  0  0  0  0
 27 28  2  0  0  0  0
 28 24  1  0  0  0  0
 29 25  1  0  0  0  0
 30 31  1  0  0  0  0
 30 27  1  0  0  0  0
 32 31  1  0  0  0  0
 33 32  1  0  0  0  0
 33 34  1  0  0  0  0
 34 30  1  0  0  0  0
 35 34  1  0  0  0  0
M  END
>  <minimizedAffinity>
-6.31962633

>  <minimizedRMSD>
1.01710093

$$$$
