
 OpenBabel03242513353D

 18 19  0  0  0  0  0  0  0  0999 V2000
   36.6140   29.1360   42.0400 C   0  0  0  0  0  0  0  0  0  0  0  0
   37.6390   28.2110   42.2220 C   0  0  0  0  0  0  0  0  0  0  0  0
   38.9060   28.5500   41.7450 C   0  0  0  0  0  0  0  0  0  0  0  0
   39.0860   29.7420   41.1360 N   0  0  0  0  0  0  0  0  0  0  0  0
   38.0490   30.6220   40.9780 C   0  0  0  0  0  0  0  0  0  0  0  0
   36.8210   30.3160   41.4300 N   0  0  0  0  0  0  0  0  0  0  0  0
   35.6180   28.8800   42.4100 H   0  0  0  0  0  0  0  0  0  0  0  0
   39.6800   27.8340   41.8900 H   0  0  0  0  0  0  0  0  0  0  0  0
   38.2720   31.8720   40.3310 N   0  0  0  0  0  0  0  0  0  0  0  0
   37.6220   32.3450   39.1240 C   0  0  0  0  0  2  0  0  0  0  0  0
   37.3220   33.7800   39.4920 C   0  0  0  0  0  2  0  0  0  0  0  0
   38.5280   34.1610   40.3220 C   0  0  0  0  0  2  0  0  0  0  0  0
   39.1960   32.8990   40.7710 C   0  0  0  0  0  3  0  0  0  0  0  0
   39.4010   32.8600   41.8580 H   0  0  0  0  0  0  0  0  0  0  0  0
   37.3080   26.9310   42.9100 C   0  0  0  0  0  0  0  0  0  0  0  0
   37.0460   26.0160   41.8960 F   0  0  0  0  0  0  0  0  0  0  0  0
   36.2000   27.1130   43.6790 F   0  0  0  0  0  0  0  0  0  0  0  0
   38.4170   26.5550   43.6720 F   0  0  0  0  0  0  0  0  0  0  0  0
  1  2  1  0  0  0  0
  1  7  1  0  0  0  0
  2 15  1  0  0  0  0
  3  8  1  0  0  0  0
  3  2  2  0  0  0  0
  4  3  1  0  0  0  0
  5  4  2  0  0  0  0
  5  6  1  0  0  0  0
  6  1  2  0  0  0  0
  9 13  1  0  0  0  0
  9  5  1  0  0  0  0
 10 11  1  0  0  0  0
 10  9  1  0  0  0  0
 11 12  1  0  0  0  0
 12 13  1  0  0  0  0
 13 14  1  0  0  0  0
 15 18  1  0  0  0  0
 15 17  1  0  0  0  0
 16 15  1  0  0  0  0
M  END
>  <minimizedAffinity>
-4.70660305

$$$$

 OpenBabel03242513353D

 18 19  0  0  0  0  0  0  0  0999 V2000
   38.4260   26.8840   40.8520 C   0  0  0  0  0  0  0  0  0  0  0  0
   37.6290   26.3290   41.8500 C   0  0  0  0  0  0  0  0  0  0  0  0
   36.8650   27.2030   42.6250 C   0  0  0  0  0  0  0  0  0  0  0  0
   36.9280   28.5300   42.3820 N   0  0  0  0  0  0  0  0  0  0  0  0
   37.7270   29.0330   41.3900 C   0  0  0  0  0  0  0  0  0  0  0  0
   38.4700   28.2100   40.6310 N   0  0  0  0  0  0  0  0  0  0  0  0
   39.0280   26.2080   40.2390 H   0  0  0  0  0  0  0  0  0  0  0  0
   36.2610   26.7660   43.3840 H   0  0  0  0  0  0  0  0  0  0  0  0
   37.7710   30.4380   41.1590 N   0  0  0  0  0  0  0  0  0  0  0  0
   38.9420   31.2890   41.2420 C   0  0  0  0  0  2  0  0  0  0  0  0
   38.7700   32.1510   40.0130 C   0  0  0  0  0  2  0  0  0  0  0  0
   37.2700   32.3360   39.9530 C   0  0  0  0  0  2  0  0  0  0  0  0
   36.6400   31.2710   40.7960 C   0  0  0  0  0  3  0  0  0  0  0  0
   35.8350   30.7090   40.2850 H   0  0  0  0  0  0  0  0  0  0  0  0
   37.6510   24.8480   42.0150 C   0  0  0  0  0  0  0  0  0  0  0  0
   36.4150   24.5130   42.5590 F   0  0  0  0  0  0  0  0  0  0  0  0
   38.6520   24.5100   42.8720 F   0  0  0  0  0  0  0  0  0  0  0  0
   37.8300   24.2800   40.7510 F   0  0  0  0  0  0  0  0  0  0  0  0
  1  2  1  0  0  0  0
  2 15  1  0  0  0  0
  2  3  2  0  0  0  0
  3  8  1  0  0  0  0
  4  3  1  0  0  0  0
  5  4  2  0  0  0  0
  6  1  2  0  0  0  0
  6  5  1  0  0  0  0
  7  1  1  0  0  0  0
  9 10  1  0  0  0  0
  9  5  1  0  0  0  0
 11 10  1  0  0  0  0
 12 11  1  0  0  0  0
 12 13  1  0  0  0  0
 13  9  1  0  0  0  0
 14 13  1  0  0  0  0
 15 16  1  0  0  0  0
 15 17  1  0  0  0  0
 18 15  1  0  0  0  0
M  END
>  <minimizedAffinity>
-4.42097998

$$$$

 OpenBabel03242513353D

 18 19  0  0  0  0  0  0  0  0999 V2000
   38.4970   30.4650   39.7050 C   0  0  0  0  0  0  0  0  0  0  0  0
   37.6670   31.4890   40.1540 C   0  0  0  0  0  0  0  0  0  0  0  0
   36.5600   31.1320   40.9250 C   0  0  0  0  0  0  0  0  0  0  0  0
   36.3410   29.8280   41.2010 N   0  0  0  0  0  0  0  0  0  0  0  0
   37.1830   28.8530   40.7390 C   0  0  0  0  0  0  0  0  0  0  0  0
   38.2550   29.1740   39.9950 N   0  0  0  0  0  0  0  0  0  0  0  0
   39.3660   30.7350   39.1000 H   0  0  0  0  0  0  0  0  0  0  0  0
   35.9340   31.9240   41.2600 H   0  0  0  0  0  0  0  0  0  0  0  0
   36.9240   27.4860   41.0490 N   0  0  0  0  0  0  0  0  0  0  0  0
   36.6850   26.4170   40.0980 C   0  0  0  0  0  2  0  0  0  0  0  0
   37.5190   25.3040   40.6890 C   0  0  0  0  0  2  0  0  0  0  0  0
   37.3450   25.5220   42.1760 C   0  0  0  0  0  2  0  0  0  0  0  0
   36.8530   26.9200   42.3830 C   0  0  0  0  0  3  0  0  0  0  0  0
   37.4320   27.4970   43.1290 H   0  0  0  0  0  0  0  0  0  0  0  0
   38.0220   32.8870   39.7770 C   0  0  0  0  0  0  0  0  0  0  0  0
   36.8760   33.4220   39.1970 F   0  0  0  0  0  0  0  0  0  0  0  0
   39.0400   32.8610   38.8750 F   0  0  0  0  0  0  0  0  0  0  0  0
   38.3750   33.5680   40.9450 F   0  0  0  0  0  0  0  0  0  0  0  0
  1  6  2  0  0  0  0
  1  2  1  0  0  0  0
  2  3  2  0  0  0  0
  3  4  1  0  0  0  0
  3  8  1  0  0  0  0
  5  9  1  0  0  0  0
  5  4  2  0  0  0  0
  6  5  1  0  0  0  0
  7  1  1  0  0  0  0
  9 13  1  0  0  0  0
 10 11  1  0  0  0  0
 10  9  1  0  0  0  0
 11 12  1  0  0  0  0
 12 13  1  0  0  0  0
 13 14  1  0  0  0  0
 15  2  1  0  0  0  0
 15 18  1  0  0  0  0
 16 15  1  0  0  0  0
 17 15  1  0  0  0  0
M  END
>  <minimizedAffinity>
-4.3089633

$$$$

 OpenBabel03242513353D

 18 19  0  0  0  0  0  0  0  0999 V2000
   38.0190   28.3240   40.7720 C   0  0  0  0  0  0  0  0  0  0  0  0
   37.8340   28.0530   42.1260 C   0  0  0  0  0  0  0  0  0  0  0  0
   38.2320   29.0300   43.0390 C   0  0  0  0  0  0  0  0  0  0  0  0
   38.7720   30.1810   42.5830 N   0  0  0  0  0  0  0  0  0  0  0  0
   38.9360   30.4060   41.2420 C   0  0  0  0  0  0  0  0  0  0  0  0
   38.5590   29.4790   40.3450 N   0  0  0  0  0  0  0  0  0  0  0  0
   37.7100   27.5650   40.0490 H   0  0  0  0  0  0  0  0  0  0  0  0
   38.0860   28.8100   44.0700 H   0  0  0  0  0  0  0  0  0  0  0  0
   39.5080   31.6310   40.7930 N   0  0  0  0  0  0  0  0  0  0  0  0
   40.7200   31.7800   40.0100 C   0  0  0  0  0  2  0  0  0  0  0  0
   40.2960   32.8230   39.0030 C   0  0  0  0  0  2  0  0  0  0  0  0
   39.3910   33.7170   39.8230 C   0  0  0  0  0  2  0  0  0  0  0  0
   38.9740   32.9560   41.0420 C   0  0  0  0  0  3  0  0  0  0  0  0
   37.8820   32.9550   41.2210 H   0  0  0  0  0  0  0  0  0  0  0  0
   37.2270   26.7440   42.4970 C   0  0  0  0  0  0  0  0  0  0  0  0
   36.2580   27.0350   43.4510 F   0  0  0  0  0  0  0  0  0  0  0  0
   38.1890   25.9420   43.0300 F   0  0  0  0  0  0  0  0  0  0  0  0
   36.6660   26.1910   41.3430 F   0  0  0  0  0  0  0  0  0  0  0  0
  1  2  1  0  0  0  0
  2 15  1  0  0  0  0
  2  3  2  0  0  0  0
  3  8  1  0  0  0  0
  4  3  1  0  0  0  0
  5  4  2  0  0  0  0
  6  1  2  0  0  0  0
  6  5  1  0  0  0  0
  7  1  1  0  0  0  0
  9 13  1  0  0  0  0
  9  5  1  0  0  0  0
 10  9  1  0  0  0  0
 11 12  1  0  0  0  0
 11 10  1  0  0  0  0
 12 13  1  0  0  0  0
 13 14  1  0  0  0  0
 15 17  1  0  0  0  0
 15 16  1  0  0  0  0
 18 15  1  0  0  0  0
M  END
>  <minimizedAffinity>
-4.28355408

$$$$

 OpenBabel03242513353D

 18 19  0  0  0  0  0  0  0  0999 V2000
   37.4610   30.9830   40.3150 C   0  0  0  0  0  0  0  0  0  0  0  0
   38.4220   31.8990   40.7360 C   0  0  0  0  0  0  0  0  0  0  0  0
   39.2950   31.4980   41.7490 C   0  0  0  0  0  0  0  0  0  0  0  0
   39.1740   30.2590   42.2730 N   0  0  0  0  0  0  0  0  0  0  0  0
   38.2140   29.3900   41.8280 C   0  0  0  0  0  0  0  0  0  0  0  0
   37.3640   29.7550   40.8530 N   0  0  0  0  0  0  0  0  0  0  0  0
   36.7730   31.2880   39.5220 H   0  0  0  0  0  0  0  0  0  0  0  0
   40.0230   32.2070   42.0620 H   0  0  0  0  0  0  0  0  0  0  0  0
   38.1130   28.0900   42.4010 N   0  0  0  0  0  0  0  0  0  0  0  0
   36.9620   27.5360   43.0880 C   0  0  0  0  0  2  0  0  0  0  0  0
   36.9140   26.1410   42.5090 C   0  0  0  0  0  2  0  0  0  0  0  0
   38.3800   25.8020   42.3570 C   0  0  0  0  0  2  0  0  0  0  0  0
   39.1560   27.0810   42.3970 C   0  0  0  0  0  3  0  0  0  0  0  0
   39.8710   27.2010   41.5610 H   0  0  0  0  0  0  0  0  0  0  0  0
   38.4470   33.2350   40.0760 C   0  0  0  0  0  0  0  0  0  0  0  0
   39.3310   33.1100   39.0090 F   0  0  0  0  0  0  0  0  0  0  0  0
   38.9040   34.1610   40.9620 F   0  0  0  0  0  0  0  0  0  0  0  0
   37.1510   33.5220   39.6420 F   0  0  0  0  0  0  0  0  0  0  0  0
  1  2  2  0  0  0  0
  1  6  1  0  0  0  0
  2  3  1  0  0  0  0
  3  8  1  0  0  0  0
  3  4  2  0  0  0  0
  5  4  1  0  0  0  0
  5  9  1  0  0  0  0
  6  5  2  0  0  0  0
  7  1  1  0  0  0  0
  9 10  1  0  0  0  0
 11 10  1  0  0  0  0
 12 13  1  0  0  0  0
 12 11  1  0  0  0  0
 13  9  1  0  0  0  0
 14 13  1  0  0  0  0
 15  2  1  0  0  0  0
 15 17  1  0  0  0  0
 16 15  1  0  0  0  0
 18 15  1  0  0  0  0
M  END
>  <minimizedAffinity>
-4.27620411

$$$$

 OpenBabel03242513353D

 18 19  0  0  0  0  0  0  0  0999 V2000
   34.2900   29.2120   39.4680 C   0  0  0  0  0  0  0  0  0  0  0  0
   34.4120   28.4560   38.3050 C   0  0  0  0  0  0  0  0  0  0  0  0
   35.4780   27.5570   38.2300 C   0  0  0  0  0  0  0  0  0  0  0  0
   36.3330   27.4580   39.2700 N   0  0  0  0  0  0  0  0  0  0  0  0
   36.1750   28.2220   40.3950 C   0  0  0  0  0  0  0  0  0  0  0  0
   35.1560   29.0940   40.4890 N   0  0  0  0  0  0  0  0  0  0  0  0
   33.4590   29.9190   39.5360 H   0  0  0  0  0  0  0  0  0  0  0  0
   35.5600   26.9860   37.3350 H   0  0  0  0  0  0  0  0  0  0  0  0
   37.0950   28.0940   41.4750 N   0  0  0  0  0  0  0  0  0  0  0  0
   37.9370   29.1420   42.0200 C   0  0  0  0  0  2  0  0  0  0  0  0
   37.7780   28.9070   43.5040 C   0  0  0  0  0  2  0  0  0  0  0  0
   37.6960   27.3980   43.5880 C   0  0  0  0  0  2  0  0  0  0  0  0
   37.3540   26.8800   42.2260 C   0  0  0  0  0  3  0  0  0  0  0  0
   36.5020   26.1740   42.2130 H   0  0  0  0  0  0  0  0  0  0  0  0
   33.4000   28.6620   37.2310 C   0  0  0  0  0  0  0  0  0  0  0  0
   34.0520   29.3790   36.2330 F   0  0  0  0  0  0  0  0  0  0  0  0
   32.3610   29.3840   37.7300 F   0  0  0  0  0  0  0  0  0  0  0  0
   32.9930   27.4030   36.7800 F   0  0  0  0  0  0  0  0  0  0  0  0
  1  7  1  0  0  0  0
  1  6  1  0  0  0  0
  2  1  2  0  0  0  0
  3  2  1  0  0  0  0
  3  4  2  0  0  0  0
  4  5  1  0  0  0  0
  5  6  2  0  0  0  0
  5  9  1  0  0  0  0
  8  3  1  0  0  0  0
  9 10  1  0  0  0  0
  9 13  1  0  0  0  0
 10 11  1  0  0  0  0
 11 12  1  0  0  0  0
 13 12  1  0  0  0  0
 14 13  1  0  0  0  0
 15 17  1  0  0  0  0
 15  2  1  0  0  0  0
 16 15  1  0  0  0  0
 18 15  1  0  0  0  0
M  END
>  <minimizedAffinity>
-4.18360519

$$$$

 OpenBabel03242513353D

 18 19  0  0  0  0  0  0  0  0999 V2000
   35.7310   27.5060   38.6360 C   0  0  0  0  0  0  0  0  0  0  0  0
   34.7230   28.4640   38.5530 C   0  0  0  0  0  0  0  0  0  0  0  0
   34.5160   29.2810   39.6650 C   0  0  0  0  0  0  0  0  0  0  0  0
   35.2860   29.1120   40.7610 N   0  0  0  0  0  0  0  0  0  0  0  0
   36.2660   28.1560   40.8010 C   0  0  0  0  0  0  0  0  0  0  0  0
   36.4840   27.3600   39.7400 N   0  0  0  0  0  0  0  0  0  0  0  0
   35.9010   26.8620   37.7700 H   0  0  0  0  0  0  0  0  0  0  0  0
   33.7430   30.0080   39.5880 H   0  0  0  0  0  0  0  0  0  0  0  0
   37.0620   28.0050   41.9720 N   0  0  0  0  0  0  0  0  0  0  0  0
   37.1740   26.8120   42.7900 C   0  0  0  0  0  2  0  0  0  0  0  0
   38.6630   26.7640   43.0420 C   0  0  0  0  0  2  0  0  0  0  0  0
   39.0200   28.2280   43.1670 C   0  0  0  0  0  2  0  0  0  0  0  0
   37.9090   29.0270   42.5580 C   0  0  0  0  0  3  0  0  0  0  0  0
   38.2470   29.7810   41.8230 H   0  0  0  0  0  0  0  0  0  0  0  0
   33.9450   28.5460   37.2850 C   0  0  0  0  0  0  0  0  0  0  0  0
   32.7830   29.2430   37.6010 F   0  0  0  0  0  0  0  0  0  0  0  0
   33.6410   27.2870   36.8660 F   0  0  0  0  0  0  0  0  0  0  0  0
   34.7220   29.2350   36.3490 F   0  0  0  0  0  0  0  0  0  0  0  0
  1  6  1  0  0  0  0
  2  1  2  0  0  0  0
  2  3  1  0  0  0  0
  3  4  2  0  0  0  0
  4  5  1  0  0  0  0
  5  9  1  0  0  0  0
  6  5  2  0  0  0  0
  7  1  1  0  0  0  0
  8  3  1  0  0  0  0
  9 13  1  0  0  0  0
  9 10  1  0  0  0  0
 10 11  1  0  0  0  0
 11 12  1  0  0  0  0
 13 12  1  0  0  0  0
 14 13  1  0  0  0  0
 15 16  1  0  0  0  0
 15  2  1  0  0  0  0
 17 15  1  0  0  0  0
 18 15  1  0  0  0  0
M  END
>  <minimizedAffinity>
-4.18311262

$$$$

 OpenBabel03242513353D

 18 19  0  0  0  0  0  0  0  0999 V2000
   36.7190   26.6630   40.3920 C   0  0  0  0  0  0  0  0  0  0  0  0
   37.1770   27.3760   41.4970 C   0  0  0  0  0  0  0  0  0  0  0  0
   37.7510   28.6270   41.2650 C   0  0  0  0  0  0  0  0  0  0  0  0
   37.8390   29.0890   39.9990 N   0  0  0  0  0  0  0  0  0  0  0  0
   37.3760   28.3530   38.9410 C   0  0  0  0  0  0  0  0  0  0  0  0
   36.8190   27.1470   39.1420 N   0  0  0  0  0  0  0  0  0  0  0  0
   36.2680   25.6830   40.5640 H   0  0  0  0  0  0  0  0  0  0  0  0
   38.0970   29.1610   42.1180 H   0  0  0  0  0  0  0  0  0  0  0  0
   37.4840   28.8690   37.6170 N   0  0  0  0  0  0  0  0  0  0  0  0
   38.2030   28.2650   36.5120 C   0  0  0  0  0  2  0  0  0  0  0  0
   37.2180   28.4520   35.3810 C   0  0  0  0  0  2  0  0  0  0  0  0
   36.6080   29.7990   35.7000 C   0  0  0  0  0  2  0  0  0  0  0  0
   36.8870   30.1020   37.1390 C   0  0  0  0  0  3  0  0  0  0  0  0
   35.9920   30.4020   37.7170 H   0  0  0  0  0  0  0  0  0  0  0  0
   37.0200   26.7530   42.8420 C   0  0  0  0  0  0  0  0  0  0  0  0
   35.9900   27.4510   43.4620 F   0  0  0  0  0  0  0  0  0  0  0  0
   38.1780   26.9010   43.5400 F   0  0  0  0  0  0  0  0  0  0  0  0
   36.6920   25.4080   42.6530 F   0  0  0  0  0  0  0  0  0  0  0  0
  1  7  1  0  0  0  0
  1  2  1  0  0  0  0
  2 15  1  0  0  0  0
  3  2  2  0  0  0  0
  3  8  1  0  0  0  0
  4  3  1  0  0  0  0
  5  6  1  0  0  0  0
  5  4  2  0  0  0  0
  6  1  2  0  0  0  0
  9  5  1  0  0  0  0
 10  9  1  0  0  0  0
 11 12  1  0  0  0  0
 11 10  1  0  0  0  0
 12 13  1  0  0  0  0
 13  9  1  0  0  0  0
 13 14  1  0  0  0  0
 15 16  1  0  0  0  0
 15 17  1  0  0  0  0
 18 15  1  0  0  0  0
M  END
>  <minimizedAffinity>
-4.18111372

$$$$

 OpenBabel03242513353D

 18 19  0  0  0  0  0  0  0  0999 V2000
   38.2830   29.4940   39.2990 C   0  0  0  0  0  0  0  0  0  0  0  0
   37.7040   30.6880   39.7220 C   0  0  0  0  0  0  0  0  0  0  0  0
   37.3300   30.7840   41.0630 C   0  0  0  0  0  0  0  0  0  0  0  0
   37.5390   29.7320   41.8840 N   0  0  0  0  0  0  0  0  0  0  0  0
   38.1110   28.5760   41.4250 C   0  0  0  0  0  0  0  0  0  0  0  0
   38.4800   28.4630   40.1380 N   0  0  0  0  0  0  0  0  0  0  0  0
   38.5800   29.4100   38.2500 H   0  0  0  0  0  0  0  0  0  0  0  0
   36.8880   31.7020   41.3720 H   0  0  0  0  0  0  0  0  0  0  0  0
   38.3190   27.4850   42.3180 N   0  0  0  0  0  0  0  0  0  0  0  0
   37.7630   26.1510   42.1930 C   0  0  0  0  0  2  0  0  0  0  0  0
   38.9610   25.2980   42.5370 C   0  0  0  0  0  2  0  0  0  0  0  0
   39.6450   26.1150   43.6100 C   0  0  0  0  0  2  0  0  0  0  0  0
   39.1310   27.5180   43.5190 C   0  0  0  0  0  3  0  0  0  0  0  0
   39.9250   28.2880   43.4830 H   0  0  0  0  0  0  0  0  0  0  0  0
   37.5280   31.7720   38.7140 C   0  0  0  0  0  0  0  0  0  0  0  0
   36.9200   31.1700   37.6170 F   0  0  0  0  0  0  0  0  0  0  0  0
   38.7500   32.2600   38.3670 F   0  0  0  0  0  0  0  0  0  0  0  0
   36.7140   32.7560   39.2810 F   0  0  0  0  0  0  0  0  0  0  0  0
  1  2  2  0  0  0  0
  1  6  1  0  0  0  0
  2  3  1  0  0  0  0
  3  8  1  0  0  0  0
  3  4  2  0  0  0  0
  5  4  1  0  0  0  0
  5  9  1  0  0  0  0
  6  5  2  0  0  0  0
  7  1  1  0  0  0  0
  9 13  1  0  0  0  0
 10  9  1  0  0  0  0
 10 11  1  0  0  0  0
 11 12  1  0  0  0  0
 13 12  1  0  0  0  0
 14 13  1  0  0  0  0
 15 18  1  0  0  0  0
 15  2  1  0  0  0  0
 16 15  1  0  0  0  0
 17 15  1  0  0  0  0
M  END
>  <minimizedAffinity>
-4.16923285

$$$$
