
 OpenBabel03252507373D

 35 39  0  0  0  0  0  0  0  0999 V2000
   45.6160   34.7680   43.4420 C   0  0  0  0  0  0  0  0  0  0  0  0
   46.2960   33.7070   44.0710 C   0  0  0  0  0  0  0  0  0  0  0  0
   46.0810   33.4950   45.4160 C   0  0  0  0  0  0  0  0  0  0  0  0
   45.2390   34.2980   46.0650 N   0  0  0  0  0  0  0  0  0  0  0  0
   44.5850   35.3200   45.4560 C   0  0  0  0  0  0  0  0  0  0  0  0
   44.7780   35.5420   44.1600 N   0  0  0  0  0  0  0  0  0  0  0  0
   46.9750   33.0630   43.5410 H   0  0  0  0  0  0  0  0  0  0  0  0
   43.9120   35.9630   45.9840 H   0  0  0  0  0  0  0  0  0  0  0  0
   47.0070   32.6920   47.5280 C   0  0  0  0  0  0  0  0  0  0  0  0
   46.7350   32.4310   46.1780 C   0  0  0  0  0  0  0  0  0  0  0  0
   47.0950   31.2150   45.6760 C   0  0  0  0  0  0  0  0  0  0  0  0
   47.7080   30.2450   46.4320 C   0  0  0  0  0  0  0  0  0  0  0  0
   48.1450   28.9990   46.1500 N   0  0  0  0  0  0  0  0  0  0  0  0
   48.6860   28.4800   47.3210 C   0  0  0  0  0  0  0  0  0  0  0  0
   48.5690   29.4100   48.2760 N   0  0  0  0  0  0  0  0  0  0  0  0
   47.9770   30.4910   47.7540 C   0  0  0  0  0  0  0  0  0  0  0  0
   47.6220   31.7200   48.2970 C   0  0  0  0  0  0  0  0  0  0  0  0
   46.7310   33.6550   47.9500 H   0  0  0  0  0  0  0  0  0  0  0  0
   46.8760   31.0260   44.6140 H   0  0  0  0  0  0  0  0  0  0  0  0
   48.0890   28.5070   45.2260 H   0  0  0  0  0  0  0  0  0  0  0  0
   49.1110   27.4890   47.3890 H   0  0  0  0  0  0  0  0  0  0  0  0
   47.8190   31.9430   49.3380 H   0  0  0  0  0  0  0  0  0  0  0  0
   45.8280   34.9860   42.0860 O   0  0  0  0  0  0  0  0  0  0  0  0
   44.8360   34.6730   41.1600 C   0  0  0  0  0  0  0  0  0  0  0  0
   45.5170   33.7450   40.4330 C   0  0  0  0  0  0  0  0  0  0  0  0
   44.1730   33.2860   39.1450 S   0  0  0  0  0  0  0  0  0  0  0  0
   42.9810   34.5180   39.9480 C   0  0  0  0  0  0  0  0  0  0  0  0
   43.5950   34.9170   40.7610 N   0  0  0  0  0  0  0  0  0  0  0  0
   46.4400   33.1030   40.1830 H   0  0  0  0  0  0  0  0  0  0  0  0
   41.7490   34.4760   39.2300 N   0  0  0  0  0  0  0  0  0  0  0  0
   40.9300   33.5500   38.4950 C   0  0  0  0  0  2  0  0  0  0  0  0
   39.6620   33.5910   39.3710 C   0  0  0  0  0  2  0  0  0  0  0  0
   39.6110   35.0760   39.7440 C   0  0  0  0  0  2  0  0  0  0  0  0
   40.8780   35.6590   39.1070 C   0  0  0  0  0  3  0  0  0  0  0  0
   41.2670   36.4700   39.7180 H   0  0  0  0  0  0  0  0  0  0  0  0
  1  2  2  0  0  0  0
  1  6  1  0  0  0  0
  2  3  1  0  0  0  0
  3  4  2  0  0  0  0
  3 10  1  0  0  0  0
  5  8  1  0  0  0  0
  5  4  1  0  0  0  0
  6  5  2  0  0  0  0
  7  2  1  0  0  0  0
  9 18  1  0  0  0  0
  9 17  1  0  0  0  0
 10  9  2  0  0  0  0
 11 10  1  0  0  0  0
 11 12  2  0  0  0  0
 12 16  1  0  0  0  0
 13 12  1  0  0  0  0
 13 14  1  0  0  0  0
 14 21  1  0  0  0  0
 14 15  2  0  0  0  0
 16 15  1  0  0  0  0
 16 17  2  0  0  0  0
 17 22  1  0  0  0  0
 19 11  1  0  0  0  0
 20 13  1  0  0  0  0
 23  1  1  0  0  0  0
 24 23  1  0  0  0  0
 25 24  2  0  0  0  0
 26 27  1  0  0  0  0
 26 25  1  0  0  0  0
 27 28  2  0  0  0  0
 28 24  1  0  0  0  0
 29 25  1  0  0  0  0
 30 27  1  0  0  0  0
 31 30  1  0  0  0  0
 31 32  1  0  0  0  0
 32 33  1  0  0  0  0
 34 30  1  0  0  0  0
 34 35  1  0  0  0  0
 34 33  1  0  0  0  0
M  END
>  <minimizedAffinity>
-6.6861186

>  <minimizedRMSD>
0.557359695

$$$$
