
 OpenBabel03252506303D

 29 31  0  0  1  0  0  0  0  0999 V2000
   44.5030   35.6400   45.0480 C   0  0  0  0  0  0  0  0  0  0  0  0
   45.1220   35.5890   43.8020 C   0  0  0  0  0  0  0  0  0  0  0  0
   46.0300   34.5870   43.5720 C   0  0  0  0  0  0  0  0  0  0  0  0
   46.2850   33.6860   44.5710 N   0  0  0  0  0  0  0  0  0  0  0  0
   45.6700   33.7690   45.7510 C   0  0  0  0  0  0  0  0  0  0  0  0
   44.7820   34.7340   46.0040 N   0  0  0  0  0  0  0  0  0  0  0  0
   45.9700   32.8030   46.7460 N   0  0  0  0  0  0  0  0  0  0  0  0
   45.1520   32.5320   47.9160 C   0  0  0  0  0  0  0  0  0  0  0  0
   46.1960   32.1940   48.9470 C   0  0  0  0  0  0  0  0  0  0  0  0
   47.5330   32.1220   48.2500 C   0  0  0  0  0  0  0  0  0  0  0  0
   47.0920   31.9160   46.8220 C   0  0  1  0  0  0  0  0  0  0  0  0
   43.7700   36.3800   45.3520 H   0  0  0  0  0  0  0  0  0  0  0  0
   46.5020   34.5610   42.6020 H   0  0  0  0  0  0  0  0  0  0  0  0
   44.3850   31.7720   47.7690 H   0  0  0  0  0  0  0  0  0  0  0  0
   44.6730   33.4920   48.2120 H   0  0  0  0  0  0  0  0  0  0  0  0
   45.9360   31.1930   49.3530 H   0  0  0  0  0  0  0  0  0  0  0  0
   46.2240   32.9400   49.7630 H   0  0  0  0  0  0  0  0  0  0  0  0
   48.0710   31.1960   48.5670 H   0  0  0  0  0  0  0  0  0  0  0  0
   48.1510   33.0130   48.3920 H   0  0  0  0  0  0  0  0  0  0  0  0
   47.8820   32.2810   46.1360 H   0  0  0  0  0  0  0  0  0  0  0  0
   46.8020   30.5560   46.5070 N   0  0  1  0  0  0  0  0  0  0  0  0
   47.0860   29.5910   47.5090 C   0  0  0  0  0  0  0  0  0  0  0  0
   46.0940   28.4630   47.3570 C   0  0  0  0  0  0  0  0  0  0  0  0
   45.0670   28.9460   46.3600 C   0  0  0  0  0  0  0  0  0  0  0  0
   45.4860   30.3530   46.0080 C   0  0  0  0  0  0  0  0  0  0  0  0
   44.7580   31.0400   46.4800 H   0  0  0  0  0  0  0  0  0  0  0  0
   44.7320   36.6060   42.8700 N   0  0  0  0  0  0  0  0  0  0  0  0
   44.9200   37.6180   43.0480 H   0  0  0  0  0  0  0  0  0  0  0  0
   44.2500   36.3530   41.9900 H   0  0  0  0  0  0  0  0  0  0  0  0
  1 12  1  0  0  0  0
  1  6  1  0  0  0  0
  2  1  2  0  0  0  0
  3  2  1  0  0  0  0
  3  4  2  0  0  0  0
  4  5  1  0  0  0  0
  5  6  2  0  0  0  0
  5  7  1  0  0  0  0
  7 11  1  0  0  0  0
  7  8  1  0  0  0  0
  8 15  1  0  0  0  0
  8  9  1  0  0  0  0
  9 16  1  0  0  0  0
  9 17  1  0  0  0  0
 10 19  1  0  0  0  0
 10 18  1  0  0  0  0
 10  9  1  0  0  0  0
 11 20  1  6  0  0  0
 11 10  1  0  0  0  0
 13  3  1  0  0  0  0
 14  8  1  0  0  0  0
 21 11  1  0  0  0  0
 21 22  1  1  0  0  0
 23 22  1  0  0  0  0
 24 23  1  0  0  0  0
 25 24  1  0  0  0  0
 25 26  1  0  0  0  0
 25 21  1  0  0  0  0
 27 28  1  0  0  0  0
 27  2  1  0  0  0  0
 29 27  1  0  0  0  0
M  END
>  <minimizedAffinity>
-5.52996588

>  <minimizedRMSD>
0.637804449

$$$$
