
 OpenBabel03242520073D

 46 50  0  0  1  0  0  0  0  0999 V2000
   47.1830   29.3350   46.3950 N   0  0  0  0  0  0  0  0  0  0  0  0
   46.7890   29.1240   45.0670 C   0  0  1  0  0  0  0  0  0  0  0  0
   45.4580   28.4190   45.0650 C   0  0  0  0  0  0  0  0  0  0  0  0
   44.5330   29.3560   45.6340 N   0  0  0  0  0  0  0  0  0  0  0  0
   44.7980   29.6150   47.0240 C   0  0  0  0  0  0  0  0  0  0  0  0
   46.2480   29.7440   47.3740 C   0  0  2  0  0  0  0  0  0  0  0  0
   47.8140   28.5300   46.6870 H   0  0  0  0  0  0  0  0  0  0  0  0
   47.4930   28.4770   44.5430 H   0  0  0  0  0  0  0  0  0  0  0  0
   45.1000   28.2080   44.0230 H   0  0  0  0  0  0  0  0  0  0  0  0
   45.4420   27.4990   45.6580 H   0  0  0  0  0  0  0  0  0  0  0  0
   44.3670   30.1910   45.0530 H   0  0  0  0  0  0  0  0  0  0  0  0
   44.2580   28.8090   47.5820 H   0  0  0  0  0  0  0  0  0  0  0  0
   44.1970   30.5370   47.2690 H   0  0  0  0  0  0  0  0  0  0  0  0
   46.3960   29.0320   48.2410 H   0  0  0  0  0  0  0  0  0  0  0  0
   46.1120   32.3900   43.8980 C   0  0  0  0  0  0  0  0  0  0  0  0
   46.6410   31.8420   42.7480 C   0  0  0  0  0  0  0  0  0  0  0  0
   46.9680   30.5520   43.0150 C   0  0  0  0  0  0  0  0  0  0  0  0
   46.6360   30.3350   44.3140 N   0  0  0  0  0  0  0  0  0  0  0  0
   46.1280   31.4460   44.8200 N   0  0  0  0  0  0  0  0  0  0  0  0
   46.7390   32.4260   41.8290 H   0  0  0  0  0  0  0  0  0  0  0  0
   47.4040   29.8480   42.3260 H   0  0  0  0  0  0  0  0  0  0  0  0
   44.6650   35.4550   45.3450 C   0  0  0  0  0  0  0  0  0  0  0  0
   44.7300   36.3670   44.2840 C   0  0  0  0  0  0  0  0  0  0  0  0
   45.2700   35.9150   43.0920 C   0  0  0  0  0  0  0  0  0  0  0  0
   45.7000   34.6260   43.0190 N   0  0  0  0  0  0  0  0  0  0  0  0
   45.6190   33.7800   44.0640 C   0  0  0  0  0  0  0  0  0  0  0  0
   45.1030   34.1770   45.2390 N   0  0  0  0  0  0  0  0  0  0  0  0
   44.2650   35.6850   46.3280 H   0  0  0  0  0  0  0  0  0  0  0  0
   44.3530   37.3700   44.4660 H   0  0  0  0  0  0  0  0  0  0  0  0
   45.3260   36.5990   42.2750 H   0  0  0  0  0  0  0  0  0  0  0  0
   46.4620   31.1600   47.8710 C   0  0  1  0  0  0  0  0  0  0  0  0
   46.1310   31.3960   49.3360 C   0  0  0  0  0  0  0  0  0  0  0  0
   47.5340   31.5090   48.8280 C   0  0  1  0  0  0  0  0  0  0  0  0
   46.0760   32.0120   47.2330 H   0  0  0  0  0  0  0  0  0  0  0  0
   45.9360   30.5020   49.9680 H   0  0  0  0  0  0  0  0  0  0  0  0
   45.5770   32.2860   49.6550 H   0  0  0  0  0  0  0  0  0  0  0  0
   47.9200   32.5480   48.8040 H   0  0  0  0  0  0  0  0  0  0  0  0
   48.5560   30.4550   49.2330 C   0  0  0  0  0  0  0  0  0  0  0  0
   47.9830   29.6170   49.6800 H   0  0  0  0  0  0  0  0  0  0  0  0
   49.2020   30.1490   48.3780 H   0  0  0  0  0  0  0  0  0  0  0  0
   49.4450   31.0810   50.1600 N   0  0  0  0  0  0  0  0  0  0  0  0
   50.4270   30.2140   50.7610 C   0  0  0  0  0  0  0  0  0  0  0  0
   51.0740   31.2360   51.7100 C   0  0  0  0  0  0  0  0  0  0  0  0
   51.1710   32.4430   50.7650 C   0  0  0  0  0  0  0  0  0  0  0  0
   50.3120   32.0740   49.5610 C   0  0  0  0  0  0  0  0  0  0  0  0
   51.0310   31.5780   48.8510 H   0  0  0  0  0  0  0  0  0  0  0  0
  1  7  1  0  0  0  0
  1  6  1  0  0  0  0
  2  8  1  6  0  0  0
  2  1  1  0  0  0  0
  3  2  1  0  0  0  0
  3  4  1  0  0  0  0
  3 10  1  0  0  0  0
  4  5  1  0  0  0  0
  5 13  1  0  0  0  0
  5  6  1  0  0  0  0
  5 12  1  0  0  0  0
  6 31  1  0  0  0  0
  6 14  1  1  0  0  0
  9  3  1  0  0  0  0
 11  4  1  0  0  0  0
 15 26  1  0  0  0  0
 15 19  2  0  0  0  0
 16 17  2  0  0  0  0
 16 15  1  0  0  0  0
 17 18  1  0  0  0  0
 18 19  1  0  0  0  0
 18  2  1  0  0  0  0
 20 16  1  0  0  0  0
 21 17  1  0  0  0  0
 22 28  1  0  0  0  0
 23 29  1  0  0  0  0
 23 22  2  0  0  0  0
 24 23  1  0  0  0  0
 25 24  2  0  0  0  0
 25 26  1  0  0  0  0
 26 27  2  0  0  0  0
 27 22  1  0  0  0  0
 30 24  1  0  0  0  0
 31 34  1  6  0  0  0
 31 33  1  0  0  0  0
 31 32  1  0  0  0  0
 32 36  1  0  0  0  0
 32 35  1  0  0  0  0
 33 37  1  6  0  0  0
 33 38  1  0  0  0  0
 33 32  1  0  0  0  0
 38 39  1  0  0  0  0
 38 41  1  0  0  0  0
 40 38  1  0  0  0  0
 41 42  1  0  0  0  0
 42 43  1  0  0  0  0
 44 43  1  0  0  0  0
 45 41  1  0  0  0  0
 45 44  1  0  0  0  0
 46 45  1  0  0  0  0
M  END
>  <minimizedAffinity>
-5.44183016

>  <minimizedRMSD>
1.33437431

$$$$
