
 OpenBabel03252508123D

 27 29  0  0  1  0  0  0  0  0999 V2000
   38.1150   28.1340   43.6300 C   0  0  0  0  0  0  0  0  0  0  0  0
   37.2860   27.5440   43.9900 H   0  0  0  0  0  0  0  0  0  0  0  0
   38.5500   28.6310   44.5520 H   0  0  0  0  0  0  0  0  0  0  0  0
   39.2730   27.3770   43.0310 C   0  0  1  0  0  0  0  0  0  0  0  0
   39.5790   26.0680   43.6790 C   0  0  0  0  0  0  0  0  0  0  0  0
   39.0360   26.0840   42.3370 C   0  0  1  0  0  0  0  0  0  0  0  0
   40.2290   27.9620   42.8800 H   0  0  0  0  0  0  0  0  0  0  0  0
   40.6210   25.7190   43.8350 H   0  0  0  0  0  0  0  0  0  0  0  0
   38.9210   25.7480   44.5270 H   0  0  0  0  0  0  0  0  0  0  0  0
   39.7650   25.8910   41.4940 H   0  0  0  0  0  0  0  0  0  0  0  0
   37.6840   25.8440   41.9270 N   0  0  2  0  0  0  0  0  0  0  0  0
   37.3040   24.4460   42.0900 C   0  0  0  0  0  2  0  0  0  0  0  0
   36.5660   24.0230   40.8620 C   0  0  0  0  0  2  0  0  0  0  0  0
   36.5830   25.1810   39.9130 C   0  0  0  0  0  2  0  0  0  0  0  0
   37.7030   26.0340   40.4600 C   0  0  0  0  0  3  0  0  0  0  0  0
   37.5680   27.0720   40.1580 H   0  0  0  0  0  0  0  0  0  0  0  0
   38.6880   29.9590   42.1990 C   0  0  0  0  0  3  0  0  0  0  0  0
   37.7320   29.2990   42.7650 C   0  0  0  0  0  3  0  0  0  0  0  0
   37.0240   32.2700   39.8750 C   0  0  0  0  0  0  0  0  0  0  0  0
   37.9010   33.3620   39.8420 C   0  0  0  0  0  0  0  0  0  0  0  0
   39.0350   33.2770   40.6140 C   0  0  0  0  0  0  0  0  0  0  0  0
   39.2200   32.1630   41.3410 N   0  0  0  0  0  0  0  0  0  0  0  0
   38.3850   31.1210   41.3710 C   0  0  0  0  0  0  0  0  0  0  0  0
   37.3000   31.1960   40.6360 N   0  0  0  0  0  0  0  0  0  0  0  0
   36.1350   32.3590   39.2550 H   0  0  0  0  0  0  0  0  0  0  0  0
   37.7780   34.2650   39.2720 H   0  0  0  0  0  0  0  0  0  0  0  0
   39.8070   34.0440   40.6930 H   0  0  0  0  0  0  0  0  0  0  0  0
  1  2  1  0  0  0  0
  1  3  1  0  0  0  0
  4  7  1  6  0  0  0
  4  1  1  0  0  0  0
  4  5  1  0  0  0  0
  5  8  1  0  0  0  0
  5  9  1  0  0  0  0
  6 10  1  6  0  0  0
  6  4  1  0  0  0  0
  6  5  1  0  0  0  0
 11 12  1  6  0  0  0
 11  6  1  0  0  0  0
 13 12  1  0  0  0  0
 14 15  1  0  0  0  0
 14 13  1  0  0  0  0
 15 11  1  0  0  0  0
 16 15  1  0  0  0  0
 17 18  2  0  0  0  0
 18  1  1  0  0  0  0
 19 24  1  0  0  0  0
 20 19  2  0  0  0  0
 20 21  1  0  0  0  0
 21 27  1  0  0  0  0
 21 22  2  0  0  0  0
 22 23  1  0  0  0  0
 23 17  1  0  0  0  0
 24 23  2  0  0  0  0
 25 19  1  0  0  0  0
 26 20  1  0  0  0  0
M  END
>  <minimizedAffinity>
-4.68583107

$$$$

 OpenBabel03252508123D

 27 29  0  0  1  0  0  0  0  0999 V2000
   36.2020   28.5700   41.4310 C   0  0  0  0  0  0  0  0  0  0  0  0
   36.0180   27.7910   40.7090 H   0  0  0  0  0  0  0  0  0  0  0  0
   35.1860   28.8130   41.8740 H   0  0  0  0  0  0  0  0  0  0  0  0
   37.0500   28.2010   42.6220 C   0  0  1  0  0  0  0  0  0  0  0  0
   36.3770   27.3400   43.6390 C   0  0  0  0  0  0  0  0  0  0  0  0
   37.4490   26.7850   42.8390 C   0  0  1  0  0  0  0  0  0  0  0  0
   37.5880   29.0520   43.1370 H   0  0  0  0  0  0  0  0  0  0  0  0
   36.5350   27.4840   44.7270 H   0  0  0  0  0  0  0  0  0  0  0  0
   35.3230   27.0240   43.4270 H   0  0  0  0  0  0  0  0  0  0  0  0
   38.4550   26.6780   43.3460 H   0  0  0  0  0  0  0  0  0  0  0  0
   37.3470   25.9340   41.6910 N   0  0  2  0  0  0  0  0  0  0  0  0
   37.0420   24.5560   42.0580 C   0  0  0  0  0  2  0  0  0  0  0  0
   37.9200   23.6580   41.2500 C   0  0  0  0  0  2  0  0  0  0  0  0
   38.8270   24.5340   40.4420 C   0  0  0  0  0  2  0  0  0  0  0  0
   38.7260   25.8590   41.1620 C   0  0  0  0  0  3  0  0  0  0  0  0
   38.9720   26.6750   40.4840 H   0  0  0  0  0  0  0  0  0  0  0  0
   37.6740   30.4510   41.3750 C   0  0  0  0  0  3  0  0  0  0  0  0
   36.6400   29.8830   40.8490 C   0  0  0  0  0  3  0  0  0  0  0  0
   37.7520   33.7800   39.8180 C   0  0  0  0  0  0  0  0  0  0  0  0
   39.0920   34.1610   39.9670 C   0  0  0  0  0  0  0  0  0  0  0  0
   39.9290   33.2700   40.5930 C   0  0  0  0  0  0  0  0  0  0  0  0
   39.4080   32.1060   41.0170 N   0  0  0  0  0  0  0  0  0  0  0  0
   38.1310   31.7440   40.8750 C   0  0  0  0  0  0  0  0  0  0  0  0
   37.3250   32.5900   40.2770 N   0  0  0  0  0  0  0  0  0  0  0  0
   37.1090   34.5010   39.3180 H   0  0  0  0  0  0  0  0  0  0  0  0
   39.5360   35.0840   39.6390 H   0  0  0  0  0  0  0  0  0  0  0  0
   40.9930   33.4240   40.7820 H   0  0  0  0  0  0  0  0  0  0  0  0
  1  3  1  0  0  0  0
  1  4  1  0  0  0  0
  2  1  1  0  0  0  0
  4  6  1  0  0  0  0
  4  7  1  1  0  0  0
  4  5  1  0  0  0  0
  5  8  1  0  0  0  0
  6 10  1  1  0  0  0
  6  5  1  0  0  0  0
  9  5  1  0  0  0  0
 11 12  1  1  0  0  0
 11  6  1  0  0  0  0
 13 12  1  0  0  0  0
 14 15  1  0  0  0  0
 14 13  1  0  0  0  0
 15 11  1  0  0  0  0
 16 15  1  0  0  0  0
 18 17  2  0  0  0  0
 18  1  1  0  0  0  0
 19 20  2  0  0  0  0
 19 24  1  0  0  0  0
 20 21  1  0  0  0  0
 21 27  1  0  0  0  0
 21 22  2  0  0  0  0
 23 22  1  0  0  0  0
 23 17  1  0  0  0  0
 24 23  2  0  0  0  0
 25 19  1  0  0  0  0
 26 20  1  0  0  0  0
M  END
>  <minimizedAffinity>
-4.65308332

$$$$

 OpenBabel03252508123D

 27 29  0  0  1  0  0  0  0  0999 V2000
   37.1940   29.3170   38.6050 C   0  0  0  0  0  0  0  0  0  0  0  0
   37.3780   28.2770   38.8210 H   0  0  0  0  0  0  0  0  0  0  0  0
   36.7490   29.3320   37.5620 H   0  0  0  0  0  0  0  0  0  0  0  0
   36.1650   30.0130   39.4590 C   0  0  1  0  0  0  0  0  0  0  0  0
   34.9740   29.1890   39.8170 C   0  0  0  0  0  0  0  0  0  0  0  0
   35.9200   29.5510   40.8510 C   0  0  1  0  0  0  0  0  0  0  0  0
   35.8320   31.0360   39.1090 H   0  0  0  0  0  0  0  0  0  0  0  0
   33.9510   29.6170   39.8480 H   0  0  0  0  0  0  0  0  0  0  0  0
   34.9510   28.1310   39.4480 H   0  0  0  0  0  0  0  0  0  0  0  0
   35.6110   30.3850   41.5500 H   0  0  0  0  0  0  0  0  0  0  0  0
   36.9560   28.7440   41.4240 N   0  0  2  0  0  0  0  0  0  0  0  0
   36.4400   27.8240   42.4300 C   0  0  0  0  0  2  0  0  0  0  0  0
   37.3640   27.8570   43.6030 C   0  0  0  0  0  2  0  0  0  0  0  0
   38.4110   28.8870   43.3140 C   0  0  0  0  0  2  0  0  0  0  0  0
   37.7760   29.6950   42.2060 C   0  0  0  0  0  3  0  0  0  0  0  0
   38.5440   30.1900   41.6130 H   0  0  0  0  0  0  0  0  0  0  0  0
   38.3410   31.4040   38.7990 C   0  0  0  0  0  3  0  0  0  0  0  0
   38.4270   30.1610   38.4590 C   0  0  0  0  0  3  0  0  0  0  0  0
   40.7840   34.1000   39.3210 C   0  0  0  0  0  0  0  0  0  0  0  0
   41.7060   33.8880   38.2880 C   0  0  0  0  0  0  0  0  0  0  0  0
   41.4670   32.8310   37.4430 C   0  0  0  0  0  0  0  0  0  0  0  0
   40.3740   32.0810   37.6660 N   0  0  0  0  0  0  0  0  0  0  0  0
   39.4960   32.2840   38.6510 C   0  0  0  0  0  0  0  0  0  0  0  0
   39.7180   33.2920   39.4620 N   0  0  0  0  0  0  0  0  0  0  0  0
   40.9940   34.9430   39.9750 H   0  0  0  0  0  0  0  0  0  0  0  0
   42.5880   34.4700   38.0860 H   0  0  0  0  0  0  0  0  0  0  0  0
   42.0920   32.5410   36.5970 H   0  0  0  0  0  0  0  0  0  0  0  0
  1  2  1  0  0  0  0
  1  4  1  0  0  0  0
  3  1  1  0  0  0  0
  4  7  1  6  0  0  0
  4  5  1  0  0  0  0
  4  6  1  0  0  0  0
  5  8  1  0  0  0  0
  5  6  1  0  0  0  0
  6 11  1  0  0  0  0
  6 10  1  1  0  0  0
  9  5  1  0  0  0  0
 11 15  1  0  0  0  0
 11 12  1  1  0  0  0
 12 13  1  0  0  0  0
 14 13  1  0  0  0  0
 15 14  1  0  0  0  0
 16 15  1  0  0  0  0
 18  1  1  0  0  0  0
 18 17  2  0  0  0  0
 19 24  1  0  0  0  0
 19 25  1  0  0  0  0
 20 19  2  0  0  0  0
 21 22  2  0  0  0  0
 21 20  1  0  0  0  0
 22 23  1  0  0  0  0
 23 17  1  0  0  0  0
 23 24  2  0  0  0  0
 26 20  1  0  0  0  0
 27 21  1  0  0  0  0
M  END
>  <minimizedAffinity>
-4.42301702

$$$$

 OpenBabel03252508123D

 27 29  0  0  1  0  0  0  0  0999 V2000
   37.5140   28.7400   41.3540 C   0  0  0  0  0  0  0  0  0  0  0  0
   37.5530   27.8300   40.7760 H   0  0  0  0  0  0  0  0  0  0  0  0
   36.5420   29.2420   41.0570 H   0  0  0  0  0  0  0  0  0  0  0  0
   37.4130   28.5860   42.8510 C   0  0  1  0  0  0  0  0  0  0  0  0
   36.5670   27.4480   43.3160 C   0  0  0  0  0  0  0  0  0  0  0  0
   38.0000   27.3930   43.5160 C   0  0  1  0  0  0  0  0  0  0  0  0
   37.1530   29.5200   43.4340 H   0  0  0  0  0  0  0  0  0  0  0  0
   35.9020   27.5340   44.2000 H   0  0  0  0  0  0  0  0  0  0  0  0
   36.1020   26.7980   42.5310 H   0  0  0  0  0  0  0  0  0  0  0  0
   38.3730   27.6050   44.5630 H   0  0  0  0  0  0  0  0  0  0  0  0
   38.9730   26.6750   42.7470 N   0  0  2  0  0  0  0  0  0  0  0  0
   38.5350   25.3190   42.4410 C   0  0  0  0  0  2  0  0  0  0  0  0
   39.6880   24.3980   42.6750 C   0  0  0  0  0  2  0  0  0  0  0  0
   40.8140   25.2250   43.2130 C   0  0  0  0  0  2  0  0  0  0  0  0
   40.1060   26.4770   43.6770 C   0  0  0  0  0  3  0  0  0  0  0  0
   40.7990   27.3170   43.6960 H   0  0  0  0  0  0  0  0  0  0  0  0
   38.1720   30.7550   40.2520 C   0  0  0  0  0  3  0  0  0  0  0  0
   38.5490   29.7650   40.9910 C   0  0  0  0  0  3  0  0  0  0  0  0
   40.3690   33.7020   40.2270 C   0  0  0  0  0  0  0  0  0  0  0  0
   40.9720   33.6290   38.9650 C   0  0  0  0  0  0  0  0  0  0  0  0
   40.6100   32.5770   38.1590 C   0  0  0  0  0  0  0  0  0  0  0  0
   39.7120   31.6980   38.6350 N   0  0  0  0  0  0  0  0  0  0  0  0
   39.1370   31.7680   39.8390 C   0  0  0  0  0  0  0  0  0  0  0  0
   39.4780   32.7710   40.6140 N   0  0  0  0  0  0  0  0  0  0  0  0
   40.6690   34.5450   40.8460 H   0  0  0  0  0  0  0  0  0  0  0  0
   41.6930   34.3160   38.5590 H   0  0  0  0  0  0  0  0  0  0  0  0
   40.9920   32.3860   37.1550 H   0  0  0  0  0  0  0  0  0  0  0  0
  1  4  1  0  0  0  0
  2  1  1  0  0  0  0
  3  1  1  0  0  0  0
  4  5  1  0  0  0  0
  4  7  1  1  0  0  0
  4  6  1  0  0  0  0
  5  6  1  0  0  0  0
  5  8  1  0  0  0  0
  6 10  1  1  0  0  0
  9  5  1  0  0  0  0
 11 12  1  1  0  0  0
 11  6  1  0  0  0  0
 11 15  1  0  0  0  0
 12 13  1  0  0  0  0
 13 14  1  0  0  0  0
 14 15  1  0  0  0  0
 15 16  1  0  0  0  0
 17 18  2  0  0  0  0
 18  1  1  0  0  0  0
 19 24  1  0  0  0  0
 19 25  1  0  0  0  0
 20 19  2  0  0  0  0
 21 22  2  0  0  0  0
 21 20  1  0  0  0  0
 22 23  1  0  0  0  0
 23 17  1  0  0  0  0
 23 24  2  0  0  0  0
 26 20  1  0  0  0  0
 27 21  1  0  0  0  0
M  END
>  <minimizedAffinity>
-4.22839546

$$$$

 OpenBabel03252508123D

 27 29  0  0  1  0  0  0  0  0999 V2000
   36.3910   30.9690   40.7500 C   0  0  0  0  0  0  0  0  0  0  0  0
   36.8330   31.3070   41.6740 H   0  0  0  0  0  0  0  0  0  0  0  0
   35.3150   31.3250   40.7850 H   0  0  0  0  0  0  0  0  0  0  0  0
   36.9410   31.5660   39.4800 C   0  0  1  0  0  0  0  0  0  0  0  0
   37.2150   33.0320   39.5330 C   0  0  0  0  0  0  0  0  0  0  0  0
   38.3260   32.1070   39.4530 C   0  0  1  0  0  0  0  0  0  0  0  0
   36.3860   31.3140   38.5270 H   0  0  0  0  0  0  0  0  0  0  0  0
   37.0050   33.7000   38.6730 H   0  0  0  0  0  0  0  0  0  0  0  0
   37.0150   33.5570   40.5030 H   0  0  0  0  0  0  0  0  0  0  0  0
   38.8250   32.0040   38.4420 H   0  0  0  0  0  0  0  0  0  0  0  0
   39.1830   31.6600   40.5100 N   0  0  2  0  0  0  0  0  0  0  0  0
   40.1610   32.6730   40.8860 C   0  0  0  0  0  2  0  0  0  0  0  0
   41.4850   32.0010   41.0440 C   0  0  0  0  0  2  0  0  0  0  0  0
   41.3000   30.5630   40.6690 C   0  0  0  0  0  2  0  0  0  0  0  0
   40.0030   30.5930   39.8950 C   0  0  0  0  0  3  0  0  0  0  0  0
   39.5260   29.6140   39.9220 H   0  0  0  0  0  0  0  0  0  0  0  0
   36.9960   28.7460   41.3830 C   0  0  0  0  0  3  0  0  0  0  0  0
   36.2510   29.4790   40.6240 C   0  0  0  0  0  3  0  0  0  0  0  0
   37.0500   25.1690   42.2300 C   0  0  0  0  0  0  0  0  0  0  0  0
   36.7830   24.5550   41.0000 C   0  0  0  0  0  0  0  0  0  0  0  0
   36.5930   25.3790   39.9170 C   0  0  0  0  0  0  0  0  0  0  0  0
   36.6740   26.7060   40.1130 N   0  0  0  0  0  0  0  0  0  0  0  0
   36.9300   27.2910   41.2860 C   0  0  0  0  0  0  0  0  0  0  0  0
   37.1120   26.5090   42.3250 N   0  0  0  0  0  0  0  0  0  0  0  0
   37.1980   24.4960   43.0710 H   0  0  0  0  0  0  0  0  0  0  0  0
   36.7110   23.4980   40.8130 H   0  0  0  0  0  0  0  0  0  0  0  0
   36.3770   25.0500   38.8990 H   0  0  0  0  0  0  0  0  0  0  0  0
  1  3  1  0  0  0  0
  1  2  1  0  0  0  0
  4  7  1  6  0  0  0
  4  5  1  0  0  0  0
  4  1  1  0  0  0  0
  5  9  1  0  0  0  0
  6 10  1  6  0  0  0
  6  4  1  0  0  0  0
  6  5  1  0  0  0  0
  6 11  1  0  0  0  0
  8  5  1  0  0  0  0
 11 12  1  6  0  0  0
 12 13  1  0  0  0  0
 14 13  1  0  0  0  0
 15 16  1  0  0  0  0
 15 11  1  0  0  0  0
 15 14  1  0  0  0  0
 18  1  1  0  0  0  0
 18 17  2  0  0  0  0
 19 24  1  0  0  0  0
 19 25  1  0  0  0  0
 20 19  2  0  0  0  0
 21 22  2  0  0  0  0
 21 20  1  0  0  0  0
 22 23  1  0  0  0  0
 23 17  1  0  0  0  0
 23 24  2  0  0  0  0
 26 20  1  0  0  0  0
 27 21  1  0  0  0  0
M  END
>  <minimizedAffinity>
-4.11626768

$$$$

 OpenBabel03252508123D

 27 29  0  0  1  0  0  0  0  0999 V2000
   35.9200   29.0520   40.3400 C   0  0  0  0  0  0  0  0  0  0  0  0
   35.5360   29.9490   40.8010 H   0  0  0  0  0  0  0  0  0  0  0  0
   35.0040   28.4760   39.9990 H   0  0  0  0  0  0  0  0  0  0  0  0
   36.7360   29.2330   39.0850 C   0  0  1  0  0  0  0  0  0  0  0  0
   36.0950   30.0640   38.0250 C   0  0  0  0  0  0  0  0  0  0  0  0
   37.2530   30.5790   38.7240 C   0  0  1  0  0  0  0  0  0  0  0  0
   37.1650   28.2920   38.6270 H   0  0  0  0  0  0  0  0  0  0  0  0
   36.1820   29.8120   36.9480 H   0  0  0  0  0  0  0  0  0  0  0  0
   35.0870   30.4980   38.2520 H   0  0  0  0  0  0  0  0  0  0  0  0
   38.2370   30.5430   38.1660 H   0  0  0  0  0  0  0  0  0  0  0  0
   37.2900   31.5320   39.7930 N   0  0  2  0  0  0  0  0  0  0  0  0
   37.1230   32.8990   39.3120 C   0  0  0  0  0  2  0  0  0  0  0  0
   38.1250   33.7590   40.0100 C   0  0  0  0  0  2  0  0  0  0  0  0
   38.9620   32.8590   40.8660 C   0  0  0  0  0  2  0  0  0  0  0  0
   38.6890   31.4970   40.2720 C   0  0  0  0  0  3  0  0  0  0  0  0
   38.8710   30.7200   41.0130 H   0  0  0  0  0  0  0  0  0  0  0  0
   37.8230   27.7900   41.0420 C   0  0  0  0  0  3  0  0  0  0  0  0
   36.5910   28.0950   41.2820 C   0  0  0  0  0  3  0  0  0  0  0  0
   39.0040   24.6720   42.5900 C   0  0  0  0  0  0  0  0  0  0  0  0
   39.8900   25.1300   43.5720 C   0  0  0  0  0  0  0  0  0  0  0  0
   40.0590   26.4890   43.6790 C   0  0  0  0  0  0  0  0  0  0  0  0
   39.3680   27.2770   42.8380 N   0  0  0  0  0  0  0  0  0  0  0  0
   38.5220   26.8400   41.9010 C   0  0  0  0  0  0  0  0  0  0  0  0
   38.3570   25.5430   41.7940 N   0  0  0  0  0  0  0  0  0  0  0  0
   38.8860   23.5920   42.5260 H   0  0  0  0  0  0  0  0  0  0  0  0
   40.4570   24.5230   44.2570 H   0  0  0  0  0  0  0  0  0  0  0  0
   40.7120   26.9940   44.3920 H   0  0  0  0  0  0  0  0  0  0  0  0
  1  2  1  0  0  0  0
  1 18  1  0  0  0  0
  3  1  1  0  0  0  0
  4  7  1  6  0  0  0
  4  1  1  0  0  0  0
  5  9  1  0  0  0  0
  5  6  1  0  0  0  0
  5  4  1  0  0  0  0
  6 10  1  6  0  0  0
  6  4  1  0  0  0  0
  6 11  1  0  0  0  0
  8  5  1  0  0  0  0
 11 12  1  6  0  0  0
 11 15  1  0  0  0  0
 12 13  1  0  0  0  0
 13 14  1  0  0  0  0
 15 14  1  0  0  0  0
 15 16  1  0  0  0  0
 17 18  2  0  0  0  0
 17 23  1  0  0  0  0
 19 20  1  0  0  0  0
 20 21  2  0  0  0  0
 20 26  1  0  0  0  0
 21 27  1  0  0  0  0
 22 21  1  0  0  0  0
 23 22  2  0  0  0  0
 24 23  1  0  0  0  0
 24 19  2  0  0  0  0
 25 19  1  0  0  0  0
M  END
>  <minimizedAffinity>
-4.11267185

$$$$

 OpenBabel03252508123D

 27 29  0  0  1  0  0  0  0  0999 V2000
   37.0960   29.1480   38.5370 C   0  0  0  0  0  0  0  0  0  0  0  0
   38.0240   28.8920   39.0240 H   0  0  0  0  0  0  0  0  0  0  0  0
   36.5860   28.1570   38.3280 H   0  0  0  0  0  0  0  0  0  0  0  0
   36.0930   29.9200   39.3560 C   0  0  1  0  0  0  0  0  0  0  0  0
   34.9090   29.1350   39.8130 C   0  0  0  0  0  0  0  0  0  0  0  0
   35.8840   29.5770   40.7880 C   0  0  1  0  0  0  0  0  0  0  0  0
   35.7550   30.9110   38.9300 H   0  0  0  0  0  0  0  0  0  0  0  0
   33.8890   29.5710   39.8350 H   0  0  0  0  0  0  0  0  0  0  0  0
   34.8730   28.0500   39.5350 H   0  0  0  0  0  0  0  0  0  0  0  0
   35.5960   30.4690   41.4220 H   0  0  0  0  0  0  0  0  0  0  0  0
   36.9320   28.8160   41.3990 N   0  0  2  0  0  0  0  0  0  0  0  0
   36.4160   27.8500   42.3620 C   0  0  0  0  0  2  0  0  0  0  0  0
   37.2770   27.9090   43.5810 C   0  0  0  0  0  2  0  0  0  0  0  0
   38.2800   28.9990   43.3630 C   0  0  0  0  0  2  0  0  0  0  0  0
   37.6590   29.7930   42.2380 C   0  0  0  0  0  3  0  0  0  0  0  0
   38.4290   30.3390   41.6930 H   0  0  0  0  0  0  0  0  0  0  0  0
   36.3260   29.4810   36.3000 C   0  0  0  0  0  3  0  0  0  0  0  0
   37.2440   29.7480   37.1680 C   0  0  0  0  0  3  0  0  0  0  0  0
   36.5150   31.7760   33.4340 C   0  0  0  0  0  0  0  0  0  0  0  0
   36.6270   30.9030   32.3450 C   0  0  0  0  0  0  0  0  0  0  0  0
   36.6340   29.5570   32.6200 C   0  0  0  0  0  0  0  0  0  0  0  0
   36.5350   29.1750   33.9040 N   0  0  0  0  0  0  0  0  0  0  0  0
   36.4280   30.0080   34.9430 C   0  0  0  0  0  0  0  0  0  0  0  0
   36.4200   31.2950   34.6870 N   0  0  0  0  0  0  0  0  0  0  0  0
   36.5100   32.8360   33.1910 H   0  0  0  0  0  0  0  0  0  0  0  0
   36.7080   31.1790   31.3080 H   0  0  0  0  0  0  0  0  0  0  0  0
   36.7150   28.7580   31.8800 H   0  0  0  0  0  0  0  0  0  0  0  0
  1  2  1  0  0  0  0
  1  4  1  0  0  0  0
  3  1  1  0  0  0  0
  4  7  1  6  0  0  0
  4  5  1  0  0  0  0
  4  6  1  0  0  0  0
  5  8  1  0  0  0  0
  5  6  1  0  0  0  0
  6 11  1  0  0  0  0
  6 10  1  1  0  0  0
  9  5  1  0  0  0  0
 11 15  1  0  0  0  0
 11 12  1  1  0  0  0
 12 13  1  0  0  0  0
 14 13  1  0  0  0  0
 15 14  1  0  0  0  0
 16 15  1  0  0  0  0
 17 18  2  0  0  0  0
 18  1  1  0  0  0  0
 19 24  1  0  0  0  0
 20 21  1  0  0  0  0
 20 19  2  0  0  0  0
 21 22  2  0  0  0  0
 22 23  1  0  0  0  0
 23 17  1  0  0  0  0
 24 23  2  0  0  0  0
 25 19  1  0  0  0  0
 26 20  1  0  0  0  0
 27 21  1  0  0  0  0
M  END
>  <minimizedAffinity>
-4.10340691

$$$$

 OpenBabel03252508123D

 27 29  0  0  1  0  0  0  0  0999 V2000
   35.7740   28.3530   39.4180 C   0  0  0  0  0  0  0  0  0  0  0  0
   36.7810   28.3300   39.0340 H   0  0  0  0  0  0  0  0  0  0  0  0
   35.4050   27.2830   39.3530 H   0  0  0  0  0  0  0  0  0  0  0  0
   35.6120   28.7170   40.8720 C   0  0  1  0  0  0  0  0  0  0  0  0
   36.6440   28.1480   41.7870 C   0  0  0  0  0  0  0  0  0  0  0  0
   36.6260   29.5750   41.5400 C   0  0  1  0  0  0  0  0  0  0  0  0
   34.5820   28.5650   41.3150 H   0  0  0  0  0  0  0  0  0  0  0  0
   36.3880   27.7730   42.8000 H   0  0  0  0  0  0  0  0  0  0  0  0
   37.4540   27.5270   41.3250 H   0  0  0  0  0  0  0  0  0  0  0  0
   36.1910   30.2240   42.3580 H   0  0  0  0  0  0  0  0  0  0  0  0
   37.4680   30.3310   40.6610 N   0  0  2  0  0  0  0  0  0  0  0  0
   38.7490   30.6560   41.2780 C   0  0  0  0  0  2  0  0  0  0  0  0
   39.0550   32.0870   40.9780 C   0  0  0  0  0  2  0  0  0  0  0  0
   37.8820   32.6450   40.2330 C   0  0  0  0  0  2  0  0  0  0  0  0
   36.7940   31.6420   40.5400 C   0  0  0  0  0  3  0  0  0  0  0  0
   36.0320   31.6630   39.7620 H   0  0  0  0  0  0  0  0  0  0  0  0
   34.0240   28.4080   37.7920 C   0  0  0  0  0  3  0  0  0  0  0  0
   34.7890   29.1020   38.5660 C   0  0  0  0  0  3  0  0  0  0  0  0
   32.3990   29.8560   34.8300 C   0  0  0  0  0  0  0  0  0  0  0  0
   31.1980   30.3570   35.3480 C   0  0  0  0  0  0  0  0  0  0  0  0
   30.9790   30.1870   36.6940 C   0  0  0  0  0  0  0  0  0  0  0  0
   31.9230   29.5560   37.4110 N   0  0  0  0  0  0  0  0  0  0  0  0
   33.0670   29.0780   36.9170 C   0  0  0  0  0  0  0  0  0  0  0  0
   33.2840   29.2370   35.6320 N   0  0  0  0  0  0  0  0  0  0  0  0
   32.5510   30.0040   33.7630 H   0  0  0  0  0  0  0  0  0  0  0  0
   30.4260   30.8650   34.7980 H   0  0  0  0  0  0  0  0  0  0  0  0
   30.0950   30.5210   37.2400 H   0  0  0  0  0  0  0  0  0  0  0  0
  1  4  1  0  0  0  0
  2  1  1  0  0  0  0
  3  1  1  0  0  0  0
  4  7  1  1  0  0  0
  4  6  1  0  0  0  0
  4  5  1  0  0  0  0
  5  8  1  0  0  0  0
  6  5  1  0  0  0  0
  6 10  1  1  0  0  0
  9  5  1  0  0  0  0
 11 12  1  1  0  0  0
 11  6  1  0  0  0  0
 13 12  1  0  0  0  0
 14 15  1  0  0  0  0
 14 13  1  0  0  0  0
 15 11  1  0  0  0  0
 16 15  1  0  0  0  0
 17 18  2  0  0  0  0
 18  1  1  0  0  0  0
 19 20  2  0  0  0  0
 19 24  1  0  0  0  0
 20 21  1  0  0  0  0
 21 27  1  0  0  0  0
 21 22  2  0  0  0  0
 23 22  1  0  0  0  0
 23 17  1  0  0  0  0
 24 23  2  0  0  0  0
 25 19  1  0  0  0  0
 26 20  1  0  0  0  0
M  END
>  <minimizedAffinity>
-4.04569626

$$$$

 OpenBabel03252508123D

 27 29  0  0  1  0  0  0  0  0999 V2000
   38.6430   29.6200   43.0290 C   0  0  0  0  0  0  0  0  0  0  0  0
   37.6880   30.1090   43.1400 H   0  0  0  0  0  0  0  0  0  0  0  0
   39.0060   29.4300   44.0860 H   0  0  0  0  0  0  0  0  0  0  0  0
   38.6320   28.2550   42.3860 C   0  0  1  0  0  0  0  0  0  0  0  0
   37.4690   27.3930   42.7470 C   0  0  0  0  0  0  0  0  0  0  0  0
   37.5760   27.9080   41.3990 C   0  0  1  0  0  0  0  0  0  0  0  0
   39.5900   27.6590   42.4620 H   0  0  0  0  0  0  0  0  0  0  0  0
   37.5790   26.3020   42.9180 H   0  0  0  0  0  0  0  0  0  0  0  0
   36.7010   27.8290   43.4360 H   0  0  0  0  0  0  0  0  0  0  0  0
   37.9290   27.1820   40.6060 H   0  0  0  0  0  0  0  0  0  0  0  0
   36.8850   29.0210   40.8200 N   0  0  2  0  0  0  0  0  0  0  0  0
   35.4430   28.8100   40.7860 C   0  0  0  0  0  2  0  0  0  0  0  0
   34.9440   29.2440   39.4460 C   0  0  0  0  0  2  0  0  0  0  0  0
   36.1390   29.6450   38.6370 C   0  0  0  0  0  2  0  0  0  0  0  0
   37.2760   28.9990   39.3940 C   0  0  0  0  0  3  0  0  0  0  0  0
   38.2080   29.5270   39.1950 H   0  0  0  0  0  0  0  0  0  0  0  0
   39.3740   31.4240   41.6440 C   0  0  0  0  0  3  0  0  0  0  0  0
   39.7300   30.4770   42.4470 C   0  0  0  0  0  3  0  0  0  0  0  0
   42.5740   33.0290   40.8080 C   0  0  0  0  0  0  0  0  0  0  0  0
   42.2190   33.9110   39.7790 C   0  0  0  0  0  0  0  0  0  0  0  0
   40.8980   33.9340   39.4020 C   0  0  0  0  0  0  0  0  0  0  0  0
   40.0470   33.1130   40.0400 N   0  0  0  0  0  0  0  0  0  0  0  0
   40.3860   32.2720   41.0200 C   0  0  0  0  0  0  0  0  0  0  0  0
   41.6460   32.2450   41.3860 N   0  0  0  0  0  0  0  0  0  0  0  0
   43.6240   33.0310   41.0900 H   0  0  0  0  0  0  0  0  0  0  0  0
   42.8780   34.5780   39.2510 H   0  0  0  0  0  0  0  0  0  0  0  0
   40.4720   34.5640   38.6200 H   0  0  0  0  0  0  0  0  0  0  0  0
  1  2  1  0  0  0  0
  1  3  1  0  0  0  0
  4  7  1  6  0  0  0
  4  5  1  0  0  0  0
  4  1  1  0  0  0  0
  5  8  1  0  0  0  0
  5  9  1  0  0  0  0
  6 10  1  6  0  0  0
  6  4  1  0  0  0  0
  6  5  1  0  0  0  0
 11 12  1  6  0  0  0
 11  6  1  0  0  0  0
 13 12  1  0  0  0  0
 14 15  1  0  0  0  0
 14 13  1  0  0  0  0
 15 11  1  0  0  0  0
 16 15  1  0  0  0  0
 17 18  2  0  0  0  0
 18  1  1  0  0  0  0
 19 25  1  0  0  0  0
 19 24  1  0  0  0  0
 20 19  2  0  0  0  0
 21 20  1  0  0  0  0
 21 22  2  0  0  0  0
 22 23  1  0  0  0  0
 23 24  2  0  0  0  0
 23 17  1  0  0  0  0
 26 20  1  0  0  0  0
 27 21  1  0  0  0  0
M  END
>  <minimizedAffinity>
-4.02615356

$$$$
