
 OpenBabel03252503203D

 36 39  0  0  0  0  0  0  0  0999 V2000
   35.4640   29.1380   39.5140 C   0  0  0  0  0  0  0  0  0  0  0  0
   34.3050   29.2380   40.0060 O   0  0  0  0  0  0  0  0  0  0  0  0
   36.3780   30.2900   39.2340 C   0  0  0  0  0  0  0  0  0  0  0  0
   36.6700   31.3270   40.0710 C   0  0  0  0  0  0  0  0  0  0  0  0
   37.5280   32.1120   39.3960 N   0  0  0  0  0  0  0  0  0  0  0  0
   37.7570   31.5750   38.1840 C   0  0  0  0  0  0  0  0  0  0  0  0
   37.0450   30.4500   38.0860 N   0  0  0  0  0  0  0  0  0  0  0  0
   38.5770   32.0270   37.1250 N   0  0  0  0  0  0  0  0  0  0  0  0
   36.2970   31.4970   41.0730 H   0  0  0  0  0  0  0  0  0  0  0  0
   39.5350   31.6190   37.2230 H   0  0  0  0  0  0  0  0  0  0  0  0
   38.4130   32.6510   36.3150 H   0  0  0  0  0  0  0  0  0  0  0  0
   38.1560   33.3530   39.8250 C   0  0  0  0  0  0  0  0  0  0  0  0
   37.5360   33.7860   40.6320 H   0  0  0  0  0  0  0  0  0  0  0  0
   38.0320   34.0510   38.9510 H   0  0  0  0  0  0  0  0  0  0  0  0
   39.4910   33.3030   40.1560 N   0  0  0  0  0  0  0  0  0  0  0  0
   40.0270   32.3120   40.9610 C   0  0  0  0  0  2  0  0  0  0  0  0
   41.5310   32.5880   40.9090 C   0  0  0  0  0  2  0  0  0  0  0  0
   41.6240   34.0470   40.4480 C   0  0  0  0  0  2  0  0  0  0  0  0
   40.4310   34.1150   39.5140 C   0  0  0  0  0  3  0  0  0  0  0  0
   40.7130   33.6590   38.5260 H   0  0  0  0  0  0  0  0  0  0  0  0
   35.5050   27.1950   38.0120 C   0  0  0  0  0  0  0  0  0  0  0  0
   35.8860   27.8140   39.2190 C   0  0  0  0  0  0  0  0  0  0  0  0
   36.6780   27.0170   40.0330 C   0  0  0  0  0  0  0  0  0  0  0  0
   37.0530   25.7780   39.7170 N   0  0  0  0  0  0  0  0  0  0  0  0
   36.6510   25.2300   38.5330 C   0  0  0  0  0  0  0  0  0  0  0  0
   35.8840   25.9440   37.6970 N   0  0  0  0  0  0  0  0  0  0  0  0
   34.8850   27.7830   37.3460 H   0  0  0  0  0  0  0  0  0  0  0  0
   36.9650   24.2280   38.2950 H   0  0  0  0  0  0  0  0  0  0  0  0
   37.1110   27.5630   41.2800 C   0  0  0  0  0  0  0  0  0  0  0  0
   36.6030   27.6600   42.5320 C   0  0  0  0  0  0  0  0  0  0  0  0
   37.2350   28.2320   43.5280 C   0  0  0  0  0  0  0  0  0  0  0  0
   38.4430   28.7280   43.2370 C   0  0  0  0  0  0  0  0  0  0  0  0
   38.6950   28.3690   41.4680 S   0  0  0  0  0  0  0  0  0  0  0  0
   35.5940   27.2030   42.6210 H   0  0  0  0  0  0  0  0  0  0  0  0
   36.8760   28.3360   44.5430 H   0  0  0  0  0  0  0  0  0  0  0  0
   39.2010   29.2800   43.9360 H   0  0  0  0  0  0  0  0  0  0  0  0
  1  2  2  0  0  0  0
  3  1  1  0  0  0  0
  3  4  2  0  0  0  0
  4  9  1  0  0  0  0
  5 12  1  0  0  0  0
  5  4  1  0  0  0  0
  6  5  1  0  0  0  0
  7  6  2  0  0  0  0
  7  3  1  0  0  0  0
  8 10  1  0  0  0  0
  8  6  1  0  0  0  0
 11  8  1  0  0  0  0
 12 15  1  0  0  0  0
 12 13  1  0  0  0  0
 14 12  1  0  0  0  0
 15 16  1  0  0  0  0
 17 16  1  0  0  0  0
 18 17  1  0  0  0  0
 19 15  1  0  0  0  0
 19 18  1  0  0  0  0
 20 19  1  0  0  0  0
 21 22  1  0  0  0  0
 22  1  1  0  0  0  0
 22 23  2  0  0  0  0
 23 29  1  0  0  0  0
 24 23  1  0  0  0  0
 25 24  2  0  0  0  0
 26 21  2  0  0  0  0
 26 25  1  0  0  0  0
 27 21  1  0  0  0  0
 28 25  1  0  0  0  0
 29 33  1  0  0  0  0
 29 30  2  0  0  0  0
 30 34  1  0  0  0  0
 30 31  1  0  0  0  0
 31 35  1  0  0  0  0
 32 31  2  0  0  0  0
 32 36  1  0  0  0  0
 33 32  1  0  0  0  0
M  END
>  <minimizedAffinity>
-5.62807274

$$$$

 OpenBabel03252503203D

 36 39  0  0  0  0  0  0  0  0999 V2000
   38.4650   32.5870   40.1110 C   0  0  0  0  0  0  0  0  0  0  0  0
   37.6470   33.5470   40.1610 O   0  0  0  0  0  0  0  0  0  0  0  0
   38.3470   31.3190   40.8990 C   0  0  0  0  0  0  0  0  0  0  0  0
   37.2150   30.5880   41.1120 C   0  0  0  0  0  0  0  0  0  0  0  0
   37.5920   29.5430   41.8700 N   0  0  0  0  0  0  0  0  0  0  0  0
   38.9120   29.6280   42.1150 C   0  0  0  0  0  0  0  0  0  0  0  0
   39.3770   30.7260   41.5150 N   0  0  0  0  0  0  0  0  0  0  0  0
   39.7600   28.7750   42.8570 N   0  0  0  0  0  0  0  0  0  0  0  0
   36.2150   30.7930   40.7530 H   0  0  0  0  0  0  0  0  0  0  0  0
   40.1670   28.0470   42.2260 H   0  0  0  0  0  0  0  0  0  0  0  0
   40.0400   28.7410   43.8530 H   0  0  0  0  0  0  0  0  0  0  0  0
   36.7780   28.4530   42.3860 C   0  0  0  0  0  0  0  0  0  0  0  0
   35.7260   28.7960   42.4070 H   0  0  0  0  0  0  0  0  0  0  0  0
   37.0770   28.3610   43.4670 H   0  0  0  0  0  0  0  0  0  0  0  0
   36.9180   27.2220   41.7880 N   0  0  0  0  0  0  0  0  0  0  0  0
   36.7960   27.0340   40.4220 C   0  0  0  0  0  2  0  0  0  0  0  0
   37.1840   25.5670   40.2300 C   0  0  0  0  0  2  0  0  0  0  0  0
   37.0070   24.9520   41.6230 C   0  0  0  0  0  2  0  0  0  0  0  0
   37.4200   26.1230   42.4930 C   0  0  0  0  0  3  0  0  0  0  0  0
   38.5430   26.1770   42.5270 H   0  0  0  0  0  0  0  0  0  0  0  0
   40.5630   33.7190   39.5200 C   0  0  0  0  0  0  0  0  0  0  0  0
   39.5630   32.7700   39.2290 C   0  0  0  0  0  0  0  0  0  0  0  0
   39.7730   32.0790   38.0450 C   0  0  0  0  0  0  0  0  0  0  0  0
   40.8200   32.2820   37.2450 N   0  0  0  0  0  0  0  0  0  0  0  0
   41.7570   33.2160   37.5800 C   0  0  0  0  0  0  0  0  0  0  0  0
   41.6170   33.9210   38.7110 N   0  0  0  0  0  0  0  0  0  0  0  0
   40.4370   34.2820   40.4380 H   0  0  0  0  0  0  0  0  0  0  0  0
   42.5960   33.3650   36.9210 H   0  0  0  0  0  0  0  0  0  0  0  0
   38.8070   31.0960   37.6670 C   0  0  0  0  0  0  0  0  0  0  0  0
   37.5620   31.1060   37.1340 C   0  0  0  0  0  0  0  0  0  0  0  0
   36.8750   30.0190   36.8790 C   0  0  0  0  0  0  0  0  0  0  0  0
   37.4850   28.8660   37.1780 C   0  0  0  0  0  0  0  0  0  0  0  0
   39.1080   29.3440   37.8560 S   0  0  0  0  0  0  0  0  0  0  0  0
   37.1880   32.1340   36.9390 H   0  0  0  0  0  0  0  0  0  0  0  0
   35.8810   29.9720   36.4560 H   0  0  0  0  0  0  0  0  0  0  0  0
   37.0940   27.7720   37.0500 H   0  0  0  0  0  0  0  0  0  0  0  0
  1  2  2  0  0  0  0
  1  3  1  0  0  0  0
  3  4  2  0  0  0  0
  3  7  1  0  0  0  0
  4  5  1  0  0  0  0
  5  6  1  0  0  0  0
  5 12  1  0  0  0  0
  6  8  1  0  0  0  0
  7  6  2  0  0  0  0
  8 11  1  0  0  0  0
  9  4  1  0  0  0  0
 10  8  1  0  0  0  0
 12 13  1  0  0  0  0
 12 14  1  0  0  0  0
 15 12  1  0  0  0  0
 15 19  1  0  0  0  0
 16 15  1  0  0  0  0
 17 16  1  0  0  0  0
 17 18  1  0  0  0  0
 18 19  1  0  0  0  0
 19 20  1  0  0  0  0
 21 27  1  0  0  0  0
 22 21  1  0  0  0  0
 22  1  1  0  0  0  0
 23 22  2  0  0  0  0
 24 25  2  0  0  0  0
 24 23  1  0  0  0  0
 25 26  1  0  0  0  0
 26 21  2  0  0  0  0
 28 25  1  0  0  0  0
 29 33  1  0  0  0  0
 29 23  1  0  0  0  0
 30 29  2  0  0  0  0
 31 30  1  0  0  0  0
 31 32  2  0  0  0  0
 32 33  1  0  0  0  0
 34 30  1  0  0  0  0
 35 31  1  0  0  0  0
 36 32  1  0  0  0  0
M  END
>  <minimizedAffinity>
-5.48336697

$$$$

 OpenBabel03252503203D

 36 39  0  0  0  0  0  0  0  0999 V2000
   35.9020   29.3420   39.5230 C   0  0  0  0  0  0  0  0  0  0  0  0
   34.9110   29.6690   40.2330 O   0  0  0  0  0  0  0  0  0  0  0  0
   36.9340   30.2950   39.0030 C   0  0  0  0  0  0  0  0  0  0  0  0
   37.9540   30.8650   39.7080 C   0  0  0  0  0  0  0  0  0  0  0  0
   38.6140   31.6420   38.8310 N   0  0  0  0  0  0  0  0  0  0  0  0
   38.0210   31.5530   37.6280 C   0  0  0  0  0  0  0  0  0  0  0  0
   36.9830   30.7210   37.7350 N   0  0  0  0  0  0  0  0  0  0  0  0
   38.3450   32.1770   36.4010 N   0  0  0  0  0  0  0  0  0  0  0  0
   38.1940   30.7310   40.7540 H   0  0  0  0  0  0  0  0  0  0  0  0
   38.9990   31.5690   35.8580 H   0  0  0  0  0  0  0  0  0  0  0  0
   38.0670   33.0740   35.9650 H   0  0  0  0  0  0  0  0  0  0  0  0
   39.7860   32.4750   39.0580 C   0  0  0  0  0  0  0  0  0  0  0  0
   40.0200   32.4450   40.1380 H   0  0  0  0  0  0  0  0  0  0  0  0
   39.4300   33.5250   38.8640 H   0  0  0  0  0  0  0  0  0  0  0  0
   40.8910   32.2380   38.2730 N   0  0  0  0  0  0  0  0  0  0  0  0
   41.6460   33.2550   37.7140 C   0  0  0  0  0  2  0  0  0  0  0  0
   42.8260   32.5150   37.0820 C   0  0  0  0  0  2  0  0  0  0  0  0
   42.3260   31.0720   36.9430 C   0  0  0  0  0  2  0  0  0  0  0  0
   41.4580   30.9630   38.1820 C   0  0  0  0  0  3  0  0  0  0  0  0
   42.1160   30.7760   39.0750 H   0  0  0  0  0  0  0  0  0  0  0  0
   35.4830   27.4510   38.0130 C   0  0  0  0  0  0  0  0  0  0  0  0
   36.0040   27.9580   39.2210 C   0  0  0  0  0  0  0  0  0  0  0  0
   36.5910   26.9950   40.0270 C   0  0  0  0  0  0  0  0  0  0  0  0
   36.6660   25.7040   39.7040 N   0  0  0  0  0  0  0  0  0  0  0  0
   36.1430   25.2710   38.5200 C   0  0  0  0  0  0  0  0  0  0  0  0
   35.5600   26.1490   37.6910 N   0  0  0  0  0  0  0  0  0  0  0  0
   35.0150   28.1710   37.3530 H   0  0  0  0  0  0  0  0  0  0  0  0
   36.2140   24.2240   38.2760 H   0  0  0  0  0  0  0  0  0  0  0  0
   37.1450   27.4180   41.2750 C   0  0  0  0  0  0  0  0  0  0  0  0
   36.6680   27.6800   42.5150 C   0  0  0  0  0  0  0  0  0  0  0  0
   37.4230   28.0670   43.5150 C   0  0  0  0  0  0  0  0  0  0  0  0
   38.7260   28.1920   43.2390 C   0  0  0  0  0  0  0  0  0  0  0  0
   38.8900   27.7420   41.4810 S   0  0  0  0  0  0  0  0  0  0  0  0
   35.5690   27.5330   42.5910 H   0  0  0  0  0  0  0  0  0  0  0  0
   37.0940   28.2890   44.5210 H   0  0  0  0  0  0  0  0  0  0  0  0
   39.6000   28.5180   43.9450 H   0  0  0  0  0  0  0  0  0  0  0  0
  1  2  2  0  0  0  0
  3  1  1  0  0  0  0
  3  4  2  0  0  0  0
  4  9  1  0  0  0  0
  5 12  1  0  0  0  0
  5  4  1  0  0  0  0
  6  7  2  0  0  0  0
  6  5  1  0  0  0  0
  7  3  1  0  0  0  0
  8  6  1  0  0  0  0
 10  8  1  0  0  0  0
 11  8  1  0  0  0  0
 12 13  1  0  0  0  0
 14 12  1  0  0  0  0
 15 12  1  0  0  0  0
 16 15  1  0  0  0  0
 17 16  1  0  0  0  0
 18 17  1  0  0  0  0
 18 19  1  0  0  0  0
 19 15  1  0  0  0  0
 19 20  1  0  0  0  0
 21 22  1  0  0  0  0
 22  1  1  0  0  0  0
 22 23  2  0  0  0  0
 23 29  1  0  0  0  0
 24 23  1  0  0  0  0
 25 24  2  0  0  0  0
 26 21  2  0  0  0  0
 26 25  1  0  0  0  0
 27 21  1  0  0  0  0
 28 25  1  0  0  0  0
 29 33  1  0  0  0  0
 29 30  2  0  0  0  0
 30 34  1  0  0  0  0
 30 31  1  0  0  0  0
 31 35  1  0  0  0  0
 32 31  2  0  0  0  0
 32 36  1  0  0  0  0
 33 32  1  0  0  0  0
M  END
>  <minimizedAffinity>
-5.44237423

$$$$

 OpenBabel03252503203D

 36 39  0  0  0  0  0  0  0  0999 V2000
   37.2760   30.6490   40.8090 C   0  0  0  0  0  0  0  0  0  0  0  0
   36.2780   31.3800   41.0610 O   0  0  0  0  0  0  0  0  0  0  0  0
   38.4020   31.0230   39.8960 C   0  0  0  0  0  0  0  0  0  0  0  0
   39.7380   30.9350   40.1620 C   0  0  0  0  0  0  0  0  0  0  0  0
   40.3610   31.3800   39.0570 N   0  0  0  0  0  0  0  0  0  0  0  0
   39.4410   31.7290   38.1410 C   0  0  0  0  0  0  0  0  0  0  0  0
   38.2310   31.5080   38.6610 N   0  0  0  0  0  0  0  0  0  0  0  0
   39.6020   32.2460   36.8350 N   0  0  0  0  0  0  0  0  0  0  0  0
   40.2120   30.5840   41.0700 H   0  0  0  0  0  0  0  0  0  0  0  0
   39.6410   31.4600   36.1470 H   0  0  0  0  0  0  0  0  0  0  0  0
   39.6810   33.2060   36.4560 H   0  0  0  0  0  0  0  0  0  0  0  0
   41.7890   31.4980   38.8040 C   0  0  0  0  0  0  0  0  0  0  0  0
   42.3230   31.2310   39.7360 H   0  0  0  0  0  0  0  0  0  0  0  0
   41.9640   32.6020   38.6710 H   0  0  0  0  0  0  0  0  0  0  0  0
   42.2930   30.8420   37.7040 N   0  0  0  0  0  0  0  0  0  0  0  0
   43.0880   31.4660   36.7580 C   0  0  0  0  0  2  0  0  0  0  0  0
   43.5180   30.3180   35.8430 C   0  0  0  0  0  2  0  0  0  0  0  0
   42.4840   29.2200   36.1160 C   0  0  0  0  0  2  0  0  0  0  0  0
   42.2250   29.4500   37.5930 C   0  0  0  0  0  3  0  0  0  0  0  0
   43.0570   28.9820   38.1880 H   0  0  0  0  0  0  0  0  0  0  0  0
   37.8150   29.2590   42.7610 C   0  0  0  0  0  0  0  0  0  0  0  0
   37.2860   29.3870   41.4620 C   0  0  0  0  0  0  0  0  0  0  0  0
   36.8040   28.1990   40.9320 C   0  0  0  0  0  0  0  0  0  0  0  0
   36.8320   27.0350   41.5800 N   0  0  0  0  0  0  0  0  0  0  0  0
   37.3580   26.9730   42.8380 C   0  0  0  0  0  0  0  0  0  0  0  0
   37.8420   28.0830   43.4110 N   0  0  0  0  0  0  0  0  0  0  0  0
   38.2020   30.1650   43.2130 H   0  0  0  0  0  0  0  0  0  0  0  0
   37.3710   26.0230   43.3450 H   0  0  0  0  0  0  0  0  0  0  0  0
   36.2510   28.2330   39.6150 C   0  0  0  0  0  0  0  0  0  0  0  0
   35.0550   28.5560   39.0670 C   0  0  0  0  0  0  0  0  0  0  0  0
   34.8080   28.4950   37.7810 C   0  0  0  0  0  0  0  0  0  0  0  0
   35.8270   28.0890   37.0150 C   0  0  0  0  0  0  0  0  0  0  0  0
   37.2000   27.7750   38.1710 S   0  0  0  0  0  0  0  0  0  0  0  0
   34.3090   28.8750   39.8260 H   0  0  0  0  0  0  0  0  0  0  0  0
   33.8740   28.7410   37.2940 H   0  0  0  0  0  0  0  0  0  0  0  0
   35.8660   27.9510   35.8550 H   0  0  0  0  0  0  0  0  0  0  0  0
  1  2  2  0  0  0  0
  1 22  1  0  0  0  0
  3  4  2  0  0  0  0
  3  1  1  0  0  0  0
  4  9  1  0  0  0  0
  5  4  1  0  0  0  0
  6  7  2  0  0  0  0
  6  5  1  0  0  0  0
  7  3  1  0  0  0  0
  8  6  1  0  0  0  0
 10  8  1  0  0  0  0
 11  8  1  0  0  0  0
 12  5  1  0  0  0  0
 12 13  1  0  0  0  0
 14 12  1  0  0  0  0
 15 12  1  0  0  0  0
 16 15  1  0  0  0  0
 17 18  1  0  0  0  0
 17 16  1  0  0  0  0
 18 19  1  0  0  0  0
 19 15  1  0  0  0  0
 19 20  1  0  0  0  0
 21 27  1  0  0  0  0
 21 26  1  0  0  0  0
 22 21  2  0  0  0  0
 23 22  1  0  0  0  0
 23 24  2  0  0  0  0
 24 25  1  0  0  0  0
 25 28  1  0  0  0  0
 25 26  2  0  0  0  0
 29 23  1  0  0  0  0
 30 29  2  0  0  0  0
 30 34  1  0  0  0  0
 31 30  1  0  0  0  0
 32 31  2  0  0  0  0
 32 33  1  0  0  0  0
 33 29  1  0  0  0  0
 35 31  1  0  0  0  0
 36 32  1  0  0  0  0
M  END
>  <minimizedAffinity>
-5.3737731

$$$$

 OpenBabel03252503203D

 36 39  0  0  0  0  0  0  0  0999 V2000
   37.3640   30.6730   40.9860 C   0  0  0  0  0  0  0  0  0  0  0  0
   36.1890   31.0170   41.2930 O   0  0  0  0  0  0  0  0  0  0  0  0
   38.2890   31.4650   40.1160 C   0  0  0  0  0  0  0  0  0  0  0  0
   39.1480   32.4480   40.5130 C   0  0  0  0  0  0  0  0  0  0  0  0
   39.7660   32.8680   39.3950 N   0  0  0  0  0  0  0  0  0  0  0  0
   39.3020   32.1670   38.3450 C   0  0  0  0  0  0  0  0  0  0  0  0
   38.3900   31.3010   38.7920 N   0  0  0  0  0  0  0  0  0  0  0  0
   39.6420   32.2430   36.9740 N   0  0  0  0  0  0  0  0  0  0  0  0
   39.3100   32.8230   41.5150 H   0  0  0  0  0  0  0  0  0  0  0  0
   40.4230   31.5800   36.7680 H   0  0  0  0  0  0  0  0  0  0  0  0
   39.2770   32.8000   36.1820 H   0  0  0  0  0  0  0  0  0  0  0  0
   40.7790   33.9020   39.2490 C   0  0  0  0  0  0  0  0  0  0  0  0
   40.8450   34.4500   40.2080 H   0  0  0  0  0  0  0  0  0  0  0  0
   40.3340   34.6360   38.5220 H   0  0  0  0  0  0  0  0  0  0  0  0
   42.0130   33.5160   38.7780 N   0  0  0  0  0  0  0  0  0  0  0  0
   42.6510   34.1610   37.7320 C   0  0  0  0  0  2  0  0  0  0  0  0
   44.0240   33.4870   37.6850 C   0  0  0  0  0  2  0  0  0  0  0  0
   43.8120   32.1630   38.4290 C   0  0  0  0  0  2  0  0  0  0  0  0
   42.8020   32.5970   39.4750 C   0  0  0  0  0  3  0  0  0  0  0  0
   43.3430   33.1200   40.3110 H   0  0  0  0  0  0  0  0  0  0  0  0
   38.4900   29.3930   42.7540 C   0  0  0  0  0  0  0  0  0  0  0  0
   37.7950   29.4330   41.5290 C   0  0  0  0  0  0  0  0  0  0  0  0
   37.5960   28.1850   40.9560 C   0  0  0  0  0  0  0  0  0  0  0  0
   38.0170   27.0440   41.5010 N   0  0  0  0  0  0  0  0  0  0  0  0
   38.6860   27.0690   42.6900 C   0  0  0  0  0  0  0  0  0  0  0  0
   38.9140   28.2400   43.3000 N   0  0  0  0  0  0  0  0  0  0  0  0
   38.6670   30.3460   43.2370 H   0  0  0  0  0  0  0  0  0  0  0  0
   39.0180   26.1360   43.1150 H   0  0  0  0  0  0  0  0  0  0  0  0
   36.9000   28.1290   39.7090 C   0  0  0  0  0  0  0  0  0  0  0  0
   35.6130   28.2420   39.3030 C   0  0  0  0  0  0  0  0  0  0  0  0
   35.2370   28.1460   38.0510 C   0  0  0  0  0  0  0  0  0  0  0  0
   36.2190   27.9260   37.1680 C   0  0  0  0  0  0  0  0  0  0  0  0
   37.7460   27.8500   38.1590 S   0  0  0  0  0  0  0  0  0  0  0  0
   34.9130   28.4230   40.1470 H   0  0  0  0  0  0  0  0  0  0  0  0
   34.2260   28.2270   37.6750 H   0  0  0  0  0  0  0  0  0  0  0  0
   36.1510   27.8030   36.0070 H   0  0  0  0  0  0  0  0  0  0  0  0
  1  2  2  0  0  0  0
  1 22  1  0  0  0  0
  3  4  2  0  0  0  0
  3  1  1  0  0  0  0
  4  9  1  0  0  0  0
  5  4  1  0  0  0  0
  6  7  2  0  0  0  0
  6  5  1  0  0  0  0
  7  3  1  0  0  0  0
  8  6  1  0  0  0  0
 10  8  1  0  0  0  0
 11  8  1  0  0  0  0
 12  5  1  0  0  0  0
 12 13  1  0  0  0  0
 14 12  1  0  0  0  0
 15 12  1  0  0  0  0
 15 19  1  0  0  0  0
 16 15  1  0  0  0  0
 17 16  1  0  0  0  0
 17 18  1  0  0  0  0
 18 19  1  0  0  0  0
 19 20  1  0  0  0  0
 21 27  1  0  0  0  0
 21 26  1  0  0  0  0
 22 21  2  0  0  0  0
 23 24  2  0  0  0  0
 23 22  1  0  0  0  0
 24 25  1  0  0  0  0
 25 28  1  0  0  0  0
 25 26  2  0  0  0  0
 29 23  1  0  0  0  0
 30 29  2  0  0  0  0
 30 34  1  0  0  0  0
 31 30  1  0  0  0  0
 32 31  2  0  0  0  0
 32 33  1  0  0  0  0
 33 29  1  0  0  0  0
 35 31  1  0  0  0  0
 36 32  1  0  0  0  0
M  END
>  <minimizedAffinity>
-5.34356594

$$$$

 OpenBabel03252503203D

 36 39  0  0  0  0  0  0  0  0999 V2000
   37.1810   27.1820   42.8000 C   0  0  0  0  0  0  0  0  0  0  0  0
   36.2560   27.2310   43.6580 O   0  0  0  0  0  0  0  0  0  0  0  0
   38.3630   28.1000   42.7620 C   0  0  0  0  0  0  0  0  0  0  0  0
   38.3440   29.4600   42.6530 C   0  0  0  0  0  0  0  0  0  0  0  0
   39.6310   29.8460   42.6600 N   0  0  0  0  0  0  0  0  0  0  0  0
   40.4170   28.7600   42.7680 C   0  0  0  0  0  0  0  0  0  0  0  0
   39.6330   27.6820   42.8300 N   0  0  0  0  0  0  0  0  0  0  0  0
   41.8270   28.6540   42.8160 N   0  0  0  0  0  0  0  0  0  0  0  0
   37.4790   30.1070   42.5770 H   0  0  0  0  0  0  0  0  0  0  0  0
   42.1490   28.6920   43.8110 H   0  0  0  0  0  0  0  0  0  0  0  0
   42.5570   28.5480   42.0900 H   0  0  0  0  0  0  0  0  0  0  0  0
   40.1780   31.1920   42.5680 C   0  0  0  0  0  0  0  0  0  0  0  0
   41.2130   31.1650   42.9590 H   0  0  0  0  0  0  0  0  0  0  0  0
   39.5940   31.7880   43.3240 H   0  0  0  0  0  0  0  0  0  0  0  0
   40.0920   31.8270   41.3510 N   0  0  0  0  0  0  0  0  0  0  0  0
   39.0860   32.7280   41.0450 C   0  0  0  0  0  2  0  0  0  0  0  0
   39.5000   33.2710   39.6760 C   0  0  0  0  0  2  0  0  0  0  0  0
   40.4760   32.2180   39.1400 C   0  0  0  0  0  2  0  0  0  0  0  0
   41.1430   31.7820   40.4310 C   0  0  0  0  0  3  0  0  0  0  0  0
   41.9260   32.5390   40.7120 H   0  0  0  0  0  0  0  0  0  0  0  0
   37.2290   24.8120   42.1580 C   0  0  0  0  0  0  0  0  0  0  0  0
   37.0440   26.1660   41.8170 C   0  0  0  0  0  0  0  0  0  0  0  0
   36.7300   26.3710   40.4810 C   0  0  0  0  0  0  0  0  0  0  0  0
   36.6110   25.3860   39.5900 N   0  0  0  0  0  0  0  0  0  0  0  0
   36.8020   24.0930   39.9800 C   0  0  0  0  0  0  0  0  0  0  0  0
   37.1080   23.8220   41.2570 N   0  0  0  0  0  0  0  0  0  0  0  0
   37.4750   24.6080   43.1930 H   0  0  0  0  0  0  0  0  0  0  0  0
   36.7000   23.3110   39.2460 H   0  0  0  0  0  0  0  0  0  0  0  0
   36.5270   27.7150   40.0420 C   0  0  0  0  0  0  0  0  0  0  0  0
   35.5640   28.6560   40.1910 C   0  0  0  0  0  0  0  0  0  0  0  0
   35.6330   29.8530   39.6620 C   0  0  0  0  0  0  0  0  0  0  0  0
   36.7370   30.1070   38.9490 C   0  0  0  0  0  0  0  0  0  0  0  0
   37.7220   28.5760   39.0300 S   0  0  0  0  0  0  0  0  0  0  0  0
   34.7110   28.3000   40.8070 H   0  0  0  0  0  0  0  0  0  0  0  0
   34.8940   30.6380   39.7500 H   0  0  0  0  0  0  0  0  0  0  0  0
   37.0390   31.0850   38.3830 H   0  0  0  0  0  0  0  0  0  0  0  0
  1  2  2  0  0  0  0
  3  1  1  0  0  0  0
  3  7  1  0  0  0  0
  4  5  1  0  0  0  0
  4  3  2  0  0  0  0
  5  6  1  0  0  0  0
  6  8  1  0  0  0  0
  6  7  2  0  0  0  0
  8 10  1  0  0  0  0
  9  4  1  0  0  0  0
 11  8  1  0  0  0  0
 12  5  1  0  0  0  0
 12 13  1  0  0  0  0
 12 14  1  0  0  0  0
 15 12  1  0  0  0  0
 16 15  1  0  0  0  0
 17 16  1  0  0  0  0
 18 17  1  0  0  0  0
 18 19  1  0  0  0  0
 19 20  1  0  0  0  0
 19 15  1  0  0  0  0
 21 27  1  0  0  0  0
 22 21  1  0  0  0  0
 22  1  1  0  0  0  0
 23 22  2  0  0  0  0
 24 25  2  0  0  0  0
 24 23  1  0  0  0  0
 25 26  1  0  0  0  0
 26 21  2  0  0  0  0
 28 25  1  0  0  0  0
 29 30  2  0  0  0  0
 29 23  1  0  0  0  0
 30 34  1  0  0  0  0
 31 35  1  0  0  0  0
 31 30  1  0  0  0  0
 32 33  1  0  0  0  0
 32 31  2  0  0  0  0
 33 29  1  0  0  0  0
 36 32  1  0  0  0  0
M  END
>  <minimizedAffinity>
-5.2891798

$$$$

 OpenBabel03252503203D

 36 39  0  0  0  0  0  0  0  0999 V2000
   39.6670   31.8850   38.6740 C   0  0  0  0  0  0  0  0  0  0  0  0
   39.3260   31.9560   37.4600 O   0  0  0  0  0  0  0  0  0  0  0  0
   38.8150   31.3260   39.7710 C   0  0  0  0  0  0  0  0  0  0  0  0
   39.2300   30.5660   40.8260 C   0  0  0  0  0  0  0  0  0  0  0  0
   38.1230   30.3000   41.5430 N   0  0  0  0  0  0  0  0  0  0  0  0
   37.0640   30.8770   40.9490 C   0  0  0  0  0  0  0  0  0  0  0  0
   37.4920   31.5100   39.8550 N   0  0  0  0  0  0  0  0  0  0  0  0
   35.6990   30.8820   41.3200 N   0  0  0  0  0  0  0  0  0  0  0  0
   40.2360   30.2380   41.0520 H   0  0  0  0  0  0  0  0  0  0  0  0
   35.5030   31.7060   41.9320 H   0  0  0  0  0  0  0  0  0  0  0  0
   34.9020   30.2550   41.1070 H   0  0  0  0  0  0  0  0  0  0  0  0
   37.9980   29.5260   42.7680 C   0  0  0  0  0  0  0  0  0  0  0  0
   37.1240   29.9130   43.3260 H   0  0  0  0  0  0  0  0  0  0  0  0
   38.8930   29.8210   43.3840 H   0  0  0  0  0  0  0  0  0  0  0  0
   37.9820   28.1550   42.6510 N   0  0  0  0  0  0  0  0  0  0  0  0
   39.1320   27.3850   42.6960 C   0  0  0  0  0  2  0  0  0  0  0  0
   38.6000   25.9510   42.6850 C   0  0  0  0  0  2  0  0  0  0  0  0
   37.1780   26.0890   42.1300 C   0  0  0  0  0  2  0  0  0  0  0  0
   36.7860   27.4330   42.7120 C   0  0  0  0  0  3  0  0  0  0  0  0
   36.4830   27.2930   43.7860 H   0  0  0  0  0  0  0  0  0  0  0  0
   41.1190   33.6520   39.5680 C   0  0  0  0  0  0  0  0  0  0  0  0
   40.9620   32.3850   38.9720 C   0  0  0  0  0  0  0  0  0  0  0  0
   42.1590   31.7280   38.7270 C   0  0  0  0  0  0  0  0  0  0  0  0
   43.3560   32.2340   39.0240 N   0  0  0  0  0  0  0  0  0  0  0  0
   43.4450   33.4680   39.6000 C   0  0  0  0  0  0  0  0  0  0  0  0
   42.3280   34.1600   39.8650 N   0  0  0  0  0  0  0  0  0  0  0  0
   40.2080   34.2000   39.7760 H   0  0  0  0  0  0  0  0  0  0  0  0
   44.4210   33.8600   39.8330 H   0  0  0  0  0  0  0  0  0  0  0  0
   42.0970   30.4350   38.1210 C   0  0  0  0  0  0  0  0  0  0  0  0
   42.0660   29.9500   36.8570 C   0  0  0  0  0  0  0  0  0  0  0  0
   42.0070   28.6720   36.5730 C   0  0  0  0  0  0  0  0  0  0  0  0
   41.9810   27.8470   37.6260 C   0  0  0  0  0  0  0  0  0  0  0  0
   42.0400   28.9330   39.0880 S   0  0  0  0  0  0  0  0  0  0  0  0
   42.0940   30.7540   36.0900 H   0  0  0  0  0  0  0  0  0  0  0  0
   41.9800   28.2340   35.5840 H   0  0  0  0  0  0  0  0  0  0  0  0
   41.9300   26.6780   37.6450 H   0  0  0  0  0  0  0  0  0  0  0  0
  1 22  1  0  0  0  0
  1  3  1  0  0  0  0
  2  1  2  0  0  0  0
  3  7  1  0  0  0  0
  3  4  2  0  0  0  0
  4  9  1  0  0  0  0
  4  5  1  0  0  0  0
  5 12  1  0  0  0  0
  6  8  1  0  0  0  0
  6  5  1  0  0  0  0
  7  6  2  0  0  0  0
  8 10  1  0  0  0  0
 11  8  1  0  0  0  0
 12 13  1  0  0  0  0
 12 14  1  0  0  0  0
 15 16  1  0  0  0  0
 15 19  1  0  0  0  0
 15 12  1  0  0  0  0
 17 16  1  0  0  0  0
 18 17  1  0  0  0  0
 18 19  1  0  0  0  0
 19 20  1  0  0  0  0
 21 27  1  0  0  0  0
 21 26  1  0  0  0  0
 22 21  2  0  0  0  0
 23 22  1  0  0  0  0
 23 24  2  0  0  0  0
 24 25  1  0  0  0  0
 25 28  1  0  0  0  0
 25 26  2  0  0  0  0
 29 23  1  0  0  0  0
 29 33  1  0  0  0  0
 30 29  2  0  0  0  0
 31 30  1  0  0  0  0
 31 32  2  0  0  0  0
 32 36  1  0  0  0  0
 32 33  1  0  0  0  0
 34 30  1  0  0  0  0
 35 31  1  0  0  0  0
M  END
>  <minimizedAffinity>
-5.27746439

$$$$

 OpenBabel03252503203D

 36 39  0  0  0  0  0  0  0  0999 V2000
   37.1190   26.3280   41.6150 C   0  0  0  0  0  0  0  0  0  0  0  0
   36.8040   25.9460   42.7770 O   0  0  0  0  0  0  0  0  0  0  0  0
   37.0440   27.7420   41.1280 C   0  0  0  0  0  0  0  0  0  0  0  0
   37.7820   28.3060   40.1280 C   0  0  0  0  0  0  0  0  0  0  0  0
   37.3730   29.5840   40.0480 N   0  0  0  0  0  0  0  0  0  0  0  0
   36.4150   29.7990   40.9670 C   0  0  0  0  0  0  0  0  0  0  0  0
   36.2130   28.6610   41.6340 N   0  0  0  0  0  0  0  0  0  0  0  0
   35.6840   30.9720   41.2670 N   0  0  0  0  0  0  0  0  0  0  0  0
   38.5420   27.8350   39.5190 H   0  0  0  0  0  0  0  0  0  0  0  0
   34.8080   30.9960   40.6960 H   0  0  0  0  0  0  0  0  0  0  0  0
   35.8450   31.7650   41.9120 H   0  0  0  0  0  0  0  0  0  0  0  0
   37.8320   30.6310   39.1480 C   0  0  0  0  0  0  0  0  0  0  0  0
   36.9730   30.9430   38.5240 H   0  0  0  0  0  0  0  0  0  0  0  0
   38.5350   30.1100   38.4400 H   0  0  0  0  0  0  0  0  0  0  0  0
   38.4910   31.7010   39.7080 N   0  0  0  0  0  0  0  0  0  0  0  0
   39.7850   31.6140   40.1920 C   0  0  0  0  0  2  0  0  0  0  0  0
   40.1260   33.0610   40.5560 C   0  0  0  0  0  2  0  0  0  0  0  0
   38.7580   33.7420   40.6830 C   0  0  0  0  0  2  0  0  0  0  0  0
   37.9820   33.0000   39.6120 C   0  0  0  0  0  3  0  0  0  0  0  0
   38.2390   33.4340   38.6060 H   0  0  0  0  0  0  0  0  0  0  0  0
   36.7000   24.7440   39.7860 C   0  0  0  0  0  0  0  0  0  0  0  0
   37.5710   25.3040   40.7410 C   0  0  0  0  0  0  0  0  0  0  0  0
   38.8480   24.7620   40.7220 C   0  0  0  0  0  0  0  0  0  0  0  0
   39.2320   23.8000   39.8820 N   0  0  0  0  0  0  0  0  0  0  0  0
   38.3420   23.2970   38.9780 C   0  0  0  0  0  0  0  0  0  0  0  0
   37.0900   23.7740   38.9410 N   0  0  0  0  0  0  0  0  0  0  0  0
   35.6910   25.1390   39.7660 H   0  0  0  0  0  0  0  0  0  0  0  0
   38.6710   22.5200   38.3080 H   0  0  0  0  0  0  0  0  0  0  0  0
   39.8010   25.2680   41.6590 C   0  0  0  0  0  0  0  0  0  0  0  0
   40.1490   24.9960   42.9400 C   0  0  0  0  0  0  0  0  0  0  0  0
   41.0930   25.6370   43.5850 C   0  0  0  0  0  0  0  0  0  0  0  0
   41.7150   26.5990   42.8940 C   0  0  0  0  0  0  0  0  0  0  0  0
   40.9230   26.5980   41.2520 S   0  0  0  0  0  0  0  0  0  0  0  0
   39.5460   24.1740   43.3810 H   0  0  0  0  0  0  0  0  0  0  0  0
   41.4090   25.4600   44.6040 H   0  0  0  0  0  0  0  0  0  0  0  0
   42.5810   27.3080   43.2340 H   0  0  0  0  0  0  0  0  0  0  0  0
  1  2  2  0  0  0  0
  3  1  1  0  0  0  0
  3  7  1  0  0  0  0
  4  3  2  0  0  0  0
  5  4  1  0  0  0  0
  5  6  1  0  0  0  0
  6  8  1  0  0  0  0
  6  7  2  0  0  0  0
  8 11  1  0  0  0  0
  9  4  1  0  0  0  0
 10  8  1  0  0  0  0
 12 15  1  0  0  0  0
 12  5  1  0  0  0  0
 13 12  1  0  0  0  0
 14 12  1  0  0  0  0
 15 16  1  0  0  0  0
 16 17  1  0  0  0  0
 17 18  1  0  0  0  0
 19 15  1  0  0  0  0
 19 18  1  0  0  0  0
 20 19  1  0  0  0  0
 21 22  1  0  0  0  0
 22  1  1  0  0  0  0
 23 22  2  0  0  0  0
 23 29  1  0  0  0  0
 24 23  1  0  0  0  0
 25 24  2  0  0  0  0
 26 25  1  0  0  0  0
 26 21  2  0  0  0  0
 27 21  1  0  0  0  0
 28 25  1  0  0  0  0
 29 30  2  0  0  0  0
 30 34  1  0  0  0  0
 30 31  1  0  0  0  0
 31 35  1  0  0  0  0
 32 36  1  0  0  0  0
 32 31  2  0  0  0  0
 33 29  1  0  0  0  0
 33 32  1  0  0  0  0
M  END
>  <minimizedAffinity>
-5.26212168

$$$$

 OpenBabel03252503203D

 36 39  0  0  0  0  0  0  0  0999 V2000
   36.9210   30.8420   40.4670 C   0  0  0  0  0  0  0  0  0  0  0  0
   35.9540   31.0930   41.2390 O   0  0  0  0  0  0  0  0  0  0  0  0
   38.2160   31.5930   40.4440 C   0  0  0  0  0  0  0  0  0  0  0  0
   38.6070   32.5280   39.5300 C   0  0  0  0  0  0  0  0  0  0  0  0
   39.8340   32.9230   39.9120 N   0  0  0  0  0  0  0  0  0  0  0  0
   40.1860   32.2540   41.0240 C   0  0  0  0  0  0  0  0  0  0  0  0
   39.1870   31.4330   41.3510 N   0  0  0  0  0  0  0  0  0  0  0  0
   41.3710   32.3220   41.7940 N   0  0  0  0  0  0  0  0  0  0  0  0
   38.0550   32.8870   38.6710 H   0  0  0  0  0  0  0  0  0  0  0  0
   41.2600   33.0380   42.5470 H   0  0  0  0  0  0  0  0  0  0  0  0
   42.2750   31.8200   41.7530 H   0  0  0  0  0  0  0  0  0  0  0  0
   40.7080   33.9050   39.2880 C   0  0  0  0  0  0  0  0  0  0  0  0
   40.8660   34.7270   40.0120 H   0  0  0  0  0  0  0  0  0  0  0  0
   40.0890   34.3550   38.4630 H   0  0  0  0  0  0  0  0  0  0  0  0
   41.8880   33.4470   38.7480 N   0  0  0  0  0  0  0  0  0  0  0  0
   41.9320   32.5790   37.6710 C   0  0  0  0  0  2  0  0  0  0  0  0
   43.4240   32.4920   37.3450 C   0  0  0  0  0  2  0  0  0  0  0  0
   44.1110   32.9650   38.6310 C   0  0  0  0  0  2  0  0  0  0  0  0
   43.1180   34.0100   39.1040 C   0  0  0  0  0  3  0  0  0  0  0  0
   43.2810   34.9600   38.5230 H   0  0  0  0  0  0  0  0  0  0  0  0
   36.3390   30.0010   38.2340 C   0  0  0  0  0  0  0  0  0  0  0  0
   36.7170   29.7600   39.5690 C   0  0  0  0  0  0  0  0  0  0  0  0
   36.8570   28.4150   39.8790 C   0  0  0  0  0  0  0  0  0  0  0  0
   36.6560   27.4300   39.0050 N   0  0  0  0  0  0  0  0  0  0  0  0
   36.2900   27.7250   37.7230 C   0  0  0  0  0  0  0  0  0  0  0  0
   36.1370   29.0050   37.3550 N   0  0  0  0  0  0  0  0  0  0  0  0
   36.2180   31.0400   37.9490 H   0  0  0  0  0  0  0  0  0  0  0  0
   36.1330   26.9150   37.0310 H   0  0  0  0  0  0  0  0  0  0  0  0
   37.2360   28.0750   41.2140 C   0  0  0  0  0  0  0  0  0  0  0  0
   36.5950   27.8720   42.3900 C   0  0  0  0  0  0  0  0  0  0  0  0
   37.2090   27.5590   43.5050 C   0  0  0  0  0  0  0  0  0  0  0  0
   38.5390   27.4450   43.4200 C   0  0  0  0  0  0  0  0  0  0  0  0
   38.9410   27.8010   41.6780 S   0  0  0  0  0  0  0  0  0  0  0  0
   35.4950   28.0020   42.3040 H   0  0  0  0  0  0  0  0  0  0  0  0
   36.7450   27.3870   44.4670 H   0  0  0  0  0  0  0  0  0  0  0  0
   39.3100   27.1780   44.2580 H   0  0  0  0  0  0  0  0  0  0  0  0
  1  2  2  0  0  0  0
  3  1  1  0  0  0  0
  3  7  1  0  0  0  0
  4  5  1  0  0  0  0
  4  3  2  0  0  0  0
  5  6  1  0  0  0  0
  6  7  2  0  0  0  0
  6  8  1  0  0  0  0
  8 10  1  0  0  0  0
  9  4  1  0  0  0  0
 11  8  1  0  0  0  0
 12  5  1  0  0  0  0
 12 13  1  0  0  0  0
 14 12  1  0  0  0  0
 15 19  1  0  0  0  0
 15 12  1  0  0  0  0
 16 15  1  0  0  0  0
 17 16  1  0  0  0  0
 17 18  1  0  0  0  0
 18 19  1  0  0  0  0
 20 19  1  0  0  0  0
 21 22  1  0  0  0  0
 22 23  2  0  0  0  0
 22  1  1  0  0  0  0
 23 29  1  0  0  0  0
 24 23  1  0  0  0  0
 25 24  2  0  0  0  0
 26 25  1  0  0  0  0
 26 21  2  0  0  0  0
 27 21  1  0  0  0  0
 28 25  1  0  0  0  0
 29 33  1  0  0  0  0
 29 30  2  0  0  0  0
 30 31  1  0  0  0  0
 31 35  1  0  0  0  0
 32 31  2  0  0  0  0
 32 36  1  0  0  0  0
 33 32  1  0  0  0  0
 34 30  1  0  0  0  0
M  END
>  <minimizedAffinity>
-5.23947334

$$$$
