
 OpenBabel03252508533D

 40 43  0  0  1  0  0  0  0  0999 V2000
   43.3650   34.4930   40.7650 C   0  0  0  0  0  0  0  0  0  0  0  0
   43.3210   35.7210   40.4320 O   0  0  0  0  0  0  0  0  0  0  0  0
   41.9940   34.1050   40.4830 N   0  0  0  0  0  0  0  0  0  0  0  0
   41.5870   34.2690   39.1090 C   0  0  0  0  0  0  0  0  0  0  0  0
   40.7960   35.5950   39.0820 C   0  0  0  0  0  0  0  0  0  0  0  0
   40.0420   35.6680   40.4100 C   0  0  0  0  0  0  0  0  0  0  0  0
   39.6910   34.2830   40.9110 C   0  0  0  0  0  0  0  0  0  0  0  0
   40.9760   33.5770   41.3690 C   0  0  1  0  0  0  0  0  0  0  0  0
   42.4090   34.4070   38.4000 H   0  0  0  0  0  0  0  0  0  0  0  0
   40.9350   33.4530   38.7500 H   0  0  0  0  0  0  0  0  0  0  0  0
   40.1010   35.5970   38.2160 H   0  0  0  0  0  0  0  0  0  0  0  0
   41.4770   36.4520   39.0120 H   0  0  0  0  0  0  0  0  0  0  0  0
   40.6740   36.2220   41.1570 H   0  0  0  0  0  0  0  0  0  0  0  0
   39.1230   36.2780   40.3090 H   0  0  0  0  0  0  0  0  0  0  0  0
   39.3170   33.7210   40.0310 H   0  0  0  0  0  0  0  0  0  0  0  0
   38.9640   34.3900   41.7320 H   0  0  0  0  0  0  0  0  0  0  0  0
   41.1960   33.9500   42.3890 H   0  0  0  0  0  0  0  0  0  0  0  0
   40.8610   32.1500   41.2760 N   0  0  1  0  0  0  0  0  0  0  0  0
   39.4610   31.8250   41.1000 C   0  0  0  0  0  2  0  0  0  0  0  0
   39.4940   30.4110   40.5310 C   0  0  0  0  0  2  0  0  0  0  0  0
   40.7470   30.3500   39.7070 C   0  0  0  0  0  2  0  0  0  0  0  0
   41.4880   31.5670   40.1480 C   0  0  0  0  0  3  0  0  0  0  0  0
   41.7350   32.2680   39.3270 H   0  0  0  0  0  0  0  0  0  0  0  0
   44.4400   33.8160   41.2440 O   0  0  0  0  0  0  0  0  0  0  0  0
   45.7660   34.1290   41.0930 C   0  0  0  0  0  0  0  0  0  0  0  0
   46.4050   34.7450   42.1780 C   0  0  0  0  0  0  0  0  0  0  0  0
   47.7620   35.0600   42.0140 C   0  0  0  0  0  0  0  0  0  0  0  0
   48.3650   34.7530   40.8260 N   0  0  0  0  0  0  0  0  0  0  0  0
   47.7070   34.1690   39.8320 C   0  0  0  0  0  0  0  0  0  0  0  0
   46.4050   33.8540   39.9600 N   0  0  0  0  0  0  0  0  0  0  0  0
   48.2630   35.5370   42.8530 H   0  0  0  0  0  0  0  0  0  0  0  0
   48.2630   33.9600   38.9220 H   0  0  0  0  0  0  0  0  0  0  0  0
   45.6700   35.0270   43.3980 C   0  0  0  0  0  0  0  0  0  0  0  0
   45.0250   36.2470   43.6270 C   0  0  0  0  0  0  0  0  0  0  0  0
   44.4700   36.0850   44.8690 C   0  0  0  0  0  0  0  0  0  0  0  0
   44.7480   34.8710   45.3620 N   0  0  0  0  0  0  0  0  0  0  0  0
   45.4770   34.2430   44.4550 N   0  0  0  0  0  0  0  0  0  0  0  0
   44.9410   37.1390   43.0300 H   0  0  0  0  0  0  0  0  0  0  0  0
   43.8760   36.8560   45.3870 H   0  0  0  0  0  0  0  0  0  0  0  0
   44.4210   34.5400   46.2960 H   0  0  0  0  0  0  0  0  0  0  0  0
  1 24  1  0  0  0  0
  2  1  2  0  0  0  0
  3  1  1  0  0  0  0
  3  8  1  0  0  0  0
  4  3  1  0  0  0  0
  5  4  1  0  0  0  0
  5  6  1  0  0  0  0
  6  7  1  0  0  0  0
  6 13  1  0  0  0  0
  7  8  1  0  0  0  0
  7 16  1  0  0  0  0
  8 17  1  1  0  0  0
  9  4  1  0  0  0  0
 10  4  1  0  0  0  0
 11  5  1  0  0  0  0
 12  5  1  0  0  0  0
 14  6  1  0  0  0  0
 15  7  1  0  0  0  0
 18 19  1  6  0  0  0
 18  8  1  0  0  0  0
 20 19  1  0  0  0  0
 21 22  1  0  0  0  0
 21 20  1  0  0  0  0
 22 18  1  0  0  0  0
 23 22  1  0  0  0  0
 25 24  1  0  0  0  0
 25 26  1  0  0  0  0
 26 33  1  0  0  0  0
 27 26  2  0  0  0  0
 27 31  1  0  0  0  0
 28 27  1  0  0  0  0
 29 30  1  0  0  0  0
 29 28  2  0  0  0  0
 30 25  2  0  0  0  0
 32 29  1  0  0  0  0
 33 34  1  0  0  0  0
 33 37  2  0  0  0  0
 34 35  2  0  0  0  0
 35 36  1  0  0  0  0
 35 39  1  0  0  0  0
 36 40  1  0  0  0  0
 37 36  1  0  0  0  0
 38 34  1  0  0  0  0
M  END
>  <minimizedAffinity>
-6.53197718

>  <minimizedRMSD>
0.319829196

$$$$
