
 OpenBabel03252509283D

 18 19  0  0  0  0  0  0  0  0999 V2000
   44.5380   35.6430   44.8740 C   0  0  0  0  0  0  0  0  0  0  0  0
   45.3200   35.2300   43.7760 C   0  0  0  0  0  0  0  0  0  0  0  0
   46.1430   34.1260   43.9390 C   0  0  0  0  0  0  0  0  0  0  0  0
   46.1540   33.4950   45.1510 N   0  0  0  0  0  0  0  0  0  0  0  0
   45.3830   33.9230   46.1910 C   0  0  0  0  0  0  0  0  0  0  0  0
   44.5860   34.9860   46.0470 N   0  0  0  0  0  0  0  0  0  0  0  0
   43.8990   36.5110   44.7270 H   0  0  0  0  0  0  0  0  0  0  0  0
   45.3020   35.7400   42.8190 H   0  0  0  0  0  0  0  0  0  0  0  0
   45.4250   33.3910   47.1350 H   0  0  0  0  0  0  0  0  0  0  0  0
   46.9530   33.6980   42.8030 C   0  0  0  0  0  0  0  0  0  0  0  0
   47.9610   33.4500   43.1880 H   0  0  0  0  0  0  0  0  0  0  0  0
   46.5130   32.7860   42.3530 H   0  0  0  0  0  0  0  0  0  0  0  0
   47.0140   34.6820   41.7410 N   0  0  0  0  0  0  0  0  0  0  0  0
   48.1660   35.5120   41.7530 C   0  0  0  0  0  3  0  0  0  0  0  0
   48.9330   35.2680   40.4770 C   0  0  0  0  0  3  0  0  0  0  0  0
   48.0280   34.4490   39.6010 C   0  0  0  0  0  2  0  0  0  0  0  0
   46.8340   34.1200   40.4500 C   0  0  0  0  0  3  0  0  0  0  0  0
   46.6320   33.0280   40.4550 H   0  0  0  0  0  0  0  0  0  0  0  0
  1  6  1  0  0  0  0
  2  3  1  0  0  0  0
  2  1  2  0  0  0  0
  3  4  2  0  0  0  0
  4  5  1  0  0  0  0
  5  9  1  0  0  0  0
  6  5  2  0  0  0  0
  7  1  1  0  0  0  0
  8  2  1  0  0  0  0
 10 11  1  0  0  0  0
 10  3  1  0  0  0  0
 12 10  1  0  0  0  0
 13 14  1  0  0  0  0
 13 10  1  0  0  0  0
 15 14  2  0  0  0  0
 16 17  1  0  0  0  0
 16 15  1  0  0  0  0
 17 18  1  0  0  0  0
 17 13  1  0  0  0  0
M  END
>  <minimizedAffinity>
-3.85996842

>  <minimizedRMSD>
2.1177237

$$$$
