
 OpenBabel03252508553D

 40 43  0  0  1  0  0  0  0  0999 V2000
   39.5390   29.4110   41.9090 C   0  0  0  0  0  0  0  0  0  0  0  0
   39.9400   28.7650   42.9300 O   0  0  0  0  0  0  0  0  0  0  0  0
   38.2100   28.8460   41.7560 N   0  0  0  0  0  0  0  0  0  0  0  0
   37.3340   29.0380   42.8850 C   0  0  0  0  0  0  0  0  0  0  0  0
   37.3800   27.7030   43.6580 C   0  0  0  0  0  0  0  0  0  0  0  0
   37.4960   26.6030   42.6030 C   0  0  0  0  0  0  0  0  0  0  0  0
   36.8090   27.0120   41.3170 C   0  0  0  0  0  0  0  0  0  0  0  0
   37.6320   28.1200   40.6420 C   0  0  1  0  0  0  0  0  0  0  0  0
   37.6650   29.7980   43.5990 H   0  0  0  0  0  0  0  0  0  0  0  0
   36.2910   29.2500   42.5930 H   0  0  0  0  0  0  0  0  0  0  0  0
   36.4570   27.5920   44.2660 H   0  0  0  0  0  0  0  0  0  0  0  0
   38.2600   27.6620   44.3120 H   0  0  0  0  0  0  0  0  0  0  0  0
   38.5830   26.3780   42.4290 H   0  0  0  0  0  0  0  0  0  0  0  0
   37.0660   25.6520   42.9750 H   0  0  0  0  0  0  0  0  0  0  0  0
   35.8430   27.4690   41.6130 H   0  0  0  0  0  0  0  0  0  0  0  0
   36.7190   26.1180   40.6780 H   0  0  0  0  0  0  0  0  0  0  0  0
   38.4600   27.6180   40.1050 H   0  0  0  0  0  0  0  0  0  0  0  0
   36.8140   28.9590   39.8130 N   0  0  1  0  0  0  0  0  0  0  0  0
   37.2990   28.8520   38.4530 C   0  0  0  0  0  2  0  0  0  0  0  0
   36.1220   29.3440   37.6180 C   0  0  0  0  0  2  0  0  0  0  0  0
   34.8990   28.9300   38.3830 C   0  0  0  0  0  2  0  0  0  0  0  0
   35.4540   28.5720   39.7210 C   0  0  0  0  0  3  0  0  0  0  0  0
   35.2330   27.5350   40.0400 H   0  0  0  0  0  0  0  0  0  0  0  0
   40.2310   30.3530   41.2170 O   0  0  0  0  0  0  0  0  0  0  0  0
   40.6020   30.3230   39.8980 C   0  0  0  0  0  0  0  0  0  0  0  0
   40.0520   31.3010   39.0570 C   0  0  0  0  0  0  0  0  0  0  0  0
   40.4380   31.2620   37.7090 C   0  0  0  0  0  0  0  0  0  0  0  0
   41.3120   30.2900   37.3080 N   0  0  0  0  0  0  0  0  0  0  0  0
   41.8000   29.3890   38.1520 C   0  0  0  0  0  0  0  0  0  0  0  0
   41.4490   29.4010   39.4500 N   0  0  0  0  0  0  0  0  0  0  0  0
   40.0150   32.0180   37.0520 H   0  0  0  0  0  0  0  0  0  0  0  0
   42.4890   28.6520   37.7480 H   0  0  0  0  0  0  0  0  0  0  0  0
   39.1310   32.2910   39.5870 C   0  0  0  0  0  0  0  0  0  0  0  0
   39.5370   33.5760   39.9620 C   0  0  0  0  0  0  0  0  0  0  0  0
   38.3760   34.1610   40.3950 C   0  0  0  0  0  0  0  0  0  0  0  0
   37.3460   33.3100   40.2950 N   0  0  0  0  0  0  0  0  0  0  0  0
   37.8240   32.1800   39.8030 N   0  0  0  0  0  0  0  0  0  0  0  0
   40.4970   34.0600   39.9460 H   0  0  0  0  0  0  0  0  0  0  0  0
   38.3080   35.1950   40.7730 H   0  0  0  0  0  0  0  0  0  0  0  0
   36.3700   33.5540   40.5720 H   0  0  0  0  0  0  0  0  0  0  0  0
  1  2  2  0  0  0  0
  3  1  1  0  0  0  0
  3  4  1  0  0  0  0
  4  9  1  0  0  0  0
  4  5  1  0  0  0  0
  5 11  1  0  0  0  0
  5 12  1  0  0  0  0
  6 14  1  0  0  0  0
  6  5  1  0  0  0  0
  7 15  1  0  0  0  0
  7  6  1  0  0  0  0
  8 17  1  6  0  0  0
  8  7  1  0  0  0  0
  8  3  1  0  0  0  0
 10  4  1  0  0  0  0
 13  6  1  0  0  0  0
 16  7  1  0  0  0  0
 18 19  1  6  0  0  0
 18  8  1  0  0  0  0
 20 21  1  0  0  0  0
 20 19  1  0  0  0  0
 21 22  1  0  0  0  0
 22 18  1  0  0  0  0
 22 23  1  0  0  0  0
 24  1  1  0  0  0  0
 25 24  1  0  0  0  0
 26 33  1  0  0  0  0
 26 25  2  0  0  0  0
 27 26  1  0  0  0  0
 28 27  2  0  0  0  0
 28 29  1  0  0  0  0
 29 30  2  0  0  0  0
 30 25  1  0  0  0  0
 31 27  1  0  0  0  0
 32 29  1  0  0  0  0
 33 37  2  0  0  0  0
 33 34  1  0  0  0  0
 34 35  2  0  0  0  0
 35 39  1  0  0  0  0
 36 35  1  0  0  0  0
 36 40  1  0  0  0  0
 37 36  1  0  0  0  0
 38 34  1  0  0  0  0
M  END
>  <minimizedAffinity>
-5.6578393

$$$$

 OpenBabel03252508553D

 40 43  0  0  1  0  0  0  0  0999 V2000
   36.4280   29.5230   40.6180 C   0  0  0  0  0  0  0  0  0  0  0  0
   35.3790   28.8590   40.8990 O   0  0  0  0  0  0  0  0  0  0  0  0
   37.3930   28.8490   41.4690 N   0  0  0  0  0  0  0  0  0  0  0  0
   37.5640   27.4430   41.1970 C   0  0  0  0  0  0  0  0  0  0  0  0
   36.7150   26.7220   42.2650 C   0  0  0  0  0  0  0  0  0  0  0  0
   36.8310   27.5600   43.5380 C   0  0  0  0  0  0  0  0  0  0  0  0
   38.1710   28.2600   43.6060 C   0  0  0  0  0  0  0  0  0  0  0  0
   38.2070   29.3730   42.5480 C   0  0  1  0  0  0  0  0  0  0  0  0
   37.1650   27.1100   40.2340 H   0  0  0  0  0  0  0  0  0  0  0  0
   38.6130   27.1100   41.2850 H   0  0  0  0  0  0  0  0  0  0  0  0
   37.1010   25.6920   42.4150 H   0  0  0  0  0  0  0  0  0  0  0  0
   35.6610   26.6810   41.9600 H   0  0  0  0  0  0  0  0  0  0  0  0
   35.9840   28.2990   43.5650 H   0  0  0  0  0  0  0  0  0  0  0  0
   36.6870   26.9310   44.4390 H   0  0  0  0  0  0  0  0  0  0  0  0
   38.9290   27.5090   43.3030 H   0  0  0  0  0  0  0  0  0  0  0  0
   38.2990   28.6570   44.6260 H   0  0  0  0  0  0  0  0  0  0  0  0
   37.6710   30.2400   42.9800 H   0  0  0  0  0  0  0  0  0  0  0  0
   39.5480   29.6610   42.1250 N   0  0  1  0  0  0  0  0  0  0  0  0
   39.8980   30.9780   42.6150 C   0  0  0  0  0  2  0  0  0  0  0  0
   41.4230   30.9820   42.5600 C   0  0  0  0  0  2  0  0  0  0  0  0
   41.8280   29.5640   42.8370 C   0  0  0  0  0  2  0  0  0  0  0  0
   40.5460   28.8170   42.6730 C   0  0  0  0  0  3  0  0  0  0  0  0
   40.2410   28.2390   43.5660 H   0  0  0  0  0  0  0  0  0  0  0  0
   36.5260   30.5620   39.7490 O   0  0  0  0  0  0  0  0  0  0  0  0
   37.4970   31.5280   39.6990 C   0  0  0  0  0  0  0  0  0  0  0  0
   38.5570   31.3230   38.8050 C   0  0  0  0  0  0  0  0  0  0  0  0
   39.5460   32.3170   38.7610 C   0  0  0  0  0  0  0  0  0  0  0  0
   39.4150   33.4050   39.5800 N   0  0  0  0  0  0  0  0  0  0  0  0
   38.3880   33.5440   40.4080 C   0  0  0  0  0  0  0  0  0  0  0  0
   37.4230   32.6080   40.4720 N   0  0  0  0  0  0  0  0  0  0  0  0
   40.3700   32.1640   38.0690 H   0  0  0  0  0  0  0  0  0  0  0  0
   38.3620   34.4390   41.0230 H   0  0  0  0  0  0  0  0  0  0  0  0
   38.5990   30.1300   37.9780 C   0  0  0  0  0  0  0  0  0  0  0  0
   39.4120   29.0320   38.2770 C   0  0  0  0  0  0  0  0  0  0  0  0
   39.1440   28.1530   37.2610 C   0  0  0  0  0  0  0  0  0  0  0  0
   38.2440   28.6650   36.4110 N   0  0  0  0  0  0  0  0  0  0  0  0
   37.9250   29.8660   36.8630 N   0  0  0  0  0  0  0  0  0  0  0  0
   40.1030   28.8460   39.0810 H   0  0  0  0  0  0  0  0  0  0  0  0
   39.6110   27.1580   37.1640 H   0  0  0  0  0  0  0  0  0  0  0  0
   37.8980   28.1600   35.5660 H   0  0  0  0  0  0  0  0  0  0  0  0
  1  2  2  0  0  0  0
  1  3  1  0  0  0  0
  3  8  1  0  0  0  0
  4 10  1  0  0  0  0
  4  3  1  0  0  0  0
  4  5  1  0  0  0  0
  5 11  1  0  0  0  0
  5  6  1  0  0  0  0
  6 13  1  0  0  0  0
  6  7  1  0  0  0  0
  6 14  1  0  0  0  0
  7 16  1  0  0  0  0
  8 17  1  1  0  0  0
  8  7  1  0  0  0  0
  9  4  1  0  0  0  0
 12  5  1  0  0  0  0
 15  7  1  0  0  0  0
 18  8  1  0  0  0  0
 18 19  1  1  0  0  0
 18 22  1  0  0  0  0
 20 19  1  0  0  0  0
 20 21  1  0  0  0  0
 22 21  1  0  0  0  0
 22 23  1  0  0  0  0
 24  1  1  0  0  0  0
 25 24  1  0  0  0  0
 25 30  1  0  0  0  0
 26 25  2  0  0  0  0
 27 26  1  0  0  0  0
 27 28  2  0  0  0  0
 28 29  1  0  0  0  0
 29 30  2  0  0  0  0
 29 32  1  0  0  0  0
 31 27  1  0  0  0  0
 33 34  1  0  0  0  0
 33 26  1  0  0  0  0
 34 38  1  0  0  0  0
 35 34  2  0  0  0  0
 36 37  1  0  0  0  0
 36 35  1  0  0  0  0
 37 33  2  0  0  0  0
 39 35  1  0  0  0  0
 40 36  1  0  0  0  0
M  END
>  <minimizedAffinity>
-5.64997196

$$$$

 OpenBabel03252508553D

 40 43  0  0  1  0  0  0  0  0999 V2000
   39.9890   29.1550   41.2490 C   0  0  0  0  0  0  0  0  0  0  0  0
   40.6210   28.4980   42.1380 O   0  0  0  0  0  0  0  0  0  0  0  0
   38.6290   28.7400   41.5450 N   0  0  0  0  0  0  0  0  0  0  0  0
   38.1700   29.0650   42.8720 C   0  0  0  0  0  0  0  0  0  0  0  0
   38.3210   27.7580   43.6800 C   0  0  0  0  0  0  0  0  0  0  0  0
   37.9950   26.6210   42.7130 C   0  0  0  0  0  0  0  0  0  0  0  0
   36.9870   27.0650   41.6740 C   0  0  0  0  0  0  0  0  0  0  0  0
   37.6650   28.0510   40.7100 C   0  0  1  0  0  0  0  0  0  0  0  0
   38.7800   29.8050   43.4010 H   0  0  0  0  0  0  0  0  0  0  0  0
   37.1140   29.3860   42.8990 H   0  0  0  0  0  0  0  0  0  0  0  0
   37.6260   27.7720   44.5460 H   0  0  0  0  0  0  0  0  0  0  0  0
   39.3530   27.6380   44.0350 H   0  0  0  0  0  0  0  0  0  0  0  0
   38.9470   26.2680   42.2300 H   0  0  0  0  0  0  0  0  0  0  0  0
   37.6090   25.7360   43.2590 H   0  0  0  0  0  0  0  0  0  0  0  0
   36.2110   27.6380   42.2200 H   0  0  0  0  0  0  0  0  0  0  0  0
   36.6150   26.1680   41.1520 H   0  0  0  0  0  0  0  0  0  0  0  0
   38.2310   27.4410   39.9790 H   0  0  0  0  0  0  0  0  0  0  0  0
   36.7180   28.9510   40.1170 N   0  0  1  0  0  0  0  0  0  0  0  0
   36.5610   28.5820   38.7260 C   0  0  0  0  0  2  0  0  0  0  0  0
   35.2350   29.2290   38.3360 C   0  0  0  0  0  2  0  0  0  0  0  0
   34.4000   29.1910   39.5830 C   0  0  0  0  0  2  0  0  0  0  0  0
   35.4030   28.8720   40.6400 C   0  0  0  0  0  3  0  0  0  0  0  0
   35.1770   27.9560   41.2180 H   0  0  0  0  0  0  0  0  0  0  0  0
   40.5220   29.9890   40.3190 O   0  0  0  0  0  0  0  0  0  0  0  0
   41.2010   31.1600   40.5310 C   0  0  0  0  0  0  0  0  0  0  0  0
   40.4620   32.3500   40.4660 C   0  0  0  0  0  0  0  0  0  0  0  0
   41.1670   33.5430   40.6840 C   0  0  0  0  0  0  0  0  0  0  0  0
   42.5080   33.4710   40.9420 N   0  0  0  0  0  0  0  0  0  0  0  0
   43.1550   32.3140   40.9910 C   0  0  0  0  0  0  0  0  0  0  0  0
   42.5060   31.1530   40.7870 N   0  0  0  0  0  0  0  0  0  0  0  0
   40.5980   34.4680   40.6360 H   0  0  0  0  0  0  0  0  0  0  0  0
   44.2200   32.3480   41.2030 H   0  0  0  0  0  0  0  0  0  0  0  0
   39.0370   32.3130   40.1850 C   0  0  0  0  0  0  0  0  0  0  0  0
   38.5220   32.3510   38.8850 C   0  0  0  0  0  0  0  0  0  0  0  0
   37.1670   32.2950   39.0790 C   0  0  0  0  0  0  0  0  0  0  0  0
   36.8740   32.2280   40.3840 N   0  0  0  0  0  0  0  0  0  0  0  0
   38.0220   32.2400   41.0400 N   0  0  0  0  0  0  0  0  0  0  0  0
   39.0010   32.4100   37.9230 H   0  0  0  0  0  0  0  0  0  0  0  0
   36.4250   32.3040   38.2640 H   0  0  0  0  0  0  0  0  0  0  0  0
   35.8990   32.1780   40.7530 H   0  0  0  0  0  0  0  0  0  0  0  0
  1  3  1  0  0  0  0
  1  2  2  0  0  0  0
  3  4  1  0  0  0  0
  4 10  1  0  0  0  0
  4  9  1  0  0  0  0
  4  5  1  0  0  0  0
  5 12  1  0  0  0  0
  5 11  1  0  0  0  0
  6 14  1  0  0  0  0
  6  5  1  0  0  0  0
  7 15  1  0  0  0  0
  7  6  1  0  0  0  0
  8 17  1  6  0  0  0
  8  3  1  0  0  0  0
  8  7  1  0  0  0  0
 13  6  1  0  0  0  0
 16  7  1  0  0  0  0
 18 19  1  6  0  0  0
 18 22  1  0  0  0  0
 18  8  1  0  0  0  0
 20 19  1  0  0  0  0
 20 21  1  0  0  0  0
 21 22  1  0  0  0  0
 22 23  1  0  0  0  0
 24 25  1  0  0  0  0
 24  1  1  0  0  0  0
 25 30  1  0  0  0  0
 26 25  2  0  0  0  0
 26 27  1  0  0  0  0
 27 28  2  0  0  0  0
 28 29  1  0  0  0  0
 29 32  1  0  0  0  0
 30 29  2  0  0  0  0
 31 27  1  0  0  0  0
 33 26  1  0  0  0  0
 33 37  2  0  0  0  0
 34 35  2  0  0  0  0
 34 33  1  0  0  0  0
 35 36  1  0  0  0  0
 36 40  1  0  0  0  0
 36 37  1  0  0  0  0
 38 34  1  0  0  0  0
 39 35  1  0  0  0  0
M  END
>  <minimizedAffinity>
-5.52743196

$$$$

 OpenBabel03252508553D

 40 43  0  0  1  0  0  0  0  0999 V2000
   36.3390   25.7870   38.7230 C   0  0  0  0  0  0  0  0  0  0  0  0
   36.1180   24.6950   38.1070 O   0  0  0  0  0  0  0  0  0  0  0  0
   37.2740   25.3230   39.7340 N   0  0  0  0  0  0  0  0  0  0  0  0
   38.4900   24.7480   39.2180 C   0  0  0  0  0  0  0  0  0  0  0  0
   38.2730   23.2210   39.2890 C   0  0  0  0  0  0  0  0  0  0  0  0
   37.4530   22.9670   40.5530 C   0  0  0  0  0  0  0  0  0  0  0  0
   37.7580   24.0020   41.6150 C   0  0  0  0  0  0  0  0  0  0  0  0
   37.1690   25.3520   41.1790 C   0  0  1  0  0  0  0  0  0  0  0  0
   38.6900   24.9640   38.1630 H   0  0  0  0  0  0  0  0  0  0  0  0
   39.3820   25.0130   39.8130 H   0  0  0  0  0  0  0  0  0  0  0  0
   39.2570   22.7060   39.3270 H   0  0  0  0  0  0  0  0  0  0  0  0
   37.7040   22.8690   38.4190 H   0  0  0  0  0  0  0  0  0  0  0  0
   36.3610   22.9690   40.2860 H   0  0  0  0  0  0  0  0  0  0  0  0
   37.6460   21.9500   40.9510 H   0  0  0  0  0  0  0  0  0  0  0  0
   38.8610   24.1240   41.6210 H   0  0  0  0  0  0  0  0  0  0  0  0
   37.3290   23.6530   42.5680 H   0  0  0  0  0  0  0  0  0  0  0  0
   36.0920   25.3260   41.4370 H   0  0  0  0  0  0  0  0  0  0  0  0
   37.8850   26.4550   41.7540 N   0  0  1  0  0  0  0  0  0  0  0  0
   36.9800   27.1680   42.6310 C   0  0  0  0  0  2  0  0  0  0  0  0
   37.9170   27.9650   43.5330 C   0  0  0  0  0  2  0  0  0  0  0  0
   39.1410   27.1100   43.6800 C   0  0  0  0  0  2  0  0  0  0  0  0
   38.9660   26.0970   42.5980 C   0  0  0  0  0  3  0  0  0  0  0  0
   38.9620   25.0500   42.9550 H   0  0  0  0  0  0  0  0  0  0  0  0
   35.8040   27.0030   38.4440 O   0  0  0  0  0  0  0  0  0  0  0  0
   36.1120   27.8380   37.4020 C   0  0  0  0  0  0  0  0  0  0  0  0
   36.3390   29.1870   37.7090 C   0  0  0  0  0  0  0  0  0  0  0  0
   36.6540   30.0330   36.6350 C   0  0  0  0  0  0  0  0  0  0  0  0
   36.7170   29.4980   35.3790 N   0  0  0  0  0  0  0  0  0  0  0  0
   36.4910   28.2110   35.1490 C   0  0  0  0  0  0  0  0  0  0  0  0
   36.1880   27.3740   36.1580 N   0  0  0  0  0  0  0  0  0  0  0  0
   36.8320   31.0800   36.8680 H   0  0  0  0  0  0  0  0  0  0  0  0
   36.5630   27.8690   34.1190 H   0  0  0  0  0  0  0  0  0  0  0  0
   36.2470   29.6520   39.0810 C   0  0  0  0  0  0  0  0  0  0  0  0
   37.3360   30.1980   39.7700 C   0  0  0  0  0  0  0  0  0  0  0  0
   36.8150   30.4960   41.0020 C   0  0  0  0  0  0  0  0  0  0  0  0
   35.5190   30.1630   41.0660 N   0  0  0  0  0  0  0  0  0  0  0  0
   35.1930   29.6520   39.8910 N   0  0  0  0  0  0  0  0  0  0  0  0
   38.3560   30.3740   39.4770 H   0  0  0  0  0  0  0  0  0  0  0  0
   37.3930   30.9500   41.8240 H   0  0  0  0  0  0  0  0  0  0  0  0
   34.9300   30.3050   41.9150 H   0  0  0  0  0  0  0  0  0  0  0  0
  1  3  1  0  0  0  0
  2  1  2  0  0  0  0
  3  8  1  0  0  0  0
  4  5  1  0  0  0  0
  4  3  1  0  0  0  0
  4 10  1  0  0  0  0
  5 11  1  0  0  0  0
  5  6  1  0  0  0  0
  6 14  1  0  0  0  0
  6  7  1  0  0  0  0
  7 15  1  0  0  0  0
  7 16  1  0  0  0  0
  8 17  1  1  0  0  0
  8  7  1  0  0  0  0
  8 18  1  0  0  0  0
  9  4  1  0  0  0  0
 12  5  1  0  0  0  0
 13  6  1  0  0  0  0
 18 22  1  0  0  0  0
 18 19  1  1  0  0  0
 19 20  1  0  0  0  0
 20 21  1  0  0  0  0
 22 23  1  0  0  0  0
 22 21  1  0  0  0  0
 24  1  1  0  0  0  0
 25 26  1  0  0  0  0
 25 24  1  0  0  0  0
 26 33  1  0  0  0  0
 27 31  1  0  0  0  0
 27 26  2  0  0  0  0
 28 27  1  0  0  0  0
 29 28  2  0  0  0  0
 29 30  1  0  0  0  0
 30 25  2  0  0  0  0
 32 29  1  0  0  0  0
 33 34  1  0  0  0  0
 33 37  2  0  0  0  0
 34 35  2  0  0  0  0
 35 36  1  0  0  0  0
 35 39  1  0  0  0  0
 36 40  1  0  0  0  0
 37 36  1  0  0  0  0
 38 34  1  0  0  0  0
M  END
>  <minimizedAffinity>
-5.49597454

$$$$

 OpenBabel03252508553D

 40 43  0  0  1  0  0  0  0  0999 V2000
   37.6000   30.2650   38.0020 C   0  0  0  0  0  0  0  0  0  0  0  0
   36.7770   30.3810   37.0380 O   0  0  0  0  0  0  0  0  0  0  0  0
   36.8640   29.3500   38.8570 N   0  0  0  0  0  0  0  0  0  0  0  0
   36.5610   28.0730   38.2600 C   0  0  0  0  0  0  0  0  0  0  0  0
   35.0940   28.1880   37.7940 C   0  0  0  0  0  0  0  0  0  0  0  0
   34.3810   29.0470   38.8370 C   0  0  0  0  0  0  0  0  0  0  0  0
   35.0030   28.8650   40.2060 C   0  0  0  0  0  0  0  0  0  0  0  0
   36.3900   29.5250   40.2160 C   0  0  1  0  0  0  0  0  0  0  0  0
   37.1350   27.8390   37.3590 H   0  0  0  0  0  0  0  0  0  0  0  0
   36.6480   27.2310   38.9700 H   0  0  0  0  0  0  0  0  0  0  0  0
   34.6450   27.1740   37.7220 H   0  0  0  0  0  0  0  0  0  0  0  0
   35.0340   28.6890   36.8190 H   0  0  0  0  0  0  0  0  0  0  0  0
   34.4220   30.1230   38.5130 H   0  0  0  0  0  0  0  0  0  0  0  0
   33.3010   28.8050   38.8780 H   0  0  0  0  0  0  0  0  0  0  0  0
   35.1690   27.7750   40.3280 H   0  0  0  0  0  0  0  0  0  0  0  0
   34.3270   29.3150   40.9510 H   0  0  0  0  0  0  0  0  0  0  0  0
   36.2250   30.6090   40.3750 H   0  0  0  0  0  0  0  0  0  0  0  0
   37.2620   28.9150   41.1780 N   0  0  1  0  0  0  0  0  0  0  0  0
   37.8770   29.9690   41.9570 C   0  0  0  0  0  2  0  0  0  0  0  0
   38.3590   29.2480   43.2110 C   0  0  0  0  0  2  0  0  0  0  0  0
   37.3580   28.1540   43.4420 C   0  0  0  0  0  2  0  0  0  0  0  0
   36.6170   28.1080   42.1480 C   0  0  0  0  0  3  0  0  0  0  0  0
   35.5260   28.2640   42.2460 H   0  0  0  0  0  0  0  0  0  0  0  0
   38.8120   30.8680   38.1170 O   0  0  0  0  0  0  0  0  0  0  0  0
   39.1300   31.9820   38.8500 C   0  0  0  0  0  0  0  0  0  0  0  0
   40.4750   32.3800   38.8550 C   0  0  0  0  0  0  0  0  0  0  0  0
   40.7900   33.5210   39.6090 C   0  0  0  0  0  0  0  0  0  0  0  0
   39.7840   34.1610   40.2780 N   0  0  0  0  0  0  0  0  0  0  0  0
   38.5280   33.7350   40.2350 C   0  0  0  0  0  0  0  0  0  0  0  0
   38.1940   32.6450   39.5210 N   0  0  0  0  0  0  0  0  0  0  0  0
   41.8320   33.8350   39.6160 H   0  0  0  0  0  0  0  0  0  0  0  0
   37.7910   34.3040   40.7970 H   0  0  0  0  0  0  0  0  0  0  0  0
   41.4660   31.6270   38.1070 C   0  0  0  0  0  0  0  0  0  0  0  0
   42.2150   30.5910   38.6760 C   0  0  0  0  0  0  0  0  0  0  0  0
   43.0070   30.1680   37.6410 C   0  0  0  0  0  0  0  0  0  0  0  0
   42.7650   30.8800   36.5320 N   0  0  0  0  0  0  0  0  0  0  0  0
   41.8270   31.7610   36.8350 N   0  0  0  0  0  0  0  0  0  0  0  0
   42.2270   30.1730   39.6670 H   0  0  0  0  0  0  0  0  0  0  0  0
   43.7410   29.3490   37.7190 H   0  0  0  0  0  0  0  0  0  0  0  0
   43.2600   30.7220   35.6280 H   0  0  0  0  0  0  0  0  0  0  0  0
  1 24  1  0  0  0  0
  1  3  1  0  0  0  0
  2  1  2  0  0  0  0
  3  8  1  0  0  0  0
  4  3  1  0  0  0  0
  4 10  1  0  0  0  0
  5  4  1  0  0  0  0
  5  6  1  0  0  0  0
  6 14  1  0  0  0  0
  6  7  1  0  0  0  0
  7  8  1  0  0  0  0
  7 15  1  0  0  0  0
  7 16  1  0  0  0  0
  8 17  1  1  0  0  0
  8 18  1  0  0  0  0
  9  4  1  0  0  0  0
 11  5  1  0  0  0  0
 12  5  1  0  0  0  0
 13  6  1  0  0  0  0
 18 19  1  1  0  0  0
 18 22  1  0  0  0  0
 19 20  1  0  0  0  0
 20 21  1  0  0  0  0
 22 23  1  0  0  0  0
 22 21  1  0  0  0  0
 24 25  1  0  0  0  0
 25 26  2  0  0  0  0
 25 30  1  0  0  0  0
 26 27  1  0  0  0  0
 27 31  1  0  0  0  0
 27 28  2  0  0  0  0
 29 28  1  0  0  0  0
 29 32  1  0  0  0  0
 30 29  2  0  0  0  0
 33 34  1  0  0  0  0
 33 26  1  0  0  0  0
 34 38  1  0  0  0  0
 35 39  1  0  0  0  0
 35 34  2  0  0  0  0
 36 37  1  0  0  0  0
 36 35  1  0  0  0  0
 37 33  2  0  0  0  0
 40 36  1  0  0  0  0
M  END
>  <minimizedAffinity>
-5.48447227

$$$$

 OpenBabel03252508553D

 40 43  0  0  1  0  0  0  0  0999 V2000
   37.8530   27.6360   38.6070 C   0  0  0  0  0  0  0  0  0  0  0  0
   37.4000   27.1660   37.5140 O   0  0  0  0  0  0  0  0  0  0  0  0
   37.4210   29.0180   38.4880 N   0  0  0  0  0  0  0  0  0  0  0  0
   35.9950   29.2020   38.3800 C   0  0  0  0  0  0  0  0  0  0  0  0
   35.7300   29.4060   36.8740 C   0  0  0  0  0  0  0  0  0  0  0  0
   36.9270   30.1890   36.3330 C   0  0  0  0  0  0  0  0  0  0  0  0
   37.5050   31.0970   37.3970 C   0  0  0  0  0  0  0  0  0  0  0  0
   38.2040   30.2370   38.4610 C   0  0  1  0  0  0  0  0  0  0  0  0
   35.3970   28.3310   38.6650 H   0  0  0  0  0  0  0  0  0  0  0  0
   35.6290   30.0840   38.9340 H   0  0  0  0  0  0  0  0  0  0  0  0
   34.7790   29.9630   36.7340 H   0  0  0  0  0  0  0  0  0  0  0  0
   35.6730   28.4400   36.3540 H   0  0  0  0  0  0  0  0  0  0  0  0
   37.6980   29.4620   35.9570 H   0  0  0  0  0  0  0  0  0  0  0  0
   36.6400   30.7840   35.4440 H   0  0  0  0  0  0  0  0  0  0  0  0
   36.6400   31.5790   37.8970 H   0  0  0  0  0  0  0  0  0  0  0  0
   38.2030   31.7960   36.9090 H   0  0  0  0  0  0  0  0  0  0  0  0
   39.2040   29.9830   38.0570 H   0  0  0  0  0  0  0  0  0  0  0  0
   38.2350   30.8920   39.7380 N   0  0  1  0  0  0  0  0  0  0  0  0
   39.6160   30.9800   40.1630 C   0  0  0  0  0  2  0  0  0  0  0  0
   39.5910   32.0790   41.2200 C   0  0  0  0  0  2  0  0  0  0  0  0
   38.5180   33.0280   40.7730 C   0  0  0  0  0  2  0  0  0  0  0  0
   37.7930   32.2380   39.7350 C   0  0  0  0  0  3  0  0  0  0  0  0
   37.7570   32.7230   38.7410 H   0  0  0  0  0  0  0  0  0  0  0  0
   38.5400   26.9590   39.5630 O   0  0  0  0  0  0  0  0  0  0  0  0
   38.1180   25.8820   40.2970 C   0  0  0  0  0  0  0  0  0  0  0  0
   37.6290   26.1380   41.5860 C   0  0  0  0  0  0  0  0  0  0  0  0
   37.2000   25.0280   42.3300 C   0  0  0  0  0  0  0  0  0  0  0  0
   37.2860   23.7880   41.7600 N   0  0  0  0  0  0  0  0  0  0  0  0
   37.7590   23.6070   40.5340 C   0  0  0  0  0  0  0  0  0  0  0  0
   38.1770   24.6520   39.7960 N   0  0  0  0  0  0  0  0  0  0  0  0
   36.8190   25.2220   43.3290 H   0  0  0  0  0  0  0  0  0  0  0  0
   37.7920   22.5870   40.1590 H   0  0  0  0  0  0  0  0  0  0  0  0
   37.5810   27.4970   42.0950 C   0  0  0  0  0  0  0  0  0  0  0  0
   38.5950   28.0430   42.8900 C   0  0  0  0  0  0  0  0  0  0  0  0
   38.1530   29.3160   43.1380 C   0  0  0  0  0  0  0  0  0  0  0  0
   36.9710   29.5350   42.5470 N   0  0  0  0  0  0  0  0  0  0  0  0
   36.6400   28.4190   41.9190 N   0  0  0  0  0  0  0  0  0  0  0  0
   39.5190   27.6330   43.2580 H   0  0  0  0  0  0  0  0  0  0  0  0
   38.7040   30.0540   43.7440 H   0  0  0  0  0  0  0  0  0  0  0  0
   36.4560   30.4400   42.6090 H   0  0  0  0  0  0  0  0  0  0  0  0
  1 24  1  0  0  0  0
  2  1  2  0  0  0  0
  3  1  1  0  0  0  0
  4  3  1  0  0  0  0
  4  9  1  0  0  0  0
  4 10  1  0  0  0  0
  5  4  1  0  0  0  0
  6  5  1  0  0  0  0
  6  7  1  0  0  0  0
  7 15  1  0  0  0  0
  7  8  1  0  0  0  0
  8 17  1  6  0  0  0
  8  3  1  0  0  0  0
  8 18  1  0  0  0  0
 11  5  1  0  0  0  0
 12  5  1  0  0  0  0
 13  6  1  0  0  0  0
 14  6  1  0  0  0  0
 16  7  1  0  0  0  0
 18 19  1  6  0  0  0
 19 20  1  0  0  0  0
 21 20  1  0  0  0  0
 22 18  1  0  0  0  0
 22 21  1  0  0  0  0
 23 22  1  0  0  0  0
 24 25  1  0  0  0  0
 25 26  1  0  0  0  0
 26 33  1  0  0  0  0
 26 27  2  0  0  0  0
 27 31  1  0  0  0  0
 28 27  1  0  0  0  0
 29 28  2  0  0  0  0
 30 25  2  0  0  0  0
 30 29  1  0  0  0  0
 32 29  1  0  0  0  0
 33 34  1  0  0  0  0
 34 35  2  0  0  0  0
 34 38  1  0  0  0  0
 35 39  1  0  0  0  0
 36 40  1  0  0  0  0
 36 35  1  0  0  0  0
 37 33  2  0  0  0  0
 37 36  1  0  0  0  0
M  END
>  <minimizedAffinity>
-5.45634699

$$$$

 OpenBabel03252508553D

 40 43  0  0  1  0  0  0  0  0999 V2000
   40.6360   28.8060   41.0890 C   0  0  0  0  0  0  0  0  0  0  0  0
   41.8360   29.0720   41.4220 O   0  0  0  0  0  0  0  0  0  0  0  0
   40.4080   27.6160   41.8900 N   0  0  0  0  0  0  0  0  0  0  0  0
   40.5350   27.8080   43.3130 C   0  0  0  0  0  0  0  0  0  0  0  0
   41.9460   27.2890   43.6630 C   0  0  0  0  0  0  0  0  0  0  0  0
   42.1990   26.0940   42.7450 C   0  0  0  0  0  0  0  0  0  0  0  0
   40.9060   25.3810   42.4140 C   0  0  0  0  0  0  0  0  0  0  0  0
   40.0720   26.2680   41.4770 C   0  0  1  0  0  0  0  0  0  0  0  0
   40.5210   28.8530   43.6390 H   0  0  0  0  0  0  0  0  0  0  0  0
   39.7880   27.2410   43.8950 H   0  0  0  0  0  0  0  0  0  0  0  0
   41.9820   26.9980   44.7340 H   0  0  0  0  0  0  0  0  0  0  0  0
   42.7040   28.0580   43.4630 H   0  0  0  0  0  0  0  0  0  0  0  0
   42.7150   26.4530   41.8130 H   0  0  0  0  0  0  0  0  0  0  0  0
   42.9140   25.3840   43.2080 H   0  0  0  0  0  0  0  0  0  0  0  0
   40.3410   25.3060   43.3660 H   0  0  0  0  0  0  0  0  0  0  0  0
   41.1560   24.4130   41.9510 H   0  0  0  0  0  0  0  0  0  0  0  0
   40.4780   26.1200   40.4570 H   0  0  0  0  0  0  0  0  0  0  0  0
   38.6680   25.9960   41.5960 N   0  0  1  0  0  0  0  0  0  0  0  0
   38.1040   25.9600   40.2640 C   0  0  0  0  0  2  0  0  0  0  0  0
   36.7940   25.2030   40.4550 C   0  0  0  0  0  2  0  0  0  0  0  0
   37.0650   24.2240   41.5590 C   0  0  0  0  0  2  0  0  0  0  0  0
   38.3450   24.7270   42.1380 C   0  0  0  0  0  3  0  0  0  0  0  0
   39.1660   23.9860   42.1330 H   0  0  0  0  0  0  0  0  0  0  0  0
   39.8590   29.4990   40.2170 O   0  0  0  0  0  0  0  0  0  0  0  0
   38.6300   30.0590   40.4470 C   0  0  0  0  0  0  0  0  0  0  0  0
   38.3150   31.2250   39.7350 C   0  0  0  0  0  0  0  0  0  0  0  0
   37.0550   31.7910   39.9780 C   0  0  0  0  0  0  0  0  0  0  0  0
   36.2270   31.1800   40.8790 N   0  0  0  0  0  0  0  0  0  0  0  0
   36.5810   30.0760   41.5240 C   0  0  0  0  0  0  0  0  0  0  0  0
   37.7830   29.5090   41.3120 N   0  0  0  0  0  0  0  0  0  0  0  0
   36.8050   32.6950   39.4280 H   0  0  0  0  0  0  0  0  0  0  0  0
   35.8620   29.6560   42.2230 H   0  0  0  0  0  0  0  0  0  0  0  0
   39.2690   31.7930   38.7990 C   0  0  0  0  0  0  0  0  0  0  0  0
   40.3570   32.5720   39.2080 C   0  0  0  0  0  0  0  0  0  0  0  0
   40.9800   32.8900   38.0300 C   0  0  0  0  0  0  0  0  0  0  0  0
   40.3330   32.3540   36.9870 N   0  0  0  0  0  0  0  0  0  0  0  0
   39.2970   31.6920   37.4740 N   0  0  0  0  0  0  0  0  0  0  0  0
   40.6900   32.8870   40.1810 H   0  0  0  0  0  0  0  0  0  0  0  0
   41.8920   33.5060   37.9590 H   0  0  0  0  0  0  0  0  0  0  0  0
   40.6380   32.4730   35.9970 H   0  0  0  0  0  0  0  0  0  0  0  0
  1  2  2  0  0  0  0
  1  3  1  0  0  0  0
  3  4  1  0  0  0  0
  4  9  1  0  0  0  0
  4  5  1  0  0  0  0
  4 10  1  0  0  0  0
  5 11  1  0  0  0  0
  6 14  1  0  0  0  0
  6  5  1  0  0  0  0
  7  6  1  0  0  0  0
  7 15  1  0  0  0  0
  8 17  1  6  0  0  0
  8 18  1  0  0  0  0
  8  3  1  0  0  0  0
  8  7  1  0  0  0  0
 12  5  1  0  0  0  0
 13  6  1  0  0  0  0
 16  7  1  0  0  0  0
 18 19  1  6  0  0  0
 18 22  1  0  0  0  0
 19 20  1  0  0  0  0
 20 21  1  0  0  0  0
 21 22  1  0  0  0  0
 23 22  1  0  0  0  0
 24 25  1  0  0  0  0
 24  1  1  0  0  0  0
 25 30  1  0  0  0  0
 26 27  1  0  0  0  0
 26 25  2  0  0  0  0
 27 28  2  0  0  0  0
 28 29  1  0  0  0  0
 29 32  1  0  0  0  0
 30 29  2  0  0  0  0
 31 27  1  0  0  0  0
 33 34  1  0  0  0  0
 33 26  1  0  0  0  0
 34 38  1  0  0  0  0
 35 34  2  0  0  0  0
 36 37  1  0  0  0  0
 36 35  1  0  0  0  0
 37 33  2  0  0  0  0
 39 35  1  0  0  0  0
 40 36  1  0  0  0  0
M  END
>  <minimizedAffinity>
-5.41067791

$$$$

 OpenBabel03252508553D

 40 43  0  0  1  0  0  0  0  0999 V2000
   36.9740   27.9070   40.9290 C   0  0  0  0  0  0  0  0  0  0  0  0
   36.3630   27.0090   40.2660 O   0  0  0  0  0  0  0  0  0  0  0  0
   36.6130   29.0830   40.1580 N   0  0  0  0  0  0  0  0  0  0  0  0
   35.1980   29.3490   40.0820 C   0  0  0  0  0  0  0  0  0  0  0  0
   34.7610   28.8020   38.7060 C   0  0  0  0  0  0  0  0  0  0  0  0
   35.9260   29.0690   37.7530 C   0  0  0  0  0  0  0  0  0  0  0  0
   36.6840   30.3150   38.1590 C   0  0  0  0  0  0  0  0  0  0  0  0
   37.4580   30.0290   39.4540 C   0  0  1  0  0  0  0  0  0  0  0  0
   34.5900   28.8110   40.8150 H   0  0  0  0  0  0  0  0  0  0  0  0
   34.9560   30.4250   40.1350 H   0  0  0  0  0  0  0  0  0  0  0  0
   33.8350   29.3190   38.3770 H   0  0  0  0  0  0  0  0  0  0  0  0
   34.5840   27.7200   38.7560 H   0  0  0  0  0  0  0  0  0  0  0  0
   36.6000   28.1700   37.7400 H   0  0  0  0  0  0  0  0  0  0  0  0
   35.5660   29.1690   36.7090 H   0  0  0  0  0  0  0  0  0  0  0  0
   35.9170   31.0770   38.4080 H   0  0  0  0  0  0  0  0  0  0  0  0
   37.3550   30.5930   37.3300 H   0  0  0  0  0  0  0  0  0  0  0  0
   38.3830   29.4950   39.1600 H   0  0  0  0  0  0  0  0  0  0  0  0
   37.6840   31.2250   40.2140 N   0  0  1  0  0  0  0  0  0  0  0  0
   39.0990   31.5290   40.1580 C   0  0  0  0  0  2  0  0  0  0  0  0
   39.1580   33.0050   40.5390 C   0  0  0  0  0  2  0  0  0  0  0  0
   37.8860   33.5980   40.0080 C   0  0  0  0  0  2  0  0  0  0  0  0
   37.0640   32.3910   39.7000 C   0  0  0  0  0  3  0  0  0  0  0  0
   36.7320   32.3260   38.6460 H   0  0  0  0  0  0  0  0  0  0  0  0
   37.7340   27.7250   42.0400 O   0  0  0  0  0  0  0  0  0  0  0  0
   39.0900   27.8690   42.1650 C   0  0  0  0  0  0  0  0  0  0  0  0
   39.8730   26.7160   42.0060 C   0  0  0  0  0  0  0  0  0  0  0  0
   41.2610   26.8740   42.1360 C   0  0  0  0  0  0  0  0  0  0  0  0
   41.7540   28.1210   42.4030 N   0  0  0  0  0  0  0  0  0  0  0  0
   40.9620   29.1760   42.5430 C   0  0  0  0  0  0  0  0  0  0  0  0
   39.6280   29.0570   42.4250 N   0  0  0  0  0  0  0  0  0  0  0  0
   41.8730   25.9830   42.0130 H   0  0  0  0  0  0  0  0  0  0  0  0
   41.4390   30.1300   42.7550 H   0  0  0  0  0  0  0  0  0  0  0  0
   39.2460   25.4370   41.7220 C   0  0  0  0  0  0  0  0  0  0  0  0
   39.1930   24.8900   40.4360 C   0  0  0  0  0  0  0  0  0  0  0  0
   38.5300   23.7060   40.6210 C   0  0  0  0  0  0  0  0  0  0  0  0
   38.2040   23.5380   41.9100 N   0  0  0  0  0  0  0  0  0  0  0  0
   38.6460   24.6000   42.5620 N   0  0  0  0  0  0  0  0  0  0  0  0
   39.5570   25.2460   39.4880 H   0  0  0  0  0  0  0  0  0  0  0  0
   38.3010   22.9920   39.8130 H   0  0  0  0  0  0  0  0  0  0  0  0
   37.6940   22.7020   42.2700 H   0  0  0  0  0  0  0  0  0  0  0  0
  1 24  1  0  0  0  0
  2  1  2  0  0  0  0
  3  1  1  0  0  0  0
  4 10  1  0  0  0  0
  4  3  1  0  0  0  0
  4  9  1  0  0  0  0
  5 12  1  0  0  0  0
  5  4  1  0  0  0  0
  6  7  1  0  0  0  0
  6  5  1  0  0  0  0
  7 15  1  0  0  0  0
  7  8  1  0  0  0  0
  8 17  1  6  0  0  0
  8  3  1  0  0  0  0
  8 18  1  0  0  0  0
 11  5  1  0  0  0  0
 13  6  1  0  0  0  0
 14  6  1  0  0  0  0
 16  7  1  0  0  0  0
 18 19  1  6  0  0  0
 19 20  1  0  0  0  0
 21 20  1  0  0  0  0
 22 21  1  0  0  0  0
 22 18  1  0  0  0  0
 23 22  1  0  0  0  0
 24 25  1  0  0  0  0
 25 30  1  0  0  0  0
 26 27  1  0  0  0  0
 26 25  2  0  0  0  0
 27 28  2  0  0  0  0
 28 29  1  0  0  0  0
 29 32  1  0  0  0  0
 30 29  2  0  0  0  0
 31 27  1  0  0  0  0
 33 26  1  0  0  0  0
 33 37  2  0  0  0  0
 34 35  2  0  0  0  0
 34 33  1  0  0  0  0
 35 36  1  0  0  0  0
 36 40  1  0  0  0  0
 36 37  1  0  0  0  0
 38 34  1  0  0  0  0
 39 35  1  0  0  0  0
M  END
>  <minimizedAffinity>
-5.4002943

$$$$

 OpenBabel03252508553D

 40 43  0  0  1  0  0  0  0  0999 V2000
   38.4540   29.3000   41.1560 C   0  0  0  0  0  0  0  0  0  0  0  0
   38.6640   29.3070   42.4120 O   0  0  0  0  0  0  0  0  0  0  0  0
   37.6500   28.0960   41.0400 N   0  0  0  0  0  0  0  0  0  0  0  0
   36.4160   28.1150   41.7850 C   0  0  0  0  0  0  0  0  0  0  0  0
   36.7120   27.3150   43.0710 C   0  0  0  0  0  0  0  0  0  0  0  0
   37.6670   26.1930   42.6640 C   0  0  0  0  0  0  0  0  0  0  0  0
   37.4220   25.7660   41.2320 C   0  0  0  0  0  0  0  0  0  0  0  0
   37.8990   26.8810   40.2900 C   0  0  1  0  0  0  0  0  0  0  0  0
   36.1010   29.1070   42.1250 H   0  0  0  0  0  0  0  0  0  0  0  0
   35.5780   27.6380   41.2470 H   0  0  0  0  0  0  0  0  0  0  0  0
   35.7630   26.9150   43.4880 H   0  0  0  0  0  0  0  0  0  0  0  0
   37.2060   27.9490   43.8180 H   0  0  0  0  0  0  0  0  0  0  0  0
   38.7250   26.5460   42.8070 H   0  0  0  0  0  0  0  0  0  0  0  0
   37.5640   25.3220   43.3410 H   0  0  0  0  0  0  0  0  0  0  0  0
   36.3210   25.6990   41.1130 H   0  0  0  0  0  0  0  0  0  0  0  0
   37.9620   24.8210   41.0600 H   0  0  0  0  0  0  0  0  0  0  0  0
   38.9970   26.7670   40.1930 H   0  0  0  0  0  0  0  0  0  0  0  0
   37.1930   26.8590   39.0400 N   0  0  1  0  0  0  0  0  0  0  0  0
   38.1360   26.5080   38.0000 C   0  0  0  0  0  2  0  0  0  0  0  0
   37.2430   26.0360   36.8570 C   0  0  0  0  0  2  0  0  0  0  0  0
   36.0570   25.4020   37.5240 C   0  0  0  0  0  2  0  0  0  0  0  0
   36.1860   25.8680   38.9350 C   0  0  0  0  0  3  0  0  0  0  0  0
   36.2450   25.0500   39.6790 H   0  0  0  0  0  0  0  0  0  0  0  0
   38.8990   30.2080   40.2500 O   0  0  0  0  0  0  0  0  0  0  0  0
   38.5820   31.5380   40.1670 C   0  0  0  0  0  0  0  0  0  0  0  0
   37.5900   31.9020   39.2440 C   0  0  0  0  0  0  0  0  0  0  0  0
   37.2720   33.2660   39.1670 C   0  0  0  0  0  0  0  0  0  0  0  0
   37.9380   34.1400   39.9810 N   0  0  0  0  0  0  0  0  0  0  0  0
   38.8690   33.7350   40.8360 C   0  0  0  0  0  0  0  0  0  0  0  0
   39.1960   32.4340   40.9340 N   0  0  0  0  0  0  0  0  0  0  0  0
   36.5030   33.5540   38.4540 H   0  0  0  0  0  0  0  0  0  0  0  0
   39.3490   34.4970   41.4460 H   0  0  0  0  0  0  0  0  0  0  0  0
   36.9440   30.8920   38.4260 C   0  0  0  0  0  0  0  0  0  0  0  0
   37.3470   30.6080   37.1170 C   0  0  0  0  0  0  0  0  0  0  0  0
   36.4880   29.6140   36.7280 C   0  0  0  0  0  0  0  0  0  0  0  0
   35.6300   29.3120   37.7120 N   0  0  0  0  0  0  0  0  0  0  0  0
   35.9230   30.0990   38.7340 N   0  0  0  0  0  0  0  0  0  0  0  0
   38.1250   31.0210   36.4990 H   0  0  0  0  0  0  0  0  0  0  0  0
   36.5070   29.1330   35.7360 H   0  0  0  0  0  0  0  0  0  0  0  0
   34.8900   28.5820   37.6270 H   0  0  0  0  0  0  0  0  0  0  0  0
  1  2  2  0  0  0  0
  3  1  1  0  0  0  0
  3  4  1  0  0  0  0
  4  9  1  0  0  0  0
  4  5  1  0  0  0  0
  5 11  1  0  0  0  0
  5 12  1  0  0  0  0
  6 13  1  0  0  0  0
  6  5  1  0  0  0  0
  6 14  1  0  0  0  0
  7  6  1  0  0  0  0
  8 17  1  6  0  0  0
  8  3  1  0  0  0  0
  8  7  1  0  0  0  0
 10  4  1  0  0  0  0
 15  7  1  0  0  0  0
 16  7  1  0  0  0  0
 18 19  1  6  0  0  0
 18  8  1  0  0  0  0
 20 21  1  0  0  0  0
 20 19  1  0  0  0  0
 21 22  1  0  0  0  0
 22 18  1  0  0  0  0
 22 23  1  0  0  0  0
 24  1  1  0  0  0  0
 25 24  1  0  0  0  0
 25 30  1  0  0  0  0
 26 25  2  0  0  0  0
 27 26  1  0  0  0  0
 27 28  2  0  0  0  0
 28 29  1  0  0  0  0
 29 30  2  0  0  0  0
 29 32  1  0  0  0  0
 31 27  1  0  0  0  0
 33 37  2  0  0  0  0
 33 26  1  0  0  0  0
 34 33  1  0  0  0  0
 35 34  2  0  0  0  0
 35 36  1  0  0  0  0
 36 37  1  0  0  0  0
 38 34  1  0  0  0  0
 39 35  1  0  0  0  0
 40 36  1  0  0  0  0
M  END
>  <minimizedAffinity>
-5.38047552

$$$$
