
 OpenBabel03252509283D

 18 19  0  0  0  0  0  0  0  0999 V2000
   45.0620   35.9450   42.8670 C   0  0  0  0  0  0  0  0  0  0  0  0
   44.0160   35.5570   42.0050 C   0  0  0  0  0  0  0  0  0  0  0  0
   43.7230   34.2060   41.8990 C   0  0  0  0  0  0  0  0  0  0  0  0
   44.4600   33.3200   42.6340 N   0  0  0  0  0  0  0  0  0  0  0  0
   45.4640   33.7320   43.4590 C   0  0  0  0  0  0  0  0  0  0  0  0
   45.7570   35.0310   43.5690 N   0  0  0  0  0  0  0  0  0  0  0  0
   45.2760   37.0090   42.9370 H   0  0  0  0  0  0  0  0  0  0  0  0
   43.4390   36.2710   41.4270 H   0  0  0  0  0  0  0  0  0  0  0  0
   46.0230   32.9930   44.0230 H   0  0  0  0  0  0  0  0  0  0  0  0
   42.6400   33.8050   41.0060 C   0  0  0  0  0  0  0  0  0  0  0  0
   43.0660   33.1040   40.2620 H   0  0  0  0  0  0  0  0  0  0  0  0
   41.8580   33.2730   41.5840 H   0  0  0  0  0  0  0  0  0  0  0  0
   41.9790   34.9250   40.3690 N   0  0  0  0  0  0  0  0  0  0  0  0
   42.1420   34.9990   38.9600 C   0  0  0  0  0  3  0  0  0  0  0  0
   40.7780   34.8710   38.3250 C   0  0  0  0  0  3  0  0  0  0  0  0
   39.7850   34.9860   39.4450 C   0  0  0  0  0  2  0  0  0  0  0  0
   40.6030   35.0250   40.7050 C   0  0  0  0  0  3  0  0  0  0  0  0
   40.2580   34.2630   41.4340 H   0  0  0  0  0  0  0  0  0  0  0  0
  1  7  1  0  0  0  0
  1  6  1  0  0  0  0
  2  1  2  0  0  0  0
  3  2  1  0  0  0  0
  3  4  2  0  0  0  0
  4  5  1  0  0  0  0
  5  6  2  0  0  0  0
  5  9  1  0  0  0  0
  8  2  1  0  0  0  0
 10 12  1  0  0  0  0
 10  3  1  0  0  0  0
 11 10  1  0  0  0  0
 13 17  1  0  0  0  0
 13 10  1  0  0  0  0
 14 13  1  0  0  0  0
 15 14  2  0  0  0  0
 15 16  1  0  0  0  0
 16 17  1  0  0  0  0
 17 18  1  0  0  0  0
M  END
>  <minimizedAffinity>
-3.5769217

>  <minimizedRMSD>
6.20226622

$$$$
