
 OpenBabel03252509303D

 18 19  0  0  0  0  0  0  0  0999 V2000
   39.9950   25.8110   43.6800 C   0  0  0  0  0  0  0  0  0  0  0  0
   39.0810   26.8800   43.5710 C   0  0  0  0  0  0  0  0  0  0  0  0
   37.9190   26.6750   42.8440 C   0  0  0  0  0  0  0  0  0  0  0  0
   37.7160   25.4510   42.2710 N   0  0  0  0  0  0  0  0  0  0  0  0
   38.6220   24.4400   42.3980 C   0  0  0  0  0  0  0  0  0  0  0  0
   39.7460   24.6240   43.0960 N   0  0  0  0  0  0  0  0  0  0  0  0
   40.9000   25.9910   44.2540 H   0  0  0  0  0  0  0  0  0  0  0  0
   39.2550   27.8470   44.0300 H   0  0  0  0  0  0  0  0  0  0  0  0
   38.4190   23.4840   41.9260 H   0  0  0  0  0  0  0  0  0  0  0  0
   36.9740   27.7810   42.7300 C   0  0  0  0  0  0  0  0  0  0  0  0
   35.9560   27.3600   42.8340 H   0  0  0  0  0  0  0  0  0  0  0  0
   37.1430   28.5020   43.5550 H   0  0  0  0  0  0  0  0  0  0  0  0
   37.1200   28.5350   41.5010 N   0  0  0  0  0  0  0  0  0  0  0  0
   36.1080   28.3070   40.5300 C   0  0  0  0  0  3  0  0  0  0  0  0
   35.3840   29.6100   40.2970 C   0  0  0  0  0  3  0  0  0  0  0  0
   36.1990   30.6670   40.9840 C   0  0  0  0  0  2  0  0  0  0  0  0
   37.2820   29.9280   41.7180 C   0  0  0  0  0  3  0  0  0  0  0  0
   37.3160   30.2200   42.7870 H   0  0  0  0  0  0  0  0  0  0  0  0
  1  7  1  0  0  0  0
  2  1  1  0  0  0  0
  2  8  1  0  0  0  0
  3  2  2  0  0  0  0
  4  5  2  0  0  0  0
  4  3  1  0  0  0  0
  5  6  1  0  0  0  0
  6  1  2  0  0  0  0
  9  5  1  0  0  0  0
 10 11  1  0  0  0  0
 10  3  1  0  0  0  0
 10 12  1  0  0  0  0
 13 17  1  0  0  0  0
 13 10  1  0  0  0  0
 14 13  1  0  0  0  0
 15 14  2  0  0  0  0
 15 16  1  0  0  0  0
 16 17  1  0  0  0  0
 17 18  1  0  0  0  0
M  END
>  <minimizedAffinity>
-3.86603117

$$$$

 OpenBabel03252509303D

 18 19  0  0  0  0  0  0  0  0999 V2000
   37.6640   33.0260   39.2720 C   0  0  0  0  0  0  0  0  0  0  0  0
   36.9460   31.9520   39.8350 C   0  0  0  0  0  0  0  0  0  0  0  0
   37.5410   31.2330   40.8600 C   0  0  0  0  0  0  0  0  0  0  0  0
   38.7910   31.6000   41.2730 N   0  0  0  0  0  0  0  0  0  0  0  0
   39.4560   32.6460   40.7050 C   0  0  0  0  0  0  0  0  0  0  0  0
   38.8940   33.3470   39.7170 N   0  0  0  0  0  0  0  0  0  0  0  0
   37.1810   33.5780   38.4700 H   0  0  0  0  0  0  0  0  0  0  0  0
   35.9540   31.6700   39.4970 H   0  0  0  0  0  0  0  0  0  0  0  0
   40.4470   32.9020   41.0660 H   0  0  0  0  0  0  0  0  0  0  0  0
   36.7980   30.1200   41.4420 C   0  0  0  0  0  0  0  0  0  0  0  0
   36.1580   30.5320   42.2450 H   0  0  0  0  0  0  0  0  0  0  0  0
   36.1450   29.6630   40.6710 H   0  0  0  0  0  0  0  0  0  0  0  0
   37.6510   29.0550   41.9300 N   0  0  0  0  0  0  0  0  0  0  0  0
   37.6830   28.9060   43.3420 C   0  0  0  0  0  3  0  0  0  0  0  0
   37.1440   27.5370   43.6800 C   0  0  0  0  0  3  0  0  0  0  0  0
   37.0460   26.7970   42.3770 C   0  0  0  0  0  2  0  0  0  0  0  0
   37.3860   27.8030   41.3140 C   0  0  0  0  0  3  0  0  0  0  0  0
   36.6030   27.8400   40.5290 H   0  0  0  0  0  0  0  0  0  0  0  0
  1  6  2  0  0  0  0
  1  2  1  0  0  0  0
  2  3  2  0  0  0  0
  3  4  1  0  0  0  0
  3 10  1  0  0  0  0
  5  9  1  0  0  0  0
  5  4  2  0  0  0  0
  6  5  1  0  0  0  0
  7  1  1  0  0  0  0
  8  2  1  0  0  0  0
 10 13  1  0  0  0  0
 10 11  1  0  0  0  0
 12 10  1  0  0  0  0
 13 14  1  0  0  0  0
 14 15  2  0  0  0  0
 16 15  1  0  0  0  0
 17 13  1  0  0  0  0
 17 16  1  0  0  0  0
 18 17  1  0  0  0  0
M  END
>  <minimizedAffinity>
-3.76077461

$$$$

 OpenBabel03252509303D

 18 19  0  0  0  0  0  0  0  0999 V2000
   38.9410   27.9890   43.2620 C   0  0  0  0  0  0  0  0  0  0  0  0
   38.4470   29.1750   42.6810 C   0  0  0  0  0  0  0  0  0  0  0  0
   37.2330   29.1170   42.0120 C   0  0  0  0  0  0  0  0  0  0  0  0
   36.5780   27.9200   41.9520 N   0  0  0  0  0  0  0  0  0  0  0  0
   37.0880   26.7930   42.5260 C   0  0  0  0  0  0  0  0  0  0  0  0
   38.2560   26.8340   43.1730 N   0  0  0  0  0  0  0  0  0  0  0  0
   39.8940   28.0540   43.7810 H   0  0  0  0  0  0  0  0  0  0  0  0
   38.9770   30.1190   42.7360 H   0  0  0  0  0  0  0  0  0  0  0  0
   36.5330   25.8640   42.4520 H   0  0  0  0  0  0  0  0  0  0  0  0
   36.7210   30.3450   41.4100 C   0  0  0  0  0  0  0  0  0  0  0  0
   35.7650   30.0960   40.9110 H   0  0  0  0  0  0  0  0  0  0  0  0
   36.5200   31.0930   42.2020 H   0  0  0  0  0  0  0  0  0  0  0  0
   37.6570   30.9670   40.4950 N   0  0  0  0  0  0  0  0  0  0  0  0
   37.6890   30.4050   39.1910 C   0  0  0  0  0  3  0  0  0  0  0  0
   37.2660   31.4750   38.2130 C   0  0  0  0  0  3  0  0  0  0  0  0
   37.2430   32.7600   38.9870 C   0  0  0  0  0  2  0  0  0  0  0  0
   37.5050   32.3760   40.4170 C   0  0  0  0  0  3  0  0  0  0  0  0
   36.7290   32.7870   41.0930 H   0  0  0  0  0  0  0  0  0  0  0  0
  1  7  1  0  0  0  0
  2  8  1  0  0  0  0
  2  1  2  0  0  0  0
  3  2  1  0  0  0  0
  4  3  2  0  0  0  0
  4  5  1  0  0  0  0
  5  6  2  0  0  0  0
  6  1  1  0  0  0  0
  9  5  1  0  0  0  0
 10  3  1  0  0  0  0
 10 12  1  0  0  0  0
 11 10  1  0  0  0  0
 13 10  1  0  0  0  0
 14 13  1  0  0  0  0
 15 16  1  0  0  0  0
 15 14  2  0  0  0  0
 16 17  1  0  0  0  0
 17 13  1  0  0  0  0
 17 18  1  0  0  0  0
M  END
>  <minimizedAffinity>
-3.64566803

$$$$

 OpenBabel03252509303D

 18 19  0  0  0  0  0  0  0  0999 V2000
   37.9550   29.5930   39.3560 C   0  0  0  0  0  0  0  0  0  0  0  0
   38.5150   29.3240   40.6210 C   0  0  0  0  0  0  0  0  0  0  0  0
   37.7970   29.6970   41.7470 C   0  0  0  0  0  0  0  0  0  0  0  0
   36.5850   30.3040   41.5750 N   0  0  0  0  0  0  0  0  0  0  0  0
   36.0740   30.5480   40.3350 C   0  0  0  0  0  0  0  0  0  0  0  0
   36.7560   30.1940   39.2420 N   0  0  0  0  0  0  0  0  0  0  0  0
   38.5330   29.2940   38.4850 H   0  0  0  0  0  0  0  0  0  0  0  0
   39.4790   28.8410   40.7440 H   0  0  0  0  0  0  0  0  0  0  0  0
   35.1070   31.0330   40.2470 H   0  0  0  0  0  0  0  0  0  0  0  0
   38.3780   29.4180   43.0570 C   0  0  0  0  0  0  0  0  0  0  0  0
   39.4750   29.5280   42.9640 H   0  0  0  0  0  0  0  0  0  0  0  0
   38.0110   30.1610   43.7930 H   0  0  0  0  0  0  0  0  0  0  0  0
   38.0120   28.1180   43.5810 N   0  0  0  0  0  0  0  0  0  0  0  0
   36.7990   27.5820   43.0710 C   0  0  0  0  0  3  0  0  0  0  0  0
   37.1260   26.3010   42.3400 C   0  0  0  0  0  3  0  0  0  0  0  0
   38.5530   25.9830   42.6800 C   0  0  0  0  0  2  0  0  0  0  0  0
   39.0530   27.1600   43.4700 C   0  0  0  0  0  3  0  0  0  0  0  0
   39.9950   27.5610   43.0430 H   0  0  0  0  0  0  0  0  0  0  0  0
  1  2  1  0  0  0  0
  2  8  1  0  0  0  0
  2  3  2  0  0  0  0
  3 10  1  0  0  0  0
  4  3  1  0  0  0  0
  5  4  2  0  0  0  0
  6  1  2  0  0  0  0
  6  5  1  0  0  0  0
  7  1  1  0  0  0  0
  9  5  1  0  0  0  0
 10 13  1  0  0  0  0
 10 12  1  0  0  0  0
 11 10  1  0  0  0  0
 14 13  1  0  0  0  0
 15 16  1  0  0  0  0
 15 14  2  0  0  0  0
 16 17  1  0  0  0  0
 17 13  1  0  0  0  0
 18 17  1  0  0  0  0
M  END
>  <minimizedAffinity>
-3.51640821

$$$$

 OpenBabel03252509303D

 18 19  0  0  0  0  0  0  0  0999 V2000
   37.3500   32.7260   39.7580 C   0  0  0  0  0  0  0  0  0  0  0  0
   37.7130   31.6650   40.6120 C   0  0  0  0  0  0  0  0  0  0  0  0
   38.0320   30.4440   40.0380 C   0  0  0  0  0  0  0  0  0  0  0  0
   37.9800   30.3300   38.6780 N   0  0  0  0  0  0  0  0  0  0  0  0
   37.6240   31.3790   37.8830 C   0  0  0  0  0  0  0  0  0  0  0  0
   37.3140   32.5610   38.4230 N   0  0  0  0  0  0  0  0  0  0  0  0
   37.1030   33.6750   40.2270 H   0  0  0  0  0  0  0  0  0  0  0  0
   37.7510   31.7690   41.6910 H   0  0  0  0  0  0  0  0  0  0  0  0
   37.5960   31.2420   36.8070 H   0  0  0  0  0  0  0  0  0  0  0  0
   38.4080   29.3450   40.9230 C   0  0  0  0  0  0  0  0  0  0  0  0
   38.8930   28.5690   40.3000 H   0  0  0  0  0  0  0  0  0  0  0  0
   39.1410   29.7030   41.6730 H   0  0  0  0  0  0  0  0  0  0  0  0
   37.2920   28.8080   41.6750 N   0  0  0  0  0  0  0  0  0  0  0  0
   36.9030   27.4890   41.3190 C   0  0  0  0  0  3  0  0  0  0  0  0
   37.1000   26.6040   42.5270 C   0  0  0  0  0  3  0  0  0  0  0  0
   37.3690   27.5280   43.6790 C   0  0  0  0  0  2  0  0  0  0  0  0
   37.4700   28.9030   43.0800 C   0  0  0  0  0  3  0  0  0  0  0  0
   38.4090   29.4070   43.3850 H   0  0  0  0  0  0  0  0  0  0  0  0
  1  7  1  0  0  0  0
  1  2  1  0  0  0  0
  2  8  1  0  0  0  0
  3  2  2  0  0  0  0
  3 10  1  0  0  0  0
  4  3  1  0  0  0  0
  5  6  1  0  0  0  0
  5  4  2  0  0  0  0
  6  1  2  0  0  0  0
  9  5  1  0  0  0  0
 10 12  1  0  0  0  0
 10 13  1  0  0  0  0
 11 10  1  0  0  0  0
 13 17  1  0  0  0  0
 14 13  1  0  0  0  0
 14 15  2  0  0  0  0
 15 16  1  0  0  0  0
 17 18  1  0  0  0  0
 17 16  1  0  0  0  0
M  END
>  <minimizedAffinity>
-3.45984221

$$$$

 OpenBabel03252509303D

 18 19  0  0  0  0  0  0  0  0999 V2000
   37.6970   23.8750   41.1870 C   0  0  0  0  0  0  0  0  0  0  0  0
   37.2440   24.7680   42.1800 C   0  0  0  0  0  0  0  0  0  0  0  0
   37.2710   26.1250   41.8990 C   0  0  0  0  0  0  0  0  0  0  0  0
   37.7320   26.5290   40.6780 N   0  0  0  0  0  0  0  0  0  0  0  0
   38.1610   25.6360   39.7420 C   0  0  0  0  0  0  0  0  0  0  0  0
   38.1410   24.3250   39.9990 N   0  0  0  0  0  0  0  0  0  0  0  0
   37.6680   22.8140   41.4250 H   0  0  0  0  0  0  0  0  0  0  0  0
   36.8810   24.4330   43.1450 H   0  0  0  0  0  0  0  0  0  0  0  0
   38.5200   26.0030   38.7860 H   0  0  0  0  0  0  0  0  0  0  0  0
   36.8030   27.0490   42.9280 C   0  0  0  0  0  0  0  0  0  0  0  0
   36.0950   27.7510   42.4460 H   0  0  0  0  0  0  0  0  0  0  0  0
   36.2620   26.4880   43.7150 H   0  0  0  0  0  0  0  0  0  0  0  0
   37.8790   27.7500   43.5990 N   0  0  0  0  0  0  0  0  0  0  0  0
   39.1050   27.0380   43.6800 C   0  0  0  0  0  3  0  0  0  0  0  0
   40.1500   27.8210   42.9210 C   0  0  0  0  0  3  0  0  0  0  0  0
   39.5320   29.1560   42.6230 C   0  0  0  0  0  2  0  0  0  0  0  0
   38.1040   29.0520   43.0810 C   0  0  0  0  0  3  0  0  0  0  0  0
   37.4000   29.3490   42.2770 H   0  0  0  0  0  0  0  0  0  0  0  0
  1  7  1  0  0  0  0
  1  2  1  0  0  0  0
  2  8  1  0  0  0  0
  3  2  2  0  0  0  0
  3 10  1  0  0  0  0
  4  3  1  0  0  0  0
  5  6  1  0  0  0  0
  5  4  2  0  0  0  0
  6  1  2  0  0  0  0
  9  5  1  0  0  0  0
 10 13  1  0  0  0  0
 10 12  1  0  0  0  0
 11 10  1  0  0  0  0
 13 14  1  0  0  0  0
 15 14  2  0  0  0  0
 16 15  1  0  0  0  0
 16 17  1  0  0  0  0
 17 13  1  0  0  0  0
 18 17  1  0  0  0  0
M  END
>  <minimizedAffinity>
-3.43322253

$$$$

 OpenBabel03252509303D

 18 19  0  0  0  0  0  0  0  0999 V2000
   35.9770   29.4210   37.2270 C   0  0  0  0  0  0  0  0  0  0  0  0
   36.4200   29.7260   38.5300 C   0  0  0  0  0  0  0  0  0  0  0  0
   35.5340   29.5460   39.5810 C   0  0  0  0  0  0  0  0  0  0  0  0
   34.2790   29.0810   39.3030 N   0  0  0  0  0  0  0  0  0  0  0  0
   33.8850   28.7960   38.0290 C   0  0  0  0  0  0  0  0  0  0  0  0
   34.7290   28.9660   37.0080 N   0  0  0  0  0  0  0  0  0  0  0  0
   36.6860   29.5690   36.4160 H   0  0  0  0  0  0  0  0  0  0  0  0
   37.4190   30.0940   38.7370 H   0  0  0  0  0  0  0  0  0  0  0  0
   32.8790   28.4300   37.8560 H   0  0  0  0  0  0  0  0  0  0  0  0
   35.9930   29.8630   40.9300 C   0  0  0  0  0  0  0  0  0  0  0  0
   36.3490   30.9100   40.9220 H   0  0  0  0  0  0  0  0  0  0  0  0
   35.1460   29.7840   41.6400 H   0  0  0  0  0  0  0  0  0  0  0  0
   37.0120   28.9540   41.4160 N   0  0  0  0  0  0  0  0  0  0  0  0
   37.8370   29.4700   42.4510 C   0  0  0  0  0  3  0  0  0  0  0  0
   37.6320   28.6170   43.6800 C   0  0  0  0  0  3  0  0  0  0  0  0
   36.8480   27.4190   43.2280 C   0  0  0  0  0  2  0  0  0  0  0  0
   36.4940   27.6870   41.7910 C   0  0  0  0  0  3  0  0  0  0  0  0
   35.4050   27.5710   41.6170 H   0  0  0  0  0  0  0  0  0  0  0  0
  1  2  1  0  0  0  0
  2  8  1  0  0  0  0
  2  3  2  0  0  0  0
  3 10  1  0  0  0  0
  4  3  1  0  0  0  0
  5  4  2  0  0  0  0
  6  1  2  0  0  0  0
  6  5  1  0  0  0  0
  7  1  1  0  0  0  0
  9  5  1  0  0  0  0
 10 13  1  0  0  0  0
 10 12  1  0  0  0  0
 11 10  1  0  0  0  0
 13 17  1  0  0  0  0
 13 14  1  0  0  0  0
 14 15  2  0  0  0  0
 16 15  1  0  0  0  0
 17 16  1  0  0  0  0
 18 17  1  0  0  0  0
M  END
>  <minimizedAffinity>
-3.42217183

$$$$

 OpenBabel03252509303D

 18 19  0  0  0  0  0  0  0  0999 V2000
   34.8070   28.8800   37.2610 C   0  0  0  0  0  0  0  0  0  0  0  0
   34.8010   28.9280   38.6700 C   0  0  0  0  0  0  0  0  0  0  0  0
   35.9090   29.4620   39.3090 C   0  0  0  0  0  0  0  0  0  0  0  0
   36.9480   29.9150   38.5460 N   0  0  0  0  0  0  0  0  0  0  0  0
   36.9180   29.8520   37.1840 C   0  0  0  0  0  0  0  0  0  0  0  0
   35.8560   29.3400   36.5550 N   0  0  0  0  0  0  0  0  0  0  0  0
   33.9290   28.4590   36.7770 H   0  0  0  0  0  0  0  0  0  0  0  0
   33.9700   28.5660   39.2640 H   0  0  0  0  0  0  0  0  0  0  0  0
   37.7660   30.2230   36.6180 H   0  0  0  0  0  0  0  0  0  0  0  0
   35.9040   29.5110   40.7680 C   0  0  0  0  0  0  0  0  0  0  0  0
   35.8650   30.5770   41.0640 H   0  0  0  0  0  0  0  0  0  0  0  0
   34.9970   29.0050   41.1550 H   0  0  0  0  0  0  0  0  0  0  0  0
   37.0330   28.8300   41.3680 N   0  0  0  0  0  0  0  0  0  0  0  0
   37.5250   29.4150   42.5650 C   0  0  0  0  0  3  0  0  0  0  0  0
   37.3570   28.4110   43.6790 C   0  0  0  0  0  3  0  0  0  0  0  0
   36.9880   27.1150   43.0170 C   0  0  0  0  0  2  0  0  0  0  0  0
   36.8070   27.4420   41.5610 C   0  0  0  0  0  3  0  0  0  0  0  0
   35.8250   27.0850   41.1880 H   0  0  0  0  0  0  0  0  0  0  0  0
  1  2  1  0  0  0  0
  2  8  1  0  0  0  0
  2  3  2  0  0  0  0
  3 10  1  0  0  0  0
  4  3  1  0  0  0  0
  5  4  2  0  0  0  0
  6  5  1  0  0  0  0
  6  1  2  0  0  0  0
  7  1  1  0  0  0  0
  9  5  1  0  0  0  0
 10 11  1  0  0  0  0
 10 12  1  0  0  0  0
 10 13  1  0  0  0  0
 13 17  1  0  0  0  0
 13 14  1  0  0  0  0
 14 15  2  0  0  0  0
 16 15  1  0  0  0  0
 17 16  1  0  0  0  0
 18 17  1  0  0  0  0
M  END
>  <minimizedAffinity>
-3.40713072

$$$$

 OpenBabel03252509303D

 18 19  0  0  0  0  0  0  0  0999 V2000
   40.8120   25.8990   41.7020 C   0  0  0  0  0  0  0  0  0  0  0  0
   39.6330   26.4290   41.1380 C   0  0  0  0  0  0  0  0  0  0  0  0
   38.4190   25.8920   41.5390 C   0  0  0  0  0  0  0  0  0  0  0  0
   38.4260   24.8810   42.4590 N   0  0  0  0  0  0  0  0  0  0  0  0
   39.5870   24.3940   42.9830 C   0  0  0  0  0  0  0  0  0  0  0  0
   40.7630   24.9020   42.6050 N   0  0  0  0  0  0  0  0  0  0  0  0
   41.7540   26.3330   41.3750 H   0  0  0  0  0  0  0  0  0  0  0  0
   39.6420   27.2320   40.4090 H   0  0  0  0  0  0  0  0  0  0  0  0
   39.5430   23.5900   43.7100 H   0  0  0  0  0  0  0  0  0  0  0  0
   37.1980   26.4390   40.9560 C   0  0  0  0  0  0  0  0  0  0  0  0
   37.4330   26.7390   39.9160 H   0  0  0  0  0  0  0  0  0  0  0  0
   36.4150   25.6560   40.9280 H   0  0  0  0  0  0  0  0  0  0  0  0
   36.6430   27.5390   41.7180 N   0  0  0  0  0  0  0  0  0  0  0  0
   36.7060   27.3880   43.1290 C   0  0  0  0  0  3  0  0  0  0  0  0
   37.5670   28.4990   43.6790 C   0  0  0  0  0  3  0  0  0  0  0  0
   37.7820   29.4580   42.5450 C   0  0  0  0  0  2  0  0  0  0  0  0
   37.1700   28.8010   41.3390 C   0  0  0  0  0  3  0  0  0  0  0  0
   37.8890   28.7590   40.4950 H   0  0  0  0  0  0  0  0  0  0  0  0
  1  6  1  0  0  0  0
  2  3  1  0  0  0  0
  2  1  2  0  0  0  0
  3  4  2  0  0  0  0
  4  5  1  0  0  0  0
  5  9  1  0  0  0  0
  6  5  2  0  0  0  0
  7  1  1  0  0  0  0
  8  2  1  0  0  0  0
 10  3  1  0  0  0  0
 10 13  1  0  0  0  0
 11 10  1  0  0  0  0
 12 10  1  0  0  0  0
 13 14  1  0  0  0  0
 14 15  2  0  0  0  0
 16 15  1  0  0  0  0
 17 13  1  0  0  0  0
 17 16  1  0  0  0  0
 18 17  1  0  0  0  0
M  END
>  <minimizedAffinity>
-3.32459927

$$$$
