
 OpenBabel03252505263D

 40 43  0  0  1  0  0  0  0  0999 V2000
   37.9250   28.2980   39.6920 F   0  0  0  0  0  0  0  0  0  0  0  0
   37.7160   28.1200   41.0300 C   0  0  0  0  0  0  0  0  0  0  0  0
   37.7300   29.2360   41.8440 C   0  0  0  0  0  0  0  0  0  0  0  0
   37.5200   29.0470   43.1720 C   0  0  0  0  0  0  0  0  0  0  0  0
   37.3040   27.7770   43.6720 C   0  0  0  0  0  0  0  0  0  0  0  0
   37.2900   26.6710   42.8730 C   0  0  0  0  0  0  0  0  0  0  0  0
   37.5050   26.8630   41.5040 C   0  0  0  0  0  0  0  0  0  0  0  0
   37.5220   29.8880   43.8520 H   0  0  0  0  0  0  0  0  0  0  0  0
   37.1390   27.6420   44.7350 H   0  0  0  0  0  0  0  0  0  0  0  0
   37.1180   25.6940   43.2890 H   0  0  0  0  0  0  0  0  0  0  0  0
   37.4800   25.6830   40.7130 N   0  0  0  0  0  0  0  0  0  0  0  0
   38.3970   24.5930   40.6040 C   0  0  0  0  0  0  0  0  0  0  0  0
   37.4990   23.3590   40.7340 C   0  0  0  0  0  0  0  0  0  0  0  0
   36.1440   23.8720   40.3160 C   0  0  0  0  0  0  0  0  0  0  0  0
   36.4790   25.2240   39.7440 C   0  0  2  0  0  0  0  0  0  0  0  0
   39.0540   24.6000   41.5030 H   0  0  0  0  0  0  0  0  0  0  0  0
   38.9760   24.5720   39.6610 H   0  0  0  0  0  0  0  0  0  0  0  0
   37.8210   22.6540   39.9500 H   0  0  0  0  0  0  0  0  0  0  0  0
   37.5290   22.9460   41.7520 H   0  0  0  0  0  0  0  0  0  0  0  0
   35.6520   23.1830   39.6050 H   0  0  0  0  0  0  0  0  0  0  0  0
   35.5500   23.9880   41.2220 H   0  0  0  0  0  0  0  0  0  0  0  0
   35.6020   25.9010   39.8200 H   0  0  0  0  0  0  0  0  0  0  0  0
   36.9760   25.1900   38.3430 C   0  0  0  0  0  0  0  0  0  0  0  0
   37.8480   25.8780   38.2700 H   0  0  0  0  0  0  0  0  0  0  0  0
   37.4040   24.1860   38.0620 H   0  0  0  0  0  0  0  0  0  0  0  0
   36.2340   25.5330   37.6020 H   0  0  0  0  0  0  0  0  0  0  0  0
   37.1590   32.4440   40.1750 C   0  0  0  0  0  0  0  0  0  0  0  0
   38.4380   33.0530   40.1850 C   0  0  0  0  0  0  0  0  0  0  0  0
   39.4460   32.3030   40.7820 C   0  0  0  0  0  0  0  0  0  0  0  0
   39.1790   31.0900   41.2990 N   0  0  0  0  0  0  0  0  0  0  0  0
   37.9620   30.5520   41.2700 C   0  0  0  0  0  0  0  0  0  0  0  0
   36.9690   31.2310   40.7100 N   0  0  0  0  0  0  0  0  0  0  0  0
   36.3530   33.0010   39.7170 H   0  0  0  0  0  0  0  0  0  0  0  0
   38.5300   34.0160   39.7460 H   0  0  0  0  0  0  0  0  0  0  0  0
   40.7470   32.8810   40.8120 N   0  0  0  0  0  0  0  0  0  0  0  0
   41.0670   34.1610   40.2080 C   0  0  0  0  0  2  0  0  0  0  0  0
   42.5820   34.1110   39.9710 C   0  0  0  0  0  2  0  0  0  0  0  0
   42.9800   32.6940   40.3300 C   0  0  0  0  0  2  0  0  0  0  0  0
   41.9660   32.3670   41.4090 C   0  0  0  0  0  3  0  0  0  0  0  0
   42.2030   32.8560   42.3760 H   0  0  0  0  0  0  0  0  0  0  0  0
  1  2  1  0  0  0  0
  2  7  2  0  0  0  0
  2  3  1  0  0  0  0
  3  4  2  0  0  0  0
  4  5  1  0  0  0  0
  4  8  1  0  0  0  0
  5  9  1  0  0  0  0
  6 10  1  0  0  0  0
  6  5  2  0  0  0  0
  7  6  1  0  0  0  0
 11  7  1  0  0  0  0
 12 11  1  0  0  0  0
 12 13  1  0  0  0  0
 12 16  1  0  0  0  0
 13 19  1  0  0  0  0
 14 13  1  0  0  0  0
 14 21  1  0  0  0  0
 15 22  1  1  0  0  0
 15 14  1  0  0  0  0
 15 11  1  0  0  0  0
 17 12  1  0  0  0  0
 18 13  1  0  0  0  0
 20 14  1  0  0  0  0
 23 15  1  0  0  0  0
 24 23  1  0  0  0  0
 25 23  1  0  0  0  0
 26 23  1  0  0  0  0
 27 28  2  0  0  0  0
 27 32  1  0  0  0  0
 28 29  1  0  0  0  0
 29 35  1  0  0  0  0
 29 30  2  0  0  0  0
 31 30  1  0  0  0  0
 31  3  1  0  0  0  0
 32 31  2  0  0  0  0
 33 27  1  0  0  0  0
 34 28  1  0  0  0  0
 35 39  1  0  0  0  0
 36 35  1  0  0  0  0
 37 36  1  0  0  0  0
 37 38  1  0  0  0  0
 38 39  1  0  0  0  0
 39 40  1  0  0  0  0
M  END
>  <minimizedAffinity>
-5.76157331

$$$$

 OpenBabel03252505263D

 40 43  0  0  1  0  0  0  0  0999 V2000
   40.1600   30.5100   41.3290 F   0  0  0  0  0  0  0  0  0  0  0  0
   39.1090   31.2230   40.8260 C   0  0  0  0  0  0  0  0  0  0  0  0
   37.8380   30.7080   40.9850 C   0  0  0  0  0  0  0  0  0  0  0  0
   36.8020   31.4250   40.4810 C   0  0  0  0  0  0  0  0  0  0  0  0
   37.0310   32.6260   39.8360 C   0  0  0  0  0  0  0  0  0  0  0  0
   38.2840   33.1400   39.6760 C   0  0  0  0  0  0  0  0  0  0  0  0
   39.3530   32.4030   40.1950 C   0  0  0  0  0  0  0  0  0  0  0  0
   35.7870   31.0650   40.5780 H   0  0  0  0  0  0  0  0  0  0  0  0
   36.1930   33.1880   39.4380 H   0  0  0  0  0  0  0  0  0  0  0  0
   38.4340   34.0780   39.1700 H   0  0  0  0  0  0  0  0  0  0  0  0
   40.6390   32.9780   40.0050 N   0  0  0  0  0  0  0  0  0  0  0  0
   41.2910   34.0790   40.6420 C   0  0  0  0  0  0  0  0  0  0  0  0
   42.6670   33.5140   41.0070 C   0  0  0  0  0  0  0  0  0  0  0  0
   42.8440   32.3770   40.0330 C   0  0  0  0  0  0  0  0  0  0  0  0
   41.7070   32.6030   39.0720 C   0  0  2  0  0  0  0  0  0  0  0  0
   40.7690   34.2820   41.6040 H   0  0  0  0  0  0  0  0  0  0  0  0
   41.3810   34.9850   40.0130 H   0  0  0  0  0  0  0  0  0  0  0  0
   43.4060   34.2830   40.7270 H   0  0  0  0  0  0  0  0  0  0  0  0
   42.7100   33.2110   42.0630 H   0  0  0  0  0  0  0  0  0  0  0  0
   43.8470   32.3950   39.5670 H   0  0  0  0  0  0  0  0  0  0  0  0
   42.6870   31.4510   40.5850 H   0  0  0  0  0  0  0  0  0  0  0  0
   41.4130   31.6440   38.5930 H   0  0  0  0  0  0  0  0  0  0  0  0
   41.9780   33.6300   38.0310 C   0  0  0  0  0  0  0  0  0  0  0  0
   41.0750   34.2720   37.9370 H   0  0  0  0  0  0  0  0  0  0  0  0
   42.7870   34.3520   38.3400 H   0  0  0  0  0  0  0  0  0  0  0  0
   42.1760   33.2050   37.0320 H   0  0  0  0  0  0  0  0  0  0  0  0
   37.4690   28.2250   43.6500 C   0  0  0  0  0  0  0  0  0  0  0  0
   37.2860   27.0100   42.9460 C   0  0  0  0  0  0  0  0  0  0  0  0
   37.3010   27.1210   41.5600 C   0  0  0  0  0  0  0  0  0  0  0  0
   37.4800   28.3190   40.9730 N   0  0  0  0  0  0  0  0  0  0  0  0
   37.6480   29.4390   41.6710 C   0  0  0  0  0  0  0  0  0  0  0  0
   37.6410   29.3820   42.9970 N   0  0  0  0  0  0  0  0  0  0  0  0
   37.4630   28.1730   44.7300 H   0  0  0  0  0  0  0  0  0  0  0  0
   37.1540   26.1240   43.5160 H   0  0  0  0  0  0  0  0  0  0  0  0
   37.1200   25.9210   40.8150 N   0  0  0  0  0  0  0  0  0  0  0  0
   36.5610   25.8880   39.4760 C   0  0  0  0  0  2  0  0  0  0  0  0
   36.0320   24.4570   39.3110 C   0  0  0  0  0  2  0  0  0  0  0  0
   36.2020   23.8250   40.6770 C   0  0  0  0  0  2  0  0  0  0  0  0
   37.4300   24.5530   41.1890 C   0  0  0  0  0  3  0  0  0  0  0  0
   38.3650   24.1870   40.7200 H   0  0  0  0  0  0  0  0  0  0  0  0
  2  3  1  0  0  0  0
  2  1  1  0  0  0  0
  3 31  1  0  0  0  0
  4  8  1  0  0  0  0
  4  3  2  0  0  0  0
  5  4  1  0  0  0  0
  6  5  2  0  0  0  0
  6  7  1  0  0  0  0
  7  2  2  0  0  0  0
  9  5  1  0  0  0  0
 10  6  1  0  0  0  0
 11  7  1  0  0  0  0
 11 12  1  0  0  0  0
 12 13  1  0  0  0  0
 12 16  1  0  0  0  0
 13 19  1  0  0  0  0
 14 21  1  0  0  0  0
 14 13  1  0  0  0  0
 15 22  1  6  0  0  0
 15 11  1  0  0  0  0
 15 14  1  0  0  0  0
 17 12  1  0  0  0  0
 18 13  1  0  0  0  0
 20 14  1  0  0  0  0
 23 25  1  0  0  0  0
 23 15  1  0  0  0  0
 24 23  1  0  0  0  0
 26 23  1  0  0  0  0
 27 33  1  0  0  0  0
 28 34  1  0  0  0  0
 28 27  2  0  0  0  0
 29 28  1  0  0  0  0
 30 29  2  0  0  0  0
 30 31  1  0  0  0  0
 31 32  2  0  0  0  0
 32 27  1  0  0  0  0
 35 39  1  0  0  0  0
 35 29  1  0  0  0  0
 36 35  1  0  0  0  0
 37 36  1  0  0  0  0
 37 38  1  0  0  0  0
 38 39  1  0  0  0  0
 40 39  1  0  0  0  0
M  END
>  <minimizedAffinity>
-5.7539916

$$$$

 OpenBabel03252505263D

 40 43  0  0  1  0  0  0  0  0999 V2000
   40.2230   29.7550   40.4380 F   0  0  0  0  0  0  0  0  0  0  0  0
   39.0410   30.4340   40.3530 C   0  0  0  0  0  0  0  0  0  0  0  0
   38.9730   31.5160   39.4970 C   0  0  0  0  0  0  0  0  0  0  0  0
   37.7930   32.1830   39.4210 C   0  0  0  0  0  0  0  0  0  0  0  0
   36.7110   31.7800   40.1790 C   0  0  0  0  0  0  0  0  0  0  0  0
   36.7730   30.7120   41.0270 C   0  0  0  0  0  0  0  0  0  0  0  0
   37.9860   30.0230   41.1070 C   0  0  0  0  0  0  0  0  0  0  0  0
   37.6880   33.0370   38.7660 H   0  0  0  0  0  0  0  0  0  0  0  0
   35.7760   32.3230   40.1080 H   0  0  0  0  0  0  0  0  0  0  0  0
   35.9140   30.4200   41.6060 H   0  0  0  0  0  0  0  0  0  0  0  0
   38.0020   28.9190   42.0020 N   0  0  0  0  0  0  0  0  0  0  0  0
   37.9320   28.8490   43.4280 C   0  0  0  0  0  0  0  0  0  0  0  0
   36.8520   27.7930   43.6800 C   0  0  0  0  0  0  0  0  0  0  0  0
   36.8570   26.9830   42.4090 C   0  0  0  0  0  0  0  0  0  0  0  0
   38.0980   27.4820   41.7190 C   0  0  2  0  0  0  0  0  0  0  0  0
   37.5220   29.8150   43.8020 H   0  0  0  0  0  0  0  0  0  0  0  0
   38.8840   28.5770   43.9210 H   0  0  0  0  0  0  0  0  0  0  0  0
   37.2390   27.1330   44.4730 H   0  0  0  0  0  0  0  0  0  0  0  0
   35.8830   28.2580   43.9120 H   0  0  0  0  0  0  0  0  0  0  0  0
   36.8570   25.8970   42.6210 H   0  0  0  0  0  0  0  0  0  0  0  0
   35.9730   27.2690   41.8400 H   0  0  0  0  0  0  0  0  0  0  0  0
   38.0060   27.3500   40.6190 H   0  0  0  0  0  0  0  0  0  0  0  0
   39.3600   26.8620   42.2020 C   0  0  0  0  0  0  0  0  0  0  0  0
   40.1180   27.6690   42.3190 H   0  0  0  0  0  0  0  0  0  0  0  0
   39.2610   26.4380   43.2420 H   0  0  0  0  0  0  0  0  0  0  0  0
   39.7850   26.1210   41.5040 H   0  0  0  0  0  0  0  0  0  0  0  0
   41.6450   33.5330   38.0150 C   0  0  0  0  0  0  0  0  0  0  0  0
   42.3620   32.6010   37.2250 C   0  0  0  0  0  0  0  0  0  0  0  0
   41.8700   31.3000   37.2510 C   0  0  0  0  0  0  0  0  0  0  0  0
   40.7860   30.9950   37.9890 N   0  0  0  0  0  0  0  0  0  0  0  0
   40.1400   31.9010   38.7190 C   0  0  0  0  0  0  0  0  0  0  0  0
   40.5740   33.1550   38.7250 N   0  0  0  0  0  0  0  0  0  0  0  0
   42.0020   34.5530   38.0170 H   0  0  0  0  0  0  0  0  0  0  0  0
   43.2040   32.9570   36.6840 H   0  0  0  0  0  0  0  0  0  0  0  0
   42.5630   30.3330   36.4690 N   0  0  0  0  0  0  0  0  0  0  0  0
   42.1560   28.9440   36.3720 C   0  0  0  0  0  2  0  0  0  0  0  0
   43.4270   28.1950   35.9500 C   0  0  0  0  0  2  0  0  0  0  0  0
   44.5220   29.2390   35.9990 C   0  0  0  0  0  2  0  0  0  0  0  0
   43.7490   30.4950   35.6480 C   0  0  0  0  0  3  0  0  0  0  0  0
   43.5100   30.5570   34.5670 H   0  0  0  0  0  0  0  0  0  0  0  0
  2  1  1  0  0  0  0
  2  7  1  0  0  0  0
  3  2  2  0  0  0  0
  4  3  1  0  0  0  0
  4  5  2  0  0  0  0
  5  6  1  0  0  0  0
  6  7  2  0  0  0  0
  6 10  1  0  0  0  0
  7 11  1  0  0  0  0
  8  4  1  0  0  0  0
  9  5  1  0  0  0  0
 11 12  1  0  0  0  0
 12 13  1  0  0  0  0
 12 16  1  0  0  0  0
 12 17  1  0  0  0  0
 13 19  1  0  0  0  0
 13 18  1  0  0  0  0
 14 20  1  0  0  0  0
 14 13  1  0  0  0  0
 15 22  1  6  0  0  0
 15 11  1  0  0  0  0
 15 23  1  0  0  0  0
 15 14  1  0  0  0  0
 21 14  1  0  0  0  0
 23 24  1  0  0  0  0
 23 25  1  0  0  0  0
 26 23  1  0  0  0  0
 27 33  1  0  0  0  0
 27 32  1  0  0  0  0
 28 29  1  0  0  0  0
 28 27  2  0  0  0  0
 29 30  2  0  0  0  0
 30 31  1  0  0  0  0
 31 32  2  0  0  0  0
 31  3  1  0  0  0  0
 34 28  1  0  0  0  0
 35 29  1  0  0  0  0
 36 35  1  0  0  0  0
 37 38  1  0  0  0  0
 37 36  1  0  0  0  0
 39 38  1  0  0  0  0
 39 35  1  0  0  0  0
 40 39  1  0  0  0  0
M  END
>  <minimizedAffinity>
-5.71776485

$$$$

 OpenBabel03252505263D

 40 43  0  0  1  0  0  0  0  0999 V2000
   38.2670   27.3280   39.7220 F   0  0  0  0  0  0  0  0  0  0  0  0
   38.0540   27.8860   40.9510 C   0  0  0  0  0  0  0  0  0  0  0  0
   37.9180   29.2580   41.0260 C   0  0  0  0  0  0  0  0  0  0  0  0
   37.7060   29.8020   42.2520 C   0  0  0  0  0  0  0  0  0  0  0  0
   37.6330   28.9950   43.3710 C   0  0  0  0  0  0  0  0  0  0  0  0
   37.7680   27.6390   43.3020 C   0  0  0  0  0  0  0  0  0  0  0  0
   37.9850   27.0760   42.0410 C   0  0  0  0  0  0  0  0  0  0  0  0
   37.5930   30.8710   42.3650 H   0  0  0  0  0  0  0  0  0  0  0  0
   37.4640   29.4430   44.3440 H   0  0  0  0  0  0  0  0  0  0  0  0
   37.7060   27.0340   44.1900 H   0  0  0  0  0  0  0  0  0  0  0  0
   38.1180   25.6620   42.0190 N   0  0  0  0  0  0  0  0  0  0  0  0
   37.1520   24.6140   42.1320 C   0  0  0  0  0  0  0  0  0  0  0  0
   37.4890   23.6930   40.9560 C   0  0  0  0  0  0  0  0  0  0  0  0
   38.9370   24.0040   40.6750 C   0  0  0  0  0  0  0  0  0  0  0  0
   39.3210   24.8340   41.8710 C   0  0  2  0  0  0  0  0  0  0  0  0
   36.1480   25.0440   41.9180 H   0  0  0  0  0  0  0  0  0  0  0  0
   37.1790   24.0670   43.0930 H   0  0  0  0  0  0  0  0  0  0  0  0
   37.4610   22.6630   41.3480 H   0  0  0  0  0  0  0  0  0  0  0  0
   36.8180   23.8690   40.1030 H   0  0  0  0  0  0  0  0  0  0  0  0
   39.5320   23.0800   40.5490 H   0  0  0  0  0  0  0  0  0  0  0  0
   38.9660   24.6140   39.7730 H   0  0  0  0  0  0  0  0  0  0  0  0
   40.1640   25.5100   41.6140 H   0  0  0  0  0  0  0  0  0  0  0  0
   39.6530   24.0430   43.0850 C   0  0  0  0  0  0  0  0  0  0  0  0
   39.1660   24.5310   43.9590 H   0  0  0  0  0  0  0  0  0  0  0  0
   39.1950   23.0130   43.0670 H   0  0  0  0  0  0  0  0  0  0  0  0
   40.7340   24.0000   43.3030 H   0  0  0  0  0  0  0  0  0  0  0  0
   37.0740   30.7920   37.8100 C   0  0  0  0  0  0  0  0  0  0  0  0
   38.1950   31.6110   37.5320 C   0  0  0  0  0  0  0  0  0  0  0  0
   39.2010   31.5860   38.4920 C   0  0  0  0  0  0  0  0  0  0  0  0
   39.0740   30.8210   39.5930 N   0  0  0  0  0  0  0  0  0  0  0  0
   38.0020   30.0650   39.8190 C   0  0  0  0  0  0  0  0  0  0  0  0
   37.0180   30.0580   38.9290 N   0  0  0  0  0  0  0  0  0  0  0  0
   36.2740   30.7890   37.0830 H   0  0  0  0  0  0  0  0  0  0  0  0
   38.1850   32.1710   36.6290 H   0  0  0  0  0  0  0  0  0  0  0  0
   40.3460   32.3960   38.2480 N   0  0  0  0  0  0  0  0  0  0  0  0
   41.2610   32.1730   37.1440 C   0  0  0  0  0  2  0  0  0  0  0  0
   42.5690   32.8460   37.5830 C   0  0  0  0  0  2  0  0  0  0  0  0
   42.3210   33.2700   39.0150 C   0  0  0  0  0  2  0  0  0  0  0  0
   40.8310   33.5470   38.9870 C   0  0  0  0  0  3  0  0  0  0  0  0
   40.5870   34.5060   38.4860 H   0  0  0  0  0  0  0  0  0  0  0  0
  1  2  1  0  0  0  0
  2  3  2  0  0  0  0
  2  7  1  0  0  0  0
  3  4  1  0  0  0  0
  4  8  1  0  0  0  0
  4  5  2  0  0  0  0
  5  9  1  0  0  0  0
  6  5  1  0  0  0  0
  6 10  1  0  0  0  0
  7  6  2  0  0  0  0
 11  7  1  0  0  0  0
 11 12  1  0  0  0  0
 12 17  1  0  0  0  0
 13 18  1  0  0  0  0
 13 12  1  0  0  0  0
 14 13  1  0  0  0  0
 14 15  1  0  0  0  0
 15 22  1  6  0  0  0
 15 11  1  0  0  0  0
 15 23  1  0  0  0  0
 16 12  1  0  0  0  0
 19 13  1  0  0  0  0
 20 14  1  0  0  0  0
 21 14  1  0  0  0  0
 23 26  1  0  0  0  0
 23 24  1  0  0  0  0
 25 23  1  0  0  0  0
 27 32  1  0  0  0  0
 28 27  2  0  0  0  0
 28 29  1  0  0  0  0
 29 30  2  0  0  0  0
 30 31  1  0  0  0  0
 31  3  1  0  0  0  0
 32 31  2  0  0  0  0
 33 27  1  0  0  0  0
 34 28  1  0  0  0  0
 35 29  1  0  0  0  0
 35 39  1  0  0  0  0
 36 37  1  0  0  0  0
 36 35  1  0  0  0  0
 37 38  1  0  0  0  0
 39 38  1  0  0  0  0
 40 39  1  0  0  0  0
M  END
>  <minimizedAffinity>
-5.68263149

$$$$

 OpenBabel03252505263D

 40 43  0  0  1  0  0  0  0  0999 V2000
   39.1600   29.5910   41.3550 F   0  0  0  0  0  0  0  0  0  0  0  0
   37.9990   29.4870   40.6430 C   0  0  0  0  0  0  0  0  0  0  0  0
   37.6120   30.5630   39.8700 C   0  0  0  0  0  0  0  0  0  0  0  0
   36.4570   30.4480   39.1670 C   0  0  0  0  0  0  0  0  0  0  0  0
   35.7090   29.2880   39.2350 C   0  0  0  0  0  0  0  0  0  0  0  0
   36.0870   28.2210   39.9980 C   0  0  0  0  0  0  0  0  0  0  0  0
   37.2760   28.3370   40.7230 C   0  0  0  0  0  0  0  0  0  0  0  0
   36.1090   31.2630   38.5460 H   0  0  0  0  0  0  0  0  0  0  0  0
   34.7880   29.2110   38.6680 H   0  0  0  0  0  0  0  0  0  0  0  0
   35.4850   27.3300   40.0320 H   0  0  0  0  0  0  0  0  0  0  0  0
   37.6290   27.2010   41.5010 N   0  0  0  0  0  0  0  0  0  0  0  0
   36.9720   26.5580   42.5950 C   0  0  0  0  0  0  0  0  0  0  0  0
   36.9850   25.0790   42.1970 C   0  0  0  0  0  0  0  0  0  0  0  0
   38.1410   24.9900   41.2340 C   0  0  0  0  0  0  0  0  0  0  0  0
   38.8050   26.3300   41.4110 C   0  0  2  0  0  0  0  0  0  0  0  0
   35.9040   26.8750   42.5930 H   0  0  0  0  0  0  0  0  0  0  0  0
   37.4550   26.7150   43.5780 H   0  0  0  0  0  0  0  0  0  0  0  0
   37.2840   24.5150   43.0960 H   0  0  0  0  0  0  0  0  0  0  0  0
   36.0200   24.7690   41.7710 H   0  0  0  0  0  0  0  0  0  0  0  0
   38.7910   24.1240   41.4590 H   0  0  0  0  0  0  0  0  0  0  0  0
   37.7210   24.9120   40.2320 H   0  0  0  0  0  0  0  0  0  0  0  0
   39.3590   26.6080   40.4890 H   0  0  0  0  0  0  0  0  0  0  0  0
   39.7040   26.4170   42.5910 C   0  0  0  0  0  0  0  0  0  0  0  0
   39.5130   27.3880   43.1000 H   0  0  0  0  0  0  0  0  0  0  0  0
   39.4560   25.6500   43.3790 H   0  0  0  0  0  0  0  0  0  0  0  0
   40.7770   26.3960   42.3330 H   0  0  0  0  0  0  0  0  0  0  0  0
   38.8850   33.9230   40.5750 C   0  0  0  0  0  0  0  0  0  0  0  0
   40.0170   34.0300   39.7290 C   0  0  0  0  0  0  0  0  0  0  0  0
   40.2810   32.9110   38.9480 C   0  0  0  0  0  0  0  0  0  0  0  0
   39.4890   31.8240   39.0220 N   0  0  0  0  0  0  0  0  0  0  0  0
   38.4340   31.7630   39.8310 C   0  0  0  0  0  0  0  0  0  0  0  0
   38.1440   32.8070   40.5950 N   0  0  0  0  0  0  0  0  0  0  0  0
   38.6530   34.7770   41.1960 H   0  0  0  0  0  0  0  0  0  0  0  0
   40.5680   34.9380   39.7550 H   0  0  0  0  0  0  0  0  0  0  0  0
   41.4100   32.9790   38.0840 N   0  0  0  0  0  0  0  0  0  0  0  0
   41.9580   31.8270   37.3910 C   0  0  0  0  0  2  0  0  0  0  0  0
   43.4100   32.2150   37.0810 C   0  0  0  0  0  2  0  0  0  0  0  0
   43.6140   33.5390   37.7880 C   0  0  0  0  0  2  0  0  0  0  0  0
   42.2190   34.1290   37.7190 C   0  0  0  0  0  3  0  0  0  0  0  0
   41.9720   34.5160   36.7100 H   0  0  0  0  0  0  0  0  0  0  0  0
  2  7  1  0  0  0  0
  2  1  1  0  0  0  0
  3  2  2  0  0  0  0
  4  5  2  0  0  0  0
  4  3  1  0  0  0  0
  5  6  1  0  0  0  0
  6 10  1  0  0  0  0
  6  7  2  0  0  0  0
  7 11  1  0  0  0  0
  8  4  1  0  0  0  0
  9  5  1  0  0  0  0
 11 12  1  0  0  0  0
 12 17  1  0  0  0  0
 13 12  1  0  0  0  0
 13 18  1  0  0  0  0
 14 15  1  0  0  0  0
 14 20  1  0  0  0  0
 14 13  1  0  0  0  0
 15 22  1  6  0  0  0
 15 11  1  0  0  0  0
 15 23  1  0  0  0  0
 16 12  1  0  0  0  0
 19 13  1  0  0  0  0
 21 14  1  0  0  0  0
 23 24  1  0  0  0  0
 23 25  1  0  0  0  0
 26 23  1  0  0  0  0
 27 32  1  0  0  0  0
 27 33  1  0  0  0  0
 28 34  1  0  0  0  0
 28 27  2  0  0  0  0
 29 30  2  0  0  0  0
 29 28  1  0  0  0  0
 30 31  1  0  0  0  0
 31  3  1  0  0  0  0
 31 32  2  0  0  0  0
 35 29  1  0  0  0  0
 36 35  1  0  0  0  0
 37 36  1  0  0  0  0
 37 38  1  0  0  0  0
 39 38  1  0  0  0  0
 39 35  1  0  0  0  0
 40 39  1  0  0  0  0
M  END
>  <minimizedAffinity>
-5.66917276

$$$$

 OpenBabel03252505263D

 40 43  0  0  1  0  0  0  0  0999 V2000
   32.6950   29.3630   39.1500 F   0  0  0  0  0  0  0  0  0  0  0  0
   33.2130   29.1890   37.8970 C   0  0  0  0  0  0  0  0  0  0  0  0
   34.5090   28.7240   37.7890 C   0  0  0  0  0  0  0  0  0  0  0  0
   35.0120   28.5550   36.5390 C   0  0  0  0  0  0  0  0  0  0  0  0
   34.2410   28.8430   35.4300 C   0  0  0  0  0  0  0  0  0  0  0  0
   32.9600   29.3020   35.5310 C   0  0  0  0  0  0  0  0  0  0  0  0
   32.4390   29.4770   36.8170 C   0  0  0  0  0  0  0  0  0  0  0  0
   36.0220   28.1940   36.4000 H   0  0  0  0  0  0  0  0  0  0  0  0
   34.6570   28.7030   34.4380 H   0  0  0  0  0  0  0  0  0  0  0  0
   32.3820   29.5180   34.6500 H   0  0  0  0  0  0  0  0  0  0  0  0
   31.1020   29.9570   36.8720 N   0  0  0  0  0  0  0  0  0  0  0  0
   29.8580   29.2820   37.0670 C   0  0  0  0  0  0  0  0  0  0  0  0
   29.1720   30.1100   38.1580 C   0  0  0  0  0  0  0  0  0  0  0  0
   29.8320   31.4600   38.0340 C   0  0  0  0  0  0  0  0  0  0  0  0
   30.5900   31.3250   36.7400 C   0  0  2  0  0  0  0  0  0  0  0  0
   30.0700   28.2850   37.5160 H   0  0  0  0  0  0  0  0  0  0  0  0
   29.2280   29.2090   36.1600 H   0  0  0  0  0  0  0  0  0  0  0  0
   28.1250   30.2440   37.8380 H   0  0  0  0  0  0  0  0  0  0  0  0
   29.2850   29.6440   39.1470 H   0  0  0  0  0  0  0  0  0  0  0  0
   29.0870   32.2770   38.0450 H   0  0  0  0  0  0  0  0  0  0  0  0
   30.5290   31.5550   38.8660 H   0  0  0  0  0  0  0  0  0  0  0  0
   31.4630   32.0120   36.7340 H   0  0  0  0  0  0  0  0  0  0  0  0
   29.7650   31.5380   35.5220 C   0  0  0  0  0  0  0  0  0  0  0  0
   30.0310   30.7500   34.7830 H   0  0  0  0  0  0  0  0  0  0  0  0
   28.6670   31.3680   35.7100 H   0  0  0  0  0  0  0  0  0  0  0  0
   29.9440   32.5110   35.0310 H   0  0  0  0  0  0  0  0  0  0  0  0
   36.0780   29.0830   41.0770 C   0  0  0  0  0  0  0  0  0  0  0  0
   36.7580   27.8540   41.2530 C   0  0  0  0  0  0  0  0  0  0  0  0
   36.6330   26.9510   40.2030 C   0  0  0  0  0  0  0  0  0  0  0  0
   35.9060   27.2680   39.1140 N   0  0  0  0  0  0  0  0  0  0  0  0
   35.2800   28.4350   38.9870 C   0  0  0  0  0  0  0  0  0  0  0  0
   35.3720   29.3270   39.9650 N   0  0  0  0  0  0  0  0  0  0  0  0
   36.1550   29.8070   41.8770 H   0  0  0  0  0  0  0  0  0  0  0  0
   37.3020   27.7150   42.1560 H   0  0  0  0  0  0  0  0  0  0  0  0
   37.3030   25.7030   40.3420 N   0  0  0  0  0  0  0  0  0  0  0  0
   36.6130   24.4270   40.3970 C   0  0  0  0  0  2  0  0  0  0  0  0
   37.5970   23.4840   41.1010 C   0  0  0  0  0  2  0  0  0  0  0  0
   38.7380   24.3770   41.5420 C   0  0  0  0  0  2  0  0  0  0  0  0
   38.7250   25.4310   40.4520 C   0  0  0  0  0  3  0  0  0  0  0  0
   39.1610   25.0630   39.5010 H   0  0  0  0  0  0  0  0  0  0  0  0
  2  1  1  0  0  0  0
  3  2  1  0  0  0  0
  3 31  1  0  0  0  0
  4  3  2  0  0  0  0
  5  6  2  0  0  0  0
  5  4  1  0  0  0  0
  6  7  1  0  0  0  0
  7 11  1  0  0  0  0
  7  2  2  0  0  0  0
  8  4  1  0  0  0  0
  9  5  1  0  0  0  0
 10  6  1  0  0  0  0
 11 12  1  0  0  0  0
 12 16  1  0  0  0  0
 12 13  1  0  0  0  0
 13 19  1  0  0  0  0
 14 20  1  0  0  0  0
 14 13  1  0  0  0  0
 14 21  1  0  0  0  0
 15 22  1  6  0  0  0
 15 11  1  0  0  0  0
 15 14  1  0  0  0  0
 17 12  1  0  0  0  0
 18 13  1  0  0  0  0
 23 25  1  0  0  0  0
 23 15  1  0  0  0  0
 24 23  1  0  0  0  0
 26 23  1  0  0  0  0
 27 28  1  0  0  0  0
 27 33  1  0  0  0  0
 28 34  1  0  0  0  0
 29 35  1  0  0  0  0
 29 28  2  0  0  0  0
 30 29  1  0  0  0  0
 31 30  2  0  0  0  0
 31 32  1  0  0  0  0
 32 27  2  0  0  0  0
 35 36  1  0  0  0  0
 35 39  1  0  0  0  0
 36 37  1  0  0  0  0
 37 38  1  0  0  0  0
 39 38  1  0  0  0  0
 40 39  1  0  0  0  0
M  END
>  <minimizedAffinity>
-5.62815714

$$$$

 OpenBabel03252505263D

 40 43  0  0  1  0  0  0  0  0999 V2000
   36.4750   30.6760   37.8930 F   0  0  0  0  0  0  0  0  0  0  0  0
   36.4990   30.1610   39.1580 C   0  0  0  0  0  0  0  0  0  0  0  0
   35.6850   29.0800   39.4350 C   0  0  0  0  0  0  0  0  0  0  0  0
   35.7180   28.5770   40.6950 C   0  0  0  0  0  0  0  0  0  0  0  0
   36.5420   29.1380   41.6520 C   0  0  0  0  0  0  0  0  0  0  0  0
   37.3480   30.2060   41.3830 C   0  0  0  0  0  0  0  0  0  0  0  0
   37.3170   30.7270   40.0860 C   0  0  0  0  0  0  0  0  0  0  0  0
   35.1000   27.7310   40.9630 H   0  0  0  0  0  0  0  0  0  0  0  0
   36.5570   28.7250   42.6540 H   0  0  0  0  0  0  0  0  0  0  0  0
   37.9800   30.6230   42.1480 H   0  0  0  0  0  0  0  0  0  0  0  0
   38.1720   31.8370   39.8540 N   0  0  0  0  0  0  0  0  0  0  0  0
   37.9060   33.2370   39.7470 C   0  0  0  0  0  0  0  0  0  0  0  0
   38.9440   33.8690   40.6790 C   0  0  0  0  0  0  0  0  0  0  0  0
   40.0310   32.8270   40.7440 C   0  0  0  0  0  0  0  0  0  0  0  0
   39.6250   31.8760   39.6490 C   0  0  2  0  0  0  0  0  0  0  0  0
   36.9100   33.4360   40.2040 H   0  0  0  0  0  0  0  0  0  0  0  0
   37.9860   33.6420   38.7210 H   0  0  0  0  0  0  0  0  0  0  0  0
   39.3680   34.7300   40.1370 H   0  0  0  0  0  0  0  0  0  0  0  0
   38.5050   34.1230   41.6550 H   0  0  0  0  0  0  0  0  0  0  0  0
   41.0320   33.2780   40.6110 H   0  0  0  0  0  0  0  0  0  0  0  0
   39.9490   32.3360   41.7130 H   0  0  0  0  0  0  0  0  0  0  0  0
   40.0210   30.8600   39.8580 H   0  0  0  0  0  0  0  0  0  0  0  0
   40.0230   32.3080   38.2840 C   0  0  0  0  0  0  0  0  0  0  0  0
   39.1610   32.1320   37.6010 H   0  0  0  0  0  0  0  0  0  0  0  0
   40.1940   33.4200   38.2160 H   0  0  0  0  0  0  0  0  0  0  0  0
   40.8780   31.7440   37.8730 H   0  0  0  0  0  0  0  0  0  0  0  0
   34.2720   26.7630   36.9780 C   0  0  0  0  0  0  0  0  0  0  0  0
   33.2010   27.4970   36.4110 C   0  0  0  0  0  0  0  0  0  0  0  0
   33.0260   28.7790   36.9210 C   0  0  0  0  0  0  0  0  0  0  0  0
   33.8400   29.2470   37.8860 N   0  0  0  0  0  0  0  0  0  0  0  0
   34.8360   28.5240   38.3940 C   0  0  0  0  0  0  0  0  0  0  0  0
   35.0400   27.2950   37.9370 N   0  0  0  0  0  0  0  0  0  0  0  0
   34.4350   25.7620   36.6030 H   0  0  0  0  0  0  0  0  0  0  0  0
   32.6250   27.0240   35.6540 H   0  0  0  0  0  0  0  0  0  0  0  0
   31.9600   29.5490   36.3760 N   0  0  0  0  0  0  0  0  0  0  0  0
   31.9520   30.0510   35.0140 C   0  0  0  0  0  2  0  0  0  0  0  0
   30.9800   31.2380   35.0430 C   0  0  0  0  0  2  0  0  0  0  0  0
   30.6280   31.4110   36.5060 C   0  0  0  0  0  2  0  0  0  0  0  0
   30.7240   29.9820   37.0040 C   0  0  0  0  0  3  0  0  0  0  0  0
   29.8550   29.3660   36.6970 H   0  0  0  0  0  0  0  0  0  0  0  0
  1  2  1  0  0  0  0
  2  3  2  0  0  0  0
  2  7  1  0  0  0  0
  3  4  1  0  0  0  0
  4  8  1  0  0  0  0
  4  5  2  0  0  0  0
  5  9  1  0  0  0  0
  6  5  1  0  0  0  0
  6 10  1  0  0  0  0
  7  6  2  0  0  0  0
 11  7  1  0  0  0  0
 12 11  1  0  0  0  0
 12 16  1  0  0  0  0
 12 13  1  0  0  0  0
 13 14  1  0  0  0  0
 13 19  1  0  0  0  0
 14 21  1  0  0  0  0
 15 11  1  0  0  0  0
 15 22  1  1  0  0  0
 15 14  1  0  0  0  0
 17 12  1  0  0  0  0
 18 13  1  0  0  0  0
 20 14  1  0  0  0  0
 23 15  1  0  0  0  0
 24 23  1  0  0  0  0
 25 23  1  0  0  0  0
 26 23  1  0  0  0  0
 27 32  1  0  0  0  0
 28 29  1  0  0  0  0
 28 27  2  0  0  0  0
 29 30  2  0  0  0  0
 30 31  1  0  0  0  0
 31  3  1  0  0  0  0
 32 31  2  0  0  0  0
 33 27  1  0  0  0  0
 34 28  1  0  0  0  0
 35 29  1  0  0  0  0
 35 39  1  0  0  0  0
 36 37  1  0  0  0  0
 36 35  1  0  0  0  0
 37 38  1  0  0  0  0
 38 39  1  0  0  0  0
 40 39  1  0  0  0  0
M  END
>  <minimizedAffinity>
-5.46024418

$$$$

 OpenBabel03252505263D

 40 43  0  0  1  0  0  0  0  0999 V2000
   36.0020   26.5320   39.3360 F   0  0  0  0  0  0  0  0  0  0  0  0
   36.2060   27.6760   40.0540 C   0  0  0  0  0  0  0  0  0  0  0  0
   35.6420   28.8470   39.5860 C   0  0  0  0  0  0  0  0  0  0  0  0
   35.8510   29.9770   40.3090 C   0  0  0  0  0  0  0  0  0  0  0  0
   36.6030   29.9370   41.4670 C   0  0  0  0  0  0  0  0  0  0  0  0
   37.1640   28.7840   41.9330 C   0  0  0  0  0  0  0  0  0  0  0  0
   36.9500   27.6180   41.1920 C   0  0  0  0  0  0  0  0  0  0  0  0
   35.4310   30.9190   39.9850 H   0  0  0  0  0  0  0  0  0  0  0  0
   36.7620   30.8490   42.0330 H   0  0  0  0  0  0  0  0  0  0  0  0
   37.7450   28.7820   42.8390 H   0  0  0  0  0  0  0  0  0  0  0  0
   37.5510   26.4430   41.7170 N   0  0  0  0  0  0  0  0  0  0  0  0
   36.9880   25.2560   42.2790 C   0  0  0  0  0  0  0  0  0  0  0  0
   37.7180   24.1310   41.5400 C   0  0  0  0  0  0  0  0  0  0  0  0
   38.9970   24.7880   41.0860 C   0  0  0  0  0  0  0  0  0  0  0  0
   38.9700   26.0900   41.8420 C   0  0  2  0  0  0  0  0  0  0  0  0
   35.9200   25.1970   41.9660 H   0  0  0  0  0  0  0  0  0  0  0  0
   37.1100   25.1650   43.3750 H   0  0  0  0  0  0  0  0  0  0  0  0
   38.0030   23.3890   42.3030 H   0  0  0  0  0  0  0  0  0  0  0  0
   37.1070   23.7250   40.7220 H   0  0  0  0  0  0  0  0  0  0  0  0
   39.8770   24.1530   41.2990 H   0  0  0  0  0  0  0  0  0  0  0  0
   38.9010   24.9760   40.0170 H   0  0  0  0  0  0  0  0  0  0  0  0
   39.5570   26.8610   41.2980 H   0  0  0  0  0  0  0  0  0  0  0  0
   39.4380   25.9910   43.2490 C   0  0  0  0  0  0  0  0  0  0  0  0
   38.7390   26.5770   43.8870 H   0  0  0  0  0  0  0  0  0  0  0  0
   39.3570   24.9440   43.6580 H   0  0  0  0  0  0  0  0  0  0  0  0
   40.4470   26.4100   43.4110 H   0  0  0  0  0  0  0  0  0  0  0  0
   34.7040   28.4650   36.0680 C   0  0  0  0  0  0  0  0  0  0  0  0
   33.3360   28.8310   36.0500 C   0  0  0  0  0  0  0  0  0  0  0  0
   32.8040   29.1960   37.2820 C   0  0  0  0  0  0  0  0  0  0  0  0
   33.5730   29.1880   38.3870 N   0  0  0  0  0  0  0  0  0  0  0  0
   34.8570   28.8370   38.3620 C   0  0  0  0  0  0  0  0  0  0  0  0
   35.4070   28.4800   37.2080 N   0  0  0  0  0  0  0  0  0  0  0  0
   35.1480   28.1760   35.1250 H   0  0  0  0  0  0  0  0  0  0  0  0
   32.8280   28.7990   35.1180 H   0  0  0  0  0  0  0  0  0  0  0  0
   31.4310   29.5710   37.3060 N   0  0  0  0  0  0  0  0  0  0  0  0
   30.5590   29.4850   36.1490 C   0  0  0  0  0  2  0  0  0  0  0  0
   29.4260   30.4770   36.4430 C   0  0  0  0  0  2  0  0  0  0  0  0
   29.8510   31.1810   37.7150 C   0  0  0  0  0  2  0  0  0  0  0  0
   30.6390   30.0870   38.4080 C   0  0  0  0  0  3  0  0  0  0  0  0
   29.9840   29.3130   38.8580 H   0  0  0  0  0  0  0  0  0  0  0  0
  1  2  1  0  0  0  0
  2  7  1  0  0  0  0
  3  2  2  0  0  0  0
  3  4  1  0  0  0  0
  4  5  2  0  0  0  0
  5  6  1  0  0  0  0
  5  9  1  0  0  0  0
  6 10  1  0  0  0  0
  7 11  1  0  0  0  0
  7  6  2  0  0  0  0
  8  4  1  0  0  0  0
 11 15  1  0  0  0  0
 11 12  1  0  0  0  0
 12 17  1  0  0  0  0
 13 12  1  0  0  0  0
 13 18  1  0  0  0  0
 14 20  1  0  0  0  0
 14 13  1  0  0  0  0
 14 15  1  0  0  0  0
 15 22  1  6  0  0  0
 15 23  1  0  0  0  0
 16 12  1  0  0  0  0
 19 13  1  0  0  0  0
 21 14  1  0  0  0  0
 23 26  1  0  0  0  0
 23 25  1  0  0  0  0
 23 24  1  0  0  0  0
 27 32  1  0  0  0  0
 28 27  2  0  0  0  0
 28 29  1  0  0  0  0
 29 35  1  0  0  0  0
 29 30  2  0  0  0  0
 31 30  1  0  0  0  0
 31  3  1  0  0  0  0
 32 31  2  0  0  0  0
 33 27  1  0  0  0  0
 34 28  1  0  0  0  0
 35 39  1  0  0  0  0
 36 37  1  0  0  0  0
 36 35  1  0  0  0  0
 37 38  1  0  0  0  0
 38 39  1  0  0  0  0
 39 40  1  0  0  0  0
M  END
>  <minimizedAffinity>
-5.45816374

$$$$

 OpenBabel03252505263D

 40 43  0  0  1  0  0  0  0  0999 V2000
   39.5240   27.1290   40.6900 F   0  0  0  0  0  0  0  0  0  0  0  0
   38.5750   27.2540   41.6650 C   0  0  0  0  0  0  0  0  0  0  0  0
   38.7050   28.2900   42.5690 C   0  0  0  0  0  0  0  0  0  0  0  0
   37.7560   28.4050   43.5330 C   0  0  0  0  0  0  0  0  0  0  0  0
   36.7060   27.5090   43.5910 C   0  0  0  0  0  0  0  0  0  0  0  0
   36.5730   26.4840   42.7000 C   0  0  0  0  0  0  0  0  0  0  0  0
   37.5490   26.3630   41.7060 C   0  0  0  0  0  0  0  0  0  0  0  0
   37.8120   29.1980   44.2650 H   0  0  0  0  0  0  0  0  0  0  0  0
   35.9560   27.6130   44.3670 H   0  0  0  0  0  0  0  0  0  0  0  0
   35.7440   25.8000   42.7680 H   0  0  0  0  0  0  0  0  0  0  0  0
   37.3670   25.2820   40.8020 N   0  0  0  0  0  0  0  0  0  0  0  0
   37.2370   23.8750   41.0170 C   0  0  0  0  0  0  0  0  0  0  0  0
   36.0030   23.5020   40.1900 C   0  0  0  0  0  0  0  0  0  0  0  0
   35.9320   24.5990   39.1590 C   0  0  0  0  0  0  0  0  0  0  0  0
   37.2580   25.2900   39.3390 C   0  0  2  0  0  0  0  0  0  0  0  0
   36.9630   23.7100   42.0840 H   0  0  0  0  0  0  0  0  0  0  0  0
   38.1200   23.2810   40.7140 H   0  0  0  0  0  0  0  0  0  0  0  0
   36.2590   22.5780   39.6460 H   0  0  0  0  0  0  0  0  0  0  0  0
   35.1070   23.4200   40.8220 H   0  0  0  0  0  0  0  0  0  0  0  0
   35.7620   24.1920   38.1450 H   0  0  0  0  0  0  0  0  0  0  0  0
   35.1220   25.2660   39.4530 H   0  0  0  0  0  0  0  0  0  0  0  0
   37.1860   26.3490   39.0130 H   0  0  0  0  0  0  0  0  0  0  0  0
   38.3950   24.6220   38.6520 C   0  0  0  0  0  0  0  0  0  0  0  0
   39.2610   24.6080   39.3520 H   0  0  0  0  0  0  0  0  0  0  0  0
   38.1970   23.5300   38.4530 H   0  0  0  0  0  0  0  0  0  0  0  0
   38.7300   25.1440   37.7390 H   0  0  0  0  0  0  0  0  0  0  0  0
   42.0660   29.7090   42.8720 C   0  0  0  0  0  0  0  0  0  0  0  0
   41.9440   30.9790   42.2560 C   0  0  0  0  0  0  0  0  0  0  0  0
   40.6800   31.2780   41.7600 C   0  0  0  0  0  0  0  0  0  0  0  0
   39.6730   30.3930   41.8800 N   0  0  0  0  0  0  0  0  0  0  0  0
   39.8290   29.2080   42.4670 C   0  0  0  0  0  0  0  0  0  0  0  0
   41.0180   28.8800   42.9540 N   0  0  0  0  0  0  0  0  0  0  0  0
   43.0380   29.4460   43.2680 H   0  0  0  0  0  0  0  0  0  0  0  0
   42.8090   31.5950   42.2190 H   0  0  0  0  0  0  0  0  0  0  0  0
   40.5170   32.5460   41.1330 N   0  0  0  0  0  0  0  0  0  0  0  0
   39.2250   33.1770   40.9320 C   0  0  0  0  0  2  0  0  0  0  0  0
   39.4500   34.1610   39.7760 C   0  0  0  0  0  2  0  0  0  0  0  0
   40.8600   33.8790   39.3000 C   0  0  0  0  0  2  0  0  0  0  0  0
   41.5240   33.4380   40.5900 C   0  0  0  0  0  3  0  0  0  0  0  0
   41.7450   34.2890   41.2650 H   0  0  0  0  0  0  0  0  0  0  0  0
  1  2  1  0  0  0  0
  2  7  2  0  0  0  0
  2  3  1  0  0  0  0
  3  4  2  0  0  0  0
  4  5  1  0  0  0  0
  4  8  1  0  0  0  0
  5  9  1  0  0  0  0
  6 10  1  0  0  0  0
  6  5  2  0  0  0  0
  7  6  1  0  0  0  0
 11 12  1  0  0  0  0
 11  7  1  0  0  0  0
 12 16  1  0  0  0  0
 13 19  1  0  0  0  0
 13 12  1  0  0  0  0
 14 15  1  0  0  0  0
 14 21  1  0  0  0  0
 14 13  1  0  0  0  0
 15 22  1  6  0  0  0
 15 11  1  0  0  0  0
 17 12  1  0  0  0  0
 18 13  1  0  0  0  0
 20 14  1  0  0  0  0
 23 15  1  0  0  0  0
 23 24  1  0  0  0  0
 25 23  1  0  0  0  0
 26 23  1  0  0  0  0
 27 32  1  0  0  0  0
 27 33  1  0  0  0  0
 28 27  2  0  0  0  0
 29 30  2  0  0  0  0
 29 28  1  0  0  0  0
 30 31  1  0  0  0  0
 31  3  1  0  0  0  0
 31 32  2  0  0  0  0
 34 28  1  0  0  0  0
 35 29  1  0  0  0  0
 36 35  1  0  0  0  0
 37 36  1  0  0  0  0
 38 37  1  0  0  0  0
 38 39  1  0  0  0  0
 39 35  1  0  0  0  0
 39 40  1  0  0  0  0
M  END
>  <minimizedAffinity>
-5.43583584

$$$$
