
 OpenBabel03252509283D

 18 19  0  0  0  0  0  0  0  0999 V2000
   44.4480   35.9820   44.8790 C   0  0  0  0  0  0  0  0  0  0  0  0
   44.7640   35.8230   43.5140 C   0  0  0  0  0  0  0  0  0  0  0  0
   45.4100   34.6600   43.1240 C   0  0  0  0  0  0  0  0  0  0  0  0
   45.7080   33.7290   44.0790 N   0  0  0  0  0  0  0  0  0  0  0  0
   45.3860   33.9160   45.3900 C   0  0  0  0  0  0  0  0  0  0  0  0
   44.7630   35.0320   45.7800 N   0  0  0  0  0  0  0  0  0  0  0  0
   43.9410   36.9000   45.1660 H   0  0  0  0  0  0  0  0  0  0  0  0
   44.5220   36.5710   42.7670 H   0  0  0  0  0  0  0  0  0  0  0  0
   45.6420   33.1490   46.1130 H   0  0  0  0  0  0  0  0  0  0  0  0
   45.7380   34.4960   41.7110 C   0  0  0  0  0  0  0  0  0  0  0  0
   45.0620   33.7220   41.3020 H   0  0  0  0  0  0  0  0  0  0  0  0
   45.5530   35.4470   41.1730 H   0  0  0  0  0  0  0  0  0  0  0  0
   47.1310   34.1680   41.4820 N   0  0  0  0  0  0  0  0  0  0  0  0
   47.4690   33.8870   40.1310 C   0  0  0  0  0  3  0  0  0  0  0  0
   48.4730   34.9190   39.6770 C   0  0  0  0  0  3  0  0  0  0  0  0
   48.9010   35.6540   40.9140 C   0  0  0  0  0  2  0  0  0  0  0  0
   48.0250   35.1310   42.0190 C   0  0  0  0  0  3  0  0  0  0  0  0
   47.5280   35.9580   42.5650 H   0  0  0  0  0  0  0  0  0  0  0  0
  1  7  1  0  0  0  0
  1  6  1  0  0  0  0
  2  1  2  0  0  0  0
  3  2  1  0  0  0  0
  3  4  2  0  0  0  0
  4  5  1  0  0  0  0
  5  6  2  0  0  0  0
  5  9  1  0  0  0  0
  8  2  1  0  0  0  0
 10  3  1  0  0  0  0
 11 10  1  0  0  0  0
 12 10  1  0  0  0  0
 13 10  1  0  0  0  0
 13 17  1  0  0  0  0
 14 13  1  0  0  0  0
 15 14  2  0  0  0  0
 15 16  1  0  0  0  0
 16 17  1  0  0  0  0
 17 18  1  0  0  0  0
M  END
>  <minimizedAffinity>
-4.09517956

>  <minimizedRMSD>
1.59474444

$$$$
