
 OpenBabel03252509283D

 18 19  0  0  0  0  0  0  0  0999 V2000
   44.5060   36.1010   44.5970 C   0  0  0  0  0  0  0  0  0  0  0  0
   44.8750   35.7780   43.2750 C   0  0  0  0  0  0  0  0  0  0  0  0
   45.4820   34.5530   43.0470 C   0  0  0  0  0  0  0  0  0  0  0  0
   45.6910   33.7210   44.1110 N   0  0  0  0  0  0  0  0  0  0  0  0
   45.3200   34.0670   45.3760 C   0  0  0  0  0  0  0  0  0  0  0  0
   44.7340   35.2440   45.6100 N   0  0  0  0  0  0  0  0  0  0  0  0
   44.0310   37.0660   44.7570 H   0  0  0  0  0  0  0  0  0  0  0  0
   44.7030   36.4480   42.4400 H   0  0  0  0  0  0  0  0  0  0  0  0
   45.5070   33.3740   46.1900 H   0  0  0  0  0  0  0  0  0  0  0  0
   45.8650   34.2190   41.6780 C   0  0  0  0  0  0  0  0  0  0  0  0
   45.7630   33.1230   41.5630 H   0  0  0  0  0  0  0  0  0  0  0  0
   45.1750   34.7140   40.9670 H   0  0  0  0  0  0  0  0  0  0  0  0
   47.1960   34.6730   41.3300 N   0  0  0  0  0  0  0  0  0  0  0  0
   48.1090   34.7530   42.4160 C   0  0  0  0  0  3  0  0  0  0  0  0
   49.2400   33.7910   42.1470 C   0  0  0  0  0  3  0  0  0  0  0  0
   49.0740   33.3440   40.7230 C   0  0  0  0  0  2  0  0  0  0  0  0
   47.7740   33.9390   40.2620 C   0  0  0  0  0  3  0  0  0  0  0  0
   47.1080   33.1650   39.8310 H   0  0  0  0  0  0  0  0  0  0  0  0
  1  7  1  0  0  0  0
  1  6  1  0  0  0  0
  2  1  2  0  0  0  0
  3  2  1  0  0  0  0
  3  4  2  0  0  0  0
  4  5  1  0  0  0  0
  5  6  2  0  0  0  0
  5  9  1  0  0  0  0
  8  2  1  0  0  0  0
 10  3  1  0  0  0  0
 11 10  1  0  0  0  0
 12 10  1  0  0  0  0
 13 10  1  0  0  0  0
 13 14  1  0  0  0  0
 15 14  2  0  0  0  0
 16 15  1  0  0  0  0
 17 16  1  0  0  0  0
 17 13  1  0  0  0  0
 18 17  1  0  0  0  0
M  END
>  <minimizedAffinity>
-3.62802362

>  <minimizedRMSD>
1.22838616

$$$$
