
 OpenBabel03252508533D

 40 43  0  0  1  0  0  0  0  0999 V2000
   43.3200   34.4510   40.7090 C   0  0  0  0  0  0  0  0  0  0  0  0
   43.2940   35.6280   40.2250 O   0  0  0  0  0  0  0  0  0  0  0  0
   41.9380   34.0570   40.4950 N   0  0  0  0  0  0  0  0  0  0  0  0
   41.5130   34.0570   39.1180 C   0  0  0  0  0  0  0  0  0  0  0  0
   40.7470   35.3840   38.9350 C   0  0  0  0  0  0  0  0  0  0  0  0
   40.0150   35.6380   40.2520 C   0  0  0  0  0  0  0  0  0  0  0  0
   39.6460   34.3340   40.9280 C   0  0  0  0  0  0  0  0  0  0  0  0
   40.9250   33.6650   41.4540 C   0  0  1  0  0  0  0  0  0  0  0  0
   42.3260   34.0870   38.3860 H   0  0  0  0  0  0  0  0  0  0  0  0
   40.8410   33.2150   38.8720 H   0  0  0  0  0  0  0  0  0  0  0  0
   40.0390   35.2910   38.0840 H   0  0  0  0  0  0  0  0  0  0  0  0
   41.4420   36.2120   38.7490 H   0  0  0  0  0  0  0  0  0  0  0  0
   40.6680   36.2680   40.9160 H   0  0  0  0  0  0  0  0  0  0  0  0
   39.1050   36.2480   40.0870 H   0  0  0  0  0  0  0  0  0  0  0  0
   39.2480   33.6740   40.1300 H   0  0  0  0  0  0  0  0  0  0  0  0
   38.9340   34.5570   41.7380 H   0  0  0  0  0  0  0  0  0  0  0  0
   41.1670   34.1580   42.4160 H   0  0  0  0  0  0  0  0  0  0  0  0
   40.7820   32.2400   41.5430 N   0  0  1  0  0  0  0  0  0  0  0  0
   39.3710   31.9260   41.4520 C   0  0  0  0  0  2  0  0  0  0  0  0
   39.3610   30.4510   41.0620 C   0  0  0  0  0  2  0  0  0  0  0  0
   40.5860   30.2630   40.2140 C   0  0  0  0  0  2  0  0  0  0  0  0
   41.3620   31.5090   40.4770 C   0  0  0  0  0  3  0  0  0  0  0  0
   41.5940   32.0980   39.5690 H   0  0  0  0  0  0  0  0  0  0  0  0
   44.3900   33.8170   41.2550 O   0  0  0  0  0  0  0  0  0  0  0  0
   45.7170   34.1220   41.1000 C   0  0  0  0  0  0  0  0  0  0  0  0
   46.3620   34.7400   42.1810 C   0  0  0  0  0  0  0  0  0  0  0  0
   47.7200   35.0490   42.0120 C   0  0  0  0  0  0  0  0  0  0  0  0
   48.3180   34.7330   40.8230 N   0  0  0  0  0  0  0  0  0  0  0  0
   47.6550   34.1480   39.8340 C   0  0  0  0  0  0  0  0  0  0  0  0
   46.3520   33.8390   39.9660 N   0  0  0  0  0  0  0  0  0  0  0  0
   48.2250   35.5270   42.8470 H   0  0  0  0  0  0  0  0  0  0  0  0
   48.2090   33.9320   38.9240 H   0  0  0  0  0  0  0  0  0  0  0  0
   45.6310   35.0320   43.4010 C   0  0  0  0  0  0  0  0  0  0  0  0
   45.0080   36.2630   43.6330 C   0  0  0  0  0  0  0  0  0  0  0  0
   44.4490   36.1060   44.8740 C   0  0  0  0  0  0  0  0  0  0  0  0
   44.7050   34.8860   45.3630 N   0  0  0  0  0  0  0  0  0  0  0  0
   45.4240   34.2480   44.4550 N   0  0  0  0  0  0  0  0  0  0  0  0
   44.9390   37.1570   43.0390 H   0  0  0  0  0  0  0  0  0  0  0  0
   43.8680   36.8860   45.3940 H   0  0  0  0  0  0  0  0  0  0  0  0
   44.3720   34.5580   46.2960 H   0  0  0  0  0  0  0  0  0  0  0  0
  1 24  1  0  0  0  0
  2  1  2  0  0  0  0
  3  1  1  0  0  0  0
  3  8  1  0  0  0  0
  4  3  1  0  0  0  0
  5  4  1  0  0  0  0
  5  6  1  0  0  0  0
  6 13  1  0  0  0  0
  6  7  1  0  0  0  0
  7  8  1  0  0  0  0
  7 16  1  0  0  0  0
  8 18  1  0  0  0  0
  8 17  1  1  0  0  0
  9  4  1  0  0  0  0
 10  4  1  0  0  0  0
 11  5  1  0  0  0  0
 12  5  1  0  0  0  0
 14  6  1  0  0  0  0
 15  7  1  0  0  0  0
 18 19  1  6  0  0  0
 20 19  1  0  0  0  0
 21 22  1  0  0  0  0
 21 20  1  0  0  0  0
 22 18  1  0  0  0  0
 23 22  1  0  0  0  0
 25 24  1  0  0  0  0
 25 26  1  0  0  0  0
 26 33  1  0  0  0  0
 27 26  2  0  0  0  0
 27 31  1  0  0  0  0
 28 27  1  0  0  0  0
 29 30  1  0  0  0  0
 29 28  2  0  0  0  0
 30 25  2  0  0  0  0
 32 29  1  0  0  0  0
 33 34  1  0  0  0  0
 33 37  2  0  0  0  0
 34 35  2  0  0  0  0
 35 36  1  0  0  0  0
 35 39  1  0  0  0  0
 36 40  1  0  0  0  0
 37 36  1  0  0  0  0
 38 34  1  0  0  0  0
M  END
>  <minimizedAffinity>
-6.54083443

>  <minimizedRMSD>
0.683704734

$$$$
