
 OpenBabel03252509103D

 28 31  0  0  0  0  0  0  0  0999 V2000
   46.1140   30.9540   42.4380 C   0  0  0  0  0  0  0  0  0  0  0  0
   45.6530   32.1740   42.0100 C   0  0  0  0  0  0  0  0  0  0  0  0
   44.2960   32.4970   41.9750 C   0  0  0  0  0  0  0  0  0  0  0  0
   43.3540   31.5490   42.3870 C   0  0  0  0  0  0  0  0  0  0  0  0
   42.0130   31.4890   42.4930 N   0  0  0  0  0  0  0  0  0  0  0  0
   41.6470   30.2740   42.9710 C   0  0  0  0  0  0  0  0  0  0  0  0
   42.7950   29.5870   43.1570 N   0  0  0  0  0  0  0  0  0  0  0  0
   43.8450   30.3360   42.8100 C   0  0  0  0  0  0  0  0  0  0  0  0
   45.1900   29.9940   42.8540 C   0  0  0  0  0  0  0  0  0  0  0  0
   47.1740   30.7420   42.4510 H   0  0  0  0  0  0  0  0  0  0  0  0
   41.4390   32.3160   42.2200 H   0  0  0  0  0  0  0  0  0  0  0  0
   40.6010   30.0850   43.1070 H   0  0  0  0  0  0  0  0  0  0  0  0
   45.5270   29.0250   43.1960 H   0  0  0  0  0  0  0  0  0  0  0  0
   47.8390   34.2210   39.8740 C   0  0  0  0  0  0  0  0  0  0  0  0
   48.3700   35.1470   40.8010 C   0  0  0  0  0  0  0  0  0  0  0  0
   47.9720   35.0610   42.1560 C   0  0  0  0  0  0  0  0  0  0  0  0
   47.0790   34.0600   42.4790 N   0  0  0  0  0  0  0  0  0  0  0  0
   46.5910   33.1940   41.5730 C   0  0  0  0  0  0  0  0  0  0  0  0
   46.9740   33.2860   40.3030 N   0  0  0  0  0  0  0  0  0  0  0  0
   48.1760   34.3330   38.8560 H   0  0  0  0  0  0  0  0  0  0  0  0
   49.0700   35.9390   40.5750 H   0  0  0  0  0  0  0  0  0  0  0  0
   48.3480   35.7440   42.9040 H   0  0  0  0  0  0  0  0  0  0  0  0
   43.7620   33.7410   41.5410 N   0  0  0  0  0  0  0  0  0  0  0  0
   43.5460   35.0790   42.0610 C   0  0  0  0  0  2  0  0  0  0  0  0
   42.3910   35.5630   41.2060 C   0  0  0  0  0  2  0  0  0  0  0  0
   42.8560   35.1000   39.8240 C   0  0  0  0  0  2  0  0  0  0  0  0
   43.2780   33.6840   40.1550 C   0  0  0  0  0  3  0  0  0  0  0  0
   44.1330   33.4430   39.4850 H   0  0  0  0  0  0  0  0  0  0  0  0
  1 10  1  0  0  0  0
  1  9  1  0  0  0  0
  2  1  2  0  0  0  0
  3  2  1  0  0  0  0
  3  4  2  0  0  0  0
  4  5  1  0  0  0  0
  4  8  1  0  0  0  0
  5  6  1  0  0  0  0
  6 12  1  0  0  0  0
  6  7  2  0  0  0  0
  8  9  2  0  0  0  0
  8  7  1  0  0  0  0
  9 13  1  0  0  0  0
 11  5  1  0  0  0  0
 14 19  2  0  0  0  0
 14 15  1  0  0  0  0
 15 16  2  0  0  0  0
 16 17  1  0  0  0  0
 16 22  1  0  0  0  0
 18  2  1  0  0  0  0
 18 17  2  0  0  0  0
 19 18  1  0  0  0  0
 20 14  1  0  0  0  0
 21 15  1  0  0  0  0
 23  3  1  0  0  0  0
 23 24  1  0  0  0  0
 25 24  1  0  0  0  0
 26 27  1  0  0  0  0
 26 25  1  0  0  0  0
 27 23  1  0  0  0  0
 28 27  1  0  0  0  0
M  END
>  <minimizedAffinity>
-4.37387562

>  <minimizedRMSD>
4.87692022

$$$$
