
 OpenBabel03252502103D

 45 49  0  0  0  0  0  0  0  0999 V2000
   37.6970   27.2670   36.5430 C   0  0  0  0  0  0  0  0  0  0  0  0
   36.5420   27.8230   35.9830 C   0  0  0  0  0  0  0  0  0  0  0  0
   35.5260   28.1180   36.8480 C   0  0  0  0  0  0  0  0  0  0  0  0
   35.6710   27.8790   38.1520 N   0  0  0  0  0  0  0  0  0  0  0  0
   36.7560   27.3570   38.6980 C   0  0  0  0  0  0  0  0  0  0  0  0
   37.7670   27.0560   37.8640 N   0  0  0  0  0  0  0  0  0  0  0  0
   34.3510   28.6420   36.3620 N   0  0  0  0  0  0  0  0  0  0  0  0
   33.1210   28.8370   37.1820 C   0  0  0  0  0  0  0  0  0  0  0  0
   32.2080   29.6950   36.3480 C   0  0  0  0  0  0  0  0  0  0  0  0
   32.6050   29.3350   34.9560 C   0  0  0  0  0  0  0  0  0  0  0  0
   34.0770   29.0820   35.0250 C   0  0  0  0  0  0  0  0  0  0  0  0
   38.5410   27.0090   35.8890 H   0  0  0  0  0  0  0  0  0  0  0  0
   32.6860   27.8110   37.3350 H   0  0  0  0  0  0  0  0  0  0  0  0
   33.3880   29.3350   38.1350 H   0  0  0  0  0  0  0  0  0  0  0  0
   32.4270   30.7660   36.5300 H   0  0  0  0  0  0  0  0  0  0  0  0
   31.1430   29.4530   36.5730 H   0  0  0  0  0  0  0  0  0  0  0  0
   32.3510   30.1310   34.2350 H   0  0  0  0  0  0  0  0  0  0  0  0
   32.0150   28.4380   34.6740 H   0  0  0  0  0  0  0  0  0  0  0  0
   34.6490   29.9580   34.6880 H   0  0  0  0  0  0  0  0  0  0  0  0
   34.2270   28.2320   34.3250 H   0  0  0  0  0  0  0  0  0  0  0  0
   37.1080   27.0560   40.1040 C   0  0  0  0  0  0  0  0  0  0  0  0
   36.9240   25.8670   40.6830 N   0  0  0  0  0  0  0  0  0  0  0  0
   37.2290   25.5710   41.9390 C   0  0  0  0  0  0  0  0  0  0  0  0
   37.7690   26.5070   42.7450 N   0  0  0  0  0  0  0  0  0  0  0  0
   38.0050   27.7470   42.2840 C   0  0  0  0  0  0  0  0  0  0  0  0
   38.5730   28.7200   43.0900 C   0  0  0  0  0  0  0  0  0  0  0  0
   38.8340   29.9720   42.6320 C   0  0  0  0  0  0  0  0  0  0  0  0
   38.5100   30.2450   41.3280 C   0  0  0  0  0  0  0  0  0  0  0  0
   37.9390   29.2440   40.5490 C   0  0  0  0  0  0  0  0  0  0  0  0
   37.6660   27.9900   40.9680 C   0  0  0  0  0  0  0  0  0  0  0  0
   37.0580   24.5830   42.3610 H   0  0  0  0  0  0  0  0  0  0  0  0
   38.8140   28.4680   44.1150 H   0  0  0  0  0  0  0  0  0  0  0  0
   39.2750   30.6840   43.2980 H   0  0  0  0  0  0  0  0  0  0  0  0
   38.8040   31.5670   40.8800 N   0  0  0  0  0  0  0  0  0  0  0  0
   37.9980   32.7320   40.5600 C   0  0  0  0  0  2  0  0  0  0  0  0
   38.9760   33.8950   40.6510 C   0  0  0  0  0  2  0  0  0  0  0  0
   40.2010   33.2270   40.0130 C   0  0  0  0  0  2  0  0  0  0  0  0
   40.2110   31.8920   40.6820 C   0  0  0  0  0  3  0  0  0  0  0  0
   40.6790   32.0530   41.6910 H   0  0  0  0  0  0  0  0  0  0  0  0
   37.6400   29.7300   39.2360 N   0  0  0  0  0  0  0  0  0  0  0  0
   38.1120   29.7450   38.3260 H   0  0  0  0  0  0  0  0  0  0  0  0
   36.6780   30.1650   39.3450 H   0  0  0  0  0  0  0  0  0  0  0  0
   36.5400   28.0660   34.6370 N   0  0  0  0  0  0  0  0  0  0  0  0
   36.3240   27.1060   34.2330 H   0  0  0  0  0  0  0  0  0  0  0  0
   36.6990   28.9250   34.0690 H   0  0  0  0  0  0  0  0  0  0  0  0
  1  6  1  0  0  0  0
  2  1  2  0  0  0  0
  2  3  1  0  0  0  0
  3  4  2  0  0  0  0
  4  5  1  0  0  0  0
  5 21  1  0  0  0  0
  6  5  2  0  0  0  0
  7  3  1  0  0  0  0
  7  8  1  0  0  0  0
  8 13  1  0  0  0  0
  8 14  1  0  0  0  0
  9 15  1  0  0  0  0
  9 16  1  0  0  0  0
  9  8  1  0  0  0  0
 10 11  1  0  0  0  0
 10  9  1  0  0  0  0
 11  7  1  0  0  0  0
 12  1  1  0  0  0  0
 17 10  1  0  0  0  0
 18 10  1  0  0  0  0
 19 11  1  0  0  0  0
 20 11  1  0  0  0  0
 21 22  2  0  0  0  0
 21 30  1  0  0  0  0
 22 23  1  0  0  0  0
 23 31  1  0  0  0  0
 23 24  2  0  0  0  0
 25 24  1  0  0  0  0
 25 26  1  0  0  0  0
 26 32  1  0  0  0  0
 27 26  2  0  0  0  0
 27 33  1  0  0  0  0
 28 27  1  0  0  0  0
 29 30  1  0  0  0  0
 29 28  2  0  0  0  0
 30 25  2  0  0  0  0
 34 28  1  0  0  0  0
 35 36  1  0  0  0  0
 35 34  1  0  0  0  0
 37 36  1  0  0  0  0
 37 38  1  0  0  0  0
 38 34  1  0  0  0  0
 38 39  1  0  0  0  0
 40 42  1  0  0  0  0
 40 29  1  0  0  0  0
 41 40  1  0  0  0  0
 43  2  1  0  0  0  0
 44 43  1  0  0  0  0
 45 43  1  0  0  0  0
M  END
>  <minimizedAffinity>
-6.16223335

$$$$

 OpenBabel03252502103D

 45 49  0  0  0  0  0  0  0  0999 V2000
   36.1560   30.7430   41.0640 C   0  0  0  0  0  0  0  0  0  0  0  0
   37.2030   31.4940   40.5180 C   0  0  0  0  0  0  0  0  0  0  0  0
   38.2950   30.7940   40.0890 C   0  0  0  0  0  0  0  0  0  0  0  0
   38.3210   29.4650   40.1990 N   0  0  0  0  0  0  0  0  0  0  0  0
   37.3400   28.7410   40.7100 C   0  0  0  0  0  0  0  0  0  0  0  0
   36.2560   29.4090   41.1410 N   0  0  0  0  0  0  0  0  0  0  0  0
   39.3720   31.4710   39.5670 N   0  0  0  0  0  0  0  0  0  0  0  0
   40.6790   30.8330   39.2330 C   0  0  0  0  0  0  0  0  0  0  0  0
   41.4360   31.8530   38.4250 C   0  0  0  0  0  0  0  0  0  0  0  0
   40.8960   33.1430   38.9450 C   0  0  0  0  0  0  0  0  0  0  0  0
   39.4610   32.8680   39.2560 C   0  0  0  0  0  0  0  0  0  0  0  0
   35.2560   31.2590   41.4260 H   0  0  0  0  0  0  0  0  0  0  0  0
   41.1860   30.6360   40.2170 H   0  0  0  0  0  0  0  0  0  0  0  0
   40.4990   29.9060   38.6520 H   0  0  0  0  0  0  0  0  0  0  0  0
   41.1780   31.7500   37.3520 H   0  0  0  0  0  0  0  0  0  0  0  0
   42.5310   31.7390   38.5960 H   0  0  0  0  0  0  0  0  0  0  0  0
   41.0170   33.9640   38.2180 H   0  0  0  0  0  0  0  0  0  0  0  0
   41.4990   33.4080   39.8390 H   0  0  0  0  0  0  0  0  0  0  0  0
   38.8030   33.2150   38.4460 H   0  0  0  0  0  0  0  0  0  0  0  0
   39.2760   33.4580   40.1790 H   0  0  0  0  0  0  0  0  0  0  0  0
   37.1760   27.2790   40.8800 C   0  0  0  0  0  0  0  0  0  0  0  0
   37.5180   26.6110   41.9830 N   0  0  0  0  0  0  0  0  0  0  0  0
   37.3840   25.3040   42.1620 C   0  0  0  0  0  0  0  0  0  0  0  0
   36.8660   24.5350   41.1820 N   0  0  0  0  0  0  0  0  0  0  0  0
   36.4810   25.0860   40.0180 C   0  0  0  0  0  0  0  0  0  0  0  0
   35.9330   24.3190   39.0030 C   0  0  0  0  0  0  0  0  0  0  0  0
   35.5230   24.8640   37.8290 C   0  0  0  0  0  0  0  0  0  0  0  0
   35.6730   26.2180   37.6780 C   0  0  0  0  0  0  0  0  0  0  0  0
   36.2300   26.9570   38.7170 C   0  0  0  0  0  0  0  0  0  0  0  0
   36.6480   26.4510   39.8970 C   0  0  0  0  0  0  0  0  0  0  0  0
   37.6790   24.8100   43.0840 H   0  0  0  0  0  0  0  0  0  0  0  0
   35.8310   23.2520   39.1590 H   0  0  0  0  0  0  0  0  0  0  0  0
   35.1050   24.2230   37.0800 H   0  0  0  0  0  0  0  0  0  0  0  0
   35.2260   26.7560   36.4350 N   0  0  0  0  0  0  0  0  0  0  0  0
   34.0150   27.4270   35.9970 C   0  0  0  0  0  2  0  0  0  0  0  0
   34.4330   28.1530   34.7260 C   0  0  0  0  0  2  0  0  0  0  0  0
   35.3420   27.0750   34.1230 C   0  0  0  0  0  2  0  0  0  0  0  0
   36.1430   26.6460   35.3070 C   0  0  0  0  0  3  0  0  0  0  0  0
   36.9500   27.4200   35.4350 H   0  0  0  0  0  0  0  0  0  0  0  0
   36.3380   28.3380   38.3580 N   0  0  0  0  0  0  0  0  0  0  0  0
   35.7650   29.1810   38.4720 H   0  0  0  0  0  0  0  0  0  0  0  0
   37.2680   28.3910   37.8500 H   0  0  0  0  0  0  0  0  0  0  0  0
   37.0310   32.8460   40.4150 N   0  0  0  0  0  0  0  0  0  0  0  0
   37.2510   33.1780   41.4010 H   0  0  0  0  0  0  0  0  0  0  0  0
   36.7560   33.4710   39.6280 H   0  0  0  0  0  0  0  0  0  0  0  0
  1  6  1  0  0  0  0
  1 12  1  0  0  0  0
  2  1  2  0  0  0  0
  3  4  2  0  0  0  0
  3  2  1  0  0  0  0
  4  5  1  0  0  0  0
  5 21  1  0  0  0  0
  5  6  2  0  0  0  0
  7  3  1  0  0  0  0
  8  7  1  0  0  0  0
  8 13  1  0  0  0  0
  9 16  1  0  0  0  0
  9 10  1  0  0  0  0
  9  8  1  0  0  0  0
 10 11  1  0  0  0  0
 10 18  1  0  0  0  0
 11  7  1  0  0  0  0
 11 20  1  0  0  0  0
 14  8  1  0  0  0  0
 15  9  1  0  0  0  0
 17 10  1  0  0  0  0
 19 11  1  0  0  0  0
 21 22  1  0  0  0  0
 22 23  2  0  0  0  0
 23 31  1  0  0  0  0
 24 23  1  0  0  0  0
 25 24  2  0  0  0  0
 26 32  1  0  0  0  0
 26 25  1  0  0  0  0
 27 26  2  0  0  0  0
 28 27  1  0  0  0  0
 28 29  2  0  0  0  0
 29 30  1  0  0  0  0
 30 25  1  0  0  0  0
 30 21  2  0  0  0  0
 33 27  1  0  0  0  0
 34 28  1  0  0  0  0
 35 34  1  0  0  0  0
 36 35  1  0  0  0  0
 37 36  1  0  0  0  0
 37 38  1  0  0  0  0
 38 39  1  0  0  0  0
 38 34  1  0  0  0  0
 40 41  1  0  0  0  0
 40 29  1  0  0  0  0
 42 40  1  0  0  0  0
 43  2  1  0  0  0  0
 43 44  1  0  0  0  0
 45 43  1  0  0  0  0
M  END
>  <minimizedAffinity>
-6.1233778

$$$$

 OpenBabel03252502103D

 45 49  0  0  0  0  0  0  0  0999 V2000
   37.2560   32.3990   40.6810 C   0  0  0  0  0  0  0  0  0  0  0  0
   38.4530   32.9950   40.2680 C   0  0  0  0  0  0  0  0  0  0  0  0
   39.1070   32.3920   39.2310 C   0  0  0  0  0  0  0  0  0  0  0  0
   38.5960   31.2970   38.6670 N   0  0  0  0  0  0  0  0  0  0  0  0
   37.4660   30.7230   39.0430 C   0  0  0  0  0  0  0  0  0  0  0  0
   36.8070   31.2980   40.0640 N   0  0  0  0  0  0  0  0  0  0  0  0
   40.3030   32.9090   38.7910 N   0  0  0  0  0  0  0  0  0  0  0  0
   41.1870   32.2400   37.7930 C   0  0  0  0  0  0  0  0  0  0  0  0
   42.2030   33.2740   37.3900 C   0  0  0  0  0  0  0  0  0  0  0  0
   42.3020   34.1250   38.6120 C   0  0  0  0  0  0  0  0  0  0  0  0
   40.9230   34.1400   39.1880 C   0  0  0  0  0  0  0  0  0  0  0  0
   36.6940   32.8430   41.5140 H   0  0  0  0  0  0  0  0  0  0  0  0
   41.6730   31.3830   38.3360 H   0  0  0  0  0  0  0  0  0  0  0  0
   40.5800   31.9070   36.9270 H   0  0  0  0  0  0  0  0  0  0  0  0
   41.8100   33.8800   36.5480 H   0  0  0  0  0  0  0  0  0  0  0  0
   43.1660   32.7810   37.1240 H   0  0  0  0  0  0  0  0  0  0  0  0
   42.6690   35.1390   38.3790 H   0  0  0  0  0  0  0  0  0  0  0  0
   43.0540   33.6500   39.2750 H   0  0  0  0  0  0  0  0  0  0  0  0
   40.3820   35.0540   38.9070 H   0  0  0  0  0  0  0  0  0  0  0  0
   41.1000   34.1190   40.2850 H   0  0  0  0  0  0  0  0  0  0  0  0
   36.7360   29.5440   38.5240 C   0  0  0  0  0  0  0  0  0  0  0  0
   35.8640   29.5890   37.5150 N   0  0  0  0  0  0  0  0  0  0  0  0
   35.1960   28.5500   37.0310 C   0  0  0  0  0  0  0  0  0  0  0  0
   35.3720   27.3240   37.5630 N   0  0  0  0  0  0  0  0  0  0  0  0
   36.2240   27.1420   38.5860 C   0  0  0  0  0  0  0  0  0  0  0  0
   36.4310   25.8890   39.1390 C   0  0  0  0  0  0  0  0  0  0  0  0
   37.3030   25.6870   40.1610 C   0  0  0  0  0  0  0  0  0  0  0  0
   37.9790   26.7810   40.6360 C   0  0  0  0  0  0  0  0  0  0  0  0
   37.7440   28.0250   40.0580 C   0  0  0  0  0  0  0  0  0  0  0  0
   36.8870   28.2630   39.0430 C   0  0  0  0  0  0  0  0  0  0  0  0
   34.4960   28.6430   36.2040 H   0  0  0  0  0  0  0  0  0  0  0  0
   35.8780   25.0490   38.7380 H   0  0  0  0  0  0  0  0  0  0  0  0
   37.4240   24.6970   40.5480 H   0  0  0  0  0  0  0  0  0  0  0  0
   38.8890   26.5310   41.7050 N   0  0  0  0  0  0  0  0  0  0  0  0
   38.8190   26.6630   43.1490 C   0  0  0  0  0  2  0  0  0  0  0  0
   39.9320   25.7570   43.6590 C   0  0  0  0  0  2  0  0  0  0  0  0
   40.9970   26.0710   42.6010 C   0  0  0  0  0  2  0  0  0  0  0  0
   40.2050   26.0240   41.3370 C   0  0  0  0  0  3  0  0  0  0  0  0
   40.1000   24.9350   41.0750 H   0  0  0  0  0  0  0  0  0  0  0  0
   38.5100   29.0420   40.7120 N   0  0  0  0  0  0  0  0  0  0  0  0
   39.4220   29.4890   40.5700 H   0  0  0  0  0  0  0  0  0  0  0  0
   37.8980   29.3290   41.5290 H   0  0  0  0  0  0  0  0  0  0  0  0
   38.8420   34.1450   40.8960 N   0  0  0  0  0  0  0  0  0  0  0  0
   39.2860   33.7770   41.7890 H   0  0  0  0  0  0  0  0  0  0  0  0
   38.7640   35.1530   40.6460 H   0  0  0  0  0  0  0  0  0  0  0  0
  1 12  1  0  0  0  0
  2  1  1  0  0  0  0
  2 43  1  0  0  0  0
  3  2  2  0  0  0  0
  4  5  2  0  0  0  0
  4  3  1  0  0  0  0
  5  6  1  0  0  0  0
  6  1  2  0  0  0  0
  7 11  1  0  0  0  0
  7  3  1  0  0  0  0
  8 13  1  0  0  0  0
  8  7  1  0  0  0  0
  9  8  1  0  0  0  0
  9 10  1  0  0  0  0
 10 11  1  0  0  0  0
 10 18  1  0  0  0  0
 11 20  1  0  0  0  0
 14  8  1  0  0  0  0
 15  9  1  0  0  0  0
 16  9  1  0  0  0  0
 17 10  1  0  0  0  0
 19 11  1  0  0  0  0
 21 30  1  0  0  0  0
 21  5  1  0  0  0  0
 22 21  2  0  0  0  0
 23 22  1  0  0  0  0
 23 24  2  0  0  0  0
 24 25  1  0  0  0  0
 25 30  2  0  0  0  0
 25 26  1  0  0  0  0
 26 27  2  0  0  0  0
 27 33  1  0  0  0  0
 27 28  1  0  0  0  0
 28 34  1  0  0  0  0
 29 28  2  0  0  0  0
 29 40  1  0  0  0  0
 30 29  1  0  0  0  0
 31 23  1  0  0  0  0
 32 26  1  0  0  0  0
 34 35  1  0  0  0  0
 35 36  1  0  0  0  0
 37 36  1  0  0  0  0
 38 34  1  0  0  0  0
 38 37  1  0  0  0  0
 39 38  1  0  0  0  0
 40 42  1  0  0  0  0
 41 40  1  0  0  0  0
 43 44  1  0  0  0  0
 45 43  1  0  0  0  0
M  END
>  <minimizedAffinity>
-6.11271477

$$$$

 OpenBabel03252502103D

 45 49  0  0  0  0  0  0  0  0999 V2000
   38.0810   28.5470   36.1740 C   0  0  0  0  0  0  0  0  0  0  0  0
   36.7460   28.3250   35.8190 C   0  0  0  0  0  0  0  0  0  0  0  0
   35.7990   28.8750   36.6360 C   0  0  0  0  0  0  0  0  0  0  0  0
   36.1690   29.5830   37.7030 N   0  0  0  0  0  0  0  0  0  0  0  0
   37.4260   29.8050   38.0510 C   0  0  0  0  0  0  0  0  0  0  0  0
   38.3740   29.2700   37.2630 N   0  0  0  0  0  0  0  0  0  0  0  0
   34.4660   28.6740   36.3620 N   0  0  0  0  0  0  0  0  0  0  0  0
   33.3560   29.0740   37.2740 C   0  0  0  0  0  0  0  0  0  0  0  0
   32.0950   28.9470   36.4610 C   0  0  0  0  0  0  0  0  0  0  0  0
   32.4420   27.8680   35.4900 C   0  0  0  0  0  0  0  0  0  0  0  0
   33.8950   28.0600   35.1990 C   0  0  0  0  0  0  0  0  0  0  0  0
   38.8800   28.1220   35.5510 H   0  0  0  0  0  0  0  0  0  0  0  0
   33.3690   28.3330   38.1200 H   0  0  0  0  0  0  0  0  0  0  0  0
   33.5160   30.1160   37.6160 H   0  0  0  0  0  0  0  0  0  0  0  0
   31.9050   29.8910   35.9120 H   0  0  0  0  0  0  0  0  0  0  0  0
   31.2390   28.6790   37.1210 H   0  0  0  0  0  0  0  0  0  0  0  0
   31.8230   27.9180   34.5790 H   0  0  0  0  0  0  0  0  0  0  0  0
   32.2150   26.9020   35.9870 H   0  0  0  0  0  0  0  0  0  0  0  0
   34.0450   28.6030   34.2550 H   0  0  0  0  0  0  0  0  0  0  0  0
   34.2820   27.0220   35.1100 H   0  0  0  0  0  0  0  0  0  0  0  0
   38.0210   30.5820   39.1630 C   0  0  0  0  0  0  0  0  0  0  0  0
   38.2950   31.8860   39.1010 N   0  0  0  0  0  0  0  0  0  0  0  0
   38.8290   32.6050   40.0790 C   0  0  0  0  0  0  0  0  0  0  0  0
   39.1420   32.0240   41.2550 N   0  0  0  0  0  0  0  0  0  0  0  0
   38.9150   30.7130   41.4470 C   0  0  0  0  0  0  0  0  0  0  0  0
   39.2140   30.0980   42.6510 C   0  0  0  0  0  0  0  0  0  0  0  0
   38.9740   28.7780   42.8660 C   0  0  0  0  0  0  0  0  0  0  0  0
   38.4200   28.0640   41.8350 C   0  0  0  0  0  0  0  0  0  0  0  0
   38.1350   28.7140   40.6380 C   0  0  0  0  0  0  0  0  0  0  0  0
   38.3580   30.0220   40.3890 C   0  0  0  0  0  0  0  0  0  0  0  0
   39.0310   33.6680   39.9750 H   0  0  0  0  0  0  0  0  0  0  0  0
   39.6530   30.6940   43.4420 H   0  0  0  0  0  0  0  0  0  0  0  0
   39.2250   28.3560   43.8170 H   0  0  0  0  0  0  0  0  0  0  0  0
   38.1770   26.6840   42.0980 N   0  0  0  0  0  0  0  0  0  0  0  0
   37.0040   25.9150   42.4730 C   0  0  0  0  0  2  0  0  0  0  0  0
   37.3590   24.4860   42.0850 C   0  0  0  0  0  2  0  0  0  0  0  0
   38.8310   24.4800   42.5160 C   0  0  0  0  0  2  0  0  0  0  0  0
   39.3170   25.7850   41.9780 C   0  0  0  0  0  3  0  0  0  0  0  0
   39.5170   25.6160   40.8840 H   0  0  0  0  0  0  0  0  0  0  0  0
   37.5990   27.7990   39.6780 N   0  0  0  0  0  0  0  0  0  0  0  0
   36.6640   27.4970   39.3820 H   0  0  0  0  0  0  0  0  0  0  0  0
   38.4620   27.3830   39.2210 H   0  0  0  0  0  0  0  0  0  0  0  0
   36.4990   27.6240   34.6720 N   0  0  0  0  0  0  0  0  0  0  0  0
   36.6260   26.6170   34.9890 H   0  0  0  0  0  0  0  0  0  0  0  0
   36.2520   27.9120   33.7010 H   0  0  0  0  0  0  0  0  0  0  0  0
  1  6  1  0  0  0  0
  2  1  2  0  0  0  0
  2  3  1  0  0  0  0
  3  4  2  0  0  0  0
  4  5  1  0  0  0  0
  5 21  1  0  0  0  0
  6  5  2  0  0  0  0
  7  3  1  0  0  0  0
  7  8  1  0  0  0  0
  8 14  1  0  0  0  0
  8 13  1  0  0  0  0
  9 16  1  0  0  0  0
  9  8  1  0  0  0  0
 10 18  1  0  0  0  0
 10  9  1  0  0  0  0
 11 10  1  0  0  0  0
 11  7  1  0  0  0  0
 12  1  1  0  0  0  0
 15  9  1  0  0  0  0
 17 10  1  0  0  0  0
 19 11  1  0  0  0  0
 20 11  1  0  0  0  0
 21 30  1  0  0  0  0
 22 21  2  0  0  0  0
 22 23  1  0  0  0  0
 23 24  2  0  0  0  0
 24 25  1  0  0  0  0
 25 26  1  0  0  0  0
 26 27  2  0  0  0  0
 26 32  1  0  0  0  0
 27 33  1  0  0  0  0
 28 34  1  0  0  0  0
 28 27  1  0  0  0  0
 29 28  2  0  0  0  0
 30 29  1  0  0  0  0
 30 25  2  0  0  0  0
 31 23  1  0  0  0  0
 34 35  1  0  0  0  0
 36 35  1  0  0  0  0
 36 37  1  0  0  0  0
 38 34  1  0  0  0  0
 38 37  1  0  0  0  0
 39 38  1  0  0  0  0
 40 29  1  0  0  0  0
 41 40  1  0  0  0  0
 42 40  1  0  0  0  0
 43 44  1  0  0  0  0
 43  2  1  0  0  0  0
 45 43  1  0  0  0  0
M  END
>  <minimizedAffinity>
-6.05732346

$$$$

 OpenBabel03252502103D

 45 49  0  0  0  0  0  0  0  0999 V2000
   37.8290   31.3810   38.5610 C   0  0  0  0  0  0  0  0  0  0  0  0
   39.1030   31.5260   38.0010 C   0  0  0  0  0  0  0  0  0  0  0  0
   40.1200   30.8520   38.6180 C   0  0  0  0  0  0  0  0  0  0  0  0
   39.8680   30.1030   39.6910 N   0  0  0  0  0  0  0  0  0  0  0  0
   38.6700   29.9530   40.2310 C   0  0  0  0  0  0  0  0  0  0  0  0
   37.6560   30.6090   39.6430 N   0  0  0  0  0  0  0  0  0  0  0  0
   41.4030   30.9710   38.1360 N   0  0  0  0  0  0  0  0  0  0  0  0
   42.6080   30.4290   38.8270 C   0  0  0  0  0  0  0  0  0  0  0  0
   43.7260   30.5150   37.8230 C   0  0  0  0  0  0  0  0  0  0  0  0
   43.3200   31.6810   36.9840 C   0  0  0  0  0  0  0  0  0  0  0  0
   41.8280   31.6190   36.9290 C   0  0  0  0  0  0  0  0  0  0  0  0
   36.9790   31.9050   38.1050 H   0  0  0  0  0  0  0  0  0  0  0  0
   42.7950   31.1090   39.7020 H   0  0  0  0  0  0  0  0  0  0  0  0
   42.4180   29.3810   39.1330 H   0  0  0  0  0  0  0  0  0  0  0  0
   43.7440   29.5990   37.1990 H   0  0  0  0  0  0  0  0  0  0  0  0
   44.6980   30.6730   38.3450 H   0  0  0  0  0  0  0  0  0  0  0  0
   43.7770   31.6470   35.9810 H   0  0  0  0  0  0  0  0  0  0  0  0
   43.7060   32.5910   37.4890 H   0  0  0  0  0  0  0  0  0  0  0  0
   41.4810   31.1530   35.9960 H   0  0  0  0  0  0  0  0  0  0  0  0
   41.5210   32.6870   36.9630 H   0  0  0  0  0  0  0  0  0  0  0  0
   38.1990   29.1480   41.3820 C   0  0  0  0  0  0  0  0  0  0  0  0
   38.1160   29.6080   42.6320 N   0  0  0  0  0  0  0  0  0  0  0  0
   37.6990   28.9110   43.6800 C   0  0  0  0  0  0  0  0  0  0  0  0
   37.3150   27.6260   43.5310 N   0  0  0  0  0  0  0  0  0  0  0  0
   37.3510   27.0420   42.3210 C   0  0  0  0  0  0  0  0  0  0  0  0
   36.9490   25.7290   42.1410 C   0  0  0  0  0  0  0  0  0  0  0  0
   36.9620   25.1320   40.9210 C   0  0  0  0  0  0  0  0  0  0  0  0
   37.3970   25.8810   39.8590 C   0  0  0  0  0  0  0  0  0  0  0  0
   37.7960   27.1970   40.0770 C   0  0  0  0  0  0  0  0  0  0  0  0
   37.7950   27.8230   41.2720 C   0  0  0  0  0  0  0  0  0  0  0  0
   37.6500   29.3360   44.6790 H   0  0  0  0  0  0  0  0  0  0  0  0
   36.6130   25.1680   43.0040 H   0  0  0  0  0  0  0  0  0  0  0  0
   36.6390   24.1150   40.8410 H   0  0  0  0  0  0  0  0  0  0  0  0
   37.3920   25.2240   38.5930 N   0  0  0  0  0  0  0  0  0  0  0  0
   36.4850   25.2130   37.4590 C   0  0  0  0  0  2  0  0  0  0  0  0
   37.3430   24.7180   36.3030 C   0  0  0  0  0  2  0  0  0  0  0  0
   38.1490   23.6450   37.0460 C   0  0  0  0  0  2  0  0  0  0  0  0
   38.5250   24.3530   38.3050 C   0  0  0  0  0  3  0  0  0  0  0  0
   39.4070   25.0010   38.0460 H   0  0  0  0  0  0  0  0  0  0  0  0
   38.2480   27.7990   38.8600 N   0  0  0  0  0  0  0  0  0  0  0  0
   37.8330   28.3700   38.1160 H   0  0  0  0  0  0  0  0  0  0  0  0
   39.2710   27.5190   38.8080 H   0  0  0  0  0  0  0  0  0  0  0  0
   39.2190   32.2830   36.8690 N   0  0  0  0  0  0  0  0  0  0  0  0
   39.2320   33.2720   37.2580 H   0  0  0  0  0  0  0  0  0  0  0  0
   39.2810   32.0440   35.8570 H   0  0  0  0  0  0  0  0  0  0  0  0
  1  6  1  0  0  0  0
  2  1  2  0  0  0  0
  2  3  1  0  0  0  0
  3  4  2  0  0  0  0
  4  5  1  0  0  0  0
  5 21  1  0  0  0  0
  6  5  2  0  0  0  0
  7  3  1  0  0  0  0
  7  8  1  0  0  0  0
  8 14  1  0  0  0  0
  8 13  1  0  0  0  0
  9 16  1  0  0  0  0
  9  8  1  0  0  0  0
 10 18  1  0  0  0  0
 10  9  1  0  0  0  0
 11 20  1  0  0  0  0
 11 10  1  0  0  0  0
 11  7  1  0  0  0  0
 12  1  1  0  0  0  0
 15  9  1  0  0  0  0
 17 10  1  0  0  0  0
 19 11  1  0  0  0  0
 21 22  1  0  0  0  0
 22 23  2  0  0  0  0
 23 31  1  0  0  0  0
 24 23  1  0  0  0  0
 25 24  2  0  0  0  0
 26 25  1  0  0  0  0
 26 32  1  0  0  0  0
 27 26  2  0  0  0  0
 28 29  2  0  0  0  0
 28 27  1  0  0  0  0
 29 30  1  0  0  0  0
 30 21  2  0  0  0  0
 30 25  1  0  0  0  0
 33 27  1  0  0  0  0
 34 28  1  0  0  0  0
 35 34  1  0  0  0  0
 36 37  1  0  0  0  0
 36 35  1  0  0  0  0
 37 38  1  0  0  0  0
 38 34  1  0  0  0  0
 39 38  1  0  0  0  0
 40 29  1  0  0  0  0
 41 40  1  0  0  0  0
 42 40  1  0  0  0  0
 43 44  1  0  0  0  0
 43  2  1  0  0  0  0
 45 43  1  0  0  0  0
M  END
>  <minimizedAffinity>
-5.96225882

$$$$

 OpenBabel03252502103D

 45 49  0  0  0  0  0  0  0  0999 V2000
   38.5420   28.8680   36.6520 C   0  0  0  0  0  0  0  0  0  0  0  0
   37.2740   28.9350   36.0630 C   0  0  0  0  0  0  0  0  0  0  0  0
   36.2110   29.0270   36.9160 C   0  0  0  0  0  0  0  0  0  0  0  0
   36.4140   29.0520   38.2340 N   0  0  0  0  0  0  0  0  0  0  0  0
   37.6040   28.9920   38.8060 C   0  0  0  0  0  0  0  0  0  0  0  0
   38.6650   28.8980   37.9850 N   0  0  0  0  0  0  0  0  0  0  0  0
   34.9340   29.0700   36.4060 N   0  0  0  0  0  0  0  0  0  0  0  0
   33.6990   28.9920   37.2390 C   0  0  0  0  0  0  0  0  0  0  0  0
   32.5670   29.3770   36.3250 C   0  0  0  0  0  0  0  0  0  0  0  0
   33.0700   28.9470   34.9870 C   0  0  0  0  0  0  0  0  0  0  0  0
   34.5450   29.1850   35.0310 C   0  0  0  0  0  0  0  0  0  0  0  0
   39.4300   28.7890   36.0090 H   0  0  0  0  0  0  0  0  0  0  0  0
   33.6120   27.9190   37.5640 H   0  0  0  0  0  0  0  0  0  0  0  0
   33.7860   29.6920   38.0940 H   0  0  0  0  0  0  0  0  0  0  0  0
   32.4330   30.4770   36.3340 H   0  0  0  0  0  0  0  0  0  0  0  0
   31.6340   28.8490   36.6290 H   0  0  0  0  0  0  0  0  0  0  0  0
   32.5820   29.4990   34.1660 H   0  0  0  0  0  0  0  0  0  0  0  0
   32.7980   27.8770   34.8690 H   0  0  0  0  0  0  0  0  0  0  0  0
   34.8110   30.1330   34.5420 H   0  0  0  0  0  0  0  0  0  0  0  0
   34.9640   28.3280   34.4620 H   0  0  0  0  0  0  0  0  0  0  0  0
   38.0220   29.0410   40.2260 C   0  0  0  0  0  0  0  0  0  0  0  0
   38.3520   30.1610   40.8710 N   0  0  0  0  0  0  0  0  0  0  0  0
   38.7300   30.2330   42.1400 C   0  0  0  0  0  0  0  0  0  0  0  0
   38.8060   29.1150   42.8890 N   0  0  0  0  0  0  0  0  0  0  0  0
   38.5000   27.9180   42.3590 C   0  0  0  0  0  0  0  0  0  0  0  0
   38.5570   26.7590   43.1130 C   0  0  0  0  0  0  0  0  0  0  0  0
   38.2330   25.5450   42.5950 C   0  0  0  0  0  0  0  0  0  0  0  0
   37.8440   25.5060   41.2810 C   0  0  0  0  0  0  0  0  0  0  0  0
   37.8010   26.6910   40.5520 C   0  0  0  0  0  0  0  0  0  0  0  0
   38.1140   27.9130   41.0330 C   0  0  0  0  0  0  0  0  0  0  0  0
   38.9870   31.1750   42.6170 H   0  0  0  0  0  0  0  0  0  0  0  0
   38.8700   26.8290   44.1470 H   0  0  0  0  0  0  0  0  0  0  0  0
   38.2950   24.6820   43.2250 H   0  0  0  0  0  0  0  0  0  0  0  0
   37.5060   24.2170   40.7730 N   0  0  0  0  0  0  0  0  0  0  0  0
   36.2600   23.5650   40.4090 C   0  0  0  0  0  2  0  0  0  0  0  0
   36.6910   22.4300   39.4910 C   0  0  0  0  0  2  0  0  0  0  0  0
   37.9580   21.9890   40.2350 C   0  0  0  0  0  2  0  0  0  0  0  0
   38.6110   23.2960   40.5400 C   0  0  0  0  0  3  0  0  0  0  0  0
   39.1360   23.6100   39.5960 H   0  0  0  0  0  0  0  0  0  0  0  0
   37.4100   26.4410   39.1990 N   0  0  0  0  0  0  0  0  0  0  0  0
   36.5320   26.4410   38.6680 H   0  0  0  0  0  0  0  0  0  0  0  0
   38.3240   26.2020   38.7150 H   0  0  0  0  0  0  0  0  0  0  0  0
   37.2060   28.9510   34.6980 N   0  0  0  0  0  0  0  0  0  0  0  0
   37.3100   27.9220   34.4530 H   0  0  0  0  0  0  0  0  0  0  0  0
   37.0880   29.7170   34.0000 H   0  0  0  0  0  0  0  0  0  0  0  0
  1  6  1  0  0  0  0
  2  1  2  0  0  0  0
  2  3  1  0  0  0  0
  3  4  2  0  0  0  0
  4  5  1  0  0  0  0
  5 21  1  0  0  0  0
  6  5  2  0  0  0  0
  7  3  1  0  0  0  0
  7  8  1  0  0  0  0
  8 13  1  0  0  0  0
  8 14  1  0  0  0  0
  9 15  1  0  0  0  0
  9 16  1  0  0  0  0
  9  8  1  0  0  0  0
 10 11  1  0  0  0  0
 10  9  1  0  0  0  0
 11  7  1  0  0  0  0
 12  1  1  0  0  0  0
 17 10  1  0  0  0  0
 18 10  1  0  0  0  0
 19 11  1  0  0  0  0
 20 11  1  0  0  0  0
 21 22  2  0  0  0  0
 21 30  1  0  0  0  0
 22 23  1  0  0  0  0
 23 31  1  0  0  0  0
 23 24  2  0  0  0  0
 25 24  1  0  0  0  0
 25 26  1  0  0  0  0
 26 32  1  0  0  0  0
 27 26  2  0  0  0  0
 27 33  1  0  0  0  0
 28 27  1  0  0  0  0
 29 30  1  0  0  0  0
 29 28  2  0  0  0  0
 30 25  2  0  0  0  0
 34 28  1  0  0  0  0
 35 34  1  0  0  0  0
 36 37  1  0  0  0  0
 36 35  1  0  0  0  0
 37 38  1  0  0  0  0
 38 34  1  0  0  0  0
 39 38  1  0  0  0  0
 40 29  1  0  0  0  0
 41 40  1  0  0  0  0
 42 40  1  0  0  0  0
 43  2  1  0  0  0  0
 44 43  1  0  0  0  0
 45 43  1  0  0  0  0
M  END
>  <minimizedAffinity>
-5.95110369

$$$$

 OpenBabel03252502103D

 45 49  0  0  0  0  0  0  0  0999 V2000
   38.0750   30.6280   38.1540 C   0  0  0  0  0  0  0  0  0  0  0  0
   39.1490   31.4930   37.9120 C   0  0  0  0  0  0  0  0  0  0  0  0
   40.0760   31.6070   38.9100 C   0  0  0  0  0  0  0  0  0  0  0  0
   39.9310   30.9100   40.0370 N   0  0  0  0  0  0  0  0  0  0  0  0
   38.9250   30.0870   40.2800 C   0  0  0  0  0  0  0  0  0  0  0  0
   37.9990   29.9620   39.3140 N   0  0  0  0  0  0  0  0  0  0  0  0
   41.1430   32.4600   38.7490 N   0  0  0  0  0  0  0  0  0  0  0  0
   42.1130   32.7960   39.8310 C   0  0  0  0  0  0  0  0  0  0  0  0
   43.2560   33.4990   39.1490 C   0  0  0  0  0  0  0  0  0  0  0  0
   42.5910   34.1360   37.9740 C   0  0  0  0  0  0  0  0  0  0  0  0
   41.5210   33.1750   37.5660 C   0  0  0  0  0  0  0  0  0  0  0  0
   37.3010   30.5040   37.3850 H   0  0  0  0  0  0  0  0  0  0  0  0
   41.5690   33.4900   40.5290 H   0  0  0  0  0  0  0  0  0  0  0  0
   42.4490   31.8640   40.3290 H   0  0  0  0  0  0  0  0  0  0  0  0
   43.9980   32.7550   38.7950 H   0  0  0  0  0  0  0  0  0  0  0  0
   43.7180   34.2400   39.8410 H   0  0  0  0  0  0  0  0  0  0  0  0
   43.3030   34.3400   37.1580 H   0  0  0  0  0  0  0  0  0  0  0  0
   42.1980   35.1150   38.3190 H   0  0  0  0  0  0  0  0  0  0  0  0
   41.8450   32.5520   36.7200 H   0  0  0  0  0  0  0  0  0  0  0  0
   40.6820   33.8360   37.2570 H   0  0  0  0  0  0  0  0  0  0  0  0
   38.6190   29.2170   41.4390 C   0  0  0  0  0  0  0  0  0  0  0  0
   37.8570   29.5850   42.4710 N   0  0  0  0  0  0  0  0  0  0  0  0
   37.5680   28.8280   43.5200 C   0  0  0  0  0  0  0  0  0  0  0  0
   38.0560   27.5730   43.6060 N   0  0  0  0  0  0  0  0  0  0  0  0
   38.8380   27.0790   42.6310 C   0  0  0  0  0  0  0  0  0  0  0  0
   39.3380   25.7890   42.6900 C   0  0  0  0  0  0  0  0  0  0  0  0
   40.1140   25.2710   41.7030 C   0  0  0  0  0  0  0  0  0  0  0  0
   40.3920   26.0790   40.6320 C   0  0  0  0  0  0  0  0  0  0  0  0
   39.8750   27.3710   40.6060 C   0  0  0  0  0  0  0  0  0  0  0  0
   39.1010   27.9190   41.5660 C   0  0  0  0  0  0  0  0  0  0  0  0
   36.9400   29.1790   44.3350 H   0  0  0  0  0  0  0  0  0  0  0  0
   39.0980   25.1810   43.5530 H   0  0  0  0  0  0  0  0  0  0  0  0
   40.4720   24.2670   41.8020 H   0  0  0  0  0  0  0  0  0  0  0  0
   41.2050   25.5000   39.6130 N   0  0  0  0  0  0  0  0  0  0  0  0
   40.9320   24.8870   38.3250 C   0  0  0  0  0  2  0  0  0  0  0  0
   42.2610   24.9690   37.5870 C   0  0  0  0  0  2  0  0  0  0  0  0
   43.2030   24.6450   38.7550 C   0  0  0  0  0  2  0  0  0  0  0  0
   42.6430   25.4920   39.8490 C   0  0  0  0  0  3  0  0  0  0  0  0
   43.0330   26.5310   39.6710 H   0  0  0  0  0  0  0  0  0  0  0  0
   40.3040   28.0670   39.4320 N   0  0  0  0  0  0  0  0  0  0  0  0
   39.9340   28.2290   38.4890 H   0  0  0  0  0  0  0  0  0  0  0  0
   41.2440   28.4720   39.7120 H   0  0  0  0  0  0  0  0  0  0  0  0
   39.2070   32.1100   36.6940 N   0  0  0  0  0  0  0  0  0  0  0  0
   38.5290   32.9200   36.8170 H   0  0  0  0  0  0  0  0  0  0  0  0
   39.7400   31.9120   35.8210 H   0  0  0  0  0  0  0  0  0  0  0  0
  1  6  1  0  0  0  0
  2  1  2  0  0  0  0
  2  3  1  0  0  0  0
  3  4  2  0  0  0  0
  4  5  1  0  0  0  0
  5 21  1  0  0  0  0
  6  5  2  0  0  0  0
  7  3  1  0  0  0  0
  7  8  1  0  0  0  0
  8 14  1  0  0  0  0
  8 13  1  0  0  0  0
  9  8  1  0  0  0  0
  9 16  1  0  0  0  0
 10 18  1  0  0  0  0
 10  9  1  0  0  0  0
 11 10  1  0  0  0  0
 11  7  1  0  0  0  0
 12  1  1  0  0  0  0
 15  9  1  0  0  0  0
 17 10  1  0  0  0  0
 19 11  1  0  0  0  0
 20 11  1  0  0  0  0
 21 30  2  0  0  0  0
 21 22  1  0  0  0  0
 22 23  2  0  0  0  0
 23 24  1  0  0  0  0
 23 31  1  0  0  0  0
 25 26  1  0  0  0  0
 25 24  2  0  0  0  0
 26 32  1  0  0  0  0
 27 33  1  0  0  0  0
 27 26  2  0  0  0  0
 28 27  1  0  0  0  0
 29 28  2  0  0  0  0
 29 30  1  0  0  0  0
 30 25  1  0  0  0  0
 34 38  1  0  0  0  0
 34 28  1  0  0  0  0
 35 34  1  0  0  0  0
 36 35  1  0  0  0  0
 36 37  1  0  0  0  0
 37 38  1  0  0  0  0
 39 38  1  0  0  0  0
 40 42  1  0  0  0  0
 40 29  1  0  0  0  0
 41 40  1  0  0  0  0
 43 44  1  0  0  0  0
 43  2  1  0  0  0  0
 45 43  1  0  0  0  0
M  END
>  <minimizedAffinity>
-5.82086563

$$$$

 OpenBabel03252502103D

 45 49  0  0  0  0  0  0  0  0999 V2000
   37.3180   26.6030   36.1660 C   0  0  0  0  0  0  0  0  0  0  0  0
   36.2440   27.3760   35.7090 C   0  0  0  0  0  0  0  0  0  0  0  0
   35.2560   27.6430   36.6150 C   0  0  0  0  0  0  0  0  0  0  0  0
   35.3500   27.1760   37.8600 N   0  0  0  0  0  0  0  0  0  0  0  0
   36.3580   26.4470   38.3090 C   0  0  0  0  0  0  0  0  0  0  0  0
   37.3400   26.1700   37.4330 N   0  0  0  0  0  0  0  0  0  0  0  0
   34.1590   28.3750   36.2250 N   0  0  0  0  0  0  0  0  0  0  0  0
   32.9460   28.5760   37.0700 C   0  0  0  0  0  0  0  0  0  0  0  0
   32.1540   29.6610   36.3930 C   0  0  0  0  0  0  0  0  0  0  0  0
   32.5290   29.4910   34.9590 C   0  0  0  0  0  0  0  0  0  0  0  0
   33.9600   29.0580   34.9800 C   0  0  0  0  0  0  0  0  0  0  0  0
   38.1360   26.3580   35.4760 H   0  0  0  0  0  0  0  0  0  0  0  0
   32.3920   27.5970   37.0530 H   0  0  0  0  0  0  0  0  0  0  0  0
   33.2540   28.8740   38.0920 H   0  0  0  0  0  0  0  0  0  0  0  0
   32.4940   30.6540   36.7490 H   0  0  0  0  0  0  0  0  0  0  0  0
   31.0650   29.5120   36.5780 H   0  0  0  0  0  0  0  0  0  0  0  0
   32.3820   30.4190   34.3810 H   0  0  0  0  0  0  0  0  0  0  0  0
   31.8430   28.7290   34.5340 H   0  0  0  0  0  0  0  0  0  0  0  0
   34.6360   29.9040   34.7920 H   0  0  0  0  0  0  0  0  0  0  0  0
   34.0220   28.3230   34.1490 H   0  0  0  0  0  0  0  0  0  0  0  0
   36.6480   25.8780   39.6450 C   0  0  0  0  0  0  0  0  0  0  0  0
   36.3280   24.6370   40.0150 N   0  0  0  0  0  0  0  0  0  0  0  0
   36.5750   24.1030   41.2040 C   0  0  0  0  0  0  0  0  0  0  0  0
   37.1970   24.8270   42.1560 N   0  0  0  0  0  0  0  0  0  0  0  0
   37.5730   26.0940   41.9110 C   0  0  0  0  0  0  0  0  0  0  0  0
   38.2270   26.8510   42.8680 C   0  0  0  0  0  0  0  0  0  0  0  0
   38.6290   28.1260   42.6280 C   0  0  0  0  0  0  0  0  0  0  0  0
   38.3610   28.6470   41.3890 C   0  0  0  0  0  0  0  0  0  0  0  0
   37.7000   27.8580   40.4510 C   0  0  0  0  0  0  0  0  0  0  0  0
   37.2870   26.5890   40.6540 C   0  0  0  0  0  0  0  0  0  0  0  0
   36.2920   23.0840   41.4530 H   0  0  0  0  0  0  0  0  0  0  0  0
   38.4200   26.4060   43.8370 H   0  0  0  0  0  0  0  0  0  0  0  0
   39.1310   28.6640   43.4050 H   0  0  0  0  0  0  0  0  0  0  0  0
   38.8030   29.9850   41.1700 N   0  0  0  0  0  0  0  0  0  0  0  0
   38.1330   31.2680   41.0550 C   0  0  0  0  0  2  0  0  0  0  0  0
   39.2300   32.2860   41.3370 C   0  0  0  0  0  2  0  0  0  0  0  0
   40.3840   31.6050   40.5900 C   0  0  0  0  0  2  0  0  0  0  0  0
   40.2390   30.1840   41.0230 C   0  0  0  0  0  3  0  0  0  0  0  0
   40.7080   30.1190   42.0430 H   0  0  0  0  0  0  0  0  0  0  0  0
   37.4800   28.5860   39.2390 N   0  0  0  0  0  0  0  0  0  0  0  0
   37.9680   28.7020   38.3450 H   0  0  0  0  0  0  0  0  0  0  0  0
   36.5680   29.0990   39.4190 H   0  0  0  0  0  0  0  0  0  0  0  0
   36.2930   27.8360   34.4220 N   0  0  0  0  0  0  0  0  0  0  0  0
   35.9730   26.9890   33.8660 H   0  0  0  0  0  0  0  0  0  0  0  0
   36.5610   28.7520   34.0040 H   0  0  0  0  0  0  0  0  0  0  0  0
  1  6  1  0  0  0  0
  2  1  2  0  0  0  0
  2  3  1  0  0  0  0
  3  4  2  0  0  0  0
  4  5  1  0  0  0  0
  5 21  1  0  0  0  0
  6  5  2  0  0  0  0
  7  3  1  0  0  0  0
  7  8  1  0  0  0  0
  8 14  1  0  0  0  0
  9 16  1  0  0  0  0
  9 15  1  0  0  0  0
  9  8  1  0  0  0  0
 10 11  1  0  0  0  0
 10  9  1  0  0  0  0
 11  7  1  0  0  0  0
 12  1  1  0  0  0  0
 13  8  1  0  0  0  0
 17 10  1  0  0  0  0
 18 10  1  0  0  0  0
 19 11  1  0  0  0  0
 20 11  1  0  0  0  0
 21 22  2  0  0  0  0
 21 30  1  0  0  0  0
 22 23  1  0  0  0  0
 23 31  1  0  0  0  0
 23 24  2  0  0  0  0
 25 24  1  0  0  0  0
 25 26  1  0  0  0  0
 26 32  1  0  0  0  0
 27 26  2  0  0  0  0
 27 33  1  0  0  0  0
 28 27  1  0  0  0  0
 29 30  1  0  0  0  0
 29 28  2  0  0  0  0
 30 25  2  0  0  0  0
 34 28  1  0  0  0  0
 35 34  1  0  0  0  0
 35 36  1  0  0  0  0
 37 38  1  0  0  0  0
 37 36  1  0  0  0  0
 38 34  1  0  0  0  0
 38 39  1  0  0  0  0
 40 42  1  0  0  0  0
 40 29  1  0  0  0  0
 41 40  1  0  0  0  0
 43  2  1  0  0  0  0
 44 43  1  0  0  0  0
 45 43  1  0  0  0  0
M  END
>  <minimizedAffinity>
-5.6596179

$$$$

 OpenBabel03252502103D

 45 49  0  0  0  0  0  0  0  0999 V2000
   37.2210   28.4270   38.9910 C   0  0  0  0  0  0  0  0  0  0  0  0
   37.6290   27.4280   39.8830 C   0  0  0  0  0  0  0  0  0  0  0  0
   38.5160   27.8020   40.8520 C   0  0  0  0  0  0  0  0  0  0  0  0
   38.9420   29.0630   40.9150 N   0  0  0  0  0  0  0  0  0  0  0  0
   38.5650   30.0200   40.0840 C   0  0  0  0  0  0  0  0  0  0  0  0
   37.6950   29.6740   39.1190 N   0  0  0  0  0  0  0  0  0  0  0  0
   38.9790   26.8640   41.7460 N   0  0  0  0  0  0  0  0  0  0  0  0
   40.0730   27.1150   42.7270 C   0  0  0  0  0  0  0  0  0  0  0  0
   40.0410   25.9490   43.6790 C   0  0  0  0  0  0  0  0  0  0  0  0
   39.5030   24.8490   42.8270 C   0  0  0  0  0  0  0  0  0  0  0  0
   38.5310   25.5110   41.9050 C   0  0  0  0  0  0  0  0  0  0  0  0
   36.5120   28.1770   38.1910 H   0  0  0  0  0  0  0  0  0  0  0  0
   41.0270   27.1250   42.1310 H   0  0  0  0  0  0  0  0  0  0  0  0
   39.8870   28.0730   43.2520 H   0  0  0  0  0  0  0  0  0  0  0  0
   39.3330   26.1580   44.5060 H   0  0  0  0  0  0  0  0  0  0  0  0
   41.0670   25.7400   44.0630 H   0  0  0  0  0  0  0  0  0  0  0  0
   39.0330   24.0540   43.4290 H   0  0  0  0  0  0  0  0  0  0  0  0
   40.3690   24.3940   42.3040 H   0  0  0  0  0  0  0  0  0  0  0  0
   37.4980   25.3940   42.2620 H   0  0  0  0  0  0  0  0  0  0  0  0
   38.6710   24.9680   40.9460 H   0  0  0  0  0  0  0  0  0  0  0  0
   38.8990   31.4610   40.0190 C   0  0  0  0  0  0  0  0  0  0  0  0
   38.1910   32.4210   40.6180 N   0  0  0  0  0  0  0  0  0  0  0  0
   38.4670   33.7170   40.5750 C   0  0  0  0  0  0  0  0  0  0  0  0
   39.5360   34.1610   39.8840 N   0  0  0  0  0  0  0  0  0  0  0  0
   40.3330   33.2960   39.2340 C   0  0  0  0  0  0  0  0  0  0  0  0
   41.4450   33.7270   38.5310 C   0  0  0  0  0  0  0  0  0  0  0  0
   42.2700   32.8620   37.8850 C   0  0  0  0  0  0  0  0  0  0  0  0
   41.9580   31.5280   37.9510 C   0  0  0  0  0  0  0  0  0  0  0  0
   40.8310   31.1310   38.6640 C   0  0  0  0  0  0  0  0  0  0  0  0
   39.9910   31.9600   39.3190 C   0  0  0  0  0  0  0  0  0  0  0  0
   37.8550   34.4580   41.0840 H   0  0  0  0  0  0  0  0  0  0  0  0
   41.6590   34.7880   38.5010 H   0  0  0  0  0  0  0  0  0  0  0  0
   43.1160   33.2510   37.3580 H   0  0  0  0  0  0  0  0  0  0  0  0
   42.8480   30.6500   37.2660 N   0  0  0  0  0  0  0  0  0  0  0  0
   42.8800   30.0750   35.9320 C   0  0  0  0  0  2  0  0  0  0  0  0
   44.3350   29.6690   35.7390 C   0  0  0  0  0  2  0  0  0  0  0  0
   44.6220   29.1330   37.1480 C   0  0  0  0  0  2  0  0  0  0  0  0
   44.0120   30.1860   38.0120 C   0  0  0  0  0  3  0  0  0  0  0  0
   44.7580   31.0260   38.0540 H   0  0  0  0  0  0  0  0  0  0  0  0
   40.6540   29.7130   38.5860 N   0  0  0  0  0  0  0  0  0  0  0  0
   40.9220   28.9000   39.1500 H   0  0  0  0  0  0  0  0  0  0  0  0
   40.1050   29.5800   37.6870 H   0  0  0  0  0  0  0  0  0  0  0  0
   37.0770   26.1850   39.7410 N   0  0  0  0  0  0  0  0  0  0  0  0
   37.6520   25.7710   38.9490 H   0  0  0  0  0  0  0  0  0  0  0  0
   36.3000   25.6920   40.2300 H   0  0  0  0  0  0  0  0  0  0  0  0
  1  6  2  0  0  0  0
  1  2  1  0  0  0  0
  2  3  2  0  0  0  0
  3  4  1  0  0  0  0
  3  7  1  0  0  0  0
  5  4  2  0  0  0  0
  6  5  1  0  0  0  0
  7 11  1  0  0  0  0
  7  8  1  0  0  0  0
  8 14  1  0  0  0  0
  8  9  1  0  0  0  0
  9 16  1  0  0  0  0
  9 15  1  0  0  0  0
 10 17  1  0  0  0  0
 10  9  1  0  0  0  0
 11 19  1  0  0  0  0
 11 10  1  0  0  0  0
 12  1  1  0  0  0  0
 13  8  1  0  0  0  0
 18 10  1  0  0  0  0
 20 11  1  0  0  0  0
 21  5  1  0  0  0  0
 21 22  1  0  0  0  0
 23 22  2  0  0  0  0
 23 31  1  0  0  0  0
 24 23  1  0  0  0  0
 25 30  1  0  0  0  0
 25 24  2  0  0  0  0
 26 25  1  0  0  0  0
 27 28  1  0  0  0  0
 27 26  2  0  0  0  0
 28 29  2  0  0  0  0
 29 30  1  0  0  0  0
 30 21  2  0  0  0  0
 32 26  1  0  0  0  0
 33 27  1  0  0  0  0
 34 28  1  0  0  0  0
 34 38  1  0  0  0  0
 35 34  1  0  0  0  0
 36 35  1  0  0  0  0
 36 37  1  0  0  0  0
 37 38  1  0  0  0  0
 38 39  1  0  0  0  0
 40 29  1  0  0  0  0
 40 41  1  0  0  0  0
 42 40  1  0  0  0  0
 43  2  1  0  0  0  0
 43 45  1  0  0  0  0
 44 43  1  0  0  0  0
M  END
>  <minimizedAffinity>
-5.64723158

$$$$
