
 OpenBabel03252506003D

 25 27  0  0  0  0  0  0  0  0999 V2000
   44.7920   36.3190   42.8990 Cl  0  0  0  0  0  0  0  0  0  0  0  0
   45.4050   35.1080   43.9660 C   0  0  0  0  0  0  0  0  0  0  0  0
   46.4440   34.3070   43.5840 C   0  0  0  0  0  0  0  0  0  0  0  0
   46.8830   33.3560   44.4970 C   0  0  0  0  0  0  0  0  0  0  0  0
   46.3300   33.1770   45.7590 C   0  0  0  0  0  0  0  0  0  0  0  0
   45.2890   33.9950   46.1110 C   0  0  0  0  0  0  0  0  0  0  0  0
   44.6160   33.7390   47.7120 Cl  0  0  0  0  0  0  0  0  0  0  0  0
   44.8360   34.9420   45.2300 C   0  0  0  0  0  0  0  0  0  0  0  0
   47.7200   32.7340   44.1500 H   0  0  0  0  0  0  0  0  0  0  0  0
   44.0070   35.5790   45.5370 H   0  0  0  0  0  0  0  0  0  0  0  0
   48.7650   35.3860   40.9630 C   0  0  0  0  0  0  0  0  0  0  0  0
   48.3170   34.6900   39.8360 C   0  0  0  0  0  0  0  0  0  0  0  0
   47.1990   33.8340   39.9720 C   0  0  0  0  0  0  0  0  0  0  0  0
   46.6420   33.7530   41.1970 N   0  0  0  0  0  0  0  0  0  0  0  0
   47.0860   34.4300   42.2710 C   0  0  0  0  0  0  0  0  0  0  0  0
   48.1500   35.2460   42.1470 N   0  0  0  0  0  0  0  0  0  0  0  0
   49.6210   36.0310   40.8210 H   0  0  0  0  0  0  0  0  0  0  0  0
   48.7500   34.7450   38.8540 H   0  0  0  0  0  0  0  0  0  0  0  0
   46.7550   33.2480   39.2030 H   0  0  0  0  0  0  0  0  0  0  0  0
   46.9220   32.1480   46.5420 N   0  0  0  0  0  0  0  0  0  0  0  0
   46.9770   30.7300   46.2230 C   0  0  0  0  0  0  0  0  0  0  0  0
   46.7380   30.0990   47.5770 C   0  0  0  0  0  0  0  0  0  0  0  0
   47.3390   31.0900   48.5460 C   0  0  0  0  0  0  0  0  0  0  0  0
   47.5800   32.3740   47.8150 C   0  0  0  0  0  0  0  0  0  0  0  0
   48.6700   32.5070   47.6110 H   0  0  0  0  0  0  0  0  0  0  0  0
  1  2  1  0  0  0  0
  2  8  1  0  0  0  0
  3  2  2  0  0  0  0
  3  4  1  0  0  0  0
  4  5  2  0  0  0  0
  5  6  1  0  0  0  0
  5 20  1  0  0  0  0
  6  7  1  0  0  0  0
  8 10  1  0  0  0  0
  8  6  2  0  0  0  0
  9  4  1  0  0  0  0
 11 16  1  0  0  0  0
 12 13  1  0  0  0  0
 12 11  2  0  0  0  0
 13 14  2  0  0  0  0
 14 15  1  0  0  0  0
 15  3  1  0  0  0  0
 16 15  2  0  0  0  0
 17 11  1  0  0  0  0
 18 12  1  0  0  0  0
 19 13  1  0  0  0  0
 20 24  1  0  0  0  0
 21 20  1  0  0  0  0
 21 22  1  0  0  0  0
 22 23  1  0  0  0  0
 24 23  1  0  0  0  0
 25 24  1  0  0  0  0
M  END
>  <minimizedAffinity>
-5.52246189

>  <minimizedRMSD>
0.776530266

$$$$
