
 OpenBabel03252505243D

 40 43  0  0  1  0  0  0  0  0999 V2000
   46.7880   33.4340   44.6020 F   0  0  0  0  0  0  0  0  0  0  0  0
   47.4320   32.2450   44.4080 C   0  0  0  0  0  0  0  0  0  0  0  0
   48.2490   32.1220   43.3020 C   0  0  0  0  0  0  0  0  0  0  0  0
   48.8840   30.9360   43.1200 C   0  0  0  0  0  0  0  0  0  0  0  0
   48.7070   29.9020   44.0200 C   0  0  0  0  0  0  0  0  0  0  0  0
   47.9010   30.0190   45.1140 C   0  0  0  0  0  0  0  0  0  0  0  0
   47.2460   31.2390   45.3040 C   0  0  0  0  0  0  0  0  0  0  0  0
   49.5350   30.7880   42.2690 H   0  0  0  0  0  0  0  0  0  0  0  0
   49.2210   28.9610   43.8610 H   0  0  0  0  0  0  0  0  0  0  0  0
   47.7820   29.1980   45.7990 H   0  0  0  0  0  0  0  0  0  0  0  0
   46.4180   31.3140   46.4570 N   0  0  0  0  0  0  0  0  0  0  0  0
   45.3590   30.4750   46.9230 C   0  0  0  0  0  0  0  0  0  0  0  0
   45.7210   30.2280   48.3910 C   0  0  0  0  0  0  0  0  0  0  0  0
   46.5980   31.4050   48.7340 C   0  0  0  0  0  0  0  0  0  0  0  0
   46.4050   32.3030   47.5410 C   0  0  2  0  0  0  0  0  0  0  0  0
   45.4440   29.4910   46.4080 H   0  0  0  0  0  0  0  0  0  0  0  0
   44.3490   30.9140   46.8250 H   0  0  0  0  0  0  0  0  0  0  0  0
   44.7900   30.3530   48.9680 H   0  0  0  0  0  0  0  0  0  0  0  0
   46.2080   29.2510   48.5250 H   0  0  0  0  0  0  0  0  0  0  0  0
   46.3060   31.8590   49.7000 H   0  0  0  0  0  0  0  0  0  0  0  0
   47.6250   31.0440   48.7670 H   0  0  0  0  0  0  0  0  0  0  0  0
   47.2910   32.9590   47.4070 H   0  0  0  0  0  0  0  0  0  0  0  0
   45.1650   33.1230   47.5850 C   0  0  0  0  0  0  0  0  0  0  0  0
   44.6940   33.0900   46.5770 H   0  0  0  0  0  0  0  0  0  0  0  0
   44.3800   32.6800   48.2610 H   0  0  0  0  0  0  0  0  0  0  0  0
   45.3460   34.1860   47.8190 H   0  0  0  0  0  0  0  0  0  0  0  0
   49.0640   35.4330   41.9710 C   0  0  0  0  0  0  0  0  0  0  0  0
   48.6810   35.3450   40.6100 C   0  0  0  0  0  0  0  0  0  0  0  0
   48.1530   34.1180   40.2220 C   0  0  0  0  0  0  0  0  0  0  0  0
   48.0310   33.1150   41.1110 N   0  0  0  0  0  0  0  0  0  0  0  0
   48.4030   33.2390   42.3830 C   0  0  0  0  0  0  0  0  0  0  0  0
   48.9130   34.3910   42.7980 N   0  0  0  0  0  0  0  0  0  0  0  0
   49.4790   36.3750   42.3040 H   0  0  0  0  0  0  0  0  0  0  0  0
   48.8240   36.2030   39.9990 H   0  0  0  0  0  0  0  0  0  0  0  0
   47.7560   33.9890   38.8600 N   0  0  0  0  0  0  0  0  0  0  0  0
   46.5830   33.2470   38.4370 C   0  0  0  0  0  0  0  0  0  0  0  0
   46.8560   32.8920   36.9700 C   0  0  0  0  0  0  0  0  0  0  0  0
   48.2810   33.3430   36.7240 C   0  0  0  0  0  0  0  0  0  0  0  0
   48.3820   34.5270   37.6660 C   0  0  0  0  0  0  0  0  0  0  0  0
   47.8560   35.4230   37.2790 H   0  0  0  0  0  0  0  0  0  0  0  0
  2  1  1  0  0  0  0
  2  7  1  0  0  0  0
  3  2  2  0  0  0  0
  4  3  1  0  0  0  0
  4  5  2  0  0  0  0
  5  6  1  0  0  0  0
  6  7  2  0  0  0  0
  6 10  1  0  0  0  0
  7 11  1  0  0  0  0
  8  4  1  0  0  0  0
  9  5  1  0  0  0  0
 11 12  1  0  0  0  0
 11 15  1  0  0  0  0
 12 13  1  0  0  0  0
 13 19  1  0  0  0  0
 13 14  1  0  0  0  0
 13 18  1  0  0  0  0
 14 21  1  0  0  0  0
 14 20  1  0  0  0  0
 15 22  1  6  0  0  0
 15 23  1  0  0  0  0
 15 14  1  0  0  0  0
 16 12  1  0  0  0  0
 17 12  1  0  0  0  0
 23 26  1  0  0  0  0
 23 25  1  0  0  0  0
 24 23  1  0  0  0  0
 27 33  1  0  0  0  0
 27 32  1  0  0  0  0
 28 27  2  0  0  0  0
 29 28  1  0  0  0  0
 29 30  2  0  0  0  0
 30 31  1  0  0  0  0
 31 32  2  0  0  0  0
 31  3  1  0  0  0  0
 34 28  1  0  0  0  0
 35 29  1  0  0  0  0
 36 35  1  0  0  0  0
 37 36  1  0  0  0  0
 38 37  1  0  0  0  0
 38 39  1  0  0  0  0
 39 35  1  0  0  0  0
 40 39  1  0  0  0  0
M  END
>  <minimizedAffinity>
-5.66871977

>  <minimizedRMSD>
1.12029874

$$$$
