
 OpenBabel03252509283D

 18 19  0  0  0  0  0  0  0  0999 V2000
   45.0430   35.0520   43.5140 C   0  0  0  0  0  0  0  0  0  0  0  0
   46.1390   35.2930   42.6600 C   0  0  0  0  0  0  0  0  0  0  0  0
   47.3200   34.6110   42.9050 C   0  0  0  0  0  0  0  0  0  0  0  0
   47.3640   33.7410   43.9580 N   0  0  0  0  0  0  0  0  0  0  0  0
   46.2830   33.5320   44.7630 C   0  0  0  0  0  0  0  0  0  0  0  0
   45.1390   34.1840   44.5380 N   0  0  0  0  0  0  0  0  0  0  0  0
   44.1250   35.5960   43.3060 H   0  0  0  0  0  0  0  0  0  0  0  0
   46.0900   35.9870   41.8280 H   0  0  0  0  0  0  0  0  0  0  0  0
   46.3650   32.8320   45.5880 H   0  0  0  0  0  0  0  0  0  0  0  0
   48.4550   34.8610   42.0220 C   0  0  0  0  0  0  0  0  0  0  0  0
   48.3620   35.8980   41.6470 H   0  0  0  0  0  0  0  0  0  0  0  0
   49.4000   34.7770   42.5950 H   0  0  0  0  0  0  0  0  0  0  0  0
   48.5560   33.9070   40.9370 N   0  0  0  0  0  0  0  0  0  0  0  0
   48.0270   32.6180   41.2150 C   0  0  0  0  0  3  0  0  0  0  0  0
   46.8860   32.3650   40.2610 C   0  0  0  0  0  3  0  0  0  0  0  0
   46.9510   33.4620   39.2370 C   0  0  0  0  0  2  0  0  0  0  0  0
   48.0270   34.3960   39.7140 C   0  0  0  0  0  3  0  0  0  0  0  0
   47.6600   35.4420   39.7640 H   0  0  0  0  0  0  0  0  0  0  0  0
  1  6  1  0  0  0  0
  2  3  1  0  0  0  0
  2  1  2  0  0  0  0
  3  4  2  0  0  0  0
  4  5  1  0  0  0  0
  5  9  1  0  0  0  0
  6  5  2  0  0  0  0
  7  1  1  0  0  0  0
  8  2  1  0  0  0  0
 10 12  1  0  0  0  0
 10  3  1  0  0  0  0
 11 10  1  0  0  0  0
 13 14  1  0  0  0  0
 13 10  1  0  0  0  0
 15 14  2  0  0  0  0
 16 17  1  0  0  0  0
 16 15  1  0  0  0  0
 17 18  1  0  0  0  0
 17 13  1  0  0  0  0
M  END
>  <minimizedAffinity>
-3.17750192

>  <minimizedRMSD>
3.16933823

$$$$
