
 OpenBabel03252501493D

 42 45  0  0  1  0  0  0  0  0999 V2000
   45.6780   34.8780   42.0850 C   0  0  0  0  0  0  0  0  0  0  0  0
   46.8290   34.7470   41.4190 C   0  0  0  0  0  0  0  0  0  0  0  0
   44.0660   33.5070   40.6510 C   0  0  0  0  0  0  0  0  0  0  0  0
   44.3730   34.6470   41.4240 C   0  0  0  0  0  0  0  0  0  0  0  0
   43.3920   35.6450   41.5950 C   0  0  0  0  0  0  0  0  0  0  0  0
   42.1790   35.4550   40.9950 N   0  0  0  0  0  0  0  0  0  0  0  0
   41.9360   34.3560   40.2700 C   0  0  0  0  0  0  0  0  0  0  0  0
   42.8750   33.4010   40.1080 N   0  0  0  0  0  0  0  0  0  0  0  0
   44.8730   32.7950   40.5730 H   0  0  0  0  0  0  0  0  0  0  0  0
   43.6160   36.5230   42.1850 H   0  0  0  0  0  0  0  0  0  0  0  0
   39.7060   33.5850   41.7150 F   0  0  0  0  0  0  0  0  0  0  0  0
   39.5270   33.8150   40.3960 C   0  0  0  0  0  0  0  0  0  0  0  0
   40.6220   34.2010   39.6490 C   0  0  0  0  0  0  0  0  0  0  0  0
   40.5350   34.4610   38.2800 C   0  0  0  0  0  0  0  0  0  0  0  0
   39.2880   34.3170   37.6800 C   0  0  0  0  0  0  0  0  0  0  0  0
   38.1650   33.9270   38.4140 C   0  0  0  0  0  0  0  0  0  0  0  0
   38.2970   33.6780   39.7730 C   0  0  0  0  0  0  0  0  0  0  0  0
   41.3960   34.7660   37.6870 H   0  0  0  0  0  0  0  0  0  0  0  0
   39.2360   34.5220   36.6190 H   0  0  0  0  0  0  0  0  0  0  0  0
   37.2270   33.8320   37.8950 H   0  0  0  0  0  0  0  0  0  0  0  0
   37.4620   33.3810   40.3600 H   0  0  0  0  0  0  0  0  0  0  0  0
   48.1450   34.9830   42.0960 C   0  0  0  0  0  0  0  0  0  0  0  0
   48.3950   36.0820   42.0340 H   0  0  0  0  0  0  0  0  0  0  0  0
   48.0420   34.7690   43.1710 H   0  0  0  0  0  0  0  0  0  0  0  0
   49.2020   34.1820   41.5680 N   0  0  0  0  0  0  0  0  0  0  0  0
   50.3540   34.2170   42.4000 C   0  0  0  0  0  0  0  0  0  0  0  0
   51.0150   32.8710   42.3620 C   0  0  0  0  0  0  0  0  0  0  0  0
   49.9050   31.9600   41.9110 C   0  0  0  0  0  0  0  0  0  0  0  0
   48.7970   32.8290   41.3960 C   0  0  2  0  0  0  0  0  0  0  0  0
   51.0840   34.9660   41.9830 H   0  0  0  0  0  0  0  0  0  0  0  0
   50.1390   34.5850   43.4370 H   0  0  0  0  0  0  0  0  0  0  0  0
   51.4130   32.5940   43.3660 H   0  0  0  0  0  0  0  0  0  0  0  0
   51.8800   32.8680   41.6740 H   0  0  0  0  0  0  0  0  0  0  0  0
   49.6010   31.2650   42.7200 H   0  0  0  0  0  0  0  0  0  0  0  0
   50.2980   31.3320   41.0880 H   0  0  0  0  0  0  0  0  0  0  0  0
   47.9100   32.6420   42.0400 H   0  0  0  0  0  0  0  0  0  0  0  0
   48.4070   32.5270   40.0450 N   0  0  1  0  0  0  0  0  0  0  0  0
   49.5000   32.1340   39.2010 C   0  0  0  0  0  0  0  0  0  0  0  0
   49.1630   30.8470   38.5250 C   0  0  0  0  0  0  0  0  0  0  0  0
   47.8930   30.3640   39.1740 C   0  0  0  0  0  0  0  0  0  0  0  0
   47.3850   31.5390   39.9690 C   0  0  0  0  0  0  0  0  0  0  0  0
   47.0000   31.1800   40.9470 H   0  0  0  0  0  0  0  0  0  0  0  0
  2  1  2  0  0  0  0
  2 22  1  0  0  0  0
  3  4  1  0  0  0  0
  4  5  2  0  0  0  0
  4  1  1  0  0  0  0
  5 10  1  0  0  0  0
  6  5  1  0  0  0  0
  7  6  2  0  0  0  0
  8  7  1  0  0  0  0
  8  3  2  0  0  0  0
  9  3  1  0  0  0  0
 12 11  1  0  0  0  0
 13  7  1  0  0  0  0
 13 12  2  0  0  0  0
 14 13  1  0  0  0  0
 15 14  2  0  0  0  0
 15 16  1  0  0  0  0
 16 17  2  0  0  0  0
 17 21  1  0  0  0  0
 17 12  1  0  0  0  0
 18 14  1  0  0  0  0
 19 15  1  0  0  0  0
 20 16  1  0  0  0  0
 22 24  1  0  0  0  0
 23 22  1  0  0  0  0
 25 22  1  0  0  0  0
 25 26  1  0  0  0  0
 26 31  1  0  0  0  0
 27 26  1  0  0  0  0
 27 32  1  0  0  0  0
 28 27  1  0  0  0  0
 28 34  1  0  0  0  0
 29 25  1  0  0  0  0
 29 28  1  0  0  0  0
 29 36  1  1  0  0  0
 30 26  1  0  0  0  0
 33 27  1  0  0  0  0
 35 28  1  0  0  0  0
 37 38  1  6  0  0  0
 37 29  1  0  0  0  0
 39 40  1  0  0  0  0
 39 38  1  0  0  0  0
 40 41  1  0  0  0  0
 41 37  1  0  0  0  0
 41 42  1  0  0  0  0
M  END
>  <minimizedAffinity>
-6.08596039

>  <minimizedRMSD>
0.708908975

$$$$
