
 OpenBabel03252509223D

 24 26  0  0  1  0  0  0  0  0999 V2000
   46.2070   34.7750   42.2280 C   0  0  1  0  0  0  0  0  0  0  0  0
   47.6240   35.3620   41.9810 C   0  0  0  0  0  0  0  0  0  0  0  0
   47.0800   34.0100   41.4140 C   0  0  2  0  0  0  0  0  0  0  0  0
   45.3910   35.4340   41.8920 H   0  0  0  0  0  0  0  0  0  0  0  0
   48.3820   35.2780   42.7550 H   0  0  0  0  0  0  0  0  0  0  0  0
   47.6110   36.2140   41.3100 H   0  0  0  0  0  0  0  0  0  0  0  0
   47.5640   33.1030   41.8940 H   0  0  0  0  0  0  0  0  0  0  0  0
   44.9320   34.4610   45.7450 C   0  0  0  0  0  0  0  0  0  0  0  0
   45.0270   34.9360   44.3940 C   0  0  0  0  0  0  0  0  0  0  0  0
   46.0690   34.3880   43.6920 C   0  0  0  0  0  0  0  0  0  0  0  0
   46.9470   33.4610   44.2560 N   0  0  0  0  0  0  0  0  0  0  0  0
   46.7930   33.0680   45.5230 C   0  0  0  0  0  0  0  0  0  0  0  0
   45.7780   33.5700   46.2800 N   0  0  0  0  0  0  0  0  0  0  0  0
   44.1370   34.8530   46.3440 H   0  0  0  0  0  0  0  0  0  0  0  0
   47.5670   32.3530   45.7670 H   0  0  0  0  0  0  0  0  0  0  0  0
   44.1440   35.8950   43.8440 N   0  0  0  0  0  0  0  0  0  0  0  0
   43.2580   35.7370   43.3250 H   0  0  0  0  0  0  0  0  0  0  0  0
   44.7380   36.7090   44.1730 H   0  0  0  0  0  0  0  0  0  0  0  0
   47.1210   33.9780   39.9900 N   0  0  1  0  0  0  0  0  0  0  0  0
   48.2430   33.1640   39.5730 C   0  0  0  0  0  2  0  0  0  0  0  0
   47.6880   31.7980   39.2440 C   0  0  0  0  0  2  0  0  0  0  0  0
   46.2470   31.8570   39.6840 C   0  0  0  0  0  2  0  0  0  0  0  0
   45.9470   33.3290   39.4270 C   0  0  0  0  0  3  0  0  0  0  0  0
   45.0200   33.6640   39.8890 H   0  0  0  0  0  0  0  0  0  0  0  0
  1  4  1  6  0  0  0
  1 10  1  0  0  0  0
  2  1  1  0  0  0  0
  2  5  1  0  0  0  0
  3  7  1  1  0  0  0
  3  2  1  0  0  0  0
  3  1  1  0  0  0  0
  6  2  1  0  0  0  0
  8 13  1  0  0  0  0
  8 14  1  0  0  0  0
  9  8  2  0  0  0  0
 10 11  2  0  0  0  0
 10  9  1  0  0  0  0
 11 12  1  0  0  0  0
 12 15  1  0  0  0  0
 12 13  2  0  0  0  0
 16 18  1  0  0  0  0
 16  9  1  0  0  0  0
 17 16  1  0  0  0  0
 19 20  1  1  0  0  0
 19  3  1  0  0  0  0
 21 20  1  0  0  0  0
 21 22  1  0  0  0  0
 23 22  1  0  0  0  0
 23 24  1  0  0  0  0
 23 19  1  0  0  0  0
M  END
>  <minimizedAffinity>
-4.1713748

>  <minimizedRMSD>
1.90347099

$$$$
