
 OpenBabel03252507423D

 28 30  0  0  0  0  0  0  0  0999 V2000
   46.6170   34.7680   42.1520 C   0  0  0  0  0  0  0  0  0  0  0  0
   46.7210   33.8700   42.7940 H   0  0  0  0  0  0  0  0  0  0  0  0
   46.9660   35.6200   42.7960 H   0  0  0  0  0  0  0  0  0  0  0  0
   45.1640   34.9150   41.8680 C   0  0  0  0  0  0  0  0  0  0  0  0
   44.2710   35.4440   42.8540 C   0  0  0  0  0  0  0  0  0  0  0  0
   42.6420   35.4070   42.0030 S   0  0  0  0  0  0  0  0  0  0  0  0
   43.4560   34.6750   40.4440 C   0  0  0  0  0  0  0  0  0  0  0  0
   44.5500   34.5990   40.7500 N   0  0  0  0  0  0  0  0  0  0  0  0
   44.5590   35.7690   43.8450 H   0  0  0  0  0  0  0  0  0  0  0  0
   42.7380   34.3480   39.2480 N   0  0  0  0  0  0  0  0  0  0  0  0
   42.3290   33.0690   38.6990 C   0  0  0  0  0  0  0  0  0  0  0  0
   40.9330   33.3410   38.1250 C   0  0  0  0  0  0  0  0  0  0  0  0
   40.7690   34.8590   38.2250 C   0  0  0  0  0  0  0  0  0  0  0  0
   42.2340   35.2910   38.2660 C   0  0  0  0  0  0  0  0  0  0  0  0
   42.3440   36.3340   38.6080 H   0  0  0  0  0  0  0  0  0  0  0  0
   47.4810   34.6160   40.9540 C   0  0  0  0  0  0  0  0  0  0  0  0
   46.9220   34.2320   40.1090 H   0  0  0  0  0  0  0  0  0  0  0  0
   47.8000   35.6580   40.6580 H   0  0  0  0  0  0  0  0  0  0  0  0
   48.7230   33.8520   41.1970 C   0  0  0  0  0  0  0  0  0  0  0  0
   48.9580   32.7280   40.3930 C   0  0  0  0  0  0  0  0  0  0  0  0
   50.1070   31.9850   40.5880 C   0  0  0  0  0  0  0  0  0  0  0  0
   50.9690   32.3860   41.5660 N   0  0  0  0  0  0  0  0  0  0  0  0
   50.7170   33.4720   42.3250 C   0  0  0  0  0  0  0  0  0  0  0  0
   49.6060   34.1850   42.1320 N   0  0  0  0  0  0  0  0  0  0  0  0
   50.3120   31.1080   39.9750 H   0  0  0  0  0  0  0  0  0  0  0  0
   51.4090   33.7800   43.1000 H   0  0  0  0  0  0  0  0  0  0  0  0
   47.7640   32.2710   39.1220 S   0  0  0  0  0  0  0  0  0  0  0  0
   47.9730   33.0220   37.9520 H   0  0  0  0  0  0  0  0  0  0  0  0
  1  2  1  0  0  0  0
  1  3  1  0  0  0  0
  4  1  1  0  0  0  0
  4  5  2  0  0  0  0
  5  9  1  0  0  0  0
  6  5  1  0  0  0  0
  7  8  2  0  0  0  0
  7  6  1  0  0  0  0
  8  4  1  0  0  0  0
 10  7  1  0  0  0  0
 11 10  1  0  0  0  0
 12 13  1  0  0  0  0
 12 11  1  0  0  0  0
 13 14  1  0  0  0  0
 14 15  1  0  0  0  0
 14 10  1  0  0  0  0
 16 19  1  0  0  0  0
 16  1  1  0  0  0  0
 17 16  1  0  0  0  0
 18 16  1  0  0  0  0
 19 24  1  0  0  0  0
 20 21  1  0  0  0  0
 20 19  2  0  0  0  0
 21 22  2  0  0  0  0
 22 23  1  0  0  0  0
 23 26  1  0  0  0  0
 24 23  2  0  0  0  0
 25 21  1  0  0  0  0
 27 20  1  0  0  0  0
 28 27  1  0  0  0  0
M  END
>  <minimizedAffinity>
-4.72803879

>  <minimizedRMSD>
1.41799259

$$$$
