
 OpenBabel03252505513D

 22 23  0  0  0  0  0  0  0  0999 V2000
   44.8380   35.1910   45.0390 C   0  0  0  0  0  0  0  0  0  0  0  0
   45.7370   34.7840   44.0360 C   0  0  0  0  0  0  0  0  0  0  0  0
   46.5290   33.6640   44.3100 C   0  0  0  0  0  0  0  0  0  0  0  0
   46.4040   33.0330   45.4950 N   0  0  0  0  0  0  0  0  0  0  0  0
   45.5380   33.4500   46.4240 C   0  0  0  0  0  0  0  0  0  0  0  0
   44.7560   34.5180   46.2100 N   0  0  0  0  0  0  0  0  0  0  0  0
   44.1850   36.0430   44.9210 H   0  0  0  0  0  0  0  0  0  0  0  0
   47.2070   33.3780   43.5220 H   0  0  0  0  0  0  0  0  0  0  0  0
   45.7650   35.5830   42.7690 C   0  0  0  0  0  0  0  0  0  0  0  0
   45.2830   36.8280   43.1180 F   0  0  0  0  0  0  0  0  0  0  0  0
   44.9350   34.9510   41.8750 F   0  0  0  0  0  0  0  0  0  0  0  0
   47.0670   35.6140   42.3220 F   0  0  0  0  0  0  0  0  0  0  0  0
   45.3930   32.8150   47.6510 O   0  0  0  0  0  0  0  0  0  0  0  0
   46.4820   32.3150   48.3750 C   0  0  0  0  0  0  0  0  0  0  0  0
   46.3910   32.7460   49.4130 H   0  0  0  0  0  0  0  0  0  0  0  0
   47.4560   32.6500   48.0050 H   0  0  0  0  0  0  0  0  0  0  0  0
   46.4040   30.8770   48.5390 N   0  0  0  0  0  0  0  0  0  0  0  0
   45.0410   30.3980   48.4950 C   0  0  0  0  0  0  0  0  0  0  0  0
   45.1790   28.9940   47.9430 C   0  0  0  0  0  0  0  0  0  0  0  0
   46.1520   29.2830   46.7920 C   0  0  0  0  0  0  0  0  0  0  0  0
   47.1480   30.1600   47.5550 C   0  0  0  0  0  0  0  0  0  0  0  0
   47.7140   30.7790   46.8620 H   0  0  0  0  0  0  0  0  0  0  0  0
  1  6  1  0  0  0  0
  2  3  1  0  0  0  0
  2  1  2  0  0  0  0
  3  4  2  0  0  0  0
  4  5  1  0  0  0  0
  5 13  1  0  0  0  0
  6  5  2  0  0  0  0
  7  1  1  0  0  0  0
  8  3  1  0  0  0  0
  9 10  1  0  0  0  0
  9  2  1  0  0  0  0
 11  9  1  0  0  0  0
 12  9  1  0  0  0  0
 13 14  1  0  0  0  0
 14 17  1  0  0  0  0
 14 15  1  0  0  0  0
 16 14  1  0  0  0  0
 18 17  1  0  0  0  0
 19 18  1  0  0  0  0
 20 21  1  0  0  0  0
 20 19  1  0  0  0  0
 21 17  1  0  0  0  0
 22 21  1  0  0  0  0
M  END
>  <minimizedAffinity>
-4.74224424

>  <minimizedRMSD>
1.24877882

$$$$
