
 OpenBabel03252509223D

 24 26  0  0  1  0  0  0  0  0999 V2000
   45.8720   34.5200   42.7160 C   0  0  1  0  0  0  0  0  0  0  0  0
   47.0290   35.5200   42.4440 C   0  0  0  0  0  0  0  0  0  0  0  0
   46.8460   34.1230   41.7660 C   0  0  2  0  0  0  0  0  0  0  0  0
   44.8720   34.9350   42.5110 H   0  0  0  0  0  0  0  0  0  0  0  0
   47.8490   35.5970   43.1520 H   0  0  0  0  0  0  0  0  0  0  0  0
   46.7060   36.3860   41.8760 H   0  0  0  0  0  0  0  0  0  0  0  0
   47.6150   33.3630   42.1070 H   0  0  0  0  0  0  0  0  0  0  0  0
   45.2770   33.8790   46.3670 C   0  0  0  0  0  0  0  0  0  0  0  0
   45.1410   34.4930   45.0770 C   0  0  0  0  0  0  0  0  0  0  0  0
   45.9930   33.9810   44.1330 C   0  0  0  0  0  0  0  0  0  0  0  0
   46.9020   32.9620   44.4180 N   0  0  0  0  0  0  0  0  0  0  0  0
   46.9690   32.4400   45.6460 C   0  0  0  0  0  0  0  0  0  0  0  0
   46.1510   32.8990   46.6340 N   0  0  0  0  0  0  0  0  0  0  0  0
   44.6370   34.2360   47.1460 H   0  0  0  0  0  0  0  0  0  0  0  0
   47.7290   31.6710   45.6610 H   0  0  0  0  0  0  0  0  0  0  0  0
   44.2310   35.5430   44.8090 N   0  0  0  0  0  0  0  0  0  0  0  0
   43.2540   35.4800   44.4610 H   0  0  0  0  0  0  0  0  0  0  0  0
   44.9260   36.2910   45.0940 H   0  0  0  0  0  0  0  0  0  0  0  0
   46.7580   34.2320   40.3470 N   0  0  1  0  0  0  0  0  0  0  0  0
   48.0640   33.9780   39.7770 C   0  0  0  0  0  2  0  0  0  0  0  0
   48.0650   32.5370   39.3230 C   0  0  0  0  0  2  0  0  0  0  0  0
   46.7680   31.9730   39.8460 C   0  0  0  0  0  2  0  0  0  0  0  0
   45.8880   33.2130   39.7790 C   0  0  0  0  0  3  0  0  0  0  0  0
   44.9540   33.1070   40.3260 H   0  0  0  0  0  0  0  0  0  0  0  0
  1  4  1  6  0  0  0
  1 10  1  0  0  0  0
  2  1  1  0  0  0  0
  2  5  1  0  0  0  0
  3  7  1  1  0  0  0
  3  2  1  0  0  0  0
  3  1  1  0  0  0  0
  6  2  1  0  0  0  0
  8 13  1  0  0  0  0
  8 14  1  0  0  0  0
  9  8  2  0  0  0  0
 10 11  2  0  0  0  0
 10  9  1  0  0  0  0
 11 12  1  0  0  0  0
 12 15  1  0  0  0  0
 12 13  2  0  0  0  0
 16  9  1  0  0  0  0
 16 18  1  0  0  0  0
 17 16  1  0  0  0  0
 19 20  1  6  0  0  0
 19  3  1  0  0  0  0
 21 20  1  0  0  0  0
 21 22  1  0  0  0  0
 23 22  1  0  0  0  0
 23 24  1  0  0  0  0
 23 19  1  0  0  0  0
M  END
>  <minimizedAffinity>
-3.94593167

>  <minimizedRMSD>
2.09877348

$$$$
