
 OpenBabel03252509223D

 24 26  0  0  1  0  0  0  0  0999 V2000
   46.5760   34.9700   41.9550 C   0  0  1  0  0  0  0  0  0  0  0  0
   48.0720   35.3860   41.9970 C   0  0  0  0  0  0  0  0  0  0  0  0
   47.5150   34.0160   41.4890 C   0  0  2  0  0  0  0  0  0  0  0  0
   45.9490   35.6390   41.3460 H   0  0  0  0  0  0  0  0  0  0  0  0
   48.6120   35.3560   42.9390 H   0  0  0  0  0  0  0  0  0  0  0  0
   48.3210   36.1230   41.2410 H   0  0  0  0  0  0  0  0  0  0  0  0
   47.7590   33.1550   42.1850 H   0  0  0  0  0  0  0  0  0  0  0  0
   44.6140   35.4640   45.1170 C   0  0  0  0  0  0  0  0  0  0  0  0
   45.1000   35.7180   43.7910 C   0  0  0  0  0  0  0  0  0  0  0  0
   46.0530   34.8250   43.3760 C   0  0  0  0  0  0  0  0  0  0  0  0
   46.4990   33.7760   44.1810 N   0  0  0  0  0  0  0  0  0  0  0  0
   45.9970   33.6050   45.4070 C   0  0  0  0  0  0  0  0  0  0  0  0
   45.0450   34.4530   45.8850 N   0  0  0  0  0  0  0  0  0  0  0  0
   43.8660   36.1280   45.4970 H   0  0  0  0  0  0  0  0  0  0  0  0
   46.4680   32.7450   45.8640 H   0  0  0  0  0  0  0  0  0  0  0  0
   44.6560   36.8010   42.9950 N   0  0  0  0  0  0  0  0  0  0  0  0
   43.8800   36.8210   42.3050 H   0  0  0  0  0  0  0  0  0  0  0  0
   45.3850   37.4610   43.3910 H   0  0  0  0  0  0  0  0  0  0  0  0
   47.8850   33.7630   40.1350 N   0  0  1  0  0  0  0  0  0  0  0  0
   48.7760   32.6220   40.0980 C   0  0  0  0  0  2  0  0  0  0  0  0
   47.9310   31.4250   39.7310 C   0  0  0  0  0  2  0  0  0  0  0  0
   46.5130   31.9370   39.7570 C   0  0  0  0  0  2  0  0  0  0  0  0
   46.7390   33.3800   39.3230 C   0  0  0  0  0  3  0  0  0  0  0  0
   45.8740   34.0180   39.4900 H   0  0  0  0  0  0  0  0  0  0  0  0
  1  4  1  6  0  0  0
  1  2  1  0  0  0  0
  1 10  1  0  0  0  0
  2  5  1  0  0  0  0
  3  1  1  0  0  0  0
  3  2  1  0  0  0  0
  3  7  1  1  0  0  0
  6  2  1  0  0  0  0
  8 14  1  0  0  0  0
  8 13  1  0  0  0  0
  9  8  2  0  0  0  0
 10  9  1  0  0  0  0
 10 11  2  0  0  0  0
 11 12  1  0  0  0  0
 12 15  1  0  0  0  0
 12 13  2  0  0  0  0
 16 18  1  0  0  0  0
 16  9  1  0  0  0  0
 17 16  1  0  0  0  0
 19 20  1  1  0  0  0
 19  3  1  0  0  0  0
 21 22  1  0  0  0  0
 21 20  1  0  0  0  0
 23 24  1  0  0  0  0
 23 22  1  0  0  0  0
 23 19  1  0  0  0  0
M  END
>  <minimizedAffinity>
-4.45991421

>  <minimizedRMSD>
0.777952075

$$$$
