
 OpenBabel03242521503D

 17 18  0  0  0  0  0  0  0  0999 V2000
   37.0640   30.1030   38.3110 C   0  0  0  0  0  0  0  0  0  0  0  0
   37.0080   31.4700   38.6310 C   0  0  0  0  0  0  0  0  0  0  0  0
   37.1530   31.8330   39.9660 C   0  0  0  0  0  0  0  0  0  0  0  0
   37.3410   30.8410   40.8880 N   0  0  0  0  0  0  0  0  0  0  0  0
   37.3880   29.5500   40.5390 C   0  0  0  0  0  0  0  0  0  0  0  0
   37.2520   29.1750   39.2710 N   0  0  0  0  0  0  0  0  0  0  0  0
   36.9490   29.8640   37.2770 H   0  0  0  0  0  0  0  0  0  0  0  0
   36.8600   32.1940   37.8670 H   0  0  0  0  0  0  0  0  0  0  0  0
   37.5890   28.6050   41.5880 N   0  0  0  0  0  0  0  0  0  0  0  0
   37.9730   27.2170   41.4030 C   0  0  0  0  0  2  0  0  0  0  0  0
   37.5060   26.4930   42.6700 C   0  0  0  0  0  2  0  0  0  0  0  0
   36.5760   27.5270   43.2610 C   0  0  0  0  0  2  0  0  0  0  0  0
   37.4740   28.7520   43.0310 C   0  0  0  0  0  3  0  0  0  0  0  0
   38.4500   28.5610   43.4990 H   0  0  0  0  0  0  0  0  0  0  0  0
   37.1050   33.1850   40.3380 N   0  0  0  0  0  0  0  0  0  0  0  0
   38.0280   33.5950   40.0730 H   0  0  0  0  0  0  0  0  0  0  0  0
   36.2900   33.6850   40.7960 H   0  0  0  0  0  0  0  0  0  0  0  0
  1  2  2  0  0  0  0
  1  6  1  0  0  0  0
  2  3  1  0  0  0  0
  3 15  1  0  0  0  0
  3  4  2  0  0  0  0
  5  4  1  0  0  0  0
  5  9  1  0  0  0  0
  6  5  2  0  0  0  0
  7  1  1  0  0  0  0
  8  2  1  0  0  0  0
  9 13  1  0  0  0  0
 10  9  1  0  0  0  0
 10 11  1  0  0  0  0
 11 12  1  0  0  0  0
 13 12  1  0  0  0  0
 13 14  1  0  0  0  0
 15 17  1  0  0  0  0
 16 15  1  0  0  0  0
M  END
>  <minimizedAffinity>
-4.45027876

$$$$

 OpenBabel03242521503D

 17 18  0  0  0  0  0  0  0  0999 V2000
   39.6530   31.9790   41.4080 C   0  0  0  0  0  0  0  0  0  0  0  0
   38.9350   32.9780   40.7280 C   0  0  0  0  0  0  0  0  0  0  0  0
   37.6230   32.6990   40.3590 C   0  0  0  0  0  0  0  0  0  0  0  0
   37.1080   31.4730   40.6780 N   0  0  0  0  0  0  0  0  0  0  0  0
   37.8300   30.5500   41.3260 C   0  0  0  0  0  0  0  0  0  0  0  0
   39.0840   30.7900   41.6900 N   0  0  0  0  0  0  0  0  0  0  0  0
   40.6560   32.2290   41.6750 H   0  0  0  0  0  0  0  0  0  0  0  0
   39.3910   33.9120   40.5100 H   0  0  0  0  0  0  0  0  0  0  0  0
   37.1860   29.3090   41.6040 N   0  0  0  0  0  0  0  0  0  0  0  0
   37.6630   28.3100   42.5440 C   0  0  0  0  0  2  0  0  0  0  0  0
   37.0340   26.9890   42.0900 C   0  0  0  0  0  2  0  0  0  0  0  0
   36.5600   27.3630   40.7050 C   0  0  0  0  0  2  0  0  0  0  0  0
   35.9640   28.7320   41.0640 C   0  0  0  0  0  3  0  0  0  0  0  0
   35.2350   28.5920   41.8750 H   0  0  0  0  0  0  0  0  0  0  0  0
   36.8630   33.6630   39.6790 N   0  0  0  0  0  0  0  0  0  0  0  0
   36.5670   34.3630   40.3960 H   0  0  0  0  0  0  0  0  0  0  0  0
   36.6380   33.6730   38.6440 H   0  0  0  0  0  0  0  0  0  0  0  0
  1  7  1  0  0  0  0
  1  6  1  0  0  0  0
  2  1  2  0  0  0  0
  3  4  2  0  0  0  0
  3  2  1  0  0  0  0
  4  5  1  0  0  0  0
  5  9  1  0  0  0  0
  5  6  2  0  0  0  0
  8  2  1  0  0  0  0
  9 10  1  0  0  0  0
 11 10  1  0  0  0  0
 12 13  1  0  0  0  0
 12 11  1  0  0  0  0
 13  9  1  0  0  0  0
 13 14  1  0  0  0  0
 15  3  1  0  0  0  0
 15 16  1  0  0  0  0
 17 15  1  0  0  0  0
M  END
>  <minimizedAffinity>
-4.33393764

$$$$

 OpenBabel03242521503D

 17 18  0  0  0  0  0  0  0  0999 V2000
   36.6710   28.9360   38.4390 C   0  0  0  0  0  0  0  0  0  0  0  0
   36.1670   30.0130   39.1870 C   0  0  0  0  0  0  0  0  0  0  0  0
   36.1330   29.8840   40.5720 C   0  0  0  0  0  0  0  0  0  0  0  0
   36.5910   28.7200   41.1240 N   0  0  0  0  0  0  0  0  0  0  0  0
   37.0620   27.7180   40.3720 C   0  0  0  0  0  0  0  0  0  0  0  0
   37.1060   27.8140   39.0480 N   0  0  0  0  0  0  0  0  0  0  0  0
   36.6820   29.0710   37.3800 H   0  0  0  0  0  0  0  0  0  0  0  0
   35.8270   30.8930   38.6980 H   0  0  0  0  0  0  0  0  0  0  0  0
   37.5110   26.5530   41.0600 N   0  0  0  0  0  0  0  0  0  0  0  0
   38.3260   25.5000   40.4800 C   0  0  0  0  0  2  0  0  0  0  0  0
   38.0640   24.2610   41.3420 C   0  0  0  0  0  2  0  0  0  0  0  0
   36.8280   24.6960   42.0950 C   0  0  0  0  0  2  0  0  0  0  0  0
   37.2960   26.1190   42.4320 C   0  0  0  0  0  3  0  0  0  0  0  0
   38.2620   26.0540   42.9530 H   0  0  0  0  0  0  0  0  0  0  0  0
   35.6400   30.9320   41.3650 N   0  0  0  0  0  0  0  0  0  0  0  0
   36.3930   31.6540   41.3980 H   0  0  0  0  0  0  0  0  0  0  0  0
   34.6900   30.9750   41.8320 H   0  0  0  0  0  0  0  0  0  0  0  0
  1  6  2  0  0  0  0
  1  2  1  0  0  0  0
  2  3  2  0  0  0  0
  3  4  1  0  0  0  0
  3 15  1  0  0  0  0
  5  9  1  0  0  0  0
  5  4  2  0  0  0  0
  6  5  1  0  0  0  0
  7  1  1  0  0  0  0
  8  2  1  0  0  0  0
  9 13  1  0  0  0  0
 10  9  1  0  0  0  0
 10 11  1  0  0  0  0
 11 12  1  0  0  0  0
 12 13  1  0  0  0  0
 13 14  1  0  0  0  0
 15 16  1  0  0  0  0
 15 17  1  0  0  0  0
M  END
>  <minimizedAffinity>
-4.17866659

$$$$

 OpenBabel03242521503D

 17 18  0  0  0  0  0  0  0  0999 V2000
   41.8220   30.6600   37.3930 C   0  0  0  0  0  0  0  0  0  0  0  0
   42.5300   31.7560   36.8720 C   0  0  0  0  0  0  0  0  0  0  0  0
   42.1180   33.0330   37.2430 C   0  0  0  0  0  0  0  0  0  0  0  0
   41.0520   33.1470   38.0900 N   0  0  0  0  0  0  0  0  0  0  0  0
   40.4060   32.0730   38.5630 C   0  0  0  0  0  0  0  0  0  0  0  0
   40.7770   30.8430   38.2250 N   0  0  0  0  0  0  0  0  0  0  0  0
   42.1680   29.6970   37.0870 H   0  0  0  0  0  0  0  0  0  0  0  0
   43.3520   31.6010   36.2180 H   0  0  0  0  0  0  0  0  0  0  0  0
   39.3080   32.3170   39.4390 N   0  0  0  0  0  0  0  0  0  0  0  0
   38.6800   31.3220   40.2910 C   0  0  0  0  0  2  0  0  0  0  0  0
   37.2700   31.8550   40.5670 C   0  0  0  0  0  2  0  0  0  0  0  0
   37.1630   32.9320   39.5130 C   0  0  0  0  0  2  0  0  0  0  0  0
   38.5610   33.5370   39.7080 C   0  0  0  0  0  3  0  0  0  0  0  0
   38.6760   33.8120   40.7660 H   0  0  0  0  0  0  0  0  0  0  0  0
   42.7920   34.1610   36.7510 N   0  0  0  0  0  0  0  0  0  0  0  0
   43.6800   34.2330   37.2950 H   0  0  0  0  0  0  0  0  0  0  0  0
   42.4600   34.8060   35.9780 H   0  0  0  0  0  0  0  0  0  0  0  0
  1  6  1  0  0  0  0
  2  3  1  0  0  0  0
  2  1  2  0  0  0  0
  3  4  2  0  0  0  0
  4  5  1  0  0  0  0
  5  9  1  0  0  0  0
  6  5  2  0  0  0  0
  7  1  1  0  0  0  0
  8  2  1  0  0  0  0
  9 13  1  0  0  0  0
  9 10  1  0  0  0  0
 10 11  1  0  0  0  0
 12 13  1  0  0  0  0
 12 11  1  0  0  0  0
 13 14  1  0  0  0  0
 15  3  1  0  0  0  0
 15 16  1  0  0  0  0
 17 15  1  0  0  0  0
M  END
>  <minimizedAffinity>
-4.15341234

$$$$

 OpenBabel03242521503D

 17 18  0  0  0  0  0  0  0  0999 V2000
   39.8490   30.8590   39.5060 C   0  0  0  0  0  0  0  0  0  0  0  0
   38.8880   31.8780   39.3950 C   0  0  0  0  0  0  0  0  0  0  0  0
   37.8770   31.9260   40.3490 C   0  0  0  0  0  0  0  0  0  0  0  0
   37.8760   30.9820   41.3380 N   0  0  0  0  0  0  0  0  0  0  0  0
   38.8130   30.0270   41.4050 C   0  0  0  0  0  0  0  0  0  0  0  0
   39.7890   29.9580   40.5070 N   0  0  0  0  0  0  0  0  0  0  0  0
   40.6090   30.8550   38.7560 H   0  0  0  0  0  0  0  0  0  0  0  0
   38.9440   32.5830   38.6020 H   0  0  0  0  0  0  0  0  0  0  0  0
   38.7090   29.0980   42.4810 N   0  0  0  0  0  0  0  0  0  0  0  0
   39.7620   28.1970   42.9140 C   0  0  0  0  0  2  0  0  0  0  0  0
   39.0470   27.0530   43.6410 C   0  0  0  0  0  2  0  0  0  0  0  0
   37.6210   27.2840   43.1970 C   0  0  0  0  0  2  0  0  0  0  0  0
   37.6020   28.8080   43.3810 C   0  0  0  0  0  3  0  0  0  0  0  0
   37.9000   29.0380   44.4140 H   0  0  0  0  0  0  0  0  0  0  0  0
   36.8930   32.9250   40.2830 N   0  0  0  0  0  0  0  0  0  0  0  0
   37.3390   33.8000   40.6360 H   0  0  0  0  0  0  0  0  0  0  0  0
   35.8970   32.8060   39.9400 H   0  0  0  0  0  0  0  0  0  0  0  0
  1  6  1  0  0  0  0
  2  1  2  0  0  0  0
  2  3  1  0  0  0  0
  3  4  2  0  0  0  0
  4  5  1  0  0  0  0
  5  9  1  0  0  0  0
  6  5  2  0  0  0  0
  7  1  1  0  0  0  0
  8  2  1  0  0  0  0
  9 10  1  0  0  0  0
  9 13  1  0  0  0  0
 10 11  1  0  0  0  0
 12 13  1  0  0  0  0
 12 11  1  0  0  0  0
 13 14  1  0  0  0  0
 15  3  1  0  0  0  0
 15 16  1  0  0  0  0
 17 15  1  0  0  0  0
M  END
>  <minimizedAffinity>
-4.12354803

$$$$

 OpenBabel03242521503D

 17 18  0  0  0  0  0  0  0  0999 V2000
   38.4780   29.9100   42.0240 C   0  0  0  0  0  0  0  0  0  0  0  0
   37.2070   30.1750   41.4880 C   0  0  0  0  0  0  0  0  0  0  0  0
   36.3310   29.1070   41.3280 C   0  0  0  0  0  0  0  0  0  0  0  0
   36.7570   27.8620   41.7010 N   0  0  0  0  0  0  0  0  0  0  0  0
   37.9790   27.6540   42.2070 C   0  0  0  0  0  0  0  0  0  0  0  0
   38.8350   28.6570   42.3700 N   0  0  0  0  0  0  0  0  0  0  0  0
   39.1220   30.7550   42.1320 H   0  0  0  0  0  0  0  0  0  0  0  0
   36.9350   31.1670   41.2180 H   0  0  0  0  0  0  0  0  0  0  0  0
   38.3100   26.3130   42.5590 N   0  0  0  0  0  0  0  0  0  0  0  0
   39.4330   25.9190   43.3910 C   0  0  0  0  0  2  0  0  0  0  0  0
   39.7260   24.4620   43.0180 C   0  0  0  0  0  2  0  0  0  0  0  0
   38.9390   24.3360   41.7340 C   0  0  0  0  0  2  0  0  0  0  0  0
   37.6680   25.0540   42.2110 C   0  0  0  0  0  3  0  0  0  0  0  0
   37.3110   24.5590   43.1250 H   0  0  0  0  0  0  0  0  0  0  0  0
   35.0490   29.3190   40.7980 N   0  0  0  0  0  0  0  0  0  0  0  0
   34.4800   29.7380   41.5660 H   0  0  0  0  0  0  0  0  0  0  0  0
   34.7310   29.0970   39.8120 H   0  0  0  0  0  0  0  0  0  0  0  0
  1  7  1  0  0  0  0
  1  6  1  0  0  0  0
  2  1  2  0  0  0  0
  3  2  1  0  0  0  0
  3  4  2  0  0  0  0
  4  5  1  0  0  0  0
  5  6  2  0  0  0  0
  5  9  1  0  0  0  0
  8  2  1  0  0  0  0
  9 10  1  0  0  0  0
 11 10  1  0  0  0  0
 12 13  1  0  0  0  0
 12 11  1  0  0  0  0
 13  9  1  0  0  0  0
 13 14  1  0  0  0  0
 15  3  1  0  0  0  0
 15 16  1  0  0  0  0
 17 15  1  0  0  0  0
M  END
>  <minimizedAffinity>
-4.05274296

$$$$

 OpenBabel03242521503D

 17 18  0  0  0  0  0  0  0  0999 V2000
   38.3640   28.2490   43.2710 C   0  0  0  0  0  0  0  0  0  0  0  0
   37.5620   29.2870   42.7680 C   0  0  0  0  0  0  0  0  0  0  0  0
   36.6450   28.9760   41.7700 C   0  0  0  0  0  0  0  0  0  0  0  0
   36.5760   27.6810   41.3370 N   0  0  0  0  0  0  0  0  0  0  0  0
   37.3620   26.7220   41.8440 C   0  0  0  0  0  0  0  0  0  0  0  0
   38.2460   26.9920   42.7980 N   0  0  0  0  0  0  0  0  0  0  0  0
   39.0560   28.5260   44.0360 H   0  0  0  0  0  0  0  0  0  0  0  0
   37.6630   30.2740   43.1480 H   0  0  0  0  0  0  0  0  0  0  0  0
   37.2000   25.4090   41.3130 N   0  0  0  0  0  0  0  0  0  0  0  0
   37.7130   24.1930   41.9180 C   0  0  0  0  0  2  0  0  0  0  0  0
   37.8190   23.1810   40.7720 C   0  0  0  0  0  2  0  0  0  0  0  0
   37.6890   24.0950   39.5750 C   0  0  0  0  0  2  0  0  0  0  0  0
   36.5290   24.9490   40.1070 C   0  0  0  0  0  3  0  0  0  0  0  0
   35.7000   24.2800   40.3790 H   0  0  0  0  0  0  0  0  0  0  0  0
   35.8200   29.9760   41.2340 N   0  0  0  0  0  0  0  0  0  0  0  0
   35.0710   30.1480   41.9410 H   0  0  0  0  0  0  0  0  0  0  0  0
   35.9400   30.4580   40.2980 H   0  0  0  0  0  0  0  0  0  0  0  0
  1  7  1  0  0  0  0
  2  8  1  0  0  0  0
  2  1  2  0  0  0  0
  3  2  1  0  0  0  0
  4  3  2  0  0  0  0
  4  5  1  0  0  0  0
  5  6  2  0  0  0  0
  6  1  1  0  0  0  0
  9  5  1  0  0  0  0
  9 10  1  0  0  0  0
 11 10  1  0  0  0  0
 12 13  1  0  0  0  0
 12 11  1  0  0  0  0
 13 14  1  0  0  0  0
 13  9  1  0  0  0  0
 15  3  1  0  0  0  0
 15 16  1  0  0  0  0
 17 15  1  0  0  0  0
M  END
>  <minimizedAffinity>
-3.97083497

$$$$

 OpenBabel03242521503D

 17 18  0  0  0  0  0  0  0  0999 V2000
   37.2830   30.4110   38.0220 C   0  0  0  0  0  0  0  0  0  0  0  0
   36.3400   30.3440   39.0620 C   0  0  0  0  0  0  0  0  0  0  0  0
   36.6180   31.0310   40.2390 C   0  0  0  0  0  0  0  0  0  0  0  0
   37.7890   31.7310   40.3160 N   0  0  0  0  0  0  0  0  0  0  0  0
   38.6610   31.7670   39.3010 C   0  0  0  0  0  0  0  0  0  0  0  0
   38.4210   31.1200   38.1660 N   0  0  0  0  0  0  0  0  0  0  0  0
   37.0350   29.8710   37.1350 H   0  0  0  0  0  0  0  0  0  0  0  0
   35.4470   29.7820   38.9390 H   0  0  0  0  0  0  0  0  0  0  0  0
   39.8490   32.5310   39.4980 N   0  0  0  0  0  0  0  0  0  0  0  0
   40.7580   32.9510   38.4470 C   0  0  0  0  0  2  0  0  0  0  0  0
   42.1010   33.1960   39.1440 C   0  0  0  0  0  2  0  0  0  0  0  0
   41.8580   32.5180   40.4730 C   0  0  0  0  0  2  0  0  0  0  0  0
   40.4430   33.0630   40.7150 C   0  0  0  0  0  3  0  0  0  0  0  0
   40.4780   34.1600   40.6580 H   0  0  0  0  0  0  0  0  0  0  0  0
   35.7080   30.9970   41.3060 N   0  0  0  0  0  0  0  0  0  0  0  0
   34.9300   31.6440   41.0500 H   0  0  0  0  0  0  0  0  0  0  0  0
   35.7980   30.4230   42.1920 H   0  0  0  0  0  0  0  0  0  0  0  0
  1  6  2  0  0  0  0
  1  2  1  0  0  0  0
  2  3  2  0  0  0  0
  3  4  1  0  0  0  0
  3 15  1  0  0  0  0
  5  9  1  0  0  0  0
  5  4  2  0  0  0  0
  6  5  1  0  0  0  0
  7  1  1  0  0  0  0
  8  2  1  0  0  0  0
  9 13  1  0  0  0  0
 10 11  1  0  0  0  0
 10  9  1  0  0  0  0
 11 12  1  0  0  0  0
 12 13  1  0  0  0  0
 14 13  1  0  0  0  0
 15 17  1  0  0  0  0
 16 15  1  0  0  0  0
M  END
>  <minimizedAffinity>
-3.83567047

$$$$

 OpenBabel03242521503D

 17 18  0  0  0  0  0  0  0  0999 V2000
   38.0890   24.6430   39.9660 C   0  0  0  0  0  0  0  0  0  0  0  0
   38.7640   23.9040   40.9520 C   0  0  0  0  0  0  0  0  0  0  0  0
   38.9100   24.4790   42.2110 C   0  0  0  0  0  0  0  0  0  0  0  0
   38.3900   25.7270   42.4150 N   0  0  0  0  0  0  0  0  0  0  0  0
   37.7550   26.3960   41.4450 C   0  0  0  0  0  0  0  0  0  0  0  0
   37.6010   25.8710   40.2340 N   0  0  0  0  0  0  0  0  0  0  0  0
   37.9970   24.1700   39.0140 H   0  0  0  0  0  0  0  0  0  0  0  0
   39.1450   22.9380   40.7310 H   0  0  0  0  0  0  0  0  0  0  0  0
   37.2560   27.6900   41.7760 N   0  0  0  0  0  0  0  0  0  0  0  0
   36.2910   28.4410   40.9920 C   0  0  0  0  0  2  0  0  0  0  0  0
   36.5040   29.9080   41.3800 C   0  0  0  0  0  2  0  0  0  0  0  0
   37.8400   29.8240   42.0810 C   0  0  0  0  0  2  0  0  0  0  0  0
   37.5500   28.5610   42.9050 C   0  0  0  0  0  3  0  0  0  0  0  0
   36.6330   28.7280   43.4880 H   0  0  0  0  0  0  0  0  0  0  0  0
   39.5740   23.7820   43.2310 N   0  0  0  0  0  0  0  0  0  0  0  0
   38.9030   23.0620   43.5800 H   0  0  0  0  0  0  0  0  0  0  0  0
   40.5620   23.9550   43.5720 H   0  0  0  0  0  0  0  0  0  0  0  0
  1  6  2  0  0  0  0
  1  2  1  0  0  0  0
  2  3  2  0  0  0  0
  3  4  1  0  0  0  0
  3 15  1  0  0  0  0
  5  9  1  0  0  0  0
  5  4  2  0  0  0  0
  6  5  1  0  0  0  0
  7  1  1  0  0  0  0
  8  2  1  0  0  0  0
  9 13  1  0  0  0  0
 10 11  1  0  0  0  0
 10  9  1  0  0  0  0
 11 12  1  0  0  0  0
 12 13  1  0  0  0  0
 13 14  1  0  0  0  0
 15 17  1  0  0  0  0
 15 16  1  0  0  0  0
M  END
>  <minimizedAffinity>
-3.80944252

$$$$
