
 OpenBabel03242521433D

 31 33  0  0  1  0  0  0  0  0999 V2000
   38.2910   30.8830   41.1930 C   0  0  0  0  0  0  0  0  0  0  0  0
   39.4320   31.4190   40.5700 C   0  0  0  0  0  0  0  0  0  0  0  0
   39.2630   32.3540   39.5410 C   0  0  0  0  0  0  0  0  0  0  0  0
   38.0160   32.7010   39.1920 N   0  0  0  0  0  0  0  0  0  0  0  0
   36.9270   32.1650   39.8140 C   0  0  0  0  0  0  0  0  0  0  0  0
   37.0680   31.2740   40.7940 N   0  0  0  0  0  0  0  0  0  0  0  0
   40.3890   31.0770   40.9220 H   0  0  0  0  0  0  0  0  0  0  0  0
   35.9590   32.5120   39.4580 H   0  0  0  0  0  0  0  0  0  0  0  0
   40.8460   32.2380   37.6210 C   0  0  2  0  0  0  0  0  0  0  0  0
   40.4750   32.8820   38.9270 C   0  0  2  0  0  0  0  0  0  0  0  0
   41.6520   32.6550   39.6680 O   0  0  0  0  0  0  0  0  0  0  0  0
   42.6540   33.0770   38.8260 C   0  0  0  0  0  0  0  0  0  0  0  0
   42.1980   32.9410   37.4030 C   0  0  1  0  0  0  0  0  0  0  0  0
   41.1270   31.1700   37.7310 H   0  0  0  0  0  0  0  0  0  0  0  0
   40.4150   33.9830   38.7690 H   0  0  0  0  0  0  0  0  0  0  0  0
   43.5630   32.4880   39.0140 H   0  0  0  0  0  0  0  0  0  0  0  0
   42.9070   34.1540   39.0390 H   0  0  0  0  0  0  0  0  0  0  0  0
   41.9230   33.9110   36.9210 H   0  0  0  0  0  0  0  0  0  0  0  0
   39.9430   32.4680   36.6160 O   0  0  0  0  0  0  0  0  0  0  0  0
   39.5790   31.6490   36.1930 H   0  0  0  0  0  0  0  0  0  0  0  0
   43.0030   32.1390   36.6210 O   0  0  0  0  0  0  0  0  0  0  0  0
   42.5160   31.3730   36.2240 H   0  0  0  0  0  0  0  0  0  0  0  0
   38.4740   29.8740   42.2850 C   0  0  0  0  0  0  0  0  0  0  0  0
   37.8120   30.1300   43.1370 H   0  0  0  0  0  0  0  0  0  0  0  0
   39.5290   29.8900   42.6580 H   0  0  0  0  0  0  0  0  0  0  0  0
   38.1880   28.5430   41.7910 N   0  0  0  0  0  0  0  0  0  0  0  0
   39.1240   27.5570   42.2260 C   0  0  0  0  0  2  0  0  0  0  0  0
   38.6560   27.2660   43.6340 C   0  0  0  0  0  2  0  0  0  0  0  0
   37.2070   27.7120   43.6800 C   0  0  0  0  0  2  0  0  0  0  0  0
   36.9180   28.0480   42.2170 C   0  0  0  0  0  3  0  0  0  0  0  0
   36.0620   28.7060   42.0770 H   0  0  0  0  0  0  0  0  0  0  0  0
  1 23  1  0  0  0  0
  2  7  1  0  0  0  0
  2  1  2  0  0  0  0
  3  2  1  0  0  0  0
  4  3  2  0  0  0  0
  4  5  1  0  0  0  0
  5  6  2  0  0  0  0
  6  1  1  0  0  0  0
  8  5  1  0  0  0  0
  9 14  1  1  0  0  0
  9 10  1  0  0  0  0
 10 15  1  6  0  0  0
 10  3  1  0  0  0  0
 10 11  1  0  0  0  0
 12 16  1  0  0  0  0
 12 17  1  0  0  0  0
 12 11  1  0  0  0  0
 13 18  1  6  0  0  0
 13  9  1  0  0  0  0
 13 12  1  0  0  0  0
 19  9  1  0  0  0  0
 20 19  1  0  0  0  0
 21 13  1  0  0  0  0
 22 21  1  0  0  0  0
 23 25  1  0  0  0  0
 23 24  1  0  0  0  0
 26 30  1  0  0  0  0
 26 27  1  0  0  0  0
 26 23  1  0  0  0  0
 27 28  1  0  0  0  0
 28 29  1  0  0  0  0
 30 29  1  0  0  0  0
 31 30  1  0  0  0  0
M  END
>  <minimizedAffinity>
-5.48982573

$$$$

 OpenBabel03242521433D

 31 33  0  0  1  0  0  0  0  0999 V2000
   39.6080   28.4560   39.8820 C   0  0  0  0  0  0  0  0  0  0  0  0
   40.0540   29.7890   39.8390 C   0  0  0  0  0  0  0  0  0  0  0  0
   40.6220   30.2740   38.6540 C   0  0  0  0  0  0  0  0  0  0  0  0
   40.7170   29.4420   37.6050 N   0  0  0  0  0  0  0  0  0  0  0  0
   40.2750   28.1540   37.6760 C   0  0  0  0  0  0  0  0  0  0  0  0
   39.7330   27.6760   38.7940 N   0  0  0  0  0  0  0  0  0  0  0  0
   39.9330   30.3750   40.7330 H   0  0  0  0  0  0  0  0  0  0  0  0
   40.3960   27.5610   36.7700 H   0  0  0  0  0  0  0  0  0  0  0  0
   41.1620   32.2910   37.2970 C   0  0  2  0  0  0  0  0  0  0  0  0
   41.0680   31.6610   38.6570 C   0  0  2  0  0  0  0  0  0  0  0  0
   42.3860   31.8490   39.1190 O   0  0  0  0  0  0  0  0  0  0  0  0
   42.6320   33.1790   38.8710 C   0  0  0  0  0  0  0  0  0  0  0  0
   41.7870   33.6340   37.7170 C   0  0  1  0  0  0  0  0  0  0  0  0
   41.9470   31.8310   36.6620 H   0  0  0  0  0  0  0  0  0  0  0  0
   40.4200   32.3030   39.2960 H   0  0  0  0  0  0  0  0  0  0  0  0
   43.7030   33.3220   38.6650 H   0  0  0  0  0  0  0  0  0  0  0  0
   42.3850   33.7920   39.7830 H   0  0  0  0  0  0  0  0  0  0  0  0
   40.9100   34.2580   38.0180 H   0  0  0  0  0  0  0  0  0  0  0  0
   39.9530   32.4260   36.6660 O   0  0  0  0  0  0  0  0  0  0  0  0
   39.9050   32.0020   35.7720 H   0  0  0  0  0  0  0  0  0  0  0  0
   42.5010   34.1510   36.6570 O   0  0  0  0  0  0  0  0  0  0  0  0
   42.3410   33.6640   35.8090 H   0  0  0  0  0  0  0  0  0  0  0  0
   39.0120   27.9380   41.1550 C   0  0  0  0  0  0  0  0  0  0  0  0
   39.8120   27.8230   41.9150 H   0  0  0  0  0  0  0  0  0  0  0  0
   38.5550   26.9300   40.9900 H   0  0  0  0  0  0  0  0  0  0  0  0
   37.9780   28.8350   41.6270 N   0  0  0  0  0  0  0  0  0  0  0  0
   36.6600   28.2950   41.5200 C   0  0  0  0  0  2  0  0  0  0  0  0
   36.5870   27.3840   42.7240 C   0  0  0  0  0  2  0  0  0  0  0  0
   37.6520   27.8860   43.6800 C   0  0  0  0  0  2  0  0  0  0  0  0
   38.1180   29.1770   43.0050 C   0  0  0  0  0  3  0  0  0  0  0  0
   39.1010   29.5130   43.3310 H   0  0  0  0  0  0  0  0  0  0  0  0
  1 23  1  0  0  0  0
  2  1  1  0  0  0  0
  2  7  1  0  0  0  0
  3 10  1  0  0  0  0
  3  2  2  0  0  0  0
  4  5  2  0  0  0  0
  4  3  1  0  0  0  0
  5  6  1  0  0  0  0
  6  1  2  0  0  0  0
  8  5  1  0  0  0  0
  9 14  1  6  0  0  0
  9 13  1  0  0  0  0
  9 10  1  0  0  0  0
 10 11  1  0  0  0  0
 10 15  1  1  0  0  0
 12 11  1  0  0  0  0
 12 17  1  0  0  0  0
 13 18  1  1  0  0  0
 13 12  1  0  0  0  0
 16 12  1  0  0  0  0
 19  9  1  0  0  0  0
 20 19  1  0  0  0  0
 21 13  1  0  0  0  0
 22 21  1  0  0  0  0
 23 26  1  0  0  0  0
 23 24  1  0  0  0  0
 25 23  1  0  0  0  0
 26 30  1  0  0  0  0
 27 26  1  0  0  0  0
 27 28  1  0  0  0  0
 28 29  1  0  0  0  0
 30 31  1  0  0  0  0
 30 29  1  0  0  0  0
M  END
>  <minimizedAffinity>
-5.34300661

$$$$

 OpenBabel03242521433D

 31 33  0  0  1  0  0  0  0  0999 V2000
   37.6360   28.1080   42.2920 C   0  0  0  0  0  0  0  0  0  0  0  0
   38.3890   29.2900   42.1780 C   0  0  0  0  0  0  0  0  0  0  0  0
   37.8640   30.3560   41.4360 C   0  0  0  0  0  0  0  0  0  0  0  0
   36.6610   30.2030   40.8630 N   0  0  0  0  0  0  0  0  0  0  0  0
   35.9530   29.0450   40.9920 C   0  0  0  0  0  0  0  0  0  0  0  0
   36.4360   28.0210   41.6930 N   0  0  0  0  0  0  0  0  0  0  0  0
   39.3430   29.3130   42.6740 H   0  0  0  0  0  0  0  0  0  0  0  0
   34.9870   29.0220   40.4900 H   0  0  0  0  0  0  0  0  0  0  0  0
   38.2670   32.5170   40.2650 C   0  0  2  0  0  0  0  0  0  0  0  0
   38.6800   31.5600   41.3460 C   0  0  2  0  0  0  0  0  0  0  0  0
   40.0230   31.3290   40.9860 O   0  0  0  0  0  0  0  0  0  0  0  0
   40.5320   32.5930   40.8010 C   0  0  0  0  0  0  0  0  0  0  0  0
   39.4230   33.5230   40.4050 C   0  0  1  0  0  0  0  0  0  0  0  0
   38.4090   32.1030   39.2450 H   0  0  0  0  0  0  0  0  0  0  0  0
   38.7080   32.1140   42.3120 H   0  0  0  0  0  0  0  0  0  0  0  0
   41.3220   32.5630   40.0360 H   0  0  0  0  0  0  0  0  0  0  0  0
   41.0080   32.9590   41.7540 H   0  0  0  0  0  0  0  0  0  0  0  0
   39.0900   34.2050   41.2260 H   0  0  0  0  0  0  0  0  0  0  0  0
   37.0310   33.0740   40.4640 O   0  0  0  0  0  0  0  0  0  0  0  0
   36.3930   32.9420   39.7170 H   0  0  0  0  0  0  0  0  0  0  0  0
   39.6170   34.1600   39.1970 O   0  0  0  0  0  0  0  0  0  0  0  0
   38.8940   33.9780   38.5440 H   0  0  0  0  0  0  0  0  0  0  0  0
   38.2050   26.9660   43.0760 C   0  0  0  0  0  0  0  0  0  0  0  0
   37.4980   26.1120   43.0490 H   0  0  0  0  0  0  0  0  0  0  0  0
   38.3430   27.2570   44.1480 H   0  0  0  0  0  0  0  0  0  0  0  0
   39.4950   26.5830   42.5410 N   0  0  0  0  0  0  0  0  0  0  0  0
   40.2570   25.7550   43.4190 C   0  0  0  0  0  2  0  0  0  0  0  0
   39.6310   24.3950   43.2060 C   0  0  0  0  0  2  0  0  0  0  0  0
   38.9390   24.4740   41.8580 C   0  0  0  0  0  2  0  0  0  0  0  0
   39.4000   25.8330   41.3300 C   0  0  0  0  0  3  0  0  0  0  0  0
   38.7610   26.2410   40.5480 H   0  0  0  0  0  0  0  0  0  0  0  0
  1 23  1  0  0  0  0
  2  1  1  0  0  0  0
  2  7  1  0  0  0  0
  3  2  2  0  0  0  0
  4  5  2  0  0  0  0
  4  3  1  0  0  0  0
  5  6  1  0  0  0  0
  6  1  2  0  0  0  0
  8  5  1  0  0  0  0
  9 14  1  6  0  0  0
  9 13  1  0  0  0  0
  9 19  1  0  0  0  0
  9 10  1  0  0  0  0
 10  3  1  0  0  0  0
 10 15  1  1  0  0  0
 11 10  1  0  0  0  0
 12 11  1  0  0  0  0
 12 17  1  0  0  0  0
 13 12  1  0  0  0  0
 13 18  1  1  0  0  0
 16 12  1  0  0  0  0
 20 19  1  0  0  0  0
 21 13  1  0  0  0  0
 22 21  1  0  0  0  0
 23 25  1  0  0  0  0
 24 23  1  0  0  0  0
 26 23  1  0  0  0  0
 26 27  1  0  0  0  0
 28 27  1  0  0  0  0
 29 28  1  0  0  0  0
 30 29  1  0  0  0  0
 30 26  1  0  0  0  0
 31 30  1  0  0  0  0
M  END
>  <minimizedAffinity>
-5.30637121

$$$$

 OpenBabel03242521433D

 31 33  0  0  1  0  0  0  0  0999 V2000
   40.3120   32.9730   39.7430 C   0  0  0  0  0  0  0  0  0  0  0  0
   39.6670   31.7290   39.8640 C   0  0  0  0  0  0  0  0  0  0  0  0
   38.2870   31.7040   40.1030 C   0  0  0  0  0  0  0  0  0  0  0  0
   37.6360   32.8720   40.2050 N   0  0  0  0  0  0  0  0  0  0  0  0
   38.2880   34.0640   40.0820 C   0  0  0  0  0  0  0  0  0  0  0  0
   39.5990   34.1070   39.8560 N   0  0  0  0  0  0  0  0  0  0  0  0
   40.2780   30.8480   39.7660 H   0  0  0  0  0  0  0  0  0  0  0  0
   37.6690   34.9550   40.1810 H   0  0  0  0  0  0  0  0  0  0  0  0
   36.7590   30.2340   41.4090 C   0  0  2  0  0  0  0  0  0  0  0  0
   37.6640   30.3920   40.2200 C   0  0  2  0  0  0  0  0  0  0  0  0
   38.5670   29.3340   40.4430 O   0  0  0  0  0  0  0  0  0  0  0  0
   37.7510   28.2540   40.6860 C   0  0  0  0  0  0  0  0  0  0  0  0
   36.4470   28.7340   41.2530 C   0  0  1  0  0  0  0  0  0  0  0  0
   37.3030   30.2830   42.3740 H   0  0  0  0  0  0  0  0  0  0  0  0
   37.0890   30.1220   39.3050 H   0  0  0  0  0  0  0  0  0  0  0  0
   38.2560   27.5610   41.3750 H   0  0  0  0  0  0  0  0  0  0  0  0
   37.5620   27.6910   39.7290 H   0  0  0  0  0  0  0  0  0  0  0  0
   35.6010   28.7090   40.5230 H   0  0  0  0  0  0  0  0  0  0  0  0
   35.6440   31.0300   41.3640 O   0  0  0  0  0  0  0  0  0  0  0  0
   35.5290   31.6230   42.1500 H   0  0  0  0  0  0  0  0  0  0  0  0
   36.1330   28.2070   42.4870 O   0  0  0  0  0  0  0  0  0  0  0  0
   36.0070   28.9010   43.1830 H   0  0  0  0  0  0  0  0  0  0  0  0
   41.7900   32.9960   39.5000 C   0  0  0  0  0  0  0  0  0  0  0  0
   42.1870   31.9610   39.5500 H   0  0  0  0  0  0  0  0  0  0  0  0
   42.3070   33.5960   40.2910 H   0  0  0  0  0  0  0  0  0  0  0  0
   42.0780   33.5960   38.2140 N   0  0  0  0  0  0  0  0  0  0  0  0
   43.3860   34.1600   38.1260 C   0  0  0  0  0  2  0  0  0  0  0  0
   44.2480   32.9420   37.8850 C   0  0  0  0  0  2  0  0  0  0  0  0
   43.3100   31.8830   37.3370 C   0  0  0  0  0  2  0  0  0  0  0  0
   42.0120   32.6650   37.1330 C   0  0  0  0  0  3  0  0  0  0  0  0
   41.1240   32.0380   37.0780 H   0  0  0  0  0  0  0  0  0  0  0  0
  1  6  2  0  0  0  0
  1  2  1  0  0  0  0
  2  3  2  0  0  0  0
  3  4  1  0  0  0  0
  3 10  1  0  0  0  0
  5  8  1  0  0  0  0
  5  4  2  0  0  0  0
  6  5  1  0  0  0  0
  7  2  1  0  0  0  0
  9 14  1  1  0  0  0
 10 15  1  6  0  0  0
 10 11  1  0  0  0  0
 10  9  1  0  0  0  0
 11 12  1  0  0  0  0
 12 13  1  0  0  0  0
 12 16  1  0  0  0  0
 13 18  1  6  0  0  0
 13  9  1  0  0  0  0
 13 21  1  0  0  0  0
 17 12  1  0  0  0  0
 19  9  1  0  0  0  0
 19 20  1  0  0  0  0
 21 22  1  0  0  0  0
 23 24  1  0  0  0  0
 23  1  1  0  0  0  0
 23 25  1  0  0  0  0
 26 23  1  0  0  0  0
 27 26  1  0  0  0  0
 28 27  1  0  0  0  0
 29 28  1  0  0  0  0
 30 29  1  0  0  0  0
 30 26  1  0  0  0  0
 31 30  1  0  0  0  0
M  END
>  <minimizedAffinity>
-5.19941807

$$$$

 OpenBabel03242521433D

 31 33  0  0  1  0  0  0  0  0999 V2000
   36.9780   30.0710   40.1160 C   0  0  0  0  0  0  0  0  0  0  0  0
   37.9930   31.0450   40.1260 C   0  0  0  0  0  0  0  0  0  0  0  0
   38.3420   31.6680   38.9210 C   0  0  0  0  0  0  0  0  0  0  0  0
   37.6910   31.3090   37.8050 N   0  0  0  0  0  0  0  0  0  0  0  0
   36.7100   30.3620   37.8260 C   0  0  0  0  0  0  0  0  0  0  0  0
   36.3650   29.7580   38.9620 N   0  0  0  0  0  0  0  0  0  0  0  0
   38.4550   31.2620   41.0730 H   0  0  0  0  0  0  0  0  0  0  0  0
   36.2430   30.1420   36.8670 H   0  0  0  0  0  0  0  0  0  0  0  0
   40.5510   32.4200   38.0510 C   0  0  2  0  0  0  0  0  0  0  0  0
   39.3980   32.6700   38.9810 C   0  0  2  0  0  0  0  0  0  0  0  0
   40.0740   32.7320   40.2160 O   0  0  0  0  0  0  0  0  0  0  0  0
   41.1100   33.6050   39.9770 C   0  0  0  0  0  0  0  0  0  0  0  0
   41.4680   33.5650   38.5200 C   0  0  1  0  0  0  0  0  0  0  0  0
   41.1270   31.5090   38.3120 H   0  0  0  0  0  0  0  0  0  0  0  0
   39.0090   33.6960   38.7880 H   0  0  0  0  0  0  0  0  0  0  0  0
   41.9700   33.3350   40.6070 H   0  0  0  0  0  0  0  0  0  0  0  0
   40.8060   34.6510   40.2620 H   0  0  0  0  0  0  0  0  0  0  0  0
   41.1080   34.4520   37.9420 H   0  0  0  0  0  0  0  0  0  0  0  0
   40.2160   32.4990   36.7240 O   0  0  0  0  0  0  0  0  0  0  0  0
   40.4340   31.6890   36.1960 H   0  0  0  0  0  0  0  0  0  0  0  0
   42.7790   33.2280   38.2630 O   0  0  0  0  0  0  0  0  0  0  0  0
   42.8670   32.4210   37.6950 H   0  0  0  0  0  0  0  0  0  0  0  0
   36.6160   29.3970   41.4040 C   0  0  0  0  0  0  0  0  0  0  0  0
   35.8600   28.6090   41.2070 H   0  0  0  0  0  0  0  0  0  0  0  0
   36.1620   30.1320   42.1160 H   0  0  0  0  0  0  0  0  0  0  0  0
   37.7970   28.8340   42.0260 N   0  0  0  0  0  0  0  0  0  0  0  0
   37.7170   28.7670   43.4500 C   0  0  0  0  0  2  0  0  0  0  0  0
   36.8690   27.5350   43.6680 C   0  0  0  0  0  2  0  0  0  0  0  0
   36.9880   26.7290   42.3890 C   0  0  0  0  0  2  0  0  0  0  0  0
   38.0620   27.4930   41.6150 C   0  0  0  0  0  3  0  0  0  0  0  0
   38.0560   27.2970   40.5440 H   0  0  0  0  0  0  0  0  0  0  0  0
  1  2  1  0  0  0  0
  1 23  1  0  0  0  0
  2  7  1  0  0  0  0
  3 10  1  0  0  0  0
  3  2  2  0  0  0  0
  4  5  2  0  0  0  0
  4  3  1  0  0  0  0
  5  6  1  0  0  0  0
  6  1  2  0  0  0  0
  8  5  1  0  0  0  0
  9 14  1  1  0  0  0
  9 13  1  0  0  0  0
  9 10  1  0  0  0  0
 10 15  1  6  0  0  0
 10 11  1  0  0  0  0
 12 11  1  0  0  0  0
 12 17  1  0  0  0  0
 12 16  1  0  0  0  0
 13 18  1  6  0  0  0
 13 12  1  0  0  0  0
 19  9  1  0  0  0  0
 20 19  1  0  0  0  0
 21 13  1  0  0  0  0
 22 21  1  0  0  0  0
 23 26  1  0  0  0  0
 23 25  1  0  0  0  0
 24 23  1  0  0  0  0
 26 27  1  0  0  0  0
 27 28  1  0  0  0  0
 29 28  1  0  0  0  0
 30 26  1  0  0  0  0
 30 29  1  0  0  0  0
 31 30  1  0  0  0  0
M  END
>  <minimizedAffinity>
-5.13279438

$$$$

 OpenBabel03242521433D

 31 33  0  0  1  0  0  0  0  0999 V2000
   37.0040   27.9760   40.6420 C   0  0  0  0  0  0  0  0  0  0  0  0
   37.8630   29.0780   40.8060 C   0  0  0  0  0  0  0  0  0  0  0  0
   37.3250   30.3690   40.7430 C   0  0  0  0  0  0  0  0  0  0  0  0
   36.0070   30.5020   40.5280 N   0  0  0  0  0  0  0  0  0  0  0  0
   35.1980   29.4150   40.3730 C   0  0  0  0  0  0  0  0  0  0  0  0
   35.6930   28.1800   40.4290 N   0  0  0  0  0  0  0  0  0  0  0  0
   38.9050   28.8660   40.9740 H   0  0  0  0  0  0  0  0  0  0  0  0
   34.1440   29.6290   40.2040 H   0  0  0  0  0  0  0  0  0  0  0  0
   38.1270   32.5700   39.8960 C   0  0  2  0  0  0  0  0  0  0  0  0
   38.2530   31.4780   40.9200 C   0  0  2  0  0  0  0  0  0  0  0  0
   39.6110   31.1340   40.7620 O   0  0  0  0  0  0  0  0  0  0  0  0
   40.2610   32.3450   40.8010 C   0  0  0  0  0  0  0  0  0  0  0  0
   39.3310   33.4250   40.3320 C   0  0  1  0  0  0  0  0  0  0  0  0
   38.4050   32.2380   38.8750 H   0  0  0  0  0  0  0  0  0  0  0  0
   38.1650   31.9360   41.9320 H   0  0  0  0  0  0  0  0  0  0  0  0
   41.1650   32.2970   40.1770 H   0  0  0  0  0  0  0  0  0  0  0  0
   40.5960   32.5680   41.8530 H   0  0  0  0  0  0  0  0  0  0  0  0
   38.9250   34.0610   41.1560 H   0  0  0  0  0  0  0  0  0  0  0  0
   36.9330   33.2410   39.9490 O   0  0  0  0  0  0  0  0  0  0  0  0
   36.4260   33.2480   39.0980 H   0  0  0  0  0  0  0  0  0  0  0  0
   39.7900   34.1430   39.2490 O   0  0  0  0  0  0  0  0  0  0  0  0
   39.1790   34.1030   38.4710 H   0  0  0  0  0  0  0  0  0  0  0  0
   37.5850   26.5970   40.6970 C   0  0  0  0  0  0  0  0  0  0  0  0
   38.6490   26.6330   40.3830 H   0  0  0  0  0  0  0  0  0  0  0  0
   37.0460   25.9170   39.9900 H   0  0  0  0  0  0  0  0  0  0  0  0
   37.4610   26.0530   42.0340 N   0  0  0  0  0  0  0  0  0  0  0  0
   37.1340   24.6640   42.0580 C   0  0  0  0  0  2  0  0  0  0  0  0
   38.4710   24.0120   41.7880 C   0  0  0  0  0  2  0  0  0  0  0  0
   39.5110   25.0530   42.1580 C   0  0  0  0  0  2  0  0  0  0  0  0
   38.6640   26.1550   42.7940 C   0  0  0  0  0  3  0  0  0  0  0  0
   39.1520   27.1280   42.8160 H   0  0  0  0  0  0  0  0  0  0  0  0
  1 23  1  0  0  0  0
  1  2  1  0  0  0  0
  2  7  1  0  0  0  0
  3  2  2  0  0  0  0
  3 10  1  0  0  0  0
  4  3  1  0  0  0  0
  5  6  1  0  0  0  0
  5  4  2  0  0  0  0
  6  1  2  0  0  0  0
  8  5  1  0  0  0  0
  9 14  1  6  0  0  0
  9 19  1  0  0  0  0
  9 13  1  0  0  0  0
  9 10  1  0  0  0  0
 10 15  1  1  0  0  0
 11 12  1  0  0  0  0
 11 10  1  0  0  0  0
 12 17  1  0  0  0  0
 13 12  1  0  0  0  0
 13 18  1  1  0  0  0
 16 12  1  0  0  0  0
 20 19  1  0  0  0  0
 21 13  1  0  0  0  0
 22 21  1  0  0  0  0
 23 26  1  0  0  0  0
 24 23  1  0  0  0  0
 25 23  1  0  0  0  0
 26 27  1  0  0  0  0
 26 30  1  0  0  0  0
 28 27  1  0  0  0  0
 28 29  1  0  0  0  0
 29 30  1  0  0  0  0
 30 31  1  0  0  0  0
M  END
>  <minimizedAffinity>
-5.06636858

$$$$

 OpenBabel03242521433D

 31 33  0  0  1  0  0  0  0  0999 V2000
   37.3600   26.6390   41.5640 C   0  0  0  0  0  0  0  0  0  0  0  0
   37.6510   27.9390   41.1140 C   0  0  0  0  0  0  0  0  0  0  0  0
   37.5230   29.0090   42.0090 C   0  0  0  0  0  0  0  0  0  0  0  0
   37.1280   28.7480   43.2630 N   0  0  0  0  0  0  0  0  0  0  0  0
   36.8530   27.4760   43.6730 C   0  0  0  0  0  0  0  0  0  0  0  0
   36.9680   26.4470   42.8360 N   0  0  0  0  0  0  0  0  0  0  0  0
   37.9610   28.0450   40.0890 H   0  0  0  0  0  0  0  0  0  0  0  0
   36.5400   27.3700   44.7100 H   0  0  0  0  0  0  0  0  0  0  0  0
   36.7440   30.9650   40.6770 C   0  0  2  0  0  0  0  0  0  0  0  0
   37.8360   30.3370   41.4960 C   0  0  2  0  0  0  0  0  0  0  0  0
   38.9000   30.3700   40.5720 O   0  0  0  0  0  0  0  0  0  0  0  0
   38.8920   31.6660   40.1120 C   0  0  0  0  0  0  0  0  0  0  0  0
   37.5040   32.2240   40.2220 C   0  0  1  0  0  0  0  0  0  0  0  0
   36.5520   30.4250   39.7280 H   0  0  0  0  0  0  0  0  0  0  0  0
   38.1110   31.0430   42.3120 H   0  0  0  0  0  0  0  0  0  0  0  0
   39.2520   31.6890   39.0730 H   0  0  0  0  0  0  0  0  0  0  0  0
   39.6010   32.2950   40.7220 H   0  0  0  0  0  0  0  0  0  0  0  0
   37.3700   32.9410   41.0700 H   0  0  0  0  0  0  0  0  0  0  0  0
   35.6080   31.2410   41.3930 O   0  0  0  0  0  0  0  0  0  0  0  0
   34.7820   30.8330   41.0280 H   0  0  0  0  0  0  0  0  0  0  0  0
   36.9710   32.6670   39.0300 O   0  0  0  0  0  0  0  0  0  0  0  0
   36.1260   32.2080   38.7910 H   0  0  0  0  0  0  0  0  0  0  0  0
   37.4860   25.4990   40.6010 C   0  0  0  0  0  0  0  0  0  0  0  0
   37.9340   25.8650   39.6550 H   0  0  0  0  0  0  0  0  0  0  0  0
   36.4770   25.0800   40.3580 H   0  0  0  0  0  0  0  0  0  0  0  0
   38.2900   24.4410   41.1780 N   0  0  0  0  0  0  0  0  0  0  0  0
   38.1410   23.1850   40.5170 C   0  0  0  0  0  2  0  0  0  0  0  0
   39.0210   23.3530   39.3000 C   0  0  0  0  0  2  0  0  0  0  0  0
   39.9880   24.4690   39.6490 C   0  0  0  0  0  2  0  0  0  0  0  0
   39.6900   24.7120   41.1290 C   0  0  0  0  0  3  0  0  0  0  0  0
   40.0160   25.6860   41.4890 H   0  0  0  0  0  0  0  0  0  0  0  0
  1  6  1  0  0  0  0
  2  1  2  0  0  0  0
  2  3  1  0  0  0  0
  3  4  2  0  0  0  0
  4  5  1  0  0  0  0
  5  8  1  0  0  0  0
  6  5  2  0  0  0  0
  7  2  1  0  0  0  0
  9 14  1  6  0  0  0
  9 19  1  0  0  0  0
  9 10  1  0  0  0  0
 10  3  1  0  0  0  0
 10 15  1  1  0  0  0
 11 10  1  0  0  0  0
 12 13  1  0  0  0  0
 12 11  1  0  0  0  0
 12 17  1  0  0  0  0
 13  9  1  0  0  0  0
 13 18  1  1  0  0  0
 16 12  1  0  0  0  0
 20 19  1  0  0  0  0
 21 13  1  0  0  0  0
 22 21  1  0  0  0  0
 23 26  1  0  0  0  0
 23  1  1  0  0  0  0
 24 23  1  0  0  0  0
 25 23  1  0  0  0  0
 27 26  1  0  0  0  0
 28 29  1  0  0  0  0
 28 27  1  0  0  0  0
 29 30  1  0  0  0  0
 30 26  1  0  0  0  0
 30 31  1  0  0  0  0
M  END
>  <minimizedAffinity>
-4.99063683

$$$$

 OpenBabel03242521433D

 31 33  0  0  1  0  0  0  0  0999 V2000
   37.1620   29.4130   41.6370 C   0  0  0  0  0  0  0  0  0  0  0  0
   37.1230   28.1960   40.9320 C   0  0  0  0  0  0  0  0  0  0  0  0
   37.5080   27.0220   41.5900 C   0  0  0  0  0  0  0  0  0  0  0  0
   37.8990   27.1060   42.8700 N   0  0  0  0  0  0  0  0  0  0  0  0
   37.9250   28.3000   43.5290 C   0  0  0  0  0  0  0  0  0  0  0  0
   37.5640   29.4270   42.9200 N   0  0  0  0  0  0  0  0  0  0  0  0
   36.7950   28.2340   39.9080 H   0  0  0  0  0  0  0  0  0  0  0  0
   38.2570   28.2610   44.5660 H   0  0  0  0  0  0  0  0  0  0  0  0
   37.4860   24.5320   41.6430 C   0  0  2  0  0  0  0  0  0  0  0  0
   37.4510   25.7870   40.8180 C   0  0  2  0  0  0  0  0  0  0  0  0
   38.5600   25.5720   39.9760 O   0  0  0  0  0  0  0  0  0  0  0  0
   38.3650   24.2980   39.4990 C   0  0  0  0  0  0  0  0  0  0  0  0
   37.5610   23.5120   40.4920 C   0  0  1  0  0  0  0  0  0  0  0  0
   38.4500   24.3910   42.1730 H   0  0  0  0  0  0  0  0  0  0  0  0
   36.5510   25.7490   40.1620 H   0  0  0  0  0  0  0  0  0  0  0  0
   39.3390   23.8240   39.3080 H   0  0  0  0  0  0  0  0  0  0  0  0
   37.8170   24.3350   38.5150 H   0  0  0  0  0  0  0  0  0  0  0  0
   36.4940   23.3630   40.1930 H   0  0  0  0  0  0  0  0  0  0  0  0
   36.3880   24.3680   42.4460 O   0  0  0  0  0  0  0  0  0  0  0  0
   36.5940   24.2540   43.4090 H   0  0  0  0  0  0  0  0  0  0  0  0
   38.1760   22.3640   40.9440 O   0  0  0  0  0  0  0  0  0  0  0  0
   38.2950   22.3520   41.9280 H   0  0  0  0  0  0  0  0  0  0  0  0
   36.7610   30.6690   40.9270 C   0  0  0  0  0  0  0  0  0  0  0  0
   36.7550   31.5130   41.6470 H   0  0  0  0  0  0  0  0  0  0  0  0
   35.7270   30.5710   40.5110 H   0  0  0  0  0  0  0  0  0  0  0  0
   37.6680   30.9360   39.8300 N   0  0  0  0  0  0  0  0  0  0  0  0
   37.1230   31.8020   38.8340 C   0  0  0  0  0  2  0  0  0  0  0  0
   37.2920   33.1660   39.4640 C   0  0  0  0  0  2  0  0  0  0  0  0
   38.3820   32.9990   40.5060 C   0  0  0  0  0  2  0  0  0  0  0  0
   38.8750   31.5760   40.2430 C   0  0  0  0  0  3  0  0  0  0  0  0
   39.4050   31.1310   41.0840 H   0  0  0  0  0  0  0  0  0  0  0  0
  1  6  1  0  0  0  0
  2  3  1  0  0  0  0
  2  1  2  0  0  0  0
  3  4  2  0  0  0  0
  4  5  1  0  0  0  0
  5  8  1  0  0  0  0
  6  5  2  0  0  0  0
  7  2  1  0  0  0  0
  9 14  1  1  0  0  0
  9 19  1  0  0  0  0
 10 15  1  6  0  0  0
 10  3  1  0  0  0  0
 10  9  1  0  0  0  0
 11 10  1  0  0  0  0
 12 11  1  0  0  0  0
 12 13  1  0  0  0  0
 13 18  1  6  0  0  0
 13 21  1  0  0  0  0
 13  9  1  0  0  0  0
 16 12  1  0  0  0  0
 17 12  1  0  0  0  0
 19 20  1  0  0  0  0
 21 22  1  0  0  0  0
 23  1  1  0  0  0  0
 23 24  1  0  0  0  0
 25 23  1  0  0  0  0
 26 30  1  0  0  0  0
 26 23  1  0  0  0  0
 27 28  1  0  0  0  0
 27 26  1  0  0  0  0
 28 29  1  0  0  0  0
 30 29  1  0  0  0  0
 30 31  1  0  0  0  0
M  END
>  <minimizedAffinity>
-4.97986937

$$$$

 OpenBabel03242521433D

 31 33  0  0  1  0  0  0  0  0999 V2000
   40.0090   32.2670   41.1740 C   0  0  0  0  0  0  0  0  0  0  0  0
   41.2770   32.2310   40.5660 C   0  0  0  0  0  0  0  0  0  0  0  0
   41.5860   33.1890   39.5920 C   0  0  0  0  0  0  0  0  0  0  0  0
   40.6570   34.1050   39.2810 N   0  0  0  0  0  0  0  0  0  0  0  0
   39.4360   34.1160   39.8880 C   0  0  0  0  0  0  0  0  0  0  0  0
   39.1240   33.2120   40.8150 N   0  0  0  0  0  0  0  0  0  0  0  0
   41.9510   31.4560   40.8850 H   0  0  0  0  0  0  0  0  0  0  0  0
   38.7530   34.9010   39.5650 H   0  0  0  0  0  0  0  0  0  0  0  0
   42.9120   32.9480   37.4980 C   0  0  2  0  0  0  0  0  0  0  0  0
   42.9110   33.1120   38.9910 C   0  0  2  0  0  0  0  0  0  0  0  0
   43.6610   31.9810   39.3740 O   0  0  0  0  0  0  0  0  0  0  0  0
   44.7720   32.0380   38.5650 C   0  0  0  0  0  0  0  0  0  0  0  0
   44.4270   32.7600   37.2960 C   0  0  1  0  0  0  0  0  0  0  0  0
   42.4880   31.9770   37.1700 H   0  0  0  0  0  0  0  0  0  0  0  0
   43.5350   33.9990   39.2460 H   0  0  0  0  0  0  0  0  0  0  0  0
   45.1290   31.0180   38.3610 H   0  0  0  0  0  0  0  0  0  0  0  0
   45.6050   32.5820   39.0940 H   0  0  0  0  0  0  0  0  0  0  0  0
   44.8240   33.8040   37.2480 H   0  0  0  0  0  0  0  0  0  0  0  0
   42.4020   34.0280   36.8240 O   0  0  0  0  0  0  0  0  0  0  0  0
   41.6500   33.8150   36.2150 H   0  0  0  0  0  0  0  0  0  0  0  0
   44.6420   32.0290   36.1470 O   0  0  0  0  0  0  0  0  0  0  0  0
   43.8220   31.9150   35.6030 H   0  0  0  0  0  0  0  0  0  0  0  0
   39.6770   31.2320   42.2050 C   0  0  0  0  0  0  0  0  0  0  0  0
   38.7450   31.5250   42.7320 H   0  0  0  0  0  0  0  0  0  0  0  0
   40.4920   31.1660   42.9690 H   0  0  0  0  0  0  0  0  0  0  0  0
   39.5300   29.9330   41.5840 N   0  0  0  0  0  0  0  0  0  0  0  0
   39.7280   28.8420   42.4840 C   0  0  0  0  0  2  0  0  0  0  0  0
   38.4020   28.7780   43.2080 C   0  0  0  0  0  2  0  0  0  0  0  0
   37.4090   29.4780   42.3010 C   0  0  0  0  0  2  0  0  0  0  0  0
   38.2310   29.7170   41.0340 C   0  0  0  0  0  3  0  0  0  0  0  0
   37.8320   30.5010   40.3920 H   0  0  0  0  0  0  0  0  0  0  0  0
  1 23  1  0  0  0  0
  2  7  1  0  0  0  0
  2  1  2  0  0  0  0
  3  2  1  0  0  0  0
  4  3  2  0  0  0  0
  4  5  1  0  0  0  0
  5  6  2  0  0  0  0
  6  1  1  0  0  0  0
  8  5  1  0  0  0  0
  9 14  1  6  0  0  0
  9 10  1  0  0  0  0
 10 15  1  1  0  0  0
 10 11  1  0  0  0  0
 10  3  1  0  0  0  0
 12 17  1  0  0  0  0
 12 11  1  0  0  0  0
 13 18  1  6  0  0  0
 13  9  1  0  0  0  0
 13 12  1  0  0  0  0
 16 12  1  0  0  0  0
 19  9  1  0  0  0  0
 20 19  1  0  0  0  0
 21 13  1  0  0  0  0
 22 21  1  0  0  0  0
 23 24  1  0  0  0  0
 23 25  1  0  0  0  0
 26 23  1  0  0  0  0
 26 27  1  0  0  0  0
 27 28  1  0  0  0  0
 29 28  1  0  0  0  0
 30 26  1  0  0  0  0
 30 29  1  0  0  0  0
 31 30  1  0  0  0  0
M  END
>  <minimizedAffinity>
-4.86053419

$$$$
