
 OpenBabel03252509223D

 24 26  0  0  1  0  0  0  0  0999 V2000
   46.5790   34.9710   41.9570 C   0  0  1  0  0  0  0  0  0  0  0  0
   48.0740   35.3890   42.0010 C   0  0  0  0  0  0  0  0  0  0  0  0
   47.5210   34.0170   41.4940 C   0  0  2  0  0  0  0  0  0  0  0  0
   45.9520   35.6380   41.3450 H   0  0  0  0  0  0  0  0  0  0  0  0
   48.6120   35.3610   42.9450 H   0  0  0  0  0  0  0  0  0  0  0  0
   48.3240   36.1250   41.2440 H   0  0  0  0  0  0  0  0  0  0  0  0
   47.7640   33.1580   42.1920 H   0  0  0  0  0  0  0  0  0  0  0  0
   44.6100   35.4690   45.1140 C   0  0  0  0  0  0  0  0  0  0  0  0
   45.1000   35.7210   43.7890 C   0  0  0  0  0  0  0  0  0  0  0  0
   46.0530   34.8270   43.3760 C   0  0  0  0  0  0  0  0  0  0  0  0
   46.4960   33.7790   44.1840 N   0  0  0  0  0  0  0  0  0  0  0  0
   45.9920   33.6090   45.4090 C   0  0  0  0  0  0  0  0  0  0  0  0
   45.0390   34.4590   45.8840 N   0  0  0  0  0  0  0  0  0  0  0  0
   43.8620   36.1340   45.4920 H   0  0  0  0  0  0  0  0  0  0  0  0
   46.4610   32.7500   45.8670 H   0  0  0  0  0  0  0  0  0  0  0  0
   44.6580   36.8040   42.9910 N   0  0  0  0  0  0  0  0  0  0  0  0
   43.8830   36.8250   42.3000 H   0  0  0  0  0  0  0  0  0  0  0  0
   45.3870   37.4640   43.3880 H   0  0  0  0  0  0  0  0  0  0  0  0
   47.8940   33.7630   40.1420 N   0  0  1  0  0  0  0  0  0  0  0  0
   48.7810   32.6210   40.1080 C   0  0  0  0  0  2  0  0  0  0  0  0
   47.9350   31.4250   39.7390 C   0  0  0  0  0  2  0  0  0  0  0  0
   46.5190   31.9410   39.7610 C   0  0  0  0  0  2  0  0  0  0  0  0
   46.7500   33.3830   39.3260 C   0  0  0  0  0  3  0  0  0  0  0  0
   45.8860   34.0240   39.4910 H   0  0  0  0  0  0  0  0  0  0  0  0
  1  4  1  6  0  0  0
  1  2  1  0  0  0  0
  1 10  1  0  0  0  0
  2  5  1  0  0  0  0
  3  1  1  0  0  0  0
  3  2  1  0  0  0  0
  3  7  1  1  0  0  0
  6  2  1  0  0  0  0
  8 14  1  0  0  0  0
  8 13  1  0  0  0  0
  9  8  2  0  0  0  0
 10  9  1  0  0  0  0
 10 11  2  0  0  0  0
 11 12  1  0  0  0  0
 12 15  1  0  0  0  0
 12 13  2  0  0  0  0
 16 18  1  0  0  0  0
 16  9  1  0  0  0  0
 17 16  1  0  0  0  0
 19 20  1  1  0  0  0
 19  3  1  0  0  0  0
 21 22  1  0  0  0  0
 21 20  1  0  0  0  0
 23 24  1  0  0  0  0
 23 22  1  0  0  0  0
 23 19  1  0  0  0  0
M  END
>  <minimizedAffinity>
-4.46094608

>  <minimizedRMSD>
0.551046729

$$$$
