
 OpenBabel03242522123D

 17 18  0  0  0  0  0  0  0  0999 V2000
   36.9540   31.9170   40.3780 C   0  0  0  0  0  0  0  0  0  0  0  0
   36.7850   30.6780   41.0330 C   0  0  0  0  0  0  0  0  0  0  0  0
   37.9060   30.1380   41.6830 C   0  0  0  0  0  0  0  0  0  0  0  0
   39.0700   30.8440   41.6360 N   0  0  0  0  0  0  0  0  0  0  0  0
   39.1830   32.0280   40.9960 C   0  0  0  0  0  0  0  0  0  0  0  0
   38.1220   32.5610   40.3680 N   0  0  0  0  0  0  0  0  0  0  0  0
   36.1070   32.3330   39.8820 H   0  0  0  0  0  0  0  0  0  0  0  0
   40.2040   32.3690   41.1130 H   0  0  0  0  0  0  0  0  0  0  0  0
   37.7410   28.9050   42.3360 N   0  0  0  0  0  0  0  0  0  0  0  0
   37.3970   28.5700   43.6770 C   0  0  0  0  0  2  0  0  0  0  0  0
   36.4720   27.3790   43.5340 C   0  0  0  0  0  2  0  0  0  0  0  0
   37.0760   26.6280   42.3940 C   0  0  0  0  0  2  0  0  0  0  0  0
   37.9180   27.6260   41.6640 C   0  0  0  0  0  3  0  0  0  0  0  0
   37.5010   27.6970   40.6260 H   0  0  0  0  0  0  0  0  0  0  0  0
   35.5020   30.0680   40.9890 N   0  0  0  0  0  0  0  0  0  0  0  0
   35.6000   29.5850   40.0690 H   0  0  0  0  0  0  0  0  0  0  0  0
   34.7260   30.1130   41.6900 H   0  0  0  0  0  0  0  0  0  0  0  0
  1  2  1  0  0  0  0
  2  3  2  0  0  0  0
  3  9  1  0  0  0  0
  4  3  1  0  0  0  0
  5  8  1  0  0  0  0
  5  4  2  0  0  0  0
  6  1  2  0  0  0  0
  6  5  1  0  0  0  0
  7  1  1  0  0  0  0
  9 10  1  0  0  0  0
 11 10  1  0  0  0  0
 12 11  1  0  0  0  0
 13  9  1  0  0  0  0
 13 12  1  0  0  0  0
 14 13  1  0  0  0  0
 15  2  1  0  0  0  0
 15 17  1  0  0  0  0
 16 15  1  0  0  0  0
M  END
>  <minimizedAffinity>
-4.44012833

$$$$

 OpenBabel03242522123D

 17 18  0  0  0  0  0  0  0  0999 V2000
   36.9410   31.8640   39.4100 C   0  0  0  0  0  0  0  0  0  0  0  0
   36.8730   30.9120   40.4490 C   0  0  0  0  0  0  0  0  0  0  0  0
   37.9200   29.9810   40.5340 C   0  0  0  0  0  0  0  0  0  0  0  0
   38.9220   30.0630   39.6150 N   0  0  0  0  0  0  0  0  0  0  0  0
   38.9430   30.9950   38.6370 C   0  0  0  0  0  0  0  0  0  0  0  0
   37.9500   31.8940   38.5380 N   0  0  0  0  0  0  0  0  0  0  0  0
   36.1480   32.5740   39.3380 H   0  0  0  0  0  0  0  0  0  0  0  0
   39.8410   30.8360   38.0520 H   0  0  0  0  0  0  0  0  0  0  0  0
   37.8560   29.0310   41.5680 N   0  0  0  0  0  0  0  0  0  0  0  0
   38.2840   29.0630   42.9250 C   0  0  0  0  0  2  0  0  0  0  0  0
   37.1810   28.3460   43.6770 C   0  0  0  0  0  2  0  0  0  0  0  0
   36.7920   27.2590   42.7320 C   0  0  0  0  0  2  0  0  0  0  0  0
   37.2740   27.7090   41.3890 C   0  0  0  0  0  3  0  0  0  0  0  0
   36.3670   27.7930   40.7360 H   0  0  0  0  0  0  0  0  0  0  0  0
   35.7580   30.9590   41.3280 N   0  0  0  0  0  0  0  0  0  0  0  0
   35.0910   30.4000   40.7520 H   0  0  0  0  0  0  0  0  0  0  0  0
   35.6750   31.4240   42.2630 H   0  0  0  0  0  0  0  0  0  0  0  0
  1  2  1  0  0  0  0
  2  3  2  0  0  0  0
  2 15  1  0  0  0  0
  3  9  1  0  0  0  0
  4  3  1  0  0  0  0
  5  4  2  0  0  0  0
  6  5  1  0  0  0  0
  6  1  2  0  0  0  0
  7  1  1  0  0  0  0
  8  5  1  0  0  0  0
  9 10  1  0  0  0  0
 10 11  1  0  0  0  0
 12 11  1  0  0  0  0
 13  9  1  0  0  0  0
 13 12  1  0  0  0  0
 14 13  1  0  0  0  0
 15 17  1  0  0  0  0
 16 15  1  0  0  0  0
M  END
>  <minimizedAffinity>
-4.29883432

$$$$

 OpenBabel03242522123D

 17 18  0  0  0  0  0  0  0  0999 V2000
   36.7110   28.7730   41.9310 C   0  0  0  0  0  0  0  0  0  0  0  0
   36.8230   30.0550   41.3510 C   0  0  0  0  0  0  0  0  0  0  0  0
   38.0440   30.3760   40.7380 C   0  0  0  0  0  0  0  0  0  0  0  0
   39.0280   29.4340   40.7460 N   0  0  0  0  0  0  0  0  0  0  0  0
   38.8730   28.2190   41.3150 C   0  0  0  0  0  0  0  0  0  0  0  0
   37.7130   27.8930   41.9070 N   0  0  0  0  0  0  0  0  0  0  0  0
   35.7860   28.5220   42.3990 H   0  0  0  0  0  0  0  0  0  0  0  0
   39.7990   27.6730   41.1810 H   0  0  0  0  0  0  0  0  0  0  0  0
   38.1590   31.6520   40.1580 N   0  0  0  0  0  0  0  0  0  0  0  0
   37.6440   32.2050   38.9520 C   0  0  0  0  0  2  0  0  0  0  0  0
   37.2400   33.6130   39.3350 C   0  0  0  0  0  2  0  0  0  0  0  0
   38.3130   34.0150   40.2910 C   0  0  0  0  0  2  0  0  0  0  0  0
   38.9130   32.7330   40.7750 C   0  0  0  0  0  3  0  0  0  0  0  0
   38.7540   32.7050   41.8840 H   0  0  0  0  0  0  0  0  0  0  0  0
   35.7020   30.9240   41.4270 N   0  0  0  0  0  0  0  0  0  0  0  0
   35.8860   31.3210   42.3740 H   0  0  0  0  0  0  0  0  0  0  0  0
   34.9450   31.0880   40.7220 H   0  0  0  0  0  0  0  0  0  0  0  0
  1  7  1  0  0  0  0
  2 15  1  0  0  0  0
  2  1  2  0  0  0  0
  3  4  2  0  0  0  0
  3  2  1  0  0  0  0
  4  5  1  0  0  0  0
  5  6  2  0  0  0  0
  6  1  1  0  0  0  0
  8  5  1  0  0  0  0
  9  3  1  0  0  0  0
  9 13  1  0  0  0  0
 10 11  1  0  0  0  0
 10  9  1  0  0  0  0
 11 12  1  0  0  0  0
 12 13  1  0  0  0  0
 13 14  1  0  0  0  0
 15 16  1  0  0  0  0
 17 15  1  0  0  0  0
M  END
>  <minimizedAffinity>
-4.11269951

$$$$

 OpenBabel03242522123D

 17 18  0  0  0  0  0  0  0  0999 V2000
   42.2330   32.6650   37.1930 C   0  0  0  0  0  0  0  0  0  0  0  0
   40.9350   32.6770   37.7470 C   0  0  0  0  0  0  0  0  0  0  0  0
   40.8270   32.9520   39.1200 C   0  0  0  0  0  0  0  0  0  0  0  0
   41.9750   33.1870   39.8140 N   0  0  0  0  0  0  0  0  0  0  0  0
   43.1960   33.1650   39.2380 C   0  0  0  0  0  0  0  0  0  0  0  0
   43.3210   32.9030   37.9270 N   0  0  0  0  0  0  0  0  0  0  0  0
   42.3230   32.4560   36.1510 H   0  0  0  0  0  0  0  0  0  0  0  0
   43.9270   33.3820   40.0080 H   0  0  0  0  0  0  0  0  0  0  0  0
   39.5360   32.9650   39.6750 N   0  0  0  0  0  0  0  0  0  0  0  0
   38.6220   34.0220   39.9490 C   0  0  0  0  0  2  0  0  0  0  0  0
   37.2720   33.4480   39.5740 C   0  0  0  0  0  2  0  0  0  0  0  0
   37.3840   32.0270   40.0160 C   0  0  0  0  0  2  0  0  0  0  0  0
   38.8520   31.7560   40.1100 C   0  0  0  0  0  3  0  0  0  0  0  0
   39.0710   30.9300   39.3850 H   0  0  0  0  0  0  0  0  0  0  0  0
   39.8370   32.4110   36.8860 N   0  0  0  0  0  0  0  0  0  0  0  0
   39.8630   31.3680   36.9310 H   0  0  0  0  0  0  0  0  0  0  0  0
   39.2160   33.0860   36.3810 H   0  0  0  0  0  0  0  0  0  0  0  0
  1  2  2  0  0  0  0
  1  6  1  0  0  0  0
  2  3  1  0  0  0  0
  3  9  1  0  0  0  0
  3  4  2  0  0  0  0
  5  4  1  0  0  0  0
  5  8  1  0  0  0  0
  6  5  2  0  0  0  0
  7  1  1  0  0  0  0
  9 10  1  0  0  0  0
  9 13  1  0  0  0  0
 11 10  1  0  0  0  0
 11 12  1  0  0  0  0
 12 13  1  0  0  0  0
 14 13  1  0  0  0  0
 15 16  1  0  0  0  0
 15  2  1  0  0  0  0
 17 15  1  0  0  0  0
M  END
>  <minimizedAffinity>
-3.89690566

$$$$

 OpenBabel03242522123D

 17 18  0  0  0  0  0  0  0  0999 V2000
   39.1450   32.0890   41.1000 C   0  0  0  0  0  0  0  0  0  0  0  0
   39.0470   30.8410   41.7520 C   0  0  0  0  0  0  0  0  0  0  0  0
   37.8160   30.1710   41.6720 C   0  0  0  0  0  0  0  0  0  0  0  0
   36.8100   30.7680   40.9740 N   0  0  0  0  0  0  0  0  0  0  0  0
   36.9520   31.9650   40.3660 C   0  0  0  0  0  0  0  0  0  0  0  0
   38.1210   32.6230   40.4310 N   0  0  0  0  0  0  0  0  0  0  0  0
   40.0770   32.6030   41.1560 H   0  0  0  0  0  0  0  0  0  0  0  0
   36.0090   32.2060   39.8890 H   0  0  0  0  0  0  0  0  0  0  0  0
   37.7150   28.9280   42.3200 N   0  0  0  0  0  0  0  0  0  0  0  0
   37.4530   28.5730   43.6740 C   0  0  0  0  0  2  0  0  0  0  0  0
   36.5480   27.3620   43.5690 C   0  0  0  0  0  2  0  0  0  0  0  0
   37.1040   26.6360   42.3900 C   0  0  0  0  0  2  0  0  0  0  0  0
   37.8820   27.6600   41.6260 C   0  0  0  0  0  3  0  0  0  0  0  0
   37.4070   27.7310   40.6130 H   0  0  0  0  0  0  0  0  0  0  0  0
   40.1910   30.3530   42.4390 N   0  0  0  0  0  0  0  0  0  0  0  0
   40.0450   30.8540   43.3430 H   0  0  0  0  0  0  0  0  0  0  0  0
   40.9300   29.6920   42.1030 H   0  0  0  0  0  0  0  0  0  0  0  0
  1  7  1  0  0  0  0
  1  2  1  0  0  0  0
  2 15  1  0  0  0  0
  3  2  2  0  0  0  0
  3  9  1  0  0  0  0
  4  3  1  0  0  0  0
  5  6  1  0  0  0  0
  5  4  2  0  0  0  0
  6  1  2  0  0  0  0
  8  5  1  0  0  0  0
  9 10  1  0  0  0  0
 11 10  1  0  0  0  0
 12 11  1  0  0  0  0
 13  9  1  0  0  0  0
 13 12  1  0  0  0  0
 14 13  1  0  0  0  0
 15 16  1  0  0  0  0
 17 15  1  0  0  0  0
M  END
>  <minimizedAffinity>
-3.88146591

$$$$

 OpenBabel03242522123D

 17 18  0  0  0  0  0  0  0  0999 V2000
   34.8890   29.3040   39.1730 C   0  0  0  0  0  0  0  0  0  0  0  0
   35.6450   29.4010   40.3610 C   0  0  0  0  0  0  0  0  0  0  0  0
   36.4790   28.3180   40.6800 C   0  0  0  0  0  0  0  0  0  0  0  0
   36.5000   27.2570   39.8260 N   0  0  0  0  0  0  0  0  0  0  0  0
   35.7570   27.2100   38.6990 C   0  0  0  0  0  0  0  0  0  0  0  0
   34.9530   28.2350   38.3760 N   0  0  0  0  0  0  0  0  0  0  0  0
   34.2530   30.1220   38.9240 H   0  0  0  0  0  0  0  0  0  0  0  0
   35.9610   26.2640   38.2110 H   0  0  0  0  0  0  0  0  0  0  0  0
   37.2330   28.4110   41.8620 N   0  0  0  0  0  0  0  0  0  0  0  0
   36.9810   27.9800   43.1960 C   0  0  0  0  0  2  0  0  0  0  0  0
   38.3200   27.4590   43.6750 C   0  0  0  0  0  2  0  0  0  0  0  0
   39.2860   28.4110   43.0520 C   0  0  0  0  0  2  0  0  0  0  0  0
   38.5460   29.0370   41.9130 C   0  0  0  0  0  3  0  0  0  0  0  0
   39.1130   28.7760   40.9820 H   0  0  0  0  0  0  0  0  0  0  0  0
   35.5100   30.5780   41.1450 N   0  0  0  0  0  0  0  0  0  0  0  0
   34.6650   30.2980   41.6890 H   0  0  0  0  0  0  0  0  0  0  0  0
   36.1030   31.4410   41.1470 H   0  0  0  0  0  0  0  0  0  0  0  0
  1  2  1  0  0  0  0
  2  3  2  0  0  0  0
  2 15  1  0  0  0  0
  3  9  1  0  0  0  0
  4  3  1  0  0  0  0
  5  4  2  0  0  0  0
  6  5  1  0  0  0  0
  6  1  2  0  0  0  0
  7  1  1  0  0  0  0
  8  5  1  0  0  0  0
  9 13  1  0  0  0  0
  9 10  1  0  0  0  0
 10 11  1  0  0  0  0
 12 11  1  0  0  0  0
 13 12  1  0  0  0  0
 14 13  1  0  0  0  0
 15 17  1  0  0  0  0
 15 16  1  0  0  0  0
M  END
>  <minimizedAffinity>
-3.87037826

$$$$

 OpenBabel03242522123D

 17 18  0  0  0  0  0  0  0  0999 V2000
   35.4460   29.4830   39.3330 C   0  0  0  0  0  0  0  0  0  0  0  0
   36.1880   30.4550   40.0380 C   0  0  0  0  0  0  0  0  0  0  0  0
   37.2550   31.0650   39.3570 C   0  0  0  0  0  0  0  0  0  0  0  0
   37.4940   30.6780   38.0730 N   0  0  0  0  0  0  0  0  0  0  0  0
   36.7540   29.7420   37.4400 C   0  0  0  0  0  0  0  0  0  0  0  0
   35.7310   29.1470   38.0740 N   0  0  0  0  0  0  0  0  0  0  0  0
   34.6350   29.0160   39.8440 H   0  0  0  0  0  0  0  0  0  0  0  0
   37.1560   29.6270   36.4410 H   0  0  0  0  0  0  0  0  0  0  0  0
   37.9960   32.0330   40.0560 N   0  0  0  0  0  0  0  0  0  0  0  0
   39.0790   31.9300   40.9750 C   0  0  0  0  0  2  0  0  0  0  0  0
   39.9910   33.0790   40.6000 C   0  0  0  0  0  2  0  0  0  0  0  0
   39.0280   34.1610   40.2410 C   0  0  0  0  0  2  0  0  0  0  0  0
   37.7430   33.4600   39.9330 C   0  0  0  0  0  3  0  0  0  0  0  0
   37.4970   33.6990   38.8660 H   0  0  0  0  0  0  0  0  0  0  0  0
   35.8100   30.7460   41.3760 N   0  0  0  0  0  0  0  0  0  0  0  0
   36.3360   29.9790   41.8490 H   0  0  0  0  0  0  0  0  0  0  0  0
   35.1900   31.5100   41.7340 H   0  0  0  0  0  0  0  0  0  0  0  0
  1  7  1  0  0  0  0
  1  2  1  0  0  0  0
  2 15  1  0  0  0  0
  3  2  2  0  0  0  0
  3  9  1  0  0  0  0
  4  3  1  0  0  0  0
  5  4  2  0  0  0  0
  5  6  1  0  0  0  0
  6  1  2  0  0  0  0
  8  5  1  0  0  0  0
  9 10  1  0  0  0  0
 11 10  1  0  0  0  0
 12 11  1  0  0  0  0
 13  9  1  0  0  0  0
 13 12  1  0  0  0  0
 14 13  1  0  0  0  0
 15 17  1  0  0  0  0
 15 16  1  0  0  0  0
M  END
>  <minimizedAffinity>
-3.78653836

$$$$

 OpenBabel03242522123D

 17 18  0  0  0  0  0  0  0  0999 V2000
   37.1800   27.0580   42.7250 C   0  0  0  0  0  0  0  0  0  0  0  0
   37.3430   28.4470   42.5340 C   0  0  0  0  0  0  0  0  0  0  0  0
   37.5120   28.8970   41.2150 C   0  0  0  0  0  0  0  0  0  0  0  0
   37.5050   27.9670   40.2190 N   0  0  0  0  0  0  0  0  0  0  0  0
   37.3440   26.6460   40.4520 C   0  0  0  0  0  0  0  0  0  0  0  0
   37.1820   26.1960   41.7070 N   0  0  0  0  0  0  0  0  0  0  0  0
   37.0520   26.7090   43.7250 H   0  0  0  0  0  0  0  0  0  0  0  0
   37.3790   26.1370   39.4970 H   0  0  0  0  0  0  0  0  0  0  0  0
   37.6740   30.2790   41.0200 N   0  0  0  0  0  0  0  0  0  0  0  0
   38.8150   31.1280   41.0920 C   0  0  0  0  0  2  0  0  0  0  0  0
   38.6300   32.0930   39.9390 C   0  0  0  0  0  2  0  0  0  0  0  0
   37.1560   32.3250   39.9380 C   0  0  0  0  0  2  0  0  0  0  0  0
   36.5710   31.1620   40.6740 C   0  0  0  0  0  3  0  0  0  0  0  0
   35.8930   30.6370   39.9530 H   0  0  0  0  0  0  0  0  0  0  0  0
   37.3270   29.2870   43.6800 N   0  0  0  0  0  0  0  0  0  0  0  0
   38.3310   29.1910   43.9480 H   0  0  0  0  0  0  0  0  0  0  0  0
   36.5280   29.8220   44.0930 H   0  0  0  0  0  0  0  0  0  0  0  0
  1  7  1  0  0  0  0
  2  1  1  0  0  0  0
  2 15  1  0  0  0  0
  3  2  2  0  0  0  0
  4  5  2  0  0  0  0
  4  3  1  0  0  0  0
  5  6  1  0  0  0  0
  6  1  2  0  0  0  0
  8  5  1  0  0  0  0
  9 10  1  0  0  0  0
  9  3  1  0  0  0  0
 11 10  1  0  0  0  0
 12 11  1  0  0  0  0
 12 13  1  0  0  0  0
 13  9  1  0  0  0  0
 14 13  1  0  0  0  0
 15 16  1  0  0  0  0
 15 17  1  0  0  0  0
M  END
>  <minimizedAffinity>
-3.78193378

$$$$

 OpenBabel03242522123D

 17 18  0  0  0  0  0  0  0  0999 V2000
   38.9200   30.9780   39.0580 C   0  0  0  0  0  0  0  0  0  0  0  0
   38.6290   29.9780   40.0110 C   0  0  0  0  0  0  0  0  0  0  0  0
   37.5830   30.2360   40.9110 C   0  0  0  0  0  0  0  0  0  0  0  0
   36.9260   31.4240   40.8010 N   0  0  0  0  0  0  0  0  0  0  0  0
   37.2410   32.3510   39.8710 C   0  0  0  0  0  0  0  0  0  0  0  0
   38.2390   32.1240   39.0010 N   0  0  0  0  0  0  0  0  0  0  0  0
   39.7140   30.7900   38.3720 H   0  0  0  0  0  0  0  0  0  0  0  0
   36.5700   33.1910   40.0040 H   0  0  0  0  0  0  0  0  0  0  0  0
   37.2910   29.2420   41.8610 N   0  0  0  0  0  0  0  0  0  0  0  0
   36.3800   28.1470   41.8520 C   0  0  0  0  0  2  0  0  0  0  0  0
   37.1460   27.0260   42.5230 C   0  0  0  0  0  2  0  0  0  0  0  0
   37.9080   27.7390   43.5900 C   0  0  0  0  0  2  0  0  0  0  0  0
   37.9510   29.1700   43.1560 C   0  0  0  0  0  3  0  0  0  0  0  0
   39.0330   29.4330   43.0300 H   0  0  0  0  0  0  0  0  0  0  0  0
   39.4100   28.7910   39.9940 N   0  0  0  0  0  0  0  0  0  0  0  0
   40.2090   29.1310   40.5730 H   0  0  0  0  0  0  0  0  0  0  0  0
   39.2060   27.8750   39.5310 H   0  0  0  0  0  0  0  0  0  0  0  0
  1  2  1  0  0  0  0
  2  3  2  0  0  0  0
  3  9  1  0  0  0  0
  4  3  1  0  0  0  0
  5  8  1  0  0  0  0
  5  4  2  0  0  0  0
  6  1  2  0  0  0  0
  6  5  1  0  0  0  0
  7  1  1  0  0  0  0
  9 13  1  0  0  0  0
 10  9  1  0  0  0  0
 10 11  1  0  0  0  0
 11 12  1  0  0  0  0
 13 12  1  0  0  0  0
 14 13  1  0  0  0  0
 15  2  1  0  0  0  0
 15 16  1  0  0  0  0
 17 15  1  0  0  0  0
M  END
>  <minimizedAffinity>
-3.61369514

$$$$
