
 OpenBabel03242522093D

 17 18  0  0  0  0  0  0  0  0999 V2000
   44.5410   35.5590   45.1420 C   0  0  0  0  0  0  0  0  0  0  0  0
   45.1380   35.6800   43.8690 C   0  0  0  0  0  0  0  0  0  0  0  0
   46.0950   34.7160   43.5150 C   0  0  0  0  0  0  0  0  0  0  0  0
   46.3780   33.7370   44.4190 N   0  0  0  0  0  0  0  0  0  0  0  0
   45.7790   33.6630   45.6280 C   0  0  0  0  0  0  0  0  0  0  0  0
   44.8610   34.5750   45.9860 N   0  0  0  0  0  0  0  0  0  0  0  0
   43.8140   36.2870   45.4180 H   0  0  0  0  0  0  0  0  0  0  0  0
   46.1840   32.7990   46.1420 H   0  0  0  0  0  0  0  0  0  0  0  0
   46.6910   34.8330   42.2480 N   0  0  0  0  0  0  0  0  0  0  0  0
   47.9090   35.4300   41.8140 C   0  0  0  0  0  0  0  0  0  0  0  0
   48.4380   34.4700   40.7680 C   0  0  0  0  0  0  0  0  0  0  0  0
   47.1940   34.0190   40.0770 C   0  0  0  0  0  0  0  0  0  0  0  0
   46.0830   34.3010   41.0380 C   0  0  0  0  0  0  0  0  0  0  0  0
   45.6050   33.3140   41.2710 H   0  0  0  0  0  0  0  0  0  0  0  0
   44.7320   36.7600   43.0400 N   0  0  0  0  0  0  0  0  0  0  0  0
   45.3710   37.4900   43.4250 H   0  0  0  0  0  0  0  0  0  0  0  0
   44.0090   36.7760   42.2840 H   0  0  0  0  0  0  0  0  0  0  0  0
  1  7  1  0  0  0  0
  1  6  1  0  0  0  0
  2  1  2  0  0  0  0
  3  2  1  0  0  0  0
  3  4  2  0  0  0  0
  4  5  1  0  0  0  0
  5  6  2  0  0  0  0
  5  8  1  0  0  0  0
  9  3  1  0  0  0  0
 10  9  1  0  0  0  0
 11 10  1  0  0  0  0
 12 11  1  0  0  0  0
 12 13  1  0  0  0  0
 13 14  1  0  0  0  0
 13  9  1  0  0  0  0
 15 16  1  0  0  0  0
 15  2  1  0  0  0  0
 17 15  1  0  0  0  0
M  END
>  <minimizedAffinity>
-4.44203711

>  <minimizedRMSD>
2.00508094

$$$$
