
 OpenBabel03252505523D

 22 23  0  0  0  0  0  0  0  0999 V2000
   36.6680   31.3140   40.6810 C   0  0  0  0  0  0  0  0  0  0  0  0
   37.9440   31.9070   40.6440 C   0  0  0  0  0  0  0  0  0  0  0  0
   38.9500   31.2930   41.3980 C   0  0  0  0  0  0  0  0  0  0  0  0
   38.6660   30.1850   42.1120 N   0  0  0  0  0  0  0  0  0  0  0  0
   37.4410   29.6520   42.1220 C   0  0  0  0  0  0  0  0  0  0  0  0
   36.4410   30.2020   41.4150 N   0  0  0  0  0  0  0  0  0  0  0  0
   35.8280   31.7150   40.1320 H   0  0  0  0  0  0  0  0  0  0  0  0
   39.9150   31.7700   41.3500 H   0  0  0  0  0  0  0  0  0  0  0  0
   38.1110   33.1360   39.8060 C   0  0  0  0  0  0  0  0  0  0  0  0
   38.4390   34.1380   40.6970 F   0  0  0  0  0  0  0  0  0  0  0  0
   36.9030   33.3770   39.1960 F   0  0  0  0  0  0  0  0  0  0  0  0
   39.1040   32.8860   38.8860 F   0  0  0  0  0  0  0  0  0  0  0  0
   37.1250   28.5120   42.8500 O   0  0  0  0  0  0  0  0  0  0  0  0
   38.0960   27.5950   43.2730 C   0  0  0  0  0  0  0  0  0  0  0  0
   37.6480   27.0510   44.1530 H   0  0  0  0  0  0  0  0  0  0  0  0
   39.0110   28.0580   43.6540 H   0  0  0  0  0  0  0  0  0  0  0  0
   38.3500   26.5790   42.2710 N   0  0  0  0  0  0  0  0  0  0  0  0
   39.1780   25.5080   42.7800 C   0  0  0  0  0  2  0  0  0  0  0  0
   38.7330   24.3070   41.9730 C   0  0  0  0  0  2  0  0  0  0  0  0
   37.2140   24.5000   42.0710 C   0  0  0  0  0  2  0  0  0  0  0  0
   37.1570   25.9950   41.7510 C   0  0  0  0  0  3  0  0  0  0  0  0
   36.2300   26.4250   42.1260 H   0  0  0  0  0  0  0  0  0  0  0  0
  1  6  1  0  0  0  0
  2  1  2  0  0  0  0
  2  3  1  0  0  0  0
  3  4  2  0  0  0  0
  4  5  1  0  0  0  0
  5 13  1  0  0  0  0
  6  5  2  0  0  0  0
  7  1  1  0  0  0  0
  8  3  1  0  0  0  0
  9  2  1  0  0  0  0
  9 10  1  0  0  0  0
 11  9  1  0  0  0  0
 12  9  1  0  0  0  0
 13 14  1  0  0  0  0
 14 16  1  0  0  0  0
 14 15  1  0  0  0  0
 17 18  1  0  0  0  0
 17 14  1  0  0  0  0
 19 20  1  0  0  0  0
 19 18  1  0  0  0  0
 21 20  1  0  0  0  0
 21 22  1  0  0  0  0
 21 17  1  0  0  0  0
M  END
>  <minimizedAffinity>
-4.66339302

$$$$

 OpenBabel03252505523D

 22 23  0  0  0  0  0  0  0  0999 V2000
   38.8600   27.1000   41.5240 C   0  0  0  0  0  0  0  0  0  0  0  0
   37.7680   26.6110   42.2630 C   0  0  0  0  0  0  0  0  0  0  0  0
   37.1140   27.5190   43.1040 C   0  0  0  0  0  0  0  0  0  0  0  0
   37.5440   28.7940   43.1700 N   0  0  0  0  0  0  0  0  0  0  0  0
   38.5860   29.2220   42.4520 C   0  0  0  0  0  0  0  0  0  0  0  0
   39.2470   28.3920   41.6300 N   0  0  0  0  0  0  0  0  0  0  0  0
   39.4280   26.4770   40.8480 H   0  0  0  0  0  0  0  0  0  0  0  0
   36.2820   27.1130   43.6570 H   0  0  0  0  0  0  0  0  0  0  0  0
   37.4050   25.1690   42.0870 C   0  0  0  0  0  0  0  0  0  0  0  0
   38.4930   24.4630   42.5590 F   0  0  0  0  0  0  0  0  0  0  0  0
   37.2130   24.9630   40.7420 F   0  0  0  0  0  0  0  0  0  0  0  0
   36.2550   24.9350   42.8070 F   0  0  0  0  0  0  0  0  0  0  0  0
   39.0460   30.5320   42.5040 O   0  0  0  0  0  0  0  0  0  0  0  0
   39.2710   31.2980   41.3530 C   0  0  0  0  0  0  0  0  0  0  0  0
   39.5510   30.5670   40.5420 H   0  0  0  0  0  0  0  0  0  0  0  0
   40.1200   31.9840   41.4330 H   0  0  0  0  0  0  0  0  0  0  0  0
   38.0590   31.9480   40.8950 N   0  0  0  0  0  0  0  0  0  0  0  0
   38.3020   33.3040   40.4550 C   0  0  0  0  0  2  0  0  0  0  0  0
   37.2390   33.5270   39.4000 C   0  0  0  0  0  2  0  0  0  0  0  0
   37.3850   32.2080   38.6290 C   0  0  0  0  0  2  0  0  0  0  0  0
   37.4220   31.2520   39.8240 C   0  0  0  0  0  3  0  0  0  0  0  0
   37.8900   30.3120   39.5410 H   0  0  0  0  0  0  0  0  0  0  0  0
  1  6  2  0  0  0  0
  1  2  1  0  0  0  0
  2  3  2  0  0  0  0
  3  4  1  0  0  0  0
  3  8  1  0  0  0  0
  5 13  1  0  0  0  0
  5  4  2  0  0  0  0
  6  5  1  0  0  0  0
  7  1  1  0  0  0  0
  9  2  1  0  0  0  0
  9 10  1  0  0  0  0
  9 12  1  0  0  0  0
 11  9  1  0  0  0  0
 14 16  1  0  0  0  0
 14 13  1  0  0  0  0
 15 14  1  0  0  0  0
 17 14  1  0  0  0  0
 18 17  1  0  0  0  0
 19 18  1  0  0  0  0
 20 19  1  0  0  0  0
 20 21  1  0  0  0  0
 21 17  1  0  0  0  0
 22 21  1  0  0  0  0
M  END
>  <minimizedAffinity>
-4.47136545

$$$$

 OpenBabel03252505523D

 22 23  0  0  0  0  0  0  0  0999 V2000
   37.6510   26.7960   40.6220 C   0  0  0  0  0  0  0  0  0  0  0  0
   37.3200   26.0120   41.7420 C   0  0  0  0  0  0  0  0  0  0  0  0
   36.9270   26.6930   42.9000 C   0  0  0  0  0  0  0  0  0  0  0  0
   36.8810   28.0400   42.8970 N   0  0  0  0  0  0  0  0  0  0  0  0
   37.2040   28.7510   41.8120 C   0  0  0  0  0  0  0  0  0  0  0  0
   37.5860   28.1460   40.6780 N   0  0  0  0  0  0  0  0  0  0  0  0
   37.9660   26.3630   39.6840 H   0  0  0  0  0  0  0  0  0  0  0  0
   36.6800   26.0640   43.7400 H   0  0  0  0  0  0  0  0  0  0  0  0
   37.4180   24.5250   41.5970 C   0  0  0  0  0  0  0  0  0  0  0  0
   36.1110   24.0830   41.5340 F   0  0  0  0  0  0  0  0  0  0  0  0
   38.0590   24.0510   42.7160 F   0  0  0  0  0  0  0  0  0  0  0  0
   38.1330   24.2600   40.4510 F   0  0  0  0  0  0  0  0  0  0  0  0
   37.1630   30.1390   41.7870 O   0  0  0  0  0  0  0  0  0  0  0  0
   36.2360   30.8530   41.0160 C   0  0  0  0  0  0  0  0  0  0  0  0
   35.6250   31.4580   41.7460 H   0  0  0  0  0  0  0  0  0  0  0  0
   35.5160   30.2210   40.4870 H   0  0  0  0  0  0  0  0  0  0  0  0
   36.8850   31.8180   40.1520 N   0  0  0  0  0  0  0  0  0  0  0  0
   38.2130   32.1550   40.6130 C   0  0  0  0  0  2  0  0  0  0  0  0
   38.9510   32.5010   39.3360 C   0  0  0  0  0  2  0  0  0  0  0  0
   38.4870   31.3270   38.4640 C   0  0  0  0  0  2  0  0  0  0  0  0
   36.9950   31.3740   38.8000 C   0  0  0  0  0  3  0  0  0  0  0  0
   36.5300   30.4130   38.5900 H   0  0  0  0  0  0  0  0  0  0  0  0
  1  6  2  0  0  0  0
  1  2  1  0  0  0  0
  2  3  2  0  0  0  0
  3  8  1  0  0  0  0
  4  3  1  0  0  0  0
  5  4  2  0  0  0  0
  6  5  1  0  0  0  0
  7  1  1  0  0  0  0
  9  2  1  0  0  0  0
  9 11  1  0  0  0  0
 10  9  1  0  0  0  0
 12  9  1  0  0  0  0
 13  5  1  0  0  0  0
 14 15  1  0  0  0  0
 14 13  1  0  0  0  0
 16 14  1  0  0  0  0
 17 18  1  0  0  0  0
 17 14  1  0  0  0  0
 19 18  1  0  0  0  0
 20 21  1  0  0  0  0
 20 19  1  0  0  0  0
 21 17  1  0  0  0  0
 22 21  1  0  0  0  0
M  END
>  <minimizedAffinity>
-4.38030243

$$$$

 OpenBabel03252505523D

 22 23  0  0  0  0  0  0  0  0999 V2000
   37.2840   26.3530   40.4430 C   0  0  0  0  0  0  0  0  0  0  0  0
   37.5480   25.9940   41.7770 C   0  0  0  0  0  0  0  0  0  0  0  0
   37.1230   26.8840   42.7700 C   0  0  0  0  0  0  0  0  0  0  0  0
   36.4910   28.0210   42.4180 N   0  0  0  0  0  0  0  0  0  0  0  0
   36.2580   28.3280   41.1380 C   0  0  0  0  0  0  0  0  0  0  0  0
   36.6460   27.5080   40.1490 N   0  0  0  0  0  0  0  0  0  0  0  0
   37.5740   25.7310   39.6080 H   0  0  0  0  0  0  0  0  0  0  0  0
   37.3400   26.5810   43.7810 H   0  0  0  0  0  0  0  0  0  0  0  0
   38.2590   24.6970   42.0160 C   0  0  0  0  0  0  0  0  0  0  0  0
   38.8840   24.4040   40.8210 F   0  0  0  0  0  0  0  0  0  0  0  0
   37.3000   23.7630   42.3290 F   0  0  0  0  0  0  0  0  0  0  0  0
   39.1420   24.8870   43.0550 F   0  0  0  0  0  0  0  0  0  0  0  0
   35.6100   29.4940   40.7530 O   0  0  0  0  0  0  0  0  0  0  0  0
   36.1080   30.7690   41.0540 C   0  0  0  0  0  0  0  0  0  0  0  0
   36.4390   30.7270   42.1310 H   0  0  0  0  0  0  0  0  0  0  0  0
   35.3570   31.5630   41.0100 H   0  0  0  0  0  0  0  0  0  0  0  0
   37.3000   31.0740   40.2880 N   0  0  0  0  0  0  0  0  0  0  0  0
   37.1160   32.2240   39.4310 C   0  0  0  0  0  2  0  0  0  0  0  0
   38.5070   32.8130   39.3290 C   0  0  0  0  0  2  0  0  0  0  0  0
   38.9040   32.7510   40.8110 C   0  0  0  0  0  2  0  0  0  0  0  0
   38.4430   31.3230   41.1060 C   0  0  0  0  0  3  0  0  0  0  0  0
   38.2830   31.1910   42.1750 H   0  0  0  0  0  0  0  0  0  0  0  0
  1  2  1  0  0  0  0
  2  9  1  0  0  0  0
  2  3  2  0  0  0  0
  3  8  1  0  0  0  0
  4  3  1  0  0  0  0
  5  4  2  0  0  0  0
  6  1  2  0  0  0  0
  6  5  1  0  0  0  0
  7  1  1  0  0  0  0
  9 11  1  0  0  0  0
  9 12  1  0  0  0  0
 10  9  1  0  0  0  0
 13 14  1  0  0  0  0
 13  5  1  0  0  0  0
 14 15  1  0  0  0  0
 16 14  1  0  0  0  0
 17 14  1  0  0  0  0
 17 21  1  0  0  0  0
 18 17  1  0  0  0  0
 19 18  1  0  0  0  0
 19 20  1  0  0  0  0
 20 21  1  0  0  0  0
 21 22  1  0  0  0  0
M  END
>  <minimizedAffinity>
-4.19696188

$$$$

 OpenBabel03252505523D

 22 23  0  0  0  0  0  0  0  0999 V2000
   37.3510   30.1210   41.1480 C   0  0  0  0  0  0  0  0  0  0  0  0
   38.0280   29.3230   42.0880 C   0  0  0  0  0  0  0  0  0  0  0  0
   39.1930   29.8570   42.6510 C   0  0  0  0  0  0  0  0  0  0  0  0
   39.6100   31.0840   42.2810 N   0  0  0  0  0  0  0  0  0  0  0  0
   38.9390   31.8130   41.3840 C   0  0  0  0  0  0  0  0  0  0  0  0
   37.8160   31.3470   40.8160 N   0  0  0  0  0  0  0  0  0  0  0  0
   36.4430   29.7970   40.6590 H   0  0  0  0  0  0  0  0  0  0  0  0
   39.6890   29.2210   43.3670 H   0  0  0  0  0  0  0  0  0  0  0  0
   37.4460   27.9790   42.4000 C   0  0  0  0  0  0  0  0  0  0  0  0
   37.8790   27.6890   43.6790 F   0  0  0  0  0  0  0  0  0  0  0  0
   37.9560   27.0940   41.4810 F   0  0  0  0  0  0  0  0  0  0  0  0
   36.0770   28.0820   42.3040 F   0  0  0  0  0  0  0  0  0  0  0  0
   39.3490   33.0790   40.9890 O   0  0  0  0  0  0  0  0  0  0  0  0
   39.5370   33.4250   39.6440 C   0  0  0  0  0  0  0  0  0  0  0  0
   39.6100   34.5500   39.6200 H   0  0  0  0  0  0  0  0  0  0  0  0
   38.6920   33.1740   38.9970 H   0  0  0  0  0  0  0  0  0  0  0  0
   40.8040   32.9380   39.1360 N   0  0  0  0  0  0  0  0  0  0  0  0
   40.6800   32.3830   37.8070 C   0  0  0  0  0  2  0  0  0  0  0  0
   42.0420   32.6310   37.1940 C   0  0  0  0  0  2  0  0  0  0  0  0
   42.2410   34.0890   37.6300 C   0  0  0  0  0  2  0  0  0  0  0  0
   41.8140   33.9450   39.0920 C   0  0  0  0  0  3  0  0  0  0  0  0
   41.5210   34.9120   39.4960 H   0  0  0  0  0  0  0  0  0  0  0  0
  1  2  1  0  0  0  0
  2  9  1  0  0  0  0
  2  3  2  0  0  0  0
  3  8  1  0  0  0  0
  4  3  1  0  0  0  0
  5  4  2  0  0  0  0
  6  1  2  0  0  0  0
  6  5  1  0  0  0  0
  7  1  1  0  0  0  0
  9 10  1  0  0  0  0
 11  9  1  0  0  0  0
 12  9  1  0  0  0  0
 13  5  1  0  0  0  0
 14 13  1  0  0  0  0
 15 14  1  0  0  0  0
 16 14  1  0  0  0  0
 17 14  1  0  0  0  0
 18 17  1  0  0  0  0
 19 20  1  0  0  0  0
 19 18  1  0  0  0  0
 20 21  1  0  0  0  0
 21 17  1  0  0  0  0
 21 22  1  0  0  0  0
M  END
>  <minimizedAffinity>
-4.195014

$$$$

 OpenBabel03252505523D

 22 23  0  0  0  0  0  0  0  0999 V2000
   36.5150   30.3520   39.0740 C   0  0  0  0  0  0  0  0  0  0  0  0
   37.2580   31.3900   39.6650 C   0  0  0  0  0  0  0  0  0  0  0  0
   37.6410   31.2160   41.0000 C   0  0  0  0  0  0  0  0  0  0  0  0
   37.2920   30.0890   41.6510 N   0  0  0  0  0  0  0  0  0  0  0  0
   36.5850   29.1240   41.0550 C   0  0  0  0  0  0  0  0  0  0  0  0
   36.1940   29.2420   39.7770 N   0  0  0  0  0  0  0  0  0  0  0  0
   36.1750   30.3950   38.0490 H   0  0  0  0  0  0  0  0  0  0  0  0
   38.2090   32.0290   41.4240 H   0  0  0  0  0  0  0  0  0  0  0  0
   37.5730   32.5850   38.8180 C   0  0  0  0  0  0  0  0  0  0  0  0
   38.9110   32.8410   39.0400 F   0  0  0  0  0  0  0  0  0  0  0  0
   36.7800   33.6150   39.2620 F   0  0  0  0  0  0  0  0  0  0  0  0
   37.2960   32.2570   37.5100 F   0  0  0  0  0  0  0  0  0  0  0  0
   36.2140   27.9550   41.7060 O   0  0  0  0  0  0  0  0  0  0  0  0
   36.5990   27.6710   43.0230 C   0  0  0  0  0  0  0  0  0  0  0  0
   35.6910   27.2270   43.5230 H   0  0  0  0  0  0  0  0  0  0  0  0
   36.8530   28.5560   43.6140 H   0  0  0  0  0  0  0  0  0  0  0  0
   37.6180   26.6430   43.0760 N   0  0  0  0  0  0  0  0  0  0  0  0
   37.5490   25.7490   41.9410 C   0  0  0  0  0  2  0  0  0  0  0  0
   38.9840   25.2990   41.7600 C   0  0  0  0  0  2  0  0  0  0  0  0
   39.6820   26.6590   41.8930 C   0  0  0  0  0  2  0  0  0  0  0  0
   38.9430   27.1700   43.1320 C   0  0  0  0  0  3  0  0  0  0  0  0
   39.0060   28.2540   43.1890 H   0  0  0  0  0  0  0  0  0  0  0  0
  1  2  2  0  0  0  0
  1  6  1  0  0  0  0
  2  3  1  0  0  0  0
  3  8  1  0  0  0  0
  3  4  2  0  0  0  0
  5  4  1  0  0  0  0
  5 13  1  0  0  0  0
  6  5  2  0  0  0  0
  7  1  1  0  0  0  0
  9 10  1  0  0  0  0
  9 11  1  0  0  0  0
  9  2  1  0  0  0  0
 12  9  1  0  0  0  0
 13 14  1  0  0  0  0
 14 17  1  0  0  0  0
 14 15  1  0  0  0  0
 14 16  1  0  0  0  0
 17 21  1  0  0  0  0
 18 17  1  0  0  0  0
 19 20  1  0  0  0  0
 19 18  1  0  0  0  0
 20 21  1  0  0  0  0
 21 22  1  0  0  0  0
M  END
>  <minimizedAffinity>
-4.13080311

$$$$

 OpenBabel03252505523D

 22 23  0  0  0  0  0  0  0  0999 V2000
   38.2610   29.6330   41.6940 C   0  0  0  0  0  0  0  0  0  0  0  0
   36.9590   29.1280   41.5230 C   0  0  0  0  0  0  0  0  0  0  0  0
   36.6860   27.8750   42.0830 C   0  0  0  0  0  0  0  0  0  0  0  0
   37.6570   27.2170   42.7480 N   0  0  0  0  0  0  0  0  0  0  0  0
   38.8820   27.7300   42.8900 C   0  0  0  0  0  0  0  0  0  0  0  0
   39.1950   28.9280   42.3720 N   0  0  0  0  0  0  0  0  0  0  0  0
   38.5680   30.5910   41.2990 H   0  0  0  0  0  0  0  0  0  0  0  0
   35.6810   27.5160   41.9340 H   0  0  0  0  0  0  0  0  0  0  0  0
   35.9860   29.9720   40.7600 C   0  0  0  0  0  0  0  0  0  0  0  0
   35.8470   31.1250   41.5070 F   0  0  0  0  0  0  0  0  0  0  0  0
   34.8070   29.2690   40.6930 F   0  0  0  0  0  0  0  0  0  0  0  0
   36.5150   30.1990   39.5100 F   0  0  0  0  0  0  0  0  0  0  0  0
   39.8970   27.0700   43.5710 O   0  0  0  0  0  0  0  0  0  0  0  0
   39.9480   25.6740   43.6790 C   0  0  0  0  0  0  0  0  0  0  0  0
   39.0540   25.2850   43.1130 H   0  0  0  0  0  0  0  0  0  0  0  0
   39.8310   25.3010   44.7010 H   0  0  0  0  0  0  0  0  0  0  0  0
   41.1080   25.1250   43.0050 N   0  0  0  0  0  0  0  0  0  0  0  0
   41.0340   25.2930   41.5710 C   0  0  0  0  0  2  0  0  0  0  0  0
   42.4870   25.3840   41.1530 C   0  0  0  0  0  2  0  0  0  0  0  0
   42.9870   26.3580   42.2280 C   0  0  0  0  0  2  0  0  0  0  0  0
   42.3370   25.7000   43.4470 C   0  0  0  0  0  3  0  0  0  0  0  0
   42.2450   26.4180   44.2590 H   0  0  0  0  0  0  0  0  0  0  0  0
  1  6  1  0  0  0  0
  2  1  2  0  0  0  0
  2  3  1  0  0  0  0
  3  4  2  0  0  0  0
  4  5  1  0  0  0  0
  5 13  1  0  0  0  0
  6  5  2  0  0  0  0
  7  1  1  0  0  0  0
  8  3  1  0  0  0  0
  9 10  1  0  0  0  0
  9  2  1  0  0  0  0
 11  9  1  0  0  0  0
 12  9  1  0  0  0  0
 13 14  1  0  0  0  0
 14 16  1  0  0  0  0
 15 14  1  0  0  0  0
 17 21  1  0  0  0  0
 17 14  1  0  0  0  0
 18 17  1  0  0  0  0
 19 18  1  0  0  0  0
 19 20  1  0  0  0  0
 20 21  1  0  0  0  0
 21 22  1  0  0  0  0
M  END
>  <minimizedAffinity>
-4.06144571

$$$$

 OpenBabel03252505523D

 22 23  0  0  0  0  0  0  0  0999 V2000
   37.7430   29.3350   39.3040 C   0  0  0  0  0  0  0  0  0  0  0  0
   37.3180   30.6280   39.6590 C   0  0  0  0  0  0  0  0  0  0  0  0
   36.7780   30.7890   40.9400 C   0  0  0  0  0  0  0  0  0  0  0  0
   36.6880   29.7260   41.7630 N   0  0  0  0  0  0  0  0  0  0  0  0
   37.1030   28.5120   41.3900 C   0  0  0  0  0  0  0  0  0  0  0  0
   37.6280   28.3050   40.1730 N   0  0  0  0  0  0  0  0  0  0  0  0
   38.1730   29.1110   38.3380 H   0  0  0  0  0  0  0  0  0  0  0  0
   36.4610   31.7910   41.1810 H   0  0  0  0  0  0  0  0  0  0  0  0
   37.4800   31.7130   38.6390 C   0  0  0  0  0  0  0  0  0  0  0  0
   38.8330   31.9850   38.6160 F   0  0  0  0  0  0  0  0  0  0  0  0
   36.7540   32.7940   39.0800 F   0  0  0  0  0  0  0  0  0  0  0  0
   37.0050   31.2360   37.4390 F   0  0  0  0  0  0  0  0  0  0  0  0
   37.0200   27.4030   42.2220 O   0  0  0  0  0  0  0  0  0  0  0  0
   38.1510   26.7960   42.7830 C   0  0  0  0  0  0  0  0  0  0  0  0
   37.9930   26.8150   43.9000 H   0  0  0  0  0  0  0  0  0  0  0  0
   39.0830   27.3430   42.6120 H   0  0  0  0  0  0  0  0  0  0  0  0
   38.2430   25.3950   42.4250 N   0  0  0  0  0  0  0  0  0  0  0  0
   36.9540   24.8340   42.0860 C   0  0  0  0  0  2  0  0  0  0  0  0
   37.2960   23.7430   41.0930 C   0  0  0  0  0  2  0  0  0  0  0  0
   38.2860   24.5180   40.2140 C   0  0  0  0  0  2  0  0  0  0  0  0
   39.1230   25.1540   41.3270 C   0  0  0  0  0  3  0  0  0  0  0  0
   39.6440   26.0320   40.9510 H   0  0  0  0  0  0  0  0  0  0  0  0
  1  2  2  0  0  0  0
  1  6  1  0  0  0  0
  2  3  1  0  0  0  0
  3  8  1  0  0  0  0
  3  4  2  0  0  0  0
  5  4  1  0  0  0  0
  5 13  1  0  0  0  0
  6  5  2  0  0  0  0
  7  1  1  0  0  0  0
  9 11  1  0  0  0  0
  9  2  1  0  0  0  0
 10  9  1  0  0  0  0
 12  9  1  0  0  0  0
 13 14  1  0  0  0  0
 14 15  1  0  0  0  0
 16 14  1  0  0  0  0
 17 14  1  0  0  0  0
 18 17  1  0  0  0  0
 19 18  1  0  0  0  0
 20 19  1  0  0  0  0
 20 21  1  0  0  0  0
 21 17  1  0  0  0  0
 22 21  1  0  0  0  0
M  END
>  <minimizedAffinity>
-3.98839593

$$$$

 OpenBabel03252505523D

 22 23  0  0  0  0  0  0  0  0999 V2000
   37.3010   25.8830   42.1010 C   0  0  0  0  0  0  0  0  0  0  0  0
   37.5600   25.2480   40.8720 C   0  0  0  0  0  0  0  0  0  0  0  0
   38.3530   25.9440   39.9530 C   0  0  0  0  0  0  0  0  0  0  0  0
   38.8250   27.1650   40.2710 N   0  0  0  0  0  0  0  0  0  0  0  0
   38.5570   27.7370   41.4490 C   0  0  0  0  0  0  0  0  0  0  0  0
   37.8030   27.1100   42.3660 N   0  0  0  0  0  0  0  0  0  0  0  0
   36.7010   25.4250   42.8740 H   0  0  0  0  0  0  0  0  0  0  0  0
   38.5320   25.4310   39.0220 H   0  0  0  0  0  0  0  0  0  0  0  0
   36.9680   23.8890   40.6590 C   0  0  0  0  0  0  0  0  0  0  0  0
   35.7730   23.9050   41.3480 F   0  0  0  0  0  0  0  0  0  0  0  0
   37.8470   22.9760   41.1910 F   0  0  0  0  0  0  0  0  0  0  0  0
   36.8070   23.7090   39.3040 F   0  0  0  0  0  0  0  0  0  0  0  0
   39.0330   28.9930   41.7990 O   0  0  0  0  0  0  0  0  0  0  0  0
   38.1970   30.1120   41.9110 C   0  0  0  0  0  0  0  0  0  0  0  0
   38.6100   30.7250   42.7630 H   0  0  0  0  0  0  0  0  0  0  0  0
   37.1680   29.8730   42.1950 H   0  0  0  0  0  0  0  0  0  0  0  0
   38.2780   30.9630   40.7400 N   0  0  0  0  0  0  0  0  0  0  0  0
   37.0500   31.6910   40.5110 C   0  0  0  0  0  2  0  0  0  0  0  0
   37.5150   32.9600   39.8280 C   0  0  0  0  0  2  0  0  0  0  0  0
   38.7010   33.3030   40.7410 C   0  0  0  0  0  2  0  0  0  0  0  0
   39.3390   31.9150   40.8120 C   0  0  0  0  0  3  0  0  0  0  0  0
   39.9720   31.8350   41.6930 H   0  0  0  0  0  0  0  0  0  0  0  0
  1  6  1  0  0  0  0
  1  7  1  0  0  0  0
  2  1  2  0  0  0  0
  3  4  2  0  0  0  0
  3  2  1  0  0  0  0
  4  5  1  0  0  0  0
  5 13  1  0  0  0  0
  5  6  2  0  0  0  0
  8  3  1  0  0  0  0
  9  2  1  0  0  0  0
  9 11  1  0  0  0  0
  9 10  1  0  0  0  0
 12  9  1  0  0  0  0
 13 14  1  0  0  0  0
 14 16  1  0  0  0  0
 14 15  1  0  0  0  0
 17 21  1  0  0  0  0
 17 14  1  0  0  0  0
 18 17  1  0  0  0  0
 19 18  1  0  0  0  0
 19 20  1  0  0  0  0
 20 21  1  0  0  0  0
 21 22  1  0  0  0  0
M  END
>  <minimizedAffinity>
-3.94828653

$$$$
