
 OpenBabel03252504433D

 42 45  0  0  0  0  0  0  0  0999 V2000
   38.4880   28.0930   42.9640 C   0  0  0  0  0  0  0  0  0  0  0  0
   37.3380   28.7140   43.3470 C   0  0  0  0  0  0  0  0  0  0  0  0
   37.2640   29.8490   42.6340 N   0  0  0  0  0  0  0  0  0  0  0  0
   38.3100   29.9690   41.8230 C   0  0  0  0  0  0  0  0  0  0  0  0
   39.0890   28.8580   42.0300 N   0  0  0  0  0  0  0  0  0  0  0  0
   38.6770   30.9730   40.8790 N   0  0  0  0  0  0  0  0  0  0  0  0
   38.1930   30.8110   39.4880 C   0  0  0  0  0  0  0  0  0  0  0  0
   37.0460   31.8060   39.3540 C   0  0  0  0  0  0  0  0  0  0  0  0
   37.4710   33.1530   39.9000 C   0  0  0  0  0  0  0  0  0  0  0  0
   38.9760   33.2150   40.0160 C   0  0  0  0  0  0  0  0  0  0  0  0
   39.4520   32.1640   40.9990 C   0  0  0  0  0  0  0  0  0  0  0  0
   36.6570   28.3240   44.0860 H   0  0  0  0  0  0  0  0  0  0  0  0
   36.5160   30.5550   42.6790 H   0  0  0  0  0  0  0  0  0  0  0  0
   37.8250   29.7930   39.3340 H   0  0  0  0  0  0  0  0  0  0  0  0
   38.9830   31.0350   38.7560 H   0  0  0  0  0  0  0  0  0  0  0  0
   36.1050   31.4320   39.7670 H   0  0  0  0  0  0  0  0  0  0  0  0
   36.9270   31.9620   38.2480 H   0  0  0  0  0  0  0  0  0  0  0  0
   37.1140   33.9930   39.2720 H   0  0  0  0  0  0  0  0  0  0  0  0
   37.0210   33.2820   40.9090 H   0  0  0  0  0  0  0  0  0  0  0  0
   39.4590   33.1580   39.0400 H   0  0  0  0  0  0  0  0  0  0  0  0
   39.2130   34.1970   40.4950 H   0  0  0  0  0  0  0  0  0  0  0  0
   40.4990   31.9200   40.7160 H   0  0  0  0  0  0  0  0  0  0  0  0
   39.5170   32.5570   42.0340 H   0  0  0  0  0  0  0  0  0  0  0  0
   39.0070   26.7940   43.4600 C   0  0  0  0  0  0  0  0  0  0  0  0
   38.4470   26.6030   44.4130 H   0  0  0  0  0  0  0  0  0  0  0  0
   40.0980   26.8320   43.6970 H   0  0  0  0  0  0  0  0  0  0  0  0
   37.4590   25.4730   42.0650 C   0  0  0  0  0  3  0  0  0  0  0  0
   38.6650   25.6800   42.5630 C   0  0  0  0  0  3  0  0  0  0  0  0
   37.2850   24.3110   41.1760 C   0  0  0  0  0  0  0  0  0  0  0  0
   38.3150   23.3540   41.0520 C   0  0  0  0  0  0  0  0  0  0  0  0
   38.0620   22.2860   40.1910 C   0  0  0  0  0  0  0  0  0  0  0  0
   36.8950   22.2070   39.5360 N   0  0  0  0  0  0  0  0  0  0  0  0
   35.9290   23.1410   39.6770 C   0  0  0  0  0  0  0  0  0  0  0  0
   36.1390   24.1620   40.4850 N   0  0  0  0  0  0  0  0  0  0  0  0
   39.2230   23.4950   41.6150 H   0  0  0  0  0  0  0  0  0  0  0  0
   38.8420   21.5390   40.0810 H   0  0  0  0  0  0  0  0  0  0  0  0
   34.7210   22.9980   38.9570 N   0  0  0  0  0  0  0  0  0  0  0  0
   34.3770   23.7870   37.7850 C   0  0  0  0  0  2  0  0  0  0  0  0
   32.8680   23.6790   37.7710 C   0  0  0  0  0  2  0  0  0  0  0  0
   32.6910   22.1930   38.0970 C   0  0  0  0  0  2  0  0  0  0  0  0
   33.6640   22.0670   39.2670 C   0  0  0  0  0  3  0  0  0  0  0  0
   34.0810   21.0340   39.3000 H   0  0  0  0  0  0  0  0  0  0  0  0
  1  2  2  0  0  0  0
  1 24  1  0  0  0  0
  2 12  1  0  0  0  0
  3 13  1  0  0  0  0
  3  2  1  0  0  0  0
  4  5  2  0  0  0  0
  4  3  1  0  0  0  0
  5  1  1  0  0  0  0
  6 11  1  0  0  0  0
  6  4  1  0  0  0  0
  7  6  1  0  0  0  0
  8  7  1  0  0  0  0
  8 16  1  0  0  0  0
  8  9  1  0  0  0  0
  9 10  1  0  0  0  0
  9 19  1  0  0  0  0
 10 21  1  0  0  0  0
 10 11  1  0  0  0  0
 11 23  1  0  0  0  0
 14  7  1  0  0  0  0
 15  7  1  0  0  0  0
 17  8  1  0  0  0  0
 18  9  1  0  0  0  0
 20 10  1  0  0  0  0
 22 11  1  0  0  0  0
 24 26  1  0  0  0  0
 24 25  1  0  0  0  0
 27 28  2  0  0  0  0
 28 24  1  0  0  0  0
 29 27  1  0  0  0  0
 30 29  1  0  0  0  0
 30 35  1  0  0  0  0
 31 30  2  0  0  0  0
 32 33  2  0  0  0  0
 32 31  1  0  0  0  0
 33 34  1  0  0  0  0
 34 29  2  0  0  0  0
 36 31  1  0  0  0  0
 37 41  1  0  0  0  0
 37 33  1  0  0  0  0
 38 37  1  0  0  0  0
 39 38  1  0  0  0  0
 39 40  1  0  0  0  0
 40 41  1  0  0  0  0
 41 42  1  0  0  0  0
M  END
>  <minimizedAffinity>
-6.07552671

$$$$

 OpenBabel03252504433D

 42 45  0  0  0  0  0  0  0  0999 V2000
   36.2220   28.3630   38.4040 C   0  0  0  0  0  0  0  0  0  0  0  0
   35.6980   27.1740   37.9940 C   0  0  0  0  0  0  0  0  0  0  0  0
   36.2360   26.2300   38.7810 N   0  0  0  0  0  0  0  0  0  0  0  0
   37.0710   26.7680   39.6640 C   0  0  0  0  0  0  0  0  0  0  0  0
   37.0650   28.1200   39.4270 N   0  0  0  0  0  0  0  0  0  0  0  0
   37.8660   26.1940   40.7000 N   0  0  0  0  0  0  0  0  0  0  0  0
   37.2500   26.0680   42.0420 C   0  0  0  0  0  0  0  0  0  0  0  0
   36.8980   24.5900   42.1740 C   0  0  0  0  0  0  0  0  0  0  0  0
   38.0820   23.7440   41.7550 C   0  0  0  0  0  0  0  0  0  0  0  0
   39.3400   24.5810   41.7410 C   0  0  0  0  0  0  0  0  0  0  0  0
   39.1990   25.6890   40.7170 C   0  0  0  0  0  0  0  0  0  0  0  0
   34.9910   27.0710   37.1860 H   0  0  0  0  0  0  0  0  0  0  0  0
   36.0530   25.2170   38.7400 H   0  0  0  0  0  0  0  0  0  0  0  0
   36.3410   26.6750   42.0980 H   0  0  0  0  0  0  0  0  0  0  0  0
   37.9460   26.3690   42.8380 H   0  0  0  0  0  0  0  0  0  0  0  0
   35.9610   24.3280   41.6750 H   0  0  0  0  0  0  0  0  0  0  0  0
   36.7890   24.4170   43.2780 H   0  0  0  0  0  0  0  0  0  0  0  0
   38.2280   22.8690   42.4190 H   0  0  0  0  0  0  0  0  0  0  0  0
   37.8910   23.3530   40.7320 H   0  0  0  0  0  0  0  0  0  0  0  0
   39.6010   24.9320   42.7400 H   0  0  0  0  0  0  0  0  0  0  0  0
   40.1520   23.9190   41.3510 H   0  0  0  0  0  0  0  0  0  0  0  0
   39.8710   26.5110   41.0480 H   0  0  0  0  0  0  0  0  0  0  0  0
   39.5800   25.3900   39.7210 H   0  0  0  0  0  0  0  0  0  0  0  0
   35.9240   29.7060   37.8490 C   0  0  0  0  0  0  0  0  0  0  0  0
   34.8620   29.9130   38.1430 H   0  0  0  0  0  0  0  0  0  0  0  0
   35.9900   29.7340   36.7350 H   0  0  0  0  0  0  0  0  0  0  0  0
   37.8180   31.2840   37.9530 C   0  0  0  0  0  3  0  0  0  0  0  0
   36.7290   30.7610   38.4860 C   0  0  0  0  0  3  0  0  0  0  0  0
   38.5070   32.3370   38.7200 C   0  0  0  0  0  0  0  0  0  0  0  0
   37.7880   33.1220   39.6480 C   0  0  0  0  0  0  0  0  0  0  0  0
   38.5210   34.0930   40.3310 C   0  0  0  0  0  0  0  0  0  0  0  0
   39.8310   34.2430   40.0930 N   0  0  0  0  0  0  0  0  0  0  0  0
   40.4900   33.4750   39.1970 C   0  0  0  0  0  0  0  0  0  0  0  0
   39.8240   32.5480   38.5370 N   0  0  0  0  0  0  0  0  0  0  0  0
   36.7340   32.9350   39.7770 H   0  0  0  0  0  0  0  0  0  0  0  0
   37.9850   34.7070   41.0490 H   0  0  0  0  0  0  0  0  0  0  0  0
   41.8730   33.6850   38.9940 N   0  0  0  0  0  0  0  0  0  0  0  0
   42.4290   34.3490   37.8250 C   0  0  0  0  0  2  0  0  0  0  0  0
   43.8440   33.8150   37.8110 C   0  0  0  0  0  2  0  0  0  0  0  0
   44.1900   33.8980   39.3000 C   0  0  0  0  0  2  0  0  0  0  0  0
   42.9250   33.2830   39.8940 C   0  0  0  0  0  3  0  0  0  0  0  0
   42.7330   33.7180   40.9030 H   0  0  0  0  0  0  0  0  0  0  0  0
  1  5  1  0  0  0  0
  2  1  2  0  0  0  0
  2  3  1  0  0  0  0
  3  4  1  0  0  0  0
  4  6  1  0  0  0  0
  5  4  2  0  0  0  0
  6 11  1  0  0  0  0
  6  7  1  0  0  0  0
  7 14  1  0  0  0  0
  7  8  1  0  0  0  0
  7 15  1  0  0  0  0
  8 17  1  0  0  0  0
  9  8  1  0  0  0  0
  9 18  1  0  0  0  0
 10  9  1  0  0  0  0
 10 20  1  0  0  0  0
 11 22  1  0  0  0  0
 11 10  1  0  0  0  0
 12  2  1  0  0  0  0
 13  3  1  0  0  0  0
 16  8  1  0  0  0  0
 19  9  1  0  0  0  0
 21 10  1  0  0  0  0
 23 11  1  0  0  0  0
 24 25  1  0  0  0  0
 24  1  1  0  0  0  0
 24 28  1  0  0  0  0
 26 24  1  0  0  0  0
 27 28  2  0  0  0  0
 27 29  1  0  0  0  0
 29 30  1  0  0  0  0
 30 35  1  0  0  0  0
 30 31  2  0  0  0  0
 31 36  1  0  0  0  0
 32 31  1  0  0  0  0
 33 32  2  0  0  0  0
 34 29  2  0  0  0  0
 34 33  1  0  0  0  0
 37 33  1  0  0  0  0
 37 41  1  0  0  0  0
 38 37  1  0  0  0  0
 39 38  1  0  0  0  0
 39 40  1  0  0  0  0
 40 41  1  0  0  0  0
 41 42  1  0  0  0  0
M  END
>  <minimizedAffinity>
-5.94755268

$$$$

 OpenBabel03252504433D

 42 45  0  0  0  0  0  0  0  0999 V2000
   37.4870   31.8170   40.2600 C   0  0  0  0  0  0  0  0  0  0  0  0
   37.1630   32.6540   39.2350 C   0  0  0  0  0  0  0  0  0  0  0  0
   38.3150   33.1920   38.8040 N   0  0  0  0  0  0  0  0  0  0  0  0
   39.3440   32.7330   39.5090 C   0  0  0  0  0  0  0  0  0  0  0  0
   38.8230   31.8630   40.4330 N   0  0  0  0  0  0  0  0  0  0  0  0
   40.7450   32.9920   39.4320 N   0  0  0  0  0  0  0  0  0  0  0  0
   41.5510   32.1230   38.5430 C   0  0  0  0  0  0  0  0  0  0  0  0
   41.8300   32.9750   37.3100 C   0  0  0  0  0  0  0  0  0  0  0  0
   42.3080   34.3480   37.7340 C   0  0  0  0  0  0  0  0  0  0  0  0
   42.7540   34.3200   39.1780 C   0  0  0  0  0  0  0  0  0  0  0  0
   41.5770   33.9640   40.0640 C   0  0  0  0  0  0  0  0  0  0  0  0
   36.1570   32.8140   38.8800 H   0  0  0  0  0  0  0  0  0  0  0  0
   38.4280   33.8690   38.0360 H   0  0  0  0  0  0  0  0  0  0  0  0
   40.9770   31.2360   38.2620 H   0  0  0  0  0  0  0  0  0  0  0  0
   42.4940   31.8190   39.0200 H   0  0  0  0  0  0  0  0  0  0  0  0
   40.9950   32.9900   36.6040 H   0  0  0  0  0  0  0  0  0  0  0  0
   42.7180   32.4920   36.8210 H   0  0  0  0  0  0  0  0  0  0  0  0
   43.1380   34.7180   37.0990 H   0  0  0  0  0  0  0  0  0  0  0  0
   41.4650   35.0640   37.6250 H   0  0  0  0  0  0  0  0  0  0  0  0
   43.6230   33.6770   39.3190 H   0  0  0  0  0  0  0  0  0  0  0  0
   43.0170   35.3730   39.4440 H   0  0  0  0  0  0  0  0  0  0  0  0
   42.0010   33.5030   40.9820 H   0  0  0  0  0  0  0  0  0  0  0  0
   41.0310   34.8610   40.4170 H   0  0  0  0  0  0  0  0  0  0  0  0
   36.5560   30.9800   41.0560 C   0  0  0  0  0  0  0  0  0  0  0  0
   35.6470   30.8630   40.4090 H   0  0  0  0  0  0  0  0  0  0  0  0
   36.2460   31.4720   42.0090 H   0  0  0  0  0  0  0  0  0  0  0  0
   37.4730   29.1540   42.4380 C   0  0  0  0  0  3  0  0  0  0  0  0
   37.0750   29.6200   41.2680 C   0  0  0  0  0  3  0  0  0  0  0  0
   37.9630   27.7650   42.4810 C   0  0  0  0  0  0  0  0  0  0  0  0
   38.8330   27.3520   43.5140 C   0  0  0  0  0  0  0  0  0  0  0  0
   39.2430   26.0200   43.4770 C   0  0  0  0  0  0  0  0  0  0  0  0
   38.8160   25.2070   42.5000 N   0  0  0  0  0  0  0  0  0  0  0  0
   37.9830   25.6330   41.5260 C   0  0  0  0  0  0  0  0  0  0  0  0
   37.5770   26.8890   41.5340 N   0  0  0  0  0  0  0  0  0  0  0  0
   39.1270   28.0720   44.2600 H   0  0  0  0  0  0  0  0  0  0  0  0
   39.9130   25.6830   44.2630 H   0  0  0  0  0  0  0  0  0  0  0  0
   37.5700   24.7240   40.5250 N   0  0  0  0  0  0  0  0  0  0  0  0
   38.0820   24.7300   39.1630 C   0  0  0  0  0  2  0  0  0  0  0  0
   36.9730   24.0260   38.4140 C   0  0  0  0  0  2  0  0  0  0  0  0
   36.6550   22.8870   39.3870 C   0  0  0  0  0  2  0  0  0  0  0  0
   36.5980   23.6730   40.6950 C   0  0  0  0  0  3  0  0  0  0  0  0
   36.9090   23.0180   41.5420 H   0  0  0  0  0  0  0  0  0  0  0  0
  1  5  1  0  0  0  0
  1 24  1  0  0  0  0
  2  1  2  0  0  0  0
  3  2  1  0  0  0  0
  3  4  1  0  0  0  0
  4  5  2  0  0  0  0
  6  4  1  0  0  0  0
  6 11  1  0  0  0  0
  7 15  1  0  0  0  0
  7  6  1  0  0  0  0
  8  9  1  0  0  0  0
  8  7  1  0  0  0  0
  9 10  1  0  0  0  0
 10 20  1  0  0  0  0
 10 21  1  0  0  0  0
 10 11  1  0  0  0  0
 11 23  1  0  0  0  0
 11 22  1  0  0  0  0
 12  2  1  0  0  0  0
 13  3  1  0  0  0  0
 14  7  1  0  0  0  0
 16  8  1  0  0  0  0
 17  8  1  0  0  0  0
 18  9  1  0  0  0  0
 19  9  1  0  0  0  0
 24 28  1  0  0  0  0
 24 26  1  0  0  0  0
 25 24  1  0  0  0  0
 27 29  1  0  0  0  0
 28 27  2  0  0  0  0
 29 30  1  0  0  0  0
 30 35  1  0  0  0  0
 31 30  2  0  0  0  0
 31 36  1  0  0  0  0
 32 31  1  0  0  0  0
 33 34  1  0  0  0  0
 33 32  2  0  0  0  0
 34 29  2  0  0  0  0
 37 41  1  0  0  0  0
 37 33  1  0  0  0  0
 38 37  1  0  0  0  0
 39 38  1  0  0  0  0
 39 40  1  0  0  0  0
 40 41  1  0  0  0  0
 41 42  1  0  0  0  0
M  END
>  <minimizedAffinity>
-5.89588547

$$$$

 OpenBabel03252504433D

 42 45  0  0  0  0  0  0  0  0999 V2000
   38.0940   27.1220   42.9270 C   0  0  0  0  0  0  0  0  0  0  0  0
   39.1010   26.2960   43.3260 C   0  0  0  0  0  0  0  0  0  0  0  0
   39.0880   25.2470   42.4880 N   0  0  0  0  0  0  0  0  0  0  0  0
   38.1230   25.3760   41.5840 C   0  0  0  0  0  0  0  0  0  0  0  0
   37.4900   26.5620   41.8590 N   0  0  0  0  0  0  0  0  0  0  0  0
   37.7170   24.5460   40.4960 N   0  0  0  0  0  0  0  0  0  0  0  0
   38.3560   24.7840   39.1810 C   0  0  0  0  0  0  0  0  0  0  0  0
   39.3610   23.6490   39.0230 C   0  0  0  0  0  0  0  0  0  0  0  0
   38.6990   22.3300   39.3630 C   0  0  0  0  0  0  0  0  0  0  0  0
   37.1960   22.4820   39.3430 C   0  0  0  0  0  0  0  0  0  0  0  0
   36.7750   23.4790   40.4040 C   0  0  0  0  0  0  0  0  0  0  0  0
   39.7520   26.4970   44.1620 H   0  0  0  0  0  0  0  0  0  0  0  0
   39.7220   24.4360   42.5090 H   0  0  0  0  0  0  0  0  0  0  0  0
   38.8770   25.7460   39.1840 H   0  0  0  0  0  0  0  0  0  0  0  0
   37.6210   24.7630   38.3640 H   0  0  0  0  0  0  0  0  0  0  0  0
   40.2980   23.8300   39.5560 H   0  0  0  0  0  0  0  0  0  0  0  0
   39.5680   23.5980   37.9200 H   0  0  0  0  0  0  0  0  0  0  0  0
   38.9970   21.5190   38.6680 H   0  0  0  0  0  0  0  0  0  0  0  0
   39.0230   22.0260   40.3820 H   0  0  0  0  0  0  0  0  0  0  0  0
   36.8280   22.7180   38.3450 H   0  0  0  0  0  0  0  0  0  0  0  0
   36.7780   21.5010   39.6770 H   0  0  0  0  0  0  0  0  0  0  0  0
   35.8060   23.9080   40.0660 H   0  0  0  0  0  0  0  0  0  0  0  0
   36.5510   22.9910   41.3740 H   0  0  0  0  0  0  0  0  0  0  0  0
   37.7140   28.4210   43.5320 C   0  0  0  0  0  0  0  0  0  0  0  0
   38.5430   28.6610   44.2480 H   0  0  0  0  0  0  0  0  0  0  0  0
   36.7590   28.3620   44.1090 H   0  0  0  0  0  0  0  0  0  0  0  0
   38.7600   29.8780   41.8380 C   0  0  0  0  0  3  0  0  0  0  0  0
   37.7070   29.5130   42.5460 C   0  0  0  0  0  3  0  0  0  0  0  0
   38.5840   30.9900   40.8880 C   0  0  0  0  0  0  0  0  0  0  0  0
   37.3250   31.6170   40.7570 C   0  0  0  0  0  0  0  0  0  0  0  0
   37.2510   32.6620   39.8360 C   0  0  0  0  0  0  0  0  0  0  0  0
   38.3350   33.0220   39.1330 N   0  0  0  0  0  0  0  0  0  0  0  0
   39.5250   32.4010   39.2820 C   0  0  0  0  0  0  0  0  0  0  0  0
   39.6260   31.4100   40.1460 N   0  0  0  0  0  0  0  0  0  0  0  0
   36.5060   31.2630   41.3610 H   0  0  0  0  0  0  0  0  0  0  0  0
   36.2910   33.1570   39.7200 H   0  0  0  0  0  0  0  0  0  0  0  0
   40.6290   32.8310   38.5100 N   0  0  0  0  0  0  0  0  0  0  0  0
   41.1500   32.1010   37.3650 C   0  0  0  0  0  2  0  0  0  0  0  0
   42.5680   32.6210   37.2870 C   0  0  0  0  0  2  0  0  0  0  0  0
   42.3330   34.1140   37.5330 C   0  0  0  0  0  2  0  0  0  0  0  0
   41.3920   34.0330   38.7330 C   0  0  0  0  0  3  0  0  0  0  0  0
   40.7050   34.9120   38.7310 H   0  0  0  0  0  0  0  0  0  0  0  0
  1  2  2  0  0  0  0
  1 24  1  0  0  0  0
  2 12  1  0  0  0  0
  3 13  1  0  0  0  0
  3  2  1  0  0  0  0
  4  5  2  0  0  0  0
  4  3  1  0  0  0  0
  5  1  1  0  0  0  0
  6  4  1  0  0  0  0
  7 14  1  0  0  0  0
  7  6  1  0  0  0  0
  8  7  1  0  0  0  0
  8  9  1  0  0  0  0
  8 16  1  0  0  0  0
  9 19  1  0  0  0  0
 10  9  1  0  0  0  0
 10 21  1  0  0  0  0
 10 11  1  0  0  0  0
 11  6  1  0  0  0  0
 11 23  1  0  0  0  0
 15  7  1  0  0  0  0
 17  8  1  0  0  0  0
 18  9  1  0  0  0  0
 20 10  1  0  0  0  0
 22 11  1  0  0  0  0
 24 26  1  0  0  0  0
 24 25  1  0  0  0  0
 27 28  2  0  0  0  0
 28 24  1  0  0  0  0
 29 27  1  0  0  0  0
 30 29  1  0  0  0  0
 30 35  1  0  0  0  0
 31 30  2  0  0  0  0
 32 33  2  0  0  0  0
 32 31  1  0  0  0  0
 33 34  1  0  0  0  0
 34 29  2  0  0  0  0
 36 31  1  0  0  0  0
 37 41  1  0  0  0  0
 37 33  1  0  0  0  0
 38 37  1  0  0  0  0
 39 38  1  0  0  0  0
 39 40  1  0  0  0  0
 40 41  1  0  0  0  0
 42 41  1  0  0  0  0
M  END
>  <minimizedAffinity>
-5.70880175

$$$$

 OpenBabel03252504433D

 42 45  0  0  0  0  0  0  0  0999 V2000
   38.4580   32.7110   39.6500 C   0  0  0  0  0  0  0  0  0  0  0  0
   38.4810   33.9720   40.1620 C   0  0  0  0  0  0  0  0  0  0  0  0
   39.6890   34.1310   40.7270 N   0  0  0  0  0  0  0  0  0  0  0  0
   40.4230   33.0310   40.5930 C   0  0  0  0  0  0  0  0  0  0  0  0
   39.6460   32.1290   39.9120 N   0  0  0  0  0  0  0  0  0  0  0  0
   41.7500   32.7130   41.0080 N   0  0  0  0  0  0  0  0  0  0  0  0
   42.8510   33.0150   40.0640 C   0  0  0  0  0  0  0  0  0  0  0  0
   43.5100   34.2720   40.6210 C   0  0  0  0  0  0  0  0  0  0  0  0
   43.7540   34.1050   42.1060 C   0  0  0  0  0  0  0  0  0  0  0  0
   43.6650   32.6460   42.4880 C   0  0  0  0  0  0  0  0  0  0  0  0
   42.2670   32.1340   42.2050 C   0  0  0  0  0  0  0  0  0  0  0  0
   37.6590   34.6670   40.0970 H   0  0  0  0  0  0  0  0  0  0  0  0
   40.0370   34.9740   41.2060 H   0  0  0  0  0  0  0  0  0  0  0  0
   42.4480   33.2150   39.0670 H   0  0  0  0  0  0  0  0  0  0  0  0
   43.5770   32.1910   40.0120 H   0  0  0  0  0  0  0  0  0  0  0  0
   42.9770   35.1880   40.3540 H   0  0  0  0  0  0  0  0  0  0  0  0
   44.5330   34.2910   40.1560 H   0  0  0  0  0  0  0  0  0  0  0  0
   44.7380   34.5090   42.4180 H   0  0  0  0  0  0  0  0  0  0  0  0
   42.9750   34.6760   42.6570 H   0  0  0  0  0  0  0  0  0  0  0  0
   44.4540   32.0580   42.0190 H   0  0  0  0  0  0  0  0  0  0  0  0
   43.7760   32.6060   43.5990 H   0  0  0  0  0  0  0  0  0  0  0  0
   42.3600   31.0380   42.0410 H   0  0  0  0  0  0  0  0  0  0  0  0
   41.5970   32.2380   43.0810 H   0  0  0  0  0  0  0  0  0  0  0  0
   37.3410   32.0670   38.9150 C   0  0  0  0  0  0  0  0  0  0  0  0
   37.6560   32.0840   37.8380 H   0  0  0  0  0  0  0  0  0  0  0  0
   36.3840   32.6350   39.0080 H   0  0  0  0  0  0  0  0  0  0  0  0
   37.3800   29.6500   38.4220 C   0  0  0  0  0  3  0  0  0  0  0  0
   37.1890   30.6470   39.2670 C   0  0  0  0  0  3  0  0  0  0  0  0
   37.1910   28.2830   38.9370 C   0  0  0  0  0  0  0  0  0  0  0  0
   36.2800   27.4080   38.3050 C   0  0  0  0  0  0  0  0  0  0  0  0
   36.1680   26.1320   38.8580 C   0  0  0  0  0  0  0  0  0  0  0  0
   36.9000   25.7920   39.9290 N   0  0  0  0  0  0  0  0  0  0  0  0
   37.7630   26.6530   40.5100 C   0  0  0  0  0  0  0  0  0  0  0  0
   37.8910   27.8670   40.0090 N   0  0  0  0  0  0  0  0  0  0  0  0
   35.7310   27.7640   37.4490 H   0  0  0  0  0  0  0  0  0  0  0  0
   35.4720   25.4450   38.3860 H   0  0  0  0  0  0  0  0  0  0  0  0
   38.5050   26.2310   41.6370 N   0  0  0  0  0  0  0  0  0  0  0  0
   38.2160   26.6480   43.0000 C   0  0  0  0  0  2  0  0  0  0  0  0
   39.5490   26.4260   43.6800 C   0  0  0  0  0  2  0  0  0  0  0  0
   39.9460   25.0730   43.0820 C   0  0  0  0  0  2  0  0  0  0  0  0
   39.6380   25.3400   41.6100 C   0  0  0  0  0  3  0  0  0  0  0  0
   39.3460   24.3880   41.1090 H   0  0  0  0  0  0  0  0  0  0  0  0
  1  5  1  0  0  0  0
  1  2  2  0  0  0  0
  2  3  1  0  0  0  0
  3 13  1  0  0  0  0
  4  3  1  0  0  0  0
  4  6  1  0  0  0  0
  5  4  2  0  0  0  0
  6 11  1  0  0  0  0
  7  8  1  0  0  0  0
  7  6  1  0  0  0  0
  8  9  1  0  0  0  0
  9 18  1  0  0  0  0
  9 10  1  0  0  0  0
  9 19  1  0  0  0  0
 10 21  1  0  0  0  0
 11 10  1  0  0  0  0
 11 23  1  0  0  0  0
 12  2  1  0  0  0  0
 14  7  1  0  0  0  0
 15  7  1  0  0  0  0
 16  8  1  0  0  0  0
 17  8  1  0  0  0  0
 20 10  1  0  0  0  0
 22 11  1  0  0  0  0
 24 26  1  0  0  0  0
 24 28  1  0  0  0  0
 24  1  1  0  0  0  0
 25 24  1  0  0  0  0
 27 29  1  0  0  0  0
 27 28  2  0  0  0  0
 29 34  1  0  0  0  0
 30 31  1  0  0  0  0
 30 29  2  0  0  0  0
 31 32  2  0  0  0  0
 32 33  1  0  0  0  0
 33 37  1  0  0  0  0
 34 33  2  0  0  0  0
 35 30  1  0  0  0  0
 36 31  1  0  0  0  0
 37 38  1  0  0  0  0
 38 39  1  0  0  0  0
 40 39  1  0  0  0  0
 41 37  1  0  0  0  0
 41 40  1  0  0  0  0
 42 41  1  0  0  0  0
M  END
>  <minimizedAffinity>
-5.56477118

$$$$

 OpenBabel03252504433D

 42 45  0  0  0  0  0  0  0  0999 V2000
   37.2480   31.5140   40.2940 C   0  0  0  0  0  0  0  0  0  0  0  0
   36.9500   32.3160   39.2350 C   0  0  0  0  0  0  0  0  0  0  0  0
   38.0940   32.9250   38.8840 N   0  0  0  0  0  0  0  0  0  0  0  0
   39.0940   32.5430   39.6730 C   0  0  0  0  0  0  0  0  0  0  0  0
   38.5610   31.6500   40.5680 N   0  0  0  0  0  0  0  0  0  0  0  0
   40.4760   32.8940   39.6980 N   0  0  0  0  0  0  0  0  0  0  0  0
   41.4040   32.0710   38.8870 C   0  0  0  0  0  0  0  0  0  0  0  0
   41.7200   32.9260   37.6660 C   0  0  0  0  0  0  0  0  0  0  0  0
   42.0740   34.3320   38.1040 C   0  0  0  0  0  0  0  0  0  0  0  0
   42.4080   34.3490   39.5780 C   0  0  0  0  0  0  0  0  0  0  0  0
   41.1920   33.9250   40.3770 C   0  0  0  0  0  0  0  0  0  0  0  0
   35.9660   32.4050   38.8020 H   0  0  0  0  0  0  0  0  0  0  0  0
   38.2210   33.5990   38.1170 H   0  0  0  0  0  0  0  0  0  0  0  0
   40.9120   31.1440   38.5770 H   0  0  0  0  0  0  0  0  0  0  0  0
   42.3250   31.8350   39.4400 H   0  0  0  0  0  0  0  0  0  0  0  0
   40.9430   32.8780   36.8980 H   0  0  0  0  0  0  0  0  0  0  0  0
   42.6730   32.4980   37.2530 H   0  0  0  0  0  0  0  0  0  0  0  0
   42.9240   34.7500   37.5280 H   0  0  0  0  0  0  0  0  0  0  0  0
   41.1960   34.9890   37.9200 H   0  0  0  0  0  0  0  0  0  0  0  0
   43.3030   33.7660   39.7950 H   0  0  0  0  0  0  0  0  0  0  0  0
   42.5800   35.4190   39.8470 H   0  0  0  0  0  0  0  0  0  0  0  0
   41.5730   33.5030   41.3320 H   0  0  0  0  0  0  0  0  0  0  0  0
   40.5630   34.7880   40.6730 H   0  0  0  0  0  0  0  0  0  0  0  0
   36.3150   30.6250   41.0300 C   0  0  0  0  0  0  0  0  0  0  0  0
   35.3750   30.6220   40.4180 H   0  0  0  0  0  0  0  0  0  0  0  0
   36.0690   31.0120   42.0480 H   0  0  0  0  0  0  0  0  0  0  0  0
   37.3740   28.6670   42.0930 C   0  0  0  0  0  3  0  0  0  0  0  0
   36.7820   29.2300   41.0560 C   0  0  0  0  0  3  0  0  0  0  0  0
   37.7760   27.2560   41.9580 C   0  0  0  0  0  0  0  0  0  0  0  0
   36.9160   26.2280   42.4040 C   0  0  0  0  0  0  0  0  0  0  0  0
   37.3770   24.9230   42.2330 C   0  0  0  0  0  0  0  0  0  0  0  0
   38.5740   24.6960   41.6740 N   0  0  0  0  0  0  0  0  0  0  0  0
   39.3740   25.7020   41.2580 C   0  0  0  0  0  0  0  0  0  0  0  0
   38.9640   26.9480   41.4050 N   0  0  0  0  0  0  0  0  0  0  0  0
   35.9700   26.5000   42.8420 H   0  0  0  0  0  0  0  0  0  0  0  0
   36.7300   24.1180   42.5700 H   0  0  0  0  0  0  0  0  0  0  0  0
   40.6250   25.3940   40.6760 N   0  0  0  0  0  0  0  0  0  0  0  0
   41.8990   25.5610   41.3580 C   0  0  0  0  0  2  0  0  0  0  0  0
   42.8600   25.6620   40.1950 C   0  0  0  0  0  2  0  0  0  0  0  0
   42.3190   24.5540   39.2870 C   0  0  0  0  0  2  0  0  0  0  0  0
   40.8270   24.8770   39.3460 C   0  0  0  0  0  3  0  0  0  0  0  0
   40.2350   23.9410   39.2200 H   0  0  0  0  0  0  0  0  0  0  0  0
  1  5  1  0  0  0  0
  1 24  1  0  0  0  0
  2  1  2  0  0  0  0
  3  2  1  0  0  0  0
  3  4  1  0  0  0  0
  4  6  1  0  0  0  0
  4  5  2  0  0  0  0
  6 11  1  0  0  0  0
  7 15  1  0  0  0  0
  7  6  1  0  0  0  0
  8  9  1  0  0  0  0
  8  7  1  0  0  0  0
  9 10  1  0  0  0  0
 10 20  1  0  0  0  0
 10 21  1  0  0  0  0
 10 11  1  0  0  0  0
 11 23  1  0  0  0  0
 11 22  1  0  0  0  0
 12  2  1  0  0  0  0
 13  3  1  0  0  0  0
 14  7  1  0  0  0  0
 16  8  1  0  0  0  0
 17  8  1  0  0  0  0
 18  9  1  0  0  0  0
 19  9  1  0  0  0  0
 24 28  1  0  0  0  0
 24 26  1  0  0  0  0
 25 24  1  0  0  0  0
 28 27  2  0  0  0  0
 29 27  1  0  0  0  0
 29 30  1  0  0  0  0
 30 35  1  0  0  0  0
 31 30  2  0  0  0  0
 31 36  1  0  0  0  0
 32 31  1  0  0  0  0
 33 34  1  0  0  0  0
 33 32  2  0  0  0  0
 34 29  2  0  0  0  0
 37 33  1  0  0  0  0
 37 38  1  0  0  0  0
 39 38  1  0  0  0  0
 40 41  1  0  0  0  0
 40 39  1  0  0  0  0
 41 37  1  0  0  0  0
 42 41  1  0  0  0  0
M  END
>  <minimizedAffinity>
-5.53995657

$$$$

 OpenBabel03252504433D

 42 45  0  0  0  0  0  0  0  0999 V2000
   36.7870   30.2230   36.8420 C   0  0  0  0  0  0  0  0  0  0  0  0
   37.3110   31.1330   35.9740 C   0  0  0  0  0  0  0  0  0  0  0  0
   37.9890   32.0220   36.7170 N   0  0  0  0  0  0  0  0  0  0  0  0
   37.9150   31.7130   38.0080 C   0  0  0  0  0  0  0  0  0  0  0  0
   37.1540   30.5750   38.0910 N   0  0  0  0  0  0  0  0  0  0  0  0
   38.4630   32.3330   39.1700 N   0  0  0  0  0  0  0  0  0  0  0  0
   39.8080   31.8910   39.6080 C   0  0  0  0  0  0  0  0  0  0  0  0
   40.7480   33.0100   39.1760 C   0  0  0  0  0  0  0  0  0  0  0  0
   40.1730   34.3490   39.5880 C   0  0  0  0  0  0  0  0  0  0  0  0
   39.0990   34.1530   40.6330 C   0  0  0  0  0  0  0  0  0  0  0  0
   37.9630   33.3410   40.0460 C   0  0  0  0  0  0  0  0  0  0  0  0
   37.1760   31.0960   34.9040 H   0  0  0  0  0  0  0  0  0  0  0  0
   38.5080   32.8420   36.3730 H   0  0  0  0  0  0  0  0  0  0  0  0
   40.0810   30.9590   39.1050 H   0  0  0  0  0  0  0  0  0  0  0  0
   39.8540   31.7510   40.6980 H   0  0  0  0  0  0  0  0  0  0  0  0
   41.0280   32.9490   38.1200 H   0  0  0  0  0  0  0  0  0  0  0  0
   41.6660   32.8770   39.8090 H   0  0  0  0  0  0  0  0  0  0  0  0
   40.9490   35.0360   39.9800 H   0  0  0  0  0  0  0  0  0  0  0  0
   39.7270   34.8320   38.6920 H   0  0  0  0  0  0  0  0  0  0  0  0
   39.5060   33.7400   41.5570 H   0  0  0  0  0  0  0  0  0  0  0  0
   38.6680   35.1650   40.8320 H   0  0  0  0  0  0  0  0  0  0  0  0
   37.4630   32.8340   40.9000 H   0  0  0  0  0  0  0  0  0  0  0  0
   37.1800   33.9820   39.5930 H   0  0  0  0  0  0  0  0  0  0  0  0
   35.9650   29.0360   36.5000 C   0  0  0  0  0  0  0  0  0  0  0  0
   36.4600   28.5920   35.5970 H   0  0  0  0  0  0  0  0  0  0  0  0
   34.9170   29.3060   36.2280 H   0  0  0  0  0  0  0  0  0  0  0  0
   36.9110   27.0200   37.5620 C   0  0  0  0  0  3  0  0  0  0  0  0
   36.0260   28.0000   37.5430 C   0  0  0  0  0  3  0  0  0  0  0  0
   36.8390   26.0650   38.6820 C   0  0  0  0  0  0  0  0  0  0  0  0
   35.9750   24.9510   38.6070 C   0  0  0  0  0  0  0  0  0  0  0  0
   35.9740   24.0990   39.7110 C   0  0  0  0  0  0  0  0  0  0  0  0
   36.7610   24.3560   40.7660 N   0  0  0  0  0  0  0  0  0  0  0  0
   37.5760   25.4320   40.8060 C   0  0  0  0  0  0  0  0  0  0  0  0
   37.6000   26.2560   39.7760 N   0  0  0  0  0  0  0  0  0  0  0  0
   35.3760   24.8200   37.7210 H   0  0  0  0  0  0  0  0  0  0  0  0
   35.3160   23.2350   39.6730 H   0  0  0  0  0  0  0  0  0  0  0  0
   38.3820   25.6450   41.9480 N   0  0  0  0  0  0  0  0  0  0  0  0
   38.1060   26.6560   42.9570 C   0  0  0  0  0  2  0  0  0  0  0  0
   39.4720   26.8570   43.5750 C   0  0  0  0  0  2  0  0  0  0  0  0
   39.9480   25.4050   43.6790 C   0  0  0  0  0  2  0  0  0  0  0  0
   39.5750   24.9100   42.2830 C   0  0  0  0  0  3  0  0  0  0  0  0
   39.3390   23.8210   42.3200 H   0  0  0  0  0  0  0  0  0  0  0  0
  1  5  1  0  0  0  0
  2  3  1  0  0  0  0
  2  1  2  0  0  0  0
  3  4  1  0  0  0  0
  4  5  2  0  0  0  0
  4  6  1  0  0  0  0
  6  7  1  0  0  0  0
  6 11  1  0  0  0  0
  7 15  1  0  0  0  0
  8  9  1  0  0  0  0
  8  7  1  0  0  0  0
  8 17  1  0  0  0  0
  9 18  1  0  0  0  0
  9 10  1  0  0  0  0
 10 21  1  0  0  0  0
 10 20  1  0  0  0  0
 11 10  1  0  0  0  0
 11 22  1  0  0  0  0
 12  2  1  0  0  0  0
 13  3  1  0  0  0  0
 14  7  1  0  0  0  0
 16  8  1  0  0  0  0
 19  9  1  0  0  0  0
 23 11  1  0  0  0  0
 24  1  1  0  0  0  0
 24 28  1  0  0  0  0
 25 24  1  0  0  0  0
 26 24  1  0  0  0  0
 27 29  1  0  0  0  0
 28 27  2  0  0  0  0
 29 34  1  0  0  0  0
 30 29  2  0  0  0  0
 30 31  1  0  0  0  0
 31 32  2  0  0  0  0
 32 33  1  0  0  0  0
 33 37  1  0  0  0  0
 34 33  2  0  0  0  0
 35 30  1  0  0  0  0
 36 31  1  0  0  0  0
 37 41  1  0  0  0  0
 37 38  1  0  0  0  0
 38 39  1  0  0  0  0
 39 40  1  0  0  0  0
 41 42  1  0  0  0  0
 41 40  1  0  0  0  0
M  END
>  <minimizedAffinity>
-5.42025995

$$$$

 OpenBabel03252504433D

 42 45  0  0  0  0  0  0  0  0999 V2000
   37.5950   29.4100   37.7970 C   0  0  0  0  0  0  0  0  0  0  0  0
   38.8960   29.0530   37.9830 C   0  0  0  0  0  0  0  0  0  0  0  0
   39.0180   28.7210   39.2780 N   0  0  0  0  0  0  0  0  0  0  0  0
   37.8580   28.8520   39.9120 C   0  0  0  0  0  0  0  0  0  0  0  0
   36.9530   29.2890   38.9770 N   0  0  0  0  0  0  0  0  0  0  0  0
   37.4780   28.6190   41.2670 N   0  0  0  0  0  0  0  0  0  0  0  0
   36.9970   27.2620   41.6170 C   0  0  0  0  0  0  0  0  0  0  0  0
   38.1620   26.6100   42.3520 C   0  0  0  0  0  0  0  0  0  0  0  0
   38.7010   27.5620   43.3990 C   0  0  0  0  0  0  0  0  0  0  0  0
   37.6950   28.6540   43.6780 C   0  0  0  0  0  0  0  0  0  0  0  0
   37.4640   29.4620   42.4170 C   0  0  0  0  0  0  0  0  0  0  0  0
   39.6420   29.0550   37.2030 H   0  0  0  0  0  0  0  0  0  0  0  0
   39.8750   28.4030   39.7530 H   0  0  0  0  0  0  0  0  0  0  0  0
   36.7660   26.6990   40.7080 H   0  0  0  0  0  0  0  0  0  0  0  0
   36.1090   27.3020   42.2640 H   0  0  0  0  0  0  0  0  0  0  0  0
   38.9230   26.2100   41.6760 H   0  0  0  0  0  0  0  0  0  0  0  0
   37.7020   25.7660   42.9310 H   0  0  0  0  0  0  0  0  0  0  0  0
   38.9560   27.0440   44.3460 H   0  0  0  0  0  0  0  0  0  0  0  0
   39.6380   28.0180   43.0120 H   0  0  0  0  0  0  0  0  0  0  0  0
   36.7820   28.2560   44.1210 H   0  0  0  0  0  0  0  0  0  0  0  0
   38.1860   29.3560   44.3950 H   0  0  0  0  0  0  0  0  0  0  0  0
   36.4460   29.9010   42.5060 H   0  0  0  0  0  0  0  0  0  0  0  0
   38.1470   30.3320   42.3460 H   0  0  0  0  0  0  0  0  0  0  0  0
   36.9630   29.8450   36.5270 C   0  0  0  0  0  0  0  0  0  0  0  0
   37.4530   29.2230   35.7320 H   0  0  0  0  0  0  0  0  0  0  0  0
   37.1570   30.9200   36.2990 H   0  0  0  0  0  0  0  0  0  0  0  0
   35.0310   28.5100   35.7720 C   0  0  0  0  0  3  0  0  0  0  0  0
   35.5320   29.5090   36.4750 C   0  0  0  0  0  3  0  0  0  0  0  0
   33.5730   28.3050   35.8320 C   0  0  0  0  0  0  0  0  0  0  0  0
   33.0010   27.1260   35.3050 C   0  0  0  0  0  0  0  0  0  0  0  0
   31.6150   27.0160   35.4080 C   0  0  0  0  0  0  0  0  0  0  0  0
   30.8990   27.9940   35.9810 N   0  0  0  0  0  0  0  0  0  0  0  0
   31.4770   29.1100   36.4750 C   0  0  0  0  0  0  0  0  0  0  0  0
   32.7870   29.2430   36.3930 N   0  0  0  0  0  0  0  0  0  0  0  0
   33.6510   26.3910   34.8610 H   0  0  0  0  0  0  0  0  0  0  0  0
   31.1560   26.1160   35.0080 H   0  0  0  0  0  0  0  0  0  0  0  0
   30.6640   30.1040   37.0670 N   0  0  0  0  0  0  0  0  0  0  0  0
   30.3330   31.3670   36.4270 C   0  0  0  0  0  2  0  0  0  0  0  0
   29.9850   32.2340   37.6170 C   0  0  0  0  0  2  0  0  0  0  0  0
   29.1500   31.2520   38.4440 C   0  0  0  0  0  2  0  0  0  0  0  0
   30.0500   30.0200   38.3690 C   0  0  0  0  0  3  0  0  0  0  0  0
   29.4280   29.0970   38.4250 H   0  0  0  0  0  0  0  0  0  0  0  0
  1  2  2  0  0  0  0
  1  5  1  0  0  0  0
  2  3  1  0  0  0  0
  3 13  1  0  0  0  0
  3  4  1  0  0  0  0
  4  6  1  0  0  0  0
  5  4  2  0  0  0  0
  6  7  1  0  0  0  0
  6 11  1  0  0  0  0
  7 15  1  0  0  0  0
  7  8  1  0  0  0  0
  8 17  1  0  0  0  0
  8  9  1  0  0  0  0
  9 10  1  0  0  0  0
  9 18  1  0  0  0  0
 10 20  1  0  0  0  0
 10 21  1  0  0  0  0
 11 22  1  0  0  0  0
 11 10  1  0  0  0  0
 12  2  1  0  0  0  0
 14  7  1  0  0  0  0
 16  8  1  0  0  0  0
 19  9  1  0  0  0  0
 23 11  1  0  0  0  0
 24  1  1  0  0  0  0
 25 24  1  0  0  0  0
 26 24  1  0  0  0  0
 27 29  1  0  0  0  0
 27 28  2  0  0  0  0
 28 24  1  0  0  0  0
 29 34  1  0  0  0  0
 30 31  1  0  0  0  0
 30 29  2  0  0  0  0
 31 32  2  0  0  0  0
 32 33  1  0  0  0  0
 33 37  1  0  0  0  0
 34 33  2  0  0  0  0
 35 30  1  0  0  0  0
 36 31  1  0  0  0  0
 37 41  1  0  0  0  0
 38 37  1  0  0  0  0
 38 39  1  0  0  0  0
 39 40  1  0  0  0  0
 41 42  1  0  0  0  0
 41 40  1  0  0  0  0
M  END
>  <minimizedAffinity>
-5.40801239

$$$$

 OpenBabel03252504433D

 42 45  0  0  0  0  0  0  0  0999 V2000
   37.5490   30.5370   38.7020 C   0  0  0  0  0  0  0  0  0  0  0  0
   37.5200   30.9710   37.4110 C   0  0  0  0  0  0  0  0  0  0  0  0
   38.5980   31.7540   37.2480 N   0  0  0  0  0  0  0  0  0  0  0  0
   39.3020   31.8310   38.3730 C   0  0  0  0  0  0  0  0  0  0  0  0
   38.6400   31.0620   39.2970 N   0  0  0  0  0  0  0  0  0  0  0  0
   40.5080   32.5180   38.6990 N   0  0  0  0  0  0  0  0  0  0  0  0
   41.7840   31.7950   38.4860 C   0  0  0  0  0  0  0  0  0  0  0  0
   42.3690   32.3980   37.2140 C   0  0  0  0  0  0  0  0  0  0  0  0
   42.3100   33.9090   37.2920 C   0  0  0  0  0  0  0  0  0  0  0  0
   42.0920   34.3490   38.7210 C   0  0  0  0  0  0  0  0  0  0  0  0
   40.7590   33.8240   39.2140 C   0  0  0  0  0  0  0  0  0  0  0  0
   36.7520   30.7050   36.7010 H   0  0  0  0  0  0  0  0  0  0  0  0
   38.8770   32.2440   36.3870 H   0  0  0  0  0  0  0  0  0  0  0  0
   41.5920   30.7280   38.3400 H   0  0  0  0  0  0  0  0  0  0  0  0
   42.4750   31.9350   39.3300 H   0  0  0  0  0  0  0  0  0  0  0  0
   41.9330   31.9790   36.3030 H   0  0  0  0  0  0  0  0  0  0  0  0
   43.4620   32.1440   37.2510 H   0  0  0  0  0  0  0  0  0  0  0  0
   43.2280   34.3860   36.8950 H   0  0  0  0  0  0  0  0  0  0  0  0
   41.4600   34.2610   36.6670 H   0  0  0  0  0  0  0  0  0  0  0  0
   42.9350   34.0800   39.3580 H   0  0  0  0  0  0  0  0  0  0  0  0
   41.9820   35.4600   38.6930 H   0  0  0  0  0  0  0  0  0  0  0  0
   40.8410   33.7450   40.3200 H   0  0  0  0  0  0  0  0  0  0  0  0
   39.9340   34.5430   39.0370 H   0  0  0  0  0  0  0  0  0  0  0  0
   36.5750   29.6340   39.3610 C   0  0  0  0  0  0  0  0  0  0  0  0
   36.1930   30.2130   40.2430 H   0  0  0  0  0  0  0  0  0  0  0  0
   37.0480   28.6950   39.7380 H   0  0  0  0  0  0  0  0  0  0  0  0
   35.0770   28.1800   38.0450 C   0  0  0  0  0  3  0  0  0  0  0  0
   35.4000   29.3710   38.5150 C   0  0  0  0  0  3  0  0  0  0  0  0
   33.8640   28.0870   37.2150 C   0  0  0  0  0  0  0  0  0  0  0  0
   33.6740   26.9800   36.3600 C   0  0  0  0  0  0  0  0  0  0  0  0
   32.4950   26.9730   35.6140 C   0  0  0  0  0  0  0  0  0  0  0  0
   31.6170   27.9800   35.7280 N   0  0  0  0  0  0  0  0  0  0  0  0
   31.8290   29.0260   36.5560 C   0  0  0  0  0  0  0  0  0  0  0  0
   32.9340   29.0590   37.2760 N   0  0  0  0  0  0  0  0  0  0  0  0
   34.4320   26.2150   36.3290 H   0  0  0  0  0  0  0  0  0  0  0  0
   32.3310   26.1300   34.9500 H   0  0  0  0  0  0  0  0  0  0  0  0
   30.8610   30.0540   36.6300 N   0  0  0  0  0  0  0  0  0  0  0  0
   31.0240   31.3650   36.0220 C   0  0  0  0  0  2  0  0  0  0  0  0
   30.0690   32.2060   36.8400 C   0  0  0  0  0  2  0  0  0  0  0  0
   28.8700   31.2580   36.9320 C   0  0  0  0  0  2  0  0  0  0  0  0
   29.5910   29.9640   37.3040 C   0  0  0  0  0  3  0  0  0  0  0  0
   29.0230   29.0900   36.9080 H   0  0  0  0  0  0  0  0  0  0  0  0
  1  5  1  0  0  0  0
  1 24  1  0  0  0  0
  2  1  2  0  0  0  0
  3  2  1  0  0  0  0
  3  4  1  0  0  0  0
  4  6  1  0  0  0  0
  4  5  2  0  0  0  0
  6 11  1  0  0  0  0
  7  6  1  0  0  0  0
  7 15  1  0  0  0  0
  8 17  1  0  0  0  0
  8  9  1  0  0  0  0
  8  7  1  0  0  0  0
  9 10  1  0  0  0  0
 10 11  1  0  0  0  0
 10 20  1  0  0  0  0
 11 22  1  0  0  0  0
 12  2  1  0  0  0  0
 13  3  1  0  0  0  0
 14  7  1  0  0  0  0
 16  8  1  0  0  0  0
 18  9  1  0  0  0  0
 19  9  1  0  0  0  0
 21 10  1  0  0  0  0
 23 11  1  0  0  0  0
 24 26  1  0  0  0  0
 24 25  1  0  0  0  0
 27 28  2  0  0  0  0
 28 24  1  0  0  0  0
 29 34  1  0  0  0  0
 29 27  1  0  0  0  0
 30 29  2  0  0  0  0
 31 32  2  0  0  0  0
 31 30  1  0  0  0  0
 32 33  1  0  0  0  0
 33 37  1  0  0  0  0
 33 34  2  0  0  0  0
 35 30  1  0  0  0  0
 36 31  1  0  0  0  0
 37 41  1  0  0  0  0
 38 37  1  0  0  0  0
 38 39  1  0  0  0  0
 39 40  1  0  0  0  0
 40 41  1  0  0  0  0
 42 41  1  0  0  0  0
M  END
>  <minimizedAffinity>
-5.40509701

$$$$
