
 OpenBabel03252504073D

 16 17  0  0  0  0  0  0  0  0999 V2000
   45.4630   35.4070   43.7800 C   0  0  0  0  0  0  0  0  0  0  0  0
   46.4070   34.3610   43.8260 C   0  0  0  0  0  0  0  0  0  0  0  0
   46.4170   33.5410   44.9860 C   0  0  0  0  0  0  0  0  0  0  0  0
   45.5150   33.8210   45.9720 N   0  0  0  0  0  0  0  0  0  0  0  0
   44.6420   34.8330   45.8680 C   0  0  0  0  0  0  0  0  0  0  0  0
   44.6070   35.6300   44.7790 N   0  0  0  0  0  0  0  0  0  0  0  0
   47.1330   32.7480   45.0230 H   0  0  0  0  0  0  0  0  0  0  0  0
   43.9490   34.9940   46.7060 H   0  0  0  0  0  0  0  0  0  0  0  0
   47.3020   34.1640   42.7300 N   0  0  0  0  0  0  0  0  0  0  0  0
   47.0760   33.5000   41.4440 C   0  0  0  0  0  0  0  0  0  0  0  0
   47.6810   34.4680   40.4380 C   0  0  0  0  0  0  0  0  0  0  0  0
   48.6030   35.3540   41.2500 C   0  0  0  0  0  0  0  0  0  0  0  0
   48.7050   34.5500   42.5360 C   0  0  0  0  0  0  0  0  0  0  0  0
   49.0420   35.1440   43.3930 H   0  0  0  0  0  0  0  0  0  0  0  0
   45.4640   36.1900   42.6580 O   0  0  0  0  0  0  0  0  0  0  0  0
   45.2120   35.7880   41.7750 H   0  0  0  0  0  0  0  0  0  0  0  0
  1  2  2  0  0  0  0
  1  6  1  0  0  0  0
  2  3  1  0  0  0  0
  3  7  1  0  0  0  0
  3  4  2  0  0  0  0
  5  4  1  0  0  0  0
  5  8  1  0  0  0  0
  6  5  2  0  0  0  0
  9  2  1  0  0  0  0
 10  9  1  0  0  0  0
 11 12  1  0  0  0  0
 11 10  1  0  0  0  0
 12 13  1  0  0  0  0
 13  9  1  0  0  0  0
 13 14  1  0  0  0  0
 15  1  1  0  0  0  0
 16 15  1  0  0  0  0
M  END
>  <minimizedAffinity>
-4.13561869

>  <minimizedRMSD>
2.02064753

$$$$
