
 OpenBabel03252509253D

 24 26  0  0  1  0  0  0  0  0999 V2000
   36.2420   28.5160   40.3200 C   0  0  1  0  0  0  0  0  0  0  0  0
   36.5840   27.2170   39.5400 C   0  0  0  0  0  0  0  0  0  0  0  0
   37.2630   27.6970   40.8650 C   0  0  2  0  0  0  0  0  0  0  0  0
   35.1910   28.5730   40.6430 H   0  0  0  0  0  0  0  0  0  0  0  0
   37.2000   27.2730   38.6480 H   0  0  0  0  0  0  0  0  0  0  0  0
   35.8130   26.4600   39.6330 H   0  0  0  0  0  0  0  0  0  0  0  0
   38.3320   28.0420   40.7140 H   0  0  0  0  0  0  0  0  0  0  0  0
   36.9510   32.0380   39.2330 C   0  0  0  0  0  0  0  0  0  0  0  0
   36.4660   30.9620   40.0490 C   0  0  0  0  0  0  0  0  0  0  0  0
   36.6580   29.7240   39.4940 C   0  0  0  0  0  0  0  0  0  0  0  0
   37.2640   29.5450   38.2500 N   0  0  0  0  0  0  0  0  0  0  0  0
   37.6900   30.6000   37.5480 C   0  0  0  0  0  0  0  0  0  0  0  0
   37.5340   31.8600   38.0390 N   0  0  0  0  0  0  0  0  0  0  0  0
   36.8310   33.0310   39.6140 H   0  0  0  0  0  0  0  0  0  0  0  0
   38.1270   30.2530   36.6220 H   0  0  0  0  0  0  0  0  0  0  0  0
   35.8310   31.1610   41.2980 N   0  0  0  0  0  0  0  0  0  0  0  0
   36.2570   31.1830   42.2450 H   0  0  0  0  0  0  0  0  0  0  0  0
   34.8720   31.2580   40.8550 H   0  0  0  0  0  0  0  0  0  0  0  0
   37.1280   26.7340   41.9080 N   0  0  1  0  0  0  0  0  0  0  0  0
   38.4450   26.2680   42.2870 C   0  0  0  0  0  2  0  0  0  0  0  0
   38.8410   27.0440   43.5210 C   0  0  0  0  0  2  0  0  0  0  0  0
   37.7590   28.0830   43.6800 C   0  0  0  0  0  2  0  0  0  0  0  0
   36.5680   27.3200   43.1160 C   0  0  0  0  0  3  0  0  0  0  0  0
   35.7080   27.9560   42.9150 H   0  0  0  0  0  0  0  0  0  0  0  0
  1  4  1  1  0  0  0
  1  3  1  0  0  0  0
  2  6  1  0  0  0  0
  2  1  1  0  0  0  0
  2  3  1  0  0  0  0
  3  7  1  6  0  0  0
  3 19  1  0  0  0  0
  5  2  1  0  0  0  0
  8 14  1  0  0  0  0
  8  9  1  0  0  0  0
  9 16  1  0  0  0  0
 10  9  2  0  0  0  0
 10  1  1  0  0  0  0
 11 10  1  0  0  0  0
 12 13  1  0  0  0  0
 12 11  2  0  0  0  0
 13  8  2  0  0  0  0
 15 12  1  0  0  0  0
 16 17  1  0  0  0  0
 18 16  1  0  0  0  0
 19 20  1  1  0  0  0
 19 23  1  0  0  0  0
 20 21  1  0  0  0  0
 21 22  1  0  0  0  0
 23 22  1  0  0  0  0
 24 23  1  0  0  0  0
M  END
>  <minimizedAffinity>
-4.89524889

$$$$

 OpenBabel03252509253D

 24 26  0  0  1  0  0  0  0  0999 V2000
   37.1990   26.6870   42.1740 C   0  0  1  0  0  0  0  0  0  0  0  0
   36.4360   27.4400   43.2990 C   0  0  0  0  0  0  0  0  0  0  0  0
   36.9720   28.0730   41.9730 C   0  0  2  0  0  0  0  0  0  0  0  0
   36.6310   25.8500   41.7390 H   0  0  0  0  0  0  0  0  0  0  0  0
   36.9620   27.7270   44.2050 H   0  0  0  0  0  0  0  0  0  0  0  0
   35.3810   27.1870   43.3280 H   0  0  0  0  0  0  0  0  0  0  0  0
   37.8540   28.7650   42.1400 H   0  0  0  0  0  0  0  0  0  0  0  0
   40.2060   24.6140   43.0410 C   0  0  0  0  0  0  0  0  0  0  0  0
   38.8770   24.9230   42.5940 C   0  0  0  0  0  0  0  0  0  0  0  0
   38.5610   26.2530   42.6920 C   0  0  0  0  0  0  0  0  0  0  0  0
   39.4570   27.2020   43.1860 N   0  0  0  0  0  0  0  0  0  0  0  0
   40.6780   26.8350   43.5840 C   0  0  0  0  0  0  0  0  0  0  0  0
   41.0620   25.5310   43.5130 N   0  0  0  0  0  0  0  0  0  0  0  0
   40.5120   23.5900   42.9870 H   0  0  0  0  0  0  0  0  0  0  0  0
   41.2130   27.7090   43.9290 H   0  0  0  0  0  0  0  0  0  0  0  0
   37.9710   23.9450   42.1180 N   0  0  0  0  0  0  0  0  0  0  0  0
   37.8170   23.6260   41.1420 H   0  0  0  0  0  0  0  0  0  0  0  0
   37.5990   23.7400   43.0900 H   0  0  0  0  0  0  0  0  0  0  0  0
   35.9270   28.6710   41.2110 N   0  0  1  0  0  0  0  0  0  0  0  0
   36.1840   30.0920   41.1010 C   0  0  0  0  0  2  0  0  0  0  0  0
   36.8260   30.3120   39.7520 C   0  0  0  0  0  2  0  0  0  0  0  0
   37.0770   28.9230   39.2190 C   0  0  0  0  0  2  0  0  0  0  0  0
   35.9040   28.1790   39.8430 C   0  0  0  0  0  3  0  0  0  0  0  0
   36.0020   27.0970   39.7840 H   0  0  0  0  0  0  0  0  0  0  0  0
  1  4  1  6  0  0  0
  1 10  1  0  0  0  0
  1  2  1  0  0  0  0
  2  6  1  0  0  0  0
  2  5  1  0  0  0  0
  3  7  1  1  0  0  0
  3  1  1  0  0  0  0
  3  2  1  0  0  0  0
  8 13  1  0  0  0  0
  9 10  1  0  0  0  0
  9  8  2  0  0  0  0
 10 11  2  0  0  0  0
 11 12  1  0  0  0  0
 12 15  1  0  0  0  0
 13 12  2  0  0  0  0
 14  8  1  0  0  0  0
 16  9  1  0  0  0  0
 16 18  1  0  0  0  0
 17 16  1  0  0  0  0
 19 20  1  6  0  0  0
 19  3  1  0  0  0  0
 21 20  1  0  0  0  0
 22 21  1  0  0  0  0
 22 23  1  0  0  0  0
 23 19  1  0  0  0  0
 24 23  1  0  0  0  0
M  END
>  <minimizedAffinity>
-4.47981215

$$$$

 OpenBabel03252509253D

 24 26  0  0  1  0  0  0  0  0999 V2000
   37.3660   28.3010   42.2560 C   0  0  1  0  0  0  0  0  0  0  0  0
   36.6950   27.3860   43.3170 C   0  0  0  0  0  0  0  0  0  0  0  0
   38.0820   27.1380   42.6380 C   0  0  2  0  0  0  0  0  0  0  0  0
   37.5360   29.3310   42.6050 H   0  0  0  0  0  0  0  0  0  0  0  0
   35.8970   26.7130   43.0180 H   0  0  0  0  0  0  0  0  0  0  0  0
   36.7080   27.8210   44.3110 H   0  0  0  0  0  0  0  0  0  0  0  0
   38.0690   26.2670   41.9130 H   0  0  0  0  0  0  0  0  0  0  0  0
   35.1770   29.2680   39.3640 C   0  0  0  0  0  0  0  0  0  0  0  0
   35.8490   29.3750   40.6270 C   0  0  0  0  0  0  0  0  0  0  0  0
   36.5600   28.2540   40.9670 C   0  0  0  0  0  0  0  0  0  0  0  0
   36.6110   27.1230   40.1520 N   0  0  0  0  0  0  0  0  0  0  0  0
   35.9560   27.0990   38.9880 C   0  0  0  0  0  0  0  0  0  0  0  0
   35.2300   28.1790   38.5850 N   0  0  0  0  0  0  0  0  0  0  0  0
   34.6050   30.1140   39.0440 H   0  0  0  0  0  0  0  0  0  0  0  0
   36.1210   26.1430   38.5100 H   0  0  0  0  0  0  0  0  0  0  0  0
   35.7680   30.5200   41.4550 N   0  0  0  0  0  0  0  0  0  0  0  0
   36.3970   31.3470   41.4800 H   0  0  0  0  0  0  0  0  0  0  0  0
   34.8970   30.1690   41.9470 H   0  0  0  0  0  0  0  0  0  0  0  0
   39.1330   27.0510   43.5970 N   0  0  1  0  0  0  0  0  0  0  0  0
   39.6700   25.7070   43.5820 C   0  0  0  0  0  2  0  0  0  0  0  0
   40.9150   25.7470   42.7290 C   0  0  0  0  0  2  0  0  0  0  0  0
   40.9210   27.1310   42.1300 C   0  0  0  0  0  2  0  0  0  0  0  0
   40.2530   27.9140   43.2530 C   0  0  0  0  0  3  0  0  0  0  0  0
   39.9380   28.9110   42.9520 H   0  0  0  0  0  0  0  0  0  0  0  0
  1  4  1  1  0  0  0
  1  3  1  0  0  0  0
  1  2  1  0  0  0  0
  2  6  1  0  0  0  0
  3  7  1  6  0  0  0
  3  2  1  0  0  0  0
  3 19  1  0  0  0  0
  5  2  1  0  0  0  0
  8  9  1  0  0  0  0
  9 10  2  0  0  0  0
  9 16  1  0  0  0  0
 10  1  1  0  0  0  0
 11 10  1  0  0  0  0
 12 11  2  0  0  0  0
 13 12  1  0  0  0  0
 13  8  2  0  0  0  0
 14  8  1  0  0  0  0
 15 12  1  0  0  0  0
 16 17  1  0  0  0  0
 16 18  1  0  0  0  0
 19 20  1  6  0  0  0
 21 20  1  0  0  0  0
 22 21  1  0  0  0  0
 22 23  1  0  0  0  0
 23 19  1  0  0  0  0
 24 23  1  0  0  0  0
M  END
>  <minimizedAffinity>
-4.41045761

$$$$

 OpenBabel03252509253D

 24 26  0  0  1  0  0  0  0  0999 V2000
   38.0180   30.6230   40.3950 C   0  0  1  0  0  0  0  0  0  0  0  0
   38.3860   29.6750   39.2200 C   0  0  0  0  0  0  0  0  0  0  0  0
   38.5860   29.3710   40.7410 C   0  0  2  0  0  0  0  0  0  0  0  0
   36.9530   30.9010   40.4210 H   0  0  0  0  0  0  0  0  0  0  0  0
   39.2940   29.8530   38.6510 H   0  0  0  0  0  0  0  0  0  0  0  0
   37.5120   29.2410   38.7460 H   0  0  0  0  0  0  0  0  0  0  0  0
   39.6770   29.3720   41.0510 H   0  0  0  0  0  0  0  0  0  0  0  0
   39.2670   34.1610   40.2620 C   0  0  0  0  0  0  0  0  0  0  0  0
   38.3400   33.0660   40.2070 C   0  0  0  0  0  0  0  0  0  0  0  0
   38.9300   31.8400   40.3660 C   0  0  0  0  0  0  0  0  0  0  0  0
   40.3040   31.6880   40.5580 N   0  0  0  0  0  0  0  0  0  0  0  0
   41.1030   32.7580   40.5970 C   0  0  0  0  0  0  0  0  0  0  0  0
   40.5850   34.0090   40.4480 N   0  0  0  0  0  0  0  0  0  0  0  0
   38.8650   35.1450   40.1450 H   0  0  0  0  0  0  0  0  0  0  0  0
   42.1220   32.4310   40.7530 H   0  0  0  0  0  0  0  0  0  0  0  0
   36.9520   33.2340   39.9860 N   0  0  0  0  0  0  0  0  0  0  0  0
   36.1940   33.3450   40.6880 H   0  0  0  0  0  0  0  0  0  0  0  0
   37.0610   33.1980   38.9320 H   0  0  0  0  0  0  0  0  0  0  0  0
   37.8910   28.1920   41.1410 N   0  0  1  0  0  0  0  0  0  0  0  0
   38.8320   27.2830   41.7600 C   0  0  0  0  0  2  0  0  0  0  0  0
   38.6880   27.4610   43.2530 C   0  0  0  0  0  2  0  0  0  0  0  0
   37.7640   28.6430   43.4070 C   0  0  0  0  0  2  0  0  0  0  0  0
   36.8980   28.4720   42.1670 C   0  0  0  0  0  3  0  0  0  0  0  0
   36.2950   29.3490   41.9400 H   0  0  0  0  0  0  0  0  0  0  0  0
  1  4  1  1  0  0  0
  1  3  1  0  0  0  0
  2  1  1  0  0  0  0
  2  3  1  0  0  0  0
  3  7  1  1  0  0  0
  3 19  1  0  0  0  0
  5  2  1  0  0  0  0
  6  2  1  0  0  0  0
  8 13  1  0  0  0  0
  9  8  2  0  0  0  0
  9 10  1  0  0  0  0
 10  1  1  0  0  0  0
 10 11  2  0  0  0  0
 11 12  1  0  0  0  0
 12 15  1  0  0  0  0
 13 12  2  0  0  0  0
 14  8  1  0  0  0  0
 16  9  1  0  0  0  0
 16 17  1  0  0  0  0
 18 16  1  0  0  0  0
 19 20  1  1  0  0  0
 19 23  1  0  0  0  0
 20 21  1  0  0  0  0
 21 22  1  0  0  0  0
 23 22  1  0  0  0  0
 24 23  1  0  0  0  0
M  END
>  <minimizedAffinity>
-4.37073755

$$$$

 OpenBabel03252509253D

 24 26  0  0  1  0  0  0  0  0999 V2000
   39.3210   30.7460   42.2180 C   0  0  1  0  0  0  0  0  0  0  0  0
   40.7010   31.1480   41.6280 C   0  0  0  0  0  0  0  0  0  0  0  0
   39.3900   30.9030   40.8110 C   0  0  2  0  0  0  0  0  0  0  0  0
   38.9270   31.4670   42.9500 H   0  0  0  0  0  0  0  0  0  0  0  0
   41.4760   30.3960   41.5130 H   0  0  0  0  0  0  0  0  0  0  0  0
   40.9590   32.1810   41.8390 H   0  0  0  0  0  0  0  0  0  0  0  0
   39.4270   29.9550   40.1910 H   0  0  0  0  0  0  0  0  0  0  0  0
   38.4000   27.3750   43.5910 C   0  0  0  0  0  0  0  0  0  0  0  0
   38.2320   28.7240   43.1310 C   0  0  0  0  0  0  0  0  0  0  0  0
   39.4070   29.3370   42.7860 C   0  0  0  0  0  0  0  0  0  0  0  0
   40.6440   28.6960   42.8820 N   0  0  0  0  0  0  0  0  0  0  0  0
   40.7190   27.4370   43.3210 C   0  0  0  0  0  0  0  0  0  0  0  0
   39.5900   26.7650   43.6800 N   0  0  0  0  0  0  0  0  0  0  0  0
   37.5170   26.8430   43.8740 H   0  0  0  0  0  0  0  0  0  0  0  0
   41.7550   27.1260   43.3200 H   0  0  0  0  0  0  0  0  0  0  0  0
   36.9730   29.3690   43.0630 N   0  0  0  0  0  0  0  0  0  0  0  0
   36.3130   29.4160   42.2630 H   0  0  0  0  0  0  0  0  0  0  0  0
   37.0370   29.7160   44.0630 H   0  0  0  0  0  0  0  0  0  0  0  0
   39.0140   32.0520   40.0550 N   0  0  1  0  0  0  0  0  0  0  0  0
   38.9850   31.6980   38.6510 C   0  0  0  0  0  2  0  0  0  0  0  0
   37.5410   31.4220   38.3040 C   0  0  0  0  0  2  0  0  0  0  0  0
   36.8190   31.4580   39.6280 C   0  0  0  0  0  2  0  0  0  0  0  0
   37.6630   32.4880   40.3670 C   0  0  0  0  0  3  0  0  0  0  0  0
   37.4670   32.5140   41.4380 H   0  0  0  0  0  0  0  0  0  0  0  0
  1 10  1  0  0  0  0
  1  4  1  1  0  0  0
  2  6  1  0  0  0  0
  2  1  1  0  0  0  0
  3  7  1  6  0  0  0
  3  2  1  0  0  0  0
  3  1  1  0  0  0  0
  5  2  1  0  0  0  0
  8 13  1  0  0  0  0
  8 14  1  0  0  0  0
  9  8  2  0  0  0  0
 10 11  2  0  0  0  0
 10  9  1  0  0  0  0
 11 12  1  0  0  0  0
 12 13  2  0  0  0  0
 15 12  1  0  0  0  0
 16  9  1  0  0  0  0
 16 18  1  0  0  0  0
 17 16  1  0  0  0  0
 19 20  1  6  0  0  0
 19 23  1  0  0  0  0
 19  3  1  0  0  0  0
 21 20  1  0  0  0  0
 21 22  1  0  0  0  0
 22 23  1  0  0  0  0
 23 24  1  0  0  0  0
M  END
>  <minimizedAffinity>
-4.36505222

$$$$

 OpenBabel03252509253D

 24 26  0  0  1  0  0  0  0  0999 V2000
   37.9110   27.8620   42.8370 C   0  0  1  0  0  0  0  0  0  0  0  0
   36.5240   27.4120   43.3710 C   0  0  0  0  0  0  0  0  0  0  0  0
   37.3270   26.7300   42.2160 C   0  0  2  0  0  0  0  0  0  0  0  0
   38.7000   27.8670   43.6060 H   0  0  0  0  0  0  0  0  0  0  0  0
   35.6310   27.9530   43.0700 H   0  0  0  0  0  0  0  0  0  0  0  0
   36.5840   26.9480   44.3490 H   0  0  0  0  0  0  0  0  0  0  0  0
   36.8570   26.8900   41.1970 H   0  0  0  0  0  0  0  0  0  0  0  0
   38.6990   31.1840   41.2760 C   0  0  0  0  0  0  0  0  0  0  0  0
   38.9080   29.9630   42.0010 C   0  0  0  0  0  0  0  0  0  0  0  0
   37.7730   29.2090   42.1450 C   0  0  0  0  0  0  0  0  0  0  0  0
   36.5380   29.6090   41.6320 N   0  0  0  0  0  0  0  0  0  0  0  0
   36.4230   30.7620   40.9680 C   0  0  0  0  0  0  0  0  0  0  0  0
   37.5110   31.5610   40.7850 N   0  0  0  0  0  0  0  0  0  0  0  0
   39.5500   31.8150   41.1300 H   0  0  0  0  0  0  0  0  0  0  0  0
   35.3960   30.8870   40.6550 H   0  0  0  0  0  0  0  0  0  0  0  0
   40.1620   29.5830   42.5370 N   0  0  0  0  0  0  0  0  0  0  0  0
   40.9060   29.0060   42.0980 H   0  0  0  0  0  0  0  0  0  0  0  0
   39.9890   30.0970   43.4480 H   0  0  0  0  0  0  0  0  0  0  0  0
   37.5970   25.3590   42.4980 N   0  0  1  0  0  0  0  0  0  0  0  0
   36.9200   24.5370   41.5160 C   0  0  0  0  0  2  0  0  0  0  0  0
   37.9490   24.1710   40.4740 C   0  0  0  0  0  2  0  0  0  0  0  0
   39.1640   24.9870   40.8360 C   0  0  0  0  0  2  0  0  0  0  0  0
   39.0100   25.0440   42.3490 C   0  0  0  0  0  3  0  0  0  0  0  0
   39.6560   25.7830   42.8190 H   0  0  0  0  0  0  0  0  0  0  0  0
  1  2  1  0  0  0  0
  1  4  1  1  0  0  0
  2  6  1  0  0  0  0
  3  7  1  6  0  0  0
  3 19  1  0  0  0  0
  3  1  1  0  0  0  0
  3  2  1  0  0  0  0
  5  2  1  0  0  0  0
  8  9  1  0  0  0  0
  9 10  2  0  0  0  0
  9 16  1  0  0  0  0
 10  1  1  0  0  0  0
 11 10  1  0  0  0  0
 12 11  2  0  0  0  0
 13 12  1  0  0  0  0
 13  8  2  0  0  0  0
 14  8  1  0  0  0  0
 15 12  1  0  0  0  0
 16 18  1  0  0  0  0
 17 16  1  0  0  0  0
 19 20  1  6  0  0  0
 21 22  1  0  0  0  0
 21 20  1  0  0  0  0
 22 23  1  0  0  0  0
 23 19  1  0  0  0  0
 23 24  1  0  0  0  0
M  END
>  <minimizedAffinity>
-4.20417738

$$$$

 OpenBabel03252509253D

 24 26  0  0  1  0  0  0  0  0999 V2000
   38.3570   28.8250   43.2570 C   0  0  1  0  0  0  0  0  0  0  0  0
   37.1770   27.8870   43.6340 C   0  0  0  0  0  0  0  0  0  0  0  0
   38.4700   27.4680   42.8610 C   0  0  2  0  0  0  0  0  0  0  0  0
   38.8330   29.3060   44.1240 H   0  0  0  0  0  0  0  0  0  0  0  0
   36.2630   27.9110   43.0470 H   0  0  0  0  0  0  0  0  0  0  0  0
   37.1470   27.6610   44.6950 H   0  0  0  0  0  0  0  0  0  0  0  0
   38.2750   27.2350   41.7680 H   0  0  0  0  0  0  0  0  0  0  0  0
   38.2880   31.6380   40.7730 C   0  0  0  0  0  0  0  0  0  0  0  0
   38.7940   30.7720   41.7990 C   0  0  0  0  0  0  0  0  0  0  0  0
   37.8870   29.8350   42.2220 C   0  0  0  0  0  0  0  0  0  0  0  0
   36.5970   29.7500   41.6960 N   0  0  0  0  0  0  0  0  0  0  0  0
   36.1990   30.5950   40.7410 C   0  0  0  0  0  0  0  0  0  0  0  0
   37.0480   31.5500   40.2710 N   0  0  0  0  0  0  0  0  0  0  0  0
   38.9510   32.3910   40.4000 H   0  0  0  0  0  0  0  0  0  0  0  0
   35.1780   30.3650   40.4710 H   0  0  0  0  0  0  0  0  0  0  0  0
   40.0970   30.8870   42.3400 N   0  0  0  0  0  0  0  0  0  0  0  0
   40.9680   30.4090   42.0360 H   0  0  0  0  0  0  0  0  0  0  0  0
   39.7870   31.5820   43.0770 H   0  0  0  0  0  0  0  0  0  0  0  0
   39.1780   26.4310   43.5360 N   0  0  1  0  0  0  0  0  0  0  0  0
   39.1350   25.2310   42.7260 C   0  0  0  0  0  2  0  0  0  0  0  0
   40.4450   25.1680   41.9770 C   0  0  0  0  0  2  0  0  0  0  0  0
   41.1170   26.4850   42.2750 C   0  0  0  0  0  2  0  0  0  0  0  0
   40.5910   26.7450   43.6800 C   0  0  0  0  0  3  0  0  0  0  0  0
   40.7630   27.7640   44.0200 H   0  0  0  0  0  0  0  0  0  0  0  0
  1  2  1  0  0  0  0
  1  4  1  1  0  0  0
  2  6  1  0  0  0  0
  3  7  1  6  0  0  0
  3  1  1  0  0  0  0
  3 19  1  0  0  0  0
  3  2  1  0  0  0  0
  5  2  1  0  0  0  0
  8  9  1  0  0  0  0
  9 10  2  0  0  0  0
  9 16  1  0  0  0  0
 10  1  1  0  0  0  0
 11 10  1  0  0  0  0
 12 11  2  0  0  0  0
 13 12  1  0  0  0  0
 13  8  2  0  0  0  0
 14  8  1  0  0  0  0
 15 12  1  0  0  0  0
 16 18  1  0  0  0  0
 17 16  1  0  0  0  0
 19 20  1  6  0  0  0
 19 23  1  0  0  0  0
 21 22  1  0  0  0  0
 21 20  1  0  0  0  0
 22 23  1  0  0  0  0
 23 24  1  0  0  0  0
M  END
>  <minimizedAffinity>
-4.18827343

$$$$

 OpenBabel03252509253D

 24 26  0  0  1  0  0  0  0  0999 V2000
   37.4650   30.5800   41.2100 C   0  0  1  0  0  0  0  0  0  0  0  0
   36.0460   30.1070   40.7890 C   0  0  0  0  0  0  0  0  0  0  0  0
   37.2110   29.1870   41.2820 C   0  0  2  0  0  0  0  0  0  0  0  0
   37.4610   31.3000   42.0430 H   0  0  0  0  0  0  0  0  0  0  0  0
   35.7980   30.0290   39.7350 H   0  0  0  0  0  0  0  0  0  0  0  0
   35.2870   30.3670   41.5180 H   0  0  0  0  0  0  0  0  0  0  0  0
   37.6450   28.5440   40.4550 H   0  0  0  0  0  0  0  0  0  0  0  0
   39.8400   32.4760   39.0060 C   0  0  0  0  0  0  0  0  0  0  0  0
   39.1450   32.0840   40.1990 C   0  0  0  0  0  0  0  0  0  0  0  0
   38.2020   31.1110   39.9910 C   0  0  0  0  0  0  0  0  0  0  0  0
   37.9520   30.5680   38.7300 N   0  0  0  0  0  0  0  0  0  0  0  0
   38.6420   30.9860   37.6650 C   0  0  0  0  0  0  0  0  0  0  0  0
   39.5960   31.9480   37.7980 N   0  0  0  0  0  0  0  0  0  0  0  0
   40.5900   33.2320   39.1050 H   0  0  0  0  0  0  0  0  0  0  0  0
   38.3020   30.4460   36.7920 H   0  0  0  0  0  0  0  0  0  0  0  0
   39.3930   32.6620   41.4670 N   0  0  0  0  0  0  0  0  0  0  0  0
   40.0550   32.3480   42.2040 H   0  0  0  0  0  0  0  0  0  0  0  0
   38.6890   33.4390   41.3100 H   0  0  0  0  0  0  0  0  0  0  0  0
   36.8410   28.4380   42.4370 N   0  0  1  0  0  0  0  0  0  0  0  0
   37.0220   27.0290   42.1590 C   0  0  0  0  0  2  0  0  0  0  0  0
   38.3540   26.6380   42.7530 C   0  0  0  0  0  2  0  0  0  0  0  0
   38.9690   27.9420   43.1990 C   0  0  0  0  0  2  0  0  0  0  0  0
   37.7130   28.7200   43.5670 C   0  0  0  0  0  3  0  0  0  0  0  0
   37.8930   29.7850   43.7030 H   0  0  0  0  0  0  0  0  0  0  0  0
  1  3  1  0  0  0  0
  1  4  1  1  0  0  0
  2  1  1  0  0  0  0
  2  3  1  0  0  0  0
  2  6  1  0  0  0  0
  3  7  1  6  0  0  0
  3 19  1  0  0  0  0
  5  2  1  0  0  0  0
  8 14  1  0  0  0  0
  8  9  1  0  0  0  0
  9 16  1  0  0  0  0
 10  9  2  0  0  0  0
 10  1  1  0  0  0  0
 11 10  1  0  0  0  0
 12 13  1  0  0  0  0
 12 11  2  0  0  0  0
 13  8  2  0  0  0  0
 15 12  1  0  0  0  0
 16 17  1  0  0  0  0
 18 16  1  0  0  0  0
 19 20  1  6  0  0  0
 19 23  1  0  0  0  0
 20 21  1  0  0  0  0
 21 22  1  0  0  0  0
 22 23  1  0  0  0  0
 23 24  1  0  0  0  0
M  END
>  <minimizedAffinity>
-4.18600321

$$$$

 OpenBabel03252509253D

 24 26  0  0  1  0  0  0  0  0999 V2000
   37.0630   27.4940   41.3490 C   0  0  1  0  0  0  0  0  0  0  0  0
   36.3930   27.4810   39.9480 C   0  0  0  0  0  0  0  0  0  0  0  0
   37.3640   26.3910   40.5100 C   0  0  2  0  0  0  0  0  0  0  0  0
   36.3440   27.5190   42.1820 H   0  0  0  0  0  0  0  0  0  0  0  0
   36.7930   28.1060   39.1550 H   0  0  0  0  0  0  0  0  0  0  0  0
   35.3310   27.2610   39.9950 H   0  0  0  0  0  0  0  0  0  0  0  0
   38.3760   26.3970   40.0000 H   0  0  0  0  0  0  0  0  0  0  0  0
   39.1470   30.3600   42.5880 C   0  0  0  0  0  0  0  0  0  0  0  0
   38.1280   29.3490   42.5860 C   0  0  0  0  0  0  0  0  0  0  0  0
   38.0650   28.6360   41.4180 C   0  0  0  0  0  0  0  0  0  0  0  0
   38.9180   28.8840   40.3410 N   0  0  0  0  0  0  0  0  0  0  0  0
   39.8430   29.8440   40.4200 C   0  0  0  0  0  0  0  0  0  0  0  0
   39.9640   30.5920   41.5510 N   0  0  0  0  0  0  0  0  0  0  0  0
   39.2460   30.9500   43.4750 H   0  0  0  0  0  0  0  0  0  0  0  0
   40.3960   29.8770   39.4910 H   0  0  0  0  0  0  0  0  0  0  0  0
   37.2540   29.1260   43.6770 N   0  0  0  0  0  0  0  0  0  0  0  0
   37.3700   28.4710   44.4750 H   0  0  0  0  0  0  0  0  0  0  0  0
   36.5510   29.8390   43.3300 H   0  0  0  0  0  0  0  0  0  0  0  0
   36.7570   25.1020   40.5330 N   0  0  1  0  0  0  0  0  0  0  0  0
   37.5130   24.2140   39.6750 C   0  0  0  0  0  2  0  0  0  0  0  0
   38.4300   23.4200   40.5750 C   0  0  0  0  0  2  0  0  0  0  0  0
   38.2710   24.0540   41.9340 C   0  0  0  0  0  2  0  0  0  0  0  0
   36.8170   24.4990   41.8550 C   0  0  0  0  0  3  0  0  0  0  0  0
   36.5370   25.1920   42.6460 H   0  0  0  0  0  0  0  0  0  0  0  0
  1 10  1  0  0  0  0
  1  4  1  1  0  0  0
  2  6  1  0  0  0  0
  2  3  1  0  0  0  0
  2  1  1  0  0  0  0
  3  7  1  6  0  0  0
  3 19  1  0  0  0  0
  3  1  1  0  0  0  0
  5  2  1  0  0  0  0
  8 14  1  0  0  0  0
  9  8  1  0  0  0  0
  9 16  1  0  0  0  0
 10  9  2  0  0  0  0
 11 12  2  0  0  0  0
 11 10  1  0  0  0  0
 12 13  1  0  0  0  0
 13  8  2  0  0  0  0
 15 12  1  0  0  0  0
 16 17  1  0  0  0  0
 18 16  1  0  0  0  0
 19 20  1  6  0  0  0
 19 23  1  0  0  0  0
 20 21  1  0  0  0  0
 21 22  1  0  0  0  0
 23 22  1  0  0  0  0
 23 24  1  0  0  0  0
M  END
>  <minimizedAffinity>
-4.10846472

$$$$
