
 OpenBabel03252509223D

 24 26  0  0  1  0  0  0  0  0999 V2000
   48.2230   33.9660   41.4660 C   0  0  1  0  0  0  0  0  0  0  0  0
   48.5710   35.4570   41.7310 C   0  0  0  0  0  0  0  0  0  0  0  0
   47.1380   34.8310   41.7580 C   0  0  2  0  0  0  0  0  0  0  0  0
   48.7210   33.2680   42.1560 H   0  0  0  0  0  0  0  0  0  0  0  0
   48.7820   36.1160   40.8940 H   0  0  0  0  0  0  0  0  0  0  0  0
   49.0560   35.6080   42.6890 H   0  0  0  0  0  0  0  0  0  0  0  0
   46.4960   35.1600   40.8840 H   0  0  0  0  0  0  0  0  0  0  0  0
   49.2200   32.1550   38.3330 C   0  0  0  0  0  0  0  0  0  0  0  0
   49.0570   32.4120   39.7360 C   0  0  0  0  0  0  0  0  0  0  0  0
   48.5020   33.6350   40.0090 C   0  0  0  0  0  0  0  0  0  0  0  0
   48.1390   34.5340   39.0050 N   0  0  0  0  0  0  0  0  0  0  0  0
   48.3230   34.2220   37.7190 C   0  0  0  0  0  0  0  0  0  0  0  0
   48.8680   33.0230   37.3740 N   0  0  0  0  0  0  0  0  0  0  0  0
   49.6480   31.2140   38.0570 H   0  0  0  0  0  0  0  0  0  0  0  0
   47.9800   35.0430   37.1050 H   0  0  0  0  0  0  0  0  0  0  0  0
   49.4530   31.5000   40.7430 N   0  0  0  0  0  0  0  0  0  0  0  0
   48.8900   30.7560   41.2010 H   0  0  0  0  0  0  0  0  0  0  0  0
   50.4380   31.8900   40.7840 H   0  0  0  0  0  0  0  0  0  0  0  0
   46.5030   35.0170   43.0210 N   0  0  1  0  0  0  0  0  0  0  0  0
   45.4210   35.9670   42.8650 C   0  0  0  0  0  2  0  0  0  0  0  0
   44.1520   35.1590   42.7300 C   0  0  0  0  0  2  0  0  0  0  0  0
   44.6200   33.7290   42.6320 C   0  0  0  0  0  2  0  0  0  0  0  0
   45.8730   33.7950   43.4960 C   0  0  0  0  0  3  0  0  0  0  0  0
   46.5140   32.9220   43.3880 H   0  0  0  0  0  0  0  0  0  0  0  0
  1  2  1  0  0  0  0
  1  3  1  0  0  0  0
  1  4  1  1  0  0  0
  2  3  1  0  0  0  0
  2  6  1  0  0  0  0
  3  7  1  6  0  0  0
  3 19  1  0  0  0  0
  5  2  1  0  0  0  0
  8  9  1  0  0  0  0
  9 10  2  0  0  0  0
  9 16  1  0  0  0  0
 10  1  1  0  0  0  0
 11 10  1  0  0  0  0
 12 11  2  0  0  0  0
 13 12  1  0  0  0  0
 13  8  2  0  0  0  0
 14  8  1  0  0  0  0
 15 12  1  0  0  0  0
 16 18  1  0  0  0  0
 16 17  1  0  0  0  0
 19 20  1  6  0  0  0
 19 23  1  0  0  0  0
 21 20  1  0  0  0  0
 22 21  1  0  0  0  0
 22 23  1  0  0  0  0
 24 23  1  0  0  0  0
M  END
>  <minimizedAffinity>
-3.96544933

>  <minimizedRMSD>
5.69264555

$$$$
