
 OpenBabel03252506373D

 41 44  0  0  1  0  0  0  0  0999 V2000
   44.5030   35.5360   45.1350 C   0  0  0  0  0  0  0  0  0  0  0  0
   45.1550   35.5240   43.8830 C   0  0  0  0  0  0  0  0  0  0  0  0
   46.0720   34.5630   43.6270 C   0  0  0  0  0  0  0  0  0  0  0  0
   46.3140   33.6530   44.6060 N   0  0  0  0  0  0  0  0  0  0  0  0
   45.6990   33.6720   45.7780 C   0  0  0  0  0  0  0  0  0  0  0  0
   44.7900   34.6070   46.0570 N   0  0  0  0  0  0  0  0  0  0  0  0
   46.0270   32.6640   46.7490 N   0  0  0  0  0  0  0  0  0  0  0  0
   45.2830   32.4220   47.9390 C   0  0  0  0  0  0  0  0  0  0  0  0
   46.3580   32.0630   48.9460 C   0  0  0  0  0  0  0  0  0  0  0  0
   47.6400   31.9700   48.1830 C   0  0  0  0  0  0  0  0  0  0  0  0
   47.1440   31.7510   46.7510 C   0  0  1  0  0  0  0  0  0  0  0  0
   43.7680   36.3120   45.3280 H   0  0  0  0  0  0  0  0  0  0  0  0
   46.5920   34.5230   42.6790 H   0  0  0  0  0  0  0  0  0  0  0  0
   44.3960   31.8670   47.9810 H   0  0  0  0  0  0  0  0  0  0  0  0
   44.9610   33.4560   48.2970 H   0  0  0  0  0  0  0  0  0  0  0  0
   46.1340   31.0370   49.3600 H   0  0  0  0  0  0  0  0  0  0  0  0
   46.4660   32.7410   49.7840 H   0  0  0  0  0  0  0  0  0  0  0  0
   48.2260   31.0830   48.5190 H   0  0  0  0  0  0  0  0  0  0  0  0
   48.2220   32.8980   48.2180 H   0  0  0  0  0  0  0  0  0  0  0  0
   47.9480   32.0440   46.0390 H   0  0  0  0  0  0  0  0  0  0  0  0
   44.8050   36.5420   42.9340 N   0  0  0  0  0  0  0  0  0  0  0  0
   45.5440   37.2460   42.7230 H   0  0  0  0  0  0  0  0  0  0  0  0
   43.8800   36.6270   42.4500 H   0  0  0  0  0  0  0  0  0  0  0  0
   46.6300   30.0630   46.5680 S   0  0  0  0  0  0  0  0  0  0  0  0
   45.7530   30.5400   43.3920 O   0  0  0  0  0  0  0  0  0  0  0  0
   45.0800   29.9980   44.2860 C   0  0  0  0  0  0  0  0  0  0  0  0
   45.1110   29.7720   45.7560 C   0  0  1  0  0  0  0  0  0  0  0  0
   44.5740   28.3690   45.8530 C   0  0  0  0  0  0  0  0  0  0  0  0
   43.2900   28.5860   45.0450 C   0  0  0  0  0  0  0  0  0  0  0  0
   43.8470   29.3400   43.9260 N   0  0  0  0  0  0  0  0  0  0  0  0
   44.2210   30.3750   46.0620 H   0  0  0  0  0  0  0  0  0  0  0  0
   45.2330   27.6540   45.3280 H   0  0  0  0  0  0  0  0  0  0  0  0
   44.3410   28.0880   46.8820 H   0  0  0  0  0  0  0  0  0  0  0  0
   42.6150   29.2320   45.6490 H   0  0  0  0  0  0  0  0  0  0  0  0
   42.8360   27.6440   44.7410 H   0  0  0  0  0  0  0  0  0  0  0  0
   41.3980   28.5410   43.2690 H   0  0  0  0  0  0  0  0  0  0  0  0
   42.1400   28.3470   42.5530 N   0  0  0  0  0  0  0  0  0  0  0  0
   41.5470   28.6880   41.2480 C   0  0  0  0  0  0  0  0  0  0  0  0
   41.4790   30.2180   41.2600 C   0  0  0  0  0  0  0  0  0  0  0  0
   42.3330   30.6060   42.4590 C   0  0  0  0  0  0  0  0  0  0  0  0
   43.1500   29.3530   42.6440 C   0  0  1  0  0  0  0  0  0  0  0  0
  1 12  1  0  0  0  0
  1  6  1  0  0  0  0
  2  1  2  0  0  0  0
  3  2  1  0  0  0  0
  3  4  2  0  0  0  0
  4  5  1  0  0  0  0
  5  6  2  0  0  0  0
  5  7  1  0  0  0  0
  7 11  1  0  0  0  0
  7  8  1  0  0  0  0
  8 14  1  0  0  0  0
  8 15  1  0  0  0  0
  8  9  1  0  0  0  0
  9 16  1  0  0  0  0
  9 17  1  0  0  0  0
 10 19  1  0  0  0  0
 10 18  1  0  0  0  0
 10  9  1  0  0  0  0
 11 20  1  6  0  0  0
 11 10  1  0  0  0  0
 13  3  1  0  0  0  0
 21  2  1  0  0  0  0
 22 21  1  0  0  0  0
 23 21  1  0  0  0  0
 24 11  1  0  0  0  0
 25 26  2  0  0  0  0
 26 27  1  0  0  0  0
 27 28  1  0  0  0  0
 27 31  1  1  0  0  0
 27 24  1  0  0  0  0
 28 33  1  0  0  0  0
 29 34  1  0  0  0  0
 29 28  1  0  0  0  0
 30 26  1  0  0  0  0
 30 29  1  0  0  0  0
 32 28  1  0  0  0  0
 35 29  1  0  0  0  0
 37 41  1  0  0  0  0
 37 36  1  0  0  0  0
 38 39  1  0  0  0  0
 38 37  1  0  0  0  0
 39 40  1  0  0  0  0
 41 40  1  1  0  0  0
 41 30  1  0  0  0  0
M  END
>  <minimizedAffinity>
-5.30150223

>  <minimizedRMSD>
0.18209964

$$$$
