
 OpenBabel03252507523D

 28 30  0  0  1  0  0  0  0  0999 V2000
   37.0110   27.7540   42.1830 C   0  0  2  0  0  0  0  0  0  0  0  0
   36.6660   27.7690   40.7260 C   0  0  0  0  0  0  0  0  0  0  0  0
   35.8080   29.0420   40.7060 C   0  0  0  0  0  0  0  0  0  0  0  0
   36.5140   29.9770   41.6790 C   0  0  1  0  0  0  0  0  0  0  0  0
   37.6080   29.1610   42.3320 C   0  0  0  0  0  0  0  0  0  0  0  0
   36.1340   27.6640   42.8420 H   0  0  0  0  0  0  0  0  0  0  0  0
   36.1070   26.8930   40.3700 H   0  0  0  0  0  0  0  0  0  0  0  0
   37.5690   27.9870   40.1400 H   0  0  0  0  0  0  0  0  0  0  0  0
   35.7020   29.4460   39.7020 H   0  0  0  0  0  0  0  0  0  0  0  0
   34.8420   28.7650   41.1780 H   0  0  0  0  0  0  0  0  0  0  0  0
   35.8380   30.3100   42.4860 H   0  0  0  0  0  0  0  0  0  0  0  0
   38.5750   29.2120   41.8390 H   0  0  0  0  0  0  0  0  0  0  0  0
   37.7220   29.3860   43.4080 H   0  0  0  0  0  0  0  0  0  0  0  0
   39.9540   25.9150   43.6790 C   0  0  0  0  0  0  0  0  0  0  0  0
   39.1060   26.9980   43.3720 C   0  0  0  0  0  0  0  0  0  0  0  0
   37.9840   26.7120   42.5730 C   0  0  0  0  0  0  0  0  0  0  0  0
   37.7730   25.4170   42.1420 N   0  0  0  0  0  0  0  0  0  0  0  0
   38.6300   24.4320   42.4780 C   0  0  0  0  0  0  0  0  0  0  0  0
   39.7070   24.6740   43.2360 N   0  0  0  0  0  0  0  0  0  0  0  0
   40.8220   26.1160   44.2920 H   0  0  0  0  0  0  0  0  0  0  0  0
   39.2770   28.0100   43.7140 H   0  0  0  0  0  0  0  0  0  0  0  0
   38.3300   23.4740   42.0640 H   0  0  0  0  0  0  0  0  0  0  0  0
   36.9300   31.1100   40.9540 N   0  0  2  0  0  0  0  0  0  0  0  0
   36.5700   31.1560   39.5740 C   0  0  0  0  0  2  0  0  0  0  0  0
   37.3240   32.3780   39.0840 C   0  0  0  0  0  2  0  0  0  0  0  0
   38.3290   32.7140   40.1630 C   0  0  0  0  0  2  0  0  0  0  0  0
   38.3260   31.4380   41.0180 C   0  0  0  0  0  3  0  0  0  0  0  0
   38.5820   31.7150   42.0420 H   0  0  0  0  0  0  0  0  0  0  0  0
  1  5  1  0  0  0  0
  1 16  1  0  0  0  0
  1  6  1  1  0  0  0
  2  1  1  0  0  0  0
  3  2  1  0  0  0  0
  3 10  1  0  0  0  0
  3  4  1  0  0  0  0
  4  5  1  0  0  0  0
  4 11  1  1  0  0  0
  5 13  1  0  0  0  0
  7  2  1  0  0  0  0
  8  2  1  0  0  0  0
  9  3  1  0  0  0  0
 12  5  1  0  0  0  0
 14 20  1  0  0  0  0
 15 14  1  0  0  0  0
 15 21  1  0  0  0  0
 16 15  2  0  0  0  0
 17 18  2  0  0  0  0
 17 16  1  0  0  0  0
 18 19  1  0  0  0  0
 19 14  2  0  0  0  0
 22 18  1  0  0  0  0
 23 24  1  6  0  0  0
 23 27  1  0  0  0  0
 23  4  1  0  0  0  0
 25 24  1  0  0  0  0
 25 26  1  0  0  0  0
 26 27  1  0  0  0  0
 27 28  1  0  0  0  0
M  END
>  <minimizedAffinity>
-4.93572903

$$$$

 OpenBabel03252507523D

 28 30  0  0  1  0  0  0  0  0999 V2000
   36.8170   29.2810   41.6590 C   0  0  2  0  0  0  0  0  0  0  0  0
   37.8940   29.4150   42.6920 C   0  0  0  0  0  0  0  0  0  0  0  0
   37.5220   28.2080   43.5670 C   0  0  0  0  0  0  0  0  0  0  0  0
   37.0830   27.1490   42.5660 C   0  0  1  0  0  0  0  0  0  0  0  0
   37.0480   27.8300   41.2160 C   0  0  0  0  0  0  0  0  0  0  0  0
   35.8000   29.3740   42.0700 H   0  0  0  0  0  0  0  0  0  0  0  0
   37.8800   30.3530   43.2610 H   0  0  0  0  0  0  0  0  0  0  0  0
   38.8660   29.1860   42.2350 H   0  0  0  0  0  0  0  0  0  0  0  0
   38.3470   27.9000   44.2050 H   0  0  0  0  0  0  0  0  0  0  0  0
   36.6130   28.5090   44.1290 H   0  0  0  0  0  0  0  0  0  0  0  0
   36.0580   26.7950   42.7720 H   0  0  0  0  0  0  0  0  0  0  0  0
   37.9670   27.7550   40.6400 H   0  0  0  0  0  0  0  0  0  0  0  0
   36.1900   27.5060   40.5980 H   0  0  0  0  0  0  0  0  0  0  0  0
   36.9240   30.7890   38.1950 C   0  0  0  0  0  0  0  0  0  0  0  0
   36.7920   29.7970   39.1880 C   0  0  0  0  0  0  0  0  0  0  0  0
   36.9380   30.2180   40.5220 C   0  0  0  0  0  0  0  0  0  0  0  0
   37.1940   31.5490   40.7880 N   0  0  0  0  0  0  0  0  0  0  0  0
   37.3060   32.4410   39.7830 C   0  0  0  0  0  0  0  0  0  0  0  0
   37.1740   32.0700   38.5030 N   0  0  0  0  0  0  0  0  0  0  0  0
   36.8150   30.4840   37.1640 H   0  0  0  0  0  0  0  0  0  0  0  0
   36.5900   28.7560   38.9730 H   0  0  0  0  0  0  0  0  0  0  0  0
   37.5080   33.4430   40.1500 H   0  0  0  0  0  0  0  0  0  0  0  0
   37.9620   26.0560   42.6910 N   0  0  2  0  0  0  0  0  0  0  0  0
   39.1670   26.2810   43.4200 C   0  0  0  0  0  2  0  0  0  0  0  0
   39.9310   24.9910   43.1910 C   0  0  0  0  0  2  0  0  0  0  0  0
   39.2290   24.2820   42.0540 C   0  0  0  0  0  2  0  0  0  0  0  0
   38.3440   25.3950   41.4740 C   0  0  0  0  0  3  0  0  0  0  0  0
   37.4630   24.9310   41.0270 H   0  0  0  0  0  0  0  0  0  0  0  0
  1  6  1  1  0  0  0
  1  2  1  0  0  0  0
  2  7  1  0  0  0  0
  2  3  1  0  0  0  0
  3 10  1  0  0  0  0
  3  9  1  0  0  0  0
  4 23  1  0  0  0  0
  4 11  1  1  0  0  0
  4  3  1  0  0  0  0
  5  1  1  0  0  0  0
  5  4  1  0  0  0  0
  8  2  1  0  0  0  0
 12  5  1  0  0  0  0
 13  5  1  0  0  0  0
 14 19  2  0  0  0  0
 14 15  1  0  0  0  0
 15 16  2  0  0  0  0
 16 17  1  0  0  0  0
 16  1  1  0  0  0  0
 18 22  1  0  0  0  0
 18 17  2  0  0  0  0
 19 18  1  0  0  0  0
 20 14  1  0  0  0  0
 21 15  1  0  0  0  0
 23 24  1  6  0  0  0
 25 24  1  0  0  0  0
 26 25  1  0  0  0  0
 27 26  1  0  0  0  0
 27 23  1  0  0  0  0
 28 27  1  0  0  0  0
M  END
>  <minimizedAffinity>
-4.74948263

$$$$

 OpenBabel03252507523D

 28 30  0  0  1  0  0  0  0  0999 V2000
   37.8080   28.9480   42.5260 C   0  0  2  0  0  0  0  0  0  0  0  0
   39.0590   28.1250   42.5160 C   0  0  0  0  0  0  0  0  0  0  0  0
   38.5120   26.8670   43.2060 C   0  0  0  0  0  0  0  0  0  0  0  0
   37.0990   26.7300   42.6540 C   0  0  1  0  0  0  0  0  0  0  0  0
   36.8400   27.9760   41.8370 C   0  0  0  0  0  0  0  0  0  0  0  0
   37.4350   29.1690   43.5390 H   0  0  0  0  0  0  0  0  0  0  0  0
   39.9060   28.5580   43.0640 H   0  0  0  0  0  0  0  0  0  0  0  0
   39.2970   27.8410   41.4820 H   0  0  0  0  0  0  0  0  0  0  0  0
   39.1430   26.0000   43.0290 H   0  0  0  0  0  0  0  0  0  0  0  0
   38.4080   27.1310   44.2790 H   0  0  0  0  0  0  0  0  0  0  0  0
   36.3470   26.7150   43.4620 H   0  0  0  0  0  0  0  0  0  0  0  0
   37.0830   27.8910   40.7810 H   0  0  0  0  0  0  0  0  0  0  0  0
   35.8090   28.3560   41.9560 H   0  0  0  0  0  0  0  0  0  0  0  0
   37.0530   31.9660   40.3800 C   0  0  0  0  0  0  0  0  0  0  0  0
   36.8340   30.7360   41.0320 C   0  0  0  0  0  0  0  0  0  0  0  0
   37.9060   30.2250   41.7880 C   0  0  0  0  0  0  0  0  0  0  0  0
   39.0880   30.9360   41.8540 N   0  0  0  0  0  0  0  0  0  0  0  0
   39.2220   32.1090   41.2010 C   0  0  0  0  0  0  0  0  0  0  0  0
   38.2210   32.6200   40.4730 N   0  0  0  0  0  0  0  0  0  0  0  0
   36.2420   32.3740   39.7940 H   0  0  0  0  0  0  0  0  0  0  0  0
   35.9060   30.1840   40.9770 H   0  0  0  0  0  0  0  0  0  0  0  0
   40.2050   32.5460   41.3490 H   0  0  0  0  0  0  0  0  0  0  0  0
   37.0310   25.5050   41.9620 N   0  0  2  0  0  0  0  0  0  0  0  0
   38.0580   24.5540   42.2380 C   0  0  0  0  0  2  0  0  0  0  0  0
   37.7850   23.4750   41.2080 C   0  0  0  0  0  2  0  0  0  0  0  0
   36.8290   24.0810   40.2050 C   0  0  0  0  0  2  0  0  0  0  0  0
   36.9220   25.5790   40.5330 C   0  0  0  0  0  3  0  0  0  0  0  0
   35.9700   26.0440   40.2700 H   0  0  0  0  0  0  0  0  0  0  0  0
  1  6  1  1  0  0  0
  2  1  1  0  0  0  0
  2  7  1  0  0  0  0
  2  3  1  0  0  0  0
  3 10  1  0  0  0  0
  4  3  1  0  0  0  0
  4 11  1  1  0  0  0
  5 13  1  0  0  0  0
  5  1  1  0  0  0  0
  5  4  1  0  0  0  0
  8  2  1  0  0  0  0
  9  3  1  0  0  0  0
 12  5  1  0  0  0  0
 14 19  2  0  0  0  0
 14 15  1  0  0  0  0
 15 16  2  0  0  0  0
 16 17  1  0  0  0  0
 16  1  1  0  0  0  0
 18 22  1  0  0  0  0
 18 17  2  0  0  0  0
 19 18  1  0  0  0  0
 20 14  1  0  0  0  0
 21 15  1  0  0  0  0
 23 24  1  6  0  0  0
 23  4  1  0  0  0  0
 25 24  1  0  0  0  0
 26 27  1  0  0  0  0
 26 25  1  0  0  0  0
 27 23  1  0  0  0  0
 28 27  1  0  0  0  0
M  END
>  <minimizedAffinity>
-4.7466464

$$$$

 OpenBabel03252507523D

 28 30  0  0  1  0  0  0  0  0999 V2000
   37.8870   29.0650   42.5920 C   0  0  2  0  0  0  0  0  0  0  0  0
   39.1170   28.2170   42.6990 C   0  0  0  0  0  0  0  0  0  0  0  0
   38.4890   26.9840   43.3650 C   0  0  0  0  0  0  0  0  0  0  0  0
   37.1230   26.8640   42.7040 C   0  0  1  0  0  0  0  0  0  0  0  0
   36.9580   28.0980   41.8450 C   0  0  0  0  0  0  0  0  0  0  0  0
   37.4390   29.3130   43.5670 H   0  0  0  0  0  0  0  0  0  0  0  0
   39.9270   28.6430   43.3060 H   0  0  0  0  0  0  0  0  0  0  0  0
   39.4320   27.9060   41.6930 H   0  0  0  0  0  0  0  0  0  0  0  0
   39.1140   26.1000   43.2570 H   0  0  0  0  0  0  0  0  0  0  0  0
   38.3050   27.2710   44.4220 H   0  0  0  0  0  0  0  0  0  0  0  0
   36.3080   26.8800   43.4480 H   0  0  0  0  0  0  0  0  0  0  0  0
   37.2830   27.9870   40.8140 H   0  0  0  0  0  0  0  0  0  0  0  0
   35.9290   28.5010   41.8730 H   0  0  0  0  0  0  0  0  0  0  0  0
   39.3450   32.2040   41.0770 C   0  0  0  0  0  0  0  0  0  0  0  0
   39.2960   31.0190   41.8370 C   0  0  0  0  0  0  0  0  0  0  0  0
   38.0720   30.3240   41.8410 C   0  0  0  0  0  0  0  0  0  0  0  0
   37.0070   30.8240   41.1170 N   0  0  0  0  0  0  0  0  0  0  0  0
   37.1320   31.9670   40.4120 C   0  0  0  0  0  0  0  0  0  0  0  0
   38.2830   32.6500   40.3900 N   0  0  0  0  0  0  0  0  0  0  0  0
   40.2770   32.7520   41.0610 H   0  0  0  0  0  0  0  0  0  0  0  0
   40.1340   30.6320   42.4010 H   0  0  0  0  0  0  0  0  0  0  0  0
   36.2110   32.2290   39.8990 H   0  0  0  0  0  0  0  0  0  0  0  0
   37.0840   25.6270   42.0320 N   0  0  2  0  0  0  0  0  0  0  0  0
   38.1600   24.7250   42.2850 C   0  0  0  0  0  2  0  0  0  0  0  0
   37.8990   23.6190   41.2800 C   0  0  0  0  0  2  0  0  0  0  0  0
   36.8850   24.1690   40.3020 C   0  0  0  0  0  2  0  0  0  0  0  0
   36.9240   25.6740   40.6060 C   0  0  0  0  0  3  0  0  0  0  0  0
   35.9450   26.0940   40.3690 H   0  0  0  0  0  0  0  0  0  0  0  0
  1  2  1  0  0  0  0
  1  6  1  1  0  0  0
  2  7  1  0  0  0  0
  2  3  1  0  0  0  0
  3 10  1  0  0  0  0
  4  3  1  0  0  0  0
  4 11  1  1  0  0  0
  5 13  1  0  0  0  0
  5  1  1  0  0  0  0
  5  4  1  0  0  0  0
  8  2  1  0  0  0  0
  9  3  1  0  0  0  0
 12  5  1  0  0  0  0
 14 15  1  0  0  0  0
 15 16  2  0  0  0  0
 15 21  1  0  0  0  0
 16  1  1  0  0  0  0
 17 16  1  0  0  0  0
 18 17  2  0  0  0  0
 19 18  1  0  0  0  0
 19 14  2  0  0  0  0
 20 14  1  0  0  0  0
 22 18  1  0  0  0  0
 23 24  1  6  0  0  0
 23  4  1  0  0  0  0
 25 24  1  0  0  0  0
 26 27  1  0  0  0  0
 26 25  1  0  0  0  0
 27 23  1  0  0  0  0
 28 27  1  0  0  0  0
M  END
>  <minimizedAffinity>
-4.70461321

$$$$

 OpenBabel03252507523D

 28 30  0  0  1  0  0  0  0  0999 V2000
   37.0940   29.6790   41.7300 C   0  0  2  0  0  0  0  0  0  0  0  0
   37.7920   29.0260   42.8830 C   0  0  0  0  0  0  0  0  0  0  0  0
   36.9360   27.7560   42.9810 C   0  0  0  0  0  0  0  0  0  0  0  0
   36.6370   27.4000   41.5310 C   0  0  1  0  0  0  0  0  0  0  0  0
   37.1650   28.5460   40.6970 C   0  0  0  0  0  0  0  0  0  0  0  0
   36.0370   29.9140   41.9330 H   0  0  0  0  0  0  0  0  0  0  0  0
   37.7830   29.6000   43.8190 H   0  0  0  0  0  0  0  0  0  0  0  0
   38.7950   28.7080   42.5670 H   0  0  0  0  0  0  0  0  0  0  0  0
   37.4400   26.9680   43.5360 H   0  0  0  0  0  0  0  0  0  0  0  0
   35.9730   28.0730   43.4340 H   0  0  0  0  0  0  0  0  0  0  0  0
   35.5520   27.3400   41.3430 H   0  0  0  0  0  0  0  0  0  0  0  0
   38.1850   28.4250   40.3430 H   0  0  0  0  0  0  0  0  0  0  0  0
   36.5000   28.7960   39.8490 H   0  0  0  0  0  0  0  0  0  0  0  0
   39.6040   32.3950   40.9580 C   0  0  0  0  0  0  0  0  0  0  0  0
   39.0990   31.1950   41.4950 C   0  0  0  0  0  0  0  0  0  0  0  0
   37.7470   30.9070   41.2310 C   0  0  0  0  0  0  0  0  0  0  0  0
   37.0020   31.7910   40.4750 N   0  0  0  0  0  0  0  0  0  0  0  0
   37.5580   32.9210   39.9930 C   0  0  0  0  0  0  0  0  0  0  0  0
   38.8400   33.2230   40.2290 N   0  0  0  0  0  0  0  0  0  0  0  0
   40.6410   32.6340   41.1510 H   0  0  0  0  0  0  0  0  0  0  0  0
   39.6880   30.5060   42.0860 H   0  0  0  0  0  0  0  0  0  0  0  0
   36.8470   33.5110   39.4210 H   0  0  0  0  0  0  0  0  0  0  0  0
   37.2010   26.1340   41.2800 N   0  0  2  0  0  0  0  0  0  0  0  0
   36.8840   25.5280   40.0280 C   0  0  0  0  0  2  0  0  0  0  0  0
   37.4820   24.1420   40.1790 C   0  0  0  0  0  2  0  0  0  0  0  0
   37.7840   23.9710   41.6510 C   0  0  0  0  0  2  0  0  0  0  0  0
   36.9920   25.1270   42.2800 C   0  0  0  0  0  3  0  0  0  0  0  0
   37.4990   25.4250   43.2000 H   0  0  0  0  0  0  0  0  0  0  0  0
  1  6  1  1  0  0  0
  1  2  1  0  0  0  0
  2  3  1  0  0  0  0
  2  7  1  0  0  0  0
  3 10  1  0  0  0  0
  3  9  1  0  0  0  0
  4 11  1  6  0  0  0
  4  3  1  0  0  0  0
  5  4  1  0  0  0  0
  5  1  1  0  0  0  0
  8  2  1  0  0  0  0
 12  5  1  0  0  0  0
 13  5  1  0  0  0  0
 14 20  1  0  0  0  0
 14 15  1  0  0  0  0
 15 21  1  0  0  0  0
 16 15  2  0  0  0  0
 16  1  1  0  0  0  0
 17 16  1  0  0  0  0
 18 19  1  0  0  0  0
 18 17  2  0  0  0  0
 19 14  2  0  0  0  0
 22 18  1  0  0  0  0
 23 24  1  6  0  0  0
 23  4  1  0  0  0  0
 23 27  1  0  0  0  0
 24 25  1  0  0  0  0
 25 26  1  0  0  0  0
 26 27  1  0  0  0  0
 27 28  1  0  0  0  0
M  END
>  <minimizedAffinity>
-4.53035736

$$$$

 OpenBabel03252507523D

 28 30  0  0  1  0  0  0  0  0999 V2000
   36.9960   30.7480   39.4700 C   0  0  2  0  0  0  0  0  0  0  0  0
   36.0070   30.6840   40.5940 C   0  0  0  0  0  0  0  0  0  0  0  0
   35.3460   29.3440   40.2410 C   0  0  0  0  0  0  0  0  0  0  0  0
   36.4980   28.4850   39.7390 C   0  0  1  0  0  0  0  0  0  0  0  0
   37.7020   29.3970   39.6560 C   0  0  0  0  0  0  0  0  0  0  0  0
   36.5280   30.7740   38.4740 H   0  0  0  0  0  0  0  0  0  0  0  0
   35.2800   31.5060   40.6220 H   0  0  0  0  0  0  0  0  0  0  0  0
   36.5440   30.5320   41.5400 H   0  0  0  0  0  0  0  0  0  0  0  0
   34.8120   28.9190   41.0880 H   0  0  0  0  0  0  0  0  0  0  0  0
   34.6970   29.5470   39.3630 H   0  0  0  0  0  0  0  0  0  0  0  0
   36.3100   28.1090   38.7180 H   0  0  0  0  0  0  0  0  0  0  0  0
   38.3240   29.4190   40.5460 H   0  0  0  0  0  0  0  0  0  0  0  0
   38.3260   29.1970   38.7650 H   0  0  0  0  0  0  0  0  0  0  0  0
   38.5970   34.1070   40.1310 C   0  0  0  0  0  0  0  0  0  0  0  0
   37.5920   33.1180   40.1020 C   0  0  0  0  0  0  0  0  0  0  0  0
   37.9520   31.8720   39.5550 C   0  0  0  0  0  0  0  0  0  0  0  0
   39.2380   31.6830   39.0890 N   0  0  0  0  0  0  0  0  0  0  0  0
   40.1450   32.6780   39.1510 C   0  0  0  0  0  0  0  0  0  0  0  0
   39.8330   33.8750   39.6640 N   0  0  0  0  0  0  0  0  0  0  0  0
   38.3400   35.0710   40.5460 H   0  0  0  0  0  0  0  0  0  0  0  0
   36.5870   33.2730   40.4690 H   0  0  0  0  0  0  0  0  0  0  0  0
   41.1070   32.3770   38.7460 H   0  0  0  0  0  0  0  0  0  0  0  0
   36.6120   27.3790   40.6040 N   0  0  2  0  0  0  0  0  0  0  0  0
   37.4410   27.5460   41.7530 C   0  0  0  0  0  2  0  0  0  0  0  0
   37.4830   26.1430   42.3280 C   0  0  0  0  0  2  0  0  0  0  0  0
   36.9520   25.2280   41.2470 C   0  0  0  0  0  2  0  0  0  0  0  0
   36.9980   26.1320   40.0060 C   0  0  0  0  0  3  0  0  0  0  0  0
   36.2130   25.8060   39.3200 H   0  0  0  0  0  0  0  0  0  0  0  0
  1  6  1  6  0  0  0
  1 16  1  0  0  0  0
  1  5  1  0  0  0  0
  1  2  1  0  0  0  0
  2  7  1  0  0  0  0
  2  8  1  0  0  0  0
  3  2  1  0  0  0  0
  3  9  1  0  0  0  0
  4 11  1  6  0  0  0
  4  3  1  0  0  0  0
  4 23  1  0  0  0  0
  5  4  1  0  0  0  0
  5 12  1  0  0  0  0
 10  3  1  0  0  0  0
 13  5  1  0  0  0  0
 14 20  1  0  0  0  0
 15 14  1  0  0  0  0
 15 21  1  0  0  0  0
 16 15  2  0  0  0  0
 17 18  2  0  0  0  0
 17 16  1  0  0  0  0
 18 19  1  0  0  0  0
 19 14  2  0  0  0  0
 22 18  1  0  0  0  0
 23 24  1  1  0  0  0
 24 25  1  0  0  0  0
 26 25  1  0  0  0  0
 27 23  1  0  0  0  0
 27 26  1  0  0  0  0
 28 27  1  0  0  0  0
M  END
>  <minimizedAffinity>
-4.52778959

$$$$

 OpenBabel03252507523D

 28 30  0  0  1  0  0  0  0  0999 V2000
   37.3810   30.9920   41.1470 C   0  0  2  0  0  0  0  0  0  0  0  0
   37.0330   31.0050   39.6910 C   0  0  0  0  0  0  0  0  0  0  0  0
   37.2790   32.4940   39.4090 C   0  0  0  0  0  0  0  0  0  0  0  0
   38.5010   32.8320   40.2520 C   0  0  1  0  0  0  0  0  0  0  0  0
   38.7860   31.6080   41.0940 C   0  0  0  0  0  0  0  0  0  0  0  0
   36.7300   31.6350   41.7600 H   0  0  0  0  0  0  0  0  0  0  0  0
   36.0030   30.7070   39.4540 H   0  0  0  0  0  0  0  0  0  0  0  0
   37.7960   30.4470   39.1310 H   0  0  0  0  0  0  0  0  0  0  0  0
   37.4040   32.6920   38.3470 H   0  0  0  0  0  0  0  0  0  0  0  0
   36.4220   33.0340   39.8640 H   0  0  0  0  0  0  0  0  0  0  0  0
   38.2960   33.6610   40.9510 H   0  0  0  0  0  0  0  0  0  0  0  0
   39.4880   30.9030   40.6570 H   0  0  0  0  0  0  0  0  0  0  0  0
   39.1010   31.8630   42.1230 H   0  0  0  0  0  0  0  0  0  0  0  0
   38.0550   28.0580   43.4310 C   0  0  0  0  0  0  0  0  0  0  0  0
   38.1180   29.3790   42.9440 C   0  0  0  0  0  0  0  0  0  0  0  0
   37.4040   29.6480   41.7620 C   0  0  0  0  0  0  0  0  0  0  0  0
   36.6920   28.6320   41.1540 N   0  0  0  0  0  0  0  0  0  0  0  0
   36.6790   27.3910   41.6820 C   0  0  0  0  0  0  0  0  0  0  0  0
   37.3500   27.1040   42.8040 N   0  0  0  0  0  0  0  0  0  0  0  0
   38.5980   27.8310   44.3380 H   0  0  0  0  0  0  0  0  0  0  0  0
   38.6770   30.1700   43.4250 H   0  0  0  0  0  0  0  0  0  0  0  0
   36.0780   26.7050   41.0920 H   0  0  0  0  0  0  0  0  0  0  0  0
   39.5250   33.2360   39.3730 N   0  0  2  0  0  0  0  0  0  0  0  0
   40.0120   32.2540   38.4610 C   0  0  0  0  0  2  0  0  0  0  0  0
   41.1970   32.9590   37.8290 C   0  0  0  0  0  2  0  0  0  0  0  0
   41.4860   34.1610   38.7000 C   0  0  0  0  0  2  0  0  0  0  0  0
   40.6810   33.8430   39.9690 C   0  0  0  0  0  3  0  0  0  0  0  0
   40.3910   34.7880   40.4330 H   0  0  0  0  0  0  0  0  0  0  0  0
  1  6  1  1  0  0  0
  1 16  1  0  0  0  0
  2  1  1  0  0  0  0
  3  2  1  0  0  0  0
  3 10  1  0  0  0  0
  3  4  1  0  0  0  0
  4 11  1  1  0  0  0
  4  5  1  0  0  0  0
  5  1  1  0  0  0  0
  5 13  1  0  0  0  0
  7  2  1  0  0  0  0
  8  2  1  0  0  0  0
  9  3  1  0  0  0  0
 12  5  1  0  0  0  0
 14 20  1  0  0  0  0
 15 21  1  0  0  0  0
 15 14  1  0  0  0  0
 16 15  2  0  0  0  0
 17 18  2  0  0  0  0
 17 16  1  0  0  0  0
 18 19  1  0  0  0  0
 19 14  2  0  0  0  0
 22 18  1  0  0  0  0
 23 24  1  1  0  0  0
 23 27  1  0  0  0  0
 23  4  1  0  0  0  0
 25 24  1  0  0  0  0
 25 26  1  0  0  0  0
 26 27  1  0  0  0  0
 27 28  1  0  0  0  0
M  END
>  <minimizedAffinity>
-4.47727966

$$$$

 OpenBabel03252507523D

 28 30  0  0  1  0  0  0  0  0999 V2000
   36.5930   30.2330   38.6120 C   0  0  2  0  0  0  0  0  0  0  0  0
   37.9860   29.7970   38.9460 C   0  0  0  0  0  0  0  0  0  0  0  0
   38.0740   30.3770   40.3650 C   0  0  0  0  0  0  0  0  0  0  0  0
   36.6820   30.1530   40.9410 C   0  0  1  0  0  0  0  0  0  0  0  0
   35.8310   29.6360   39.8030 C   0  0  0  0  0  0  0  0  0  0  0  0
   36.4620   31.3270   38.6140 H   0  0  0  0  0  0  0  0  0  0  0  0
   38.7700   30.1970   38.2900 H   0  0  0  0  0  0  0  0  0  0  0  0
   38.0090   28.7030   39.0490 H   0  0  0  0  0  0  0  0  0  0  0  0
   38.8720   29.9170   40.9430 H   0  0  0  0  0  0  0  0  0  0  0  0
   38.1910   31.4730   40.2380 H   0  0  0  0  0  0  0  0  0  0  0  0
   36.2250   31.0990   41.2790 H   0  0  0  0  0  0  0  0  0  0  0  0
   35.7880   28.5540   39.7160 H   0  0  0  0  0  0  0  0  0  0  0  0
   34.8070   30.0530   39.8150 H   0  0  0  0  0  0  0  0  0  0  0  0
   34.4520   28.6260   35.9450 C   0  0  0  0  0  0  0  0  0  0  0  0
   34.8310   29.0690   37.2270 C   0  0  0  0  0  0  0  0  0  0  0  0
   36.0780   29.7140   37.3270 C   0  0  0  0  0  0  0  0  0  0  0  0
   36.8480   29.8780   36.1930 N   0  0  0  0  0  0  0  0  0  0  0  0
   36.4160   29.4260   34.9980 C   0  0  0  0  0  0  0  0  0  0  0  0
   35.2360   28.8080   34.8710 N   0  0  0  0  0  0  0  0  0  0  0  0
   33.4980   28.1270   35.8480 H   0  0  0  0  0  0  0  0  0  0  0  0
   34.2230   28.9380   38.1120 H   0  0  0  0  0  0  0  0  0  0  0  0
   37.1300   29.6290   34.2050 H   0  0  0  0  0  0  0  0  0  0  0  0
   36.8160   29.3030   42.0560 N   0  0  2  0  0  0  0  0  0  0  0  0
   38.1020   29.2490   42.6710 C   0  0  0  0  0  2  0  0  0  0  0  0
   37.9320   28.1270   43.6780 C   0  0  0  0  0  2  0  0  0  0  0  0
   36.6570   27.4080   43.2970 C   0  0  0  0  0  2  0  0  0  0  0  0
   36.3950   27.9420   41.8810 C   0  0  0  0  0  3  0  0  0  0  0  0
   35.3170   27.9200   41.7050 H   0  0  0  0  0  0  0  0  0  0  0  0
  1  6  1  1  0  0  0
  1  2  1  0  0  0  0
  1  5  1  0  0  0  0
  2  8  1  0  0  0  0
  2  3  1  0  0  0  0
  3  4  1  0  0  0  0
  3  9  1  0  0  0  0
  4 11  1  1  0  0  0
  4 23  1  0  0  0  0
  5 13  1  0  0  0  0
  5  4  1  0  0  0  0
  7  2  1  0  0  0  0
 10  3  1  0  0  0  0
 12  5  1  0  0  0  0
 14 15  1  0  0  0  0
 15 16  2  0  0  0  0
 15 21  1  0  0  0  0
 16  1  1  0  0  0  0
 17 16  1  0  0  0  0
 18 17  2  0  0  0  0
 19 18  1  0  0  0  0
 19 14  2  0  0  0  0
 20 14  1  0  0  0  0
 22 18  1  0  0  0  0
 23 24  1  6  0  0  0
 24 25  1  0  0  0  0
 26 25  1  0  0  0  0
 27 23  1  0  0  0  0
 27 26  1  0  0  0  0
 28 27  1  0  0  0  0
M  END
>  <minimizedAffinity>
-4.37589359

$$$$

 OpenBabel03252507523D

 28 30  0  0  1  0  0  0  0  0999 V2000
   36.2950   28.6970   40.8840 C   0  0  2  0  0  0  0  0  0  0  0  0
   37.4520   29.4130   41.5110 C   0  0  0  0  0  0  0  0  0  0  0  0
   37.4190   28.7390   42.8900 C   0  0  0  0  0  0  0  0  0  0  0  0
   37.0540   27.2920   42.5850 C   0  0  1  0  0  0  0  0  0  0  0  0
   36.7260   27.2410   41.1090 C   0  0  0  0  0  0  0  0  0  0  0  0
   35.3380   28.8720   41.4000 H   0  0  0  0  0  0  0  0  0  0  0  0
   37.3420   30.5030   41.5840 H   0  0  0  0  0  0  0  0  0  0  0  0
   38.3830   29.0920   41.0250 H   0  0  0  0  0  0  0  0  0  0  0  0
   38.3600   28.8560   43.4230 H   0  0  0  0  0  0  0  0  0  0  0  0
   36.5490   29.1790   43.4220 H   0  0  0  0  0  0  0  0  0  0  0  0
   36.1450   26.9790   43.1260 H   0  0  0  0  0  0  0  0  0  0  0  0
   37.5630   26.9930   40.4610 H   0  0  0  0  0  0  0  0  0  0  0  0
   35.8690   26.5780   40.8870 H   0  0  0  0  0  0  0  0  0  0  0  0
   34.8170   29.0610   37.4260 C   0  0  0  0  0  0  0  0  0  0  0  0
   34.8770   28.7360   38.7960 C   0  0  0  0  0  0  0  0  0  0  0  0
   36.0990   28.9860   39.4480 C   0  0  0  0  0  0  0  0  0  0  0  0
   37.1510   29.5240   38.7330 N   0  0  0  0  0  0  0  0  0  0  0  0
   37.0160   29.8090   37.4220 C   0  0  0  0  0  0  0  0  0  0  0  0
   35.8670   29.5820   36.7740 N   0  0  0  0  0  0  0  0  0  0  0  0
   33.8860   28.8770   36.9070 H   0  0  0  0  0  0  0  0  0  0  0  0
   34.0500   28.3150   39.3500 H   0  0  0  0  0  0  0  0  0  0  0  0
   37.9270   30.2240   37.0010 H   0  0  0  0  0  0  0  0  0  0  0  0
   38.1250   26.4850   43.0140 N   0  0  2  0  0  0  0  0  0  0  0  0
   39.2880   27.1600   43.4890 C   0  0  0  0  0  2  0  0  0  0  0  0
   40.2720   26.0200   43.6740 C   0  0  0  0  0  2  0  0  0  0  0  0
   39.6810   24.8320   42.9500 C   0  0  0  0  0  2  0  0  0  0  0  0
   38.5870   25.4850   42.0920 C   0  0  0  0  0  3  0  0  0  0  0  0
   37.7950   24.7510   41.9340 H   0  0  0  0  0  0  0  0  0  0  0  0
  1  5  1  0  0  0  0
  1  6  1  1  0  0  0
  1  2  1  0  0  0  0
  2  7  1  0  0  0  0
  2  3  1  0  0  0  0
  3 10  1  0  0  0  0
  3  9  1  0  0  0  0
  4  3  1  0  0  0  0
  4 23  1  0  0  0  0
  4 11  1  1  0  0  0
  5  4  1  0  0  0  0
  8  2  1  0  0  0  0
 12  5  1  0  0  0  0
 13  5  1  0  0  0  0
 14 15  1  0  0  0  0
 15 21  1  0  0  0  0
 15 16  2  0  0  0  0
 16  1  1  0  0  0  0
 17 16  1  0  0  0  0
 18 17  2  0  0  0  0
 19 18  1  0  0  0  0
 19 14  2  0  0  0  0
 20 14  1  0  0  0  0
 22 18  1  0  0  0  0
 23 24  1  6  0  0  0
 24 25  1  0  0  0  0
 26 25  1  0  0  0  0
 27 26  1  0  0  0  0
 27 23  1  0  0  0  0
 28 27  1  0  0  0  0
M  END
>  <minimizedAffinity>
-4.36615133

$$$$
