
 OpenBabel03252509083D

 38 41  0  0  1  0  0  0  0  0999 V2000
   45.3820   35.3540   43.2080 Cl  0  0  0  0  0  0  0  0  0  0  0  0
   45.2120   34.5810   41.6570 C   0  0  0  0  0  0  0  0  0  0  0  0
   46.2940   34.1750   40.9570 C   0  0  0  0  0  0  0  0  0  0  0  0
   46.0480   33.5690   39.7290 C   0  0  0  0  0  0  0  0  0  0  0  0
   44.7780   33.3860   39.2400 C   0  0  0  0  0  0  0  0  0  0  0  0
   43.7070   33.8020   39.9630 C   0  0  0  0  0  0  0  0  0  0  0  0
   43.9340   34.4030   41.1800 C   0  0  0  0  0  0  0  0  0  0  0  0
   44.5930   32.9140   38.2840 H   0  0  0  0  0  0  0  0  0  0  0  0
   42.6860   33.6730   39.6060 H   0  0  0  0  0  0  0  0  0  0  0  0
   43.0720   34.7380   41.7610 H   0  0  0  0  0  0  0  0  0  0  0  0
   47.6390   31.8180   38.9350 C   0  0  0  0  0  0  0  0  0  0  0  0
   47.1750   33.0990   38.9400 C   0  0  0  0  0  0  0  0  0  0  0  0
   47.8060   34.0350   38.1440 C   0  0  0  0  0  0  0  0  0  0  0  0
   48.8790   33.6810   37.3630 C   0  0  0  0  0  0  0  0  0  0  0  0
   49.3650   32.3790   37.3420 C   0  0  0  0  0  0  0  0  0  0  0  0
   48.7270   31.4420   38.1460 C   0  0  0  0  0  0  0  0  0  0  0  0
   47.4550   35.0740   38.1300 H   0  0  0  0  0  0  0  0  0  0  0  0
   49.3290   34.4580   36.7620 H   0  0  0  0  0  0  0  0  0  0  0  0
   50.1960   32.1000   36.7370 H   0  0  0  0  0  0  0  0  0  0  0  0
   49.0980   30.4310   38.1350 H   0  0  0  0  0  0  0  0  0  0  0  0
   46.9040   30.6100   39.8560 S   0  0  0  0  0  0  0  0  0  0  0  0
   45.6210   30.1000   39.2480 O   0  0  0  0  0  0  0  0  0  0  0  0
   47.8760   29.3980   39.7240 O   0  0  0  0  0  0  0  0  0  0  0  0
   46.1090   28.6370   41.6760 H   0  0  0  0  0  0  0  0  0  0  0  0
   45.7180   29.5360   42.0310 N   0  0  0  0  0  0  0  0  0  0  0  0
   45.9450   29.7180   43.4520 C   0  0  0  0  0  2  0  0  0  0  0  0
   47.4370   29.5530   43.5000 C   0  0  0  0  0  2  0  0  0  0  0  0
   47.8770   29.8850   42.1140 C   0  0  0  0  0  2  0  0  0  0  0  0
   46.6120   30.5930   41.5110 C   0  0  1  0  0  3  0  0  0  0  0  0
   49.5830   35.7530   41.9170 C   0  0  0  0  0  0  0  0  0  0  0  0
   48.3070   35.5700   41.3740 C   0  0  0  0  0  0  0  0  0  0  0  0
   47.6110   34.3790   41.5050 C   0  0  0  0  0  0  0  0  0  0  0  0
   48.2610   33.4060   42.1960 N   0  0  0  0  0  0  0  0  0  0  0  0
   49.4860   33.5830   42.7160 C   0  0  0  0  0  0  0  0  0  0  0  0
   50.1360   34.7420   42.5770 N   0  0  0  0  0  0  0  0  0  0  0  0
   50.0150   36.7470   41.7360 H   0  0  0  0  0  0  0  0  0  0  0  0
   47.8050   36.3550   40.8270 H   0  0  0  0  0  0  0  0  0  0  0  0
   50.0260   32.8280   43.2710 H   0  0  0  0  0  0  0  0  0  0  0  0
  2  1  1  0  0  0  0
  3 32  1  0  0  0  0
  3  2  2  0  0  0  0
  4  3  1  0  0  0  0
  5  4  2  0  0  0  0
  5  6  1  0  0  0  0
  6  7  2  0  0  0  0
  7  2  1  0  0  0  0
  7 10  1  0  0  0  0
  8  5  1  0  0  0  0
  9  6  1  0  0  0  0
 11 12  1  0  0  0  0
 11 21  1  0  0  0  0
 12  4  1  0  0  0  0
 13 12  2  0  0  0  0
 14 13  1  0  0  0  0
 15 14  2  0  0  0  0
 15 16  1  0  0  0  0
 16 11  2  0  0  0  0
 17 13  1  0  0  0  0
 18 14  1  0  0  0  0
 19 15  1  0  0  0  0
 20 16  1  0  0  0  0
 22 21  2  0  0  0  0
 23 21  2  0  0  0  0
 24 25  1  0  0  0  0
 25 26  1  0  0  0  0
 26 27  1  0  0  0  0
 28 27  1  0  0  0  0
 29 21  1  6  0  0  0
 29 25  1  0  0  0  0
 29 28  1  0  0  0  0
 30 35  1  0  0  0  0
 31 32  1  0  0  0  0
 31 30  2  0  0  0  0
 32 33  2  0  0  0  0
 33 34  1  0  0  0  0
 34 38  1  0  0  0  0
 35 34  2  0  0  0  0
 36 30  1  0  0  0  0
 37 31  1  0  0  0  0
M  END
>  <minimizedAffinity>
-4.55688143

>  <minimizedRMSD>
1.11496162

$$$$
