
 OpenBabel03252502423D

 21 22  0  0  0  0  0  0  0  0999 V2000
   35.6780   29.9090   40.3270 C   0  0  0  0  0  0  0  0  0  0  0  0
   34.7180   30.4210   40.3500 H   0  0  0  0  0  0  0  0  0  0  0  0
   35.4810   28.8140   40.2020 H   0  0  0  0  0  0  0  0  0  0  0  0
   36.8810   30.0330   36.7500 C   0  0  0  0  0  0  0  0  0  0  0  0
   36.2580   29.5850   37.9170 C   0  0  0  0  0  0  0  0  0  0  0  0
   36.3470   30.3730   39.0720 C   0  0  0  0  0  0  0  0  0  0  0  0
   37.0400   31.5350   38.9870 N   0  0  0  0  0  0  0  0  0  0  0  0
   37.6290   31.9350   37.8450 C   0  0  0  0  0  0  0  0  0  0  0  0
   37.5540   31.1970   36.7330 N   0  0  0  0  0  0  0  0  0  0  0  0
   36.7740   29.3750   35.8920 H   0  0  0  0  0  0  0  0  0  0  0  0
   35.7130   28.6610   37.9630 H   0  0  0  0  0  0  0  0  0  0  0  0
   38.1620   32.8750   37.8630 H   0  0  0  0  0  0  0  0  0  0  0  0
   36.5980   30.1620   41.4840 C   0  0  0  0  0  0  0  0  0  0  0  0
   35.9170   30.3940   42.3550 H   0  0  0  0  0  0  0  0  0  0  0  0
   37.1900   31.0900   41.3630 H   0  0  0  0  0  0  0  0  0  0  0  0
   37.4180   29.0160   41.7970 N   0  0  0  0  0  0  0  0  0  0  0  0
   38.0550   29.1370   43.0930 C   0  0  0  0  0  2  0  0  0  0  0  0
   38.0050   27.7070   43.6680 C   0  0  0  0  0  2  0  0  0  0  0  0
   36.6250   27.3260   43.1940 C   0  0  0  0  0  2  0  0  0  0  0  0
   36.6140   27.8350   41.7790 C   0  0  0  0  0  3  0  0  0  0  0  0
   35.5760   28.0140   41.4180 H   0  0  0  0  0  0  0  0  0  0  0  0
  1  2  1  0  0  0  0
  1 13  1  0  0  0  0
  3  1  1  0  0  0  0
  4  5  1  0  0  0  0
  5 11  1  0  0  0  0
  5  6  2  0  0  0  0
  6  1  1  0  0  0  0
  7  6  1  0  0  0  0
  8 12  1  0  0  0  0
  8  7  2  0  0  0  0
  9  4  2  0  0  0  0
  9  8  1  0  0  0  0
 10  4  1  0  0  0  0
 13 16  1  0  0  0  0
 13 14  1  0  0  0  0
 15 13  1  0  0  0  0
 16 17  1  0  0  0  0
 17 18  1  0  0  0  0
 19 18  1  0  0  0  0
 20 16  1  0  0  0  0
 20 19  1  0  0  0  0
 21 20  1  0  0  0  0
M  END
>  <minimizedAffinity>
-3.93750143

$$$$

 OpenBabel03252502423D

 21 22  0  0  0  0  0  0  0  0999 V2000
   36.6860   27.3090   43.2080 C   0  0  0  0  0  0  0  0  0  0  0  0
   35.7190   27.1110   42.7490 H   0  0  0  0  0  0  0  0  0  0  0  0
   36.5670   27.2170   44.3160 H   0  0  0  0  0  0  0  0  0  0  0  0
   37.8390   24.0320   41.7280 C   0  0  0  0  0  0  0  0  0  0  0  0
   37.0020   25.0730   42.1350 C   0  0  0  0  0  0  0  0  0  0  0  0
   37.5700   26.1830   42.7740 C   0  0  0  0  0  0  0  0  0  0  0  0
   38.9130   26.1790   42.9610 N   0  0  0  0  0  0  0  0  0  0  0  0
   39.6890   25.1570   42.5560 C   0  0  0  0  0  0  0  0  0  0  0  0
   39.1640   24.0900   41.9450 N   0  0  0  0  0  0  0  0  0  0  0  0
   37.3340   23.2020   41.2400 H   0  0  0  0  0  0  0  0  0  0  0  0
   35.9400   25.0570   41.9770 H   0  0  0  0  0  0  0  0  0  0  0  0
   40.7510   25.2340   42.7440 H   0  0  0  0  0  0  0  0  0  0  0  0
   37.3450   28.6060   42.8420 C   0  0  0  0  0  0  0  0  0  0  0  0
   38.4400   28.4540   43.0720 H   0  0  0  0  0  0  0  0  0  0  0  0
   37.0510   29.4370   43.5120 H   0  0  0  0  0  0  0  0  0  0  0  0
   37.1790   28.9330   41.4460 N   0  0  0  0  0  0  0  0  0  0  0  0
   35.8130   28.7460   40.9990 C   0  0  0  0  0  2  0  0  0  0  0  0
   35.5720   29.9210   40.0300 C   0  0  0  0  0  2  0  0  0  0  0  0
   36.3010   30.9950   40.8000 C   0  0  0  0  0  2  0  0  0  0  0  0
   37.5610   30.2930   41.2260 C   0  0  0  0  0  3  0  0  0  0  0  0
   38.0120   30.7740   42.1220 H   0  0  0  0  0  0  0  0  0  0  0  0
  1  3  1  0  0  0  0
  2  1  1  0  0  0  0
  4  9  2  0  0  0  0
  4  5  1  0  0  0  0
  5  6  2  0  0  0  0
  6  7  1  0  0  0  0
  6  1  1  0  0  0  0
  8 12  1  0  0  0  0
  8  7  2  0  0  0  0
  9  8  1  0  0  0  0
 10  4  1  0  0  0  0
 11  5  1  0  0  0  0
 13 14  1  0  0  0  0
 13  1  1  0  0  0  0
 13 15  1  0  0  0  0
 16 13  1  0  0  0  0
 17 16  1  0  0  0  0
 18 19  1  0  0  0  0
 18 17  1  0  0  0  0
 19 20  1  0  0  0  0
 20 16  1  0  0  0  0
 20 21  1  0  0  0  0
M  END
>  <minimizedAffinity>
-3.91395235

$$$$

 OpenBabel03252502423D

 21 22  0  0  0  0  0  0  0  0999 V2000
   36.8590   27.8660   42.9590 C   0  0  0  0  0  0  0  0  0  0  0  0
   35.9350   27.3490   43.2090 H   0  0  0  0  0  0  0  0  0  0  0  0
   37.1110   28.5530   43.8050 H   0  0  0  0  0  0  0  0  0  0  0  0
   40.0620   25.9910   43.6560 C   0  0  0  0  0  0  0  0  0  0  0  0
   39.0870   26.9910   43.6800 C   0  0  0  0  0  0  0  0  0  0  0  0
   37.9150   26.8060   42.9360 C   0  0  0  0  0  0  0  0  0  0  0  0
   37.7950   25.6550   42.2290 N   0  0  0  0  0  0  0  0  0  0  0  0
   38.7560   24.7130   42.2280 C   0  0  0  0  0  0  0  0  0  0  0  0
   39.8810   24.8720   42.9320 N   0  0  0  0  0  0  0  0  0  0  0  0
   40.9460   26.1980   44.2530 H   0  0  0  0  0  0  0  0  0  0  0  0
   39.2010   27.8950   44.2470 H   0  0  0  0  0  0  0  0  0  0  0  0
   38.5810   23.8240   41.6380 H   0  0  0  0  0  0  0  0  0  0  0  0
   36.8820   28.5950   41.6480 C   0  0  0  0  0  0  0  0  0  0  0  0
   35.8500   28.4470   41.2120 H   0  0  0  0  0  0  0  0  0  0  0  0
   37.5490   28.1170   40.9060 H   0  0  0  0  0  0  0  0  0  0  0  0
   37.1480   30.0050   41.8070 N   0  0  0  0  0  0  0  0  0  0  0  0
   38.4860   30.3610   41.3800 C   0  0  0  0  0  2  0  0  0  0  0  0
   38.3090   31.7310   40.6970 C   0  0  0  0  0  2  0  0  0  0  0  0
   37.0050   31.4580   39.9890 C   0  0  0  0  0  2  0  0  0  0  0  0
   36.1990   30.7580   41.0480 C   0  0  0  0  0  3  0  0  0  0  0  0
   35.3960   30.1310   40.6000 H   0  0  0  0  0  0  0  0  0  0  0  0
  1  2  1  0  0  0  0
  1  3  1  0  0  0  0
  4  5  1  0  0  0  0
  4 10  1  0  0  0  0
  5 11  1  0  0  0  0
  6  1  1  0  0  0  0
  6  5  2  0  0  0  0
  7  6  1  0  0  0  0
  8  7  2  0  0  0  0
  8  9  1  0  0  0  0
  9  4  2  0  0  0  0
 12  8  1  0  0  0  0
 13 16  1  0  0  0  0
 13  1  1  0  0  0  0
 14 13  1  0  0  0  0
 15 13  1  0  0  0  0
 17 16  1  0  0  0  0
 18 17  1  0  0  0  0
 19 18  1  0  0  0  0
 19 20  1  0  0  0  0
 20 16  1  0  0  0  0
 21 20  1  0  0  0  0
M  END
>  <minimizedAffinity>
-3.89666557

$$$$

 OpenBabel03252502423D

 21 22  0  0  0  0  0  0  0  0999 V2000
   38.2040   30.0210   41.0100 C   0  0  0  0  0  0  0  0  0  0  0  0
   37.1550   29.7370   41.0670 H   0  0  0  0  0  0  0  0  0  0  0  0
   38.6600   29.4820   40.1430 H   0  0  0  0  0  0  0  0  0  0  0  0
   37.2140   33.3400   39.5060 C   0  0  0  0  0  0  0  0  0  0  0  0
   37.2070   31.9780   39.8170 C   0  0  0  0  0  0  0  0  0  0  0  0
   38.2050   31.4760   40.6620 C   0  0  0  0  0  0  0  0  0  0  0  0
   39.1280   32.3510   41.1330 N   0  0  0  0  0  0  0  0  0  0  0  0
   39.1050   33.6570   40.8100 C   0  0  0  0  0  0  0  0  0  0  0  0
   38.1600   34.1540   40.0060 N   0  0  0  0  0  0  0  0  0  0  0  0
   36.4140   33.6630   38.8450 H   0  0  0  0  0  0  0  0  0  0  0  0
   36.4660   31.3020   39.4350 H   0  0  0  0  0  0  0  0  0  0  0  0
   39.8780   34.2860   41.2290 H   0  0  0  0  0  0  0  0  0  0  0  0
   39.0170   29.8230   42.2550 C   0  0  0  0  0  0  0  0  0  0  0  0
   39.1230   30.8550   42.7030 H   0  0  0  0  0  0  0  0  0  0  0  0
   40.0610   29.5250   42.0400 H   0  0  0  0  0  0  0  0  0  0  0  0
   38.3710   28.9440   43.2010 N   0  0  0  0  0  0  0  0  0  0  0  0
   37.0070   28.6380   42.8200 C   0  0  0  0  0  2  0  0  0  0  0  0
   36.8360   27.1550   43.2020 C   0  0  0  0  0  2  0  0  0  0  0  0
   38.1940   26.6580   42.7750 C   0  0  0  0  0  2  0  0  0  0  0  0
   39.1120   27.7260   43.3030 C   0  0  0  0  0  3  0  0  0  0  0  0
   40.0750   27.7480   42.7430 H   0  0  0  0  0  0  0  0  0  0  0  0
  1  2  1  0  0  0  0
  1 13  1  0  0  0  0
  3  1  1  0  0  0  0
  4  5  2  0  0  0  0
  4  9  1  0  0  0  0
  5  6  1  0  0  0  0
  6  1  1  0  0  0  0
  6  7  2  0  0  0  0
  8  7  1  0  0  0  0
  8 12  1  0  0  0  0
  9  8  2  0  0  0  0
 10  4  1  0  0  0  0
 11  5  1  0  0  0  0
 13 14  1  0  0  0  0
 13 16  1  0  0  0  0
 15 13  1  0  0  0  0
 16 20  1  0  0  0  0
 17 16  1  0  0  0  0
 17 18  1  0  0  0  0
 19 18  1  0  0  0  0
 19 20  1  0  0  0  0
 21 20  1  0  0  0  0
M  END
>  <minimizedAffinity>
-3.84630847

$$$$

 OpenBabel03252502423D

 21 22  0  0  0  0  0  0  0  0999 V2000
   36.3250   28.6070   41.4670 C   0  0  0  0  0  0  0  0  0  0  0  0
   36.1410   28.3020   40.4390 H   0  0  0  0  0  0  0  0  0  0  0  0
   35.3750   28.4760   42.0410 H   0  0  0  0  0  0  0  0  0  0  0  0
   39.0080   27.0220   43.6000 C   0  0  0  0  0  0  0  0  0  0  0  0
   38.1080   27.9650   43.0970 C   0  0  0  0  0  0  0  0  0  0  0  0
   37.2990   27.6090   42.0100 C   0  0  0  0  0  0  0  0  0  0  0  0
   37.4380   26.3580   41.5070 N   0  0  0  0  0  0  0  0  0  0  0  0
   38.3170   25.4760   42.0170 C   0  0  0  0  0  0  0  0  0  0  0  0
   39.0970   25.7970   43.0530 N   0  0  0  0  0  0  0  0  0  0  0  0
   39.6050   27.3620   44.4420 H   0  0  0  0  0  0  0  0  0  0  0  0
   38.0120   28.9510   43.5110 H   0  0  0  0  0  0  0  0  0  0  0  0
   38.3650   24.4990   41.5560 H   0  0  0  0  0  0  0  0  0  0  0  0
   36.8890   29.9840   41.6630 C   0  0  0  0  0  0  0  0  0  0  0  0
   38.0030   29.8680   41.5210 H   0  0  0  0  0  0  0  0  0  0  0  0
   36.7940   30.3380   42.7080 H   0  0  0  0  0  0  0  0  0  0  0  0
   36.3700   30.9320   40.7060 N   0  0  0  0  0  0  0  0  0  0  0  0
   37.2920   32.0230   40.4620 C   0  0  0  0  0  2  0  0  0  0  0  0
   37.1560   32.2980   38.9520 C   0  0  0  0  0  2  0  0  0  0  0  0
   37.0500   30.8700   38.4760 C   0  0  0  0  0  2  0  0  0  0  0  0
   36.0990   30.2650   39.4720 C   0  0  0  0  0  3  0  0  0  0  0  0
   36.2210   29.1600   39.5320 H   0  0  0  0  0  0  0  0  0  0  0  0
  1 13  1  0  0  0  0
  1  6  1  0  0  0  0
  1  3  1  0  0  0  0
  2  1  1  0  0  0  0
  4 10  1  0  0  0  0
  5 11  1  0  0  0  0
  5  4  1  0  0  0  0
  6  5  2  0  0  0  0
  7  6  1  0  0  0  0
  7  8  2  0  0  0  0
  8  9  1  0  0  0  0
  9  4  2  0  0  0  0
 12  8  1  0  0  0  0
 13 15  1  0  0  0  0
 14 13  1  0  0  0  0
 16 13  1  0  0  0  0
 17 16  1  0  0  0  0
 18 17  1  0  0  0  0
 19 18  1  0  0  0  0
 19 20  1  0  0  0  0
 20 21  1  0  0  0  0
 20 16  1  0  0  0  0
M  END
>  <minimizedAffinity>
-3.78319645

$$$$

 OpenBabel03252502423D

 21 22  0  0  0  0  0  0  0  0999 V2000
   36.3410   28.6820   41.4840 C   0  0  0  0  0  0  0  0  0  0  0  0
   36.1440   28.3400   40.4700 H   0  0  0  0  0  0  0  0  0  0  0  0
   35.3930   28.5910   42.0710 H   0  0  0  0  0  0  0  0  0  0  0  0
   38.1770   25.4500   42.1460 C   0  0  0  0  0  0  0  0  0  0  0  0
   37.2700   26.3650   41.6070 C   0  0  0  0  0  0  0  0  0  0  0  0
   37.3030   27.6900   42.0590 C   0  0  0  0  0  0  0  0  0  0  0  0
   38.2220   28.0090   43.0030 N   0  0  0  0  0  0  0  0  0  0  0  0
   39.0800   27.1000   43.5010 C   0  0  0  0  0  0  0  0  0  0  0  0
   39.0640   25.8310   43.0820 N   0  0  0  0  0  0  0  0  0  0  0  0
   38.0980   24.4400   41.7530 H   0  0  0  0  0  0  0  0  0  0  0  0
   36.5500   26.0920   40.8590 H   0  0  0  0  0  0  0  0  0  0  0  0
   39.7820   27.4380   44.2520 H   0  0  0  0  0  0  0  0  0  0  0  0
   36.9290   30.0560   41.6210 C   0  0  0  0  0  0  0  0  0  0  0  0
   38.0380   29.9190   41.4550 H   0  0  0  0  0  0  0  0  0  0  0  0
   36.8670   30.4440   42.6560 H   0  0  0  0  0  0  0  0  0  0  0  0
   36.3990   30.9810   40.6480 N   0  0  0  0  0  0  0  0  0  0  0  0
   37.2690   32.1230   40.4490 C   0  0  0  0  0  2  0  0  0  0  0  0
   37.1810   32.4010   38.9350 C   0  0  0  0  0  2  0  0  0  0  0  0
   37.1740   30.9730   38.4490 C   0  0  0  0  0  2  0  0  0  0  0  0
   36.2170   30.3090   39.4000 C   0  0  0  0  0  3  0  0  0  0  0  0
   36.3990   29.2120   39.4600 H   0  0  0  0  0  0  0  0  0  0  0  0
  1 13  1  0  0  0  0
  1  6  1  0  0  0  0
  1  3  1  0  0  0  0
  2  1  1  0  0  0  0
  4  9  1  0  0  0  0
  5  6  1  0  0  0  0
  5  4  2  0  0  0  0
  6  7  2  0  0  0  0
  7  8  1  0  0  0  0
  8 12  1  0  0  0  0
  9  8  2  0  0  0  0
 10  4  1  0  0  0  0
 11  5  1  0  0  0  0
 13 15  1  0  0  0  0
 14 13  1  0  0  0  0
 16 13  1  0  0  0  0
 17 16  1  0  0  0  0
 18 17  1  0  0  0  0
 19 18  1  0  0  0  0
 19 20  1  0  0  0  0
 20 21  1  0  0  0  0
 20 16  1  0  0  0  0
M  END
>  <minimizedAffinity>
-3.7705698

$$$$

 OpenBabel03252502423D

 21 22  0  0  0  0  0  0  0  0999 V2000
   36.5310   30.8830   40.7220 C   0  0  0  0  0  0  0  0  0  0  0  0
   35.9830   31.1420   41.6250 H   0  0  0  0  0  0  0  0  0  0  0  0
   35.8340   30.9890   39.8530 H   0  0  0  0  0  0  0  0  0  0  0  0
   39.8550   32.6720   40.8140 C   0  0  0  0  0  0  0  0  0  0  0  0
   38.8890   31.6750   40.9680 C   0  0  0  0  0  0  0  0  0  0  0  0
   37.5740   31.9450   40.5690 C   0  0  0  0  0  0  0  0  0  0  0  0
   37.3140   33.1720   40.0520 N   0  0  0  0  0  0  0  0  0  0  0  0
   38.2700   34.1080   39.9200 C   0  0  0  0  0  0  0  0  0  0  0  0
   39.5310   33.8690   40.2940 N   0  0  0  0  0  0  0  0  0  0  0  0
   40.8540   32.3970   41.1440 H   0  0  0  0  0  0  0  0  0  0  0  0
   39.1150   30.7090   41.3790 H   0  0  0  0  0  0  0  0  0  0  0  0
   37.9790   35.0610   39.4980 H   0  0  0  0  0  0  0  0  0  0  0  0
   37.2050   29.5430   40.7120 C   0  0  0  0  0  0  0  0  0  0  0  0
   38.3000   29.7630   40.8820 H   0  0  0  0  0  0  0  0  0  0  0  0
   37.1880   29.0650   39.7130 H   0  0  0  0  0  0  0  0  0  0  0  0
   36.7130   28.6720   41.7520 N   0  0  0  0  0  0  0  0  0  0  0  0
   36.8980   27.2720   41.4260 C   0  0  0  0  0  2  0  0  0  0  0  0
   37.2810   26.6220   42.7710 C   0  0  0  0  0  2  0  0  0  0  0  0
   38.1750   27.7170   43.2980 C   0  0  0  0  0  2  0  0  0  0  0  0
   37.3920   28.9600   42.9760 C   0  0  0  0  0  3  0  0  0  0  0  0
   38.0540   29.8530   42.9130 H   0  0  0  0  0  0  0  0  0  0  0  0
  1  2  1  0  0  0  0
  3  1  1  0  0  0  0
  4  5  1  0  0  0  0
  4 10  1  0  0  0  0
  5 11  1  0  0  0  0
  6  1  1  0  0  0  0
  6  5  2  0  0  0  0
  7  6  1  0  0  0  0
  8  7  2  0  0  0  0
  8  9  1  0  0  0  0
  9  4  2  0  0  0  0
 12  8  1  0  0  0  0
 13  1  1  0  0  0  0
 13 14  1  0  0  0  0
 13 16  1  0  0  0  0
 15 13  1  0  0  0  0
 16 20  1  0  0  0  0
 17 16  1  0  0  0  0
 17 18  1  0  0  0  0
 18 19  1  0  0  0  0
 20 19  1  0  0  0  0
 21 20  1  0  0  0  0
M  END
>  <minimizedAffinity>
-3.74442887

$$$$

 OpenBabel03252502423D

 21 22  0  0  0  0  0  0  0  0999 V2000
   37.0220   27.3570   42.7660 C   0  0  0  0  0  0  0  0  0  0  0  0
   36.9480   27.7020   43.7950 H   0  0  0  0  0  0  0  0  0  0  0  0
   36.1860   26.6370   42.5820 H   0  0  0  0  0  0  0  0  0  0  0  0
   35.4700   29.6430   40.1920 C   0  0  0  0  0  0  0  0  0  0  0  0
   35.7210   28.5110   40.9700 C   0  0  0  0  0  0  0  0  0  0  0  0
   36.7480   28.5610   41.9210 C   0  0  0  0  0  0  0  0  0  0  0  0
   37.4450   29.7190   42.0310 N   0  0  0  0  0  0  0  0  0  0  0  0
   37.1750   30.7910   41.2640 C   0  0  0  0  0  0  0  0  0  0  0  0
   36.1990   30.7620   40.3510 N   0  0  0  0  0  0  0  0  0  0  0  0
   34.6610   29.5360   39.4740 H   0  0  0  0  0  0  0  0  0  0  0  0
   35.1570   27.6020   40.8680 H   0  0  0  0  0  0  0  0  0  0  0  0
   37.7790   31.6760   41.4160 H   0  0  0  0  0  0  0  0  0  0  0  0
   38.3400   26.7700   42.3530 C   0  0  0  0  0  0  0  0  0  0  0  0
   38.9480   26.7180   43.3040 H   0  0  0  0  0  0  0  0  0  0  0  0
   38.9250   27.4520   41.7060 H   0  0  0  0  0  0  0  0  0  0  0  0
   38.2010   25.4490   41.7880 N   0  0  0  0  0  0  0  0  0  0  0  0
   36.9570   24.8160   42.1770 C   0  0  0  0  0  2  0  0  0  0  0  0
   36.5100   24.0600   40.9090 C   0  0  0  0  0  2  0  0  0  0  0  0
   36.9000   25.0960   39.8850 C   0  0  0  0  0  2  0  0  0  0  0  0
   38.2580   25.5320   40.3620 C   0  0  0  0  0  3  0  0  0  0  0  0
   38.5140   26.5490   39.9900 H   0  0  0  0  0  0  0  0  0  0  0  0
  1  2  1  0  0  0  0
  3  1  1  0  0  0  0
  4  9  2  0  0  0  0
  4  5  1  0  0  0  0
  5  6  2  0  0  0  0
  6  7  1  0  0  0  0
  6  1  1  0  0  0  0
  8 12  1  0  0  0  0
  8  7  2  0  0  0  0
  9  8  1  0  0  0  0
 10  4  1  0  0  0  0
 11  5  1  0  0  0  0
 13  1  1  0  0  0  0
 13 14  1  0  0  0  0
 15 13  1  0  0  0  0
 16 17  1  0  0  0  0
 16 13  1  0  0  0  0
 18 17  1  0  0  0  0
 19 20  1  0  0  0  0
 19 18  1  0  0  0  0
 20 16  1  0  0  0  0
 21 20  1  0  0  0  0
M  END
>  <minimizedAffinity>
-3.66770077

$$$$

 OpenBabel03252502423D

 21 22  0  0  0  0  0  0  0  0999 V2000
   36.8410   29.8080   39.8810 C   0  0  0  0  0  0  0  0  0  0  0  0
   36.1890   29.1140   39.3540 H   0  0  0  0  0  0  0  0  0  0  0  0
   36.2690   30.7530   40.0580 H   0  0  0  0  0  0  0  0  0  0  0  0
   36.6830   27.4080   42.7920 C   0  0  0  0  0  0  0  0  0  0  0  0
   36.4480   27.9790   41.5390 C   0  0  0  0  0  0  0  0  0  0  0  0
   37.0780   29.1890   41.2230 C   0  0  0  0  0  0  0  0  0  0  0  0
   37.8860   29.7410   42.1620 N   0  0  0  0  0  0  0  0  0  0  0  0
   38.0890   29.1620   43.3590 C   0  0  0  0  0  0  0  0  0  0  0  0
   37.4970   28.0070   43.6790 N   0  0  0  0  0  0  0  0  0  0  0  0
   36.1640   26.4710   42.9730 H   0  0  0  0  0  0  0  0  0  0  0  0
   35.8040   27.5260   40.8090 H   0  0  0  0  0  0  0  0  0  0  0  0
   38.7490   29.6680   44.0510 H   0  0  0  0  0  0  0  0  0  0  0  0
   38.1680   30.0930   39.2420 C   0  0  0  0  0  0  0  0  0  0  0  0
   38.1660   29.4970   38.2820 H   0  0  0  0  0  0  0  0  0  0  0  0
   39.0160   29.6650   39.8120 H   0  0  0  0  0  0  0  0  0  0  0  0
   38.3470   31.4950   38.9470 N   0  0  0  0  0  0  0  0  0  0  0  0
   37.1210   32.2490   39.1100 C   0  0  0  0  0  2  0  0  0  0  0  0
   37.5820   33.5860   39.7220 C   0  0  0  0  0  2  0  0  0  0  0  0
   38.6310   33.0480   40.6630 C   0  0  0  0  0  2  0  0  0  0  0  0
   39.3490   32.0390   39.8090 C   0  0  0  0  0  3  0  0  0  0  0  0
   39.8610   31.2700   40.4300 H   0  0  0  0  0  0  0  0  0  0  0  0
  1  3  1  0  0  0  0
  1  6  1  0  0  0  0
  2  1  1  0  0  0  0
  4 10  1  0  0  0  0
  4  9  1  0  0  0  0
  5  4  2  0  0  0  0
  6  5  1  0  0  0  0
  6  7  2  0  0  0  0
  7  8  1  0  0  0  0
  8  9  2  0  0  0  0
  8 12  1  0  0  0  0
 11  5  1  0  0  0  0
 13 15  1  0  0  0  0
 13  1  1  0  0  0  0
 14 13  1  0  0  0  0
 16 17  1  0  0  0  0
 16 13  1  0  0  0  0
 16 20  1  0  0  0  0
 17 18  1  0  0  0  0
 18 19  1  0  0  0  0
 20 21  1  0  0  0  0
 20 19  1  0  0  0  0
M  END
>  <minimizedAffinity>
-3.64382052

$$$$
