
 OpenBabel03252509223D

 24 26  0  0  1  0  0  0  0  0999 V2000
   46.5460   34.9670   41.9340 C   0  0  1  0  0  0  0  0  0  0  0  0
   48.0500   35.3560   41.9540 C   0  0  0  0  0  0  0  0  0  0  0  0
   47.4600   34.0020   41.4390 C   0  0  2  0  0  0  0  0  0  0  0  0
   45.9210   35.6540   41.3430 H   0  0  0  0  0  0  0  0  0  0  0  0
   48.6050   35.3040   42.8860 H   0  0  0  0  0  0  0  0  0  0  0  0
   48.2990   36.0970   41.2020 H   0  0  0  0  0  0  0  0  0  0  0  0
   47.7010   33.1280   42.1210 H   0  0  0  0  0  0  0  0  0  0  0  0
   44.6350   35.4430   45.1290 C   0  0  0  0  0  0  0  0  0  0  0  0
   45.1010   35.7050   43.7970 C   0  0  0  0  0  0  0  0  0  0  0  0
   46.0450   34.8130   43.3610 C   0  0  0  0  0  0  0  0  0  0  0  0
   46.5020   33.7580   44.1530 N   0  0  0  0  0  0  0  0  0  0  0  0
   46.0190   33.5800   45.3860 C   0  0  0  0  0  0  0  0  0  0  0  0
   45.0760   34.4270   45.8840 N   0  0  0  0  0  0  0  0  0  0  0  0
   43.8940   36.1060   45.5250 H   0  0  0  0  0  0  0  0  0  0  0  0
   46.4960   32.7170   45.8290 H   0  0  0  0  0  0  0  0  0  0  0  0
   44.6460   36.7940   43.0150 N   0  0  0  0  0  0  0  0  0  0  0  0
   43.8590   36.8200   42.3380 H   0  0  0  0  0  0  0  0  0  0  0  0
   45.3820   37.4500   43.4040 H   0  0  0  0  0  0  0  0  0  0  0  0
   47.8020   33.7590   40.0770 N   0  0  1  0  0  0  0  0  0  0  0  0
   48.7150   32.6380   40.0150 C   0  0  0  0  0  2  0  0  0  0  0  0
   47.8880   31.4230   39.6670 C   0  0  0  0  0  2  0  0  0  0  0  0
   46.4610   31.9050   39.7280 C   0  0  0  0  0  2  0  0  0  0  0  0
   46.6460   33.3530   39.2930 C   0  0  0  0  0  3  0  0  0  0  0  0
   45.7710   33.9730   39.4810 H   0  0  0  0  0  0  0  0  0  0  0  0
  1  4  1  6  0  0  0
  1  2  1  0  0  0  0
  1 10  1  0  0  0  0
  2  5  1  0  0  0  0
  3  1  1  0  0  0  0
  3  2  1  0  0  0  0
  3  7  1  1  0  0  0
  6  2  1  0  0  0  0
  8 14  1  0  0  0  0
  8 13  1  0  0  0  0
  9  8  2  0  0  0  0
 10  9  1  0  0  0  0
 10 11  2  0  0  0  0
 11 12  1  0  0  0  0
 12 15  1  0  0  0  0
 12 13  2  0  0  0  0
 16 18  1  0  0  0  0
 16  9  1  0  0  0  0
 17 16  1  0  0  0  0
 19 20  1  1  0  0  0
 19  3  1  0  0  0  0
 21 22  1  0  0  0  0
 21 20  1  0  0  0  0
 23 24  1  0  0  0  0
 23 22  1  0  0  0  0
 23 19  1  0  0  0  0
M  END
>  <minimizedAffinity>
-4.46034002

>  <minimizedRMSD>
0.284314156

$$$$
