
 OpenBabel03252509223D

 24 26  0  0  1  0  0  0  0  0999 V2000
   46.5780   34.9710   41.9560 C   0  0  1  0  0  0  0  0  0  0  0  0
   48.0730   35.3880   41.9990 C   0  0  0  0  0  0  0  0  0  0  0  0
   47.5180   34.0170   41.4910 C   0  0  2  0  0  0  0  0  0  0  0  0
   45.9510   35.6390   41.3450 H   0  0  0  0  0  0  0  0  0  0  0  0
   48.6120   35.3580   42.9420 H   0  0  0  0  0  0  0  0  0  0  0  0
   48.3230   36.1240   41.2430 H   0  0  0  0  0  0  0  0  0  0  0  0
   47.7620   33.1560   42.1880 H   0  0  0  0  0  0  0  0  0  0  0  0
   44.6120   35.4670   45.1160 C   0  0  0  0  0  0  0  0  0  0  0  0
   45.1000   35.7200   43.7900 C   0  0  0  0  0  0  0  0  0  0  0  0
   46.0530   34.8260   43.3760 C   0  0  0  0  0  0  0  0  0  0  0  0
   46.4980   33.7770   44.1820 N   0  0  0  0  0  0  0  0  0  0  0  0
   45.9940   33.6070   45.4080 C   0  0  0  0  0  0  0  0  0  0  0  0
   45.0420   34.4560   45.8840 N   0  0  0  0  0  0  0  0  0  0  0  0
   43.8640   36.1310   45.4940 H   0  0  0  0  0  0  0  0  0  0  0  0
   46.4650   32.7480   45.8650 H   0  0  0  0  0  0  0  0  0  0  0  0
   44.6570   36.8030   42.9930 N   0  0  0  0  0  0  0  0  0  0  0  0
   43.8810   36.8230   42.3030 H   0  0  0  0  0  0  0  0  0  0  0  0
   45.3860   37.4620   43.3900 H   0  0  0  0  0  0  0  0  0  0  0  0
   47.8890   33.7630   40.1390 N   0  0  1  0  0  0  0  0  0  0  0  0
   48.7790   32.6220   40.1030 C   0  0  0  0  0  2  0  0  0  0  0  0
   47.9340   31.4250   39.7350 C   0  0  0  0  0  2  0  0  0  0  0  0
   46.5160   31.9390   39.7600 C   0  0  0  0  0  2  0  0  0  0  0  0
   46.7440   33.3810   39.3250 C   0  0  0  0  0  3  0  0  0  0  0  0
   45.8800   34.0200   39.4910 H   0  0  0  0  0  0  0  0  0  0  0  0
  1  4  1  6  0  0  0
  1  2  1  0  0  0  0
  1 10  1  0  0  0  0
  2  5  1  0  0  0  0
  3  1  1  0  0  0  0
  3  2  1  0  0  0  0
  3  7  1  1  0  0  0
  6  2  1  0  0  0  0
  8 14  1  0  0  0  0
  8 13  1  0  0  0  0
  9  8  2  0  0  0  0
 10  9  1  0  0  0  0
 10 11  2  0  0  0  0
 11 12  1  0  0  0  0
 12 15  1  0  0  0  0
 12 13  2  0  0  0  0
 16 18  1  0  0  0  0
 16  9  1  0  0  0  0
 17 16  1  0  0  0  0
 19 20  1  1  0  0  0
 19  3  1  0  0  0  0
 21 22  1  0  0  0  0
 21 20  1  0  0  0  0
 23 24  1  0  0  0  0
 23 22  1  0  0  0  0
 23 19  1  0  0  0  0
M  END
>  <minimizedAffinity>
-4.4619832

>  <minimizedRMSD>
1.1986438

$$$$
