
 OpenBabel03242523493D

 23 25  0  0  1  0  0  0  0  0999 V2000
   44.8760   34.8770   42.7500 C   0  0  0  0  0  0  0  0  0  0  0  0
   46.0540   35.0220   41.9900 C   0  0  0  0  0  0  0  0  0  0  0  0
   47.2520   34.5420   42.5370 C   0  0  0  0  0  0  0  0  0  0  0  0
   47.2160   33.9570   43.7790 N   0  0  0  0  0  0  0  0  0  0  0  0
   46.0660   33.8500   44.4490 C   0  0  0  0  0  0  0  0  0  0  0  0
   44.9050   34.3070   43.9390 N   0  0  0  0  0  0  0  0  0  0  0  0
   46.1780   35.4580   41.0230 H   0  0  0  0  0  0  0  0  0  0  0  0
   46.0260   33.3840   45.4450 H   0  0  0  0  0  0  0  0  0  0  0  0
   48.5410   34.6450   41.7790 C   0  0  0  0  0  0  0  0  0  0  0  0
   49.1040   36.0080   41.5240 C   0  0  0  0  0  0  0  0  0  0  0  0
   49.7530   35.0100   42.4920 C   0  0  0  0  0  0  0  0  0  0  0  0
   48.5410   33.9750   40.8990 H   0  0  0  0  0  0  0  0  0  0  0  0
   49.6710   36.1520   40.6010 H   0  0  0  0  0  0  0  0  0  0  0  0
   48.6250   36.9040   41.9360 H   0  0  0  0  0  0  0  0  0  0  0  0
   50.7610   34.6140   42.2250 H   0  0  0  0  0  0  0  0  0  0  0  0
   49.7230   35.3450   43.5470 H   0  0  0  0  0  0  0  0  0  0  0  0
   43.7460   35.3600   42.1790 O   0  0  0  0  0  0  0  0  0  0  0  0
   43.1070   32.6810   41.4690 H   0  0  0  0  0  0  0  0  0  0  0  0
   42.4410   33.4120   41.8360 N   0  0  0  0  0  0  0  0  0  0  0  0
   41.1690   33.2260   41.1320 C   0  0  0  0  0  0  0  0  0  0  0  0
   40.4050   34.4750   41.5650 C   0  0  0  0  0  0  0  0  0  0  0  0
   41.4890   35.5060   41.5850 C   0  0  0  0  0  0  0  0  0  0  0  0
   42.8040   34.7420   41.3780 C   0  0  1  0  0  0  0  0  0  0  0  0
  1  6  1  0  0  0  0
  2  3  1  0  0  0  0
  2  1  2  0  0  0  0
  3  4  2  0  0  0  0
  4  5  1  0  0  0  0
  5  8  1  0  0  0  0
  6  5  2  0  0  0  0
  7  2  1  0  0  0  0
  9 11  1  0  0  0  0
  9  3  1  0  0  0  0
 10  9  1  0  0  0  0
 10 14  1  0  0  0  0
 10 11  1  0  0  0  0
 11 16  1  0  0  0  0
 12  9  1  0  0  0  0
 13 10  1  0  0  0  0
 15 11  1  0  0  0  0
 17  1  1  0  0  0  0
 18 19  1  0  0  0  0
 20 21  1  0  0  0  0
 20 19  1  0  0  0  0
 21 22  1  0  0  0  0
 23 22  1  0  0  0  0
 23 19  1  0  0  0  0
 23 17  1  1  0  0  0
M  END
>  <minimizedAffinity>
-5.0184803

>  <minimizedRMSD>
2.03264236

$$$$
