
 OpenBabel03252509353D

 41 43  0  0  1  0  0  0  0  0999 V2000
   44.5240   35.4730   44.0590 O   0  0  0  0  0  0  0  0  0  0  0  0
   45.3800   34.2590   44.3630 P   0  0  1  0  0  0  0  0  0  0  0  0
   44.7110   32.8530   43.6950 O   0  0  0  0  0  0  0  0  0  0  0  0
   44.3690   33.1280   42.8000 H   0  0  0  0  0  0  0  0  0  0  0  0
   46.8980   34.5270   43.7210 O   0  0  0  0  0  0  0  0  0  0  0  0
   47.0290   33.8320   42.5150 C   0  0  1  0  0  0  0  0  0  0  0  0
   46.4450   34.6620   41.3680 C   0  0  0  0  0  0  0  0  0  0  0  0
   46.9600   33.9000   40.1770 C   0  0  0  0  0  0  0  0  0  0  0  0
   48.2380   33.2250   40.6300 C   0  0  0  0  0  0  0  0  0  0  0  0
   48.4480   33.6950   42.0550 C   0  0  1  0  0  0  0  0  0  0  0  0
   46.5080   32.8770   42.5100 H   0  0  0  0  0  0  0  0  0  0  0  0
   46.7070   35.7130   41.4050 H   0  0  0  0  0  0  0  0  0  0  0  0
   45.3280   34.5810   41.4040 H   0  0  0  0  0  0  0  0  0  0  0  0
   47.2650   34.6060   39.3710 H   0  0  0  0  0  0  0  0  0  0  0  0
   46.1950   33.1810   39.8380 H   0  0  0  0  0  0  0  0  0  0  0  0
   49.1060   33.4440   39.9830 H   0  0  0  0  0  0  0  0  0  0  0  0
   48.0070   32.1340   40.6950 H   0  0  0  0  0  0  0  0  0  0  0  0
   48.9420   32.9000   42.6720 H   0  0  0  0  0  0  0  0  0  0  0  0
   49.2090   34.9960   42.1150 C   0  0  0  0  0  0  0  0  0  0  0  0
   48.5210   35.8870   42.1920 H   0  0  0  0  0  0  0  0  0  0  0  0
   49.8000   35.1390   41.1860 H   0  0  0  0  0  0  0  0  0  0  0  0
   50.0140   35.0730   43.2290 O   0  0  0  0  0  0  0  0  0  0  0  0
   50.5640   34.2950   43.4250 H   0  0  0  0  0  0  0  0  0  0  0  0
   45.4690   34.0050   46.0080 O   0  0  0  0  0  0  0  0  0  0  0  0
   46.4200   33.0660   46.2630 C   0  0  0  0  0  0  0  0  0  0  0  0
   46.9280   32.6050   45.4240 H   0  0  0  0  0  0  0  0  0  0  0  0
   47.2330   33.6100   46.8300 H   0  0  0  0  0  0  0  0  0  0  0  0
   45.2040   31.3670   49.3390 C   0  0  0  0  0  0  0  0  0  0  0  0
   45.6380   32.3780   48.4810 C   0  0  0  0  0  0  0  0  0  0  0  0
   45.9560   32.0100   47.1770 C   0  0  0  0  0  0  0  0  0  0  0  0
   45.8290   30.7030   46.8100 N   0  0  0  0  0  0  0  0  0  0  0  0
   45.4080   29.7430   47.6600 C   0  0  0  0  0  0  0  0  0  0  0  0
   45.1010   30.0780   48.9060 N   0  0  0  0  0  0  0  0  0  0  0  0
   44.9560   31.6390   50.3480 H   0  0  0  0  0  0  0  0  0  0  0  0
   45.7100   33.3920   48.8600 H   0  0  0  0  0  0  0  0  0  0  0  0
   45.2940   28.3950   47.2220 N   0  0  0  0  0  0  0  0  0  0  0  0
   44.1560   27.7210   46.6280 C   0  0  0  0  0  2  0  0  0  0  0  0
   44.7550   26.6400   45.7300 C   0  0  0  0  0  2  0  0  0  0  0  0
   46.2570   26.7860   45.9040 C   0  0  0  0  0  2  0  0  0  0  0  0
   46.3380   27.3910   47.2900 C   0  0  0  0  0  3  0  0  0  0  0  0
   47.3410   27.8270   47.4720 H   0  0  0  0  0  0  0  0  0  0  0  0
  2  1  2  6  0  0  0
  2 24  1  0  0  0  0
  3  2  1  0  0  0  0
  4  3  1  0  0  0  0
  5  2  1  0  0  0  0
  6 11  1  1  0  0  0
  6  5  1  0  0  0  0
  7 13  1  0  0  0  0
  7 12  1  0  0  0  0
  7  6  1  0  0  0  0
  8  9  1  0  0  0  0
  8  7  1  0  0  0  0
  9 17  1  0  0  0  0
  9 10  1  0  0  0  0
 10 19  1  0  0  0  0
 10  6  1  0  0  0  0
 10 18  1  1  0  0  0
 14  8  1  0  0  0  0
 15  8  1  0  0  0  0
 16  9  1  0  0  0  0
 19 20  1  0  0  0  0
 19 22  1  0  0  0  0
 21 19  1  0  0  0  0
 22 23  1  0  0  0  0
 24 25  1  0  0  0  0
 25 27  1  0  0  0  0
 25 30  1  0  0  0  0
 26 25  1  0  0  0  0
 28 34  1  0  0  0  0
 29 35  1  0  0  0  0
 29 28  2  0  0  0  0
 30 29  1  0  0  0  0
 31 30  2  0  0  0  0
 31 32  1  0  0  0  0
 32 33  2  0  0  0  0
 33 28  1  0  0  0  0
 36 40  1  0  0  0  0
 36 32  1  0  0  0  0
 37 36  1  0  0  0  0
 38 39  1  0  0  0  0
 38 37  1  0  0  0  0
 39 40  1  0  0  0  0
 40 41  1  0  0  0  0
M  END
>  <minimizedAffinity>
-5.99174738

>  <minimizedRMSD>
1.08312821

$$$$
