
 OpenBabel03252505163D

 22 24  0  0  0  0  0  0  0  0999 V2000
   37.6090   28.7050   43.2990 C   0  0  0  0  0  0  0  0  0  0  0  0
   37.4750   27.3470   42.9620 C   0  0  0  0  0  0  0  0  0  0  0  0
   37.1830   27.0890   41.6330 C   0  0  0  0  0  0  0  0  0  0  0  0
   37.0430   28.1220   40.7380 N   0  0  0  0  0  0  0  0  0  0  0  0
   37.1860   29.4240   41.1240 C   0  0  0  0  0  0  0  0  0  0  0  0
   37.4690   29.6900   42.4090 N   0  0  0  0  0  0  0  0  0  0  0  0
   37.8390   28.8690   44.3600 H   0  0  0  0  0  0  0  0  0  0  0  0
   37.5830   26.5350   43.6580 H   0  0  0  0  0  0  0  0  0  0  0  0
   37.0390   30.4770   40.1810 N   0  0  0  0  0  0  0  0  0  0  0  0
   37.1670   31.8910   40.4770 C   0  0  0  0  0  2  0  0  0  0  0  0
   37.1490   32.6080   39.1690 C   0  0  0  0  0  2  0  0  0  0  0  0
   37.5330   31.5210   38.1880 C   0  0  0  0  0  2  0  0  0  0  0  0
   36.7380   30.3460   38.7690 C   0  0  0  0  0  3  0  0  0  0  0  0
   37.1050   29.4000   38.3600 H   0  0  0  0  0  0  0  0  0  0  0  0
   37.0360   25.6850   41.1220 C   0  0  0  0  0  0  0  0  0  0  0  0
   38.2660   24.8360   41.3610 C   0  0  0  0  0  0  0  0  0  0  0  0
   36.9110   24.5950   42.0810 C   0  0  0  0  0  0  0  0  0  0  0  0
   36.5380   25.5650   40.1230 H   0  0  0  0  0  0  0  0  0  0  0  0
   38.5120   24.1370   40.5490 H   0  0  0  0  0  0  0  0  0  0  0  0
   39.0880   25.2440   41.9420 H   0  0  0  0  0  0  0  0  0  0  0  0
   36.3840   23.6480   41.8140 H   0  0  0  0  0  0  0  0  0  0  0  0
   36.9840   24.7750   43.1830 H   0  0  0  0  0  0  0  0  0  0  0  0
  1  7  1  0  0  0  0
  2  1  1  0  0  0  0
  2  8  1  0  0  0  0
  3  2  2  0  0  0  0
  4  5  2  0  0  0  0
  4  3  1  0  0  0  0
  5  6  1  0  0  0  0
  6  1  2  0  0  0  0
  9 10  1  0  0  0  0
  9  5  1  0  0  0  0
 11 10  1  0  0  0  0
 12 13  1  0  0  0  0
 12 11  1  0  0  0  0
 13  9  1  0  0  0  0
 14 13  1  0  0  0  0
 15 16  1  0  0  0  0
 15  3  1  0  0  0  0
 15 17  1  0  0  0  0
 16 20  1  0  0  0  0
 16 17  1  0  0  0  0
 17 22  1  0  0  0  0
 18 15  1  0  0  0  0
 19 16  1  0  0  0  0
 21 17  1  0  0  0  0
M  END
>  <minimizedAffinity>
-4.59611511

$$$$

 OpenBabel03252505163D

 22 24  0  0  0  0  0  0  0  0999 V2000
   40.9280   29.4490   42.6270 C   0  0  0  0  0  0  0  0  0  0  0  0
   40.2600   28.2790   43.0290 C   0  0  0  0  0  0  0  0  0  0  0  0
   38.9090   28.2310   42.7320 C   0  0  0  0  0  0  0  0  0  0  0  0
   38.3000   29.2800   42.0860 N   0  0  0  0  0  0  0  0  0  0  0  0
   39.0010   30.3930   41.7190 C   0  0  0  0  0  0  0  0  0  0  0  0
   40.3120   30.4540   41.9990 N   0  0  0  0  0  0  0  0  0  0  0  0
   41.9960   29.4500   42.8800 H   0  0  0  0  0  0  0  0  0  0  0  0
   40.7320   27.4550   43.5340 H   0  0  0  0  0  0  0  0  0  0  0  0
   38.3520   31.4670   41.0500 N   0  0  0  0  0  0  0  0  0  0  0  0
   38.9920   32.6930   40.6160 C   0  0  0  0  0  2  0  0  0  0  0  0
   37.9970   33.4270   39.7820 C   0  0  0  0  0  2  0  0  0  0  0  0
   37.0370   32.3320   39.3680 C   0  0  0  0  0  2  0  0  0  0  0  0
   36.9520   31.5430   40.6810 C   0  0  0  0  0  3  0  0  0  0  0  0
   36.5240   30.5520   40.5010 H   0  0  0  0  0  0  0  0  0  0  0  0
   38.0730   27.0330   43.0770 C   0  0  0  0  0  0  0  0  0  0  0  0
   36.6210   27.3770   43.3340 C   0  0  0  0  0  0  0  0  0  0  0  0
   37.0980   26.5510   42.1070 C   0  0  0  0  0  0  0  0  0  0  0  0
   38.5350   26.2830   43.7740 H   0  0  0  0  0  0  0  0  0  0  0  0
   36.1460   26.8070   44.1450 H   0  0  0  0  0  0  0  0  0  0  0  0
   36.2790   28.3930   43.1630 H   0  0  0  0  0  0  0  0  0  0  0  0
   36.7780   25.4820   42.0920 H   0  0  0  0  0  0  0  0  0  0  0  0
   36.9170   27.0890   41.1440 H   0  0  0  0  0  0  0  0  0  0  0  0
  1  7  1  0  0  0  0
  1  2  1  0  0  0  0
  2  8  1  0  0  0  0
  3  2  2  0  0  0  0
  3 15  1  0  0  0  0
  4  3  1  0  0  0  0
  5  6  1  0  0  0  0
  5  4  2  0  0  0  0
  6  1  2  0  0  0  0
  9  5  1  0  0  0  0
 10  9  1  0  0  0  0
 11 10  1  0  0  0  0
 12 11  1  0  0  0  0
 12 13  1  0  0  0  0
 13  9  1  0  0  0  0
 14 13  1  0  0  0  0
 15 16  1  0  0  0  0
 15 18  1  0  0  0  0
 16 19  1  0  0  0  0
 17 15  1  0  0  0  0
 17 16  1  0  0  0  0
 20 16  1  0  0  0  0
 21 17  1  0  0  0  0
 22 17  1  0  0  0  0
M  END
>  <minimizedAffinity>
-4.51923895

$$$$

 OpenBabel03252505163D

 22 24  0  0  0  0  0  0  0  0999 V2000
   39.5920   27.2170   43.2150 C   0  0  0  0  0  0  0  0  0  0  0  0
   39.2370   25.8620   43.0980 C   0  0  0  0  0  0  0  0  0  0  0  0
   38.0650   25.6090   42.4060 C   0  0  0  0  0  0  0  0  0  0  0  0
   37.3290   26.6440   41.8830 N   0  0  0  0  0  0  0  0  0  0  0  0
   37.7240   27.9440   42.0280 C   0  0  0  0  0  0  0  0  0  0  0  0
   38.8580   28.2040   42.6960 N   0  0  0  0  0  0  0  0  0  0  0  0
   40.5250   27.3760   43.7700 H   0  0  0  0  0  0  0  0  0  0  0  0
   39.8100   25.0470   43.5050 H   0  0  0  0  0  0  0  0  0  0  0  0
   36.9470   29.0000   41.4780 N   0  0  0  0  0  0  0  0  0  0  0  0
   37.2680   30.4110   41.5690 C   0  0  0  0  0  2  0  0  0  0  0  0
   36.3090   31.1290   40.6800 C   0  0  0  0  0  2  0  0  0  0  0  0
   35.8430   30.0360   39.7420 C   0  0  0  0  0  2  0  0  0  0  0  0
   35.7100   28.8740   40.7340 C   0  0  0  0  0  3  0  0  0  0  0  0
   35.6510   27.9220   40.1970 H   0  0  0  0  0  0  0  0  0  0  0  0
   37.5750   24.2080   42.1800 C   0  0  0  0  0  0  0  0  0  0  0  0
   36.5750   24.1060   41.0480 C   0  0  0  0  0  0  0  0  0  0  0  0
   38.0030   23.4970   40.9820 C   0  0  0  0  0  0  0  0  0  0  0  0
   37.3490   23.6020   43.0970 H   0  0  0  0  0  0  0  0  0  0  0  0
   35.7540   23.3940   41.2180 H   0  0  0  0  0  0  0  0  0  0  0  0
   36.3660   24.9830   40.4440 H   0  0  0  0  0  0  0  0  0  0  0  0
   38.0520   22.3820   40.9580 H   0  0  0  0  0  0  0  0  0  0  0  0
   38.6340   23.9920   40.2020 H   0  0  0  0  0  0  0  0  0  0  0  0
  1  7  1  0  0  0  0
  2  1  1  0  0  0  0
  2  8  1  0  0  0  0
  3  2  2  0  0  0  0
  4  5  2  0  0  0  0
  4  3  1  0  0  0  0
  5  6  1  0  0  0  0
  6  1  2  0  0  0  0
  9 10  1  0  0  0  0
  9  5  1  0  0  0  0
 11 10  1  0  0  0  0
 12 11  1  0  0  0  0
 12 13  1  0  0  0  0
 13  9  1  0  0  0  0
 14 13  1  0  0  0  0
 15  3  1  0  0  0  0
 15 18  1  0  0  0  0
 16 19  1  0  0  0  0
 16 15  1  0  0  0  0
 17 16  1  0  0  0  0
 17 15  1  0  0  0  0
 20 16  1  0  0  0  0
 21 17  1  0  0  0  0
 22 17  1  0  0  0  0
M  END
>  <minimizedAffinity>
-4.4507308

$$$$

 OpenBabel03252505163D

 22 24  0  0  0  0  0  0  0  0999 V2000
   35.5250   28.8750   40.8010 C   0  0  0  0  0  0  0  0  0  0  0  0
   35.7160   30.1920   40.3500 C   0  0  0  0  0  0  0  0  0  0  0  0
   36.9200   30.7760   40.7050 C   0  0  0  0  0  0  0  0  0  0  0  0
   37.8400   30.0770   41.4490 N   0  0  0  0  0  0  0  0  0  0  0  0
   37.5990   28.7970   41.8600 C   0  0  0  0  0  0  0  0  0  0  0  0
   36.4360   28.2180   41.5230 N   0  0  0  0  0  0  0  0  0  0  0  0
   34.5600   28.4470   40.5010 H   0  0  0  0  0  0  0  0  0  0  0  0
   35.0000   30.7440   39.7670 H   0  0  0  0  0  0  0  0  0  0  0  0
   38.5650   28.0920   42.6290 N   0  0  0  0  0  0  0  0  0  0  0  0
   38.4180   26.7350   43.1180 C   0  0  0  0  0  2  0  0  0  0  0  0
   39.7410   26.3330   43.6790 C   0  0  0  0  0  2  0  0  0  0  0  0
   40.6940   27.2970   43.0060 C   0  0  0  0  0  2  0  0  0  0  0  0
   39.8580   28.5820   43.0640 C   0  0  0  0  0  3  0  0  0  0  0  0
   40.2630   29.3300   42.3750 H   0  0  0  0  0  0  0  0  0  0  0  0
   37.2730   32.1690   40.2720 C   0  0  0  0  0  0  0  0  0  0  0  0
   38.5920   32.2430   39.5320 C   0  0  0  0  0  0  0  0  0  0  0  0
   37.2180   32.5010   38.8530 C   0  0  0  0  0  0  0  0  0  0  0  0
   37.0730   32.9900   41.0110 H   0  0  0  0  0  0  0  0  0  0  0  0
   39.1970   33.1350   39.7510 H   0  0  0  0  0  0  0  0  0  0  0  0
   39.1170   31.3240   39.2890 H   0  0  0  0  0  0  0  0  0  0  0  0
   37.0380   33.5480   38.5120 H   0  0  0  0  0  0  0  0  0  0  0  0
   36.9810   31.7280   38.0810 H   0  0  0  0  0  0  0  0  0  0  0  0
  1  6  1  0  0  0  0
  2  3  1  0  0  0  0
  2  1  2  0  0  0  0
  3  4  2  0  0  0  0
  4  5  1  0  0  0  0
  5  9  1  0  0  0  0
  6  5  2  0  0  0  0
  7  1  1  0  0  0  0
  8  2  1  0  0  0  0
  9 13  1  0  0  0  0
  9 10  1  0  0  0  0
 10 11  1  0  0  0  0
 12 13  1  0  0  0  0
 12 11  1  0  0  0  0
 14 13  1  0  0  0  0
 15  3  1  0  0  0  0
 15 18  1  0  0  0  0
 16 19  1  0  0  0  0
 16 15  1  0  0  0  0
 17 16  1  0  0  0  0
 17 15  1  0  0  0  0
 20 16  1  0  0  0  0
 21 17  1  0  0  0  0
 22 17  1  0  0  0  0
M  END
>  <minimizedAffinity>
-4.39508247

$$$$

 OpenBabel03252505163D

 22 24  0  0  0  0  0  0  0  0999 V2000
   36.5400   30.4620   38.4880 C   0  0  0  0  0  0  0  0  0  0  0  0
   37.3890   31.5750   38.3550 C   0  0  0  0  0  0  0  0  0  0  0  0
   38.2020   31.8380   39.4450 C   0  0  0  0  0  0  0  0  0  0  0  0
   38.1490   31.0390   40.5610 N   0  0  0  0  0  0  0  0  0  0  0  0
   37.3030   29.9700   40.6330 C   0  0  0  0  0  0  0  0  0  0  0  0
   36.5090   29.7020   39.5840 N   0  0  0  0  0  0  0  0  0  0  0  0
   35.9120   30.2870   37.6050 H   0  0  0  0  0  0  0  0  0  0  0  0
   37.4350   32.2030   37.4830 H   0  0  0  0  0  0  0  0  0  0  0  0
   37.2650   29.1560   41.7980 N   0  0  0  0  0  0  0  0  0  0  0  0
   36.4090   28.0000   41.9850 C   0  0  0  0  0  2  0  0  0  0  0  0
   36.8530   27.3350   43.2450 C   0  0  0  0  0  2  0  0  0  0  0  0
   38.2630   27.8570   43.4180 C   0  0  0  0  0  2  0  0  0  0  0  0
   38.0590   29.3190   43.0000 C   0  0  0  0  0  3  0  0  0  0  0  0
   39.0230   29.7920   42.7910 H   0  0  0  0  0  0  0  0  0  0  0  0
   39.1780   32.9780   39.4360 C   0  0  0  0  0  0  0  0  0  0  0  0
   38.7740   34.1120   40.3540 C   0  0  0  0  0  0  0  0  0  0  0  0
   40.0080   33.2030   40.6140 C   0  0  0  0  0  0  0  0  0  0  0  0
   39.5950   33.2740   38.4360 H   0  0  0  0  0  0  0  0  0  0  0  0
   38.9880   35.1190   39.9690 H   0  0  0  0  0  0  0  0  0  0  0  0
   37.9070   33.9910   40.9970 H   0  0  0  0  0  0  0  0  0  0  0  0
   41.0010   33.7050   40.5330 H   0  0  0  0  0  0  0  0  0  0  0  0
   39.8880   32.5890   41.5400 H   0  0  0  0  0  0  0  0  0  0  0  0
  1  6  1  0  0  0  0
  2  1  2  0  0  0  0
  2  3  1  0  0  0  0
  3  4  2  0  0  0  0
  4  5  1  0  0  0  0
  5  9  1  0  0  0  0
  6  5  2  0  0  0  0
  7  1  1  0  0  0  0
  8  2  1  0  0  0  0
  9 10  1  0  0  0  0
  9 13  1  0  0  0  0
 10 11  1  0  0  0  0
 11 12  1  0  0  0  0
 13 12  1  0  0  0  0
 14 13  1  0  0  0  0
 15  3  1  0  0  0  0
 15 16  1  0  0  0  0
 15 17  1  0  0  0  0
 16 17  1  0  0  0  0
 16 20  1  0  0  0  0
 17 22  1  0  0  0  0
 18 15  1  0  0  0  0
 19 16  1  0  0  0  0
 21 17  1  0  0  0  0
M  END
>  <minimizedAffinity>
-4.39008188

$$$$

 OpenBabel03252505163D

 22 24  0  0  0  0  0  0  0  0999 V2000
   36.8140   26.3840   39.0450 C   0  0  0  0  0  0  0  0  0  0  0  0
   36.8720   25.9770   40.3890 C   0  0  0  0  0  0  0  0  0  0  0  0
   37.1670   26.9750   41.3030 C   0  0  0  0  0  0  0  0  0  0  0  0
   37.3820   28.2640   40.8800 N   0  0  0  0  0  0  0  0  0  0  0  0
   37.3130   28.6010   39.5580 C   0  0  0  0  0  0  0  0  0  0  0  0
   37.0270   27.6450   38.6610 N   0  0  0  0  0  0  0  0  0  0  0  0
   36.5790   25.5660   38.3520 H   0  0  0  0  0  0  0  0  0  0  0  0
   36.7040   24.9690   40.7260 H   0  0  0  0  0  0  0  0  0  0  0  0
   37.5370   29.9420   39.1420 N   0  0  0  0  0  0  0  0  0  0  0  0
   37.4900   30.4130   37.7720 C   0  0  0  0  0  2  0  0  0  0  0  0
   37.5700   31.9020   37.8250 C   0  0  0  0  0  2  0  0  0  0  0  0
   37.1360   32.2090   39.2430 C   0  0  0  0  0  2  0  0  0  0  0  0
   37.8500   31.0750   39.9900 C   0  0  0  0  0  3  0  0  0  0  0  0
   37.4320   30.9610   40.9950 H   0  0  0  0  0  0  0  0  0  0  0  0
   37.2360   26.6930   42.7760 C   0  0  0  0  0  0  0  0  0  0  0  0
   37.8930   27.8080   43.5620 C   0  0  0  0  0  0  0  0  0  0  0  0
   36.3840   27.4550   43.6800 C   0  0  0  0  0  0  0  0  0  0  0  0
   37.5140   25.6460   43.0740 H   0  0  0  0  0  0  0  0  0  0  0  0
   38.5320   27.4750   44.3920 H   0  0  0  0  0  0  0  0  0  0  0  0
   38.1640   28.7270   43.0530 H   0  0  0  0  0  0  0  0  0  0  0  0
   36.0620   27.0340   44.6620 H   0  0  0  0  0  0  0  0  0  0  0  0
   35.7300   28.2820   43.3080 H   0  0  0  0  0  0  0  0  0  0  0  0
  1  2  1  0  0  0  0
  2  8  1  0  0  0  0
  2  3  2  0  0  0  0
  3 15  1  0  0  0  0
  4  3  1  0  0  0  0
  5  4  2  0  0  0  0
  6  1  2  0  0  0  0
  6  5  1  0  0  0  0
  7  1  1  0  0  0  0
  9  5  1  0  0  0  0
  9 13  1  0  0  0  0
 10 11  1  0  0  0  0
 10  9  1  0  0  0  0
 11 12  1  0  0  0  0
 12 13  1  0  0  0  0
 13 14  1  0  0  0  0
 15 18  1  0  0  0  0
 15 16  1  0  0  0  0
 15 17  1  0  0  0  0
 16 17  1  0  0  0  0
 16 19  1  0  0  0  0
 17 21  1  0  0  0  0
 20 16  1  0  0  0  0
 22 17  1  0  0  0  0
M  END
>  <minimizedAffinity>
-4.26347542

$$$$

 OpenBabel03252505163D

 22 24  0  0  0  0  0  0  0  0999 V2000
   37.9830   28.2010   43.1720 C   0  0  0  0  0  0  0  0  0  0  0  0
   37.3970   29.3400   42.5920 C   0  0  0  0  0  0  0  0  0  0  0  0
   36.7230   29.1230   41.4020 C   0  0  0  0  0  0  0  0  0  0  0  0
   36.6550   27.8630   40.8590 N   0  0  0  0  0  0  0  0  0  0  0  0
   37.2450   26.7920   41.4690 C   0  0  0  0  0  0  0  0  0  0  0  0
   37.9020   26.9870   42.6240 N   0  0  0  0  0  0  0  0  0  0  0  0
   38.5080   28.4130   44.1120 H   0  0  0  0  0  0  0  0  0  0  0  0
   37.4460   30.3290   43.0120 H   0  0  0  0  0  0  0  0  0  0  0  0
   37.1620   25.4960   40.8910 N   0  0  0  0  0  0  0  0  0  0  0  0
   37.7470   24.2920   41.4470 C   0  0  0  0  0  2  0  0  0  0  0  0
   37.2340   23.1490   40.6360 C   0  0  0  0  0  2  0  0  0  0  0  0
   35.9860   23.7260   40.0010 C   0  0  0  0  0  2  0  0  0  0  0  0
   36.4890   25.1350   39.6590 C   0  0  0  0  0  3  0  0  0  0  0  0
   35.6450   25.7970   39.4450 H   0  0  0  0  0  0  0  0  0  0  0  0
   36.0260   30.2410   40.6820 C   0  0  0  0  0  0  0  0  0  0  0  0
   36.8550   31.5060   40.6080 C   0  0  0  0  0  0  0  0  0  0  0  0
   36.5080   30.6400   39.3650 C   0  0  0  0  0  0  0  0  0  0  0  0
   34.9340   30.3770   40.9050 H   0  0  0  0  0  0  0  0  0  0  0  0
   36.2860   32.4400   40.7190 H   0  0  0  0  0  0  0  0  0  0  0  0
   37.8780   31.4920   40.9700 H   0  0  0  0  0  0  0  0  0  0  0  0
   35.8260   31.1160   38.6210 H   0  0  0  0  0  0  0  0  0  0  0  0
   37.4180   30.1760   38.9110 H   0  0  0  0  0  0  0  0  0  0  0  0
  1  7  1  0  0  0  0
  2  8  1  0  0  0  0
  2  1  2  0  0  0  0
  3  2  1  0  0  0  0
  4  3  2  0  0  0  0
  4  5  1  0  0  0  0
  5  6  2  0  0  0  0
  6  1  1  0  0  0  0
  9 10  1  0  0  0  0
  9  5  1  0  0  0  0
 11 10  1  0  0  0  0
 12 11  1  0  0  0  0
 13 12  1  0  0  0  0
 13  9  1  0  0  0  0
 14 13  1  0  0  0  0
 15 18  1  0  0  0  0
 15  3  1  0  0  0  0
 16 15  1  0  0  0  0
 16 19  1  0  0  0  0
 16 20  1  0  0  0  0
 17 16  1  0  0  0  0
 17 15  1  0  0  0  0
 21 17  1  0  0  0  0
 22 17  1  0  0  0  0
M  END
>  <minimizedAffinity>
-4.25564098

$$$$

 OpenBabel03252505163D

 22 24  0  0  0  0  0  0  0  0999 V2000
   36.2480   30.6550   40.4360 C   0  0  0  0  0  0  0  0  0  0  0  0
   36.2590   29.7520   41.5130 C   0  0  0  0  0  0  0  0  0  0  0  0
   37.4700   29.6210   42.1700 C   0  0  0  0  0  0  0  0  0  0  0  0
   38.5640   30.3460   41.7640 N   0  0  0  0  0  0  0  0  0  0  0  0
   38.4940   31.2110   40.7090 C   0  0  0  0  0  0  0  0  0  0  0  0
   37.3260   31.3490   40.0620 N   0  0  0  0  0  0  0  0  0  0  0  0
   35.2720   30.7310   39.9400 H   0  0  0  0  0  0  0  0  0  0  0  0
   35.4050   29.1820   41.8350 H   0  0  0  0  0  0  0  0  0  0  0  0
   39.6380   31.9520   40.3070 N   0  0  0  0  0  0  0  0  0  0  0  0
   39.6810   32.8950   39.2060 C   0  0  0  0  0  2  0  0  0  0  0  0
   41.0000   33.5880   39.2820 C   0  0  0  0  0  2  0  0  0  0  0  0
   41.4090   33.3660   40.7230 C   0  0  0  0  0  2  0  0  0  0  0  0
   40.9570   31.9120   40.9060 C   0  0  0  0  0  3  0  0  0  0  0  0
   40.9140   31.6590   41.9700 H   0  0  0  0  0  0  0  0  0  0  0  0
   37.6240   28.7120   43.3550 C   0  0  0  0  0  0  0  0  0  0  0  0
   36.6810   27.5280   43.3200 C   0  0  0  0  0  0  0  0  0  0  0  0
   38.2210   27.3970   43.1610 C   0  0  0  0  0  0  0  0  0  0  0  0
   37.7600   29.2080   44.3530 H   0  0  0  0  0  0  0  0  0  0  0  0
   36.2700   27.2340   44.2970 H   0  0  0  0  0  0  0  0  0  0  0  0
   36.0620   27.3690   42.4430 H   0  0  0  0  0  0  0  0  0  0  0  0
   38.7500   26.8740   43.9930 H   0  0  0  0  0  0  0  0  0  0  0  0
   38.5070   27.0290   42.1440 H   0  0  0  0  0  0  0  0  0  0  0  0
  1  2  1  0  0  0  0
  2  8  1  0  0  0  0
  2  3  2  0  0  0  0
  3 15  1  0  0  0  0
  4  3  1  0  0  0  0
  5  4  2  0  0  0  0
  6  1  2  0  0  0  0
  6  5  1  0  0  0  0
  7  1  1  0  0  0  0
  9  5  1  0  0  0  0
  9 13  1  0  0  0  0
 10 11  1  0  0  0  0
 10  9  1  0  0  0  0
 11 12  1  0  0  0  0
 12 13  1  0  0  0  0
 13 14  1  0  0  0  0
 15 18  1  0  0  0  0
 16 15  1  0  0  0  0
 16 19  1  0  0  0  0
 17 16  1  0  0  0  0
 17 15  1  0  0  0  0
 17 21  1  0  0  0  0
 20 16  1  0  0  0  0
 22 17  1  0  0  0  0
M  END
>  <minimizedAffinity>
-4.23122311

$$$$

 OpenBabel03252505163D

 22 24  0  0  0  0  0  0  0  0999 V2000
   39.1440   29.8680   42.4710 C   0  0  0  0  0  0  0  0  0  0  0  0
   38.3850   30.7090   41.6390 C   0  0  0  0  0  0  0  0  0  0  0  0
   37.4920   30.0680   40.7980 C   0  0  0  0  0  0  0  0  0  0  0  0
   37.3870   28.6980   40.8070 N   0  0  0  0  0  0  0  0  0  0  0  0
   38.1520   27.9310   41.6390 C   0  0  0  0  0  0  0  0  0  0  0  0
   39.0220   28.5390   42.4620 N   0  0  0  0  0  0  0  0  0  0  0  0
   39.8400   30.4130   43.1230 H   0  0  0  0  0  0  0  0  0  0  0  0
   38.4620   31.7820   41.6280 H   0  0  0  0  0  0  0  0  0  0  0  0
   38.0280   26.5150   41.6340 N   0  0  0  0  0  0  0  0  0  0  0  0
   38.7850   25.6040   42.4700 C   0  0  0  0  0  2  0  0  0  0  0  0
   38.1830   24.2510   42.2880 C   0  0  0  0  0  2  0  0  0  0  0  0
   36.7990   24.5710   41.7640 C   0  0  0  0  0  2  0  0  0  0  0  0
   37.1360   25.7230   40.8090 C   0  0  0  0  0  3  0  0  0  0  0  0
   36.2290   26.2740   40.5440 H   0  0  0  0  0  0  0  0  0  0  0  0
   36.5960   30.8390   39.8720 C   0  0  0  0  0  0  0  0  0  0  0  0
   37.1100   32.2310   39.5730 C   0  0  0  0  0  0  0  0  0  0  0  0
   37.0470   31.1000   38.5100 C   0  0  0  0  0  0  0  0  0  0  0  0
   35.4910   30.7460   40.0500 H   0  0  0  0  0  0  0  0  0  0  0  0
   36.3330   33.0060   39.5000 H   0  0  0  0  0  0  0  0  0  0  0  0
   38.0860   32.5280   39.9460 H   0  0  0  0  0  0  0  0  0  0  0  0
   36.3180   31.2570   37.6810 H   0  0  0  0  0  0  0  0  0  0  0  0
   38.0650   30.7940   38.1630 H   0  0  0  0  0  0  0  0  0  0  0  0
  1  7  1  0  0  0  0
  2  1  2  0  0  0  0
  3  4  2  0  0  0  0
  3  2  1  0  0  0  0
  4  5  1  0  0  0  0
  5  6  2  0  0  0  0
  6  1  1  0  0  0  0
  8  2  1  0  0  0  0
  9  5  1  0  0  0  0
  9 10  1  0  0  0  0
 11 10  1  0  0  0  0
 12 11  1  0  0  0  0
 13  9  1  0  0  0  0
 13 12  1  0  0  0  0
 14 13  1  0  0  0  0
 15 18  1  0  0  0  0
 15  3  1  0  0  0  0
 16 15  1  0  0  0  0
 16 20  1  0  0  0  0
 17 16  1  0  0  0  0
 17 15  1  0  0  0  0
 19 16  1  0  0  0  0
 21 17  1  0  0  0  0
 22 17  1  0  0  0  0
M  END
>  <minimizedAffinity>
-4.13083363

$$$$
