
 OpenBabel03252505323D

 27 29  0  0  0  0  0  0  0  0999 V2000
   46.5990   34.7550   42.0940 C   0  0  0  0  0  0  0  0  0  0  0  0
   47.8820   35.2190   41.9850 C   0  0  0  0  0  0  0  0  0  0  0  0
   48.6450   35.0510   40.8290 C   0  0  0  0  0  0  0  0  0  0  0  0
   48.1080   34.3970   39.7440 C   0  0  0  0  0  0  0  0  0  0  0  0
   46.8060   33.9310   39.8630 C   0  0  0  0  0  0  0  0  0  0  0  0
   46.0380   34.0940   41.0100 C   0  0  0  0  0  0  0  0  0  0  0  0
   48.4100   35.7460   42.7690 H   0  0  0  0  0  0  0  0  0  0  0  0
   49.6600   35.4170   40.7450 H   0  0  0  0  0  0  0  0  0  0  0  0
   48.5960   34.2090   38.8080 H   0  0  0  0  0  0  0  0  0  0  0  0
   46.3110   33.4090   39.0620 H   0  0  0  0  0  0  0  0  0  0  0  0
   44.4120   36.2280   44.7860 C   0  0  0  0  0  0  0  0  0  0  0  0
   45.0660   36.0930   43.5450 C   0  0  0  0  0  0  0  0  0  0  0  0
   45.8870   34.9800   43.3280 C   0  0  0  0  0  0  0  0  0  0  0  0
   46.0240   34.0750   44.3140 N   0  0  0  0  0  0  0  0  0  0  0  0
   45.3770   34.2320   45.5030 C   0  0  0  0  0  0  0  0  0  0  0  0
   44.5770   35.3030   45.7360 N   0  0  0  0  0  0  0  0  0  0  0  0
   45.5240   33.2670   46.5390 N   0  0  0  0  0  0  0  0  0  0  0  0
   43.7990   37.1110   44.8730 H   0  0  0  0  0  0  0  0  0  0  0  0
   44.9660   36.8180   42.7390 H   0  0  0  0  0  0  0  0  0  0  0  0
   44.8560   32.5170   46.2080 H   0  0  0  0  0  0  0  0  0  0  0  0
   46.2030   33.5600   47.2720 H   0  0  0  0  0  0  0  0  0  0  0  0
   44.7050   33.6010   41.0950 N   0  0  0  0  0  0  0  0  0  0  0  0
   43.3900   34.1770   40.8370 C   0  0  0  0  0  2  0  0  0  0  0  0
   42.7310   33.0120   40.1120 C   0  0  0  0  0  2  0  0  0  0  0  0
   43.0490   31.8850   41.0760 C   0  0  0  0  0  2  0  0  0  0  0  0
   44.4510   32.2260   41.5250 C   0  0  0  0  0  3  0  0  0  0  0  0
   45.1640   31.5820   40.9330 H   0  0  0  0  0  0  0  0  0  0  0  0
  1 13  1  0  0  0  0
  2  1  1  0  0  0  0
  2  7  1  0  0  0  0
  3  2  2  0  0  0  0
  4  5  2  0  0  0  0
  4  3  1  0  0  0  0
  5  6  1  0  0  0  0
  6 22  1  0  0  0  0
  6  1  2  0  0  0  0
  8  3  1  0  0  0  0
  9  4  1  0  0  0  0
 10  5  1  0  0  0  0
 11 18  1  0  0  0  0
 11 16  1  0  0  0  0
 12 11  2  0  0  0  0
 13 12  1  0  0  0  0
 13 14  2  0  0  0  0
 14 15  1  0  0  0  0
 15 16  2  0  0  0  0
 15 17  1  0  0  0  0
 17 21  1  0  0  0  0
 19 12  1  0  0  0  0
 20 17  1  0  0  0  0
 22 26  1  0  0  0  0
 23 22  1  0  0  0  0
 24 23  1  0  0  0  0
 24 25  1  0  0  0  0
 25 26  1  0  0  0  0
 27 26  1  0  0  0  0
M  END
>  <minimizedAffinity>
-5.74485016

>  <minimizedRMSD>
0.298425496

$$$$
