
 OpenBabel03252509353D

 41 43  0  0  1  0  0  0  0  0999 V2000
   44.5240   35.4690   44.0550 O   0  0  0  0  0  0  0  0  0  0  0  0
   45.3850   34.2600   44.3650 P   0  0  1  0  0  0  0  0  0  0  0  0
   44.7210   32.8470   43.7070 O   0  0  0  0  0  0  0  0  0  0  0  0
   44.3770   33.1160   42.8100 H   0  0  0  0  0  0  0  0  0  0  0  0
   46.9020   34.5300   43.7200 O   0  0  0  0  0  0  0  0  0  0  0  0
   47.0320   33.8340   42.5140 C   0  0  1  0  0  0  0  0  0  0  0  0
   46.4480   34.6640   41.3670 C   0  0  0  0  0  0  0  0  0  0  0  0
   46.9620   33.9010   40.1760 C   0  0  0  0  0  0  0  0  0  0  0  0
   48.2400   33.2260   40.6290 C   0  0  0  0  0  0  0  0  0  0  0  0
   48.4500   33.6970   42.0540 C   0  0  1  0  0  0  0  0  0  0  0  0
   46.5110   32.8800   42.5110 H   0  0  0  0  0  0  0  0  0  0  0  0
   46.7100   35.7150   41.4040 H   0  0  0  0  0  0  0  0  0  0  0  0
   45.3300   34.5830   41.4050 H   0  0  0  0  0  0  0  0  0  0  0  0
   47.2660   34.6070   39.3700 H   0  0  0  0  0  0  0  0  0  0  0  0
   46.1960   33.1820   39.8390 H   0  0  0  0  0  0  0  0  0  0  0  0
   49.1080   33.4440   39.9820 H   0  0  0  0  0  0  0  0  0  0  0  0
   48.0080   32.1350   40.6960 H   0  0  0  0  0  0  0  0  0  0  0  0
   48.9440   32.9020   42.6710 H   0  0  0  0  0  0  0  0  0  0  0  0
   49.2120   34.9970   42.1130 C   0  0  0  0  0  0  0  0  0  0  0  0
   48.5240   35.8890   42.1870 H   0  0  0  0  0  0  0  0  0  0  0  0
   49.8040   35.1390   41.1840 H   0  0  0  0  0  0  0  0  0  0  0  0
   50.0160   35.0750   43.2280 O   0  0  0  0  0  0  0  0  0  0  0  0
   50.5650   34.2980   43.4260 H   0  0  0  0  0  0  0  0  0  0  0  0
   45.4760   34.0160   46.0120 O   0  0  0  0  0  0  0  0  0  0  0  0
   46.3970   33.0490   46.2680 C   0  0  0  0  0  0  0  0  0  0  0  0
   46.8700   32.5500   45.4300 H   0  0  0  0  0  0  0  0  0  0  0  0
   47.2420   33.5740   46.8060 H   0  0  0  0  0  0  0  0  0  0  0  0
   45.3650   31.4160   49.4460 C   0  0  0  0  0  0  0  0  0  0  0  0
   45.8190   32.3910   48.5580 C   0  0  0  0  0  0  0  0  0  0  0  0
   45.9140   32.0310   47.2160 C   0  0  0  0  0  0  0  0  0  0  0  0
   45.5640   30.7670   46.8460 N   0  0  0  0  0  0  0  0  0  0  0  0
   45.1280   29.8420   47.7260 C   0  0  0  0  0  0  0  0  0  0  0  0
   45.0310   30.1690   49.0070 N   0  0  0  0  0  0  0  0  0  0  0  0
   45.2870   31.6830   50.4840 H   0  0  0  0  0  0  0  0  0  0  0  0
   46.0760   33.3730   48.9420 H   0  0  0  0  0  0  0  0  0  0  0  0
   44.7770   28.5370   47.2820 N   0  0  0  0  0  0  0  0  0  0  0  0
   44.2480   28.1220   45.9990 C   0  0  0  0  0  2  0  0  0  0  0  0
   44.7390   26.6880   45.8070 C   0  0  0  0  0  2  0  0  0  0  0  0
   45.5380   26.3860   47.0630 C   0  0  0  0  0  2  0  0  0  0  0  0
   44.8850   27.3190   48.0610 C   0  0  0  0  0  3  0  0  0  0  0  0
   45.5210   27.4410   48.9610 H   0  0  0  0  0  0  0  0  0  0  0  0
  2  1  2  6  0  0  0
  2 24  1  0  0  0  0
  3  2  1  0  0  0  0
  4  3  1  0  0  0  0
  5  2  1  0  0  0  0
  6 11  1  1  0  0  0
  6  5  1  0  0  0  0
  7 12  1  0  0  0  0
  7 13  1  0  0  0  0
  7  6  1  0  0  0  0
  8  9  1  0  0  0  0
  8  7  1  0  0  0  0
  9 17  1  0  0  0  0
  9 10  1  0  0  0  0
 10 19  1  0  0  0  0
 10  6  1  0  0  0  0
 10 18  1  1  0  0  0
 14  8  1  0  0  0  0
 15  8  1  0  0  0  0
 16  9  1  0  0  0  0
 19 20  1  0  0  0  0
 19 22  1  0  0  0  0
 21 19  1  0  0  0  0
 22 23  1  0  0  0  0
 24 25  1  0  0  0  0
 25 27  1  0  0  0  0
 25 30  1  0  0  0  0
 26 25  1  0  0  0  0
 28 34  1  0  0  0  0
 29 35  1  0  0  0  0
 29 28  2  0  0  0  0
 30 29  1  0  0  0  0
 31 30  2  0  0  0  0
 31 32  1  0  0  0  0
 32 33  2  0  0  0  0
 33 28  1  0  0  0  0
 36 32  1  0  0  0  0
 36 40  1  0  0  0  0
 37 36  1  0  0  0  0
 38 37  1  0  0  0  0
 38 39  1  0  0  0  0
 39 40  1  0  0  0  0
 40 41  1  0  0  0  0
M  END
>  <minimizedAffinity>
-6.14208174

>  <minimizedRMSD>
0.989173114

$$$$
