
 OpenBabel03242523493D

 23 25  0  0  1  0  0  0  0  0999 V2000
   36.8030   29.2640   41.7030 C   0  0  0  0  0  0  0  0  0  0  0  0
   36.5110   27.8860   41.6810 C   0  0  0  0  0  0  0  0  0  0  0  0
   37.3790   27.0190   42.3580 C   0  0  0  0  0  0  0  0  0  0  0  0
   38.4640   27.5550   43.0080 N   0  0  0  0  0  0  0  0  0  0  0  0
   38.6850   28.8720   42.9920 C   0  0  0  0  0  0  0  0  0  0  0  0
   37.8610   29.7210   42.3450 N   0  0  0  0  0  0  0  0  0  0  0  0
   35.6970   27.3810   41.2080 H   0  0  0  0  0  0  0  0  0  0  0  0
   39.5510   29.3120   43.5080 H   0  0  0  0  0  0  0  0  0  0  0  0
   37.1230   25.5430   42.3920 C   0  0  0  0  0  0  0  0  0  0  0  0
   36.9990   24.8160   41.0890 C   0  0  0  0  0  0  0  0  0  0  0  0
   38.1950   24.6300   42.0330 C   0  0  0  0  0  0  0  0  0  0  0  0
   36.3440   25.2900   43.1360 H   0  0  0  0  0  0  0  0  0  0  0  0
   36.3310   23.9520   41.0580 H   0  0  0  0  0  0  0  0  0  0  0  0
   37.1580   25.3340   40.1360 H   0  0  0  0  0  0  0  0  0  0  0  0
   38.3280   23.6290   42.5050 H   0  0  0  0  0  0  0  0  0  0  0  0
   39.1470   25.0000   41.6050 H   0  0  0  0  0  0  0  0  0  0  0  0
   35.9360   30.0590   41.0310 O   0  0  0  0  0  0  0  0  0  0  0  0
   36.2790   32.8820   41.0930 H   0  0  0  0  0  0  0  0  0  0  0  0
   36.9110   32.1800   40.6240 N   0  0  0  0  0  0  0  0  0  0  0  0
   37.3840   32.7910   39.3790 C   0  0  0  0  0  2  0  0  0  0  0  0
   38.0630   31.6020   38.7040 C   0  0  0  0  0  2  0  0  0  0  0  0
   37.1520   30.4760   39.0780 C   0  0  0  0  0  2  0  0  0  0  0  0
   36.1610   31.0540   40.0980 C   0  0  1  0  0  3  0  0  0  0  0  0
  1  6  1  0  0  0  0
  2  1  2  0  0  0  0
  2  3  1  0  0  0  0
  3  9  1  0  0  0  0
  3  4  2  0  0  0  0
  5  4  1  0  0  0  0
  5  8  1  0  0  0  0
  6  5  2  0  0  0  0
  7  2  1  0  0  0  0
  9 12  1  0  0  0  0
 10 11  1  0  0  0  0
 10  9  1  0  0  0  0
 11  9  1  0  0  0  0
 11 15  1  0  0  0  0
 13 10  1  0  0  0  0
 14 10  1  0  0  0  0
 16 11  1  0  0  0  0
 17  1  1  0  0  0  0
 19 18  1  0  0  0  0
 20 19  1  0  0  0  0
 21 22  1  0  0  0  0
 21 20  1  0  0  0  0
 22 23  1  0  0  0  0
 23 19  1  0  0  0  0
 23 17  1  1  0  0  0
M  END
>  <minimizedAffinity>
-4.65307903

$$$$

 OpenBabel03242523493D

 23 25  0  0  1  0  0  0  0  0999 V2000
   38.0240   30.7220   39.3620 C   0  0  0  0  0  0  0  0  0  0  0  0
   38.4200   29.5940   40.1070 C   0  0  0  0  0  0  0  0  0  0  0  0
   37.6830   29.2720   41.2550 C   0  0  0  0  0  0  0  0  0  0  0  0
   36.6150   30.0690   41.5920 N   0  0  0  0  0  0  0  0  0  0  0  0
   36.2910   31.1260   40.8420 C   0  0  0  0  0  0  0  0  0  0  0  0
   36.9890   31.4500   39.7360 N   0  0  0  0  0  0  0  0  0  0  0  0
   39.2280   28.9200   39.9240 H   0  0  0  0  0  0  0  0  0  0  0  0
   35.4390   31.7700   41.1030 H   0  0  0  0  0  0  0  0  0  0  0  0
   38.0350   28.0770   42.0880 C   0  0  0  0  0  0  0  0  0  0  0  0
   37.7570   28.1320   43.5580 C   0  0  0  0  0  0  0  0  0  0  0  0
   36.9700   27.2300   42.5980 C   0  0  0  0  0  0  0  0  0  0  0  0
   39.0370   27.6880   41.8230 H   0  0  0  0  0  0  0  0  0  0  0  0
   38.4320   27.5820   44.2170 H   0  0  0  0  0  0  0  0  0  0  0  0
   37.2490   28.9940   44.0050 H   0  0  0  0  0  0  0  0  0  0  0  0
   37.0750   26.1270   42.7240 H   0  0  0  0  0  0  0  0  0  0  0  0
   35.9060   27.5220   42.5010 H   0  0  0  0  0  0  0  0  0  0  0  0
   38.7700   30.9920   38.2640 O   0  0  0  0  0  0  0  0  0  0  0  0
   40.5030   31.7000   36.1230 H   0  0  0  0  0  0  0  0  0  0  0  0
   40.2750   32.2860   36.9690 N   0  0  0  0  0  0  0  0  0  0  0  0
   41.5040   32.9880   37.3500 C   0  0  0  0  0  2  0  0  0  0  0  0
   41.1020   33.5800   38.6980 C   0  0  0  0  0  2  0  0  0  0  0  0
   40.2590   32.4860   39.2740 C   0  0  0  0  0  2  0  0  0  0  0  0
   40.0650   31.4630   38.1470 C   0  0  1  0  0  3  0  0  0  0  0  0
  1  6  2  0  0  0  0
  1  2  1  0  0  0  0
  2  3  2  0  0  0  0
  3  4  1  0  0  0  0
  3  9  1  0  0  0  0
  5  8  1  0  0  0  0
  5  4  2  0  0  0  0
  6  5  1  0  0  0  0
  7  2  1  0  0  0  0
  9 11  1  0  0  0  0
  9 10  1  0  0  0  0
 10 14  1  0  0  0  0
 10 13  1  0  0  0  0
 11 15  1  0  0  0  0
 11 10  1  0  0  0  0
 12  9  1  0  0  0  0
 16 11  1  0  0  0  0
 17  1  1  0  0  0  0
 18 19  1  0  0  0  0
 19 20  1  0  0  0  0
 19 23  1  0  0  0  0
 20 21  1  0  0  0  0
 21 22  1  0  0  0  0
 23 17  1  6  0  0  0
 23 22  1  0  0  0  0
M  END
>  <minimizedAffinity>
-4.42053604

$$$$

 OpenBabel03242523493D

 23 25  0  0  1  0  0  0  0  0999 V2000
   37.2730   26.9700   42.2060 C   0  0  0  0  0  0  0  0  0  0  0  0
   36.5590   27.8630   41.3810 C   0  0  0  0  0  0  0  0  0  0  0  0
   36.7700   29.2360   41.5620 C   0  0  0  0  0  0  0  0  0  0  0  0
   37.6580   29.6410   42.5280 N   0  0  0  0  0  0  0  0  0  0  0  0
   38.3040   28.7440   43.2780 C   0  0  0  0  0  0  0  0  0  0  0  0
   38.1130   27.4190   43.1180 N   0  0  0  0  0  0  0  0  0  0  0  0
   35.8540   27.6430   40.6090 H   0  0  0  0  0  0  0  0  0  0  0  0
   39.0170   29.0560   44.0550 H   0  0  0  0  0  0  0  0  0  0  0  0
   36.0590   30.2440   40.7100 C   0  0  0  0  0  0  0  0  0  0  0  0
   36.7630   31.5260   40.3930 C   0  0  0  0  0  0  0  0  0  0  0  0
   36.4930   30.4440   39.3380 C   0  0  0  0  0  0  0  0  0  0  0  0
   35.0060   30.3640   41.0310 H   0  0  0  0  0  0  0  0  0  0  0  0
   36.1470   32.4190   40.2680 H   0  0  0  0  0  0  0  0  0  0  0  0
   37.7960   31.6980   40.7160 H   0  0  0  0  0  0  0  0  0  0  0  0
   35.7930   30.6980   38.5080 H   0  0  0  0  0  0  0  0  0  0  0  0
   37.4170   29.9730   38.9520 H   0  0  0  0  0  0  0  0  0  0  0  0
   37.0310   25.6540   41.9940 O   0  0  0  0  0  0  0  0  0  0  0  0
   38.8920   23.5060   42.1000 H   0  0  0  0  0  0  0  0  0  0  0  0
   37.9300   23.4870   41.6670 N   0  0  0  0  0  0  0  0  0  0  0  0
   38.0200   22.6610   40.4600 C   0  0  0  0  0  2  0  0  0  0  0  0
   36.6590   22.9240   39.8190 C   0  0  0  0  0  2  0  0  0  0  0  0
   36.4510   24.3730   40.1250 C   0  0  0  0  0  2  0  0  0  0  0  0
   37.5820   24.7700   41.0850 C   0  0  1  0  0  3  0  0  0  0  0  0
  1  6  1  0  0  0  0
  2  3  1  0  0  0  0
  2  1  2  0  0  0  0
  3  4  2  0  0  0  0
  4  5  1  0  0  0  0
  5  8  1  0  0  0  0
  6  5  2  0  0  0  0
  7  2  1  0  0  0  0
  9 12  1  0  0  0  0
  9  3  1  0  0  0  0
 10  9  1  0  0  0  0
 10 14  1  0  0  0  0
 11 10  1  0  0  0  0
 11  9  1  0  0  0  0
 13 10  1  0  0  0  0
 15 11  1  0  0  0  0
 16 11  1  0  0  0  0
 17  1  1  0  0  0  0
 19 18  1  0  0  0  0
 20 19  1  0  0  0  0
 21 22  1  0  0  0  0
 21 20  1  0  0  0  0
 22 23  1  0  0  0  0
 23 19  1  0  0  0  0
 23 17  1  1  0  0  0
M  END
>  <minimizedAffinity>
-4.41935778

$$$$

 OpenBabel03242523493D

 23 25  0  0  1  0  0  0  0  0999 V2000
   35.4280   29.4840   39.7160 C   0  0  0  0  0  0  0  0  0  0  0  0
   36.3380   29.7100   38.6640 C   0  0  0  0  0  0  0  0  0  0  0  0
   35.8940   29.4920   37.3530 C   0  0  0  0  0  0  0  0  0  0  0  0
   34.6000   29.0720   37.1610 N   0  0  0  0  0  0  0  0  0  0  0  0
   33.7860   28.8760   38.2020 C   0  0  0  0  0  0  0  0  0  0  0  0
   34.1970   29.0810   39.4700 N   0  0  0  0  0  0  0  0  0  0  0  0
   37.3540   30.0350   38.7150 H   0  0  0  0  0  0  0  0  0  0  0  0
   32.7490   28.5400   38.0600 H   0  0  0  0  0  0  0  0  0  0  0  0
   36.8000   29.7270   36.1820 C   0  0  0  0  0  0  0  0  0  0  0  0
   37.0280   28.5990   35.2250 C   0  0  0  0  0  0  0  0  0  0  0  0
   36.2240   29.8520   34.8540 C   0  0  0  0  0  0  0  0  0  0  0  0
   37.7190   30.2620   36.4910 H   0  0  0  0  0  0  0  0  0  0  0  0
   38.0030   28.5460   34.7350 H   0  0  0  0  0  0  0  0  0  0  0  0
   36.4960   27.6470   35.3370 H   0  0  0  0  0  0  0  0  0  0  0  0
   36.6450   30.5200   34.0670 H   0  0  0  0  0  0  0  0  0  0  0  0
   35.1530   29.6420   34.6690 H   0  0  0  0  0  0  0  0  0  0  0  0
   35.9070   29.7060   40.9640 O   0  0  0  0  0  0  0  0  0  0  0  0
   37.5250   30.3600   43.2090 H   0  0  0  0  0  0  0  0  0  0  0  0
   36.9860   29.4660   43.0600 N   0  0  0  0  0  0  0  0  0  0  0  0
   37.8060   28.3750   43.5930 C   0  0  0  0  0  2  0  0  0  0  0  0
   37.0370   27.1540   43.0930 C   0  0  0  0  0  2  0  0  0  0  0  0
   36.5890   27.6080   41.7400 C   0  0  0  0  0  2  0  0  0  0  0  0
   36.9390   29.1000   41.6550 C   0  0  1  0  0  3  0  0  0  0  0  0
  1 17  1  0  0  0  0
  2  7  1  0  0  0  0
  2  1  2  0  0  0  0
  3  2  1  0  0  0  0
  4  3  2  0  0  0  0
  4  5  1  0  0  0  0
  5  6  2  0  0  0  0
  6  1  1  0  0  0  0
  8  5  1  0  0  0  0
  9 12  1  0  0  0  0
  9  3  1  0  0  0  0
 10 14  1  0  0  0  0
 10  9  1  0  0  0  0
 11 10  1  0  0  0  0
 11  9  1  0  0  0  0
 13 10  1  0  0  0  0
 15 11  1  0  0  0  0
 16 11  1  0  0  0  0
 19 18  1  0  0  0  0
 19 20  1  0  0  0  0
 21 20  1  0  0  0  0
 22 21  1  0  0  0  0
 23 17  1  6  0  0  0
 23 22  1  0  0  0  0
 23 19  1  0  0  0  0
M  END
>  <minimizedAffinity>
-4.38466883

$$$$

 OpenBabel03242523493D

 23 25  0  0  1  0  0  0  0  0999 V2000
   35.5370   29.0830   39.3350 C   0  0  0  0  0  0  0  0  0  0  0  0
   34.2400   28.8790   38.8240 C   0  0  0  0  0  0  0  0  0  0  0  0
   34.0620   28.9510   37.4350 C   0  0  0  0  0  0  0  0  0  0  0  0
   35.1570   29.2140   36.6480 N   0  0  0  0  0  0  0  0  0  0  0  0
   36.3610   29.3980   37.1950 C   0  0  0  0  0  0  0  0  0  0  0  0
   36.5510   29.3330   38.5280 N   0  0  0  0  0  0  0  0  0  0  0  0
   33.3360   28.6700   39.3530 H   0  0  0  0  0  0  0  0  0  0  0  0
   37.2440   29.6090   36.5740 H   0  0  0  0  0  0  0  0  0  0  0  0
   32.7150   28.7290   36.8180 C   0  0  0  0  0  0  0  0  0  0  0  0
   31.6100   29.6760   37.1690 C   0  0  0  0  0  0  0  0  0  0  0  0
   32.2550   29.6330   35.7780 C   0  0  0  0  0  0  0  0  0  0  0  0
   32.4330   27.6590   36.8520 H   0  0  0  0  0  0  0  0  0  0  0  0
   30.5940   29.2750   37.1910 H   0  0  0  0  0  0  0  0  0  0  0  0
   31.7950   30.5470   37.8070 H   0  0  0  0  0  0  0  0  0  0  0  0
   31.6160   29.3060   34.9240 H   0  0  0  0  0  0  0  0  0  0  0  0
   32.8130   30.5560   35.5280 H   0  0  0  0  0  0  0  0  0  0  0  0
   35.6560   29.0070   40.6830 O   0  0  0  0  0  0  0  0  0  0  0  0
   37.3990   30.5760   42.2910 H   0  0  0  0  0  0  0  0  0  0  0  0
   36.8890   29.7000   42.5830 N   0  0  0  0  0  0  0  0  0  0  0  0
   37.7910   28.9510   43.4630 C   0  0  0  0  0  2  0  0  0  0  0  0
   37.0420   27.6280   43.5980 C   0  0  0  0  0  2  0  0  0  0  0  0
   36.4800   27.4520   42.2230 C   0  0  0  0  0  2  0  0  0  0  0  0
   36.7590   28.7660   41.4800 C   0  0  1  0  0  3  0  0  0  0  0  0
  1 17  1  0  0  0  0
  2  1  1  0  0  0  0
  2  7  1  0  0  0  0
  3  2  2  0  0  0  0
  4  5  2  0  0  0  0
  4  3  1  0  0  0  0
  5  6  1  0  0  0  0
  6  1  2  0  0  0  0
  8  5  1  0  0  0  0
  9 12  1  0  0  0  0
  9 10  1  0  0  0  0
  9  3  1  0  0  0  0
 10 13  1  0  0  0  0
 10 14  1  0  0  0  0
 11  9  1  0  0  0  0
 11 10  1  0  0  0  0
 15 11  1  0  0  0  0
 16 11  1  0  0  0  0
 18 19  1  0  0  0  0
 19 20  1  0  0  0  0
 20 21  1  0  0  0  0
 22 21  1  0  0  0  0
 23 17  1  6  0  0  0
 23 22  1  0  0  0  0
 23 19  1  0  0  0  0
M  END
>  <minimizedAffinity>
-4.28086376

$$$$

 OpenBabel03242523493D

 23 25  0  0  1  0  0  0  0  0999 V2000
   38.6580   29.1790   42.3550 C   0  0  0  0  0  0  0  0  0  0  0  0
   37.6950   29.8040   41.5380 C   0  0  0  0  0  0  0  0  0  0  0  0
   37.9590   31.1040   41.0870 C   0  0  0  0  0  0  0  0  0  0  0  0
   39.1390   31.7000   41.4620 N   0  0  0  0  0  0  0  0  0  0  0  0
   40.0120   31.0520   42.2390 C   0  0  0  0  0  0  0  0  0  0  0  0
   39.7740   29.8020   42.6820 N   0  0  0  0  0  0  0  0  0  0  0  0
   36.7570   29.4230   41.1960 H   0  0  0  0  0  0  0  0  0  0  0  0
   40.9590   31.5200   42.5450 H   0  0  0  0  0  0  0  0  0  0  0  0
   36.9890   31.8260   40.2010 C   0  0  0  0  0  0  0  0  0  0  0  0
   37.3980   33.1490   39.6330 C   0  0  0  0  0  0  0  0  0  0  0  0
   37.2460   31.8880   38.7720 C   0  0  0  0  0  0  0  0  0  0  0  0
   35.9680   31.8030   40.6280 H   0  0  0  0  0  0  0  0  0  0  0  0
   36.6110   33.8880   39.4660 H   0  0  0  0  0  0  0  0  0  0  0  0
   38.4030   33.5500   39.8040 H   0  0  0  0  0  0  0  0  0  0  0  0
   36.4360   31.8810   38.0060 H   0  0  0  0  0  0  0  0  0  0  0  0
   38.2040   31.5360   38.3440 H   0  0  0  0  0  0  0  0  0  0  0  0
   38.3540   27.9240   42.7670 O   0  0  0  0  0  0  0  0  0  0  0  0
   40.1280   25.7060   42.9010 H   0  0  0  0  0  0  0  0  0  0  0  0
   39.0750   25.6750   42.9460 N   0  0  0  0  0  0  0  0  0  0  0  0
   38.6490   24.4740   42.2210 C   0  0  0  0  0  2  0  0  0  0  0  0
   37.1400   24.6890   42.1520 C   0  0  0  0  0  2  0  0  0  0  0  0
   37.0500   26.1670   41.9420 C   0  0  0  0  0  2  0  0  0  0  0  0
   38.4750   26.7080   42.1210 C   0  0  1  0  0  3  0  0  0  0  0  0
  1  6  1  0  0  0  0
  1 17  1  0  0  0  0
  2  1  2  0  0  0  0
  3  4  2  0  0  0  0
  3  2  1  0  0  0  0
  4  5  1  0  0  0  0
  5  8  1  0  0  0  0
  5  6  2  0  0  0  0
  7  2  1  0  0  0  0
  9 12  1  0  0  0  0
  9  3  1  0  0  0  0
 10 14  1  0  0  0  0
 10  9  1  0  0  0  0
 11 10  1  0  0  0  0
 11  9  1  0  0  0  0
 13 10  1  0  0  0  0
 15 11  1  0  0  0  0
 16 11  1  0  0  0  0
 18 19  1  0  0  0  0
 20 19  1  0  0  0  0
 21 20  1  0  0  0  0
 22 23  1  0  0  0  0
 22 21  1  0  0  0  0
 23 17  1  1  0  0  0
 23 19  1  0  0  0  0
M  END
>  <minimizedAffinity>
-4.25261259

$$$$

 OpenBabel03242523493D

 23 25  0  0  1  0  0  0  0  0999 V2000
   38.0280   29.7290   42.5230 C   0  0  0  0  0  0  0  0  0  0  0  0
   37.1990   30.1180   41.4520 C   0  0  0  0  0  0  0  0  0  0  0  0
   37.6900   31.0760   40.5540 C   0  0  0  0  0  0  0  0  0  0  0  0
   38.9490   31.5840   40.7630 N   0  0  0  0  0  0  0  0  0  0  0  0
   39.6860   31.1720   41.7990 C   0  0  0  0  0  0  0  0  0  0  0  0
   39.2300   30.2530   42.6720 N   0  0  0  0  0  0  0  0  0  0  0  0
   36.2150   29.7810   41.2090 H   0  0  0  0  0  0  0  0  0  0  0  0
   40.6950   31.5720   41.9760 H   0  0  0  0  0  0  0  0  0  0  0  0
   36.8720   31.5260   39.3820 C   0  0  0  0  0  0  0  0  0  0  0  0
   37.5870   31.9110   38.1250 C   0  0  0  0  0  0  0  0  0  0  0  0
   36.7290   30.6430   38.2370 C   0  0  0  0  0  0  0  0  0  0  0  0
   36.0810   32.2340   39.6970 H   0  0  0  0  0  0  0  0  0  0  0  0
   37.1340   32.6900   37.5080 H   0  0  0  0  0  0  0  0  0  0  0  0
   38.6740   31.8030   38.0390 H   0  0  0  0  0  0  0  0  0  0  0  0
   35.8030   30.5910   37.6180 H   0  0  0  0  0  0  0  0  0  0  0  0
   37.3190   29.7110   38.1520 H   0  0  0  0  0  0  0  0  0  0  0  0
   37.5060   28.8030   43.3630 O   0  0  0  0  0  0  0  0  0  0  0  0
   36.4020   26.7820   41.6950 H   0  0  0  0  0  0  0  0  0  0  0  0
   37.4130   26.8840   41.9760 N   0  0  0  0  0  0  0  0  0  0  0  0
   37.9420   25.5330   42.1780 C   0  0  0  0  0  2  0  0  0  0  0  0
   39.2990   25.8370   42.8090 C   0  0  0  0  0  2  0  0  0  0  0  0
   38.9770   27.0130   43.6760 C   0  0  0  0  0  2  0  0  0  0  0  0
   37.5410   27.4220   43.3190 C   0  0  1  0  0  3  0  0  0  0  0  0
  1  6  1  0  0  0  0
  1 17  1  0  0  0  0
  2  1  2  0  0  0  0
  3  4  2  0  0  0  0
  3  2  1  0  0  0  0
  4  5  1  0  0  0  0
  5  8  1  0  0  0  0
  5  6  2  0  0  0  0
  7  2  1  0  0  0  0
  9 12  1  0  0  0  0
  9  3  1  0  0  0  0
 10 11  1  0  0  0  0
 10  9  1  0  0  0  0
 11  9  1  0  0  0  0
 13 10  1  0  0  0  0
 14 10  1  0  0  0  0
 15 11  1  0  0  0  0
 16 11  1  0  0  0  0
 18 19  1  0  0  0  0
 19 20  1  0  0  0  0
 19 23  1  0  0  0  0
 20 21  1  0  0  0  0
 21 22  1  0  0  0  0
 23 17  1  6  0  0  0
 23 22  1  0  0  0  0
M  END
>  <minimizedAffinity>
-4.24205256

$$$$

 OpenBabel03242523493D

 23 25  0  0  1  0  0  0  0  0999 V2000
   39.5720   29.7900   41.4990 C   0  0  0  0  0  0  0  0  0  0  0  0
   38.5800   28.9080   41.9710 C   0  0  0  0  0  0  0  0  0  0  0  0
   38.9640   27.9080   42.8740 C   0  0  0  0  0  0  0  0  0  0  0  0
   40.2830   27.8390   43.2530 N   0  0  0  0  0  0  0  0  0  0  0  0
   41.1760   28.7070   42.7690 C   0  0  0  0  0  0  0  0  0  0  0  0
   40.8240   29.6740   41.8990 N   0  0  0  0  0  0  0  0  0  0  0  0
   37.5380   28.8840   41.7360 H   0  0  0  0  0  0  0  0  0  0  0  0
   42.2340   28.6610   43.0640 H   0  0  0  0  0  0  0  0  0  0  0  0
   37.9610   26.9440   43.4310 C   0  0  0  0  0  0  0  0  0  0  0  0
   36.5520   27.4160   43.6160 C   0  0  0  0  0  0  0  0  0  0  0  0
   36.9490   26.3860   42.5500 C   0  0  0  0  0  0  0  0  0  0  0  0
   38.3770   26.3890   44.2940 H   0  0  0  0  0  0  0  0  0  0  0  0
   35.9840   26.9890   44.4450 H   0  0  0  0  0  0  0  0  0  0  0  0
   36.2450   28.4170   43.2910 H   0  0  0  0  0  0  0  0  0  0  0  0
   36.5480   25.3520   42.6590 H   0  0  0  0  0  0  0  0  0  0  0  0
   36.8180   26.7590   41.5160 H   0  0  0  0  0  0  0  0  0  0  0  0
   39.1500   30.7360   40.6250 O   0  0  0  0  0  0  0  0  0  0  0  0
   40.3580   33.3090   40.6700 H   0  0  0  0  0  0  0  0  0  0  0  0
   39.5030   33.0240   40.1230 N   0  0  0  0  0  0  0  0  0  0  0  0
   38.5790   34.1610   40.1450 C   0  0  0  0  0  2  0  0  0  0  0  0
   37.3210   33.5320   39.5510 C   0  0  0  0  0  2  0  0  0  0  0  0
   37.3580   32.1580   40.1400 C   0  0  0  0  0  2  0  0  0  0  0  0
   38.7200   32.0320   40.8370 C   0  0  1  0  0  3  0  0  0  0  0  0
  1  6  2  0  0  0  0
  1  2  1  0  0  0  0
  2  3  2  0  0  0  0
  3  4  1  0  0  0  0
  3  9  1  0  0  0  0
  5  8  1  0  0  0  0
  5  4  2  0  0  0  0
  6  5  1  0  0  0  0
  7  2  1  0  0  0  0
  9 10  1  0  0  0  0
  9 12  1  0  0  0  0
 10 13  1  0  0  0  0
 11 15  1  0  0  0  0
 11  9  1  0  0  0  0
 11 10  1  0  0  0  0
 14 10  1  0  0  0  0
 16 11  1  0  0  0  0
 17  1  1  0  0  0  0
 19 20  1  0  0  0  0
 19 18  1  0  0  0  0
 19 23  1  0  0  0  0
 21 22  1  0  0  0  0
 21 20  1  0  0  0  0
 22 23  1  0  0  0  0
 23 17  1  6  0  0  0
M  END
>  <minimizedAffinity>
-4.22873545

$$$$

 OpenBabel03242523493D

 23 25  0  0  1  0  0  0  0  0999 V2000
   37.1970   30.5020   39.6900 C   0  0  0  0  0  0  0  0  0  0  0  0
   36.5600   29.7590   38.6760 C   0  0  0  0  0  0  0  0  0  0  0  0
   36.7740   30.1450   37.3460 C   0  0  0  0  0  0  0  0  0  0  0  0
   37.5900   31.2220   37.0990 N   0  0  0  0  0  0  0  0  0  0  0  0
   38.1650   31.8850   38.1060 C   0  0  0  0  0  0  0  0  0  0  0  0
   37.9700   31.5290   39.3910 N   0  0  0  0  0  0  0  0  0  0  0  0
   35.9150   28.9140   38.7700 H   0  0  0  0  0  0  0  0  0  0  0  0
   38.8200   32.7490   37.9200 H   0  0  0  0  0  0  0  0  0  0  0  0
   36.1430   29.3910   36.2140 C   0  0  0  0  0  0  0  0  0  0  0  0
   36.2840   29.9440   34.8300 C   0  0  0  0  0  0  0  0  0  0  0  0
   36.9930   28.6620   35.2880 C   0  0  0  0  0  0  0  0  0  0  0  0
   35.1190   29.0620   36.4760 H   0  0  0  0  0  0  0  0  0  0  0  0
   35.4640   29.7620   34.1320 H   0  0  0  0  0  0  0  0  0  0  0  0
   36.8880   30.8380   34.6380 H   0  0  0  0  0  0  0  0  0  0  0  0
   36.6890   27.7040   34.8050 H   0  0  0  0  0  0  0  0  0  0  0  0
   38.0950   28.7620   35.3170 H   0  0  0  0  0  0  0  0  0  0  0  0
   36.9560   30.0920   40.9590 O   0  0  0  0  0  0  0  0  0  0  0  0
   38.7040   29.8790   43.1920 H   0  0  0  0  0  0  0  0  0  0  0  0
   37.7650   29.4110   43.0790 N   0  0  0  0  0  0  0  0  0  0  0  0
   37.8750   28.0770   43.6770 C   0  0  0  0  0  2  0  0  0  0  0  0
   36.5620   27.4410   43.2260 C   0  0  0  0  0  2  0  0  0  0  0  0
   36.4100   27.9980   41.8460 C   0  0  0  0  0  2  0  0  0  0  0  0
   37.5080   29.0590   41.6940 C   0  0  1  0  0  3  0  0  0  0  0  0
  1 17  1  0  0  0  0
  2  7  1  0  0  0  0
  2  1  2  0  0  0  0
  3  2  1  0  0  0  0
  4  3  2  0  0  0  0
  4  5  1  0  0  0  0
  5  6  2  0  0  0  0
  6  1  1  0  0  0  0
  8  5  1  0  0  0  0
  9 12  1  0  0  0  0
  9  3  1  0  0  0  0
 10 11  1  0  0  0  0
 10  9  1  0  0  0  0
 11 16  1  0  0  0  0
 11  9  1  0  0  0  0
 13 10  1  0  0  0  0
 14 10  1  0  0  0  0
 15 11  1  0  0  0  0
 19 18  1  0  0  0  0
 19 20  1  0  0  0  0
 21 20  1  0  0  0  0
 22 21  1  0  0  0  0
 23 17  1  6  0  0  0
 23 22  1  0  0  0  0
 23 19  1  0  0  0  0
M  END
>  <minimizedAffinity>
-4.18846941

$$$$
