
 OpenBabel03242517063D

 31 33  0  0  1  0  0  0  0  0999 V2000
   46.6730   33.1890   43.0170 C   0  0  2  0  0  0  0  0  0  0  0  0
   45.9440   34.2030   42.2250 C   0  0  1  0  0  0  0  0  0  0  0  0
   45.6870   35.4870   42.9560 C   0  0  0  0  0  0  0  0  0  0  0  0
   44.9490   35.2430   44.2540 C   0  0  0  0  0  0  0  0  0  0  0  0
   45.4420   34.0400   45.0250 C   0  0  0  0  0  0  0  0  0  0  0  0
   46.7640   33.5640   44.4920 C   0  0  0  0  0  0  0  0  0  0  0  0
   46.1830   32.1700   43.0370 H   0  0  0  0  0  0  0  0  0  0  0  0
   44.8940   33.7700   42.1090 H   0  0  0  0  0  0  0  0  0  0  0  0
   46.5260   36.1620   43.0760 H   0  0  0  0  0  0  0  0  0  0  0  0
   44.8940   36.0220   42.3510 H   0  0  0  0  0  0  0  0  0  0  0  0
   45.0530   36.1320   44.8960 H   0  0  0  0  0  0  0  0  0  0  0  0
   43.8610   35.0870   44.1100 H   0  0  0  0  0  0  0  0  0  0  0  0
   44.7430   33.1710   44.9100 H   0  0  0  0  0  0  0  0  0  0  0  0
   45.5350   34.2260   46.0950 H   0  0  0  0  0  0  0  0  0  0  0  0
   47.1080   32.7060   45.0620 H   0  0  0  0  0  0  0  0  0  0  0  0
   47.4970   34.3820   44.6470 H   0  0  0  0  0  0  0  0  0  0  0  0
   48.0450   32.9520   42.5400 C   0  0  0  0  0  0  0  0  0  0  0  0
   48.9870   33.9450   42.8630 C   0  0  0  0  0  0  0  0  0  0  0  0
   50.3110   33.8240   42.4580 C   0  0  0  0  0  0  0  0  0  0  0  0
   50.6270   32.7080   41.7460 N   0  0  0  0  0  0  0  0  0  0  0  0
   49.7110   31.7560   41.4410 C   0  0  0  0  0  0  0  0  0  0  0  0
   48.4250   31.8830   41.8390 N   0  0  0  0  0  0  0  0  0  0  0  0
   48.8370   34.8600   43.4180 H   0  0  0  0  0  0  0  0  0  0  0  0
   51.0910   34.5390   42.6640 H   0  0  0  0  0  0  0  0  0  0  0  0
   50.0280   30.8930   40.8720 H   0  0  0  0  0  0  0  0  0  0  0  0
   46.4450   34.3080   40.9060 N   0  0  2  0  0  0  0  0  0  0  0  0
   46.7600   33.0820   40.2360 C   0  0  0  0  0  0  0  0  0  0  0  0
   48.0020   33.3130   39.4010 C   0  0  0  0  0  0  0  0  0  0  0  0
   48.3960   34.7410   39.6430 C   0  0  0  0  0  0  0  0  0  0  0  0
   47.7330   35.0370   40.9680 C   0  0  0  0  0  0  0  0  0  0  0  0
   47.6250   36.0930   41.1760 H   0  0  0  0  0  0  0  0  0  0  0  0
  1  7  1  6  0  0  0
  1  6  1  0  0  0  0
  2  8  1  6  0  0  0
  2  3  1  0  0  0  0
  2  1  1  0  0  0  0
  3  9  1  0  0  0  0
  3  4  1  0  0  0  0
  4 11  1  0  0  0  0
  4  5  1  0  0  0  0
  5 14  1  0  0  0  0
  6 16  1  0  0  0  0
  6  5  1  0  0  0  0
  6 15  1  0  0  0  0
 10  3  1  0  0  0  0
 12  4  1  0  0  0  0
 13  5  1  0  0  0  0
 17 18  1  0  0  0  0
 17  1  1  0  0  0  0
 18 23  1  0  0  0  0
 19 24  1  0  0  0  0
 19 18  2  0  0  0  0
 20 19  1  0  0  0  0
 21 20  2  0  0  0  0
 21 22  1  0  0  0  0
 22 17  2  0  0  0  0
 25 21  1  0  0  0  0
 26 27  1  1  0  0  0
 26 30  1  0  0  0  0
 26  2  1  0  0  0  0
 28 29  1  0  0  0  0
 28 27  1  0  0  0  0
 29 30  1  0  0  0  0
 30 31  1  0  0  0  0
M  END
>  <minimizedAffinity>
-4.55574083

>  <minimizedRMSD>
1.7462939

$$$$
