
 OpenBabel03252509353D

 41 43  0  0  1  0  0  0  0  0999 V2000
   44.4220   35.5250   44.0940 O   0  0  0  0  0  0  0  0  0  0  0  0
   45.2910   34.3180   44.3840 P   0  0  1  0  0  0  0  0  0  0  0  0
   44.6560   32.9180   43.6700 O   0  0  0  0  0  0  0  0  0  0  0  0
   44.3260   33.2100   42.7760 H   0  0  0  0  0  0  0  0  0  0  0  0
   46.8160   34.6250   43.7760 O   0  0  0  0  0  0  0  0  0  0  0  0
   47.0110   33.8930   42.6000 C   0  0  1  0  0  0  0  0  0  0  0  0
   46.4700   34.6780   41.4010 C   0  0  0  0  0  0  0  0  0  0  0  0
   47.0490   33.8860   40.2600 C   0  0  0  0  0  0  0  0  0  0  0  0
   48.3120   33.2430   40.7930 C   0  0  0  0  0  0  0  0  0  0  0  0
   48.4510   33.7620   42.2110 C   0  0  1  0  0  0  0  0  0  0  0  0
   46.5030   32.9320   42.6030 H   0  0  0  0  0  0  0  0  0  0  0  0
   46.7170   35.7330   41.4170 H   0  0  0  0  0  0  0  0  0  0  0  0
   45.3530   34.5830   41.3900 H   0  0  0  0  0  0  0  0  0  0  0  0
   47.3810   34.5700   39.4470 H   0  0  0  0  0  0  0  0  0  0  0  0
   46.3080   33.1460   39.9110 H   0  0  0  0  0  0  0  0  0  0  0  0
   49.2070   33.4530   40.1800 H   0  0  0  0  0  0  0  0  0  0  0  0
   48.0920   32.1520   40.8830 H   0  0  0  0  0  0  0  0  0  0  0  0
   48.9250   32.9930   42.8740 H   0  0  0  0  0  0  0  0  0  0  0  0
   49.1920   35.0740   42.2630 C   0  0  0  0  0  0  0  0  0  0  0  0
   48.5290   35.9230   42.5990 H   0  0  0  0  0  0  0  0  0  0  0  0
   49.5600   35.3490   41.2510 H   0  0  0  0  0  0  0  0  0  0  0  0
   50.2250   35.0480   43.1730 O   0  0  0  0  0  0  0  0  0  0  0  0
   50.8120   34.2730   43.1450 H   0  0  0  0  0  0  0  0  0  0  0  0
   45.3550   34.0250   46.0240 O   0  0  0  0  0  0  0  0  0  0  0  0
   46.3280   33.1080   46.2750 C   0  0  0  0  0  0  0  0  0  0  0  0
   46.8310   32.6440   45.4330 H   0  0  0  0  0  0  0  0  0  0  0  0
   47.1410   33.6750   46.8200 H   0  0  0  0  0  0  0  0  0  0  0  0
   45.2930   31.4110   49.4180 C   0  0  0  0  0  0  0  0  0  0  0  0
   45.6940   32.4180   48.5390 C   0  0  0  0  0  0  0  0  0  0  0  0
   45.9000   32.0560   47.2110 C   0  0  0  0  0  0  0  0  0  0  0  0
   45.7030   30.7580   46.8430 N   0  0  0  0  0  0  0  0  0  0  0  0
   45.3160   29.8020   47.7130 C   0  0  0  0  0  0  0  0  0  0  0  0
   45.1140   30.1310   48.9820 N   0  0  0  0  0  0  0  0  0  0  0  0
   45.1300   31.6790   50.4450 H   0  0  0  0  0  0  0  0  0  0  0  0
   45.8270   33.4250   48.9210 H   0  0  0  0  0  0  0  0  0  0  0  0
   45.1250   28.4630   47.2720 N   0  0  0  0  0  0  0  0  0  0  0  0
   45.2920   27.9080   45.9440 C   0  0  0  0  0  2  0  0  0  0  0  0
   45.6830   26.4490   46.1660 C   0  0  0  0  0  2  0  0  0  0  0  0
   45.6970   26.2800   47.6750 C   0  0  0  0  0  2  0  0  0  0  0  0
   44.7120   27.3480   48.1010 C   0  0  0  0  0  3  0  0  0  0  0  0
   44.8070   27.5610   49.1850 H   0  0  0  0  0  0  0  0  0  0  0  0
  2  1  2  6  0  0  0
  2 24  1  0  0  0  0
  3  2  1  0  0  0  0
  4  3  1  0  0  0  0
  5  2  1  0  0  0  0
  6 11  1  1  0  0  0
  6  5  1  0  0  0  0
  7 12  1  0  0  0  0
  7  6  1  0  0  0  0
  8  9  1  0  0  0  0
  8  7  1  0  0  0  0
  9 17  1  0  0  0  0
  9 10  1  0  0  0  0
 10 19  1  0  0  0  0
 10  6  1  0  0  0  0
 10 18  1  1  0  0  0
 13  7  1  0  0  0  0
 14  8  1  0  0  0  0
 15  8  1  0  0  0  0
 16  9  1  0  0  0  0
 19 20  1  0  0  0  0
 19 22  1  0  0  0  0
 21 19  1  0  0  0  0
 23 22  1  0  0  0  0
 24 25  1  0  0  0  0
 25 27  1  0  0  0  0
 25 30  1  0  0  0  0
 26 25  1  0  0  0  0
 28 34  1  0  0  0  0
 29 35  1  0  0  0  0
 29 28  2  0  0  0  0
 30 29  1  0  0  0  0
 31 30  2  0  0  0  0
 31 32  1  0  0  0  0
 32 33  2  0  0  0  0
 33 28  1  0  0  0  0
 36 32  1  0  0  0  0
 36 40  1  0  0  0  0
 37 38  1  0  0  0  0
 37 36  1  0  0  0  0
 38 39  1  0  0  0  0
 39 40  1  0  0  0  0
 40 41  1  0  0  0  0
M  END
>  <minimizedAffinity>
-6.12750721

>  <minimizedRMSD>
1.04378593

$$$$
