
 OpenBabel03242515093D

 33 35  0  0  1  0  0  0  0  0999 V2000
   46.3610   33.7030   44.7430 C   0  0  0  0  0  0  0  0  0  0  0  0
   45.1800   34.3720   44.9560 C   0  0  0  0  0  0  0  0  0  0  0  0
   44.6880   35.3790   44.1520 C   0  0  0  0  0  0  0  0  0  0  0  0
   45.4200   35.7520   43.0540 C   0  0  0  0  0  0  0  0  0  0  0  0
   46.6060   35.1120   42.8000 C   0  0  0  0  0  0  0  0  0  0  0  0
   47.0710   34.0990   43.6360 C   0  0  0  0  0  0  0  0  0  0  0  0
   44.5850   34.0920   45.8210 H   0  0  0  0  0  0  0  0  0  0  0  0
   43.7510   35.8760   44.3640 H   0  0  0  0  0  0  0  0  0  0  0  0
   45.0380   36.5410   42.4200 H   0  0  0  0  0  0  0  0  0  0  0  0
   47.1430   35.4450   41.9210 H   0  0  0  0  0  0  0  0  0  0  0  0
   47.6390   30.4570   45.8330 C   0  0  0  0  0  0  0  0  0  0  0  0
   47.7250   30.5850   47.2100 C   0  0  0  0  0  0  0  0  0  0  0  0
   47.3400   31.8000   47.7720 C   0  0  0  0  0  0  0  0  0  0  0  0
   46.8930   32.8270   46.9790 N   0  0  0  0  0  0  0  0  0  0  0  0
   46.8240   32.6540   45.6220 C   0  0  0  0  0  0  0  0  0  0  0  0
   47.2010   31.4710   45.0950 N   0  0  0  0  0  0  0  0  0  0  0  0
   47.9510   29.4930   45.4490 H   0  0  0  0  0  0  0  0  0  0  0  0
   48.0640   29.8330   47.9020 H   0  0  0  0  0  0  0  0  0  0  0  0
   47.3550   32.0390   48.8280 H   0  0  0  0  0  0  0  0  0  0  0  0
   48.3020   33.5440   43.2380 N   0  0  0  0  0  0  0  0  0  0  0  0
   48.3420   32.4980   43.4320 H   0  0  0  0  0  0  0  0  0  0  0  0
   49.7000   34.2030   42.5260 S   0  0  0  0  0  0  0  0  0  0  0  0
   49.3840   34.5580   41.0670 O   0  0  0  0  0  0  0  0  0  0  0  0
   50.1630   34.7730   40.4750 H   0  0  0  0  0  0  0  0  0  0  0  0
   50.2230   35.4230   43.1990 O   0  0  0  0  0  0  0  0  0  0  0  0
   50.6380   36.1650   42.6980 H   0  0  0  0  0  0  0  0  0  0  0  0
   50.8440   32.9660   42.4170 O   0  0  0  0  0  0  0  0  0  0  0  0
   48.5190   31.9940   41.2320 H   0  0  0  0  0  0  0  0  0  0  0  0
   49.4850   31.5970   41.0660 N   0  0  0  0  0  0  0  0  0  0  0  0
   49.3040   30.1440   41.0260 C   0  0  0  0  0  0  0  0  0  0  0  0
   50.7340   29.6640   41.1570 C   0  0  0  0  0  0  0  0  0  0  0  0
   51.2570   30.5980   42.2380 C   0  0  0  0  0  0  0  0  0  0  0  0
   50.2700   31.7190   42.3040 C   0  0  1  0  0  0  0  0  0  0  0  0
  1  2  1  0  0  0  0
  1 15  1  0  0  0  0
  2  7  1  0  0  0  0
  3  8  1  0  0  0  0
  3  2  2  0  0  0  0
  4  3  1  0  0  0  0
  5  4  2  0  0  0  0
  5  6  1  0  0  0  0
  6  1  2  0  0  0  0
  9  4  1  0  0  0  0
 10  5  1  0  0  0  0
 11 12  1  0  0  0  0
 12 13  2  0  0  0  0
 12 18  1  0  0  0  0
 13 19  1  0  0  0  0
 14 13  1  0  0  0  0
 15 14  2  0  0  0  0
 16 15  1  0  0  0  0
 16 11  2  0  0  0  0
 17 11  1  0  0  0  0
 20 21  1  0  0  0  0
 20  6  1  0  0  0  0
 22 25  1  0  0  0  0
 22 20  1  0  0  0  0
 23 22  1  0  0  0  0
 24 23  1  0  0  0  0
 26 25  1  0  0  0  0
 27 22  1  0  0  0  0
 29 28  1  0  0  0  0
 29 33  1  0  0  0  0
 30 29  1  0  0  0  0
 30 31  1  0  0  0  0
 31 32  1  0  0  0  0
 32 33  1  0  0  0  0
 33 27  1  6  0  0  0
M  END
>  <minimizedAffinity>
-5.79035759

>  <minimizedRMSD>
2.35771847

$$$$
