
 OpenBabel03242517393D

 30 32  0  0  0  0  0  0  0  0999 V2000
   34.2570   28.8510   37.0640 C   0  0  0  0  0  3  0  0  0  0  0  0
   32.9780   28.6780   36.8410 C   0  0  0  0  0  3  0  0  0  0  0  0
   36.0650   27.7420   38.3670 C   0  0  0  0  0  0  0  0  0  0  0  0
   34.9560   28.5930   38.3110 C   0  0  0  0  0  0  0  0  0  0  0  0
   34.5320   29.1880   39.4750 C   0  0  0  0  0  0  0  0  0  0  0  0
   35.2010   28.9350   40.6470 N   0  0  0  0  0  0  0  0  0  0  0  0
   36.2690   28.1090   40.6600 C   0  0  0  0  0  0  0  0  0  0  0  0
   36.6970   27.5200   39.5420 N   0  0  0  0  0  0  0  0  0  0  0  0
   36.4280   27.2540   37.4630 H   0  0  0  0  0  0  0  0  0  0  0  0
   33.6770   29.8560   39.4900 H   0  0  0  0  0  0  0  0  0  0  0  0
   36.9400   27.8690   41.8890 N   0  0  0  0  0  0  0  0  0  0  0  0
   36.3930   27.2950   43.1040 C   0  0  0  0  0  2  0  0  0  0  0  0
   37.1350   28.0520   44.2120 C   0  0  0  0  0  2  0  0  0  0  0  0
   38.2100   28.8570   43.5190 C   0  0  0  0  0  2  0  0  0  0  0  0
   38.3310   28.1520   42.1860 C   0  0  0  0  0  3  0  0  0  0  0  0
   38.9130   27.2110   42.2750 H   0  0  0  0  0  0  0  0  0  0  0  0
   32.3140   28.9610   35.5350 C   0  0  0  0  0  0  0  0  0  0  0  0
   31.6840   28.1270   35.2190 H   0  0  0  0  0  0  0  0  0  0  0  0
   33.1610   29.1290   34.8090 H   0  0  0  0  0  0  0  0  0  0  0  0
   31.5690   30.2440   35.5810 C   0  0  0  0  0  0  0  0  0  0  0  0
   30.8960   30.5880   36.7580 C   0  0  0  0  0  0  0  0  0  0  0  0
   30.2010   31.7840   36.8010 C   0  0  0  0  0  0  0  0  0  0  0  0
   30.1530   32.6490   35.7160 C   0  0  0  0  0  0  0  0  0  0  0  0
   30.8260   32.3030   34.5460 C   0  0  0  0  0  0  0  0  0  0  0  0
   31.5180   31.1120   34.5020 C   0  0  0  0  0  0  0  0  0  0  0  0
   30.9510   29.8940   37.5850 H   0  0  0  0  0  0  0  0  0  0  0  0
   29.7180   31.9470   37.7590 H   0  0  0  0  0  0  0  0  0  0  0  0
   29.5880   33.5630   35.8330 H   0  0  0  0  0  0  0  0  0  0  0  0
   30.7600   33.0090   33.7280 H   0  0  0  0  0  0  0  0  0  0  0  0
   32.0330   30.8670   33.5810 H   0  0  0  0  0  0  0  0  0  0  0  0
  1  4  1  0  0  0  0
  2  1  2  0  0  0  0
  3  8  1  0  0  0  0
  4  3  2  0  0  0  0
  4  5  1  0  0  0  0
  5 10  1  0  0  0  0
  5  6  2  0  0  0  0
  6  7  1  0  0  0  0
  7 11  1  0  0  0  0
  8  7  2  0  0  0  0
  9  3  1  0  0  0  0
 11 15  1  0  0  0  0
 11 12  1  0  0  0  0
 12 13  1  0  0  0  0
 14 13  1  0  0  0  0
 15 16  1  0  0  0  0
 15 14  1  0  0  0  0
 17 20  1  0  0  0  0
 17  2  1  0  0  0  0
 18 17  1  0  0  0  0
 19 17  1  0  0  0  0
 20 21  1  0  0  0  0
 21 22  2  0  0  0  0
 21 26  1  0  0  0  0
 22 27  1  0  0  0  0
 23 28  1  0  0  0  0
 23 22  1  0  0  0  0
 24 23  2  0  0  0  0
 25 24  1  0  0  0  0
 25 20  2  0  0  0  0
 29 24  1  0  0  0  0
 30 25  1  0  0  0  0
M  END
>  <minimizedAffinity>
-6.00367689

$$$$

 OpenBabel03242517393D

 30 32  0  0  0  0  0  0  0  0999 V2000
   34.3210   28.8860   37.0730 C   0  0  0  0  0  3  0  0  0  0  0  0
   33.0500   28.6940   36.8240 C   0  0  0  0  0  3  0  0  0  0  0  0
   36.0930   27.7360   38.3900 C   0  0  0  0  0  0  0  0  0  0  0  0
   35.0050   28.6140   38.3250 C   0  0  0  0  0  0  0  0  0  0  0  0
   34.5890   29.2220   39.4840 C   0  0  0  0  0  0  0  0  0  0  0  0
   35.2440   28.9550   40.6610 N   0  0  0  0  0  0  0  0  0  0  0  0
   36.2900   28.1020   40.6830 C   0  0  0  0  0  0  0  0  0  0  0  0
   36.7110   27.5000   39.5700 N   0  0  0  0  0  0  0  0  0  0  0  0
   36.4490   27.2360   37.4890 H   0  0  0  0  0  0  0  0  0  0  0  0
   33.7510   29.9110   39.4930 H   0  0  0  0  0  0  0  0  0  0  0  0
   36.9470   27.8480   41.9180 N   0  0  0  0  0  0  0  0  0  0  0  0
   36.3780   27.2910   43.1300 C   0  0  0  0  0  2  0  0  0  0  0  0
   37.1300   28.0320   44.2420 C   0  0  0  0  0  2  0  0  0  0  0  0
   38.2300   28.8080   43.5540 C   0  0  0  0  0  2  0  0  0  0  0  0
   38.3430   28.0970   42.2240 C   0  0  0  0  0  3  0  0  0  0  0  0
   38.9000   27.1420   42.3180 H   0  0  0  0  0  0  0  0  0  0  0  0
   32.4010   28.9930   35.5150 C   0  0  0  0  0  0  0  0  0  0  0  0
   31.8020   28.1500   35.1640 H   0  0  0  0  0  0  0  0  0  0  0  0
   33.2560   29.2050   34.8100 H   0  0  0  0  0  0  0  0  0  0  0  0
   31.6190   30.2520   35.5810 C   0  0  0  0  0  0  0  0  0  0  0  0
   31.6210   31.1030   34.4700 C   0  0  0  0  0  0  0  0  0  0  0  0
   30.8910   32.2770   34.5310 C   0  0  0  0  0  0  0  0  0  0  0  0
   30.1600   32.6350   35.6550 C   0  0  0  0  0  0  0  0  0  0  0  0
   30.1600   31.7840   36.7600 C   0  0  0  0  0  0  0  0  0  0  0  0
   30.8870   30.6150   36.7000 C   0  0  0  0  0  0  0  0  0  0  0  0
   32.2000   30.7980   33.6100 H   0  0  0  0  0  0  0  0  0  0  0  0
   30.9660   32.8570   33.6170 H   0  0  0  0  0  0  0  0  0  0  0  0
   29.6180   33.5690   35.6210 H   0  0  0  0  0  0  0  0  0  0  0  0
   29.5760   32.1050   37.6120 H   0  0  0  0  0  0  0  0  0  0  0  0
   30.8700   29.9710   37.5710 H   0  0  0  0  0  0  0  0  0  0  0  0
  1  4  1  0  0  0  0
  2  1  2  0  0  0  0
  3  8  1  0  0  0  0
  4  3  2  0  0  0  0
  4  5  1  0  0  0  0
  5 10  1  0  0  0  0
  5  6  2  0  0  0  0
  6  7  1  0  0  0  0
  7 11  1  0  0  0  0
  8  7  2  0  0  0  0
  9  3  1  0  0  0  0
 11 15  1  0  0  0  0
 11 12  1  0  0  0  0
 12 13  1  0  0  0  0
 14 13  1  0  0  0  0
 15 16  1  0  0  0  0
 15 14  1  0  0  0  0
 17 20  1  0  0  0  0
 17  2  1  0  0  0  0
 18 17  1  0  0  0  0
 19 17  1  0  0  0  0
 20 25  1  0  0  0  0
 21 22  1  0  0  0  0
 21 20  2  0  0  0  0
 22 23  2  0  0  0  0
 23 24  1  0  0  0  0
 24 29  1  0  0  0  0
 25 24  2  0  0  0  0
 25 30  1  0  0  0  0
 26 21  1  0  0  0  0
 27 22  1  0  0  0  0
 28 23  1  0  0  0  0
M  END
>  <minimizedAffinity>
-5.99140692

$$$$

 OpenBabel03242517393D

 30 32  0  0  0  0  0  0  0  0999 V2000
   34.4120   28.8990   37.2970 C   0  0  0  0  0  3  0  0  0  0  0  0
   33.1060   28.8540   37.2160 C   0  0  0  0  0  3  0  0  0  0  0  0
   34.6850   29.2140   39.7520 C   0  0  0  0  0  0  0  0  0  0  0  0
   35.2020   28.8170   38.5130 C   0  0  0  0  0  0  0  0  0  0  0  0
   36.4910   28.3410   38.4680 C   0  0  0  0  0  0  0  0  0  0  0  0
   37.2270   28.2700   39.6250 N   0  0  0  0  0  0  0  0  0  0  0  0
   36.6920   28.6620   40.8010 C   0  0  0  0  0  0  0  0  0  0  0  0
   35.4440   29.1280   40.8690 N   0  0  0  0  0  0  0  0  0  0  0  0
   33.6670   29.5960   39.8230 H   0  0  0  0  0  0  0  0  0  0  0  0
   36.9430   28.0200   37.5360 H   0  0  0  0  0  0  0  0  0  0  0  0
   37.4800   28.5750   41.9800 N   0  0  0  0  0  0  0  0  0  0  0  0
   38.7440   29.2310   42.2560 C   0  0  0  0  0  2  0  0  0  0  0  0
   39.4990   28.1950   43.0990 C   0  0  0  0  0  2  0  0  0  0  0  0
   38.4990   27.1040   43.4100 C   0  0  0  0  0  2  0  0  0  0  0  0
   37.1780   27.8000   43.1690 C   0  0  0  0  0  3  0  0  0  0  0  0
   36.9080   28.4670   44.0130 H   0  0  0  0  0  0  0  0  0  0  0  0
   32.3470   28.9440   35.9350 C   0  0  0  0  0  0  0  0  0  0  0  0
   31.7190   28.0640   35.7800 H   0  0  0  0  0  0  0  0  0  0  0  0
   33.1380   29.0250   35.1340 H   0  0  0  0  0  0  0  0  0  0  0  0
   31.5730   30.2080   35.8580 C   0  0  0  0  0  0  0  0  0  0  0  0
   30.8370   30.6130   36.9770 C   0  0  0  0  0  0  0  0  0  0  0  0
   30.1160   31.7920   36.9070 C   0  0  0  0  0  0  0  0  0  0  0  0
   30.1000   32.5810   35.7650 C   0  0  0  0  0  0  0  0  0  0  0  0
   30.8350   32.1740   34.6530 C   0  0  0  0  0  0  0  0  0  0  0  0
   31.5540   31.0000   34.7220 C   0  0  0  0  0  0  0  0  0  0  0  0
   30.8690   29.9780   37.8510 H   0  0  0  0  0  0  0  0  0  0  0  0
   29.5850   32.0060   37.8290 H   0  0  0  0  0  0  0  0  0  0  0  0
   29.5110   33.4860   35.7930 H   0  0  0  0  0  0  0  0  0  0  0  0
   30.7920   32.8210   33.7870 H   0  0  0  0  0  0  0  0  0  0  0  0
   32.1170   30.7070   33.8450 H   0  0  0  0  0  0  0  0  0  0  0  0
  1  4  1  0  0  0  0
  2  1  2  0  0  0  0
  3  9  1  0  0  0  0
  3  8  1  0  0  0  0
  4  3  2  0  0  0  0
  5  4  1  0  0  0  0
  5  6  2  0  0  0  0
  6  7  1  0  0  0  0
  7  8  2  0  0  0  0
  7 11  1  0  0  0  0
 10  5  1  0  0  0  0
 11 12  1  0  0  0  0
 11 15  1  0  0  0  0
 12 13  1  0  0  0  0
 13 14  1  0  0  0  0
 15 14  1  0  0  0  0
 15 16  1  0  0  0  0
 17  2  1  0  0  0  0
 18 17  1  0  0  0  0
 19 17  1  0  0  0  0
 20 17  1  0  0  0  0
 20 21  1  0  0  0  0
 21 26  1  0  0  0  0
 22 21  2  0  0  0  0
 22 27  1  0  0  0  0
 23 28  1  0  0  0  0
 23 22  1  0  0  0  0
 24 25  1  0  0  0  0
 24 23  2  0  0  0  0
 25 20  2  0  0  0  0
 29 24  1  0  0  0  0
 30 25  1  0  0  0  0
M  END
>  <minimizedAffinity>
-5.77616644

$$$$

 OpenBabel03242517393D

 30 32  0  0  0  0  0  0  0  0999 V2000
   34.6420   29.0260   36.9050 C   0  0  0  0  0  3  0  0  0  0  0  0
   33.3500   28.8390   36.8030 C   0  0  0  0  0  3  0  0  0  0  0  0
   36.1230   29.9490   38.6800 C   0  0  0  0  0  0  0  0  0  0  0  0
   35.4430   28.8690   38.1070 C   0  0  0  0  0  0  0  0  0  0  0  0
   35.5470   27.6390   38.7100 C   0  0  0  0  0  0  0  0  0  0  0  0
   36.3080   27.5050   39.8450 N   0  0  0  0  0  0  0  0  0  0  0  0
   36.9490   28.5720   40.3680 C   0  0  0  0  0  0  0  0  0  0  0  0
   36.8620   29.7750   39.7990 N   0  0  0  0  0  0  0  0  0  0  0  0
   36.0620   30.9390   38.2270 H   0  0  0  0  0  0  0  0  0  0  0  0
   35.0420   26.7670   38.3090 H   0  0  0  0  0  0  0  0  0  0  0  0
   37.7280   28.3990   41.5450 N   0  0  0  0  0  0  0  0  0  0  0  0
   38.8740   27.5300   41.7340 C   0  0  0  0  0  2  0  0  0  0  0  0
   38.7280   27.0710   43.1900 C   0  0  0  0  0  2  0  0  0  0  0  0
   37.6090   27.9000   43.7770 C   0  0  0  0  0  2  0  0  0  0  0  0
   37.5350   29.0670   42.8170 C   0  0  0  0  0  3  0  0  0  0  0  0
   38.3470   29.7990   43.0030 H   0  0  0  0  0  0  0  0  0  0  0  0
   32.5790   29.0160   35.5380 C   0  0  0  0  0  0  0  0  0  0  0  0
   31.9960   28.1240   35.2980 H   0  0  0  0  0  0  0  0  0  0  0  0
   33.3590   29.2170   34.7480 H   0  0  0  0  0  0  0  0  0  0  0  0
   31.7410   30.2400   35.5890 C   0  0  0  0  0  0  0  0  0  0  0  0
   31.6930   31.0680   34.4620 C   0  0  0  0  0  0  0  0  0  0  0  0
   30.9110   32.2090   34.5090 C   0  0  0  0  0  0  0  0  0  0  0  0
   30.1770   32.5550   35.6340 C   0  0  0  0  0  0  0  0  0  0  0  0
   30.2280   31.7270   36.7550 C   0  0  0  0  0  0  0  0  0  0  0  0
   31.0050   30.5910   36.7100 C   0  0  0  0  0  0  0  0  0  0  0  0
   32.2760   30.7720   33.6010 H   0  0  0  0  0  0  0  0  0  0  0  0
   30.9500   32.7730   33.5830 H   0  0  0  0  0  0  0  0  0  0  0  0
   29.5930   33.4630   35.5880 H   0  0  0  0  0  0  0  0  0  0  0  0
   29.6380   32.0390   37.6070 H   0  0  0  0  0  0  0  0  0  0  0  0
   31.0270   29.9640   37.5920 H   0  0  0  0  0  0  0  0  0  0  0  0
  1  4  1  0  0  0  0
  2  1  2  0  0  0  0
  3  8  1  0  0  0  0
  4  3  2  0  0  0  0
  4  5  1  0  0  0  0
  5  6  2  0  0  0  0
  6  7  1  0  0  0  0
  7 11  1  0  0  0  0
  8  7  2  0  0  0  0
  9  3  1  0  0  0  0
 10  5  1  0  0  0  0
 11 12  1  0  0  0  0
 11 15  1  0  0  0  0
 12 13  1  0  0  0  0
 13 14  1  0  0  0  0
 15 16  1  0  0  0  0
 15 14  1  0  0  0  0
 17 20  1  0  0  0  0
 17  2  1  0  0  0  0
 18 17  1  0  0  0  0
 19 17  1  0  0  0  0
 20 25  1  0  0  0  0
 21 22  1  0  0  0  0
 21 20  2  0  0  0  0
 22 23  2  0  0  0  0
 23 24  1  0  0  0  0
 24 29  1  0  0  0  0
 25 24  2  0  0  0  0
 25 30  1  0  0  0  0
 26 21  1  0  0  0  0
 27 22  1  0  0  0  0
 28 23  1  0  0  0  0
M  END
>  <minimizedAffinity>
-5.64831734

$$$$

 OpenBabel03242517393D

 30 32  0  0  0  0  0  0  0  0999 V2000
   37.0340   27.4690   42.1880 C   0  0  0  0  0  3  0  0  0  0  0  0
   37.5340   26.2720   42.0060 C   0  0  0  0  0  3  0  0  0  0  0  0
   38.6210   29.2830   42.8100 C   0  0  0  0  0  0  0  0  0  0  0  0
   37.6990   28.7310   41.9140 C   0  0  0  0  0  0  0  0  0  0  0  0
   37.4300   29.4140   40.7520 C   0  0  0  0  0  0  0  0  0  0  0  0
   38.0660   30.6060   40.5060 N   0  0  0  0  0  0  0  0  0  0  0  0
   38.9500   31.1060   41.3960 C   0  0  0  0  0  0  0  0  0  0  0  0
   39.2260   30.4600   42.5290 N   0  0  0  0  0  0  0  0  0  0  0  0
   38.8580   28.7670   43.7400 H   0  0  0  0  0  0  0  0  0  0  0  0
   36.7240   29.0340   40.0220 H   0  0  0  0  0  0  0  0  0  0  0  0
   39.5910   32.3420   41.1100 N   0  0  0  0  0  0  0  0  0  0  0  0
   38.9730   33.6360   40.8930 C   0  0  0  0  0  2  0  0  0  0  0  0
   39.8760   34.2820   39.8350 C   0  0  0  0  0  2  0  0  0  0  0  0
   41.0710   33.3660   39.6940 C   0  0  0  0  0  2  0  0  0  0  0  0
   41.0180   32.5670   40.9770 C   0  0  0  0  0  3  0  0  0  0  0  0
   41.4050   33.1510   41.8370 H   0  0  0  0  0  0  0  0  0  0  0  0
   36.8010   25.0080   42.3070 C   0  0  0  0  0  0  0  0  0  0  0  0
   35.7530   25.2020   42.5460 H   0  0  0  0  0  0  0  0  0  0  0  0
   37.3430   24.5610   43.1900 H   0  0  0  0  0  0  0  0  0  0  0  0
   36.9560   24.0250   41.2060 C   0  0  0  0  0  0  0  0  0  0  0  0
   38.1680   23.3380   41.0860 C   0  0  0  0  0  0  0  0  0  0  0  0
   38.3130   22.4210   40.0600 C   0  0  0  0  0  0  0  0  0  0  0  0
   37.2960   22.1630   39.1510 C   0  0  0  0  0  0  0  0  0  0  0  0
   36.0890   22.8500   39.2750 C   0  0  0  0  0  0  0  0  0  0  0  0
   35.9440   23.7630   40.2960 C   0  0  0  0  0  0  0  0  0  0  0  0
   38.9420   23.5610   41.8080 H   0  0  0  0  0  0  0  0  0  0  0  0
   39.2910   21.9500   40.0620 H   0  0  0  0  0  0  0  0  0  0  0  0
   37.4910   21.4320   38.3790 H   0  0  0  0  0  0  0  0  0  0  0  0
   35.3270   22.6140   38.5440 H   0  0  0  0  0  0  0  0  0  0  0  0
   34.9970   24.2820   40.3720 H   0  0  0  0  0  0  0  0  0  0  0  0
  2  1  2  0  0  0  0
  2 17  1  0  0  0  0
  3  9  1  0  0  0  0
  4  1  1  0  0  0  0
  4  3  2  0  0  0  0
  5  4  1  0  0  0  0
  6  5  2  0  0  0  0
  6  7  1  0  0  0  0
  7  8  2  0  0  0  0
  8  3  1  0  0  0  0
 10  5  1  0  0  0  0
 11  7  1  0  0  0  0
 12 11  1  0  0  0  0
 13 12  1  0  0  0  0
 14 13  1  0  0  0  0
 14 15  1  0  0  0  0
 15 11  1  0  0  0  0
 15 16  1  0  0  0  0
 17 18  1  0  0  0  0
 17 19  1  0  0  0  0
 20 17  1  0  0  0  0
 21 20  1  0  0  0  0
 21 26  1  0  0  0  0
 22 27  1  0  0  0  0
 22 21  2  0  0  0  0
 23 24  2  0  0  0  0
 23 22  1  0  0  0  0
 24 25  1  0  0  0  0
 25 30  1  0  0  0  0
 25 20  2  0  0  0  0
 28 23  1  0  0  0  0
 29 24  1  0  0  0  0
M  END
>  <minimizedAffinity>
-5.26274586

$$$$

 OpenBabel03242517393D

 30 32  0  0  0  0  0  0  0  0999 V2000
   36.7050   27.4210   41.3360 C   0  0  0  0  0  3  0  0  0  0  0  0
   37.4020   26.5140   41.9750 C   0  0  0  0  0  3  0  0  0  0  0  0
   36.5340   29.4550   39.9110 C   0  0  0  0  0  0  0  0  0  0  0  0
   37.1700   28.7360   40.9290 C   0  0  0  0  0  0  0  0  0  0  0  0
   38.2580   29.3030   41.5460 C   0  0  0  0  0  0  0  0  0  0  0  0
   38.6870   30.5470   41.1510 N   0  0  0  0  0  0  0  0  0  0  0  0
   38.0460   31.2100   40.1650 C   0  0  0  0  0  0  0  0  0  0  0  0
   36.9880   30.6770   39.5520 N   0  0  0  0  0  0  0  0  0  0  0  0
   35.6680   29.0340   39.4010 H   0  0  0  0  0  0  0  0  0  0  0  0
   38.7900   28.7910   42.3410 H   0  0  0  0  0  0  0  0  0  0  0  0
   38.5160   32.4950   39.7800 N   0  0  0  0  0  0  0  0  0  0  0  0
   39.8240   32.8460   39.2620 C   0  0  0  0  0  2  0  0  0  0  0  0
   40.0720   34.2390   39.8540 C   0  0  0  0  0  2  0  0  0  0  0  0
   38.7700   34.6550   40.4990 C   0  0  0  0  0  2  0  0  0  0  0  0
   37.7710   33.7390   39.8280 C   0  0  0  0  0  3  0  0  0  0  0  0
   37.5230   34.0870   38.8040 H   0  0  0  0  0  0  0  0  0  0  0  0
   36.8690   25.1770   42.3680 C   0  0  0  0  0  0  0  0  0  0  0  0
   35.8340   25.2450   42.7080 H   0  0  0  0  0  0  0  0  0  0  0  0
   37.5480   24.8270   43.1980 H   0  0  0  0  0  0  0  0  0  0  0  0
   37.0400   24.1900   41.2730 C   0  0  0  0  0  0  0  0  0  0  0  0
   38.2750   23.5480   41.1340 C   0  0  0  0  0  0  0  0  0  0  0  0
   38.4350   22.6270   40.1140 C   0  0  0  0  0  0  0  0  0  0  0  0
   37.4110   22.3230   39.2270 C   0  0  0  0  0  0  0  0  0  0  0  0
   36.1810   22.9650   39.3690 C   0  0  0  0  0  0  0  0  0  0  0  0
   36.0210   23.8820   40.3850 C   0  0  0  0  0  0  0  0  0  0  0  0
   39.0530   23.8060   41.8390 H   0  0  0  0  0  0  0  0  0  0  0  0
   39.4290   22.1940   40.1010 H   0  0  0  0  0  0  0  0  0  0  0  0
   37.6180   21.5920   38.4580 H   0  0  0  0  0  0  0  0  0  0  0  0
   35.4150   22.6950   38.6550 H   0  0  0  0  0  0  0  0  0  0  0  0
   35.0570   24.3660   40.4740 H   0  0  0  0  0  0  0  0  0  0  0  0
  1  2  2  0  0  0  0
  2 17  1  0  0  0  0
  3  4  1  0  0  0  0
  4  1  1  0  0  0  0
  4  5  2  0  0  0  0
  5 10  1  0  0  0  0
  6  5  1  0  0  0  0
  7  6  2  0  0  0  0
  8  3  2  0  0  0  0
  8  7  1  0  0  0  0
  9  3  1  0  0  0  0
 11 15  1  0  0  0  0
 11  7  1  0  0  0  0
 12 11  1  0  0  0  0
 12 13  1  0  0  0  0
 13 14  1  0  0  0  0
 15 14  1  0  0  0  0
 16 15  1  0  0  0  0
 17 18  1  0  0  0  0
 17 19  1  0  0  0  0
 20 17  1  0  0  0  0
 21 20  1  0  0  0  0
 21 26  1  0  0  0  0
 22 21  2  0  0  0  0
 23 24  2  0  0  0  0
 23 22  1  0  0  0  0
 24 25  1  0  0  0  0
 25 30  1  0  0  0  0
 25 20  2  0  0  0  0
 27 22  1  0  0  0  0
 28 23  1  0  0  0  0
 29 24  1  0  0  0  0
M  END
>  <minimizedAffinity>
-5.25470448

$$$$

 OpenBabel03242517393D

 30 32  0  0  0  0  0  0  0  0999 V2000
   38.1920   30.6490   40.2270 C   0  0  0  0  0  3  0  0  0  0  0  0
   37.1910   30.5850   41.0700 C   0  0  0  0  0  3  0  0  0  0  0  0
   39.2410   32.9030   40.3510 C   0  0  0  0  0  0  0  0  0  0  0  0
   39.3570   31.5090   40.3380 C   0  0  0  0  0  0  0  0  0  0  0  0
   40.6130   30.9590   40.4340 C   0  0  0  0  0  0  0  0  0  0  0  0
   41.7060   31.7840   40.5380 N   0  0  0  0  0  0  0  0  0  0  0  0
   41.5520   33.1250   40.5470 C   0  0  0  0  0  0  0  0  0  0  0  0
   40.3430   33.6800   40.4550 N   0  0  0  0  0  0  0  0  0  0  0  0
   38.2600   33.3720   40.2760 H   0  0  0  0  0  0  0  0  0  0  0  0
   40.7630   29.8850   40.4290 H   0  0  0  0  0  0  0  0  0  0  0  0
   42.7050   33.9500   40.6560 N   0  0  0  0  0  0  0  0  0  0  0  0
   43.8400   34.0160   39.7570 C   0  0  0  0  0  2  0  0  0  0  0  0
   45.0190   34.2800   40.7010 C   0  0  0  0  0  2  0  0  0  0  0  0
   44.4120   34.5540   42.0580 C   0  0  0  0  0  2  0  0  0  0  0  0
   42.9850   34.9110   41.7060 C   0  0  0  0  0  3  0  0  0  0  0  0
   42.9080   35.9480   41.3190 H   0  0  0  0  0  0  0  0  0  0  0  0
   36.0170   29.6800   40.9030 C   0  0  0  0  0  0  0  0  0  0  0  0
   35.5450   29.8140   39.9270 H   0  0  0  0  0  0  0  0  0  0  0  0
   35.3120   29.9620   41.7370 H   0  0  0  0  0  0  0  0  0  0  0  0
   36.3900   28.2670   41.1590 C   0  0  0  0  0  0  0  0  0  0  0  0
   36.4670   27.3860   40.0750 C   0  0  0  0  0  0  0  0  0  0  0  0
   36.8150   26.0670   40.3130 C   0  0  0  0  0  0  0  0  0  0  0  0
   37.0900   25.5950   41.5890 C   0  0  0  0  0  0  0  0  0  0  0  0
   37.0130   26.4770   42.6670 C   0  0  0  0  0  0  0  0  0  0  0  0
   36.6660   27.7890   42.4310 C   0  0  0  0  0  0  0  0  0  0  0  0
   36.2470   27.7820   39.0930 H   0  0  0  0  0  0  0  0  0  0  0  0
   36.8430   25.4770   39.4030 H   0  0  0  0  0  0  0  0  0  0  0  0
   37.3540   24.5520   41.6890 H   0  0  0  0  0  0  0  0  0  0  0  0
   37.2360   26.0630   43.6410 H   0  0  0  0  0  0  0  0  0  0  0  0
   36.6140   28.4540   43.2840 H   0  0  0  0  0  0  0  0  0  0  0  0
  1  4  1  0  0  0  0
  1  2  2  0  0  0  0
  3  8  1  0  0  0  0
  4  3  2  0  0  0  0
  4  5  1  0  0  0  0
  5  6  2  0  0  0  0
  6  7  1  0  0  0  0
  7 11  1  0  0  0  0
  8  7  2  0  0  0  0
  9  3  1  0  0  0  0
 10  5  1  0  0  0  0
 11 15  1  0  0  0  0
 12 11  1  0  0  0  0
 12 13  1  0  0  0  0
 13 14  1  0  0  0  0
 15 14  1  0  0  0  0
 16 15  1  0  0  0  0
 17  2  1  0  0  0  0
 17 20  1  0  0  0  0
 17 19  1  0  0  0  0
 18 17  1  0  0  0  0
 20 25  1  0  0  0  0
 21 22  1  0  0  0  0
 21 20  2  0  0  0  0
 22 23  2  0  0  0  0
 23 28  1  0  0  0  0
 23 24  1  0  0  0  0
 24 29  1  0  0  0  0
 25 24  2  0  0  0  0
 25 30  1  0  0  0  0
 26 21  1  0  0  0  0
 27 22  1  0  0  0  0
M  END
>  <minimizedAffinity>
-5.09789944

$$$$

 OpenBabel03242517393D

 30 32  0  0  0  0  0  0  0  0999 V2000
   36.4400   28.5930   41.4470 C   0  0  0  0  0  3  0  0  0  0  0  0
   36.7360   27.6750   42.3330 C   0  0  0  0  0  3  0  0  0  0  0  0
   36.1850   27.3780   39.2890 C   0  0  0  0  0  0  0  0  0  0  0  0
   35.7710   28.3790   40.1750 C   0  0  0  0  0  0  0  0  0  0  0  0
   34.7050   29.1670   39.8150 C   0  0  0  0  0  0  0  0  0  0  0  0
   34.0830   28.9540   38.6100 N   0  0  0  0  0  0  0  0  0  0  0  0
   34.5110   27.9770   37.7820 C   0  0  0  0  0  0  0  0  0  0  0  0
   35.5440   27.2000   38.1110 N   0  0  0  0  0  0  0  0  0  0  0  0
   37.0270   26.7340   39.5440 H   0  0  0  0  0  0  0  0  0  0  0  0
   34.3420   29.9580   40.4630 H   0  0  0  0  0  0  0  0  0  0  0  0
   33.8450   27.7830   36.5420 N   0  0  0  0  0  0  0  0  0  0  0  0
   33.6910   28.7310   35.4560 C   0  0  0  0  0  2  0  0  0  0  0  0
   32.2990   28.4050   34.9020 C   0  0  0  0  0  2  0  0  0  0  0  0
   31.8600   27.1370   35.5990 C   0  0  0  0  0  2  0  0  0  0  0  0
   33.1710   26.5760   36.1010 C   0  0  0  0  0  3  0  0  0  0  0  0
   33.7420   26.0830   35.2870 H   0  0  0  0  0  0  0  0  0  0  0  0
   37.4260   27.9560   43.6250 C   0  0  0  0  0  0  0  0  0  0  0  0
   36.9780   27.3930   44.4470 H   0  0  0  0  0  0  0  0  0  0  0  0
   37.3090   29.0670   43.7820 H   0  0  0  0  0  0  0  0  0  0  0  0
   38.8870   27.7230   43.5130 C   0  0  0  0  0  0  0  0  0  0  0  0
   39.6800   28.7090   42.9170 C   0  0  0  0  0  0  0  0  0  0  0  0
   41.0440   28.4920   42.8130 C   0  0  0  0  0  0  0  0  0  0  0  0
   41.6440   27.3320   43.2800 C   0  0  0  0  0  0  0  0  0  0  0  0
   40.8500   26.3520   43.8750 C   0  0  0  0  0  0  0  0  0  0  0  0
   39.4930   26.5670   43.9790 C   0  0  0  0  0  0  0  0  0  0  0  0
   39.1840   29.6010   42.5620 H   0  0  0  0  0  0  0  0  0  0  0  0
   41.5570   29.3200   42.3340 H   0  0  0  0  0  0  0  0  0  0  0  0
   42.7150   27.2410   43.1600 H   0  0  0  0  0  0  0  0  0  0  0  0
   41.3640   25.4660   44.2230 H   0  0  0  0  0  0  0  0  0  0  0  0
   38.8990   25.7910   44.4450 H   0  0  0  0  0  0  0  0  0  0  0  0
  1  2  2  0  0  0  0
  2 17  1  0  0  0  0
  3  9  1  0  0  0  0
  3  4  1  0  0  0  0
  4  1  1  0  0  0  0
  5  4  2  0  0  0  0
  5 10  1  0  0  0  0
  6  5  1  0  0  0  0
  7  8  1  0  0  0  0
  7  6  2  0  0  0  0
  8  3  2  0  0  0  0
 11  7  1  0  0  0  0
 12 11  1  0  0  0  0
 13 12  1  0  0  0  0
 13 14  1  0  0  0  0
 14 15  1  0  0  0  0
 15 11  1  0  0  0  0
 16 15  1  0  0  0  0
 17 19  1  0  0  0  0
 17 18  1  0  0  0  0
 20 17  1  0  0  0  0
 20 25  1  0  0  0  0
 21 20  2  0  0  0  0
 22 21  1  0  0  0  0
 22 23  2  0  0  0  0
 23 24  1  0  0  0  0
 24 25  2  0  0  0  0
 24 29  1  0  0  0  0
 25 30  1  0  0  0  0
 26 21  1  0  0  0  0
 27 22  1  0  0  0  0
 28 23  1  0  0  0  0
M  END
>  <minimizedAffinity>
-5.06343985

$$$$

 OpenBabel03242517393D

 30 32  0  0  0  0  0  0  0  0999 V2000
   33.0970   29.0790   37.4960 C   0  0  0  0  0  3  0  0  0  0  0  0
   34.3310   28.6480   37.4040 C   0  0  0  0  0  3  0  0  0  0  0  0
   30.8570   29.6540   36.5750 C   0  0  0  0  0  0  0  0  0  0  0  0
   32.2290   29.4450   36.3910 C   0  0  0  0  0  0  0  0  0  0  0  0
   32.7470   29.5960   35.1270 C   0  0  0  0  0  0  0  0  0  0  0  0
   31.9140   29.9420   34.0920 N   0  0  0  0  0  0  0  0  0  0  0  0
   30.5960   30.1350   34.3100 C   0  0  0  0  0  0  0  0  0  0  0  0
   30.0710   29.9940   35.5280 N   0  0  0  0  0  0  0  0  0  0  0  0
   30.4140   29.5430   37.5640 H   0  0  0  0  0  0  0  0  0  0  0  0
   33.8020   29.4460   34.9270 H   0  0  0  0  0  0  0  0  0  0  0  0
   29.7620   30.4940   33.2160 N   0  0  0  0  0  0  0  0  0  0  0  0
   29.5220   29.7450   31.9980 C   0  0  0  0  0  2  0  0  0  0  0  0
   29.3710   30.8430   30.9370 C   0  0  0  0  0  2  0  0  0  0  0  0
   29.3280   32.1500   31.6950 C   0  0  0  0  0  2  0  0  0  0  0  0
   28.9660   31.7000   33.0930 C   0  0  0  0  0  3  0  0  0  0  0  0
   27.8850   31.4670   33.1790 H   0  0  0  0  0  0  0  0  0  0  0  0
   35.1770   28.2860   38.5780 C   0  0  0  0  0  0  0  0  0  0  0  0
   35.9130   27.5220   38.3190 H   0  0  0  0  0  0  0  0  0  0  0  0
   34.4510   27.9050   39.3530 H   0  0  0  0  0  0  0  0  0  0  0  0
   35.8030   29.4900   39.1790 C   0  0  0  0  0  0  0  0  0  0  0  0
   36.5110   30.3640   38.3470 C   0  0  0  0  0  0  0  0  0  0  0  0
   37.0950   31.4870   38.9060 C   0  0  0  0  0  0  0  0  0  0  0  0
   36.9990   31.7710   40.2610 C   0  0  0  0  0  0  0  0  0  0  0  0
   36.2920   30.8980   41.0870 C   0  0  0  0  0  0  0  0  0  0  0  0
   35.7110   29.7800   40.5310 C   0  0  0  0  0  0  0  0  0  0  0  0
   36.5690   30.1160   37.2960 H   0  0  0  0  0  0  0  0  0  0  0  0
   37.6170   32.0900   38.1710 H   0  0  0  0  0  0  0  0  0  0  0  0
   37.4840   32.6690   40.6180 H   0  0  0  0  0  0  0  0  0  0  0  0
   36.2450   31.1620   42.1350 H   0  0  0  0  0  0  0  0  0  0  0  0
   35.1660   29.1180   41.1930 H   0  0  0  0  0  0  0  0  0  0  0  0
  2  1  2  0  0  0  0
  2 17  1  0  0  0  0
  3  9  1  0  0  0  0
  4  3  1  0  0  0  0
  4  1  1  0  0  0  0
  5  4  2  0  0  0  0
  6  7  2  0  0  0  0
  6  5  1  0  0  0  0
  7  8  1  0  0  0  0
  8  3  2  0  0  0  0
 10  5  1  0  0  0  0
 11  7  1  0  0  0  0
 12 11  1  0  0  0  0
 13 14  1  0  0  0  0
 13 12  1  0  0  0  0
 14 15  1  0  0  0  0
 15 16  1  0  0  0  0
 15 11  1  0  0  0  0
 17 20  1  0  0  0  0
 17 19  1  0  0  0  0
 18 17  1  0  0  0  0
 20 25  1  0  0  0  0
 21 22  1  0  0  0  0
 21 20  2  0  0  0  0
 22 23  2  0  0  0  0
 23 28  1  0  0  0  0
 23 24  1  0  0  0  0
 24 29  1  0  0  0  0
 25 24  2  0  0  0  0
 25 30  1  0  0  0  0
 26 21  1  0  0  0  0
 27 22  1  0  0  0  0
M  END
>  <minimizedAffinity>
-4.98733234

$$$$
