
 OpenBabel03242515113D

 33 35  0  0  1  0  0  0  0  0999 V2000
   37.8420   25.9060   41.6560 C   0  0  0  0  0  0  0  0  0  0  0  0
   38.9430   25.2450   42.1460 C   0  0  0  0  0  0  0  0  0  0  0  0
   39.7760   25.7260   43.1350 C   0  0  0  0  0  0  0  0  0  0  0  0
   39.5000   26.9540   43.6790 C   0  0  0  0  0  0  0  0  0  0  0  0
   38.4110   27.6510   43.2210 C   0  0  0  0  0  0  0  0  0  0  0  0
   37.5920   27.1330   42.2220 C   0  0  0  0  0  0  0  0  0  0  0  0
   39.1800   24.2710   41.7270 H   0  0  0  0  0  0  0  0  0  0  0  0
   40.6330   25.1660   43.4860 H   0  0  0  0  0  0  0  0  0  0  0  0
   40.1510   27.3360   44.4550 H   0  0  0  0  0  0  0  0  0  0  0  0
   38.2390   28.6140   43.6860 H   0  0  0  0  0  0  0  0  0  0  0  0
   36.0230   25.6300   38.4990 C   0  0  0  0  0  0  0  0  0  0  0  0
   35.4240   24.3820   38.5750 C   0  0  0  0  0  0  0  0  0  0  0  0
   35.6480   23.6250   39.7220 C   0  0  0  0  0  0  0  0  0  0  0  0
   36.4350   24.1110   40.7370 N   0  0  0  0  0  0  0  0  0  0  0  0
   37.0060   25.3500   40.6180 C   0  0  0  0  0  0  0  0  0  0  0  0
   36.7790   26.0690   39.4990 N   0  0  0  0  0  0  0  0  0  0  0  0
   35.8160   26.1750   37.5860 H   0  0  0  0  0  0  0  0  0  0  0  0
   34.7950   23.9290   37.8270 H   0  0  0  0  0  0  0  0  0  0  0  0
   35.2460   22.6400   39.9160 H   0  0  0  0  0  0  0  0  0  0  0  0
   36.5180   27.9710   41.8650 N   0  0  0  0  0  0  0  0  0  0  0  0
   35.5940   27.6090   42.2510 H   0  0  0  0  0  0  0  0  0  0  0  0
   36.4140   29.4090   40.9620 S   0  0  0  0  0  0  0  0  0  0  0  0
   36.8530   29.1140   39.5210 O   0  0  0  0  0  0  0  0  0  0  0  0
   37.0260   29.9040   38.9310 H   0  0  0  0  0  0  0  0  0  0  0  0
   35.0580   30.0190   40.9210 O   0  0  0  0  0  0  0  0  0  0  0  0
   34.7120   30.4840   40.1210 H   0  0  0  0  0  0  0  0  0  0  0  0
   37.5960   30.4620   41.5510 O   0  0  0  0  0  0  0  0  0  0  0  0
   36.1870   31.9770   39.6880 H   0  0  0  0  0  0  0  0  0  0  0  0
   36.8420   32.3810   40.4130 N   0  0  0  0  0  0  0  0  0  0  0  0
   37.5680   33.4510   39.7250 C   0  0  0  0  0  2  0  0  0  0  0  0
   38.7020   33.7090   40.6940 C   0  0  0  0  0  2  0  0  0  0  0  0
   39.0940   32.2880   41.0690 C   0  0  0  0  0  2  0  0  0  0  0  0
   37.9450   31.4340   40.6400 C   0  0  1  0  0  3  0  0  0  0  0  0
  1  2  2  0  0  0  0
  1  6  1  0  0  0  0
  2  3  1  0  0  0  0
  3  8  1  0  0  0  0
  3  4  2  0  0  0  0
  4  9  1  0  0  0  0
  5  4  1  0  0  0  0
  5 10  1  0  0  0  0
  6  5  2  0  0  0  0
  7  2  1  0  0  0  0
 11 12  2  0  0  0  0
 11 16  1  0  0  0  0
 12 13  1  0  0  0  0
 13 19  1  0  0  0  0
 13 14  2  0  0  0  0
 15 14  1  0  0  0  0
 15  1  1  0  0  0  0
 16 15  2  0  0  0  0
 17 11  1  0  0  0  0
 18 12  1  0  0  0  0
 20  6  1  0  0  0  0
 20 21  1  0  0  0  0
 22 27  1  0  0  0  0
 22 20  1  0  0  0  0
 23 22  1  0  0  0  0
 24 23  1  0  0  0  0
 25 22  1  0  0  0  0
 26 25  1  0  0  0  0
 28 29  1  0  0  0  0
 29 33  1  0  0  0  0
 30 29  1  0  0  0  0
 30 31  1  0  0  0  0
 31 32  1  0  0  0  0
 33 32  1  0  0  0  0
 33 27  1  1  0  0  0
M  END
>  <minimizedAffinity>
-5.86208677

$$$$

 OpenBabel03242515113D

 33 35  0  0  1  0  0  0  0  0999 V2000
   36.6880   30.5360   39.3420 C   0  0  0  0  0  0  0  0  0  0  0  0
   36.4530   30.3640   37.9990 C   0  0  0  0  0  0  0  0  0  0  0  0
   35.6900   29.3510   37.4560 C   0  0  0  0  0  0  0  0  0  0  0  0
   35.1180   28.4390   38.3060 C   0  0  0  0  0  0  0  0  0  0  0  0
   35.3260   28.5700   39.6550 C   0  0  0  0  0  0  0  0  0  0  0  0
   36.1020   29.6070   40.1670 C   0  0  0  0  0  0  0  0  0  0  0  0
   36.8970   31.0750   37.3090 H   0  0  0  0  0  0  0  0  0  0  0  0
   35.5350   29.2580   36.3890 H   0  0  0  0  0  0  0  0  0  0  0  0
   34.5190   27.6420   37.8850 H   0  0  0  0  0  0  0  0  0  0  0  0
   34.8520   27.8240   40.2800 H   0  0  0  0  0  0  0  0  0  0  0  0
   37.9040   33.9360   39.9040 C   0  0  0  0  0  0  0  0  0  0  0  0
   38.9760   33.7620   40.7650 C   0  0  0  0  0  0  0  0  0  0  0  0
   39.2860   32.4620   41.1580 C   0  0  0  0  0  0  0  0  0  0  0  0
   38.5480   31.3990   40.7010 N   0  0  0  0  0  0  0  0  0  0  0  0
   37.4970   31.6190   39.8510 C   0  0  0  0  0  0  0  0  0  0  0  0
   37.2110   32.8850   39.4810 N   0  0  0  0  0  0  0  0  0  0  0  0
   37.7070   34.9660   39.6320 H   0  0  0  0  0  0  0  0  0  0  0  0
   39.6050   34.5380   41.1690 H   0  0  0  0  0  0  0  0  0  0  0  0
   40.0930   32.1790   41.8220 H   0  0  0  0  0  0  0  0  0  0  0  0
   36.2180   29.6010   41.5700 N   0  0  0  0  0  0  0  0  0  0  0  0
   35.5660   30.3120   42.0200 H   0  0  0  0  0  0  0  0  0  0  0  0
   37.1720   28.7030   42.6560 S   0  0  0  0  0  0  0  0  0  0  0  0
   38.1220   29.6650   43.3820 O   0  0  0  0  0  0  0  0  0  0  0  0
   38.8690   29.2520   43.9050 H   0  0  0  0  0  0  0  0  0  0  0  0
   36.4010   27.9470   43.6800 O   0  0  0  0  0  0  0  0  0  0  0  0
   36.7290   27.8230   44.6020 H   0  0  0  0  0  0  0  0  0  0  0  0
   38.1940   27.7210   41.7380 O   0  0  0  0  0  0  0  0  0  0  0  0
   36.2670   25.8430   42.4540 H   0  0  0  0  0  0  0  0  0  0  0  0
   37.0550   25.6610   41.7730 N   0  0  0  0  0  0  0  0  0  0  0  0
   37.5130   24.3010   42.0680 C   0  0  0  0  0  2  0  0  0  0  0  0
   38.8350   24.2680   41.3300 C   0  0  0  0  0  2  0  0  0  0  0  0
   39.4000   25.6350   41.6830 C   0  0  0  0  0  2  0  0  0  0  0  0
   38.2390   26.4230   42.1970 C   0  0  1  0  0  3  0  0  0  0  0  0
  1 15  1  0  0  0  0
  1  6  1  0  0  0  0
  2  1  2  0  0  0  0
  3  2  1  0  0  0  0
  3  4  2  0  0  0  0
  4  5  1  0  0  0  0
  5  6  2  0  0  0  0
  5 10  1  0  0  0  0
  6 20  1  0  0  0  0
  7  2  1  0  0  0  0
  8  3  1  0  0  0  0
  9  4  1  0  0  0  0
 11 12  1  0  0  0  0
 12 13  2  0  0  0  0
 12 18  1  0  0  0  0
 13 19  1  0  0  0  0
 14 13  1  0  0  0  0
 15 14  2  0  0  0  0
 16 15  1  0  0  0  0
 16 11  2  0  0  0  0
 17 11  1  0  0  0  0
 20 21  1  0  0  0  0
 20 22  1  0  0  0  0
 22 23  1  0  0  0  0
 22 25  1  0  0  0  0
 23 24  1  0  0  0  0
 25 26  1  0  0  0  0
 27 22  1  0  0  0  0
 29 30  1  0  0  0  0
 29 33  1  0  0  0  0
 29 28  1  0  0  0  0
 31 32  1  0  0  0  0
 31 30  1  0  0  0  0
 32 33  1  0  0  0  0
 33 27  1  6  0  0  0
M  END
>  <minimizedAffinity>
-5.77262306

$$$$

 OpenBabel03242515113D

 33 35  0  0  1  0  0  0  0  0999 V2000
   36.4830   28.1490   39.3410 C   0  0  0  0  0  0  0  0  0  0  0  0
   35.8760   27.1020   38.6900 C   0  0  0  0  0  0  0  0  0  0  0  0
   35.2770   27.1860   37.4500 C   0  0  0  0  0  0  0  0  0  0  0  0
   35.2780   28.3960   36.8060 C   0  0  0  0  0  0  0  0  0  0  0  0
   35.8720   29.4710   37.4180 C   0  0  0  0  0  0  0  0  0  0  0  0
   36.4680   29.3480   38.6710 C   0  0  0  0  0  0  0  0  0  0  0  0
   35.8640   26.1350   39.1830 H   0  0  0  0  0  0  0  0  0  0  0  0
   34.8110   26.3300   36.9800 H   0  0  0  0  0  0  0  0  0  0  0  0
   34.8090   28.4670   35.8340 H   0  0  0  0  0  0  0  0  0  0  0  0
   35.8450   30.4020   36.8650 H   0  0  0  0  0  0  0  0  0  0  0  0
   39.0790   27.7520   41.8830 C   0  0  0  0  0  0  0  0  0  0  0  0
   38.3680   27.7110   43.0720 C   0  0  0  0  0  0  0  0  0  0  0  0
   36.9810   27.8210   43.0020 C   0  0  0  0  0  0  0  0  0  0  0  0
   36.3520   27.9640   41.7900 N   0  0  0  0  0  0  0  0  0  0  0  0
   37.0960   28.0000   40.6410 C   0  0  0  0  0  0  0  0  0  0  0  0
   38.4380   27.8920   40.7280 N   0  0  0  0  0  0  0  0  0  0  0  0
   40.1520   27.6620   41.9960 H   0  0  0  0  0  0  0  0  0  0  0  0
   38.7810   27.6010   44.0600 H   0  0  0  0  0  0  0  0  0  0  0  0
   36.3040   27.8040   43.8450 H   0  0  0  0  0  0  0  0  0  0  0  0
   37.0330   30.5420   39.1590 N   0  0  0  0  0  0  0  0  0  0  0  0
   37.7120   30.9700   38.4600 H   0  0  0  0  0  0  0  0  0  0  0  0
   36.8450   31.4090   40.6110 S   0  0  0  0  0  0  0  0  0  0  0  0
   36.7720   32.9060   40.2790 O   0  0  0  0  0  0  0  0  0  0  0  0
   36.8560   33.5430   41.0480 H   0  0  0  0  0  0  0  0  0  0  0  0
   35.6350   31.0470   41.3980 O   0  0  0  0  0  0  0  0  0  0  0  0
   35.1230   31.7130   41.9160 H   0  0  0  0  0  0  0  0  0  0  0  0
   38.2790   31.2450   41.4880 O   0  0  0  0  0  0  0  0  0  0  0  0
   39.0100   33.7650   40.5590 H   0  0  0  0  0  0  0  0  0  0  0  0
   39.6230   33.1500   41.1620 N   0  0  0  0  0  0  0  0  0  0  0  0
   40.9760   33.3040   40.6220 C   0  0  0  0  0  2  0  0  0  0  0  0
   41.6910   32.1440   41.2810 C   0  0  0  0  0  2  0  0  0  0  0  0
   40.6540   31.0410   41.1360 C   0  0  0  0  0  2  0  0  0  0  0  0
   39.3730   31.7420   40.8170 C   0  0  1  0  0  3  0  0  0  0  0  0
  1 15  1  0  0  0  0
  2  7  1  0  0  0  0
  2  1  1  0  0  0  0
  3  2  2  0  0  0  0
  4  5  2  0  0  0  0
  4  3  1  0  0  0  0
  5  6  1  0  0  0  0
  6 20  1  0  0  0  0
  6  1  2  0  0  0  0
  8  3  1  0  0  0  0
  9  4  1  0  0  0  0
 10  5  1  0  0  0  0
 11 17  1  0  0  0  0
 11 12  1  0  0  0  0
 12 18  1  0  0  0  0
 13 12  2  0  0  0  0
 13 19  1  0  0  0  0
 14 13  1  0  0  0  0
 15 16  1  0  0  0  0
 15 14  2  0  0  0  0
 16 11  2  0  0  0  0
 20 22  1  0  0  0  0
 21 20  1  0  0  0  0
 22 25  1  0  0  0  0
 22 27  1  0  0  0  0
 23 22  1  0  0  0  0
 23 24  1  0  0  0  0
 25 26  1  0  0  0  0
 28 29  1  0  0  0  0
 30 29  1  0  0  0  0
 30 31  1  0  0  0  0
 32 31  1  0  0  0  0
 33 32  1  0  0  0  0
 33 29  1  0  0  0  0
 33 27  1  1  0  0  0
M  END
>  <minimizedAffinity>
-5.75132275

$$$$

 OpenBabel03242515113D

 33 35  0  0  1  0  0  0  0  0999 V2000
   36.9590   26.6270   39.6960 C   0  0  0  0  0  0  0  0  0  0  0  0
   36.4620   25.4010   39.3250 C   0  0  0  0  0  0  0  0  0  0  0  0
   36.4000   24.2950   40.1470 C   0  0  0  0  0  0  0  0  0  0  0  0
   36.8660   24.4100   41.4320 C   0  0  0  0  0  0  0  0  0  0  0  0
   37.3720   25.6160   41.8460 C   0  0  0  0  0  0  0  0  0  0  0  0
   37.4180   26.7120   40.9880 C   0  0  0  0  0  0  0  0  0  0  0  0
   36.0890   25.2880   38.3110 H   0  0  0  0  0  0  0  0  0  0  0  0
   35.9990   23.3490   39.8070 H   0  0  0  0  0  0  0  0  0  0  0  0
   36.8190   23.5450   42.0800 H   0  0  0  0  0  0  0  0  0  0  0  0
   37.7240   25.6520   42.8690 H   0  0  0  0  0  0  0  0  0  0  0  0
   38.2660   29.0510   37.2920 C   0  0  0  0  0  0  0  0  0  0  0  0
   37.1800   29.8730   37.0350 C   0  0  0  0  0  0  0  0  0  0  0  0
   35.9850   29.5930   37.6930 C   0  0  0  0  0  0  0  0  0  0  0  0
   35.8980   28.5370   38.5650 N   0  0  0  0  0  0  0  0  0  0  0  0
   36.9970   27.7510   38.7890 C   0  0  0  0  0  0  0  0  0  0  0  0
   38.1470   28.0370   38.1420 N   0  0  0  0  0  0  0  0  0  0  0  0
   39.1690   29.3130   36.7540 H   0  0  0  0  0  0  0  0  0  0  0  0
   37.1630   30.7190   36.3680 H   0  0  0  0  0  0  0  0  0  0  0  0
   35.0620   30.1490   37.5880 H   0  0  0  0  0  0  0  0  0  0  0  0
   37.9640   27.8740   41.5660 N   0  0  0  0  0  0  0  0  0  0  0  0
   39.0290   27.8390   41.5850 H   0  0  0  0  0  0  0  0  0  0  0  0
   37.2730   29.2840   42.2200 S   0  0  0  0  0  0  0  0  0  0  0  0
   35.9530   29.5650   41.4880 O   0  0  0  0  0  0  0  0  0  0  0  0
   35.5380   30.4650   41.6360 H   0  0  0  0  0  0  0  0  0  0  0  0
   36.9920   29.2180   43.6800 O   0  0  0  0  0  0  0  0  0  0  0  0
   36.2060   29.6550   44.0860 H   0  0  0  0  0  0  0  0  0  0  0  0
   38.2700   30.5800   41.7950 O   0  0  0  0  0  0  0  0  0  0  0  0
   36.0690   31.9150   40.7350 H   0  0  0  0  0  0  0  0  0  0  0  0
   37.0660   32.2600   40.6690 N   0  0  0  0  0  0  0  0  0  0  0  0
   37.1950   32.8080   39.3160 C   0  0  0  0  0  2  0  0  0  0  0  0
   38.6990   32.9300   39.1900 C   0  0  0  0  0  2  0  0  0  0  0  0
   39.1510   31.6140   39.8050 C   0  0  0  0  0  2  0  0  0  0  0  0
   37.9660   31.1020   40.5580 C   0  0  1  0  0  3  0  0  0  0  0  0
  1  6  1  0  0  0  0
  2  1  2  0  0  0  0
  2  3  1  0  0  0  0
  3  4  2  0  0  0  0
  4  5  1  0  0  0  0
  4  9  1  0  0  0  0
  5 10  1  0  0  0  0
  6 20  1  0  0  0  0
  6  5  2  0  0  0  0
  7  2  1  0  0  0  0
  8  3  1  0  0  0  0
 11 16  1  0  0  0  0
 12 11  2  0  0  0  0
 12 13  1  0  0  0  0
 13 14  2  0  0  0  0
 14 15  1  0  0  0  0
 15  1  1  0  0  0  0
 16 15  2  0  0  0  0
 17 11  1  0  0  0  0
 18 12  1  0  0  0  0
 19 13  1  0  0  0  0
 20 21  1  0  0  0  0
 20 22  1  0  0  0  0
 22 25  1  0  0  0  0
 23 24  1  0  0  0  0
 23 22  1  0  0  0  0
 25 26  1  0  0  0  0
 27 22  1  0  0  0  0
 29 28  1  0  0  0  0
 30 29  1  0  0  0  0
 31 30  1  0  0  0  0
 31 32  1  0  0  0  0
 32 33  1  0  0  0  0
 33 29  1  0  0  0  0
 33 27  1  1  0  0  0
M  END
>  <minimizedAffinity>
-5.54829979

$$$$

 OpenBabel03242515113D

 33 35  0  0  1  0  0  0  0  0999 V2000
   37.3000   28.7910   40.9170 C   0  0  0  0  0  0  0  0  0  0  0  0
   36.6560   27.7180   41.4860 C   0  0  0  0  0  0  0  0  0  0  0  0
   36.6640   27.4180   42.8330 C   0  0  0  0  0  0  0  0  0  0  0  0
   37.3610   28.2410   43.6800 C   0  0  0  0  0  0  0  0  0  0  0  0
   38.0200   29.3240   43.1570 C   0  0  0  0  0  0  0  0  0  0  0  0
   37.9900   29.5950   41.7910 C   0  0  0  0  0  0  0  0  0  0  0  0
   36.0990   27.0540   40.8320 H   0  0  0  0  0  0  0  0  0  0  0  0
   36.1400   26.5600   43.2320 H   0  0  0  0  0  0  0  0  0  0  0  0
   37.3700   28.0100   44.7370 H   0  0  0  0  0  0  0  0  0  0  0  0
   38.5540   29.9400   43.8700 H   0  0  0  0  0  0  0  0  0  0  0  0
   38.3650   28.9520   37.4250 C   0  0  0  0  0  0  0  0  0  0  0  0
   37.2760   29.5140   36.7770 C   0  0  0  0  0  0  0  0  0  0  0  0
   36.1620   29.8410   37.5470 C   0  0  0  0  0  0  0  0  0  0  0  0
   36.1560   29.6100   38.9000 N   0  0  0  0  0  0  0  0  0  0  0  0
   37.2550   29.0540   39.4970 C   0  0  0  0  0  0  0  0  0  0  0  0
   38.3250   28.7430   38.7360 N   0  0  0  0  0  0  0  0  0  0  0  0
   39.2030   28.7170   36.7790 H   0  0  0  0  0  0  0  0  0  0  0  0
   37.1990   29.7270   35.7240 H   0  0  0  0  0  0  0  0  0  0  0  0
   35.2470   30.2830   37.1750 H   0  0  0  0  0  0  0  0  0  0  0  0
   38.7150   30.7420   41.4150 N   0  0  0  0  0  0  0  0  0  0  0  0
   39.7490   30.6490   41.6560 H   0  0  0  0  0  0  0  0  0  0  0  0
   38.2730   32.2070   40.6710 S   0  0  0  0  0  0  0  0  0  0  0  0
   36.7410   32.2990   40.6470 O   0  0  0  0  0  0  0  0  0  0  0  0
   36.3410   33.0120   40.0680 H   0  0  0  0  0  0  0  0  0  0  0  0
   38.8030   33.4270   41.3380 O   0  0  0  0  0  0  0  0  0  0  0  0
   38.2890   34.2680   41.3840 H   0  0  0  0  0  0  0  0  0  0  0  0
   38.7110   32.1000   39.0430 O   0  0  0  0  0  0  0  0  0  0  0  0
   40.8680   30.9130   40.3430 H   0  0  0  0  0  0  0  0  0  0  0  0
   40.6970   30.8610   39.3010 N   0  0  0  0  0  0  0  0  0  0  0  0
   42.0180   31.0030   38.6850 C   0  0  0  0  0  2  0  0  0  0  0  0
   41.6430   31.2840   37.2450 C   0  0  0  0  0  2  0  0  0  0  0  0
   40.4930   32.2620   37.4290 C   0  0  0  0  0  2  0  0  0  0  0  0
   40.0750   32.1170   38.8570 C   0  0  1  0  0  3  0  0  0  0  0  0
  1  2  2  0  0  0  0
  1  6  1  0  0  0  0
  2  3  1  0  0  0  0
  3  8  1  0  0  0  0
  3  4  2  0  0  0  0
  4  9  1  0  0  0  0
  5  4  1  0  0  0  0
  5 10  1  0  0  0  0
  6  5  2  0  0  0  0
  7  2  1  0  0  0  0
 11 16  1  0  0  0  0
 12 11  2  0  0  0  0
 12 13  1  0  0  0  0
 13 14  2  0  0  0  0
 14 15  1  0  0  0  0
 15  1  1  0  0  0  0
 16 15  2  0  0  0  0
 17 11  1  0  0  0  0
 18 12  1  0  0  0  0
 19 13  1  0  0  0  0
 20 21  1  0  0  0  0
 20  6  1  0  0  0  0
 22 25  1  0  0  0  0
 22 20  1  0  0  0  0
 23 22  1  0  0  0  0
 24 23  1  0  0  0  0
 25 26  1  0  0  0  0
 27 22  1  0  0  0  0
 29 28  1  0  0  0  0
 30 29  1  0  0  0  0
 31 32  1  0  0  0  0
 31 30  1  0  0  0  0
 32 33  1  0  0  0  0
 33 27  1  6  0  0  0
 33 29  1  0  0  0  0
M  END
>  <minimizedAffinity>
-5.45374489

$$$$

 OpenBabel03242515113D

 33 35  0  0  1  0  0  0  0  0999 V2000
   37.1520   31.1620   39.4650 C   0  0  0  0  0  0  0  0  0  0  0  0
   37.2120   32.5000   39.1550 C   0  0  0  0  0  0  0  0  0  0  0  0
   37.9860   33.4290   39.8180 C   0  0  0  0  0  0  0  0  0  0  0  0
   38.7590   33.0030   40.8680 C   0  0  0  0  0  0  0  0  0  0  0  0
   38.7320   31.6760   41.2140 C   0  0  0  0  0  0  0  0  0  0  0  0
   37.9380   30.7670   40.5200 C   0  0  0  0  0  0  0  0  0  0  0  0
   36.6060   32.8580   38.3280 H   0  0  0  0  0  0  0  0  0  0  0  0
   37.9980   34.4730   39.5350 H   0  0  0  0  0  0  0  0  0  0  0  0
   39.3690   33.7280   41.3910 H   0  0  0  0  0  0  0  0  0  0  0  0
   39.3620   31.3940   42.0490 H   0  0  0  0  0  0  0  0  0  0  0  0
   35.8510   29.1890   36.6780 C   0  0  0  0  0  0  0  0  0  0  0  0
   34.7950   28.4880   37.2380 C   0  0  0  0  0  0  0  0  0  0  0  0
   34.5260   28.6940   38.5890 C   0  0  0  0  0  0  0  0  0  0  0  0
   35.2870   29.5640   39.3290 N   0  0  0  0  0  0  0  0  0  0  0  0
   36.3210   30.2360   38.7320 C   0  0  0  0  0  0  0  0  0  0  0  0
   36.5680   30.0240   37.4230 N   0  0  0  0  0  0  0  0  0  0  0  0
   36.0160   28.9910   35.6250 H   0  0  0  0  0  0  0  0  0  0  0  0
   34.1510   27.7900   36.7310 H   0  0  0  0  0  0  0  0  0  0  0  0
   33.7360   28.2170   39.1550 H   0  0  0  0  0  0  0  0  0  0  0  0
   38.0230   29.4450   40.9990 N   0  0  0  0  0  0  0  0  0  0  0  0
   38.7550   28.8820   40.4690 H   0  0  0  0  0  0  0  0  0  0  0  0
   37.2060   28.5980   42.2270 S   0  0  0  0  0  0  0  0  0  0  0  0
   37.3650   29.3710   43.5430 O   0  0  0  0  0  0  0  0  0  0  0  0
   37.1020   28.8920   44.3830 H   0  0  0  0  0  0  0  0  0  0  0  0
   35.7520   28.3940   41.9800 O   0  0  0  0  0  0  0  0  0  0  0  0
   35.0860   28.4090   42.7070 H   0  0  0  0  0  0  0  0  0  0  0  0
   38.0410   27.1530   42.4880 O   0  0  0  0  0  0  0  0  0  0  0  0
   36.1970   26.7150   40.4490 H   0  0  0  0  0  0  0  0  0  0  0  0
   37.0740   26.1430   40.5930 N   0  0  0  0  0  0  0  0  0  0  0  0
   36.6820   24.7580   40.3240 C   0  0  0  0  0  2  0  0  0  0  0  0
   37.8600   24.0000   40.8990 C   0  0  0  0  0  2  0  0  0  0  0  0
   38.0920   24.7610   42.1950 C   0  0  0  0  0  2  0  0  0  0  0  0
   37.3520   26.0500   42.0350 C   0  0  1  0  0  3  0  0  0  0  0  0
  1  6  1  0  0  0  0
  2  1  2  0  0  0  0
  2  3  1  0  0  0  0
  3  4  2  0  0  0  0
  4  5  1  0  0  0  0
  4  9  1  0  0  0  0
  5 10  1  0  0  0  0
  6 20  1  0  0  0  0
  6  5  2  0  0  0  0
  7  2  1  0  0  0  0
  8  3  1  0  0  0  0
 11 12  2  0  0  0  0
 11 16  1  0  0  0  0
 12 13  1  0  0  0  0
 13 19  1  0  0  0  0
 13 14  2  0  0  0  0
 15 14  1  0  0  0  0
 15  1  1  0  0  0  0
 16 15  2  0  0  0  0
 17 11  1  0  0  0  0
 18 12  1  0  0  0  0
 20 22  1  0  0  0  0
 21 20  1  0  0  0  0
 22 27  1  0  0  0  0
 22 23  1  0  0  0  0
 23 24  1  0  0  0  0
 25 22  1  0  0  0  0
 25 26  1  0  0  0  0
 28 29  1  0  0  0  0
 29 33  1  0  0  0  0
 30 29  1  0  0  0  0
 30 31  1  0  0  0  0
 31 32  1  0  0  0  0
 33 32  1  0  0  0  0
 33 27  1  6  0  0  0
M  END
>  <minimizedAffinity>
-5.45249796

$$$$

 OpenBabel03242515113D

 33 35  0  0  1  0  0  0  0  0999 V2000
   38.8930   29.1030   41.7230 C   0  0  0  0  0  0  0  0  0  0  0  0
   39.7630   28.6730   42.6960 C   0  0  0  0  0  0  0  0  0  0  0  0
   39.5810   27.5480   43.4750 C   0  0  0  0  0  0  0  0  0  0  0  0
   38.4540   26.7930   43.2760 C   0  0  0  0  0  0  0  0  0  0  0  0
   37.5560   27.1840   42.3150 C   0  0  0  0  0  0  0  0  0  0  0  0
   37.7740   28.3260   41.5480 C   0  0  0  0  0  0  0  0  0  0  0  0
   40.6620   29.2570   42.8700 H   0  0  0  0  0  0  0  0  0  0  0  0
   40.2970   27.2520   44.2300 H   0  0  0  0  0  0  0  0  0  0  0  0
   38.3060   25.9110   43.8840 H   0  0  0  0  0  0  0  0  0  0  0  0
   36.6850   26.5520   42.1990 H   0  0  0  0  0  0  0  0  0  0  0  0
   39.9390   31.2080   38.9240 C   0  0  0  0  0  0  0  0  0  0  0  0
   39.6500   32.4920   39.3550 C   0  0  0  0  0  0  0  0  0  0  0  0
   39.0890   32.6390   40.6220 C   0  0  0  0  0  0  0  0  0  0  0  0
   38.8370   31.5410   41.4060 N   0  0  0  0  0  0  0  0  0  0  0  0
   39.1390   30.2910   40.9380 C   0  0  0  0  0  0  0  0  0  0  0  0
   39.6810   30.1670   39.7090 N   0  0  0  0  0  0  0  0  0  0  0  0
   40.3730   31.1510   37.9330 H   0  0  0  0  0  0  0  0  0  0  0  0
   39.8160   33.4030   38.8060 H   0  0  0  0  0  0  0  0  0  0  0  0
   38.8150   33.5780   41.0850 H   0  0  0  0  0  0  0  0  0  0  0  0
   36.7610   28.5890   40.6060 N   0  0  0  0  0  0  0  0  0  0  0  0
   36.6370   27.7800   39.9260 H   0  0  0  0  0  0  0  0  0  0  0  0
   35.7240   29.9140   40.3530 S   0  0  0  0  0  0  0  0  0  0  0  0
   34.2960   29.3860   40.1550 O   0  0  0  0  0  0  0  0  0  0  0  0
   33.6190   30.0360   39.8060 H   0  0  0  0  0  0  0  0  0  0  0  0
   35.7040   30.9070   41.4610 O   0  0  0  0  0  0  0  0  0  0  0  0
   34.8840   31.3910   41.7210 H   0  0  0  0  0  0  0  0  0  0  0  0
   36.1270   30.5950   38.8610 O   0  0  0  0  0  0  0  0  0  0  0  0
   35.5450   27.9300   38.3040 H   0  0  0  0  0  0  0  0  0  0  0  0
   35.5880   28.6970   37.5770 N   0  0  0  0  0  0  0  0  0  0  0  0
   36.2430   28.0910   36.4150 C   0  0  0  0  0  2  0  0  0  0  0  0
   36.5870   29.3170   35.5970 C   0  0  0  0  0  2  0  0  0  0  0  0
   37.0950   30.2570   36.6790 C   0  0  0  0  0  2  0  0  0  0  0  0
   36.6200   29.6680   37.9690 C   0  0  1  0  0  3  0  0  0  0  0  0
  1  2  1  0  0  0  0
  2  7  1  0  0  0  0
  2  3  2  0  0  0  0
  3  8  1  0  0  0  0
  4  3  1  0  0  0  0
  4  9  1  0  0  0  0
  5  4  2  0  0  0  0
  6  1  2  0  0  0  0
  6  5  1  0  0  0  0
 10  5  1  0  0  0  0
 11 12  2  0  0  0  0
 11 16  1  0  0  0  0
 12 13  1  0  0  0  0
 13 19  1  0  0  0  0
 13 14  2  0  0  0  0
 15 14  1  0  0  0  0
 15  1  1  0  0  0  0
 16 15  2  0  0  0  0
 17 11  1  0  0  0  0
 18 12  1  0  0  0  0
 20  6  1  0  0  0  0
 21 20  1  0  0  0  0
 22 20  1  0  0  0  0
 22 25  1  0  0  0  0
 23 22  1  0  0  0  0
 24 23  1  0  0  0  0
 25 26  1  0  0  0  0
 27 22  1  0  0  0  0
 29 33  1  0  0  0  0
 29 28  1  0  0  0  0
 30 29  1  0  0  0  0
 31 30  1  0  0  0  0
 31 32  1  0  0  0  0
 32 33  1  0  0  0  0
 33 27  1  1  0  0  0
M  END
>  <minimizedAffinity>
-5.41109037

$$$$

 OpenBabel03242515113D

 33 35  0  0  1  0  0  0  0  0999 V2000
   37.5360   30.7550   37.9450 C   0  0  0  0  0  0  0  0  0  0  0  0
   37.3150   30.8990   36.5960 C   0  0  0  0  0  0  0  0  0  0  0  0
   36.6690   29.9770   35.7990 C   0  0  0  0  0  0  0  0  0  0  0  0
   36.2080   28.8240   36.3810 C   0  0  0  0  0  0  0  0  0  0  0  0
   36.4050   28.6350   37.7250 C   0  0  0  0  0  0  0  0  0  0  0  0
   37.0620   29.5900   38.4980 C   0  0  0  0  0  0  0  0  0  0  0  0
   37.6740   31.8060   36.1160 H   0  0  0  0  0  0  0  0  0  0  0  0
   36.5210   30.1380   34.7400 H   0  0  0  0  0  0  0  0  0  0  0  0
   35.7010   28.0970   35.7600 H   0  0  0  0  0  0  0  0  0  0  0  0
   36.0200   27.7090   38.1320 H   0  0  0  0  0  0  0  0  0  0  0  0
   40.1790   33.0160   39.0660 C   0  0  0  0  0  0  0  0  0  0  0  0
   39.6160   33.6630   40.1540 C   0  0  0  0  0  0  0  0  0  0  0  0
   38.3140   33.3200   40.5090 C   0  0  0  0  0  0  0  0  0  0  0  0
   37.6230   32.3720   39.7960 N   0  0  0  0  0  0  0  0  0  0  0  0
   38.2190   31.7580   38.7280 C   0  0  0  0  0  0  0  0  0  0  0  0
   39.4810   32.1030   38.3980 N   0  0  0  0  0  0  0  0  0  0  0  0
   41.1930   33.3210   38.8340 H   0  0  0  0  0  0  0  0  0  0  0  0
   40.0870   34.4140   40.7640 H   0  0  0  0  0  0  0  0  0  0  0  0
   37.7530   33.7410   41.3320 H   0  0  0  0  0  0  0  0  0  0  0  0
   37.1830   29.2460   39.8580 N   0  0  0  0  0  0  0  0  0  0  0  0
   38.1650   28.9060   40.0900 H   0  0  0  0  0  0  0  0  0  0  0  0
   36.0950   29.2700   41.1650 S   0  0  0  0  0  0  0  0  0  0  0  0
   36.3410   30.5460   41.9820 O   0  0  0  0  0  0  0  0  0  0  0  0
   35.9070   30.5950   42.8840 H   0  0  0  0  0  0  0  0  0  0  0  0
   34.6580   29.2340   40.7780 O   0  0  0  0  0  0  0  0  0  0  0  0
   33.9640   29.7220   41.2810 H   0  0  0  0  0  0  0  0  0  0  0  0
   36.5300   28.0160   42.2090 O   0  0  0  0  0  0  0  0  0  0  0  0
   38.8370   29.5640   42.0290 H   0  0  0  0  0  0  0  0  0  0  0  0
   38.6730   28.8190   42.7620 N   0  0  0  0  0  0  0  0  0  0  0  0
   39.9600   28.1350   42.9120 C   0  0  0  0  0  2  0  0  0  0  0  0
   39.5460   26.8930   43.6730 C   0  0  0  0  0  2  0  0  0  0  0  0
   38.2680   26.5140   42.9410 C   0  0  0  0  0  2  0  0  0  0  0  0
   37.8780   27.7340   42.1690 C   0  0  1  0  0  3  0  0  0  0  0  0
  1  6  1  0  0  0  0
  1 15  1  0  0  0  0
  2  1  2  0  0  0  0
  3  4  2  0  0  0  0
  3  2  1  0  0  0  0
  4  5  1  0  0  0  0
  5 10  1  0  0  0  0
  5  6  2  0  0  0  0
  6 20  1  0  0  0  0
  7  2  1  0  0  0  0
  8  3  1  0  0  0  0
  9  4  1  0  0  0  0
 11 12  1  0  0  0  0
 12 13  2  0  0  0  0
 12 18  1  0  0  0  0
 13 19  1  0  0  0  0
 14 13  1  0  0  0  0
 15 14  2  0  0  0  0
 16 15  1  0  0  0  0
 16 11  2  0  0  0  0
 17 11  1  0  0  0  0
 20 21  1  0  0  0  0
 20 22  1  0  0  0  0
 22 23  1  0  0  0  0
 22 27  1  0  0  0  0
 23 24  1  0  0  0  0
 25 22  1  0  0  0  0
 25 26  1  0  0  0  0
 28 29  1  0  0  0  0
 29 30  1  0  0  0  0
 30 31  1  0  0  0  0
 32 31  1  0  0  0  0
 33 27  1  1  0  0  0
 33 29  1  0  0  0  0
 33 32  1  0  0  0  0
M  END
>  <minimizedAffinity>
-5.20069981

$$$$

 OpenBabel03242515113D

 33 35  0  0  1  0  0  0  0  0999 V2000
   37.6600   26.3020   40.2340 C   0  0  0  0  0  0  0  0  0  0  0  0
   37.9980   25.2260   39.4490 C   0  0  0  0  0  0  0  0  0  0  0  0
   37.3370   24.8520   38.2970 C   0  0  0  0  0  0  0  0  0  0  0  0
   36.2600   25.5980   37.8930 C   0  0  0  0  0  0  0  0  0  0  0  0
   35.8850   26.6820   38.6460 C   0  0  0  0  0  0  0  0  0  0  0  0
   36.5780   27.0290   39.8030 C   0  0  0  0  0  0  0  0  0  0  0  0
   38.8480   24.6220   39.7520 H   0  0  0  0  0  0  0  0  0  0  0  0
   37.6420   23.9940   37.7130 H   0  0  0  0  0  0  0  0  0  0  0  0
   35.7370   25.3090   36.9910 H   0  0  0  0  0  0  0  0  0  0  0  0
   35.0290   27.2360   38.2810 H   0  0  0  0  0  0  0  0  0  0  0  0
   40.4860   26.8360   42.4890 C   0  0  0  0  0  0  0  0  0  0  0  0
   39.8900   27.2740   43.6620 C   0  0  0  0  0  0  0  0  0  0  0  0
   38.5020   27.3880   43.6790 C   0  0  0  0  0  0  0  0  0  0  0  0
   37.7620   27.0740   42.5680 N   0  0  0  0  0  0  0  0  0  0  0  0
   38.3930   26.6450   41.4310 C   0  0  0  0  0  0  0  0  0  0  0  0
   39.7380   26.5410   41.4310 N   0  0  0  0  0  0  0  0  0  0  0  0
   41.5660   26.7660   42.5310 H   0  0  0  0  0  0  0  0  0  0  0  0
   40.3960   27.5390   44.5750 H   0  0  0  0  0  0  0  0  0  0  0  0
   37.9070   27.7150   44.5220 H   0  0  0  0  0  0  0  0  0  0  0  0
   36.0680   28.1660   40.4600 N   0  0  0  0  0  0  0  0  0  0  0  0
   35.1730   27.9430   40.9930 H   0  0  0  0  0  0  0  0  0  0  0  0
   36.5910   29.7810   40.5660 S   0  0  0  0  0  0  0  0  0  0  0  0
   35.5920   30.5620   41.4290 O   0  0  0  0  0  0  0  0  0  0  0  0
   35.6680   31.5610   41.4160 H   0  0  0  0  0  0  0  0  0  0  0  0
   37.9490   29.9570   41.1500 O   0  0  0  0  0  0  0  0  0  0  0  0
   38.1810   30.7270   41.7220 H   0  0  0  0  0  0  0  0  0  0  0  0
   36.4390   30.4640   39.0280 O   0  0  0  0  0  0  0  0  0  0  0  0
   35.9460   32.8350   40.4020 H   0  0  0  0  0  0  0  0  0  0  0  0
   36.9060   32.4110   40.2670 N   0  0  0  0  0  0  0  0  0  0  0  0
   37.7940   33.5440   39.9990 C   0  0  0  0  0  2  0  0  0  0  0  0
   39.0230   32.8360   39.4670 C   0  0  0  0  0  2  0  0  0  0  0  0
   38.3890   31.7980   38.5540 C   0  0  0  0  0  2  0  0  0  0  0  0
   36.9510   31.7400   38.9590 C   0  0  1  0  0  3  0  0  0  0  0  0
  1 15  1  0  0  0  0
  2  7  1  0  0  0  0
  2  1  2  0  0  0  0
  3  2  1  0  0  0  0
  4  3  2  0  0  0  0
  4  5  1  0  0  0  0
  5  6  2  0  0  0  0
  6  1  1  0  0  0  0
  6 20  1  0  0  0  0
  8  3  1  0  0  0  0
  9  4  1  0  0  0  0
 10  5  1  0  0  0  0
 11 17  1  0  0  0  0
 11 12  1  0  0  0  0
 12 13  2  0  0  0  0
 12 18  1  0  0  0  0
 13 19  1  0  0  0  0
 14 13  1  0  0  0  0
 15 14  2  0  0  0  0
 16 15  1  0  0  0  0
 16 11  2  0  0  0  0
 20 22  1  0  0  0  0
 20 21  1  0  0  0  0
 22 25  1  0  0  0  0
 22 23  1  0  0  0  0
 24 23  1  0  0  0  0
 25 26  1  0  0  0  0
 27 22  1  0  0  0  0
 29 28  1  0  0  0  0
 30 29  1  0  0  0  0
 31 30  1  0  0  0  0
 32 33  1  0  0  0  0
 32 31  1  0  0  0  0
 33 27  1  1  0  0  0
 33 29  1  0  0  0  0
M  END
>  <minimizedAffinity>
-5.16457176

$$$$
