
 OpenBabel03242523503D

 40 43  0  0  1  0  0  0  0  0999 V2000
   42.8260   34.5340   38.6980 C   0  0  1  0  0  0  0  0  0  0  0  0
   42.9430   35.1550   40.0940 C   0  0  1  0  0  0  0  0  0  0  0  0
   41.6480   35.3410   40.6180 O   0  0  0  0  0  0  0  0  0  0  0  0
   40.7140   35.6850   39.6400 C   0  0  0  0  0  0  0  0  0  0  0  0
   40.4250   34.4850   38.7400 C   0  0  2  0  0  0  0  0  0  0  0  0
   41.6530   33.5730   38.7930 C   0  0  1  0  0  0  0  0  0  0  0  0
   43.7710   33.9890   38.4510 H   0  0  0  0  0  0  0  0  0  0  0  0
   43.4880   36.1090   40.0710 H   0  0  0  0  0  0  0  0  0  0  0  0
   40.9720   36.5900   39.0850 H   0  0  0  0  0  0  0  0  0  0  0  0
   39.7810   35.8870   40.1980 H   0  0  0  0  0  0  0  0  0  0  0  0
   39.5040   33.9680   39.0140 H   0  0  0  0  0  0  0  0  0  0  0  0
   41.6570   33.1250   39.7990 H   0  0  0  0  0  0  0  0  0  0  0  0
   42.5620   35.5180   37.7470 O   0  0  0  0  0  0  0  0  0  0  0  0
   43.1520   36.2930   37.8670 H   0  0  0  0  0  0  0  0  0  0  0  0
   40.4170   34.9630   37.4100 O   0  0  0  0  0  0  0  0  0  0  0  0
   39.5730   34.6850   36.9610 H   0  0  0  0  0  0  0  0  0  0  0  0
   43.5080   34.1620   40.9050 O   0  0  0  0  0  0  0  0  0  0  0  0
   44.6000   34.3060   41.6610 C   0  0  0  0  0  0  0  0  0  0  0  0
   45.8600   34.4300   41.0790 C   0  0  0  0  0  0  0  0  0  0  0  0
   46.9620   34.5810   41.9060 C   0  0  0  0  0  0  0  0  0  0  0  0
   46.7840   34.6030   43.2740 N   0  0  0  0  0  0  0  0  0  0  0  0
   45.5550   34.4800   43.8030 C   0  0  0  0  0  0  0  0  0  0  0  0
   44.4660   34.3320   43.0080 N   0  0  0  0  0  0  0  0  0  0  0  0
   46.0030   34.4140   40.0140 H   0  0  0  0  0  0  0  0  0  0  0  0
   45.4120   34.4960   44.8760 H   0  0  0  0  0  0  0  0  0  0  0  0
   48.3480   34.7000   41.3320 C   0  0  0  0  0  0  0  0  0  0  0  0
   49.0700   36.0150   41.5120 C   0  0  0  0  0  0  0  0  0  0  0  0
   49.4870   34.7150   42.2110 C   0  0  0  0  0  0  0  0  0  0  0  0
   48.4120   34.2370   40.3260 H   0  0  0  0  0  0  0  0  0  0  0  0
   48.5170   36.7790   42.0610 H   0  0  0  0  0  0  0  0  0  0  0  0
   49.7020   36.3350   40.6630 H   0  0  0  0  0  0  0  0  0  0  0  0
   49.2520   34.7600   43.3150 H   0  0  0  0  0  0  0  0  0  0  0  0
   50.4800   34.3050   41.9830 H   0  0  0  0  0  0  0  0  0  0  0  0
   41.6180   32.6410   37.7740 O   0  0  0  0  0  0  0  0  0  0  0  0
   42.5200   30.4430   36.7220 H   0  0  0  0  0  0  0  0  0  0  0  0
   41.5330   30.3810   37.1010 N   0  0  0  0  0  0  0  0  0  0  0  0
   41.4660   29.1300   37.8420 C   0  0  0  0  0  2  0  0  0  0  0  0
   42.5590   29.3650   38.8740 C   0  0  0  0  0  2  0  0  0  0  0  0
   42.5900   30.8700   39.0860 C   0  0  0  0  0  2  0  0  0  0  0  0
   41.4510   31.3450   38.2090 C   0  0  1  0  0  3  0  0  0  0  0  0
  1  7  1  6  0  0  0
  1  6  1  0  0  0  0
  1  2  1  0  0  0  0
  2  8  1  6  0  0  0
  2  3  1  0  0  0  0
  2 17  1  0  0  0  0
  4 10  1  0  0  0  0
  4  3  1  0  0  0  0
  5  6  1  0  0  0  0
  5 11  1  1  0  0  0
  5  4  1  0  0  0  0
  6 12  1  1  0  0  0
  9  4  1  0  0  0  0
 13 14  1  0  0  0  0
 13  1  1  0  0  0  0
 15  5  1  0  0  0  0
 16 15  1  0  0  0  0
 17 18  1  0  0  0  0
 18 23  1  0  0  0  0
 19 18  2  0  0  0  0
 19 20  1  0  0  0  0
 20 21  2  0  0  0  0
 21 22  1  0  0  0  0
 22 25  1  0  0  0  0
 23 22  2  0  0  0  0
 24 19  1  0  0  0  0
 26 27  1  0  0  0  0
 26 20  1  0  0  0  0
 26 28  1  0  0  0  0
 27 30  1  0  0  0  0
 27 28  1  0  0  0  0
 28 32  1  0  0  0  0
 29 26  1  0  0  0  0
 31 27  1  0  0  0  0
 33 28  1  0  0  0  0
 34  6  1  0  0  0  0
 35 36  1  0  0  0  0
 36 37  1  0  0  0  0
 36 40  1  0  0  0  0
 37 38  1  0  0  0  0
 38 39  1  0  0  0  0
 40 34  1  6  0  0  0
 40 39  1  0  0  0  0
M  END
>  <minimizedAffinity>
-5.66388512

>  <minimizedRMSD>
0.286401898

$$$$
