
 OpenBabel03252507493D

 42 44  0  0  1  0  0  0  0  0999 V2000
   48.0400   33.8730   40.5400 C   0  0  0  0  0  0  0  0  0  0  0  0
   47.1680   33.2150   40.4830 H   0  0  0  0  0  0  0  0  0  0  0  0
   48.1790   34.2700   39.5020 H   0  0  0  0  0  0  0  0  0  0  0  0
   49.2510   33.1530   40.9720 C   0  0  0  0  0  0  0  0  0  0  0  0
   49.6910   32.1090   40.1730 C   0  0  0  0  0  0  0  0  0  0  0  0
   50.8140   31.3770   40.4960 C   0  0  0  0  0  0  0  0  0  0  0  0
   51.4740   31.7410   41.6560 N   0  0  0  0  0  0  0  0  0  0  0  0
   51.0090   32.7740   42.4170 C   0  0  0  0  0  0  0  0  0  0  0  0
   49.9220   33.4520   42.0660 N   0  0  0  0  0  0  0  0  0  0  0  0
   51.1690   30.5630   39.8870 H   0  0  0  0  0  0  0  0  0  0  0  0
   51.6010   32.9780   43.3070 H   0  0  0  0  0  0  0  0  0  0  0  0
   48.7880   31.6930   38.6870 S   0  0  0  0  0  0  0  0  0  0  0  0
   49.5290   32.4950   37.2420 C   0  0  0  0  0  0  0  0  0  0  0  0
   50.4860   32.9370   37.5190 H   0  0  0  0  0  0  0  0  0  0  0  0
   49.6200   31.7130   36.4540 H   0  0  0  0  0  0  0  0  0  0  0  0
   48.6140   33.6020   36.7840 C   0  0  0  0  0  0  0  0  0  0  0  0
   49.1160   34.5900   36.7670 H   0  0  0  0  0  0  0  0  0  0  0  0
   47.7390   33.6680   37.4700 H   0  0  0  0  0  0  0  0  0  0  0  0
   48.1390   33.2600   35.4760 N   0  0  0  0  0  0  0  0  0  0  0  0
   47.8090   34.1130   34.9780 H   0  0  0  0  0  0  0  0  0  0  0  0
   47.3730   32.5600   35.4910 H   0  0  0  0  0  0  0  0  0  0  0  0
   47.6970   35.0350   41.4060 C   0  0  0  0  0  0  0  0  0  0  0  0
   48.4460   35.0390   42.2460 H   0  0  0  0  0  0  0  0  0  0  0  0
   47.8400   36.0330   40.9120 H   0  0  0  0  0  0  0  0  0  0  0  0
   46.3670   34.9260   42.0620 C   0  0  0  0  0  0  0  0  0  0  0  0
   45.9950   35.8980   43.0460 C   0  0  0  0  0  0  0  0  0  0  0  0
   44.3240   35.3530   43.5420 S   0  0  0  0  0  0  0  0  0  0  0  0
   44.4080   33.8820   42.3200 C   0  0  0  0  0  0  0  0  0  0  0  0
   45.4420   34.0350   41.8660 N   0  0  0  0  0  0  0  0  0  0  0  0
   46.5660   36.7360   43.3950 H   0  0  0  0  0  0  0  0  0  0  0  0
   43.3770   32.9630   42.1630 O   0  0  0  0  0  0  0  0  0  0  0  0
   41.4550   32.0660   40.5630 O   0  0  0  0  0  0  0  0  0  0  0  0
   42.1780   33.3420   41.0230 P   0  0  1  0  0  0  0  0  0  0  0  0
   41.0350   34.3370   41.7910 O   0  0  0  0  0  0  0  0  0  0  0  0
   40.8690   35.1650   41.3020 H   0  0  0  0  0  0  0  0  0  0  0  0
   42.8280   34.1820   39.7180 O   0  0  0  0  0  0  0  0  0  0  0  0
   43.0090   34.2650   36.8750 H   0  0  0  0  0  0  0  0  0  0  0  0
   43.6750   33.9950   37.6050 N   0  0  0  0  0  0  0  0  0  0  0  0
   44.8500   33.2910   37.1460 C   0  0  0  0  0  2  0  0  0  0  0  0
   45.3210   32.4350   38.2960 C   0  0  0  0  0  2  0  0  0  0  0  0
   44.0870   32.2120   39.1420 C   0  0  0  0  0  2  0  0  0  0  0  0
   43.1150   33.2590   38.7150 C   0  0  1  0  0  3  0  0  0  0  0  0
  1  4  1  0  0  0  0
  1 22  1  0  0  0  0
  2  1  1  0  0  0  0
  3  1  1  0  0  0  0
  4  9  1  0  0  0  0
  5  6  1  0  0  0  0
  5  4  2  0  0  0  0
  6  7  2  0  0  0  0
  7  8  1  0  0  0  0
  8 11  1  0  0  0  0
  9  8  2  0  0  0  0
 10  6  1  0  0  0  0
 12  5  1  0  0  0  0
 13 14  1  0  0  0  0
 13 12  1  0  0  0  0
 15 13  1  0  0  0  0
 16 13  1  0  0  0  0
 16 18  1  0  0  0  0
 17 16  1  0  0  0  0
 19 21  1  0  0  0  0
 19 16  1  0  0  0  0
 20 19  1  0  0  0  0
 22 25  1  0  0  0  0
 22 23  1  0  0  0  0
 24 22  1  0  0  0  0
 25 26  2  0  0  0  0
 26 30  1  0  0  0  0
 26 27  1  0  0  0  0
 28 27  1  0  0  0  0
 29 25  1  0  0  0  0
 29 28  2  0  0  0  0
 31 28  1  0  0  0  0
 33 32  2  6  0  0  0
 33 34  1  0  0  0  0
 33 31  1  0  0  0  0
 35 34  1  0  0  0  0
 36 33  1  0  0  0  0
 37 38  1  0  0  0  0
 38 42  1  0  0  0  0
 39 38  1  0  0  0  0
 39 40  1  0  0  0  0
 40 41  1  0  0  0  0
 42 41  1  0  0  0  0
 42 36  1  1  0  0  0
M  END
>  <minimizedAffinity>
-4.33320713

>  <minimizedRMSD>
1.78793716

$$$$
