
 OpenBabel03242518153D

 29 31  0  0  1  0  0  0  0  0999 V2000
   47.3040   33.7660   43.4480 C   0  0  0  0  0  0  0  0  0  0  0  0
   47.5490   33.9790   44.5210 H   0  0  0  0  0  0  0  0  0  0  0  0
   46.3840   33.1080   43.5450 H   0  0  0  0  0  0  0  0  0  0  0  0
   48.3360   32.9840   42.8800 C   0  0  0  0  0  0  0  0  0  0  0  0
   48.6130   31.6100   42.6850 C   0  0  0  0  0  0  0  0  0  0  0  0
   49.7580   31.2080   42.0910 C   0  0  0  0  0  0  0  0  0  0  0  0
   50.6810   32.2340   41.6680 C   0  0  0  0  0  0  0  0  0  0  0  0
   49.8780   33.7750   42.1350 S   0  0  0  0  0  0  0  0  0  0  0  0
   47.8130   31.0020   43.0630 H   0  0  0  0  0  0  0  0  0  0  0  0
   49.9470   30.1540   41.9540 H   0  0  0  0  0  0  0  0  0  0  0  0
   51.8060   32.0050   41.0930 O   0  0  0  0  0  0  0  0  0  0  0  0
   51.9700   33.0560   38.9170 H   0  0  0  0  0  0  0  0  0  0  0  0
   51.6260   32.0910   38.7690 N   0  0  0  0  0  0  0  0  0  0  0  0
   52.3830   31.5040   37.6860 C   0  0  0  0  0  0  0  0  0  0  0  0
   53.7650   31.3650   38.2770 C   0  0  0  0  0  0  0  0  0  0  0  0
   53.4760   31.0460   39.7170 C   0  0  0  0  0  0  0  0  0  0  0  0
   51.9890   31.2810   39.8990 C   0  0  1  0  0  0  0  0  0  0  0  0
   46.9400   35.0260   42.7750 C   0  0  0  0  0  0  0  0  0  0  0  0
   47.7460   35.3850   42.0700 H   0  0  0  0  0  0  0  0  0  0  0  0
   46.8230   35.8690   43.4900 H   0  0  0  0  0  0  0  0  0  0  0  0
   45.6850   34.8750   42.0370 C   0  0  0  0  0  0  0  0  0  0  0  0
   44.5500   35.5510   42.4380 C   0  0  0  0  0  0  0  0  0  0  0  0
   43.3810   35.3640   41.6920 C   0  0  0  0  0  0  0  0  0  0  0  0
   43.4250   34.5390   40.6270 N   0  0  0  0  0  0  0  0  0  0  0  0
   44.5520   33.9010   40.2750 C   0  0  0  0  0  0  0  0  0  0  0  0
   45.6480   34.0720   40.9680 N   0  0  0  0  0  0  0  0  0  0  0  0
   44.5300   36.2050   43.2870 H   0  0  0  0  0  0  0  0  0  0  0  0
   42.4630   35.8900   41.9870 H   0  0  0  0  0  0  0  0  0  0  0  0
   44.4760   33.2620   39.4040 H   0  0  0  0  0  0  0  0  0  0  0  0
  1  3  1  0  0  0  0
  1  2  1  0  0  0  0
  4  1  1  0  0  0  0
  5  4  2  0  0  0  0
  5  9  1  0  0  0  0
  6  5  1  0  0  0  0
  7  6  2  0  0  0  0
  7  8  1  0  0  0  0
  8  4  1  0  0  0  0
 10  6  1  0  0  0  0
 11  7  1  0  0  0  0
 13 12  1  0  0  0  0
 13 17  1  0  0  0  0
 14 15  1  0  0  0  0
 14 13  1  0  0  0  0
 15 16  1  0  0  0  0
 16 17  1  0  0  0  0
 17 11  1  1  0  0  0
 18  1  1  0  0  0  0
 18 20  1  0  0  0  0
 19 18  1  0  0  0  0
 21 22  1  0  0  0  0
 21 18  1  0  0  0  0
 22 27  1  0  0  0  0
 23 28  1  0  0  0  0
 23 22  2  0  0  0  0
 24 23  1  0  0  0  0
 25 24  2  0  0  0  0
 25 26  1  0  0  0  0
 26 21  2  0  0  0  0
 29 25  1  0  0  0  0
M  END
>  <minimizedAffinity>
-4.40916824

>  <minimizedRMSD>
2.30036473

$$$$
