
 OpenBabel03242523503D

 40 43  0  0  1  0  0  0  0  0999 V2000
   42.8230   34.5290   38.7200 C   0  0  1  0  0  0  0  0  0  0  0  0
   42.9470   35.1680   40.1070 C   0  0  1  0  0  0  0  0  0  0  0  0
   41.6550   35.3860   40.6250 O   0  0  0  0  0  0  0  0  0  0  0  0
   40.7300   35.7320   39.6400 C   0  0  0  0  0  0  0  0  0  0  0  0
   40.4210   34.5240   38.7560 C   0  0  2  0  0  0  0  0  0  0  0  0
   41.6320   33.5910   38.8260 C   0  0  1  0  0  0  0  0  0  0  0  0
   43.7580   33.9630   38.4840 H   0  0  0  0  0  0  0  0  0  0  0  0
   43.5090   36.1120   40.0720 H   0  0  0  0  0  0  0  0  0  0  0  0
   41.0060   36.6240   39.0720 H   0  0  0  0  0  0  0  0  0  0  0  0
   39.7990   35.9590   40.1910 H   0  0  0  0  0  0  0  0  0  0  0  0
   39.4900   34.0280   39.0350 H   0  0  0  0  0  0  0  0  0  0  0  0
   41.6260   33.1570   39.8390 H   0  0  0  0  0  0  0  0  0  0  0  0
   42.5790   35.5040   37.7540 O   0  0  0  0  0  0  0  0  0  0  0  0
   43.1830   36.2690   37.8650 H   0  0  0  0  0  0  0  0  0  0  0  0
   40.4250   34.9820   37.4190 O   0  0  0  0  0  0  0  0  0  0  0  0
   39.5780   34.7130   36.9720 H   0  0  0  0  0  0  0  0  0  0  0  0
   43.4920   34.1770   40.9350 O   0  0  0  0  0  0  0  0  0  0  0  0
   44.5920   34.3090   41.6820 C   0  0  0  0  0  0  0  0  0  0  0  0
   45.8460   34.4370   41.0900 C   0  0  0  0  0  0  0  0  0  0  0  0
   46.9560   34.5750   41.9100 C   0  0  0  0  0  0  0  0  0  0  0  0
   46.7900   34.5790   43.2790 N   0  0  0  0  0  0  0  0  0  0  0  0
   45.5660   34.4530   43.8170 C   0  0  0  0  0  0  0  0  0  0  0  0
   44.4700   34.3180   43.0310 N   0  0  0  0  0  0  0  0  0  0  0  0
   45.9800   34.4340   40.0240 H   0  0  0  0  0  0  0  0  0  0  0  0
   45.4320   34.4560   44.8920 H   0  0  0  0  0  0  0  0  0  0  0  0
   48.3370   34.6970   41.3240 C   0  0  0  0  0  0  0  0  0  0  0  0
   49.0630   36.0090   41.5120 C   0  0  0  0  0  0  0  0  0  0  0  0
   49.4840   34.7010   42.1930 C   0  0  0  0  0  0  0  0  0  0  0  0
   48.3910   34.2440   40.3130 H   0  0  0  0  0  0  0  0  0  0  0  0
   48.5170   36.7680   42.0740 H   0  0  0  0  0  0  0  0  0  0  0  0
   49.6890   36.3370   40.6610 H   0  0  0  0  0  0  0  0  0  0  0  0
   49.2590   34.7340   43.3000 H   0  0  0  0  0  0  0  0  0  0  0  0
   50.4740   34.2910   41.9520 H   0  0  0  0  0  0  0  0  0  0  0  0
   41.5830   32.6450   37.8210 O   0  0  0  0  0  0  0  0  0  0  0  0
   40.4860   30.5580   36.7270 H   0  0  0  0  0  0  0  0  0  0  0  0
   40.3800   30.6150   37.7790 N   0  0  0  0  0  0  0  0  0  0  0  0
   40.6730   29.2820   38.2840 C   0  0  0  0  0  2  0  0  0  0  0  0
   42.0930   29.1000   37.7710 C   0  0  0  0  0  2  0  0  0  0  0  0
   42.6780   30.5020   37.7120 C   0  0  0  0  0  2  0  0  0  0  0  0
   41.5550   31.3460   38.2780 C   0  0  1  0  0  3  0  0  0  0  0  0
  1  7  1  6  0  0  0
  1  6  1  0  0  0  0
  1  2  1  0  0  0  0
  2  8  1  6  0  0  0
  2  3  1  0  0  0  0
  2 17  1  0  0  0  0
  4 10  1  0  0  0  0
  4  3  1  0  0  0  0
  5  6  1  0  0  0  0
  5 11  1  1  0  0  0
  5  4  1  0  0  0  0
  6 12  1  1  0  0  0
  9  4  1  0  0  0  0
 13 14  1  0  0  0  0
 13  1  1  0  0  0  0
 15  5  1  0  0  0  0
 16 15  1  0  0  0  0
 17 18  1  0  0  0  0
 18 23  1  0  0  0  0
 19 18  2  0  0  0  0
 19 20  1  0  0  0  0
 20 21  2  0  0  0  0
 21 22  1  0  0  0  0
 22 25  1  0  0  0  0
 23 22  2  0  0  0  0
 24 19  1  0  0  0  0
 26 27  1  0  0  0  0
 26 20  1  0  0  0  0
 26 28  1  0  0  0  0
 27 30  1  0  0  0  0
 27 28  1  0  0  0  0
 28 32  1  0  0  0  0
 29 26  1  0  0  0  0
 31 27  1  0  0  0  0
 33 28  1  0  0  0  0
 34  6  1  0  0  0  0
 35 36  1  0  0  0  0
 36 40  1  0  0  0  0
 36 37  1  0  0  0  0
 38 37  1  0  0  0  0
 39 38  1  0  0  0  0
 39 40  1  0  0  0  0
 40 34  1  6  0  0  0
M  END
>  <minimizedAffinity>
-5.70169115

>  <minimizedRMSD>
0.206486419

$$$$
