
 OpenBabel03242523503D

 40 43  0  0  1  0  0  0  0  0999 V2000
   42.8240   34.5100   38.7280 C   0  0  1  0  0  0  0  0  0  0  0  0
   42.9600   35.1630   40.1080 C   0  0  1  0  0  0  0  0  0  0  0  0
   41.6720   35.4000   40.6270 O   0  0  0  0  0  0  0  0  0  0  0  0
   40.7480   35.7460   39.6410 C   0  0  0  0  0  0  0  0  0  0  0  0
   40.4220   34.5320   38.7720 C   0  0  2  0  0  0  0  0  0  0  0  0
   41.6230   33.5860   38.8490 C   0  0  1  0  0  0  0  0  0  0  0  0
   43.7520   33.9300   38.4960 H   0  0  0  0  0  0  0  0  0  0  0  0
   43.5330   36.0990   40.0600 H   0  0  0  0  0  0  0  0  0  0  0  0
   41.0320   36.6290   39.0630 H   0  0  0  0  0  0  0  0  0  0  0  0
   39.8210   35.9900   40.1930 H   0  0  0  0  0  0  0  0  0  0  0  0
   39.4870   34.0500   39.0600 H   0  0  0  0  0  0  0  0  0  0  0  0
   41.6150   33.1640   39.8660 H   0  0  0  0  0  0  0  0  0  0  0  0
   42.5880   35.4760   37.7520 O   0  0  0  0  0  0  0  0  0  0  0  0
   43.2010   36.2360   37.8520 H   0  0  0  0  0  0  0  0  0  0  0  0
   40.4270   34.9750   37.4310 O   0  0  0  0  0  0  0  0  0  0  0  0
   39.5750   34.7100   36.9890 H   0  0  0  0  0  0  0  0  0  0  0  0
   43.4960   34.1750   40.9450 O   0  0  0  0  0  0  0  0  0  0  0  0
   44.5970   34.3050   41.6910 C   0  0  0  0  0  0  0  0  0  0  0  0
   45.8510   34.4380   41.0970 C   0  0  0  0  0  0  0  0  0  0  0  0
   46.9620   34.5730   41.9150 C   0  0  0  0  0  0  0  0  0  0  0  0
   46.7990   34.5690   43.2840 N   0  0  0  0  0  0  0  0  0  0  0  0
   45.5760   34.4380   43.8250 C   0  0  0  0  0  0  0  0  0  0  0  0
   44.4790   34.3060   43.0400 N   0  0  0  0  0  0  0  0  0  0  0  0
   45.9820   34.4410   40.0300 H   0  0  0  0  0  0  0  0  0  0  0  0
   45.4450   34.4350   44.9000 H   0  0  0  0  0  0  0  0  0  0  0  0
   48.3420   34.7010   41.3270 C   0  0  0  0  0  0  0  0  0  0  0  0
   49.0640   36.0140   41.5180 C   0  0  0  0  0  0  0  0  0  0  0  0
   49.4900   34.7050   42.1940 C   0  0  0  0  0  0  0  0  0  0  0  0
   48.3950   34.2510   40.3150 H   0  0  0  0  0  0  0  0  0  0  0  0
   48.5170   36.7700   42.0830 H   0  0  0  0  0  0  0  0  0  0  0  0
   49.6880   36.3460   40.6660 H   0  0  0  0  0  0  0  0  0  0  0  0
   49.2670   34.7340   43.3010 H   0  0  0  0  0  0  0  0  0  0  0  0
   50.4810   34.2980   41.9500 H   0  0  0  0  0  0  0  0  0  0  0  0
   41.5600   32.6300   37.8550 O   0  0  0  0  0  0  0  0  0  0  0  0
   39.6060   30.9230   38.0220 H   0  0  0  0  0  0  0  0  0  0  0  0
   40.2720   30.9170   38.8450 N   0  0  0  0  0  0  0  0  0  0  0  0
   40.5430   29.5160   39.1300 C   0  0  0  0  0  2  0  0  0  0  0  0
   41.1300   29.0750   37.7990 C   0  0  0  0  0  2  0  0  0  0  0  0
   41.7890   30.3170   37.2220 C   0  0  0  0  0  2  0  0  0  0  0  0
   41.5830   31.3340   38.3240 C   0  0  1  0  0  3  0  0  0  0  0  0
  1  7  1  6  0  0  0
  1  6  1  0  0  0  0
  1  2  1  0  0  0  0
  2  8  1  6  0  0  0
  2  3  1  0  0  0  0
  2 17  1  0  0  0  0
  4 10  1  0  0  0  0
  4  3  1  0  0  0  0
  5  6  1  0  0  0  0
  5 11  1  1  0  0  0
  5  4  1  0  0  0  0
  6 12  1  1  0  0  0
  9  4  1  0  0  0  0
 13 14  1  0  0  0  0
 13  1  1  0  0  0  0
 15  5  1  0  0  0  0
 16 15  1  0  0  0  0
 17 18  1  0  0  0  0
 18 23  1  0  0  0  0
 19 18  2  0  0  0  0
 19 20  1  0  0  0  0
 20 21  2  0  0  0  0
 21 22  1  0  0  0  0
 22 25  1  0  0  0  0
 23 22  2  0  0  0  0
 24 19  1  0  0  0  0
 26 27  1  0  0  0  0
 26 20  1  0  0  0  0
 26 28  1  0  0  0  0
 27 30  1  0  0  0  0
 27 28  1  0  0  0  0
 28 32  1  0  0  0  0
 29 26  1  0  0  0  0
 31 27  1  0  0  0  0
 33 28  1  0  0  0  0
 34  6  1  0  0  0  0
 35 36  1  0  0  0  0
 36 37  1  0  0  0  0
 38 37  1  0  0  0  0
 39 38  1  0  0  0  0
 39 40  1  0  0  0  0
 40 34  1  6  0  0  0
 40 36  1  0  0  0  0
M  END
>  <minimizedAffinity>
-5.78299999

>  <minimizedRMSD>
0.22289896

$$$$
