
 OpenBabel03242521293D

 32 34  0  0  1  0  0  0  0  0999 V2000
   39.0840   31.8420   38.4660 C   0  0  1  0  0  0  0  0  0  0  0  0
   40.0740   32.6110   39.3080 C   0  0  2  0  0  0  0  0  0  0  0  0
   39.5850   33.8560   39.6570 O   0  0  0  0  0  0  0  0  0  0  0  0
   38.5720   33.6420   40.5720 C   0  0  0  0  0  0  0  0  0  0  0  0
   37.3790   33.0840   39.8370 C   0  0  2  0  0  0  0  0  0  0  0  0
   37.6800   31.9250   38.9490 C   0  0  2  0  0  0  0  0  0  0  0  0
   39.4470   30.7710   38.4990 H   0  0  0  0  0  0  0  0  0  0  0  0
   40.2610   31.9500   40.1970 H   0  0  0  0  0  0  0  0  0  0  0  0
   38.8590   33.0630   41.4610 H   0  0  0  0  0  0  0  0  0  0  0  0
   38.2570   34.6560   40.9540 H   0  0  0  0  0  0  0  0  0  0  0  0
   36.6300   32.7470   40.5990 H   0  0  0  0  0  0  0  0  0  0  0  0
   37.0200   32.0510   38.0420 H   0  0  0  0  0  0  0  0  0  0  0  0
   43.1230   34.1600   37.6810 C   0  0  0  0  0  0  0  0  0  0  0  0
   41.9110   34.0560   38.3790 C   0  0  0  0  0  0  0  0  0  0  0  0
   41.3490   32.7650   38.5880 C   0  0  0  0  0  0  0  0  0  0  0  0
   42.0080   31.6910   38.1030 N   0  0  0  0  0  0  0  0  0  0  0  0
   43.1920   31.8370   37.4260 C   0  0  0  0  0  0  0  0  0  0  0  0
   43.7410   33.0590   37.2180 N   0  0  0  0  0  0  0  0  0  0  0  0
   43.6080   35.1000   37.4840 H   0  0  0  0  0  0  0  0  0  0  0  0
   41.4300   34.9310   38.7410 H   0  0  0  0  0  0  0  0  0  0  0  0
   43.6250   30.9170   37.0870 H   0  0  0  0  0  0  0  0  0  0  0  0
   39.2000   32.1500   37.1030 O   0  0  0  0  0  0  0  0  0  0  0  0
   38.7460   33.0280   36.9550 H   0  0  0  0  0  0  0  0  0  0  0  0
   36.8450   34.1600   39.1230 O   0  0  0  0  0  0  0  0  0  0  0  0
   35.8700   34.1780   39.2650 H   0  0  0  0  0  0  0  0  0  0  0  0
   37.2470   30.6990   39.4850 O   0  0  0  0  0  0  0  0  0  0  0  0
   35.2870   30.5770   42.0180 H   0  0  0  0  0  0  0  0  0  0  0  0
   35.4790   30.3870   41.0090 N   0  0  0  0  0  0  0  0  0  0  0  0
   35.6220   28.9400   40.7890 C   0  0  0  0  0  2  0  0  0  0  0  0
   36.6330   28.6450   41.8860 C   0  0  0  0  0  2  0  0  0  0  0  0
   37.5950   29.8230   41.7120 C   0  0  0  0  0  2  0  0  0  0  0  0
   36.8730   30.7960   40.8040 C   0  0  1  0  0  3  0  0  0  0  0  0
  1  7  1  1  0  0  0
  1  6  1  0  0  0  0
  1  2  1  0  0  0  0
  2  3  1  0  0  0  0
  2  8  1  1  0  0  0
  3  4  1  0  0  0  0
  4 10  1  0  0  0  0
  4  9  1  0  0  0  0
  5  4  1  0  0  0  0
  5 11  1  1  0  0  0
  6 12  1  6  0  0  0
  6 26  1  0  0  0  0
  6  5  1  0  0  0  0
 13 14  1  0  0  0  0
 14 15  2  0  0  0  0
 14 20  1  0  0  0  0
 15  2  1  0  0  0  0
 16 15  1  0  0  0  0
 17 16  2  0  0  0  0
 18 17  1  0  0  0  0
 18 13  2  0  0  0  0
 19 13  1  0  0  0  0
 21 17  1  0  0  0  0
 22  1  1  0  0  0  0
 23 22  1  0  0  0  0
 24 25  1  0  0  0  0
 24  5  1  0  0  0  0
 28 27  1  0  0  0  0
 29 28  1  0  0  0  0
 29 30  1  0  0  0  0
 31 30  1  0  0  0  0
 32 26  1  6  0  0  0
 32 28  1  0  0  0  0
 32 31  1  0  0  0  0
M  END
>  <minimizedAffinity>
-5.86246061

$$$$

 OpenBabel03242521293D

 32 34  0  0  1  0  0  0  0  0999 V2000
   37.0610   28.8440   41.7090 C   0  0  1  0  0  0  0  0  0  0  0  0
   37.3500   27.7780   40.6790 C   0  0  2  0  0  0  0  0  0  0  0  0
   36.2390   27.5080   39.9020 O   0  0  0  0  0  0  0  0  0  0  0  0
   36.0440   28.6100   39.0920 C   0  0  0  0  0  0  0  0  0  0  0  0
   35.5070   29.7350   39.9420 C   0  0  2  0  0  0  0  0  0  0  0  0
   36.2820   29.9990   41.1880 C   0  0  2  0  0  0  0  0  0  0  0  0
   38.0790   29.1860   42.0630 H   0  0  0  0  0  0  0  0  0  0  0  0
   38.2100   28.1870   40.0840 H   0  0  0  0  0  0  0  0  0  0  0  0
   36.9050   28.8920   38.4710 H   0  0  0  0  0  0  0  0  0  0  0  0
   35.2180   28.3440   38.3700 H   0  0  0  0  0  0  0  0  0  0  0  0
   35.5190   30.6700   39.3260 H   0  0  0  0  0  0  0  0  0  0  0  0
   35.5190   30.2710   41.9740 H   0  0  0  0  0  0  0  0  0  0  0  0
   37.5750   24.1620   41.7810 C   0  0  0  0  0  0  0  0  0  0  0  0
   37.1130   25.3160   41.1310 C   0  0  0  0  0  0  0  0  0  0  0  0
   37.8060   26.5420   41.3350 C   0  0  0  0  0  0  0  0  0  0  0  0
   38.8830   26.5430   42.1500 N   0  0  0  0  0  0  0  0  0  0  0  0
   39.3020   25.3920   42.7670 C   0  0  0  0  0  0  0  0  0  0  0  0
   38.6540   24.2160   42.5840 N   0  0  0  0  0  0  0  0  0  0  0  0
   37.1040   23.2000   41.6770 H   0  0  0  0  0  0  0  0  0  0  0  0
   36.2600   25.2630   40.5000 H   0  0  0  0  0  0  0  0  0  0  0  0
   40.1660   25.5120   43.3900 H   0  0  0  0  0  0  0  0  0  0  0  0
   36.5060   28.3090   42.8810 O   0  0  0  0  0  0  0  0  0  0  0  0
   35.5410   28.1290   42.6980 H   0  0  0  0  0  0  0  0  0  0  0  0
   34.1810   29.3920   40.2190 O   0  0  0  0  0  0  0  0  0  0  0  0
   33.6120   30.1810   40.0520 H   0  0  0  0  0  0  0  0  0  0  0  0
   37.0750   31.1580   41.1030 O   0  0  0  0  0  0  0  0  0  0  0  0
   36.8210   33.5390   38.9730 H   0  0  0  0  0  0  0  0  0  0  0  0
   36.9330   33.2110   39.9580 N   0  0  0  0  0  0  0  0  0  0  0  0
   38.2950   33.5020   40.4320 C   0  0  0  0  0  2  0  0  0  0  0  0
   39.0700   32.8970   39.2710 C   0  0  0  0  0  2  0  0  0  0  0  0
   38.2990   31.5910   39.0630 C   0  0  0  0  0  2  0  0  0  0  0  0
   37.0230   31.7500   39.8630 C   0  0  1  0  0  3  0  0  0  0  0  0
  1  7  1  1  0  0  0
  1 22  1  0  0  0  0
  2  8  1  6  0  0  0
  2 15  1  0  0  0  0
  2  1  1  0  0  0  0
  3  2  1  0  0  0  0
  4  3  1  0  0  0  0
  4  5  1  0  0  0  0
  5 11  1  6  0  0  0
  5 24  1  0  0  0  0
  5  6  1  0  0  0  0
  6  1  1  0  0  0  0
  6 12  1  1  0  0  0
  9  4  1  0  0  0  0
 10  4  1  0  0  0  0
 13 18  1  0  0  0  0
 14 15  1  0  0  0  0
 14 13  2  0  0  0  0
 15 16  2  0  0  0  0
 16 17  1  0  0  0  0
 17 21  1  0  0  0  0
 18 17  2  0  0  0  0
 19 13  1  0  0  0  0
 20 14  1  0  0  0  0
 23 22  1  0  0  0  0
 25 24  1  0  0  0  0
 26  6  1  0  0  0  0
 27 28  1  0  0  0  0
 28 29  1  0  0  0  0
 30 29  1  0  0  0  0
 31 30  1  0  0  0  0
 31 32  1  0  0  0  0
 32 28  1  0  0  0  0
 32 26  1  1  0  0  0
M  END
>  <minimizedAffinity>
-5.73790836

$$$$

 OpenBabel03242521293D

 32 34  0  0  1  0  0  0  0  0999 V2000
   39.2120   30.9980   40.9430 C   0  0  1  0  0  0  0  0  0  0  0  0
   38.1590   29.9720   40.5940 C   0  0  2  0  0  0  0  0  0  0  0  0
   36.9240   30.5580   40.3960 O   0  0  0  0  0  0  0  0  0  0  0  0
   37.0050   31.2640   39.2110 C   0  0  0  0  0  0  0  0  0  0  0  0
   37.8480   32.4930   39.4470 C   0  0  2  0  0  0  0  0  0  0  0  0
   39.1550   32.2330   40.1160 C   0  0  2  0  0  0  0  0  0  0  0  0
   40.1970   30.4660   40.7850 H   0  0  0  0  0  0  0  0  0  0  0  0
   38.5550   29.4650   39.6730 H   0  0  0  0  0  0  0  0  0  0  0  0
   37.3120   30.6760   38.3350 H   0  0  0  0  0  0  0  0  0  0  0  0
   35.9660   31.6390   38.9810 H   0  0  0  0  0  0  0  0  0  0  0  0
   38.0590   32.9640   38.4530 H   0  0  0  0  0  0  0  0  0  0  0  0
   39.3270   33.1080   40.8080 H   0  0  0  0  0  0  0  0  0  0  0  0
   36.7380   27.5350   43.1200 C   0  0  0  0  0  0  0  0  0  0  0  0
   36.7890   28.4960   42.0990 C   0  0  0  0  0  0  0  0  0  0  0  0
   38.0610   28.9580   41.6560 C   0  0  0  0  0  0  0  0  0  0  0  0
   39.1680   28.4510   42.2400 N   0  0  0  0  0  0  0  0  0  0  0  0
   39.0740   27.5120   43.2360 C   0  0  0  0  0  0  0  0  0  0  0  0
   37.8710   27.0610   43.6700 N   0  0  0  0  0  0  0  0  0  0  0  0
   35.8160   27.1370   43.5070 H   0  0  0  0  0  0  0  0  0  0  0  0
   35.8900   28.8640   41.6720 H   0  0  0  0  0  0  0  0  0  0  0  0
   40.0160   27.1830   43.6250 H   0  0  0  0  0  0  0  0  0  0  0  0
   39.2430   31.2750   42.3170 O   0  0  0  0  0  0  0  0  0  0  0  0
   38.4810   31.8900   42.5150 H   0  0  0  0  0  0  0  0  0  0  0  0
   37.0450   33.3570   40.1970 O   0  0  0  0  0  0  0  0  0  0  0  0
   37.0920   34.2560   39.7950 H   0  0  0  0  0  0  0  0  0  0  0  0
   40.2470   32.3110   39.2320 O   0  0  0  0  0  0  0  0  0  0  0  0
   40.1100   32.0080   36.0440 H   0  0  0  0  0  0  0  0  0  0  0  0
   40.4150   32.5340   36.8940 N   0  0  0  0  0  0  0  0  0  0  0  0
   41.8740   32.4360   37.0480 C   0  0  0  0  0  2  0  0  0  0  0  0
   42.0110   30.9260   36.9230 C   0  0  0  0  0  2  0  0  0  0  0  0
   40.8400   30.4600   37.7930 C   0  0  0  0  0  2  0  0  0  0  0  0
   40.0000   31.6980   38.0260 C   0  0  1  0  0  3  0  0  0  0  0  0
  1  7  1  6  0  0  0
  1 22  1  0  0  0  0
  2  8  1  6  0  0  0
  2  1  1  0  0  0  0
  2 15  1  0  0  0  0
  3  2  1  0  0  0  0
  4  5  1  0  0  0  0
  4  3  1  0  0  0  0
  5 11  1  6  0  0  0
  5  6  1  0  0  0  0
  5 24  1  0  0  0  0
  6 12  1  1  0  0  0
  6  1  1  0  0  0  0
  9  4  1  0  0  0  0
 10  4  1  0  0  0  0
 13 19  1  0  0  0  0
 13 18  1  0  0  0  0
 14 13  2  0  0  0  0
 15 14  1  0  0  0  0
 15 16  2  0  0  0  0
 16 17  1  0  0  0  0
 17 21  1  0  0  0  0
 17 18  2  0  0  0  0
 20 14  1  0  0  0  0
 22 23  1  0  0  0  0
 25 24  1  0  0  0  0
 26  6  1  0  0  0  0
 27 28  1  0  0  0  0
 28 29  1  0  0  0  0
 28 32  1  0  0  0  0
 30 29  1  0  0  0  0
 30 31  1  0  0  0  0
 31 32  1  0  0  0  0
 32 26  1  1  0  0  0
M  END
>  <minimizedAffinity>
-5.44345188

$$$$

 OpenBabel03242521293D

 32 34  0  0  1  0  0  0  0  0999 V2000
   38.4100   29.3800   41.9150 C   0  0  1  0  0  0  0  0  0  0  0  0
   37.9560   28.3210   40.9380 C   0  0  2  0  0  0  0  0  0  0  0  0
   36.6220   28.4720   40.6080 O   0  0  0  0  0  0  0  0  0  0  0  0
   36.5340   29.6080   39.8250 C   0  0  0  0  0  0  0  0  0  0  0  0
   36.7270   30.8130   40.7120 C   0  0  2  0  0  0  0  0  0  0  0  0
   37.9260   30.7500   41.5960 C   0  0  2  0  0  0  0  0  0  0  0  0
   39.5400   29.3440   41.8740 H   0  0  0  0  0  0  0  0  0  0  0  0
   38.6400   28.4400   40.0560 H   0  0  0  0  0  0  0  0  0  0  0  0
   37.1680   29.6080   38.9280 H   0  0  0  0  0  0  0  0  0  0  0  0
   35.4710   29.6650   39.4500 H   0  0  0  0  0  0  0  0  0  0  0  0
   36.8330   31.7130   40.0550 H   0  0  0  0  0  0  0  0  0  0  0  0
   37.6180   31.2310   42.5700 H   0  0  0  0  0  0  0  0  0  0  0  0
   37.3780   24.7480   42.0520 C   0  0  0  0  0  0  0  0  0  0  0  0
   37.1300   26.0130   41.5010 C   0  0  0  0  0  0  0  0  0  0  0  0
   38.1770   26.9780   41.4990 C   0  0  0  0  0  0  0  0  0  0  0  0
   39.3690   26.6340   42.0320 N   0  0  0  0  0  0  0  0  0  0  0  0
   39.5700   25.3840   42.5610 C   0  0  0  0  0  0  0  0  0  0  0  0
   38.5850   24.4530   42.5710 N   0  0  0  0  0  0  0  0  0  0  0  0
   36.6390   23.9680   42.0890 H   0  0  0  0  0  0  0  0  0  0  0  0
   36.1750   26.2370   41.0940 H   0  0  0  0  0  0  0  0  0  0  0  0
   40.5540   25.2230   42.9560 H   0  0  0  0  0  0  0  0  0  0  0  0
   38.1510   29.0170   43.2450 O   0  0  0  0  0  0  0  0  0  0  0  0
   37.1810   29.1800   43.4150 H   0  0  0  0  0  0  0  0  0  0  0  0
   35.5450   30.9260   41.4490 O   0  0  0  0  0  0  0  0  0  0  0  0
   35.2480   31.8660   41.4210 H   0  0  0  0  0  0  0  0  0  0  0  0
   38.9750   31.5760   41.1540 O   0  0  0  0  0  0  0  0  0  0  0  0
   38.2740   34.4740   39.9780 H   0  0  0  0  0  0  0  0  0  0  0  0
   38.6800   33.8740   40.7310 N   0  0  0  0  0  0  0  0  0  0  0  0
   40.1440   34.0040   40.7420 C   0  0  0  0  0  2  0  0  0  0  0  0
   40.4030   33.7550   39.2630 C   0  0  0  0  0  2  0  0  0  0  0  0
   39.4670   32.5710   39.0060 C   0  0  0  0  0  2  0  0  0  0  0  0
   38.5680   32.5020   40.2230 C   0  0  1  0  0  3  0  0  0  0  0  0
  1  7  1  6  0  0  0
  1 22  1  0  0  0  0
  2  8  1  6  0  0  0
  2 15  1  0  0  0  0
  2  1  1  0  0  0  0
  3  2  1  0  0  0  0
  4  3  1  0  0  0  0
  4  5  1  0  0  0  0
  5 11  1  6  0  0  0
  5 24  1  0  0  0  0
  5  6  1  0  0  0  0
  6  1  1  0  0  0  0
  6 12  1  1  0  0  0
  9  4  1  0  0  0  0
 10  4  1  0  0  0  0
 13 19  1  0  0  0  0
 13 18  1  0  0  0  0
 14 13  2  0  0  0  0
 15 14  1  0  0  0  0
 15 16  2  0  0  0  0
 16 17  1  0  0  0  0
 17 18  2  0  0  0  0
 17 21  1  0  0  0  0
 20 14  1  0  0  0  0
 22 23  1  0  0  0  0
 25 24  1  0  0  0  0
 26  6  1  0  0  0  0
 27 28  1  0  0  0  0
 28 29  1  0  0  0  0
 30 29  1  0  0  0  0
 31 30  1  0  0  0  0
 31 32  1  0  0  0  0
 32 28  1  0  0  0  0
 32 26  1  1  0  0  0
M  END
>  <minimizedAffinity>
-5.29437065

$$$$

 OpenBabel03242521293D

 32 34  0  0  1  0  0  0  0  0999 V2000
   38.3450   29.2510   41.2210 C   0  0  1  0  0  0  0  0  0  0  0  0
   37.6080   28.2520   40.3610 C   0  0  2  0  0  0  0  0  0  0  0  0
   36.2470   28.4920   40.3550 O   0  0  0  0  0  0  0  0  0  0  0  0
   36.0540   29.6530   39.6310 C   0  0  0  0  0  0  0  0  0  0  0  0
   36.5260   30.8180   40.4660 C   0  0  2  0  0  0  0  0  0  0  0  0
   37.8900   30.6570   41.0450 C   0  0  2  0  0  0  0  0  0  0  0  0
   39.4300   29.1500   40.9170 H   0  0  0  0  0  0  0  0  0  0  0  0
   38.0760   28.3550   39.3460 H   0  0  0  0  0  0  0  0  0  0  0  0
   36.4610   29.6430   38.6110 H   0  0  0  0  0  0  0  0  0  0  0  0
   34.9390   29.7850   39.5150 H   0  0  0  0  0  0  0  0  0  0  0  0
   36.5340   31.7290   39.8160 H   0  0  0  0  0  0  0  0  0  0  0  0
   37.8480   31.1270   42.0700 H   0  0  0  0  0  0  0  0  0  0  0  0
   39.2020   24.8490   40.8380 C   0  0  0  0  0  0  0  0  0  0  0  0
   38.9970   26.1560   40.3690 C   0  0  0  0  0  0  0  0  0  0  0  0
   37.8650   26.8810   40.8350 C   0  0  0  0  0  0  0  0  0  0  0  0
   37.0320   26.2800   41.7110 N   0  0  0  0  0  0  0  0  0  0  0  0
   37.2690   25.0000   42.1450 C   0  0  0  0  0  0  0  0  0  0  0  0
   38.3420   24.2950   41.7120 N   0  0  0  0  0  0  0  0  0  0  0  0
   40.0330   24.2400   40.5330 H   0  0  0  0  0  0  0  0  0  0  0  0
   39.6810   26.5850   39.6800 H   0  0  0  0  0  0  0  0  0  0  0  0
   36.5420   24.6260   42.8380 H   0  0  0  0  0  0  0  0  0  0  0  0
   38.3790   28.8650   42.5690 O   0  0  0  0  0  0  0  0  0  0  0  0
   37.4870   29.0810   42.9640 H   0  0  0  0  0  0  0  0  0  0  0  0
   35.5570   30.9800   41.4600 O   0  0  0  0  0  0  0  0  0  0  0  0
   35.3230   31.9360   41.5160 H   0  0  0  0  0  0  0  0  0  0  0  0
   38.8600   31.4320   40.3820 O   0  0  0  0  0  0  0  0  0  0  0  0
   40.5610   33.6330   41.9730 H   0  0  0  0  0  0  0  0  0  0  0  0
   40.5100   32.7340   41.4430 N   0  0  0  0  0  0  0  0  0  0  0  0
   41.1490   32.8900   40.1280 C   0  0  0  0  0  2  0  0  0  0  0  0
   40.4290   34.1520   39.6770 C   0  0  0  0  0  2  0  0  0  0  0  0
   38.9940   33.8300   40.1040 C   0  0  0  0  0  2  0  0  0  0  0  0
   39.1110   32.6260   41.0150 C   0  0  1  0  0  3  0  0  0  0  0  0
  1  7  1  6  0  0  0
  1 22  1  0  0  0  0
  2  8  1  6  0  0  0
  2 15  1  0  0  0  0
  2  1  1  0  0  0  0
  3  2  1  0  0  0  0
  4  3  1  0  0  0  0
  4  5  1  0  0  0  0
  5 11  1  6  0  0  0
  5  6  1  0  0  0  0
  5 24  1  0  0  0  0
  6  1  1  0  0  0  0
  6 12  1  1  0  0  0
  9  4  1  0  0  0  0
 10  4  1  0  0  0  0
 13 18  1  0  0  0  0
 14 15  1  0  0  0  0
 14 13  2  0  0  0  0
 15 16  2  0  0  0  0
 16 17  1  0  0  0  0
 17 21  1  0  0  0  0
 18 17  2  0  0  0  0
 19 13  1  0  0  0  0
 20 14  1  0  0  0  0
 22 23  1  0  0  0  0
 24 25  1  0  0  0  0
 26  6  1  0  0  0  0
 28 27  1  0  0  0  0
 29 28  1  0  0  0  0
 30 31  1  0  0  0  0
 30 29  1  0  0  0  0
 31 32  1  0  0  0  0
 32 26  1  6  0  0  0
 32 28  1  0  0  0  0
M  END
>  <minimizedAffinity>
-5.29196262

$$$$

 OpenBabel03242521293D

 32 34  0  0  1  0  0  0  0  0999 V2000
   35.9030   29.4450   40.1970 C   0  0  1  0  0  0  0  0  0  0  0  0
   36.5400   29.3990   38.8280 C   0  0  2  0  0  0  0  0  0  0  0  0
   36.8380   30.6660   38.3630 O   0  0  0  0  0  0  0  0  0  0  0  0
   37.8920   31.1300   39.1270 C   0  0  0  0  0  0  0  0  0  0  0  0
   37.3690   31.4670   40.5010 C   0  0  2  0  0  0  0  0  0  0  0  0
   36.5550   30.3930   41.1400 C   0  0  2  0  0  0  0  0  0  0  0  0
   35.9830   28.3870   40.5880 H   0  0  0  0  0  0  0  0  0  0  0  0
   37.4510   28.7570   38.9630 H   0  0  0  0  0  0  0  0  0  0  0  0
   38.7830   30.4890   39.1340 H   0  0  0  0  0  0  0  0  0  0  0  0
   38.2210   32.1080   38.6700 H   0  0  0  0  0  0  0  0  0  0  0  0
   38.2480   31.6720   41.1650 H   0  0  0  0  0  0  0  0  0  0  0  0
   35.7330   30.9230   41.7040 H   0  0  0  0  0  0  0  0  0  0  0  0
   34.4690   28.6490   35.7470 C   0  0  0  0  0  0  0  0  0  0  0  0
   35.3270   29.3260   36.6260 C   0  0  0  0  0  0  0  0  0  0  0  0
   35.6500   28.7180   37.8720 C   0  0  0  0  0  0  0  0  0  0  0  0
   35.1140   27.5130   38.1580 N   0  0  0  0  0  0  0  0  0  0  0  0
   34.2790   26.8840   37.2690 C   0  0  0  0  0  0  0  0  0  0  0  0
   33.9610   27.4470   36.0780 N   0  0  0  0  0  0  0  0  0  0  0  0
   34.1800   29.0430   34.7890 H   0  0  0  0  0  0  0  0  0  0  0  0
   35.7230   30.2730   36.3560 H   0  0  0  0  0  0  0  0  0  0  0  0
   33.9130   25.9330   37.6010 H   0  0  0  0  0  0  0  0  0  0  0  0
   34.5150   29.6290   40.1280 O   0  0  0  0  0  0  0  0  0  0  0  0
   34.3510   30.5970   39.9440 H   0  0  0  0  0  0  0  0  0  0  0  0
   36.6380   32.6470   40.3430 O   0  0  0  0  0  0  0  0  0  0  0  0
   36.9030   33.2780   41.0530 H   0  0  0  0  0  0  0  0  0  0  0  0
   37.2490   29.7130   42.1560 O   0  0  0  0  0  0  0  0  0  0  0  0
   38.6140   26.9320   41.3360 H   0  0  0  0  0  0  0  0  0  0  0  0
   38.6910   27.9500   41.5580 N   0  0  0  0  0  0  0  0  0  0  0  0
   39.3580   28.1330   42.8550 C   0  0  0  0  0  2  0  0  0  0  0  0
   38.5120   27.1740   43.6800 C   0  0  0  0  0  2  0  0  0  0  0  0
   37.1100   27.5230   43.1730 C   0  0  0  0  0  2  0  0  0  0  0  0
   37.3320   28.3590   41.9300 C   0  0  1  0  0  3  0  0  0  0  0  0
  1  7  1  1  0  0  0
  1  6  1  0  0  0  0
  2  8  1  1  0  0  0
  2  1  1  0  0  0  0
  3  2  1  0  0  0  0
  3  4  1  0  0  0  0
  4  9  1  0  0  0  0
  4  5  1  0  0  0  0
  5  6  1  0  0  0  0
  5 11  1  1  0  0  0
  6 12  1  1  0  0  0
  6 26  1  0  0  0  0
 10  4  1  0  0  0  0
 13 18  2  0  0  0  0
 13 14  1  0  0  0  0
 14 15  2  0  0  0  0
 15 16  1  0  0  0  0
 15  2  1  0  0  0  0
 17 21  1  0  0  0  0
 17 16  2  0  0  0  0
 18 17  1  0  0  0  0
 19 13  1  0  0  0  0
 20 14  1  0  0  0  0
 22  1  1  0  0  0  0
 23 22  1  0  0  0  0
 24  5  1  0  0  0  0
 24 25  1  0  0  0  0
 27 28  1  0  0  0  0
 28 32  1  0  0  0  0
 28 29  1  0  0  0  0
 29 30  1  0  0  0  0
 31 30  1  0  0  0  0
 32 26  1  1  0  0  0
 32 31  1  0  0  0  0
M  END
>  <minimizedAffinity>
-5.2693758

$$$$

 OpenBabel03242521293D

 32 34  0  0  1  0  0  0  0  0999 V2000
   39.0610   31.8800   38.2100 C   0  0  1  0  0  0  0  0  0  0  0  0
   40.0530   32.5050   39.1620 C   0  0  2  0  0  0  0  0  0  0  0  0
   39.5910   33.7080   39.6600 O   0  0  0  0  0  0  0  0  0  0  0  0
   38.5540   33.4080   40.5220 C   0  0  0  0  0  0  0  0  0  0  0  0
   37.3610   32.9840   39.7000 C   0  0  2  0  0  0  0  0  0  0  0  0
   37.6500   31.9410   38.6750 C   0  0  2  0  0  0  0  0  0  0  0  0
   39.3950   30.8030   38.1110 H   0  0  0  0  0  0  0  0  0  0  0  0
   40.2040   31.7300   39.9600 H   0  0  0  0  0  0  0  0  0  0  0  0
   38.8050   32.7110   41.3330 H   0  0  0  0  0  0  0  0  0  0  0  0
   38.2570   34.3730   41.0260 H   0  0  0  0  0  0  0  0  0  0  0  0
   36.5880   32.5740   40.3990 H   0  0  0  0  0  0  0  0  0  0  0  0
   37.0130   32.2020   37.7800 H   0  0  0  0  0  0  0  0  0  0  0  0
   43.1980   34.1500   37.8410 C   0  0  0  0  0  0  0  0  0  0  0  0
   41.9700   33.9920   38.5000 C   0  0  0  0  0  0  0  0  0  0  0  0
   41.3470   32.7120   38.4900 C   0  0  0  0  0  0  0  0  0  0  0  0
   41.9660   31.7010   37.8430 N   0  0  0  0  0  0  0  0  0  0  0  0
   43.1670   31.8990   37.2110 C   0  0  0  0  0  0  0  0  0  0  0  0
   43.7750   33.1100   37.2110 N   0  0  0  0  0  0  0  0  0  0  0  0
   43.7290   35.0850   37.8050 H   0  0  0  0  0  0  0  0  0  0  0  0
   41.5230   34.8190   38.9940 H   0  0  0  0  0  0  0  0  0  0  0  0
   43.5640   31.0260   36.7320 H   0  0  0  0  0  0  0  0  0  0  0  0
   39.2140   32.3580   36.9000 O   0  0  0  0  0  0  0  0  0  0  0  0
   38.7870   33.2600   36.8600 H   0  0  0  0  0  0  0  0  0  0  0  0
   36.8720   34.1590   39.1220 O   0  0  0  0  0  0  0  0  0  0  0  0
   35.8940   34.1860   39.2480 H   0  0  0  0  0  0  0  0  0  0  0  0
   37.1730   30.6690   39.0410 O   0  0  0  0  0  0  0  0  0  0  0  0
   37.6900   27.9500   37.4260 H   0  0  0  0  0  0  0  0  0  0  0  0
   37.7130   28.4940   38.3170 N   0  0  0  0  0  0  0  0  0  0  0  0
   36.6810   27.9940   39.2360 C   0  0  0  0  0  2  0  0  0  0  0  0
   35.4960   28.0280   38.2830 C   0  0  0  0  0  2  0  0  0  0  0  0
   35.7150   29.3830   37.6030 C   0  0  0  0  0  2  0  0  0  0  0  0
   37.1230   29.7940   37.9810 C   0  0  1  0  0  3  0  0  0  0  0  0
  1  7  1  6  0  0  0
  1  6  1  0  0  0  0
  1  2  1  0  0  0  0
  2  3  1  0  0  0  0
  2  8  1  1  0  0  0
  3  4  1  0  0  0  0
  4 10  1  0  0  0  0
  4  9  1  0  0  0  0
  5 11  1  1  0  0  0
  5  4  1  0  0  0  0
  6 12  1  6  0  0  0
  6 26  1  0  0  0  0
  6  5  1  0  0  0  0
 13 14  1  0  0  0  0
 14 20  1  0  0  0  0
 15 14  2  0  0  0  0
 15  2  1  0  0  0  0
 16 15  1  0  0  0  0
 17 16  2  0  0  0  0
 18 17  1  0  0  0  0
 18 13  2  0  0  0  0
 19 13  1  0  0  0  0
 21 17  1  0  0  0  0
 22  1  1  0  0  0  0
 23 22  1  0  0  0  0
 24 25  1  0  0  0  0
 24  5  1  0  0  0  0
 27 28  1  0  0  0  0
 28 29  1  0  0  0  0
 30 29  1  0  0  0  0
 31 32  1  0  0  0  0
 31 30  1  0  0  0  0
 32 28  1  0  0  0  0
 32 26  1  1  0  0  0
M  END
>  <minimizedAffinity>
-5.11807299

$$$$

 OpenBabel03242521293D

 32 34  0  0  1  0  0  0  0  0999 V2000
   40.0730   31.2160   41.2470 C   0  0  1  0  0  0  0  0  0  0  0  0
   38.7260   30.5770   41.0020 C   0  0  2  0  0  0  0  0  0  0  0  0
   37.6970   31.4890   41.1440 O   0  0  0  0  0  0  0  0  0  0  0  0
   37.7790   32.3510   40.0670 C   0  0  0  0  0  0  0  0  0  0  0  0
   38.9680   33.2560   40.2730 C   0  0  2  0  0  0  0  0  0  0  0  0
   40.2380   32.5520   40.6130 C   0  0  2  0  0  0  0  0  0  0  0  0
   40.8220   30.4840   40.8190 H   0  0  0  0  0  0  0  0  0  0  0  0
   38.7990   30.1590   39.9620 H   0  0  0  0  0  0  0  0  0  0  0  0
   37.7520   31.8700   39.0800 H   0  0  0  0  0  0  0  0  0  0  0  0
   36.8700   33.0160   40.1110 H   0  0  0  0  0  0  0  0  0  0  0  0
   39.1370   33.8270   39.3240 H   0  0  0  0  0  0  0  0  0  0  0  0
   40.7680   33.2130   41.3580 H   0  0  0  0  0  0  0  0  0  0  0  0
   37.0850   28.1340   43.3850 C   0  0  0  0  0  0  0  0  0  0  0  0
   37.2390   29.2140   42.5040 C   0  0  0  0  0  0  0  0  0  0  0  0
   38.5180   29.4490   41.9250 C   0  0  0  0  0  0  0  0  0  0  0  0
   39.5340   28.6210   42.2520 N   0  0  0  0  0  0  0  0  0  0  0  0
   39.3400   27.5760   43.1180 C   0  0  0  0  0  0  0  0  0  0  0  0
   38.1290   27.3370   43.6780 N   0  0  0  0  0  0  0  0  0  0  0  0
   36.1510   27.8930   43.8610 H   0  0  0  0  0  0  0  0  0  0  0  0
   36.4100   29.8380   42.2790 H   0  0  0  0  0  0  0  0  0  0  0  0
   40.2150   26.9850   43.3040 H   0  0  0  0  0  0  0  0  0  0  0  0
   40.4130   31.2240   42.6080 O   0  0  0  0  0  0  0  0  0  0  0  0
   39.9050   31.9690   43.0380 H   0  0  0  0  0  0  0  0  0  0  0  0
   38.5860   34.1500   41.2780 O   0  0  0  0  0  0  0  0  0  0  0  0
   38.8230   35.0630   40.9910 H   0  0  0  0  0  0  0  0  0  0  0  0
   41.1410   32.5010   39.5360 O   0  0  0  0  0  0  0  0  0  0  0  0
   42.9620   35.1380   39.5410 H   0  0  0  0  0  0  0  0  0  0  0  0
   42.7800   34.1610   39.8600 N   0  0  0  0  0  0  0  0  0  0  0  0
   43.7480   33.2420   39.2440 C   0  0  0  0  0  2  0  0  0  0  0  0
   43.5800   33.6770   37.7960 C   0  0  0  0  0  2  0  0  0  0  0  0
   42.0560   33.7930   37.7080 C   0  0  0  0  0  2  0  0  0  0  0  0
   41.5700   33.7460   39.1420 C   0  0  1  0  0  3  0  0  0  0  0  0
  1  7  1  6  0  0  0
  1 22  1  0  0  0  0
  2  8  1  6  0  0  0
  2  3  1  0  0  0  0
  2  1  1  0  0  0  0
  2 15  1  0  0  0  0
  4 10  1  0  0  0  0
  4  5  1  0  0  0  0
  4  3  1  0  0  0  0
  5 11  1  6  0  0  0
  5  6  1  0  0  0  0
  5 24  1  0  0  0  0
  6  1  1  0  0  0  0
  6 12  1  1  0  0  0
  9  4  1  0  0  0  0
 13 18  1  0  0  0  0
 13 19  1  0  0  0  0
 14 13  2  0  0  0  0
 15 16  2  0  0  0  0
 15 14  1  0  0  0  0
 16 17  1  0  0  0  0
 17 21  1  0  0  0  0
 17 18  2  0  0  0  0
 20 14  1  0  0  0  0
 22 23  1  0  0  0  0
 25 24  1  0  0  0  0
 26  6  1  0  0  0  0
 27 28  1  0  0  0  0
 29 28  1  0  0  0  0
 30 29  1  0  0  0  0
 31 30  1  0  0  0  0
 31 32  1  0  0  0  0
 32 26  1  1  0  0  0
 32 28  1  0  0  0  0
M  END
>  <minimizedAffinity>
-5.07860851

$$$$

 OpenBabel03242521293D

 32 34  0  0  1  0  0  0  0  0999 V2000
   37.3150   28.0520   40.6730 C   0  0  1  0  0  0  0  0  0  0  0  0
   37.9880   29.3270   41.1220 C   0  0  2  0  0  0  0  0  0  0  0  0
   37.5290   29.7360   42.3600 O   0  0  0  0  0  0  0  0  0  0  0  0
   38.0270   28.8370   43.2840 C   0  0  0  0  0  0  0  0  0  0  0  0
   37.2730   27.5380   43.1360 C   0  0  2  0  0  0  0  0  0  0  0  0
   37.1880   27.0220   41.7390 C   0  0  2  0  0  0  0  0  0  0  0  0
   37.9620   27.6650   39.8300 H   0  0  0  0  0  0  0  0  0  0  0  0
   39.0840   29.0820   41.1210 H   0  0  0  0  0  0  0  0  0  0  0  0
   39.1190   28.7200   43.2830 H   0  0  0  0  0  0  0  0  0  0  0  0
   37.7610   29.2360   44.3050 H   0  0  0  0  0  0  0  0  0  0  0  0
   37.7940   26.7630   43.7560 H   0  0  0  0  0  0  0  0  0  0  0  0
   36.1610   26.5640   41.6420 H   0  0  0  0  0  0  0  0  0  0  0  0
   37.1620   32.6880   39.5840 C   0  0  0  0  0  0  0  0  0  0  0  0
   37.3700   31.6980   40.5560 C   0  0  0  0  0  0  0  0  0  0  0  0
   37.7680   30.3980   40.1350 C   0  0  0  0  0  0  0  0  0  0  0  0
   37.9280   30.1700   38.8140 N   0  0  0  0  0  0  0  0  0  0  0  0
   37.7150   31.1660   37.8960 C   0  0  0  0  0  0  0  0  0  0  0  0
   37.3360   32.4100   38.2780 N   0  0  0  0  0  0  0  0  0  0  0  0
   36.8610   33.6920   39.8230 H   0  0  0  0  0  0  0  0  0  0  0  0
   37.2300   31.9260   41.5830 H   0  0  0  0  0  0  0  0  0  0  0  0
   37.8710   30.8720   36.8770 H   0  0  0  0  0  0  0  0  0  0  0  0
   36.0980   28.2990   40.0210 O   0  0  0  0  0  0  0  0  0  0  0  0
   35.4160   28.4920   40.7240 H   0  0  0  0  0  0  0  0  0  0  0  0
   36.0080   27.7780   43.6790 O   0  0  0  0  0  0  0  0  0  0  0  0
   35.7810   27.0320   44.2830 H   0  0  0  0  0  0  0  0  0  0  0  0
   38.0440   25.9320   41.5060 O   0  0  0  0  0  0  0  0  0  0  0  0
   38.6910   24.1210   38.9420 H   0  0  0  0  0  0  0  0  0  0  0  0
   38.9320   24.4520   39.9030 N   0  0  0  0  0  0  0  0  0  0  0  0
   38.7240   23.3680   40.8740 C   0  0  0  0  0  2  0  0  0  0  0  0
   37.3110   22.9730   40.4710 C   0  0  0  0  0  2  0  0  0  0  0  0
   36.6680   24.3510   40.2990 C   0  0  0  0  0  2  0  0  0  0  0  0
   37.8230   25.3310   40.2890 C   0  0  1  0  0  3  0  0  0  0  0  0
  1  7  1  6  0  0  0
  1  2  1  0  0  0  0
  1  6  1  0  0  0  0
  2  8  1  1  0  0  0
  2  3  1  0  0  0  0
  3  4  1  0  0  0  0
  4 10  1  0  0  0  0
  5  4  1  0  0  0  0
  5 24  1  0  0  0  0
  5 11  1  1  0  0  0
  6 12  1  6  0  0  0
  6  5  1  0  0  0  0
  9  4  1  0  0  0  0
 13 19  1  0  0  0  0
 13 14  1  0  0  0  0
 14 20  1  0  0  0  0
 15 14  2  0  0  0  0
 15  2  1  0  0  0  0
 16 15  1  0  0  0  0
 17 18  1  0  0  0  0
 17 16  2  0  0  0  0
 18 13  2  0  0  0  0
 21 17  1  0  0  0  0
 22  1  1  0  0  0  0
 22 23  1  0  0  0  0
 24 25  1  0  0  0  0
 26  6  1  0  0  0  0
 27 28  1  0  0  0  0
 28 32  1  0  0  0  0
 28 29  1  0  0  0  0
 30 29  1  0  0  0  0
 31 30  1  0  0  0  0
 32 31  1  0  0  0  0
 32 26  1  1  0  0  0
M  END
>  <minimizedAffinity>
-4.95234871

$$$$
