
 OpenBabel03242513433D

 37 40  0  0  1  0  0  0  0  0999 V2000
   40.8670   31.8200   40.6330 C   0  0  0  0  0  0  0  0  0  0  0  0
   40.8980   31.1110   41.8160 C   0  0  0  0  0  0  0  0  0  0  0  0
   41.8510   31.4490   42.7480 C   0  0  0  0  0  0  0  0  0  0  0  0
   42.7650   32.4550   42.5470 C   0  0  0  0  0  0  0  0  0  0  0  0
   43.7920   33.0170   43.2330 N   0  0  0  0  0  0  0  0  0  0  0  0
   44.3540   34.0120   42.5080 C   0  0  0  0  0  0  0  0  0  0  0  0
   43.6680   34.0690   41.3590 N   0  0  0  0  0  0  0  0  0  0  0  0
   42.7000   33.1340   41.3610 C   0  0  0  0  0  0  0  0  0  0  0  0
   41.7770   32.8500   40.3900 C   0  0  0  0  0  0  0  0  0  0  0  0
   40.1580   31.6250   39.8520 H   0  0  0  0  0  0  0  0  0  0  0  0
   41.9120   30.9180   43.6900 H   0  0  0  0  0  0  0  0  0  0  0  0
   44.0760   32.6930   44.1900 H   0  0  0  0  0  0  0  0  0  0  0  0
   45.1910   34.6040   42.8530 H   0  0  0  0  0  0  0  0  0  0  0  0
   39.4640   27.8840   42.7820 C   0  0  0  0  0  0  0  0  0  0  0  0
   38.1170   28.0360   42.4870 C   0  0  0  0  0  0  0  0  0  0  0  0
   37.7270   29.2770   41.9510 C   0  0  0  0  0  0  0  0  0  0  0  0
   38.6530   30.2480   41.7470 N   0  0  0  0  0  0  0  0  0  0  0  0
   39.9370   30.0370   42.0530 C   0  0  0  0  0  0  0  0  0  0  0  0
   40.3670   28.8750   42.5670 N   0  0  0  0  0  0  0  0  0  0  0  0
   39.8500   26.9610   43.1980 H   0  0  0  0  0  0  0  0  0  0  0  0
   36.6760   29.3940   41.7210 H   0  0  0  0  0  0  0  0  0  0  0  0
   37.2010   26.9040   42.7540 C   0  0  0  0  0  0  0  0  0  0  0  0
   36.5870   26.6470   41.5560 F   0  0  0  0  0  0  0  0  0  0  0  0
   36.2850   27.2970   43.6780 F   0  0  0  0  0  0  0  0  0  0  0  0
   37.9690   25.8290   43.2290 F   0  0  0  0  0  0  0  0  0  0  0  0
   41.7500   33.5640   39.2060 O   0  0  0  0  0  0  0  0  0  0  0  0
   43.7530   32.4250   38.0100 O   0  0  0  0  0  0  0  0  0  0  0  0
   42.3560   33.0020   37.7240 P   0  0  2  0  0  0  0  0  0  0  0  0
   42.5540   34.3410   36.7130 O   0  0  0  0  0  0  0  0  0  0  0  0
   42.0120   34.2260   35.8980 H   0  0  0  0  0  0  0  0  0  0  0  0
   41.4020   31.8280   37.0240 O   0  0  0  0  0  0  0  0  0  0  0  0
   39.0140   33.3710   36.7100 H   0  0  0  0  0  0  0  0  0  0  0  0
   39.1580   32.3290   36.5920 N   0  0  0  0  0  0  0  0  0  0  0  0
   37.8960   31.6930   36.9140 C   0  0  0  0  0  2  0  0  0  0  0  0
   38.2010   30.4690   37.7220 C   0  0  0  0  0  2  0  0  0  0  0  0
   39.6940   30.4310   37.8820 C   0  0  0  0  0  2  0  0  0  0  0  0
   40.1170   31.8300   37.5630 C   0  0  1  0  0  3  0  0  0  0  0  0
  1  2  1  0  0  0  0
  2 18  1  0  0  0  0
  2  3  2  0  0  0  0
  3 11  1  0  0  0  0
  4  3  1  0  0  0  0
  4  5  1  0  0  0  0
  5 12  1  0  0  0  0
  6 13  1  0  0  0  0
  6  5  1  0  0  0  0
  7  8  1  0  0  0  0
  7  6  2  0  0  0  0
  8  4  2  0  0  0  0
  9  1  2  0  0  0  0
  9  8  1  0  0  0  0
 10  1  1  0  0  0  0
 14 20  1  0  0  0  0
 15 22  1  0  0  0  0
 15 14  2  0  0  0  0
 16 15  1  0  0  0  0
 17 16  2  0  0  0  0
 17 18  1  0  0  0  0
 18 19  2  0  0  0  0
 19 14  1  0  0  0  0
 21 16  1  0  0  0  0
 22 25  1  0  0  0  0
 22 24  1  0  0  0  0
 23 22  1  0  0  0  0
 26  9  1  0  0  0  0
 28 27  2  1  0  0  0
 28 26  1  0  0  0  0
 29 28  1  0  0  0  0
 30 29  1  0  0  0  0
 31 28  1  0  0  0  0
 33 32  1  0  0  0  0
 33 34  1  0  0  0  0
 33 37  1  0  0  0  0
 34 35  1  0  0  0  0
 35 36  1  0  0  0  0
 37 31  1  6  0  0  0
 37 36  1  0  0  0  0
M  END
>  <minimizedAffinity>
-6.70660543

$$$$

 OpenBabel03242513433D

 37 40  0  0  1  0  0  0  0  0999 V2000
   39.8020   30.1180   39.9520 C   0  0  0  0  0  0  0  0  0  0  0  0
   38.5920   29.7940   40.5300 C   0  0  0  0  0  0  0  0  0  0  0  0
   37.6890   30.8070   40.7500 C   0  0  0  0  0  0  0  0  0  0  0  0
   37.9440   32.1170   40.4200 C   0  0  0  0  0  0  0  0  0  0  0  0
   37.2960   33.3060   40.5000 N   0  0  0  0  0  0  0  0  0  0  0  0
   38.0680   34.2970   40.0000 C   0  0  0  0  0  0  0  0  0  0  0  0
   39.2090   33.7180   39.6030 N   0  0  0  0  0  0  0  0  0  0  0  0
   39.1550   32.3960   39.8490 C   0  0  0  0  0  0  0  0  0  0  0  0
   40.1000   31.4350   39.6010 C   0  0  0  0  0  0  0  0  0  0  0  0
   40.5640   29.3920   39.7440 H   0  0  0  0  0  0  0  0  0  0  0  0
   36.7270   30.5980   41.2020 H   0  0  0  0  0  0  0  0  0  0  0  0
   36.3310   33.3980   40.9020 H   0  0  0  0  0  0  0  0  0  0  0  0
   37.7600   35.3340   39.9590 H   0  0  0  0  0  0  0  0  0  0  0  0
   37.3580   26.8640   42.3440 C   0  0  0  0  0  0  0  0  0  0  0  0
   37.7590   25.8040   41.5440 C   0  0  0  0  0  0  0  0  0  0  0  0
   38.4600   26.1340   40.3690 C   0  0  0  0  0  0  0  0  0  0  0  0
   38.7120   27.4350   40.0730 N   0  0  0  0  0  0  0  0  0  0  0  0
   38.2980   28.4100   40.8890 C   0  0  0  0  0  0  0  0  0  0  0  0
   37.6250   28.1550   42.0220 N   0  0  0  0  0  0  0  0  0  0  0  0
   36.8130   26.6990   43.2670 H   0  0  0  0  0  0  0  0  0  0  0  0
   38.7720   25.3070   39.7450 H   0  0  0  0  0  0  0  0  0  0  0  0
   37.4250   24.4270   41.9710 C   0  0  0  0  0  0  0  0  0  0  0  0
   36.2350   24.5360   42.6410 F   0  0  0  0  0  0  0  0  0  0  0  0
   38.4000   23.9850   42.8080 F   0  0  0  0  0  0  0  0  0  0  0  0
   37.3460   23.6250   40.8210 F   0  0  0  0  0  0  0  0  0  0  0  0
   41.3110   31.7660   39.0220 O   0  0  0  0  0  0  0  0  0  0  0  0
   42.0150   33.7220   37.4680 O   0  0  0  0  0  0  0  0  0  0  0  0
   41.5080   32.2710   37.4140 P   0  0  2  0  0  0  0  0  0  0  0  0
   39.9790   32.2910   36.6940 O   0  0  0  0  0  0  0  0  0  0  0  0
   39.9700   31.6870   35.9160 H   0  0  0  0  0  0  0  0  0  0  0  0
   42.5880   31.3360   36.5570 O   0  0  0  0  0  0  0  0  0  0  0  0
   40.6870   29.5700   37.7610 H   0  0  0  0  0  0  0  0  0  0  0  0
   41.2270   29.4570   36.8560 N   0  0  0  0  0  0  0  0  0  0  0  0
   41.4020   28.0330   36.6490 C   0  0  0  0  0  2  0  0  0  0  0  0
   42.8000   27.8180   36.1560 C   0  0  0  0  0  2  0  0  0  0  0  0
   43.4440   29.1740   36.1110 C   0  0  0  0  0  2  0  0  0  0  0  0
   42.5650   30.0100   36.9850 C   0  0  1  0  0  3  0  0  0  0  0  0
  1  2  1  0  0  0  0
  2  3  2  0  0  0  0
  2 18  1  0  0  0  0
  3 11  1  0  0  0  0
  4  5  1  0  0  0  0
  4  3  1  0  0  0  0
  5 12  1  0  0  0  0
  6  5  1  0  0  0  0
  7  8  1  0  0  0  0
  7  6  2  0  0  0  0
  8  4  2  0  0  0  0
  9  8  1  0  0  0  0
  9  1  2  0  0  0  0
 10  1  1  0  0  0  0
 13  6  1  0  0  0  0
 14 20  1  0  0  0  0
 15 22  1  0  0  0  0
 15 14  2  0  0  0  0
 16 15  1  0  0  0  0
 17 16  2  0  0  0  0
 17 18  1  0  0  0  0
 18 19  2  0  0  0  0
 19 14  1  0  0  0  0
 21 16  1  0  0  0  0
 22 23  1  0  0  0  0
 22 24  1  0  0  0  0
 25 22  1  0  0  0  0
 26  9  1  0  0  0  0
 28 27  2  1  0  0  0
 28 26  1  0  0  0  0
 29 28  1  0  0  0  0
 30 29  1  0  0  0  0
 31 28  1  0  0  0  0
 33 37  1  0  0  0  0
 33 32  1  0  0  0  0
 34 33  1  0  0  0  0
 35 34  1  0  0  0  0
 36 35  1  0  0  0  0
 36 37  1  0  0  0  0
 37 31  1  6  0  0  0
M  END
>  <minimizedAffinity>
-6.49260998

$$$$

 OpenBabel03242513433D

 37 40  0  0  1  0  0  0  0  0999 V2000
   40.0450   30.8340   40.5400 C   0  0  0  0  0  0  0  0  0  0  0  0
   40.2550   30.0110   41.6270 C   0  0  0  0  0  0  0  0  0  0  0  0
   41.2140   30.3790   42.5410 C   0  0  0  0  0  0  0  0  0  0  0  0
   41.9630   31.5240   42.4140 C   0  0  0  0  0  0  0  0  0  0  0  0
   42.9470   32.1510   43.1070 N   0  0  0  0  0  0  0  0  0  0  0  0
   43.3140   33.2900   42.4780 C   0  0  0  0  0  0  0  0  0  0  0  0
   42.5500   33.3730   41.3810 N   0  0  0  0  0  0  0  0  0  0  0  0
   41.7240   32.3130   41.3220 C   0  0  0  0  0  0  0  0  0  0  0  0
   40.7840   32.0060   40.3740 C   0  0  0  0  0  0  0  0  0  0  0  0
   39.3180   30.6250   39.7790 H   0  0  0  0  0  0  0  0  0  0  0  0
   41.4120   29.7630   43.4090 H   0  0  0  0  0  0  0  0  0  0  0  0
   43.3380   31.7680   44.0030 H   0  0  0  0  0  0  0  0  0  0  0  0
   44.0830   33.9560   42.8470 H   0  0  0  0  0  0  0  0  0  0  0  0
   37.8930   27.2930   40.9720 C   0  0  0  0  0  0  0  0  0  0  0  0
   38.0100   26.4920   42.0990 C   0  0  0  0  0  0  0  0  0  0  0  0
   38.9240   26.9200   43.0810 C   0  0  0  0  0  0  0  0  0  0  0  0
   39.6320   28.0630   42.8950 N   0  0  0  0  0  0  0  0  0  0  0  0
   39.4710   28.7890   41.7840 C   0  0  0  0  0  0  0  0  0  0  0  0
   38.6160   28.4310   40.8140 N   0  0  0  0  0  0  0  0  0  0  0  0
   37.2130   27.0370   40.1670 H   0  0  0  0  0  0  0  0  0  0  0  0
   39.0140   26.2960   43.9600 H   0  0  0  0  0  0  0  0  0  0  0  0
   37.1840   25.2670   42.1890 C   0  0  0  0  0  0  0  0  0  0  0  0
   36.6580   25.0960   40.9360 F   0  0  0  0  0  0  0  0  0  0  0  0
   36.1920   25.4800   43.0930 F   0  0  0  0  0  0  0  0  0  0  0  0
   38.0190   24.2130   42.5930 F   0  0  0  0  0  0  0  0  0  0  0  0
   40.5780   32.8350   39.2870 O   0  0  0  0  0  0  0  0  0  0  0  0
   42.0060   33.8580   37.3760 O   0  0  0  0  0  0  0  0  0  0  0  0
   41.2300   32.5820   37.7400 P   0  0  2  0  0  0  0  0  0  0  0  0
   39.9380   32.4440   36.6590 O   0  0  0  0  0  0  0  0  0  0  0  0
   39.9750   31.5680   36.2070 H   0  0  0  0  0  0  0  0  0  0  0  0
   42.2500   31.2670   37.6620 O   0  0  0  0  0  0  0  0  0  0  0  0
   44.3030   32.9340   36.5710 H   0  0  0  0  0  0  0  0  0  0  0  0
   44.3220   31.8950   36.7770 N   0  0  0  0  0  0  0  0  0  0  0  0
   45.2450   31.3000   35.8310 C   0  0  0  0  0  2  0  0  0  0  0  0
   44.6370   30.0150   35.3570 C   0  0  0  0  0  2  0  0  0  0  0  0
   43.3070   29.8990   36.0450 C   0  0  0  0  0  2  0  0  0  0  0  0
   43.0280   31.2940   36.5060 C   0  0  1  0  0  3  0  0  0  0  0  0
  1  2  1  0  0  0  0
  2 18  1  0  0  0  0
  2  3  2  0  0  0  0
  3 11  1  0  0  0  0
  4  3  1  0  0  0  0
  4  5  1  0  0  0  0
  5 12  1  0  0  0  0
  6 13  1  0  0  0  0
  6  5  1  0  0  0  0
  7  6  2  0  0  0  0
  8  7  1  0  0  0  0
  8  4  2  0  0  0  0
  9  1  2  0  0  0  0
  9  8  1  0  0  0  0
 10  1  1  0  0  0  0
 14 15  1  0  0  0  0
 15 22  1  0  0  0  0
 15 16  2  0  0  0  0
 16 21  1  0  0  0  0
 17 16  1  0  0  0  0
 18 17  2  0  0  0  0
 19 14  2  0  0  0  0
 19 18  1  0  0  0  0
 20 14  1  0  0  0  0
 22 25  1  0  0  0  0
 22 24  1  0  0  0  0
 23 22  1  0  0  0  0
 26  9  1  0  0  0  0
 28 27  2  6  0  0  0
 28 26  1  0  0  0  0
 29 28  1  0  0  0  0
 30 29  1  0  0  0  0
 31 28  1  0  0  0  0
 32 33  1  0  0  0  0
 34 33  1  0  0  0  0
 35 34  1  0  0  0  0
 35 36  1  0  0  0  0
 36 37  1  0  0  0  0
 37 33  1  0  0  0  0
 37 31  1  1  0  0  0
M  END
>  <minimizedAffinity>
-6.27491522

$$$$

 OpenBabel03242513433D

 37 40  0  0  1  0  0  0  0  0999 V2000
   37.7330   28.6370   41.3430 C   0  0  0  0  0  0  0  0  0  0  0  0
   37.0130   27.6190   40.7530 C   0  0  0  0  0  0  0  0  0  0  0  0
   37.3170   26.3250   41.1020 C   0  0  0  0  0  0  0  0  0  0  0  0
   38.3010   26.0100   42.0080 C   0  0  0  0  0  0  0  0  0  0  0  0
   38.8300   24.8850   42.5500 N   0  0  0  0  0  0  0  0  0  0  0  0
   39.8160   25.1990   43.4210 C   0  0  0  0  0  0  0  0  0  0  0  0
   39.9010   26.5360   43.4200 N   0  0  0  0  0  0  0  0  0  0  0  0
   38.9910   27.0480   42.5710 C   0  0  0  0  0  0  0  0  0  0  0  0
   38.7400   28.3600   42.2680 C   0  0  0  0  0  0  0  0  0  0  0  0
   37.5630   29.6750   41.1290 H   0  0  0  0  0  0  0  0  0  0  0  0
   36.7760   25.4950   40.6630 H   0  0  0  0  0  0  0  0  0  0  0  0
   38.4900   23.9240   42.2990 H   0  0  0  0  0  0  0  0  0  0  0  0
   40.3830   24.4630   43.9750 H   0  0  0  0  0  0  0  0  0  0  0  0
   34.9300   27.5470   37.7430 C   0  0  0  0  0  0  0  0  0  0  0  0
   33.9810   28.5280   37.9910 C   0  0  0  0  0  0  0  0  0  0  0  0
   34.0850   29.2060   39.2200 C   0  0  0  0  0  0  0  0  0  0  0  0
   35.0780   28.8860   40.0880 N   0  0  0  0  0  0  0  0  0  0  0  0
   35.9620   27.9290   39.7870 C   0  0  0  0  0  0  0  0  0  0  0  0
   35.9120   27.2490   38.6320 N   0  0  0  0  0  0  0  0  0  0  0  0
   34.9230   26.9760   36.8210 H   0  0  0  0  0  0  0  0  0  0  0  0
   33.3450   29.9720   39.4120 H   0  0  0  0  0  0  0  0  0  0  0  0
   32.9440   28.7880   36.9670 C   0  0  0  0  0  0  0  0  0  0  0  0
   31.9530   29.4700   37.6220 F   0  0  0  0  0  0  0  0  0  0  0  0
   32.4760   27.5950   36.5130 F   0  0  0  0  0  0  0  0  0  0  0  0
   33.5370   29.5250   35.9300 F   0  0  0  0  0  0  0  0  0  0  0  0
   39.4650   29.3760   42.8620 O   0  0  0  0  0  0  0  0  0  0  0  0
   41.7920   29.4760   41.7160 O   0  0  0  0  0  0  0  0  0  0  0  0
   40.5850   30.3650   42.0560 P   0  0  2  0  0  0  0  0  0  0  0  0
   41.1080   31.5410   43.1520 O   0  0  0  0  0  0  0  0  0  0  0  0
   40.9050   32.4380   42.7990 H   0  0  0  0  0  0  0  0  0  0  0  0
   39.9800   31.0420   40.6590 O   0  0  0  0  0  0  0  0  0  0  0  0
   39.9450   33.4730   42.1670 H   0  0  0  0  0  0  0  0  0  0  0  0
   39.7370   33.3180   41.1400 N   0  0  0  0  0  0  0  0  0  0  0  0
   38.7910   34.3430   40.7470 C   0  0  0  0  0  2  0  0  0  0  0  0
   37.7710   33.6990   39.8580 C   0  0  0  0  0  2  0  0  0  0  0  0
   38.1470   32.2470   39.7710 C   0  0  0  0  0  2  0  0  0  0  0  0
   39.0580   32.0490   40.9390 C   0  0  1  0  0  3  0  0  0  0  0  0
  1  9  1  0  0  0  0
  2  3  1  0  0  0  0
  2  1  2  0  0  0  0
  3  4  2  0  0  0  0
  4  5  1  0  0  0  0
  4  8  1  0  0  0  0
  5  6  1  0  0  0  0
  6 13  1  0  0  0  0
  7  6  2  0  0  0  0
  8  7  1  0  0  0  0
  9  8  2  0  0  0  0
  9 26  1  0  0  0  0
 10  1  1  0  0  0  0
 11  3  1  0  0  0  0
 12  5  1  0  0  0  0
 14 15  2  0  0  0  0
 14 19  1  0  0  0  0
 15 16  1  0  0  0  0
 16 21  1  0  0  0  0
 16 17  2  0  0  0  0
 18 17  1  0  0  0  0
 18  2  1  0  0  0  0
 19 18  2  0  0  0  0
 20 14  1  0  0  0  0
 22 23  1  0  0  0  0
 22 15  1  0  0  0  0
 24 22  1  0  0  0  0
 25 22  1  0  0  0  0
 28 27  2  6  0  0  0
 28 26  1  0  0  0  0
 28 29  1  0  0  0  0
 30 29  1  0  0  0  0
 31 28  1  0  0  0  0
 33 32  1  0  0  0  0
 34 33  1  0  0  0  0
 35 34  1  0  0  0  0
 36 35  1  0  0  0  0
 36 37  1  0  0  0  0
 37 31  1  6  0  0  0
 37 33  1  0  0  0  0
M  END
>  <minimizedAffinity>
-5.87220669

$$$$

 OpenBabel03242513433D

 37 40  0  0  1  0  0  0  0  0999 V2000
   35.2260   29.2310   38.1070 C   0  0  0  0  0  0  0  0  0  0  0  0
   34.2980   28.4770   37.4190 C   0  0  0  0  0  0  0  0  0  0  0  0
   34.4270   27.1090   37.4460 C   0  0  0  0  0  0  0  0  0  0  0  0
   35.4360   26.4700   38.1270 C   0  0  0  0  0  0  0  0  0  0  0  0
   35.8320   25.1920   38.3460 N   0  0  0  0  0  0  0  0  0  0  0  0
   36.9390   25.1680   39.1240 C   0  0  0  0  0  0  0  0  0  0  0  0
   37.2340   26.4480   39.3910 N   0  0  0  0  0  0  0  0  0  0  0  0
   36.3350   27.2540   38.7960 C   0  0  0  0  0  0  0  0  0  0  0  0
   36.2650   28.6220   38.8110 C   0  0  0  0  0  0  0  0  0  0  0  0
   35.2010   30.3030   38.1400 H   0  0  0  0  0  0  0  0  0  0  0  0
   33.7210   26.4790   36.9200 H   0  0  0  0  0  0  0  0  0  0  0  0
   35.3210   24.3660   37.9480 H   0  0  0  0  0  0  0  0  0  0  0  0
   37.4350   24.2570   39.4310 H   0  0  0  0  0  0  0  0  0  0  0  0
   31.1020   30.0910   36.6540 C   0  0  0  0  0  0  0  0  0  0  0  0
   31.2020   30.3640   35.2970 C   0  0  0  0  0  0  0  0  0  0  0  0
   32.3980   29.9760   34.6650 C   0  0  0  0  0  0  0  0  0  0  0  0
   33.3770   29.3680   35.3820 N   0  0  0  0  0  0  0  0  0  0  0  0
   33.2170   29.1340   36.6880 C   0  0  0  0  0  0  0  0  0  0  0  0
   32.1000   29.4820   37.3450 N   0  0  0  0  0  0  0  0  0  0  0  0
   30.2160   30.3570   37.2190 H   0  0  0  0  0  0  0  0  0  0  0  0
   32.4740   30.1890   33.6070 H   0  0  0  0  0  0  0  0  0  0  0  0
   30.0660   31.0330   34.6230 C   0  0  0  0  0  0  0  0  0  0  0  0
   30.4520   32.3400   34.4810 F   0  0  0  0  0  0  0  0  0  0  0  0
   28.9750   30.9470   35.4270 F   0  0  0  0  0  0  0  0  0  0  0  0
   29.8460   30.3800   33.4000 F   0  0  0  0  0  0  0  0  0  0  0  0
   37.1980   29.3720   39.5020 O   0  0  0  0  0  0  0  0  0  0  0  0
   37.0960   28.7500   42.0210 O   0  0  0  0  0  0  0  0  0  0  0  0
   36.9880   29.9620   41.0800 P   0  0  2  0  0  0  0  0  0  0  0  0
   35.4110   30.5590   41.1950 O   0  0  0  0  0  0  0  0  0  0  0  0
   35.4340   31.5140   41.4400 H   0  0  0  0  0  0  0  0  0  0  0  0
   38.1200   31.1060   41.5120 O   0  0  0  0  0  0  0  0  0  0  0  0
   36.6610   32.0420   39.2370 H   0  0  0  0  0  0  0  0  0  0  0  0
   37.0440   32.5890   40.0590 N   0  0  0  0  0  0  0  0  0  0  0  0
   37.3340   33.9240   39.5730 C   0  0  0  0  0  2  0  0  0  0  0  0
   38.6400   34.3480   40.1720 C   0  0  0  0  0  2  0  0  0  0  0  0
   39.1150   33.1930   41.0070 C   0  0  0  0  0  2  0  0  0  0  0  0
   38.3160   32.0380   40.4950 C   0  0  1  0  0  3  0  0  0  0  0  0
  1 10  1  0  0  0  0
  1  9  1  0  0  0  0
  2  3  1  0  0  0  0
  2  1  2  0  0  0  0
  3  4  2  0  0  0  0
  4  5  1  0  0  0  0
  4  8  1  0  0  0  0
  5  6  1  0  0  0  0
  6  7  2  0  0  0  0
  6 13  1  0  0  0  0
  8  9  2  0  0  0  0
  8  7  1  0  0  0  0
  9 26  1  0  0  0  0
 11  3  1  0  0  0  0
 12  5  1  0  0  0  0
 14 20  1  0  0  0  0
 14 19  1  0  0  0  0
 15 14  2  0  0  0  0
 16 15  1  0  0  0  0
 16 17  2  0  0  0  0
 17 18  1  0  0  0  0
 18 19  2  0  0  0  0
 18  2  1  0  0  0  0
 21 16  1  0  0  0  0
 22 15  1  0  0  0  0
 22 24  1  0  0  0  0
 23 22  1  0  0  0  0
 25 22  1  0  0  0  0
 26 28  1  0  0  0  0
 28 29  1  0  0  0  0
 28 31  1  0  0  0  0
 28 27  2  1  0  0  0
 29 30  1  0  0  0  0
 32 33  1  0  0  0  0
 33 37  1  0  0  0  0
 34 33  1  0  0  0  0
 34 35  1  0  0  0  0
 35 36  1  0  0  0  0
 37 36  1  0  0  0  0
 37 31  1  1  0  0  0
M  END
>  <minimizedAffinity>
-5.81455231

$$$$

 OpenBabel03242513433D

 37 40  0  0  1  0  0  0  0  0999 V2000
   36.7100   30.1850   38.8840 C   0  0  0  0  0  0  0  0  0  0  0  0
   35.6620   29.2980   39.0190 C   0  0  0  0  0  0  0  0  0  0  0  0
   35.5200   28.6420   40.2180 C   0  0  0  0  0  0  0  0  0  0  0  0
   36.3760   28.8330   41.2770 C   0  0  0  0  0  0  0  0  0  0  0  0
   36.5110   28.3630   42.5420 N   0  0  0  0  0  0  0  0  0  0  0  0
   37.5820   28.9310   43.1430 C   0  0  0  0  0  0  0  0  0  0  0  0
   38.1180   29.7640   42.2410 N   0  0  0  0  0  0  0  0  0  0  0  0
   37.4020   29.7200   41.1020 C   0  0  0  0  0  0  0  0  0  0  0  0
   37.6010   30.4080   39.9340 C   0  0  0  0  0  0  0  0  0  0  0  0
   36.8960   30.7400   37.9840 H   0  0  0  0  0  0  0  0  0  0  0  0
   34.7120   27.9370   40.3680 H   0  0  0  0  0  0  0  0  0  0  0  0
   35.8540   27.6580   42.9560 H   0  0  0  0  0  0  0  0  0  0  0  0
   37.8860   28.7090   44.1580 H   0  0  0  0  0  0  0  0  0  0  0  0
   34.3660   28.6130   35.6640 C   0  0  0  0  0  0  0  0  0  0  0  0
   32.9910   28.6710   35.8380 C   0  0  0  0  0  0  0  0  0  0  0  0
   32.5330   28.9510   37.1390 C   0  0  0  0  0  0  0  0  0  0  0  0
   33.4250   29.1480   38.1430 N   0  0  0  0  0  0  0  0  0  0  0  0
   34.7400   29.0790   37.9080 C   0  0  0  0  0  0  0  0  0  0  0  0
   35.2340   28.8150   36.6890 N   0  0  0  0  0  0  0  0  0  0  0  0
   34.8030   28.4030   34.6950 H   0  0  0  0  0  0  0  0  0  0  0  0
   31.4610   28.9960   37.2740 H   0  0  0  0  0  0  0  0  0  0  0  0
   32.1170   28.4370   34.6660 C   0  0  0  0  0  0  0  0  0  0  0  0
   31.8780   29.6800   34.1420 F   0  0  0  0  0  0  0  0  0  0  0  0
   30.9570   27.8750   35.0970 F   0  0  0  0  0  0  0  0  0  0  0  0
   32.7970   27.5810   33.7850 F   0  0  0  0  0  0  0  0  0  0  0  0
   38.6540   31.2950   39.8050 O   0  0  0  0  0  0  0  0  0  0  0  0
   39.0780   33.0330   41.6850 O   0  0  0  0  0  0  0  0  0  0  0  0
   38.5930   32.9370   40.2290 P   0  0  2  0  0  0  0  0  0  0  0  0
   36.9710   33.4120   40.1990 O   0  0  0  0  0  0  0  0  0  0  0  0
   36.8520   34.1490   39.5550 H   0  0  0  0  0  0  0  0  0  0  0  0
   39.5430   33.9040   39.2610 O   0  0  0  0  0  0  0  0  0  0  0  0
   40.2340   31.4860   37.8960 H   0  0  0  0  0  0  0  0  0  0  0  0
   40.5020   32.4850   37.6670 N   0  0  0  0  0  0  0  0  0  0  0  0
   41.7880   32.4290   37.0010 C   0  0  0  0  0  2  0  0  0  0  0  0
   42.6220   33.5540   37.5350 C   0  0  0  0  0  2  0  0  0  0  0  0
   41.7780   34.2520   38.5630 C   0  0  0  0  0  2  0  0  0  0  0  0
   40.7150   33.2510   38.8840 C   0  0  1  0  0  3  0  0  0  0  0  0
  1  2  2  0  0  0  0
  1  9  1  0  0  0  0
  2  3  1  0  0  0  0
  3 11  1  0  0  0  0
  3  4  2  0  0  0  0
  4  5  1  0  0  0  0
  5 12  1  0  0  0  0
  5  6  1  0  0  0  0
  6 13  1  0  0  0  0
  7  6  2  0  0  0  0
  8  4  1  0  0  0  0
  8  7  1  0  0  0  0
  9  8  2  0  0  0  0
 10  1  1  0  0  0  0
 14 15  2  0  0  0  0
 14 19  1  0  0  0  0
 15 16  1  0  0  0  0
 16 21  1  0  0  0  0
 16 17  2  0  0  0  0
 18 17  1  0  0  0  0
 18  2  1  0  0  0  0
 19 18  2  0  0  0  0
 20 14  1  0  0  0  0
 22 24  1  0  0  0  0
 22 15  1  0  0  0  0
 23 22  1  0  0  0  0
 25 22  1  0  0  0  0
 26  9  1  0  0  0  0
 26 28  1  0  0  0  0
 28 27  2  1  0  0  0
 29 28  1  0  0  0  0
 30 29  1  0  0  0  0
 31 28  1  0  0  0  0
 33 32  1  0  0  0  0
 33 37  1  0  0  0  0
 34 35  1  0  0  0  0
 34 33  1  0  0  0  0
 35 36  1  0  0  0  0
 36 37  1  0  0  0  0
 37 31  1  6  0  0  0
M  END
>  <minimizedAffinity>
-5.73216391

$$$$

 OpenBabel03242513433D

 37 40  0  0  1  0  0  0  0  0999 V2000
   39.8770   30.1750   40.5220 C   0  0  0  0  0  0  0  0  0  0  0  0
   38.5490   29.8320   40.6740 C   0  0  0  0  0  0  0  0  0  0  0  0
   37.6120   30.8370   40.6240 C   0  0  0  0  0  0  0  0  0  0  0  0
   37.9440   32.1560   40.4300 C   0  0  0  0  0  0  0  0  0  0  0  0
   37.2920   33.3410   40.3340 N   0  0  0  0  0  0  0  0  0  0  0  0
   38.1720   34.3490   40.1340 C   0  0  0  0  0  0  0  0  0  0  0  0
   39.3860   33.7830   40.1050 N   0  0  0  0  0  0  0  0  0  0  0  0
   39.2710   32.4540   40.2830 C   0  0  0  0  0  0  0  0  0  0  0  0
   40.2570   31.5030   40.3220 C   0  0  0  0  0  0  0  0  0  0  0  0
   40.6740   29.4570   40.5470 H   0  0  0  0  0  0  0  0  0  0  0  0
   36.5590   30.6120   40.7390 H   0  0  0  0  0  0  0  0  0  0  0  0
   36.2480   33.4190   40.4100 H   0  0  0  0  0  0  0  0  0  0  0  0
   37.8800   35.3850   40.0270 H   0  0  0  0  0  0  0  0  0  0  0  0
   36.7830   26.8500   41.8520 C   0  0  0  0  0  0  0  0  0  0  0  0
   37.4830   25.8110   41.2560 C   0  0  0  0  0  0  0  0  0  0  0  0
   38.5730   26.1740   40.4430 C   0  0  0  0  0  0  0  0  0  0  0  0
   38.8890   27.4830   40.2780 N   0  0  0  0  0  0  0  0  0  0  0  0
   38.1720   28.4370   40.8820 C   0  0  0  0  0  0  0  0  0  0  0  0
   37.1230   28.1510   41.6670 N   0  0  0  0  0  0  0  0  0  0  0  0
   35.9300   26.6600   42.4930 H   0  0  0  0  0  0  0  0  0  0  0  0
   39.1190   25.3620   39.9800 H   0  0  0  0  0  0  0  0  0  0  0  0
   37.0430   24.4210   41.5110 C   0  0  0  0  0  0  0  0  0  0  0  0
   38.1980   23.6900   41.6090 F   0  0  0  0  0  0  0  0  0  0  0  0
   36.3060   24.0000   40.4510 F   0  0  0  0  0  0  0  0  0  0  0  0
   36.2800   24.4190   42.6900 F   0  0  0  0  0  0  0  0  0  0  0  0
   41.5850   31.8530   40.1680 O   0  0  0  0  0  0  0  0  0  0  0  0
   42.2200   31.7110   42.6810 O   0  0  0  0  0  0  0  0  0  0  0  0
   42.5670   32.4860   41.4000 P   0  0  2  0  0  0  0  0  0  0  0  0
   42.1120   34.0960   41.6370 O   0  0  0  0  0  0  0  0  0  0  0  0
   42.8860   34.6870   41.4830 H   0  0  0  0  0  0  0  0  0  0  0  0
   44.1970   32.3390   41.0840 O   0  0  0  0  0  0  0  0  0  0  0  0
   42.7670   33.0220   38.7020 H   0  0  0  0  0  0  0  0  0  0  0  0
   43.6920   33.3960   39.0590 N   0  0  0  0  0  0  0  0  0  0  0  0
   44.4640   33.7810   37.8950 C   0  0  0  0  0  2  0  0  0  0  0  0
   45.8780   33.3410   38.1260 C   0  0  0  0  0  2  0  0  0  0  0  0
   45.8920   32.6580   39.4640 C   0  0  0  0  0  2  0  0  0  0  0  0
   44.4520   32.3450   39.7140 C   0  0  1  0  0  3  0  0  0  0  0  0
  1 10  1  0  0  0  0
  1  2  1  0  0  0  0
  2 18  1  0  0  0  0
  3  2  2  0  0  0  0
  3 11  1  0  0  0  0
  4  3  1  0  0  0  0
  5 12  1  0  0  0  0
  5  4  1  0  0  0  0
  6  5  1  0  0  0  0
  7  6  2  0  0  0  0
  7  8  1  0  0  0  0
  8  9  1  0  0  0  0
  8  4  2  0  0  0  0
  9  1  2  0  0  0  0
 13  6  1  0  0  0  0
 14 20  1  0  0  0  0
 15 22  1  0  0  0  0
 15 14  2  0  0  0  0
 16 15  1  0  0  0  0
 17 16  2  0  0  0  0
 17 18  1  0  0  0  0
 18 19  2  0  0  0  0
 19 14  1  0  0  0  0
 21 16  1  0  0  0  0
 22 23  1  0  0  0  0
 22 25  1  0  0  0  0
 24 22  1  0  0  0  0
 26  9  1  0  0  0  0
 26 28  1  0  0  0  0
 28 29  1  0  0  0  0
 28 27  2  1  0  0  0
 30 29  1  0  0  0  0
 31 28  1  0  0  0  0
 32 33  1  0  0  0  0
 33 37  1  0  0  0  0
 34 35  1  0  0  0  0
 34 33  1  0  0  0  0
 35 36  1  0  0  0  0
 36 37  1  0  0  0  0
 37 31  1  1  0  0  0
M  END
>  <minimizedAffinity>
-5.66667461

$$$$

 OpenBabel03242513433D

 37 40  0  0  1  0  0  0  0  0999 V2000
   37.3770   28.0460   39.1780 C   0  0  0  0  0  0  0  0  0  0  0  0
   36.7500   27.5700   38.0460 C   0  0  0  0  0  0  0  0  0  0  0  0
   36.2500   26.2890   38.0730 C   0  0  0  0  0  0  0  0  0  0  0  0
   36.3510   25.4740   39.1750 C   0  0  0  0  0  0  0  0  0  0  0  0
   35.9810   24.2150   39.5160 N   0  0  0  0  0  0  0  0  0  0  0  0
   36.3620   23.9390   40.7850 C   0  0  0  0  0  0  0  0  0  0  0  0
   36.9750   25.0410   41.2370 N   0  0  0  0  0  0  0  0  0  0  0  0
   36.9800   25.9840   40.2770 C   0  0  0  0  0  0  0  0  0  0  0  0
   37.5010   27.2510   40.3180 C   0  0  0  0  0  0  0  0  0  0  0  0
   37.7960   29.0320   39.2450 H   0  0  0  0  0  0  0  0  0  0  0  0
   35.7500   25.8750   37.2060 H   0  0  0  0  0  0  0  0  0  0  0  0
   35.4720   23.5770   38.8560 H   0  0  0  0  0  0  0  0  0  0  0  0
   36.1730   22.9930   41.2740 H   0  0  0  0  0  0  0  0  0  0  0  0
   36.7500   30.5110   35.8670 C   0  0  0  0  0  0  0  0  0  0  0  0
   36.4010   29.9890   34.6300 C   0  0  0  0  0  0  0  0  0  0  0  0
   36.1690   28.6020   34.5760 C   0  0  0  0  0  0  0  0  0  0  0  0
   36.2910   27.8510   35.7000 N   0  0  0  0  0  0  0  0  0  0  0  0
   36.6310   28.4180   36.8620 C   0  0  0  0  0  0  0  0  0  0  0  0
   36.8650   29.7340   36.9740 N   0  0  0  0  0  0  0  0  0  0  0  0
   36.9460   31.5690   35.9970 H   0  0  0  0  0  0  0  0  0  0  0  0
   35.8960   28.1960   33.6110 H   0  0  0  0  0  0  0  0  0  0  0  0
   36.2990   30.9090   33.4740 C   0  0  0  0  0  0  0  0  0  0  0  0
   36.6330   30.1520   32.3810 F   0  0  0  0  0  0  0  0  0  0  0  0
   37.1970   31.9150   33.6430 F   0  0  0  0  0  0  0  0  0  0  0  0
   34.9870   31.4040   33.4300 F   0  0  0  0  0  0  0  0  0  0  0  0
   38.1280   27.7220   41.4560 O   0  0  0  0  0  0  0  0  0  0  0  0
   38.7420   29.5540   43.1900 O   0  0  0  0  0  0  0  0  0  0  0  0
   37.5320   28.9670   42.4440 P   0  0  2  0  0  0  0  0  0  0  0  0
   36.5160   28.2610   43.5960 O   0  0  0  0  0  0  0  0  0  0  0  0
   35.6120   28.6460   43.5210 H   0  0  0  0  0  0  0  0  0  0  0  0
   36.7640   30.1750   41.5910 O   0  0  0  0  0  0  0  0  0  0  0  0
   39.6000   30.4020   41.2920 H   0  0  0  0  0  0  0  0  0  0  0  0
   38.8370   30.5340   40.5690 N   0  0  0  0  0  0  0  0  0  0  0  0
   39.3390   31.4890   39.6020 C   0  0  0  0  0  2  0  0  0  0  0  0
   38.2160   32.4220   39.2630 C   0  0  0  0  0  2  0  0  0  0  0  0
   37.0430   31.9870   40.0950 C   0  0  0  0  0  2  0  0  0  0  0  0
   37.6640   31.1500   41.1670 C   0  0  1  0  0  3  0  0  0  0  0  0
  1 10  1  0  0  0  0
  1  9  1  0  0  0  0
  2  3  1  0  0  0  0
  2  1  2  0  0  0  0
  3  4  2  0  0  0  0
  4  5  1  0  0  0  0
  4  8  1  0  0  0  0
  5  6  1  0  0  0  0
  6  7  2  0  0  0  0
  6 13  1  0  0  0  0
  8  9  2  0  0  0  0
  8  7  1  0  0  0  0
  9 26  1  0  0  0  0
 11  3  1  0  0  0  0
 12  5  1  0  0  0  0
 14 20  1  0  0  0  0
 14 19  1  0  0  0  0
 15 14  2  0  0  0  0
 16 15  1  0  0  0  0
 16 17  2  0  0  0  0
 17 18  1  0  0  0  0
 18 19  2  0  0  0  0
 18  2  1  0  0  0  0
 21 16  1  0  0  0  0
 22 24  1  0  0  0  0
 22 15  1  0  0  0  0
 23 22  1  0  0  0  0
 25 22  1  0  0  0  0
 26 28  1  0  0  0  0
 28 27  2  1  0  0  0
 28 29  1  0  0  0  0
 30 29  1  0  0  0  0
 31 28  1  0  0  0  0
 33 37  1  0  0  0  0
 33 32  1  0  0  0  0
 34 33  1  0  0  0  0
 35 34  1  0  0  0  0
 35 36  1  0  0  0  0
 36 37  1  0  0  0  0
 37 31  1  6  0  0  0
M  END
>  <minimizedAffinity>
-5.64396334

$$$$

 OpenBabel03242513433D

 37 40  0  0  1  0  0  0  0  0999 V2000
   36.8490   27.2060   39.3140 C   0  0  0  0  0  0  0  0  0  0  0  0
   36.7530   28.5700   39.1300 C   0  0  0  0  0  0  0  0  0  0  0  0
   36.7810   29.3770   40.2420 C   0  0  0  0  0  0  0  0  0  0  0  0
   36.8990   28.8810   41.5190 C   0  0  0  0  0  0  0  0  0  0  0  0
   36.9550   29.3820   42.7780 N   0  0  0  0  0  0  0  0  0  0  0  0
   37.0780   28.3800   43.6780 C   0  0  0  0  0  0  0  0  0  0  0  0
   37.0990   27.2430   42.9700 N   0  0  0  0  0  0  0  0  0  0  0  0
   36.9910   27.5240   41.6580 C   0  0  0  0  0  0  0  0  0  0  0  0
   36.9710   26.6620   40.5940 C   0  0  0  0  0  0  0  0  0  0  0  0
   36.8360   26.5030   38.5040 H   0  0  0  0  0  0  0  0  0  0  0  0
   36.7080   30.4530   40.1430 H   0  0  0  0  0  0  0  0  0  0  0  0
   36.9060   30.4110   42.9790 H   0  0  0  0  0  0  0  0  0  0  0  0
   37.1420   28.5400   44.7470 H   0  0  0  0  0  0  0  0  0  0  0  0
   35.7960   28.9760   35.6200 C   0  0  0  0  0  0  0  0  0  0  0  0
   36.4040   30.1710   35.2620 C   0  0  0  0  0  0  0  0  0  0  0  0
   37.1460   30.8230   36.2640 C   0  0  0  0  0  0  0  0  0  0  0  0
   37.2380   30.2760   37.5030 N   0  0  0  0  0  0  0  0  0  0  0  0
   36.6270   29.1200   37.7830 C   0  0  0  0  0  0  0  0  0  0  0  0
   35.9050   28.4540   36.8680 N   0  0  0  0  0  0  0  0  0  0  0  0
   35.2060   28.4090   34.9090 H   0  0  0  0  0  0  0  0  0  0  0  0
   37.6200   31.7540   35.9840 H   0  0  0  0  0  0  0  0  0  0  0  0
   36.2320   30.6680   33.8780 C   0  0  0  0  0  0  0  0  0  0  0  0
   36.7010   29.6630   33.0740 F   0  0  0  0  0  0  0  0  0  0  0  0
   36.9860   31.7880   33.7240 F   0  0  0  0  0  0  0  0  0  0  0  0
   34.8690   30.9460   33.6860 F   0  0  0  0  0  0  0  0  0  0  0  0
   37.0670   25.2960   40.7850 O   0  0  0  0  0  0  0  0  0  0  0  0
   38.3030   23.8330   39.0330 O   0  0  0  0  0  0  0  0  0  0  0  0
   38.4530   24.3700   40.4660 P   0  0  2  0  0  0  0  0  0  0  0  0
   38.4330   23.0440   41.5140 O   0  0  0  0  0  0  0  0  0  0  0  0
   39.2450   23.0490   42.0720 H   0  0  0  0  0  0  0  0  0  0  0  0
   39.8690   25.2400   40.5900 O   0  0  0  0  0  0  0  0  0  0  0  0
   42.3870   24.0910   41.3140 H   0  0  0  0  0  0  0  0  0  0  0  0
   41.9840   25.0360   41.5700 N   0  0  0  0  0  0  0  0  0  0  0  0
   42.5440   25.3940   42.8580 C   0  0  0  0  0  2  0  0  0  0  0  0
   41.4440   25.9980   43.6760 C   0  0  0  0  0  2  0  0  0  0  0  0
   40.2100   25.9530   42.8210 C   0  0  0  0  0  2  0  0  0  0  0  0
   40.5470   24.9440   41.7710 C   0  0  1  0  0  3  0  0  0  0  0  0
  1  9  1  0  0  0  0
  2  1  2  0  0  0  0
  2  3  1  0  0  0  0
  3  4  2  0  0  0  0
  4  8  1  0  0  0  0
  4  5  1  0  0  0  0
  5 12  1  0  0  0  0
  5  6  1  0  0  0  0
  6 13  1  0  0  0  0
  7  6  2  0  0  0  0
  8  7  1  0  0  0  0
  9 26  1  0  0  0  0
  9  8  2  0  0  0  0
 10  1  1  0  0  0  0
 11  3  1  0  0  0  0
 14 19  1  0  0  0  0
 15 14  2  0  0  0  0
 15 16  1  0  0  0  0
 16 17  2  0  0  0  0
 17 18  1  0  0  0  0
 18  2  1  0  0  0  0
 19 18  2  0  0  0  0
 20 14  1  0  0  0  0
 21 16  1  0  0  0  0
 22 15  1  0  0  0  0
 23 22  1  0  0  0  0
 24 22  1  0  0  0  0
 25 22  1  0  0  0  0
 28 27  2  6  0  0  0
 28 31  1  0  0  0  0
 28 26  1  0  0  0  0
 28 29  1  0  0  0  0
 29 30  1  0  0  0  0
 32 33  1  0  0  0  0
 33 37  1  0  0  0  0
 33 34  1  0  0  0  0
 34 35  1  0  0  0  0
 36 35  1  0  0  0  0
 37 31  1  6  0  0  0
 37 36  1  0  0  0  0
M  END
>  <minimizedAffinity>
-5.61026144

$$$$
