
 OpenBabel03252507493D

 42 44  0  0  1  0  0  0  0  0999 V2000
   47.9240   33.6550   40.3510 C   0  0  0  0  0  0  0  0  0  0  0  0
   47.0790   32.9600   40.3330 H   0  0  0  0  0  0  0  0  0  0  0  0
   48.0240   34.0260   39.2990 H   0  0  0  0  0  0  0  0  0  0  0  0
   49.1740   32.9990   40.7780 C   0  0  0  0  0  0  0  0  0  0  0  0
   49.6620   31.9780   39.9770 C   0  0  0  0  0  0  0  0  0  0  0  0
   50.8240   31.3060   40.2950 C   0  0  0  0  0  0  0  0  0  0  0  0
   51.4710   31.7060   41.4500 N   0  0  0  0  0  0  0  0  0  0  0  0
   50.9580   32.7160   42.2110 C   0  0  0  0  0  0  0  0  0  0  0  0
   49.8350   33.3360   41.8660 N   0  0  0  0  0  0  0  0  0  0  0  0
   51.2160   30.5100   39.6850 H   0  0  0  0  0  0  0  0  0  0  0  0
   51.5450   32.9530   43.0970 H   0  0  0  0  0  0  0  0  0  0  0  0
   48.7720   31.5120   38.4980 S   0  0  0  0  0  0  0  0  0  0  0  0
   49.4950   32.3070   37.0400 C   0  0  0  0  0  0  0  0  0  0  0  0
   50.4550   32.7510   37.3020 H   0  0  0  0  0  0  0  0  0  0  0  0
   49.5780   31.5200   36.2550 H   0  0  0  0  0  0  0  0  0  0  0  0
   48.5730   33.4090   36.5860 C   0  0  0  0  0  0  0  0  0  0  0  0
   49.0270   34.4150   36.6940 H   0  0  0  0  0  0  0  0  0  0  0  0
   47.6380   33.3840   37.1910 H   0  0  0  0  0  0  0  0  0  0  0  0
   48.2340   33.1580   35.2170 N   0  0  0  0  0  0  0  0  0  0  0  0
   47.9100   34.0350   34.7580 H   0  0  0  0  0  0  0  0  0  0  0  0
   47.5040   32.4290   35.1060 H   0  0  0  0  0  0  0  0  0  0  0  0
   47.5500   34.8270   41.1900 C   0  0  0  0  0  0  0  0  0  0  0  0
   48.1840   34.7700   42.1190 H   0  0  0  0  0  0  0  0  0  0  0  0
   47.8220   35.8190   40.7390 H   0  0  0  0  0  0  0  0  0  0  0  0
   46.1430   34.8030   41.6690 C   0  0  0  0  0  0  0  0  0  0  0  0
   45.7770   35.6060   42.7960 C   0  0  0  0  0  0  0  0  0  0  0  0
   43.9980   35.2450   42.9920 S   0  0  0  0  0  0  0  0  0  0  0  0
   44.0460   34.0500   41.4960 C   0  0  0  0  0  0  0  0  0  0  0  0
   45.1410   34.1250   41.1930 N   0  0  0  0  0  0  0  0  0  0  0  0
   46.4040   36.2570   43.3750 H   0  0  0  0  0  0  0  0  0  0  0  0
   42.9310   33.3560   41.0400 O   0  0  0  0  0  0  0  0  0  0  0  0
   40.9200   33.1300   39.3200 O   0  0  0  0  0  0  0  0  0  0  0  0
   42.2090   33.9160   39.6100 P   0  0  1  0  0  0  0  0  0  0  0  0
   41.7820   35.5420   39.8530 O   0  0  0  0  0  0  0  0  0  0  0  0
   42.1330   36.1300   39.1570 H   0  0  0  0  0  0  0  0  0  0  0  0
   43.2820   33.8310   38.3170 O   0  0  0  0  0  0  0  0  0  0  0  0
   42.0640   31.3600   37.5900 H   0  0  0  0  0  0  0  0  0  0  0  0
   42.8670   31.8740   37.2170 N   0  0  0  0  0  0  0  0  0  0  0  0
   43.7140   31.1300   36.3120 C   0  0  0  0  0  2  0  0  0  0  0  0
   45.0910   31.7410   36.4070 C   0  0  0  0  0  2  0  0  0  0  0  0
   45.1320   32.3900   37.7720 C   0  0  0  0  0  2  0  0  0  0  0  0
   43.7100   32.5110   38.2020 C   0  0  1  0  0  3  0  0  0  0  0  0
  1  4  1  0  0  0  0
  1 22  1  0  0  0  0
  2  1  1  0  0  0  0
  3  1  1  0  0  0  0
  4  9  1  0  0  0  0
  5  6  1  0  0  0  0
  5  4  2  0  0  0  0
  6  7  2  0  0  0  0
  7  8  1  0  0  0  0
  8 11  1  0  0  0  0
  9  8  2  0  0  0  0
 10  6  1  0  0  0  0
 12  5  1  0  0  0  0
 13 14  1  0  0  0  0
 13 12  1  0  0  0  0
 15 13  1  0  0  0  0
 16 17  1  0  0  0  0
 16 13  1  0  0  0  0
 16 18  1  0  0  0  0
 19 16  1  0  0  0  0
 20 19  1  0  0  0  0
 21 19  1  0  0  0  0
 22 25  1  0  0  0  0
 22 23  1  0  0  0  0
 24 22  1  0  0  0  0
 25 26  2  0  0  0  0
 26 27  1  0  0  0  0
 26 30  1  0  0  0  0
 28 27  1  0  0  0  0
 29 28  2  0  0  0  0
 29 25  1  0  0  0  0
 31 28  1  0  0  0  0
 33 32  2  6  0  0  0
 33 34  1  0  0  0  0
 33 31  1  0  0  0  0
 35 34  1  0  0  0  0
 36 33  1  0  0  0  0
 38 37  1  0  0  0  0
 38 42  1  0  0  0  0
 39 40  1  0  0  0  0
 39 38  1  0  0  0  0
 40 41  1  0  0  0  0
 41 42  1  0  0  0  0
 42 36  1  6  0  0  0
M  END
>  <minimizedAffinity>
-4.2269206

>  <minimizedRMSD>
1.58885968

$$$$
