
 OpenBabel03242518293D

 18 19  0  0  1  0  0  0  0  0999 V2000
   36.9950   29.2060   41.8350 C   0  0  0  0  0  0  0  0  0  0  0  0
   36.4350   27.9510   42.0980 C   0  0  0  0  0  0  0  0  0  0  0  0
   37.1560   27.0800   42.9310 C   0  0  0  0  0  0  0  0  0  0  0  0
   38.3390   27.4890   43.4330 N   0  0  0  0  0  0  0  0  0  0  0  0
   38.8420   28.7210   43.1470 C   0  0  0  0  0  0  0  0  0  0  0  0
   38.1660   29.5650   42.3520 N   0  0  0  0  0  0  0  0  0  0  0  0
   35.5070   27.5920   41.7220 H   0  0  0  0  0  0  0  0  0  0  0  0
   36.7360   26.0960   43.1490 H   0  0  0  0  0  0  0  0  0  0  0  0
   39.7970   29.0010   43.5750 H   0  0  0  0  0  0  0  0  0  0  0  0
   36.1930   30.0190   40.9810 C   0  0  0  0  0  0  0  0  0  0  0  0
   35.2240   29.6640   40.2770 O   0  0  0  0  0  0  0  0  0  0  0  0
   36.5610   31.3660   40.9530 O   0  0  0  0  0  0  0  0  0  0  0  0
   36.4440   33.8350   40.7530 H   0  0  0  0  0  0  0  0  0  0  0  0
   37.0810   33.4830   40.0070 N   0  0  0  0  0  0  0  0  0  0  0  0
   38.4640   33.8120   40.2460 C   0  0  0  0  0  2  0  0  0  0  0  0
   39.1810   32.8350   39.3450 C   0  0  0  0  0  2  0  0  0  0  0  0
   38.3370   31.6030   39.2870 C   0  0  0  0  0  2  0  0  0  0  0  0
   37.0020   32.0550   39.8170 C   0  0  1  0  0  3  0  0  0  0  0  0
  1  2  2  0  0  0  0
  1  6  1  0  0  0  0
  2  3  1  0  0  0  0
  3  8  1  0  0  0  0
  3  4  2  0  0  0  0
  5  4  1  0  0  0  0
  5  9  1  0  0  0  0
  6  5  2  0  0  0  0
  7  2  1  0  0  0  0
 10  1  1  0  0  0  0
 11 10  2  0  0  0  0
 12 10  1  0  0  0  0
 14 15  1  0  0  0  0
 14 13  1  0  0  0  0
 16 15  1  0  0  0  0
 17 16  1  0  0  0  0
 17 18  1  0  0  0  0
 18 14  1  0  0  0  0
 18 12  1  1  0  0  0
M  END
>  <minimizedAffinity>
-4.53072071

$$$$

 OpenBabel03242518293D

 18 19  0  0  1  0  0  0  0  0999 V2000
   38.0600   26.8860   42.7930 C   0  0  0  0  0  0  0  0  0  0  0  0
   39.2260   26.8980   43.5660 C   0  0  0  0  0  0  0  0  0  0  0  0
   39.9460   25.6970   43.6720 C   0  0  0  0  0  0  0  0  0  0  0  0
   39.4860   24.6030   43.0300 N   0  0  0  0  0  0  0  0  0  0  0  0
   38.3450   24.6440   42.2900 C   0  0  0  0  0  0  0  0  0  0  0  0
   37.6450   25.7840   42.1780 N   0  0  0  0  0  0  0  0  0  0  0  0
   39.6210   27.7370   44.0870 H   0  0  0  0  0  0  0  0  0  0  0  0
   40.8590   25.6830   44.2710 H   0  0  0  0  0  0  0  0  0  0  0  0
   38.0190   23.7370   41.7940 H   0  0  0  0  0  0  0  0  0  0  0  0
   37.3980   28.1490   42.7450 C   0  0  0  0  0  0  0  0  0  0  0  0
   37.7910   29.2370   43.2160 O   0  0  0  0  0  0  0  0  0  0  0  0
   36.1680   28.1310   42.0840 O   0  0  0  0  0  0  0  0  0  0  0  0
   34.9850   30.3090   41.9850 H   0  0  0  0  0  0  0  0  0  0  0  0
   35.4320   30.1450   41.0580 N   0  0  0  0  0  0  0  0  0  0  0  0
   36.5520   31.0180   40.8110 C   0  0  0  0  0  2  0  0  0  0  0  0
   37.2740   30.2980   39.6990 C   0  0  0  0  0  2  0  0  0  0  0  0
   37.0460   28.8360   39.9120 C   0  0  0  0  0  2  0  0  0  0  0  0
   35.8930   28.7900   40.8790 C   0  0  1  0  0  3  0  0  0  0  0  0
  1  2  1  0  0  0  0
  2  3  2  0  0  0  0
  2  7  1  0  0  0  0
  3  8  1  0  0  0  0
  4  3  1  0  0  0  0
  5  4  2  0  0  0  0
  6  5  1  0  0  0  0
  6  1  2  0  0  0  0
  9  5  1  0  0  0  0
 10  1  1  0  0  0  0
 10 11  2  0  0  0  0
 12 10  1  0  0  0  0
 14 13  1  0  0  0  0
 15 14  1  0  0  0  0
 16 17  1  0  0  0  0
 16 15  1  0  0  0  0
 17 18  1  0  0  0  0
 18 14  1  0  0  0  0
 18 12  1  1  0  0  0
M  END
>  <minimizedAffinity>
-4.44509935

$$$$

 OpenBabel03242518293D

 18 19  0  0  1  0  0  0  0  0999 V2000
   38.5110   32.0160   40.4550 C   0  0  0  0  0  0  0  0  0  0  0  0
   39.3590   31.5150   39.4620 C   0  0  0  0  0  0  0  0  0  0  0  0
   40.2900   32.4020   38.8960 C   0  0  0  0  0  0  0  0  0  0  0  0
   40.3220   33.6780   39.3310 N   0  0  0  0  0  0  0  0  0  0  0  0
   39.4740   34.1170   40.3000 C   0  0  0  0  0  0  0  0  0  0  0  0
   38.5780   33.2830   40.8520 N   0  0  0  0  0  0  0  0  0  0  0  0
   39.3650   30.5190   39.0910 H   0  0  0  0  0  0  0  0  0  0  0  0
   40.9620   32.0310   38.1190 H   0  0  0  0  0  0  0  0  0  0  0  0
   39.5400   35.1520   40.6150 H   0  0  0  0  0  0  0  0  0  0  0  0
   37.6010   31.0440   40.9680 C   0  0  0  0  0  0  0  0  0  0  0  0
   36.3580   31.1340   41.0600 O   0  0  0  0  0  0  0  0  0  0  0  0
   38.2050   29.8660   41.4100 O   0  0  0  0  0  0  0  0  0  0  0  0
   36.3070   29.6670   42.9960 H   0  0  0  0  0  0  0  0  0  0  0  0
   37.1340   29.2010   43.4260 N   0  0  0  0  0  0  0  0  0  0  0  0
   37.0080   27.7660   43.4750 C   0  0  0  0  0  2  0  0  0  0  0  0
   38.4400   27.3300   43.6740 C   0  0  0  0  0  2  0  0  0  0  0  0
   39.2970   28.3360   42.9760 C   0  0  0  0  0  2  0  0  0  0  0  0
   38.3740   29.5030   42.7520 C   0  0  1  0  0  3  0  0  0  0  0  0
  1  6  1  0  0  0  0
  1 10  1  0  0  0  0
  2  1  2  0  0  0  0
  3  4  2  0  0  0  0
  3  2  1  0  0  0  0
  4  5  1  0  0  0  0
  5  9  1  0  0  0  0
  5  6  2  0  0  0  0
  7  2  1  0  0  0  0
  8  3  1  0  0  0  0
 10 11  2  0  0  0  0
 10 12  1  0  0  0  0
 13 14  1  0  0  0  0
 14 15  1  0  0  0  0
 15 16  1  0  0  0  0
 17 16  1  0  0  0  0
 18 12  1  6  0  0  0
 18 17  1  0  0  0  0
 18 14  1  0  0  0  0
M  END
>  <minimizedAffinity>
-4.34250689

$$$$

 OpenBabel03242518293D

 18 19  0  0  1  0  0  0  0  0999 V2000
   37.1370   26.6710   41.3530 C   0  0  0  0  0  0  0  0  0  0  0  0
   37.4890   25.8900   42.4580 C   0  0  0  0  0  0  0  0  0  0  0  0
   37.5260   24.4970   42.2830 C   0  0  0  0  0  0  0  0  0  0  0  0
   37.2260   23.9850   41.0720 N   0  0  0  0  0  0  0  0  0  0  0  0
   36.8900   24.7880   40.0270 C   0  0  0  0  0  0  0  0  0  0  0  0
   36.8490   26.1210   40.1770 N   0  0  0  0  0  0  0  0  0  0  0  0
   37.7310   26.2550   43.4280 H   0  0  0  0  0  0  0  0  0  0  0  0
   37.7980   23.8680   43.1340 H   0  0  0  0  0  0  0  0  0  0  0  0
   36.6570   24.3260   39.0750 H   0  0  0  0  0  0  0  0  0  0  0  0
   37.1260   28.0710   41.6260 C   0  0  0  0  0  0  0  0  0  0  0  0
   38.0990   28.8040   41.9020 O   0  0  0  0  0  0  0  0  0  0  0  0
   35.8610   28.6600   41.5690 O   0  0  0  0  0  0  0  0  0  0  0  0
   35.6240   31.0400   42.2300 H   0  0  0  0  0  0  0  0  0  0  0  0
   35.6500   30.9970   41.1880 N   0  0  0  0  0  0  0  0  0  0  0  0
   36.8720   31.5260   40.6350 C   0  0  0  0  0  2  0  0  0  0  0  0
   36.8670   30.9380   39.2440 C   0  0  0  0  0  2  0  0  0  0  0  0
   36.1860   29.6110   39.3390 C   0  0  0  0  0  2  0  0  0  0  0  0
   35.4810   29.6620   40.6680 C   0  0  1  0  0  3  0  0  0  0  0  0
  1 10  1  0  0  0  0
  1  2  1  0  0  0  0
  2  7  1  0  0  0  0
  3  2  2  0  0  0  0
  3  8  1  0  0  0  0
  4  3  1  0  0  0  0
  5  6  1  0  0  0  0
  5  4  2  0  0  0  0
  6  1  2  0  0  0  0
  9  5  1  0  0  0  0
 10 11  2  0  0  0  0
 12 10  1  0  0  0  0
 14 13  1  0  0  0  0
 15 14  1  0  0  0  0
 16 17  1  0  0  0  0
 16 15  1  0  0  0  0
 17 18  1  0  0  0  0
 18 14  1  0  0  0  0
 18 12  1  1  0  0  0
M  END
>  <minimizedAffinity>
-4.24361181

$$$$

 OpenBabel03242518293D

 18 19  0  0  1  0  0  0  0  0999 V2000
   37.8330   31.6850   40.6840 C   0  0  0  0  0  0  0  0  0  0  0  0
   36.9510   32.4750   39.9390 C   0  0  0  0  0  0  0  0  0  0  0  0
   37.3870   33.7580   39.5670 C   0  0  0  0  0  0  0  0  0  0  0  0
   38.6190   34.1610   39.9390 N   0  0  0  0  0  0  0  0  0  0  0  0
   39.4390   33.3540   40.6650 C   0  0  0  0  0  0  0  0  0  0  0  0
   39.0380   32.1260   41.0290 N   0  0  0  0  0  0  0  0  0  0  0  0
   35.9740   32.1950   39.6270 H   0  0  0  0  0  0  0  0  0  0  0  0
   36.7140   34.3920   38.9850 H   0  0  0  0  0  0  0  0  0  0  0  0
   40.4190   33.7260   40.9380 H   0  0  0  0  0  0  0  0  0  0  0  0
   37.3040   30.4020   41.0160 C   0  0  0  0  0  0  0  0  0  0  0  0
   36.1110   30.0340   40.9790 O   0  0  0  0  0  0  0  0  0  0  0  0
   38.2610   29.4710   41.4230 O   0  0  0  0  0  0  0  0  0  0  0  0
   36.4970   29.5420   43.1650 H   0  0  0  0  0  0  0  0  0  0  0  0
   37.2800   28.9570   43.5260 N   0  0  0  0  0  0  0  0  0  0  0  0
   36.9500   27.5550   43.5940 C   0  0  0  0  0  2  0  0  0  0  0  0
   38.3140   26.9140   43.6740 C   0  0  0  0  0  2  0  0  0  0  0  0
   39.2470   27.7880   42.8990 C   0  0  0  0  0  2  0  0  0  0  0  0
   38.4890   29.0790   42.7480 C   0  0  1  0  0  3  0  0  0  0  0  0
  1 10  1  0  0  0  0
  1  6  1  0  0  0  0
  2  1  2  0  0  0  0
  3  2  1  0  0  0  0
  3  4  2  0  0  0  0
  4  5  1  0  0  0  0
  5  9  1  0  0  0  0
  5  6  2  0  0  0  0
  7  2  1  0  0  0  0
  8  3  1  0  0  0  0
 10 12  1  0  0  0  0
 11 10  2  0  0  0  0
 13 14  1  0  0  0  0
 14 15  1  0  0  0  0
 15 16  1  0  0  0  0
 17 16  1  0  0  0  0
 18 12  1  6  0  0  0
 18 17  1  0  0  0  0
 18 14  1  0  0  0  0
M  END
>  <minimizedAffinity>
-4.21755075

$$$$

 OpenBabel03242518293D

 18 19  0  0  1  0  0  0  0  0999 V2000
   38.2400   28.5920   42.0180 C   0  0  0  0  0  0  0  0  0  0  0  0
   37.0530   28.0090   42.4720 C   0  0  0  0  0  0  0  0  0  0  0  0
   37.0480   26.6190   42.6720 C   0  0  0  0  0  0  0  0  0  0  0  0
   38.1740   25.9210   42.4210 N   0  0  0  0  0  0  0  0  0  0  0  0
   39.3040   26.5360   41.9790 C   0  0  0  0  0  0  0  0  0  0  0  0
   39.3260   27.8630   41.7830 N   0  0  0  0  0  0  0  0  0  0  0  0
   36.1460   28.5230   42.6810 H   0  0  0  0  0  0  0  0  0  0  0  0
   36.1310   26.1430   43.0270 H   0  0  0  0  0  0  0  0  0  0  0  0
   40.1830   25.9290   41.7920 H   0  0  0  0  0  0  0  0  0  0  0  0
   38.1490   30.0050   41.8440 C   0  0  0  0  0  0  0  0  0  0  0  0
   39.0840   30.8320   41.8000 O   0  0  0  0  0  0  0  0  0  0  0  0
   36.8450   30.4870   41.7060 O   0  0  0  0  0  0  0  0  0  0  0  0
   36.9230   32.9350   41.3130 H   0  0  0  0  0  0  0  0  0  0  0  0
   36.6990   32.4720   40.4070 N   0  0  0  0  0  0  0  0  0  0  0  0
   37.7850   32.5310   39.4610 C   0  0  0  0  0  2  0  0  0  0  0  0
   37.4130   31.4410   38.4860 C   0  0  0  0  0  2  0  0  0  0  0  0
   36.6920   30.3910   39.2670 C   0  0  0  0  0  2  0  0  0  0  0  0
   36.3270   31.0860   40.5520 C   0  0  1  0  0  3  0  0  0  0  0  0
  1  2  1  0  0  0  0
  2  3  2  0  0  0  0
  2  7  1  0  0  0  0
  3  8  1  0  0  0  0
  4  3  1  0  0  0  0
  5  4  2  0  0  0  0
  6  5  1  0  0  0  0
  6  1  2  0  0  0  0
  9  5  1  0  0  0  0
 10  1  1  0  0  0  0
 11 10  2  0  0  0  0
 12 10  1  0  0  0  0
 14 18  1  0  0  0  0
 14 13  1  0  0  0  0
 15 14  1  0  0  0  0
 16 17  1  0  0  0  0
 16 15  1  0  0  0  0
 17 18  1  0  0  0  0
 18 12  1  1  0  0  0
M  END
>  <minimizedAffinity>
-4.0797596

$$$$

 OpenBabel03242518293D

 18 19  0  0  1  0  0  0  0  0999 V2000
   38.9150   31.2000   41.1240 C   0  0  0  0  0  0  0  0  0  0  0  0
   39.9490   32.1420   41.1090 C   0  0  0  0  0  0  0  0  0  0  0  0
   39.6670   33.4060   40.5660 C   0  0  0  0  0  0  0  0  0  0  0  0
   38.4280   33.6490   40.0910 N   0  0  0  0  0  0  0  0  0  0  0  0
   37.4560   32.6980   40.1290 C   0  0  0  0  0  0  0  0  0  0  0  0
   37.7090   31.4840   40.6440 N   0  0  0  0  0  0  0  0  0  0  0  0
   40.9370   31.9890   41.4720 H   0  0  0  0  0  0  0  0  0  0  0  0
   40.4600   34.1570   40.5440 H   0  0  0  0  0  0  0  0  0  0  0  0
   36.4770   32.9440   39.7340 H   0  0  0  0  0  0  0  0  0  0  0  0
   39.2960   29.9480   41.6930 C   0  0  0  0  0  0  0  0  0  0  0  0
   39.9360   29.0240   41.1480 O   0  0  0  0  0  0  0  0  0  0  0  0
   38.8900   29.7680   43.0170 O   0  0  0  0  0  0  0  0  0  0  0  0
   36.6470   30.0340   41.9900 H   0  0  0  0  0  0  0  0  0  0  0  0
   36.6470   29.1450   42.5350 N   0  0  0  0  0  0  0  0  0  0  0  0
   36.6230   27.9720   41.6970 C   0  0  0  0  0  2  0  0  0  0  0  0
   37.0930   26.8970   42.6470 C   0  0  0  0  0  2  0  0  0  0  0  0
   38.0420   27.5490   43.6000 C   0  0  0  0  0  2  0  0  0  0  0  0
   37.7780   29.0200   43.4220 C   0  0  1  0  0  3  0  0  0  0  0  0
  1 10  1  0  0  0  0
  2  1  1  0  0  0  0
  2  7  1  0  0  0  0
  3  2  2  0  0  0  0
  4  5  2  0  0  0  0
  4  3  1  0  0  0  0
  5  6  1  0  0  0  0
  6  1  2  0  0  0  0
  8  3  1  0  0  0  0
  9  5  1  0  0  0  0
 10 12  1  0  0  0  0
 11 10  2  0  0  0  0
 13 14  1  0  0  0  0
 14 18  1  0  0  0  0
 15 14  1  0  0  0  0
 15 16  1  0  0  0  0
 16 17  1  0  0  0  0
 18 12  1  6  0  0  0
 18 17  1  0  0  0  0
M  END
>  <minimizedAffinity>
-4.05412674

$$$$

 OpenBabel03242518293D

 18 19  0  0  1  0  0  0  0  0999 V2000
   38.2130   31.5650   40.7020 C   0  0  0  0  0  0  0  0  0  0  0  0
   37.2370   31.9400   39.7740 C   0  0  0  0  0  0  0  0  0  0  0  0
   37.1850   33.2920   39.3970 C   0  0  0  0  0  0  0  0  0  0  0  0
   38.0690   34.1540   39.9410 N   0  0  0  0  0  0  0  0  0  0  0  0
   39.0000   33.7380   40.8410 C   0  0  0  0  0  0  0  0  0  0  0  0
   39.0630   32.4500   41.2120 N   0  0  0  0  0  0  0  0  0  0  0  0
   36.5230   31.2920   39.3230 H   0  0  0  0  0  0  0  0  0  0  0  0
   36.4300   33.6060   38.6730 H   0  0  0  0  0  0  0  0  0  0  0  0
   39.6870   34.4710   41.2490 H   0  0  0  0  0  0  0  0  0  0  0  0
   38.1880   30.1750   41.0230 C   0  0  0  0  0  0  0  0  0  0  0  0
   39.0390   29.3070   40.7310 O   0  0  0  0  0  0  0  0  0  0  0  0
   37.0680   29.7710   41.7520 O   0  0  0  0  0  0  0  0  0  0  0  0
   34.7200   30.2540   41.1130 H   0  0  0  0  0  0  0  0  0  0  0  0
   34.9480   29.2900   40.7890 N   0  0  0  0  0  0  0  0  0  0  0  0
   35.0610   29.1900   39.3560 C   0  0  0  0  0  2  0  0  0  0  0  0
   35.8270   27.8990   39.1900 C   0  0  0  0  0  2  0  0  0  0  0  0
   36.7280   27.7770   40.3760 C   0  0  0  0  0  2  0  0  0  0  0  0
   36.1690   28.7720   41.3570 C   0  0  1  0  0  3  0  0  0  0  0  0
  1 10  1  0  0  0  0
  1  6  1  0  0  0  0
  2  1  2  0  0  0  0
  3  2  1  0  0  0  0
  3  4  2  0  0  0  0
  4  5  1  0  0  0  0
  5  6  2  0  0  0  0
  5  9  1  0  0  0  0
  7  2  1  0  0  0  0
  8  3  1  0  0  0  0
 10 12  1  0  0  0  0
 11 10  2  0  0  0  0
 14 13  1  0  0  0  0
 14 18  1  0  0  0  0
 15 14  1  0  0  0  0
 16 15  1  0  0  0  0
 16 17  1  0  0  0  0
 17 18  1  0  0  0  0
 18 12  1  6  0  0  0
M  END
>  <minimizedAffinity>
-3.92939091

$$$$

 OpenBabel03242518293D

 18 19  0  0  1  0  0  0  0  0999 V2000
   38.0420   26.8680   42.7730 C   0  0  0  0  0  0  0  0  0  0  0  0
   37.2640   25.9140   42.1090 C   0  0  0  0  0  0  0  0  0  0  0  0
   37.7490   24.5970   42.0670 C   0  0  0  0  0  0  0  0  0  0  0  0
   38.9260   24.3170   42.6630 N   0  0  0  0  0  0  0  0  0  0  0  0
   39.6460   25.2810   43.2970 C   0  0  0  0  0  0  0  0  0  0  0  0
   39.1970   26.5450   43.3460 N   0  0  0  0  0  0  0  0  0  0  0  0
   36.3340   26.0950   41.6270 H   0  0  0  0  0  0  0  0  0  0  0  0
   37.1570   23.8360   41.5530 H   0  0  0  0  0  0  0  0  0  0  0  0
   40.5850   25.0040   43.7600 H   0  0  0  0  0  0  0  0  0  0  0  0
   37.4700   28.1750   42.7630 C   0  0  0  0  0  0  0  0  0  0  0  0
   37.8670   29.1880   43.3780 O   0  0  0  0  0  0  0  0  0  0  0  0
   36.3360   28.3030   41.9590 O   0  0  0  0  0  0  0  0  0  0  0  0
   38.1620   29.5330   40.8150 H   0  0  0  0  0  0  0  0  0  0  0  0
   37.2690   29.7590   40.3270 N   0  0  0  0  0  0  0  0  0  0  0  0
   37.1780   29.1650   39.0170 C   0  0  0  0  0  2  0  0  0  0  0  0
   35.6950   29.2300   38.7430 C   0  0  0  0  0  2  0  0  0  0  0  0
   35.0070   29.0930   40.0630 C   0  0  0  0  0  2  0  0  0  0  0  0
   36.0970   29.3560   41.0670 C   0  0  1  0  0  3  0  0  0  0  0  0
  1  6  1  0  0  0  0
  2  1  2  0  0  0  0
  3  2  1  0  0  0  0
  3  4  2  0  0  0  0
  4  5  1  0  0  0  0
  5  6  2  0  0  0  0
  5  9  1  0  0  0  0
  7  2  1  0  0  0  0
  8  3  1  0  0  0  0
 10  1  1  0  0  0  0
 10 11  2  0  0  0  0
 12 10  1  0  0  0  0
 14 13  1  0  0  0  0
 14 18  1  0  0  0  0
 15 14  1  0  0  0  0
 16 15  1  0  0  0  0
 16 17  1  0  0  0  0
 17 18  1  0  0  0  0
 18 12  1  6  0  0  0
M  END
>  <minimizedAffinity>
-3.86392593

$$$$
