
 OpenBabel03242523503D

 40 43  0  0  1  0  0  0  0  0999 V2000
   42.8290   34.4640   38.7760 C   0  0  1  0  0  0  0  0  0  0  0  0
   42.9830   35.1740   40.1240 C   0  0  1  0  0  0  0  0  0  0  0  0
   41.7030   35.4770   40.6270 O   0  0  0  0  0  0  0  0  0  0  0  0
   40.7930   35.8080   39.6220 C   0  0  0  0  0  0  0  0  0  0  0  0
   40.4300   34.5660   38.8080 C   0  0  2  0  0  0  0  0  0  0  0  0
   41.5990   33.5870   38.9330 C   0  0  1  0  0  0  0  0  0  0  0  0
   43.7380   33.8440   38.5740 H   0  0  0  0  0  0  0  0  0  0  0  0
   43.5860   36.0890   40.0370 H   0  0  0  0  0  0  0  0  0  0  0  0
   41.1070   36.6530   39.0050 H   0  0  0  0  0  0  0  0  0  0  0  0
   39.8730   36.1070   40.1590 H   0  0  0  0  0  0  0  0  0  0  0  0
   39.4780   34.1290   39.1130 H   0  0  0  0  0  0  0  0  0  0  0  0
   41.5740   33.2120   39.9690 H   0  0  0  0  0  0  0  0  0  0  0  0
   42.6270   35.3910   37.7560 O   0  0  0  0  0  0  0  0  0  0  0  0
   43.2650   36.1350   37.8230 H   0  0  0  0  0  0  0  0  0  0  0  0
   40.4530   34.9470   37.4480 O   0  0  0  0  0  0  0  0  0  0  0  0
   39.5940   34.6900   37.0150 H   0  0  0  0  0  0  0  0  0  0  0  0
   43.4850   34.2090   41.0080 O   0  0  0  0  0  0  0  0  0  0  0  0
   44.5970   34.3290   41.7380 C   0  0  0  0  0  0  0  0  0  0  0  0
   45.8420   34.4620   41.1280 C   0  0  0  0  0  0  0  0  0  0  0  0
   46.9660   34.5870   41.9300 C   0  0  0  0  0  0  0  0  0  0  0  0
   46.8220   34.5760   43.3020 N   0  0  0  0  0  0  0  0  0  0  0  0
   45.6060   34.4460   43.8590 C   0  0  0  0  0  0  0  0  0  0  0  0
   44.4970   34.3230   43.0890 N   0  0  0  0  0  0  0  0  0  0  0  0
   45.9580   34.4700   40.0590 H   0  0  0  0  0  0  0  0  0  0  0  0
   45.4900   34.4370   44.9360 H   0  0  0  0  0  0  0  0  0  0  0  0
   48.3370   34.7130   41.3240 C   0  0  0  0  0  0  0  0  0  0  0  0
   49.0680   36.0220   41.5120 C   0  0  0  0  0  0  0  0  0  0  0  0
   49.4980   34.7070   42.1740 C   0  0  0  0  0  0  0  0  0  0  0  0
   48.3740   34.2690   40.3080 H   0  0  0  0  0  0  0  0  0  0  0  0
   48.5320   36.7760   42.0900 H   0  0  0  0  0  0  0  0  0  0  0  0
   49.6800   36.3570   40.6540 H   0  0  0  0  0  0  0  0  0  0  0  0
   49.2910   34.7300   43.2840 H   0  0  0  0  0  0  0  0  0  0  0  0
   50.4840   34.2980   41.9130 H   0  0  0  0  0  0  0  0  0  0  0  0
   41.5070   32.5880   37.9840 O   0  0  0  0  0  0  0  0  0  0  0  0
   40.7050   31.9810   40.3810 H   0  0  0  0  0  0  0  0  0  0  0  0
   41.3950   31.3000   39.9580 N   0  0  0  0  0  0  0  0  0  0  0  0
   40.8730   29.9710   40.2440 C   0  0  0  0  0  2  0  0  0  0  0  0
   39.5210   30.0550   39.5550 C   0  0  0  0  0  2  0  0  0  0  0  0
   39.7190   31.0300   38.4060 C   0  0  0  0  0  2  0  0  0  0  0  0
   41.1950   31.3500   38.5020 C   0  0  1  0  0  3  0  0  0  0  0  0
  1  7  1  6  0  0  0
  1  6  1  0  0  0  0
  1  2  1  0  0  0  0
  2  8  1  6  0  0  0
  2  3  1  0  0  0  0
  2 17  1  0  0  0  0
  4 10  1  0  0  0  0
  4  3  1  0  0  0  0
  5  6  1  0  0  0  0
  5 11  1  1  0  0  0
  5  4  1  0  0  0  0
  6 12  1  1  0  0  0
  9  4  1  0  0  0  0
 13 14  1  0  0  0  0
 13  1  1  0  0  0  0
 15  5  1  0  0  0  0
 16 15  1  0  0  0  0
 17 18  1  0  0  0  0
 18 23  1  0  0  0  0
 19 18  2  0  0  0  0
 19 20  1  0  0  0  0
 20 21  2  0  0  0  0
 21 22  1  0  0  0  0
 22 25  1  0  0  0  0
 23 22  2  0  0  0  0
 24 19  1  0  0  0  0
 26 27  1  0  0  0  0
 26 20  1  0  0  0  0
 26 28  1  0  0  0  0
 27 30  1  0  0  0  0
 27 28  1  0  0  0  0
 28 32  1  0  0  0  0
 29 26  1  0  0  0  0
 31 27  1  0  0  0  0
 33 28  1  0  0  0  0
 34  6  1  0  0  0  0
 36 37  1  0  0  0  0
 36 35  1  0  0  0  0
 38 37  1  0  0  0  0
 39 40  1  0  0  0  0
 39 38  1  0  0  0  0
 40 34  1  1  0  0  0
 40 36  1  0  0  0  0
M  END
>  <minimizedAffinity>
-5.91257

>  <minimizedRMSD>
0.533019125

$$$$
