
 OpenBabel03242523503D

 40 43  0  0  1  0  0  0  0  0999 V2000
   42.8250   34.5380   38.6920 C   0  0  1  0  0  0  0  0  0  0  0  0
   42.9440   35.1540   40.0900 C   0  0  1  0  0  0  0  0  0  0  0  0
   41.6500   35.3350   40.6170 O   0  0  0  0  0  0  0  0  0  0  0  0
   40.7130   35.6810   39.6430 C   0  0  0  0  0  0  0  0  0  0  0  0
   40.4240   34.4840   38.7380 C   0  0  2  0  0  0  0  0  0  0  0  0
   41.6540   33.5750   38.7850 C   0  0  1  0  0  0  0  0  0  0  0  0
   43.7700   33.9950   38.4410 H   0  0  0  0  0  0  0  0  0  0  0  0
   43.4860   36.1090   40.0700 H   0  0  0  0  0  0  0  0  0  0  0  0
   40.9680   36.5890   39.0910 H   0  0  0  0  0  0  0  0  0  0  0  0
   39.7800   35.8790   40.2030 H   0  0  0  0  0  0  0  0  0  0  0  0
   39.5050   33.9640   39.0120 H   0  0  0  0  0  0  0  0  0  0  0  0
   41.6610   33.1220   39.7900 H   0  0  0  0  0  0  0  0  0  0  0  0
   42.5570   35.5250   37.7450 O   0  0  0  0  0  0  0  0  0  0  0  0
   43.1460   36.3010   37.8670 H   0  0  0  0  0  0  0  0  0  0  0  0
   40.4130   34.9670   37.4100 O   0  0  0  0  0  0  0  0  0  0  0  0
   39.5690   34.6880   36.9620 H   0  0  0  0  0  0  0  0  0  0  0  0
   43.5120   34.1590   40.8970 O   0  0  0  0  0  0  0  0  0  0  0  0
   44.6020   34.3040   41.6550 C   0  0  0  0  0  0  0  0  0  0  0  0
   45.8630   34.4280   41.0770 C   0  0  0  0  0  0  0  0  0  0  0  0
   46.9630   34.5800   41.9070 C   0  0  0  0  0  0  0  0  0  0  0  0
   46.7810   34.6030   43.2740 N   0  0  0  0  0  0  0  0  0  0  0  0
   45.5510   34.4800   43.7990 C   0  0  0  0  0  0  0  0  0  0  0  0
   44.4650   34.3310   43.0020 N   0  0  0  0  0  0  0  0  0  0  0  0
   46.0100   34.4110   40.0120 H   0  0  0  0  0  0  0  0  0  0  0  0
   45.4040   34.4970   44.8720 H   0  0  0  0  0  0  0  0  0  0  0  0
   48.3510   34.7000   41.3360 C   0  0  0  0  0  0  0  0  0  0  0  0
   49.0700   36.0170   41.5140 C   0  0  0  0  0  0  0  0  0  0  0  0
   49.4870   34.7190   42.2190 C   0  0  0  0  0  0  0  0  0  0  0  0
   48.4180   34.2330   40.3330 H   0  0  0  0  0  0  0  0  0  0  0  0
   48.5140   36.7810   42.0590 H   0  0  0  0  0  0  0  0  0  0  0  0
   49.7050   36.3350   40.6660 H   0  0  0  0  0  0  0  0  0  0  0  0
   49.2490   34.7670   43.3220 H   0  0  0  0  0  0  0  0  0  0  0  0
   50.4820   34.3090   41.9950 H   0  0  0  0  0  0  0  0  0  0  0  0
   41.6190   32.6460   37.7630 O   0  0  0  0  0  0  0  0  0  0  0  0
   41.6340   30.4660   36.3480 H   0  0  0  0  0  0  0  0  0  0  0  0
   41.0960   30.4010   37.2590 N   0  0  0  0  0  0  0  0  0  0  0  0
   41.4860   29.1340   37.8620 C   0  0  0  0  0  2  0  0  0  0  0  0
   42.9860   29.3440   37.9910 C   0  0  0  0  0  2  0  0  0  0  0  0
   43.1670   30.8440   38.1590 C   0  0  0  0  0  2  0  0  0  0  0  0
   41.7380   31.3410   38.1890 C   0  0  1  0  0  3  0  0  0  0  0  0
  1  7  1  6  0  0  0
  1  6  1  0  0  0  0
  1  2  1  0  0  0  0
  2  8  1  1  0  0  0
  2  3  1  0  0  0  0
  2 17  1  0  0  0  0
  4 10  1  0  0  0  0
  4  3  1  0  0  0  0
  5  6  1  0  0  0  0
  5 11  1  1  0  0  0
  5  4  1  0  0  0  0
  6 12  1  1  0  0  0
  9  4  1  0  0  0  0
 13 14  1  0  0  0  0
 13  1  1  0  0  0  0
 15  5  1  0  0  0  0
 16 15  1  0  0  0  0
 17 18  1  0  0  0  0
 18 23  1  0  0  0  0
 19 18  2  0  0  0  0
 19 20  1  0  0  0  0
 20 21  2  0  0  0  0
 21 22  1  0  0  0  0
 22 25  1  0  0  0  0
 23 22  2  0  0  0  0
 24 19  1  0  0  0  0
 26 27  1  0  0  0  0
 26 20  1  0  0  0  0
 26 28  1  0  0  0  0
 27 30  1  0  0  0  0
 27 28  1  0  0  0  0
 28 32  1  0  0  0  0
 29 26  1  0  0  0  0
 31 27  1  0  0  0  0
 33 28  1  0  0  0  0
 34  6  1  0  0  0  0
 35 36  1  0  0  0  0
 36 37  1  0  0  0  0
 36 40  1  0  0  0  0
 37 38  1  0  0  0  0
 38 39  1  0  0  0  0
 39 40  1  0  0  0  0
 40 34  1  6  0  0  0
M  END
>  <minimizedAffinity>
-5.65285063

>  <minimizedRMSD>
0.111939169

$$$$
