
 OpenBabel03242523533D

 40 43  0  0  1  0  0  0  0  0999 V2000
   39.2430   30.7070   40.2440 C   0  0  1  0  0  0  0  0  0  0  0  0
   40.3300   30.8910   41.3090 C   0  0  1  0  0  0  0  0  0  0  0  0
   40.6500   32.2600   41.3990 O   0  0  0  0  0  0  0  0  0  0  0  0
   40.5880   32.9110   40.1670 C   0  0  0  0  0  0  0  0  0  0  0  0
   39.1350   33.0470   39.7140 C   0  0  2  0  0  0  0  0  0  0  0  0
   38.3440   31.9230   40.3870 C   0  0  1  0  0  0  0  0  0  0  0  0
   38.6760   29.7640   40.4480 H   0  0  0  0  0  0  0  0  0  0  0  0
   41.2280   30.3010   41.0810 H   0  0  0  0  0  0  0  0  0  0  0  0
   41.2390   32.4740   39.4060 H   0  0  0  0  0  0  0  0  0  0  0  0
   40.9470   33.9370   40.3690 H   0  0  0  0  0  0  0  0  0  0  0  0
   38.7220   34.0350   39.9200 H   0  0  0  0  0  0  0  0  0  0  0  0
   38.2890   32.1860   41.4560 H   0  0  0  0  0  0  0  0  0  0  0  0
   39.8080   30.6770   38.9710 O   0  0  0  0  0  0  0  0  0  0  0  0
   40.5930   30.0880   38.9470 H   0  0  0  0  0  0  0  0  0  0  0  0
   39.1000   32.7080   38.3420 O   0  0  0  0  0  0  0  0  0  0  0  0
   38.6510   33.4340   37.8310 H   0  0  0  0  0  0  0  0  0  0  0  0
   39.7150   30.5960   42.5340 O   0  0  0  0  0  0  0  0  0  0  0  0
   39.2110   29.4090   42.8830 C   0  0  0  0  0  0  0  0  0  0  0  0
   40.0410   28.3060   43.0680 C   0  0  0  0  0  0  0  0  0  0  0  0
   39.4690   27.0970   43.4330 C   0  0  0  0  0  0  0  0  0  0  0  0
   38.1020   27.0190   43.6000 N   0  0  0  0  0  0  0  0  0  0  0  0
   37.3290   28.1020   43.4130 C   0  0  0  0  0  0  0  0  0  0  0  0
   37.8730   29.2920   43.0570 N   0  0  0  0  0  0  0  0  0  0  0  0
   41.1070   28.3630   42.9390 H   0  0  0  0  0  0  0  0  0  0  0  0
   36.2560   28.0430   43.5440 H   0  0  0  0  0  0  0  0  0  0  0  0
   40.3170   25.8690   43.6280 C   0  0  0  0  0  0  0  0  0  0  0  0
   39.7380   24.5430   43.1950 C   0  0  0  0  0  0  0  0  0  0  0  0
   40.9150   25.2260   42.4870 C   0  0  0  0  0  0  0  0  0  0  0  0
   40.8350   25.8850   44.6080 H   0  0  0  0  0  0  0  0  0  0  0  0
   38.7370   24.5900   42.7620 H   0  0  0  0  0  0  0  0  0  0  0  0
   39.9920   23.6770   43.8350 H   0  0  0  0  0  0  0  0  0  0  0  0
   40.6000   25.6260   41.4790 H   0  0  0  0  0  0  0  0  0  0  0  0
   41.8820   24.7050   42.4780 H   0  0  0  0  0  0  0  0  0  0  0  0
   37.1070   31.7680   39.7940 O   0  0  0  0  0  0  0  0  0  0  0  0
   34.7420   30.9580   40.5080 H   0  0  0  0  0  0  0  0  0  0  0  0
   35.5400   30.3510   40.8480 N   0  0  0  0  0  0  0  0  0  0  0  0
   35.1290   28.9760   40.6030 C   0  0  0  0  0  2  0  0  0  0  0  0
   34.9220   29.0170   39.0970 C   0  0  0  0  0  2  0  0  0  0  0  0
   35.8890   30.0740   38.5900 C   0  0  0  0  0  2  0  0  0  0  0  0
   36.6150   30.4820   39.8530 C   0  0  1  0  0  3  0  0  0  0  0  0
  1  6  1  0  0  0  0
  1  7  1  1  0  0  0
  1  2  1  0  0  0  0
  2  8  1  6  0  0  0
  2  3  1  0  0  0  0
  2 17  1  0  0  0  0
  4 10  1  0  0  0  0
  4  3  1  0  0  0  0
  5 11  1  1  0  0  0
  5  4  1  0  0  0  0
  5  6  1  0  0  0  0
  6 12  1  1  0  0  0
  9  4  1  0  0  0  0
 13  1  1  0  0  0  0
 14 13  1  0  0  0  0
 15  5  1  0  0  0  0
 16 15  1  0  0  0  0
 17 18  1  0  0  0  0
 18 23  2  0  0  0  0
 18 19  1  0  0  0  0
 19 20  2  0  0  0  0
 20 21  1  0  0  0  0
 20 26  1  0  0  0  0
 22 25  1  0  0  0  0
 22 21  2  0  0  0  0
 23 22  1  0  0  0  0
 24 19  1  0  0  0  0
 26 29  1  0  0  0  0
 27 26  1  0  0  0  0
 27 31  1  0  0  0  0
 28 27  1  0  0  0  0
 28 26  1  0  0  0  0
 30 27  1  0  0  0  0
 32 28  1  0  0  0  0
 33 28  1  0  0  0  0
 34  6  1  0  0  0  0
 35 36  1  0  0  0  0
 37 36  1  0  0  0  0
 38 37  1  0  0  0  0
 39 38  1  0  0  0  0
 39 40  1  0  0  0  0
 40 34  1  6  0  0  0
 40 36  1  0  0  0  0
M  END
>  <minimizedAffinity>
-5.92653084

$$$$

 OpenBabel03242523533D

 40 43  0  0  1  0  0  0  0  0999 V2000
   36.9440   31.7130   39.7600 C   0  0  1  0  0  0  0  0  0  0  0  0
   37.4290   31.5470   38.3160 C   0  0  1  0  0  0  0  0  0  0  0  0
   38.8300   31.6940   38.2880 O   0  0  0  0  0  0  0  0  0  0  0  0
   39.2930   32.6350   39.2090 C   0  0  0  0  0  0  0  0  0  0  0  0
   39.1490   32.0970   40.6320 C   0  0  2  0  0  0  0  0  0  0  0  0
   38.0200   31.0630   40.6120 C   0  0  1  0  0  0  0  0  0  0  0  0
   35.9630   31.1900   39.8870 H   0  0  0  0  0  0  0  0  0  0  0  0
   36.9550   32.2730   37.6410 H   0  0  0  0  0  0  0  0  0  0  0  0
   38.8600   33.6290   39.0760 H   0  0  0  0  0  0  0  0  0  0  0  0
   40.3790   32.7120   39.0150 H   0  0  0  0  0  0  0  0  0  0  0  0
   40.0830   31.6940   41.0240 H   0  0  0  0  0  0  0  0  0  0  0  0
   38.4140   30.1920   40.0640 H   0  0  0  0  0  0  0  0  0  0  0  0
   36.8280   33.0630   40.0840 O   0  0  0  0  0  0  0  0  0  0  0  0
   36.3640   33.5580   39.3740 H   0  0  0  0  0  0  0  0  0  0  0  0
   38.6270   33.1500   41.4170 O   0  0  0  0  0  0  0  0  0  0  0  0
   39.2030   33.2860   42.2170 H   0  0  0  0  0  0  0  0  0  0  0  0
   37.2140   30.2000   37.9940 O   0  0  0  0  0  0  0  0  0  0  0  0
   36.4010   29.7530   37.0330 C   0  0  0  0  0  0  0  0  0  0  0  0
   35.0890   29.3840   37.3210 C   0  0  0  0  0  0  0  0  0  0  0  0
   34.2850   28.9290   36.2870 C   0  0  0  0  0  0  0  0  0  0  0  0
   34.8020   28.8530   35.0110 N   0  0  0  0  0  0  0  0  0  0  0  0
   36.0720   29.2160   34.7670 C   0  0  0  0  0  0  0  0  0  0  0  0
   36.8720   29.6640   35.7660 N   0  0  0  0  0  0  0  0  0  0  0  0
   34.6820   29.4420   38.3140 H   0  0  0  0  0  0  0  0  0  0  0  0
   36.4810   29.1580   33.7660 H   0  0  0  0  0  0  0  0  0  0  0  0
   32.8660   28.5000   36.5450 C   0  0  0  0  0  0  0  0  0  0  0  0
   31.9500   29.4850   37.2330 C   0  0  0  0  0  0  0  0  0  0  0  0
   31.7960   29.0650   35.7660 C   0  0  0  0  0  0  0  0  0  0  0  0
   32.8170   27.4510   36.9010 H   0  0  0  0  0  0  0  0  0  0  0  0
   32.4020   30.4470   37.4820 H   0  0  0  0  0  0  0  0  0  0  0  0
   31.2230   29.0490   37.9430 H   0  0  0  0  0  0  0  0  0  0  0  0
   32.0860   29.9080   35.0740 H   0  0  0  0  0  0  0  0  0  0  0  0
   30.8710   28.5470   35.4740 H   0  0  0  0  0  0  0  0  0  0  0  0
   37.6040   30.7650   41.8950 O   0  0  0  0  0  0  0  0  0  0  0  0
   36.3060   29.3630   43.6570 H   0  0  0  0  0  0  0  0  0  0  0  0
   37.3480   29.1820   43.6280 N   0  0  0  0  0  0  0  0  0  0  0  0
   37.5050   27.7350   43.6760 C   0  0  0  0  0  2  0  0  0  0  0  0
   36.7270   27.3340   42.4330 C   0  0  0  0  0  2  0  0  0  0  0  0
   36.8630   28.5110   41.4800 C   0  0  0  0  0  2  0  0  0  0  0  0
   37.7770   29.4430   42.2450 C   0  0  1  0  0  3  0  0  0  0  0  0
  1  7  1  1  0  0  0
  1 13  1  0  0  0  0
  1  6  1  0  0  0  0
  2  8  1  6  0  0  0
  2  1  1  0  0  0  0
  3  2  1  0  0  0  0
  3  4  1  0  0  0  0
  4  5  1  0  0  0  0
  5 11  1  1  0  0  0
  5 15  1  0  0  0  0
  6 12  1  6  0  0  0
  6  5  1  0  0  0  0
  6 34  1  0  0  0  0
  9  4  1  0  0  0  0
 10  4  1  0  0  0  0
 14 13  1  0  0  0  0
 15 16  1  0  0  0  0
 17  2  1  0  0  0  0
 18 19  1  0  0  0  0
 18 17  1  0  0  0  0
 19 24  1  0  0  0  0
 20 26  1  0  0  0  0
 20 19  2  0  0  0  0
 21 20  1  0  0  0  0
 22 21  2  0  0  0  0
 22 23  1  0  0  0  0
 23 18  2  0  0  0  0
 25 22  1  0  0  0  0
 26 29  1  0  0  0  0
 26 27  1  0  0  0  0
 27 30  1  0  0  0  0
 27 31  1  0  0  0  0
 28 26  1  0  0  0  0
 28 27  1  0  0  0  0
 32 28  1  0  0  0  0
 33 28  1  0  0  0  0
 36 35  1  0  0  0  0
 36 37  1  0  0  0  0
 38 37  1  0  0  0  0
 39 40  1  0  0  0  0
 39 38  1  0  0  0  0
 40 34  1  6  0  0  0
 40 36  1  0  0  0  0
M  END
>  <minimizedAffinity>
-5.90353537

$$$$

 OpenBabel03242523533D

 40 43  0  0  1  0  0  0  0  0999 V2000
   35.9930   28.4760   40.8100 C   0  0  1  0  0  0  0  0  0  0  0  0
   36.3810   28.1750   39.3590 C   0  0  1  0  0  0  0  0  0  0  0  0
   37.0350   29.3010   38.8200 O   0  0  0  0  0  0  0  0  0  0  0  0
   36.5200   30.5050   39.3010 C   0  0  0  0  0  0  0  0  0  0  0  0
   36.9070   30.6970   40.7670 C   0  0  2  0  0  0  0  0  0  0  0  0
   37.1420   29.3050   41.3590 C   0  0  1  0  0  0  0  0  0  0  0  0
   35.8880   27.5170   41.3750 H   0  0  0  0  0  0  0  0  0  0  0  0
   35.5050   27.9130   38.7490 H   0  0  0  0  0  0  0  0  0  0  0  0
   35.4510   30.6320   39.1160 H   0  0  0  0  0  0  0  0  0  0  0  0
   37.0550   31.2890   38.7340 H   0  0  0  0  0  0  0  0  0  0  0  0
   37.7650   31.3590   40.8910 H   0  0  0  0  0  0  0  0  0  0  0  0
   38.0780   28.9360   40.9080 H   0  0  0  0  0  0  0  0  0  0  0  0
   34.8100   29.2090   40.8570 O   0  0  0  0  0  0  0  0  0  0  0  0
   34.1320   28.8240   40.2610 H   0  0  0  0  0  0  0  0  0  0  0  0
   35.7520   31.1570   41.4390 O   0  0  0  0  0  0  0  0  0  0  0  0
   35.9690   31.9880   41.9430 H   0  0  0  0  0  0  0  0  0  0  0  0
   37.3780   27.1930   39.4270 O   0  0  0  0  0  0  0  0  0  0  0  0
   37.1910   25.9210   39.7900 C   0  0  0  0  0  0  0  0  0  0  0  0
   36.3130   25.0990   39.0860 C   0  0  0  0  0  0  0  0  0  0  0  0
   36.1550   23.7860   39.5010 C   0  0  0  0  0  0  0  0  0  0  0  0
   36.8660   23.3310   40.5920 N   0  0  0  0  0  0  0  0  0  0  0  0
   37.7050   24.1500   41.2480 C   0  0  0  0  0  0  0  0  0  0  0  0
   37.8710   25.4360   40.8560 N   0  0  0  0  0  0  0  0  0  0  0  0
   35.7570   25.4500   38.2360 H   0  0  0  0  0  0  0  0  0  0  0  0
   38.2640   23.7950   42.1050 H   0  0  0  0  0  0  0  0  0  0  0  0
   35.2060   22.8600   38.7890 C   0  0  0  0  0  0  0  0  0  0  0  0
   33.8900   22.5530   39.4650 C   0  0  0  0  0  0  0  0  0  0  0  0
   34.0110   23.3890   38.1850 C   0  0  0  0  0  0  0  0  0  0  0  0
   35.7390   22.0010   38.3350 H   0  0  0  0  0  0  0  0  0  0  0  0
   33.7330   23.0440   40.4260 H   0  0  0  0  0  0  0  0  0  0  0  0
   33.5150   21.5200   39.3360 H   0  0  0  0  0  0  0  0  0  0  0  0
   33.7980   24.4780   38.3950 H   0  0  0  0  0  0  0  0  0  0  0  0
   33.5290   23.0090   37.2730 H   0  0  0  0  0  0  0  0  0  0  0  0
   37.1780   29.3560   42.7380 O   0  0  0  0  0  0  0  0  0  0  0  0
   38.2870   27.0890   42.1170 H   0  0  0  0  0  0  0  0  0  0  0  0
   38.2480   27.2940   43.1540 N   0  0  0  0  0  0  0  0  0  0  0  0
   39.5620   26.9500   43.6800 C   0  0  0  0  0  2  0  0  0  0  0  0
   40.4380   27.8780   42.8530 C   0  0  0  0  0  2  0  0  0  0  0  0
   39.5630   29.0810   42.5420 C   0  0  0  0  0  2  0  0  0  0  0  0
   38.2880   28.7570   43.2920 C   0  0  1  0  0  3  0  0  0  0  0  0
  1 13  1  0  0  0  0
  1  6  1  0  0  0  0
  1  7  1  1  0  0  0
  2  8  1  6  0  0  0
  2 17  1  0  0  0  0
  2  1  1  0  0  0  0
  3  4  1  0  0  0  0
  3  2  1  0  0  0  0
  4  5  1  0  0  0  0
  5 11  1  1  0  0  0
  5  6  1  0  0  0  0
  5 15  1  0  0  0  0
  6 12  1  6  0  0  0
  6 34  1  0  0  0  0
  9  4  1  0  0  0  0
 10  4  1  0  0  0  0
 14 13  1  0  0  0  0
 15 16  1  0  0  0  0
 17 18  1  0  0  0  0
 18 23  1  0  0  0  0
 19 20  1  0  0  0  0
 19 18  2  0  0  0  0
 20 21  2  0  0  0  0
 21 22  1  0  0  0  0
 22 25  1  0  0  0  0
 23 22  2  0  0  0  0
 24 19  1  0  0  0  0
 26 27  1  0  0  0  0
 26 20  1  0  0  0  0
 27 30  1  0  0  0  0
 28 32  1  0  0  0  0
 28 26  1  0  0  0  0
 28 27  1  0  0  0  0
 29 26  1  0  0  0  0
 31 27  1  0  0  0  0
 33 28  1  0  0  0  0
 35 36  1  0  0  0  0
 36 40  1  0  0  0  0
 36 37  1  0  0  0  0
 38 37  1  0  0  0  0
 39 38  1  0  0  0  0
 39 40  1  0  0  0  0
 40 34  1  6  0  0  0
M  END
>  <minimizedAffinity>
-5.82255459

$$$$

 OpenBabel03242523533D

 40 43  0  0  1  0  0  0  0  0999 V2000
   38.3610   32.7040   39.2700 C   0  0  1  0  0  0  0  0  0  0  0  0
   37.7880   31.4690   39.9730 C   0  0  1  0  0  0  0  0  0  0  0  0
   38.3110   30.3140   39.3590 O   0  0  0  0  0  0  0  0  0  0  0  0
   38.4920   30.4680   37.9840 C   0  0  0  0  0  0  0  0  0  0  0  0
   39.6560   31.4200   37.7080 C   0  0  2  0  0  0  0  0  0  0  0  0
   39.7930   32.3320   38.9290 C   0  0  1  0  0  0  0  0  0  0  0  0
   38.3300   33.5780   39.9670 H   0  0  0  0  0  0  0  0  0  0  0  0
   36.6900   31.4550   39.9420 H   0  0  0  0  0  0  0  0  0  0  0  0
   37.5780   30.7350   37.4470 H   0  0  0  0  0  0  0  0  0  0  0  0
   38.8130   29.4730   37.6260 H   0  0  0  0  0  0  0  0  0  0  0  0
   40.5800   30.8920   37.4690 H   0  0  0  0  0  0  0  0  0  0  0  0
   40.1870   31.6990   39.7400 H   0  0  0  0  0  0  0  0  0  0  0  0
   37.6470   32.9780   38.1050 O   0  0  0  0  0  0  0  0  0  0  0  0
   36.6800   32.9360   38.2660 H   0  0  0  0  0  0  0  0  0  0  0  0
   39.2350   32.2930   36.6800 O   0  0  0  0  0  0  0  0  0  0  0  0
   39.9070   32.2920   35.9450 H   0  0  0  0  0  0  0  0  0  0  0  0
   38.3510   31.4660   41.2560 O   0  0  0  0  0  0  0  0  0  0  0  0
   38.9090   30.4100   41.8560 C   0  0  0  0  0  0  0  0  0  0  0  0
   38.1240   29.3700   42.3470 C   0  0  0  0  0  0  0  0  0  0  0  0
   38.7520   28.2950   42.9580 C   0  0  0  0  0  0  0  0  0  0  0  0
   40.1270   28.2860   43.0640 N   0  0  0  0  0  0  0  0  0  0  0  0
   40.8540   29.3060   42.5800 C   0  0  0  0  0  0  0  0  0  0  0  0
   40.2570   30.3640   41.9790 N   0  0  0  0  0  0  0  0  0  0  0  0
   37.0520   29.3730   42.2670 H   0  0  0  0  0  0  0  0  0  0  0  0
   41.9340   29.3020   42.6620 H   0  0  0  0  0  0  0  0  0  0  0  0
   37.9510   27.1530   43.5240 C   0  0  0  0  0  0  0  0  0  0  0  0
   36.4610   27.3530   43.6790 C   0  0  0  0  0  0  0  0  0  0  0  0
   37.0870   26.3910   42.6610 C   0  0  0  0  0  0  0  0  0  0  0  0
   38.4750   26.6720   44.3730 H   0  0  0  0  0  0  0  0  0  0  0  0
   36.0840   28.3240   43.3540 H   0  0  0  0  0  0  0  0  0  0  0  0
   36.0060   26.8860   44.5720 H   0  0  0  0  0  0  0  0  0  0  0  0
   36.9710   26.7870   41.6100 H   0  0  0  0  0  0  0  0  0  0  0  0
   36.8630   25.3200   42.7610 H   0  0  0  0  0  0  0  0  0  0  0  0
   40.5940   33.4200   38.6420 O   0  0  0  0  0  0  0  0  0  0  0  0
   41.1450   32.0760   40.7970 H   0  0  0  0  0  0  0  0  0  0  0  0
   41.2760   33.1230   40.8820 N   0  0  0  0  0  0  0  0  0  0  0  0
   42.5490   33.3130   41.5620 C   0  0  0  0  0  2  0  0  0  0  0  0
   43.4830   32.6040   40.5940 C   0  0  0  0  0  2  0  0  0  0  0  0
   42.8330   32.7550   39.2290 C   0  0  0  0  0  2  0  0  0  0  0  0
   41.6230   33.6090   39.5380 C   0  0  1  0  0  3  0  0  0  0  0  0
  1  7  1  1  0  0  0
  1  2  1  0  0  0  0
  2  8  1  1  0  0  0
  2 17  1  0  0  0  0
  3  2  1  0  0  0  0
  4  3  1  0  0  0  0
  5 11  1  6  0  0  0
  5  4  1  0  0  0  0
  5  6  1  0  0  0  0
  6  1  1  0  0  0  0
  6 12  1  1  0  0  0
  9  4  1  0  0  0  0
 10  4  1  0  0  0  0
 13 14  1  0  0  0  0
 13  1  1  0  0  0  0
 15  5  1  0  0  0  0
 16 15  1  0  0  0  0
 17 18  1  0  0  0  0
 18 23  2  0  0  0  0
 18 19  1  0  0  0  0
 19 20  2  0  0  0  0
 20 21  1  0  0  0  0
 20 26  1  0  0  0  0
 22 25  1  0  0  0  0
 22 21  2  0  0  0  0
 23 22  1  0  0  0  0
 24 19  1  0  0  0  0
 26 27  1  0  0  0  0
 26 29  1  0  0  0  0
 27 31  1  0  0  0  0
 28 33  1  0  0  0  0
 28 26  1  0  0  0  0
 28 27  1  0  0  0  0
 30 27  1  0  0  0  0
 32 28  1  0  0  0  0
 34  6  1  0  0  0  0
 35 36  1  0  0  0  0
 36 37  1  0  0  0  0
 38 37  1  0  0  0  0
 39 40  1  0  0  0  0
 39 38  1  0  0  0  0
 40 34  1  6  0  0  0
 40 36  1  0  0  0  0
M  END
>  <minimizedAffinity>
-5.69839907

$$$$

 OpenBabel03242523533D

 40 43  0  0  1  0  0  0  0  0999 V2000
   36.5390   28.9860   40.8710 C   0  0  1  0  0  0  0  0  0  0  0  0
   36.3900   28.2350   39.5430 C   0  0  1  0  0  0  0  0  0  0  0  0
   36.6890   29.1180   38.4860 O   0  0  0  0  0  0  0  0  0  0  0  0
   36.2770   30.4260   38.7430 C   0  0  0  0  0  0  0  0  0  0  0  0
   37.1570   31.0560   39.8210 C   0  0  2  0  0  0  0  0  0  0  0  0
   37.7250   29.9130   40.6660 C   0  0  1  0  0  0  0  0  0  0  0  0
   36.7410   28.2550   41.6930 H   0  0  0  0  0  0  0  0  0  0  0  0
   35.3800   27.8200   39.4210 H   0  0  0  0  0  0  0  0  0  0  0  0
   35.2080   30.5180   38.9490 H   0  0  0  0  0  0  0  0  0  0  0  0
   36.4870   30.9790   37.8080 H   0  0  0  0  0  0  0  0  0  0  0  0
   37.9340   31.6990   39.4050 H   0  0  0  0  0  0  0  0  0  0  0  0
   38.4590   29.3970   40.0270 H   0  0  0  0  0  0  0  0  0  0  0  0
   35.3920   29.7290   41.1420 O   0  0  0  0  0  0  0  0  0  0  0  0
   34.5820   29.1950   40.9940 H   0  0  0  0  0  0  0  0  0  0  0  0
   36.2930   31.7350   40.7100 O   0  0  0  0  0  0  0  0  0  0  0  0
   36.6010   32.6750   40.8210 H   0  0  0  0  0  0  0  0  0  0  0  0
   37.4310   27.2970   39.5180 O   0  0  0  0  0  0  0  0  0  0  0  0
   37.4870   26.1810   40.2500 C   0  0  0  0  0  0  0  0  0  0  0  0
   38.4910   25.9980   41.1980 C   0  0  0  0  0  0  0  0  0  0  0  0
   38.5040   24.8240   41.9350 C   0  0  0  0  0  0  0  0  0  0  0  0
   37.5290   23.8740   41.7110 N   0  0  0  0  0  0  0  0  0  0  0  0
   36.5750   24.0820   40.7890 C   0  0  0  0  0  0  0  0  0  0  0  0
   36.5470   25.2250   40.0600 N   0  0  0  0  0  0  0  0  0  0  0  0
   39.2530   26.7360   41.3760 H   0  0  0  0  0  0  0  0  0  0  0  0
   35.8080   23.3380   40.6100 H   0  0  0  0  0  0  0  0  0  0  0  0
   39.5770   24.5670   42.9580 C   0  0  0  0  0  0  0  0  0  0  0  0
   40.9930   24.9570   42.6010 C   0  0  0  0  0  0  0  0  0  0  0  0
   40.1610   25.6700   43.6740 C   0  0  0  0  0  0  0  0  0  0  0  0
   39.4460   23.5790   43.4450 H   0  0  0  0  0  0  0  0  0  0  0  0
   41.1170   25.4080   41.6160 H   0  0  0  0  0  0  0  0  0  0  0  0
   41.7840   24.2790   42.9710 H   0  0  0  0  0  0  0  0  0  0  0  0
   39.8520   26.6990   43.3250 H   0  0  0  0  0  0  0  0  0  0  0  0
   40.5260   25.6430   44.7100 H   0  0  0  0  0  0  0  0  0  0  0  0
   38.2620   30.3920   41.8450 O   0  0  0  0  0  0  0  0  0  0  0  0
   39.8540   31.1660   43.7470 H   0  0  0  0  0  0  0  0  0  0  0  0
   40.1500   31.4600   42.7750 N   0  0  0  0  0  0  0  0  0  0  0  0
   41.5790   31.1920   42.6930 C   0  0  0  0  0  2  0  0  0  0  0  0
   41.5910   29.6960   42.9660 C   0  0  0  0  0  2  0  0  0  0  0  0
   40.2570   29.1850   42.4490 C   0  0  0  0  0  2  0  0  0  0  0  0
   39.6390   30.4320   41.8560 C   0  0  1  0  0  3  0  0  0  0  0  0
  1 13  1  0  0  0  0
  1  7  1  1  0  0  0
  2  8  1  6  0  0  0
  2  1  1  0  0  0  0
  3  4  1  0  0  0  0
  3  2  1  0  0  0  0
  4  9  1  0  0  0  0
  4  5  1  0  0  0  0
  5 11  1  6  0  0  0
  5  6  1  0  0  0  0
  5 15  1  0  0  0  0
  6 12  1  6  0  0  0
  6  1  1  0  0  0  0
  6 34  1  0  0  0  0
 10  4  1  0  0  0  0
 14 13  1  0  0  0  0
 15 16  1  0  0  0  0
 17  2  1  0  0  0  0
 17 18  1  0  0  0  0
 18 19  1  0  0  0  0
 19 24  1  0  0  0  0
 19 20  2  0  0  0  0
 20 26  1  0  0  0  0
 21 20  1  0  0  0  0
 22 21  2  0  0  0  0
 23 18  2  0  0  0  0
 23 22  1  0  0  0  0
 25 22  1  0  0  0  0
 26 29  1  0  0  0  0
 26 28  1  0  0  0  0
 27 26  1  0  0  0  0
 27 31  1  0  0  0  0
 27 28  1  0  0  0  0
 28 33  1  0  0  0  0
 30 27  1  0  0  0  0
 32 28  1  0  0  0  0
 36 35  1  0  0  0  0
 37 36  1  0  0  0  0
 37 38  1  0  0  0  0
 39 38  1  0  0  0  0
 40 34  1  1  0  0  0
 40 39  1  0  0  0  0
 40 36  1  0  0  0  0
M  END
>  <minimizedAffinity>
-5.6744256

$$$$

 OpenBabel03242523533D

 40 43  0  0  1  0  0  0  0  0999 V2000
   38.3460   32.2860   39.4690 C   0  0  1  0  0  0  0  0  0  0  0  0
   37.6600   30.9760   39.8700 C   0  0  1  0  0  0  0  0  0  0  0  0
   38.1890   29.9280   39.0900 O   0  0  0  0  0  0  0  0  0  0  0  0
   38.5040   30.3280   37.7910 C   0  0  0  0  0  0  0  0  0  0  0  0
   39.7270   31.2450   37.8020 C   0  0  2  0  0  0  0  0  0  0  0  0
   39.7880   31.9010   39.1830 C   0  0  1  0  0  0  0  0  0  0  0  0
   38.2880   33.0130   40.3170 H   0  0  0  0  0  0  0  0  0  0  0  0
   36.5700   31.0330   39.7450 H   0  0  0  0  0  0  0  0  0  0  0  0
   37.6560   30.7440   37.2420 H   0  0  0  0  0  0  0  0  0  0  0  0
   38.8150   29.4010   37.2760 H   0  0  0  0  0  0  0  0  0  0  0  0
   40.6470   30.7190   37.5430 H   0  0  0  0  0  0  0  0  0  0  0  0
   40.0780   31.1050   39.8870 H   0  0  0  0  0  0  0  0  0  0  0  0
   37.7570   32.8150   38.3230 O   0  0  0  0  0  0  0  0  0  0  0  0
   36.7770   32.8010   38.3910 H   0  0  0  0  0  0  0  0  0  0  0  0
   39.4410   32.3190   36.9300 O   0  0  0  0  0  0  0  0  0  0  0  0
   40.1770   32.4170   36.2670 H   0  0  0  0  0  0  0  0  0  0  0  0
   38.1000   30.6980   41.1710 O   0  0  0  0  0  0  0  0  0  0  0  0
   37.9690   29.5280   41.8010 C   0  0  0  0  0  0  0  0  0  0  0  0
   39.0660   28.9080   42.3930 C   0  0  0  0  0  0  0  0  0  0  0  0
   38.8770   27.6950   43.0380 C   0  0  0  0  0  0  0  0  0  0  0  0
   37.6160   27.1370   43.0740 N   0  0  0  0  0  0  0  0  0  0  0  0
   36.5780   27.7610   42.4920 C   0  0  0  0  0  0  0  0  0  0  0  0
   36.7460   28.9480   41.8580 N   0  0  0  0  0  0  0  0  0  0  0  0
   40.0510   29.3380   42.3670 H   0  0  0  0  0  0  0  0  0  0  0  0
   35.5870   27.3260   42.5180 H   0  0  0  0  0  0  0  0  0  0  0  0
   40.0320   26.9720   43.6780 C   0  0  0  0  0  0  0  0  0  0  0  0
   40.1290   25.4800   43.4640 C   0  0  0  0  0  0  0  0  0  0  0  0
   41.1140   26.4900   42.8610 C   0  0  0  0  0  0  0  0  0  0  0  0
   40.2170   27.3360   44.7090 H   0  0  0  0  0  0  0  0  0  0  0  0
   39.3430   25.0460   42.8450 H   0  0  0  0  0  0  0  0  0  0  0  0
   40.5000   24.8950   44.3260 H   0  0  0  0  0  0  0  0  0  0  0  0
   40.9630   26.5810   41.7450 H   0  0  0  0  0  0  0  0  0  0  0  0
   42.1680   26.4240   43.1640 H   0  0  0  0  0  0  0  0  0  0  0  0
   40.6560   32.9750   39.1790 O   0  0  0  0  0  0  0  0  0  0  0  0
   40.8700   33.7530   41.6500 H   0  0  0  0  0  0  0  0  0  0  0  0
   41.7420   33.8890   41.0660 N   0  0  0  0  0  0  0  0  0  0  0  0
   42.8500   33.4260   41.8890 C   0  0  0  0  0  2  0  0  0  0  0  0
   42.4290   31.9850   42.1290 C   0  0  0  0  0  2  0  0  0  0  0  0
   41.6200   31.5960   40.9030 C   0  0  0  0  0  2  0  0  0  0  0  0
   41.7230   32.8350   40.0400 C   0  0  1  0  0  3  0  0  0  0  0  0
  1  2  1  0  0  0  0
  1  7  1  1  0  0  0
  2  8  1  6  0  0  0
  2 17  1  0  0  0  0
  3  2  1  0  0  0  0
  4  5  1  0  0  0  0
  4  3  1  0  0  0  0
  5 11  1  6  0  0  0
  5  6  1  0  0  0  0
  6  1  1  0  0  0  0
  6 12  1  1  0  0  0
  9  4  1  0  0  0  0
 10  4  1  0  0  0  0
 13 14  1  0  0  0  0
 13  1  1  0  0  0  0
 15  5  1  0  0  0  0
 16 15  1  0  0  0  0
 17 18  1  0  0  0  0
 18 23  2  0  0  0  0
 18 19  1  0  0  0  0
 19 20  2  0  0  0  0
 20 21  1  0  0  0  0
 20 26  1  0  0  0  0
 22 25  1  0  0  0  0
 22 21  2  0  0  0  0
 23 22  1  0  0  0  0
 24 19  1  0  0  0  0
 26 29  1  0  0  0  0
 27 26  1  0  0  0  0
 27 31  1  0  0  0  0
 28 33  1  0  0  0  0
 28 27  1  0  0  0  0
 28 26  1  0  0  0  0
 30 27  1  0  0  0  0
 32 28  1  0  0  0  0
 34  6  1  0  0  0  0
 36 35  1  0  0  0  0
 36 37  1  0  0  0  0
 37 38  1  0  0  0  0
 39 38  1  0  0  0  0
 40 34  1  6  0  0  0
 40 39  1  0  0  0  0
 40 36  1  0  0  0  0
M  END
>  <minimizedAffinity>
-5.65498924

$$$$

 OpenBabel03242523533D

 40 43  0  0  1  0  0  0  0  0999 V2000
   37.4000   30.9380   40.8830 C   0  0  1  0  0  0  0  0  0  0  0  0
   37.2230   29.8100   39.8610 C   0  0  1  0  0  0  0  0  0  0  0  0
   37.4180   30.3350   38.5680 O   0  0  0  0  0  0  0  0  0  0  0  0
   36.9490   31.6420   38.4390 C   0  0  0  0  0  0  0  0  0  0  0  0
   37.8490   32.6050   39.2130 C   0  0  2  0  0  0  0  0  0  0  0  0
   38.5210   31.7990   40.3270 C   0  0  1  0  0  0  0  0  0  0  0  0
   37.6840   30.5040   41.8740 H   0  0  0  0  0  0  0  0  0  0  0  0
   36.2330   29.3420   39.9390 H   0  0  0  0  0  0  0  0  0  0  0  0
   35.8890   31.7540   38.6780 H   0  0  0  0  0  0  0  0  0  0  0  0
   37.0800   31.8870   37.3690 H   0  0  0  0  0  0  0  0  0  0  0  0
   38.5660   33.1160   38.5700 H   0  0  0  0  0  0  0  0  0  0  0  0
   39.2480   31.1380   39.8290 H   0  0  0  0  0  0  0  0  0  0  0  0
   36.2300   31.6880   40.9900 O   0  0  0  0  0  0  0  0  0  0  0  0
   35.4440   31.1050   41.0660 H   0  0  0  0  0  0  0  0  0  0  0  0
   36.9970   33.4930   39.9070 O   0  0  0  0  0  0  0  0  0  0  0  0
   37.2580   34.4330   39.7050 H   0  0  0  0  0  0  0  0  0  0  0  0
   38.3110   28.9480   40.0550 O   0  0  0  0  0  0  0  0  0  0  0  0
   38.4440   28.0820   41.0630 C   0  0  0  0  0  0  0  0  0  0  0  0
   37.8080   26.8430   41.0300 C   0  0  0  0  0  0  0  0  0  0  0  0
   37.9800   25.9780   42.1000 C   0  0  0  0  0  0  0  0  0  0  0  0
   38.7700   26.3650   43.1620 N   0  0  0  0  0  0  0  0  0  0  0  0
   39.3680   27.5680   43.1630 C   0  0  0  0  0  0  0  0  0  0  0  0
   39.2110   28.4250   42.1250 N   0  0  0  0  0  0  0  0  0  0  0  0
   37.1920   26.5370   40.2030 H   0  0  0  0  0  0  0  0  0  0  0  0
   39.9890   27.8750   43.9960 H   0  0  0  0  0  0  0  0  0  0  0  0
   37.3010   24.6350   42.1240 C   0  0  0  0  0  0  0  0  0  0  0  0
   36.4770   24.2460   40.9190 C   0  0  0  0  0  0  0  0  0  0  0  0
   37.8000   23.5680   41.2970 C   0  0  0  0  0  0  0  0  0  0  0  0
   36.8540   24.4240   43.1160 H   0  0  0  0  0  0  0  0  0  0  0  0
   36.4500   24.9830   40.1140 H   0  0  0  0  0  0  0  0  0  0  0  0
   35.5570   23.6700   41.1330 H   0  0  0  0  0  0  0  0  0  0  0  0
   38.6180   23.8520   40.5720 H   0  0  0  0  0  0  0  0  0  0  0  0
   37.7760   22.4980   41.5460 H   0  0  0  0  0  0  0  0  0  0  0  0
   39.0920   32.6370   41.2640 O   0  0  0  0  0  0  0  0  0  0  0  0
   39.8570   30.4980   42.5270 H   0  0  0  0  0  0  0  0  0  0  0  0
   40.3480   31.3870   42.8240 N   0  0  0  0  0  0  0  0  0  0  0  0
   41.7620   31.0520   42.9130 C   0  0  0  0  0  2  0  0  0  0  0  0
   42.0240   30.5930   41.4870 C   0  0  0  0  0  2  0  0  0  0  0  0
   41.0420   31.3740   40.6300 C   0  0  0  0  0  2  0  0  0  0  0  0
   40.3630   32.2670   41.6450 C   0  0  1  0  0  3  0  0  0  0  0  0
  1 13  1  0  0  0  0
  1  7  1  1  0  0  0
  2  8  1  1  0  0  0
  2 17  1  0  0  0  0
  2  1  1  0  0  0  0
  3  2  1  0  0  0  0
  4  3  1  0  0  0  0
  4  9  1  0  0  0  0
  4  5  1  0  0  0  0
  5 11  1  6  0  0  0
  5 15  1  0  0  0  0
  5  6  1  0  0  0  0
  6 12  1  6  0  0  0
  6  1  1  0  0  0  0
  6 34  1  0  0  0  0
 10  4  1  0  0  0  0
 13 14  1  0  0  0  0
 16 15  1  0  0  0  0
 17 18  1  0  0  0  0
 18 23  1  0  0  0  0
 19 18  2  0  0  0  0
 19 20  1  0  0  0  0
 20 26  1  0  0  0  0
 20 21  2  0  0  0  0
 21 22  1  0  0  0  0
 22 25  1  0  0  0  0
 23 22  2  0  0  0  0
 24 19  1  0  0  0  0
 26 29  1  0  0  0  0
 27 31  1  0  0  0  0
 27 28  1  0  0  0  0
 27 26  1  0  0  0  0
 28 33  1  0  0  0  0
 28 26  1  0  0  0  0
 30 27  1  0  0  0  0
 32 28  1  0  0  0  0
 35 36  1  0  0  0  0
 36 37  1  0  0  0  0
 38 37  1  0  0  0  0
 39 38  1  0  0  0  0
 39 40  1  0  0  0  0
 40 34  1  6  0  0  0
 40 36  1  0  0  0  0
M  END
>  <minimizedAffinity>
-5.639009

$$$$

 OpenBabel03242523533D

 40 43  0  0  1  0  0  0  0  0999 V2000
   36.8770   31.4860   40.7140 C   0  0  1  0  0  0  0  0  0  0  0  0
   36.1260   30.8950   39.5170 C   0  0  1  0  0  0  0  0  0  0  0  0
   37.0630   30.4980   38.5430 O   0  0  0  0  0  0  0  0  0  0  0  0
   38.1700   31.3450   38.4830 C   0  0  0  0  0  0  0  0  0  0  0  0
   39.0420   31.1650   39.7250 C   0  0  2  0  0  0  0  0  0  0  0  0
   38.1350   30.6440   40.8420 C   0  0  1  0  0  0  0  0  0  0  0  0
   36.2440   31.4000   41.6320 H   0  0  0  0  0  0  0  0  0  0  0  0
   35.4110   31.6120   39.0900 H   0  0  0  0  0  0  0  0  0  0  0  0
   37.9150   32.3880   38.2810 H   0  0  0  0  0  0  0  0  0  0  0  0
   38.7660   30.9740   37.6290 H   0  0  0  0  0  0  0  0  0  0  0  0
   39.9020   30.5180   39.5430 H   0  0  0  0  0  0  0  0  0  0  0  0
   37.8830   29.6060   40.5710 H   0  0  0  0  0  0  0  0  0  0  0  0
   37.2150   32.8150   40.4710 O   0  0  0  0  0  0  0  0  0  0  0  0
   36.4520   33.3120   40.1050 H   0  0  0  0  0  0  0  0  0  0  0  0
   39.4060   32.4590   40.1620 O   0  0  0  0  0  0  0  0  0  0  0  0
   40.3940   32.5100   40.2670 H   0  0  0  0  0  0  0  0  0  0  0  0
   35.5680   29.6930   39.9730 O   0  0  0  0  0  0  0  0  0  0  0  0
   35.5600   28.5380   39.3020 C   0  0  0  0  0  0  0  0  0  0  0  0
   36.2500   27.4270   39.7830 C   0  0  0  0  0  0  0  0  0  0  0  0
   36.2080   26.2510   39.0510 C   0  0  0  0  0  0  0  0  0  0  0  0
   35.4910   26.2120   37.8740 N   0  0  0  0  0  0  0  0  0  0  0  0
   34.8370   27.3010   37.4370 C   0  0  0  0  0  0  0  0  0  0  0  0
   34.8670   28.4590   38.1410 N   0  0  0  0  0  0  0  0  0  0  0  0
   36.8110   27.4540   40.7000 H   0  0  0  0  0  0  0  0  0  0  0  0
   34.2730   27.2740   36.5130 H   0  0  0  0  0  0  0  0  0  0  0  0
   36.9510   25.0270   39.5140 C   0  0  0  0  0  0  0  0  0  0  0  0
   36.8920   24.6870   40.9860 C   0  0  0  0  0  0  0  0  0  0  0  0
   36.2180   23.8470   39.8930 C   0  0  0  0  0  0  0  0  0  0  0  0
   37.9450   24.9470   39.0300 H   0  0  0  0  0  0  0  0  0  0  0  0
   36.2980   25.3670   41.5970 H   0  0  0  0  0  0  0  0  0  0  0  0
   37.8200   24.2680   41.4180 H   0  0  0  0  0  0  0  0  0  0  0  0
   35.0950   23.9610   39.9340 H   0  0  0  0  0  0  0  0  0  0  0  0
   36.5570   22.8100   39.7600 H   0  0  0  0  0  0  0  0  0  0  0  0
   38.7540   30.7570   42.0720 O   0  0  0  0  0  0  0  0  0  0  0  0
   37.0160   28.8380   41.8380 H   0  0  0  0  0  0  0  0  0  0  0  0
   37.1420   29.2050   42.8230 N   0  0  0  0  0  0  0  0  0  0  0  0
   37.2240   28.0300   43.6790 C   0  0  0  0  0  2  0  0  0  0  0  0
   38.4310   27.3330   43.0710 C   0  0  0  0  0  2  0  0  0  0  0  0
   39.2920   28.4490   42.5030 C   0  0  0  0  0  2  0  0  0  0  0  0
   38.5270   29.6900   42.9120 C   0  0  1  0  0  3  0  0  0  0  0  0
  1  6  1  0  0  0  0
  1  7  1  1  0  0  0
  2  8  1  6  0  0  0
  2 17  1  0  0  0  0
  2  1  1  0  0  0  0
  3  2  1  0  0  0  0
  4  3  1  0  0  0  0
  4  5  1  0  0  0  0
  5 11  1  6  0  0  0
  5 15  1  0  0  0  0
  5  6  1  0  0  0  0
  6 12  1  6  0  0  0
  6 34  1  0  0  0  0
  9  4  1  0  0  0  0
 10  4  1  0  0  0  0
 13  1  1  0  0  0  0
 14 13  1  0  0  0  0
 15 16  1  0  0  0  0
 18 19  1  0  0  0  0
 18 17  1  0  0  0  0
 19 24  1  0  0  0  0
 20 26  1  0  0  0  0
 20 19  2  0  0  0  0
 21 20  1  0  0  0  0
 22 21  2  0  0  0  0
 22 23  1  0  0  0  0
 23 18  2  0  0  0  0
 25 22  1  0  0  0  0
 26 28  1  0  0  0  0
 26 27  1  0  0  0  0
 27 31  1  0  0  0  0
 27 30  1  0  0  0  0
 28 32  1  0  0  0  0
 28 27  1  0  0  0  0
 29 26  1  0  0  0  0
 33 28  1  0  0  0  0
 35 36  1  0  0  0  0
 36 40  1  0  0  0  0
 36 37  1  0  0  0  0
 38 37  1  0  0  0  0
 39 40  1  0  0  0  0
 39 38  1  0  0  0  0
 40 34  1  6  0  0  0
M  END
>  <minimizedAffinity>
-5.52798271

$$$$

 OpenBabel03242523533D

 40 43  0  0  1  0  0  0  0  0999 V2000
   40.2390   30.3090   38.6340 C   0  0  1  0  0  0  0  0  0  0  0  0
   41.6040   30.2460   39.3270 C   0  0  1  0  0  0  0  0  0  0  0  0
   42.2080   31.5160   39.2580 O   0  0  0  0  0  0  0  0  0  0  0  0
   41.9200   32.1870   38.0690 C   0  0  0  0  0  0  0  0  0  0  0  0
   40.4570   32.6290   38.0520 C   0  0  2  0  0  0  0  0  0  0  0  0
   39.6880   31.6830   38.9770 C   0  0  1  0  0  0  0  0  0  0  0  0
   39.5780   29.5020   39.0360 H   0  0  0  0  0  0  0  0  0  0  0  0
   42.2560   29.4860   38.8740 H   0  0  0  0  0  0  0  0  0  0  0  0
   42.2160   31.6380   37.1720 H   0  0  0  0  0  0  0  0  0  0  0  0
   42.5240   33.1120   38.1110 H   0  0  0  0  0  0  0  0  0  0  0  0
   40.3340   33.6780   38.3250 H   0  0  0  0  0  0  0  0  0  0  0  0
   40.0050   31.9340   40.0020 H   0  0  0  0  0  0  0  0  0  0  0  0
   40.3870   30.1850   37.2540 O   0  0  0  0  0  0  0  0  0  0  0  0
   40.9930   29.4460   37.0290 H   0  0  0  0  0  0  0  0  0  0  0  0
   39.9530   32.3280   36.7670 O   0  0  0  0  0  0  0  0  0  0  0  0
   39.5310   33.1410   36.3760 H   0  0  0  0  0  0  0  0  0  0  0  0
   41.3300   30.0640   40.6900 O   0  0  0  0  0  0  0  0  0  0  0  0
   41.0370   28.8990   41.2730 C   0  0  0  0  0  0  0  0  0  0  0  0
   39.8900   28.7570   42.0510 C   0  0  0  0  0  0  0  0  0  0  0  0
   39.6290   27.5260   42.6320 C   0  0  0  0  0  0  0  0  0  0  0  0
   40.5060   26.4820   42.4290 N   0  0  0  0  0  0  0  0  0  0  0  0
   41.6040   26.6520   41.6740 C   0  0  0  0  0  0  0  0  0  0  0  0
   41.8740   27.8490   41.0970 N   0  0  0  0  0  0  0  0  0  0  0  0
   39.2030   29.5690   42.2120 H   0  0  0  0  0  0  0  0  0  0  0  0
   42.2950   25.8340   41.5120 H   0  0  0  0  0  0  0  0  0  0  0  0
   38.4140   27.3240   43.4970 C   0  0  0  0  0  0  0  0  0  0  0  0
   37.4770   28.4960   43.6750 C   0  0  0  0  0  0  0  0  0  0  0  0
   37.1120   27.2300   42.8900 C   0  0  0  0  0  0  0  0  0  0  0  0
   38.6580   26.7450   44.4110 H   0  0  0  0  0  0  0  0  0  0  0  0
   37.7630   29.4060   43.1440 H   0  0  0  0  0  0  0  0  0  0  0  0
   37.0190   28.5960   44.6760 H   0  0  0  0  0  0  0  0  0  0  0  0
   37.0730   27.4420   41.7810 H   0  0  0  0  0  0  0  0  0  0  0  0
   36.2740   26.6210   43.2570 H   0  0  0  0  0  0  0  0  0  0  0  0
   38.3270   31.7980   38.7770 O   0  0  0  0  0  0  0  0  0  0  0  0
   35.9980   32.2570   39.8360 H   0  0  0  0  0  0  0  0  0  0  0  0
   36.6820   31.7540   40.4690 N   0  0  0  0  0  0  0  0  0  0  0  0
   35.9300   30.6730   41.0900 C   0  0  0  0  0  2  0  0  0  0  0  0
   35.4830   29.9070   39.8550 C   0  0  0  0  0  2  0  0  0  0  0  0
   36.5650   30.1560   38.8170 C   0  0  0  0  0  2  0  0  0  0  0  0
   37.5710   30.9810   39.5890 C   0  0  1  0  0  3  0  0  0  0  0  0
  1  6  1  0  0  0  0
  1  7  1  1  0  0  0
  1  2  1  0  0  0  0
  2  8  1  6  0  0  0
  2 17  1  0  0  0  0
  3  2  1  0  0  0  0
  4 10  1  0  0  0  0
  4  3  1  0  0  0  0
  5  4  1  0  0  0  0
  5 11  1  1  0  0  0
  5  6  1  0  0  0  0
  6 12  1  1  0  0  0
  9  4  1  0  0  0  0
 13  1  1  0  0  0  0
 14 13  1  0  0  0  0
 15  5  1  0  0  0  0
 16 15  1  0  0  0  0
 17 18  1  0  0  0  0
 18 19  1  0  0  0  0
 19 24  1  0  0  0  0
 19 20  2  0  0  0  0
 20 26  1  0  0  0  0
 21 20  1  0  0  0  0
 22 21  2  0  0  0  0
 23 18  2  0  0  0  0
 23 22  1  0  0  0  0
 25 22  1  0  0  0  0
 26 27  1  0  0  0  0
 26 29  1  0  0  0  0
 27 31  1  0  0  0  0
 28 33  1  0  0  0  0
 28 26  1  0  0  0  0
 28 27  1  0  0  0  0
 30 27  1  0  0  0  0
 32 28  1  0  0  0  0
 34  6  1  0  0  0  0
 35 36  1  0  0  0  0
 36 37  1  0  0  0  0
 38 37  1  0  0  0  0
 39 40  1  0  0  0  0
 39 38  1  0  0  0  0
 40 34  1  6  0  0  0
 40 36  1  0  0  0  0
M  END
>  <minimizedAffinity>
-5.46597576

$$$$
