
 OpenBabel03242520493D

 16 17  0  0  1  0  0  0  0  0999 V2000
   37.3200   33.0370   39.6830 C   0  0  0  0  0  0  0  0  0  0  0  0
   37.0660   31.7450   40.1750 C   0  0  0  0  0  0  0  0  0  0  0  0
   38.0200   31.1510   41.0090 C   0  0  0  0  0  0  0  0  0  0  0  0
   39.1350   31.8540   41.2970 N   0  0  0  0  0  0  0  0  0  0  0  0
   39.3640   33.1000   40.8140 C   0  0  0  0  0  0  0  0  0  0  0  0
   38.4400   33.6800   40.0030 N   0  0  0  0  0  0  0  0  0  0  0  0
   36.5670   33.4730   39.0400 H   0  0  0  0  0  0  0  0  0  0  0  0
   36.1850   31.1830   39.9500 H   0  0  0  0  0  0  0  0  0  0  0  0
   40.2960   33.5870   41.1040 H   0  0  0  0  0  0  0  0  0  0  0  0
   37.8950   29.8910   41.5590 O   0  0  0  0  0  0  0  0  0  0  0  0
   37.4450   29.1400   44.6270 H   0  0  0  0  0  0  0  0  0  0  0  0
   37.1530   29.1450   43.6210 N   0  0  0  0  0  0  0  0  0  0  0  0
   37.0800   27.7250   43.2350 C   0  0  0  0  0  2  0  0  0  0  0  0
   38.5020   27.3090   43.5770 C   0  0  0  0  0  2  0  0  0  0  0  0
   39.2850   28.4050   42.8750 C   0  0  0  0  0  2  0  0  0  0  0  0
   38.3140   29.5660   42.8570 C   0  0  1  0  0  3  0  0  0  0  0  0
  1  6  2  0  0  0  0
  1  2  1  0  0  0  0
  2  3  2  0  0  0  0
  3  4  1  0  0  0  0
  3 10  1  0  0  0  0
  5  9  1  0  0  0  0
  5  4  2  0  0  0  0
  6  5  1  0  0  0  0
  7  1  1  0  0  0  0
  8  2  1  0  0  0  0
 12 11  1  0  0  0  0
 13 14  1  0  0  0  0
 13 12  1  0  0  0  0
 15 14  1  0  0  0  0
 16 10  1  6  0  0  0
 16 15  1  0  0  0  0
 16 12  1  0  0  0  0
M  END
>  <minimizedAffinity>
-4.23354912

$$$$

 OpenBabel03242520493D

 16 17  0  0  1  0  0  0  0  0999 V2000
   39.3650   26.9160   43.6800 C   0  0  0  0  0  0  0  0  0  0  0  0
   38.2890   27.7590   43.3510 C   0  0  0  0  0  0  0  0  0  0  0  0
   38.5710   29.0070   42.7840 C   0  0  0  0  0  0  0  0  0  0  0  0
   39.8650   29.3340   42.5830 N   0  0  0  0  0  0  0  0  0  0  0  0
   40.8910   28.5080   42.9050 C   0  0  0  0  0  0  0  0  0  0  0  0
   40.6210   27.2940   43.4560 N   0  0  0  0  0  0  0  0  0  0  0  0
   39.1200   25.9570   44.1170 H   0  0  0  0  0  0  0  0  0  0  0  0
   37.2640   27.5060   43.5090 H   0  0  0  0  0  0  0  0  0  0  0  0
   41.9030   28.8620   42.7030 H   0  0  0  0  0  0  0  0  0  0  0  0
   37.6120   29.9280   42.4160 O   0  0  0  0  0  0  0  0  0  0  0  0
   34.9770   30.6030   40.7490 H   0  0  0  0  0  0  0  0  0  0  0  0
   35.8320   30.8830   41.2850 N   0  0  0  0  0  0  0  0  0  0  0  0
   36.6630   31.6270   40.3230 C   0  0  0  0  0  2  0  0  0  0  0  0
   36.7980   30.5610   39.2470 C   0  0  0  0  0  2  0  0  0  0  0  0
   37.2240   29.3720   40.0900 C   0  0  0  0  0  2  0  0  0  0  0  0
   36.6300   29.6800   41.4480 C   0  0  1  0  0  3  0  0  0  0  0  0
  1  7  1  0  0  0  0
  2  8  1  0  0  0  0
  2  1  2  0  0  0  0
  3  2  1  0  0  0  0
  4  3  2  0  0  0  0
  4  5  1  0  0  0  0
  5  6  2  0  0  0  0
  6  1  1  0  0  0  0
  9  5  1  0  0  0  0
 10  3  1  0  0  0  0
 11 12  1  0  0  0  0
 12 16  1  0  0  0  0
 13 12  1  0  0  0  0
 14 15  1  0  0  0  0
 14 13  1  0  0  0  0
 15 16  1  0  0  0  0
 16 10  1  1  0  0  0
M  END
>  <minimizedAffinity>
-4.00864744

$$$$

 OpenBabel03242520493D

 16 17  0  0  1  0  0  0  0  0999 V2000
   37.6980   25.8620   42.5330 C   0  0  0  0  0  0  0  0  0  0  0  0
   37.0030   27.0490   42.2450 C   0  0  0  0  0  0  0  0  0  0  0  0
   37.6720   28.2680   42.4110 C   0  0  0  0  0  0  0  0  0  0  0  0
   38.9510   28.2350   42.8400 N   0  0  0  0  0  0  0  0  0  0  0  0
   39.6060   27.0800   43.1130 C   0  0  0  0  0  0  0  0  0  0  0  0
   38.9590   25.8940   42.9530 N   0  0  0  0  0  0  0  0  0  0  0  0
   37.1580   24.9330   42.3960 H   0  0  0  0  0  0  0  0  0  0  0  0
   35.9910   27.0810   41.9050 H   0  0  0  0  0  0  0  0  0  0  0  0
   40.6390   27.1570   43.4550 H   0  0  0  0  0  0  0  0  0  0  0  0
   37.1090   29.5030   42.1650 O   0  0  0  0  0  0  0  0  0  0  0  0
   34.9550   31.2190   40.5540 H   0  0  0  0  0  0  0  0  0  0  0  0
   35.7700   31.1300   41.2060 N   0  0  0  0  0  0  0  0  0  0  0  0
   36.8740   31.8430   40.5400 C   0  0  0  0  0  2  0  0  0  0  0  0
   36.9040   31.0720   39.2310 C   0  0  0  0  0  2  0  0  0  0  0  0
   36.9240   29.6460   39.7530 C   0  0  0  0  0  2  0  0  0  0  0  0
   36.2370   29.7590   41.0970 C   0  0  1  0  0  3  0  0  0  0  0  0
  1  6  1  0  0  0  0
  2  3  1  0  0  0  0
  2  1  2  0  0  0  0
  3  4  2  0  0  0  0
  4  5  1  0  0  0  0
  5  9  1  0  0  0  0
  6  5  2  0  0  0  0
  7  1  1  0  0  0  0
  8  2  1  0  0  0  0
 10  3  1  0  0  0  0
 11 12  1  0  0  0  0
 13 12  1  0  0  0  0
 14 15  1  0  0  0  0
 14 13  1  0  0  0  0
 15 16  1  0  0  0  0
 16 12  1  0  0  0  0
 16 10  1  1  0  0  0
M  END
>  <minimizedAffinity>
-3.98541713

$$$$

 OpenBabel03242520493D

 16 17  0  0  1  0  0  0  0  0999 V2000
   36.8560   27.0250   42.5430 C   0  0  0  0  0  0  0  0  0  0  0  0
   36.9490   27.7070   41.3170 C   0  0  0  0  0  0  0  0  0  0  0  0
   37.4360   29.0190   41.3220 C   0  0  0  0  0  0  0  0  0  0  0  0
   37.7900   29.5590   42.5070 N   0  0  0  0  0  0  0  0  0  0  0  0
   37.6940   28.8870   43.6800 C   0  0  0  0  0  0  0  0  0  0  0  0
   37.2220   27.6110   43.6800 N   0  0  0  0  0  0  0  0  0  0  0  0
   36.4770   26.0110   42.5120 H   0  0  0  0  0  0  0  0  0  0  0  0
   36.6700   27.2840   40.3770 H   0  0  0  0  0  0  0  0  0  0  0  0
   38.0060   29.4090   44.5850 H   0  0  0  0  0  0  0  0  0  0  0  0
   37.5770   29.7990   40.1930 O   0  0  0  0  0  0  0  0  0  0  0  0
   35.6460   32.3120   40.5620 H   0  0  0  0  0  0  0  0  0  0  0  0
   36.5160   31.7710   40.7800 N   0  0  0  0  0  0  0  0  0  0  0  0
   37.6260   32.6510   40.3750 C   0  0  0  0  0  2  0  0  0  0  0  0
   37.2480   32.8620   38.9180 C   0  0  0  0  0  2  0  0  0  0  0  0
   37.0200   31.4240   38.4840 C   0  0  0  0  0  2  0  0  0  0  0  0
   36.6210   30.7330   39.7700 C   0  0  1  0  0  3  0  0  0  0  0  0
  1  6  1  0  0  0  0
  2  3  1  0  0  0  0
  2  1  2  0  0  0  0
  3  4  2  0  0  0  0
  4  5  1  0  0  0  0
  5  6  2  0  0  0  0
  5  9  1  0  0  0  0
  7  1  1  0  0  0  0
  8  2  1  0  0  0  0
 10  3  1  0  0  0  0
 11 12  1  0  0  0  0
 13 12  1  0  0  0  0
 14 13  1  0  0  0  0
 15 14  1  0  0  0  0
 15 16  1  0  0  0  0
 16 10  1  1  0  0  0
 16 12  1  0  0  0  0
M  END
>  <minimizedAffinity>
-3.92510605

$$$$

 OpenBabel03242520493D

 16 17  0  0  1  0  0  0  0  0999 V2000
   40.4760   32.3150   38.0780 C   0  0  0  0  0  0  0  0  0  0  0  0
   39.2620   31.6660   38.3650 C   0  0  0  0  0  0  0  0  0  0  0  0
   38.4570   32.1820   39.3870 C   0  0  0  0  0  0  0  0  0  0  0  0
   38.8910   33.2780   40.0430 N   0  0  0  0  0  0  0  0  0  0  0  0
   40.0650   33.8920   39.7530 C   0  0  0  0  0  0  0  0  0  0  0  0
   40.8500   33.3940   38.7610 N   0  0  0  0  0  0  0  0  0  0  0  0
   41.0790   31.8960   37.2840 H   0  0  0  0  0  0  0  0  0  0  0  0
   38.9140   30.7980   37.8490 H   0  0  0  0  0  0  0  0  0  0  0  0
   40.3290   34.7740   40.3410 H   0  0  0  0  0  0  0  0  0  0  0  0
   37.2460   31.6430   39.7690 O   0  0  0  0  0  0  0  0  0  0  0  0
   35.4440   30.6110   42.1910 H   0  0  0  0  0  0  0  0  0  0  0  0
   35.5960   30.8400   41.1800 N   0  0  0  0  0  0  0  0  0  0  0  0
   35.4090   29.5660   40.4640 C   0  0  0  0  0  2  0  0  0  0  0  0
   36.4560   28.7300   41.1840 C   0  0  0  0  0  2  0  0  0  0  0  0
   37.6550   29.6580   41.0960 C   0  0  0  0  0  2  0  0  0  0  0  0
   37.0250   31.0320   41.0110 C   0  0  1  0  0  3  0  0  0  0  0  0
  1  2  2  0  0  0  0
  1  6  1  0  0  0  0
  2  3  1  0  0  0  0
  3 10  1  0  0  0  0
  3  4  2  0  0  0  0
  5  4  1  0  0  0  0
  5  9  1  0  0  0  0
  6  5  2  0  0  0  0
  7  1  1  0  0  0  0
  8  2  1  0  0  0  0
 12 11  1  0  0  0  0
 13 12  1  0  0  0  0
 13 14  1  0  0  0  0
 15 14  1  0  0  0  0
 16 10  1  6  0  0  0
 16 15  1  0  0  0  0
 16 12  1  0  0  0  0
M  END
>  <minimizedAffinity>
-3.74345946

$$$$

 OpenBabel03242520493D

 16 17  0  0  1  0  0  0  0  0999 V2000
   36.9820   31.2190   38.0460 C   0  0  0  0  0  0  0  0  0  0  0  0
   36.5910   30.1370   38.8540 C   0  0  0  0  0  0  0  0  0  0  0  0
   36.5620   30.3190   40.2420 C   0  0  0  0  0  0  0  0  0  0  0  0
   36.9110   31.5280   40.7290 N   0  0  0  0  0  0  0  0  0  0  0  0
   37.2850   32.5610   39.9350 C   0  0  0  0  0  0  0  0  0  0  0  0
   37.3140   32.3880   38.5860 N   0  0  0  0  0  0  0  0  0  0  0  0
   36.9960   31.0510   36.9770 H   0  0  0  0  0  0  0  0  0  0  0  0
   36.3150   29.1780   38.4740 H   0  0  0  0  0  0  0  0  0  0  0  0
   37.5490   33.5010   40.4240 H   0  0  0  0  0  0  0  0  0  0  0  0
   36.1990   29.3420   41.1460 O   0  0  0  0  0  0  0  0  0  0  0  0
   38.9580   27.8470   41.7200 H   0  0  0  0  0  0  0  0  0  0  0  0
   38.3420   28.6940   41.7350 N   0  0  0  0  0  0  0  0  0  0  0  0
   38.2060   29.0450   43.1590 C   0  0  0  0  0  2  0  0  0  0  0  0
   37.6470   27.7300   43.6790 C   0  0  0  0  0  2  0  0  0  0  0  0
   36.5210   27.4990   42.6860 C   0  0  0  0  0  2  0  0  0  0  0  0
   36.9960   28.2290   41.4480 C   0  0  1  0  0  3  0  0  0  0  0  0
  1  6  2  0  0  0  0
  1  2  1  0  0  0  0
  2  3  2  0  0  0  0
  3  4  1  0  0  0  0
  3 10  1  0  0  0  0
  5  9  1  0  0  0  0
  5  4  2  0  0  0  0
  6  5  1  0  0  0  0
  7  1  1  0  0  0  0
  8  2  1  0  0  0  0
 11 12  1  0  0  0  0
 12 13  1  0  0  0  0
 13 14  1  0  0  0  0
 15 14  1  0  0  0  0
 16 10  1  1  0  0  0
 16 12  1  0  0  0  0
 16 15  1  0  0  0  0
M  END
>  <minimizedAffinity>
-3.71731853

$$$$

 OpenBabel03242520493D

 16 17  0  0  1  0  0  0  0  0999 V2000
   37.8790   24.1350   41.9750 C   0  0  0  0  0  0  0  0  0  0  0  0
   37.1960   25.1560   41.2920 C   0  0  0  0  0  0  0  0  0  0  0  0
   37.6350   26.4750   41.4580 C   0  0  0  0  0  0  0  0  0  0  0  0
   38.6920   26.6950   42.2670 N   0  0  0  0  0  0  0  0  0  0  0  0
   39.3390   25.6970   42.9180 C   0  0  0  0  0  0  0  0  0  0  0  0
   38.9170   24.4140   42.7590 N   0  0  0  0  0  0  0  0  0  0  0  0
   37.5200   23.1240   41.8290 H   0  0  0  0  0  0  0  0  0  0  0  0
   36.3590   24.9890   40.6510 H   0  0  0  0  0  0  0  0  0  0  0  0
   40.1850   25.9750   43.5490 H   0  0  0  0  0  0  0  0  0  0  0  0
   37.0560   27.5690   40.8470 O   0  0  0  0  0  0  0  0  0  0  0  0
   36.2500   29.6630   43.1160 H   0  0  0  0  0  0  0  0  0  0  0  0
   36.9500   29.1960   42.4910 N   0  0  0  0  0  0  0  0  0  0  0  0
   37.4960   30.2760   41.6510 C   0  0  0  0  0  2  0  0  0  0  0  0
   36.2010   30.7850   41.0390 C   0  0  0  0  0  2  0  0  0  0  0  0
   35.5920   29.4790   40.5610 C   0  0  0  0  0  2  0  0  0  0  0  0
   36.1880   28.4540   41.5020 C   0  0  1  0  0  3  0  0  0  0  0  0
  1  6  1  0  0  0  0
  2  3  1  0  0  0  0
  2  1  2  0  0  0  0
  3  4  2  0  0  0  0
  4  5  1  0  0  0  0
  5  9  1  0  0  0  0
  6  5  2  0  0  0  0
  7  1  1  0  0  0  0
  8  2  1  0  0  0  0
 10  3  1  0  0  0  0
 12 11  1  0  0  0  0
 13 12  1  0  0  0  0
 14 13  1  0  0  0  0
 15 14  1  0  0  0  0
 15 16  1  0  0  0  0
 16 10  1  6  0  0  0
 16 12  1  0  0  0  0
M  END
>  <minimizedAffinity>
-3.71387124

$$$$

 OpenBabel03242520493D

 16 17  0  0  1  0  0  0  0  0999 V2000
   37.6940   23.3690   40.8910 C   0  0  0  0  0  0  0  0  0  0  0  0
   37.2890   24.3200   41.8430 C   0  0  0  0  0  0  0  0  0  0  0  0
   38.0900   25.4530   42.0330 C   0  0  0  0  0  0  0  0  0  0  0  0
   39.2100   25.5690   41.2890 N   0  0  0  0  0  0  0  0  0  0  0  0
   39.5850   24.6410   40.3750 C   0  0  0  0  0  0  0  0  0  0  0  0
   38.8100   23.5400   40.1870 N   0  0  0  0  0  0  0  0  0  0  0  0
   37.0570   22.5030   40.7630 H   0  0  0  0  0  0  0  0  0  0  0  0
   36.4050   24.2330   42.4350 H   0  0  0  0  0  0  0  0  0  0  0  0
   40.5080   24.8250   39.8220 H   0  0  0  0  0  0  0  0  0  0  0  0
   37.8100   26.4600   42.9330 O   0  0  0  0  0  0  0  0  0  0  0  0
   36.0320   28.9830   43.7420 H   0  0  0  0  0  0  0  0  0  0  0  0
   36.9450   28.4740   43.6800 N   0  0  0  0  0  0  0  0  0  0  0  0
   37.7960   29.3160   42.8210 C   0  0  0  0  0  2  0  0  0  0  0  0
   36.9100   29.3740   41.5870 C   0  0  0  0  0  2  0  0  0  0  0  0
   36.6050   27.8980   41.3990 C   0  0  0  0  0  2  0  0  0  0  0  0
   36.7250   27.3390   42.8010 C   0  0  1  0  0  3  0  0  0  0  0  0
  1  2  1  0  0  0  0
  2  3  2  0  0  0  0
  2  8  1  0  0  0  0
  3 10  1  0  0  0  0
  4  3  1  0  0  0  0
  5  4  2  0  0  0  0
  6  5  1  0  0  0  0
  6  1  2  0  0  0  0
  7  1  1  0  0  0  0
  9  5  1  0  0  0  0
 12 11  1  0  0  0  0
 13 12  1  0  0  0  0
 14 13  1  0  0  0  0
 15 14  1  0  0  0  0
 15 16  1  0  0  0  0
 16 10  1  6  0  0  0
 16 12  1  0  0  0  0
M  END
>  <minimizedAffinity>
-3.59540057

$$$$

 OpenBabel03242520493D

 16 17  0  0  1  0  0  0  0  0999 V2000
   36.2740   28.1520   41.6590 C   0  0  0  0  0  0  0  0  0  0  0  0
   36.8140   29.3600   41.1830 C   0  0  0  0  0  0  0  0  0  0  0  0
   37.8410   29.9640   41.9160 C   0  0  0  0  0  0  0  0  0  0  0  0
   38.2600   29.3530   43.0440 N   0  0  0  0  0  0  0  0  0  0  0  0
   37.7280   28.1870   43.4890 C   0  0  0  0  0  0  0  0  0  0  0  0
   36.7300   27.5960   42.7790 N   0  0  0  0  0  0  0  0  0  0  0  0
   35.4810   27.7060   41.0740 H   0  0  0  0  0  0  0  0  0  0  0  0
   36.4860   29.8490   40.2920 H   0  0  0  0  0  0  0  0  0  0  0  0
   38.1340   27.7700   44.4120 H   0  0  0  0  0  0  0  0  0  0  0  0
   38.4570   31.1470   41.5620 O   0  0  0  0  0  0  0  0  0  0  0  0
   37.4330   33.3830   39.5280 H   0  0  0  0  0  0  0  0  0  0  0  0
   37.7400   33.0630   40.4780 N   0  0  0  0  0  0  0  0  0  0  0  0
   38.9490   33.8510   40.7760 C   0  0  0  0  0  2  0  0  0  0  0  0
   39.7920   33.4640   39.5720 C   0  0  0  0  0  2  0  0  0  0  0  0
   39.6560   31.9520   39.6160 C   0  0  0  0  0  2  0  0  0  0  0  0
   38.3220   31.7440   40.3010 C   0  0  1  0  0  3  0  0  0  0  0  0
  1  6  1  0  0  0  0
  2  1  2  0  0  0  0
  2  3  1  0  0  0  0
  3  4  2  0  0  0  0
  4  5  1  0  0  0  0
  5  9  1  0  0  0  0
  6  5  2  0  0  0  0
  7  1  1  0  0  0  0
  8  2  1  0  0  0  0
 10  3  1  0  0  0  0
 11 12  1  0  0  0  0
 12 13  1  0  0  0  0
 14 15  1  0  0  0  0
 14 13  1  0  0  0  0
 15 16  1  0  0  0  0
 16 12  1  0  0  0  0
 16 10  1  1  0  0  0
M  END
>  <minimizedAffinity>
-3.59204793

$$$$
