
 OpenBabel03252504223D

 29 32  0  0  1  0  0  0  0  0999 V2000
   47.7070   33.5630   40.1230 C   0  0  0  0  0  0  0  0  0  0  0  0
   49.0460   33.2730   40.3820 C   0  0  0  0  0  0  0  0  0  0  0  0
   49.5070   33.3270   41.7230 C   0  0  0  0  0  0  0  0  0  0  0  0
   48.5910   33.6670   42.6790 N   0  0  0  0  0  0  0  0  0  0  0  0
   47.3000   33.9420   42.3820 C   0  0  0  0  0  0  0  0  0  0  0  0
   46.8740   33.8880   41.1200 N   0  0  0  0  0  0  0  0  0  0  0  0
   46.4150   34.2860   43.4460 N   0  0  0  0  0  0  0  0  0  0  0  0
   45.5100   35.2750   43.4490 C   0  0  0  0  0  0  0  0  0  0  0  0
   44.8730   35.2710   44.6510 N   0  0  0  0  0  0  0  0  0  0  0  0
   45.4020   34.2780   45.3630 C   0  0  0  0  0  0  0  0  0  0  0  0
   45.1890   33.7770   46.6240 C   0  0  0  0  0  0  0  0  0  0  0  0
   45.8560   32.7530   47.1280 N   0  0  0  0  0  0  0  0  0  0  0  0
   46.8170   32.1170   46.4140 C   0  0  0  0  0  0  0  0  0  0  0  0
   47.0300   32.6040   45.1790 N   0  0  0  0  0  0  0  0  0  0  0  0
   46.3810   33.6370   44.6260 C   0  0  0  0  0  0  0  0  0  0  0  0
   49.7620   33.0050   39.6280 H   0  0  0  0  0  0  0  0  0  0  0  0
   50.5300   33.1120   41.9870 H   0  0  0  0  0  0  0  0  0  0  0  0
   45.2760   35.9860   42.6690 H   0  0  0  0  0  0  0  0  0  0  0  0
   47.3920   31.2770   46.7770 H   0  0  0  0  0  0  0  0  0  0  0  0
   44.2200   34.3330   47.4960 N   0  0  0  0  0  0  0  0  0  0  0  0
   43.5380   33.7260   48.0130 H   0  0  0  0  0  0  0  0  0  0  0  0
   44.1030   35.3610   47.6940 H   0  0  0  0  0  0  0  0  0  0  0  0
   47.2510   33.4580   38.3970 S   0  0  0  0  0  0  0  0  0  0  0  0
   45.0530   33.3420   36.3060 H   0  0  0  0  0  0  0  0  0  0  0  0
   45.2830   32.4840   36.8140 N   0  0  0  0  0  0  0  0  0  0  0  0
   44.1150   31.6040   36.9340 C   0  0  0  0  0  2  0  0  0  0  0  0
   44.4740   30.6220   38.0020 C   0  0  0  0  0  2  0  0  0  0  0  0
   45.6570   31.2410   38.7150 C   0  0  0  0  0  2  0  0  0  0  0  0
   45.6490   32.6540   38.1830 C   0  0  1  0  0  3  0  0  0  0  0  0
  1  2  2  0  0  0  0
  1  6  1  0  0  0  0
  2  3  1  0  0  0  0
  3 17  1  0  0  0  0
  3  4  2  0  0  0  0
  5  4  1  0  0  0  0
  5  7  1  0  0  0  0
  6  5  2  0  0  0  0
  7  8  1  0  0  0  0
  7 15  1  0  0  0  0
  8  9  2  0  0  0  0
  9 10  1  0  0  0  0
 10 11  1  0  0  0  0
 11 12  2  0  0  0  0
 11 20  1  0  0  0  0
 13 19  1  0  0  0  0
 13 12  1  0  0  0  0
 14 13  2  0  0  0  0
 15 14  1  0  0  0  0
 15 10  2  0  0  0  0
 16  2  1  0  0  0  0
 18  8  1  0  0  0  0
 20 22  1  0  0  0  0
 20 21  1  0  0  0  0
 23  1  1  0  0  0  0
 24 25  1  0  0  0  0
 25 26  1  0  0  0  0
 25 29  1  0  0  0  0
 26 27  1  0  0  0  0
 27 28  1  0  0  0  0
 29 23  1  6  0  0  0
 29 28  1  0  0  0  0
M  END
>  <minimizedAffinity>
-5.3236413

>  <minimizedRMSD>
0.917172074

$$$$
