
 OpenBabel03252504223D

 29 32  0  0  1  0  0  0  0  0999 V2000
   47.0500   33.4490   39.1870 C   0  0  0  0  0  0  0  0  0  0  0  0
   48.3970   33.1410   39.3810 C   0  0  0  0  0  0  0  0  0  0  0  0
   48.9580   33.3280   40.6700 C   0  0  0  0  0  0  0  0  0  0  0  0
   48.1250   33.8040   41.6450 N   0  0  0  0  0  0  0  0  0  0  0  0
   46.8230   34.0890   41.4110 C   0  0  0  0  0  0  0  0  0  0  0  0
   46.3030   33.9110   40.1970 N   0  0  0  0  0  0  0  0  0  0  0  0
   46.0300   34.5810   42.4900 N   0  0  0  0  0  0  0  0  0  0  0  0
   45.1550   35.5950   42.4460 C   0  0  0  0  0  0  0  0  0  0  0  0
   44.6110   35.7470   43.6830 N   0  0  0  0  0  0  0  0  0  0  0  0
   45.1640   34.8200   44.4630 C   0  0  0  0  0  0  0  0  0  0  0  0
   45.0330   34.4700   45.7850 C   0  0  0  0  0  0  0  0  0  0  0  0
   45.7080   33.4850   46.3530 N   0  0  0  0  0  0  0  0  0  0  0  0
   46.5950   32.7400   45.6480 C   0  0  0  0  0  0  0  0  0  0  0  0
   46.7280   33.0800   44.3540 N   0  0  0  0  0  0  0  0  0  0  0  0
   46.0670   34.0670   43.7360 C   0  0  0  0  0  0  0  0  0  0  0  0
   49.0460   32.7670   38.6120 H   0  0  0  0  0  0  0  0  0  0  0  0
   49.9920   33.1080   40.8830 H   0  0  0  0  0  0  0  0  0  0  0  0
   44.8820   36.2220   41.6090 H   0  0  0  0  0  0  0  0  0  0  0  0
   47.1730   31.9260   46.0620 H   0  0  0  0  0  0  0  0  0  0  0  0
   44.1470   35.1530   46.6560 N   0  0  0  0  0  0  0  0  0  0  0  0
   43.4900   34.6310   47.2850 H   0  0  0  0  0  0  0  0  0  0  0  0
   44.0740   36.1990   46.7430 H   0  0  0  0  0  0  0  0  0  0  0  0
   46.4640   33.1680   37.5200 S   0  0  0  0  0  0  0  0  0  0  0  0
   43.9440   32.8690   35.8520 H   0  0  0  0  0  0  0  0  0  0  0  0
   44.3910   32.0200   36.2110 N   0  0  0  0  0  0  0  0  0  0  0  0
   43.4100   30.9530   36.4340 C   0  0  0  0  0  2  0  0  0  0  0  0
   44.1070   29.9570   37.3030 C   0  0  0  0  0  2  0  0  0  0  0  0
   45.3020   30.7000   37.8630 C   0  0  0  0  0  2  0  0  0  0  0  0
   44.9850   32.1320   37.5040 C   0  0  1  0  0  3  0  0  0  0  0  0
  1  2  2  0  0  0  0
  1  6  1  0  0  0  0
  2  3  1  0  0  0  0
  3 17  1  0  0  0  0
  3  4  2  0  0  0  0
  5  4  1  0  0  0  0
  5  7  1  0  0  0  0
  6  5  2  0  0  0  0
  7 15  1  0  0  0  0
  8  7  1  0  0  0  0
  8  9  2  0  0  0  0
  9 10  1  0  0  0  0
 10 11  1  0  0  0  0
 11 12  2  0  0  0  0
 11 20  1  0  0  0  0
 13 19  1  0  0  0  0
 13 12  1  0  0  0  0
 14 13  2  0  0  0  0
 15 14  1  0  0  0  0
 15 10  2  0  0  0  0
 16  2  1  0  0  0  0
 18  8  1  0  0  0  0
 20 22  1  0  0  0  0
 20 21  1  0  0  0  0
 23  1  1  0  0  0  0
 24 25  1  0  0  0  0
 25 26  1  0  0  0  0
 25 29  1  0  0  0  0
 26 27  1  0  0  0  0
 27 28  1  0  0  0  0
 29 23  1  6  0  0  0
 29 28  1  0  0  0  0
M  END
>  <minimizedAffinity>
-5.61855841

>  <minimizedRMSD>
1.76372373

$$$$
