
 OpenBabel03252504223D

 29 32  0  0  1  0  0  0  0  0999 V2000
   47.9180   33.6300   40.3100 C   0  0  0  0  0  0  0  0  0  0  0  0
   49.2510   33.3590   40.6180 C   0  0  0  0  0  0  0  0  0  0  0  0
   49.6600   33.4120   41.9750 C   0  0  0  0  0  0  0  0  0  0  0  0
   48.7030   33.7300   42.8980 N   0  0  0  0  0  0  0  0  0  0  0  0
   47.4190   33.9850   42.5540 C   0  0  0  0  0  0  0  0  0  0  0  0
   47.0430   33.9330   41.2770 N   0  0  0  0  0  0  0  0  0  0  0  0
   46.4890   34.3070   43.5870 N   0  0  0  0  0  0  0  0  0  0  0  0
   45.5680   35.2800   43.5620 C   0  0  0  0  0  0  0  0  0  0  0  0
   44.8870   35.2570   44.7390 N   0  0  0  0  0  0  0  0  0  0  0  0
   45.4050   34.2680   45.4640 C   0  0  0  0  0  0  0  0  0  0  0  0
   45.1530   33.7540   46.7130 C   0  0  0  0  0  0  0  0  0  0  0  0
   45.8190   32.7380   47.2350 N   0  0  0  0  0  0  0  0  0  0  0  0
   46.8160   32.1230   46.5530 C   0  0  0  0  0  0  0  0  0  0  0  0
   47.0670   32.6220   45.3300 N   0  0  0  0  0  0  0  0  0  0  0  0
   46.4220   33.6480   44.7600 C   0  0  0  0  0  0  0  0  0  0  0  0
   49.9990   33.1100   39.8890 H   0  0  0  0  0  0  0  0  0  0  0  0
   50.6760   33.2120   42.2760 H   0  0  0  0  0  0  0  0  0  0  0  0
   45.3510   35.9920   42.7780 H   0  0  0  0  0  0  0  0  0  0  0  0
   47.3920   31.2900   46.9320 H   0  0  0  0  0  0  0  0  0  0  0  0
   44.1430   34.2870   47.5510 N   0  0  0  0  0  0  0  0  0  0  0  0
   43.4520   33.6650   48.0380 H   0  0  0  0  0  0  0  0  0  0  0  0
   44.0020   35.3110   47.7510 H   0  0  0  0  0  0  0  0  0  0  0  0
   47.5290   33.5290   38.5670 S   0  0  0  0  0  0  0  0  0  0  0  0
   44.5770   33.7580   39.2390 H   0  0  0  0  0  0  0  0  0  0  0  0
   44.8370   33.3950   38.3180 N   0  0  0  0  0  0  0  0  0  0  0  0
   43.8290   32.4570   37.8090 C   0  0  0  0  0  2  0  0  0  0  0  0
   44.5040   31.7260   36.6940 C   0  0  0  0  0  2  0  0  0  0  0  0
   45.9810   31.9940   36.8920 C   0  0  0  0  0  2  0  0  0  0  0  0
   46.0150   32.5890   38.2800 C   0  0  1  0  0  3  0  0  0  0  0  0
  1  2  2  0  0  0  0
  1  6  1  0  0  0  0
  2  3  1  0  0  0  0
  3 17  1  0  0  0  0
  3  4  2  0  0  0  0
  5  4  1  0  0  0  0
  5  7  1  0  0  0  0
  6  5  2  0  0  0  0
  7 15  1  0  0  0  0
  8  7  1  0  0  0  0
  8  9  2  0  0  0  0
  9 10  1  0  0  0  0
 10 11  1  0  0  0  0
 11 12  2  0  0  0  0
 11 20  1  0  0  0  0
 13 19  1  0  0  0  0
 13 12  1  0  0  0  0
 14 13  2  0  0  0  0
 15 14  1  0  0  0  0
 15 10  2  0  0  0  0
 16  2  1  0  0  0  0
 18  8  1  0  0  0  0
 20 22  1  0  0  0  0
 20 21  1  0  0  0  0
 23  1  1  0  0  0  0
 25 24  1  0  0  0  0
 26 25  1  0  0  0  0
 27 28  1  0  0  0  0
 27 26  1  0  0  0  0
 28 29  1  0  0  0  0
 29 25  1  0  0  0  0
 29 23  1  6  0  0  0
M  END
>  <minimizedAffinity>
-5.55282927

>  <minimizedRMSD>
0.887325644

$$$$
