
 OpenBabel03252501363D

 22 23  0  0  1  0  0  0  0  0999 V2000
   40.9550   33.5180   38.7540 C   0  0  0  0  0  0  0  0  0  0  0  0
   41.2510   32.8600   37.5860 C   0  0  0  0  0  0  0  0  0  0  0  0
   42.5930   32.8010   37.2480 C   0  0  0  0  0  0  0  0  0  0  0  0
   43.4820   33.3830   38.0750 N   0  0  0  0  0  0  0  0  0  0  0  0
   43.1570   34.0150   39.2070 C   0  0  0  0  0  0  0  0  0  0  0  0
   41.8590   34.0970   39.5740 N   0  0  0  0  0  0  0  0  0  0  0  0
   42.8340   32.2840   36.3300 H   0  0  0  0  0  0  0  0  0  0  0  0
   43.9450   34.4550   39.8120 H   0  0  0  0  0  0  0  0  0  0  0  0
   39.2930   32.5860   40.1330 C   0  0  0  0  0  0  0  0  0  0  0  0
   40.2180   31.7340   40.1670 O   0  0  0  0  0  0  0  0  0  0  0  0
   39.6140   33.7030   39.2960 N   0  0  0  0  0  0  0  0  0  0  0  0
   38.9550   34.4850   39.1430 H   0  0  0  0  0  0  0  0  0  0  0  0
   38.0650   32.5320   40.8000 O   0  0  0  0  0  0  0  0  0  0  0  0
   37.9530   31.6920   38.3480 H   0  0  0  0  0  0  0  0  0  0  0  0
   37.5650   31.0710   39.0860 N   0  0  0  0  0  0  0  0  0  0  0  0
   36.3970   30.3340   38.6320 C   0  0  0  0  0  2  0  0  0  0  0  0
   35.8100   29.8540   39.9330 C   0  0  0  0  0  2  0  0  0  0  0  0
   36.3240   30.8310   40.9920 C   0  0  0  0  0  2  0  0  0  0  0  0
   36.9610   31.8920   40.1390 C   0  0  1  0  0  3  0  0  0  0  0  0
   40.1760   32.3190   36.8600 N   0  0  0  0  0  0  0  0  0  0  0  0
   39.4640   31.7360   37.3030 H   0  0  0  0  0  0  0  0  0  0  0  0
   40.2440   32.6100   35.8590 H   0  0  0  0  0  0  0  0  0  0  0  0
  1 11  1  0  0  0  0
  1  6  1  0  0  0  0
  2  1  2  0  0  0  0
  3  2  1  0  0  0  0
  3  4  2  0  0  0  0
  4  5  1  0  0  0  0
  5  6  2  0  0  0  0
  5  8  1  0  0  0  0
  7  3  1  0  0  0  0
  9 10  2  0  0  0  0
  9 13  1  0  0  0  0
 11  9  1  0  0  0  0
 12 11  1  0  0  0  0
 14 15  1  0  0  0  0
 15 19  1  0  0  0  0
 16 15  1  0  0  0  0
 16 17  1  0  0  0  0
 17 18  1  0  0  0  0
 19 13  1  1  0  0  0
 19 18  1  0  0  0  0
 20 21  1  0  0  0  0
 20  2  1  0  0  0  0
 22 20  1  0  0  0  0
M  END
>  <minimizedAffinity>
-4.59645176

$$$$

 OpenBabel03252501363D

 22 23  0  0  1  0  0  0  0  0999 V2000
   36.7170   30.5560   39.6550 C   0  0  0  0  0  0  0  0  0  0  0  0
   37.0680   31.8550   39.3840 C   0  0  0  0  0  0  0  0  0  0  0  0
   37.4400   32.1210   38.0770 C   0  0  0  0  0  0  0  0  0  0  0  0
   37.4300   31.1050   37.1940 N   0  0  0  0  0  0  0  0  0  0  0  0
   37.0810   29.8500   37.4930 C   0  0  0  0  0  0  0  0  0  0  0  0
   36.7100   29.5460   38.7570 N   0  0  0  0  0  0  0  0  0  0  0  0
   37.7180   33.1430   37.8560 H   0  0  0  0  0  0  0  0  0  0  0  0
   37.1020   29.0940   36.7120 H   0  0  0  0  0  0  0  0  0  0  0  0
   37.4600   29.6960   41.7140 C   0  0  0  0  0  0  0  0  0  0  0  0
   38.5240   29.8760   41.0670 O   0  0  0  0  0  0  0  0  0  0  0  0
   36.2970   30.0540   40.9580 N   0  0  0  0  0  0  0  0  0  0  0  0
   35.3400   29.9490   41.3350 H   0  0  0  0  0  0  0  0  0  0  0  0
   37.3330   29.2080   43.0190 O   0  0  0  0  0  0  0  0  0  0  0  0
   36.2180   27.3100   41.6460 H   0  0  0  0  0  0  0  0  0  0  0  0
   37.2160   27.1880   41.9110 N   0  0  0  0  0  0  0  0  0  0  0  0
   37.5460   25.8030   42.2020 C   0  0  0  0  0  2  0  0  0  0  0  0
   38.8610   25.9430   42.9210 C   0  0  0  0  0  2  0  0  0  0  0  0
   38.8580   27.3620   43.4930 C   0  0  0  0  0  2  0  0  0  0  0  0
   37.4430   27.7910   43.2270 C   0  0  1  0  0  3  0  0  0  0  0  0
   37.0140   32.7730   40.4480 N   0  0  0  0  0  0  0  0  0  0  0  0
   36.1920   32.8540   41.0480 H   0  0  0  0  0  0  0  0  0  0  0  0
   37.9090   33.3080   40.4960 H   0  0  0  0  0  0  0  0  0  0  0  0
  1 11  1  0  0  0  0
  2  1  1  0  0  0  0
  2 20  1  0  0  0  0
  3  2  2  0  0  0  0
  4  5  2  0  0  0  0
  4  3  1  0  0  0  0
  5  6  1  0  0  0  0
  6  1  2  0  0  0  0
  7  3  1  0  0  0  0
  8  5  1  0  0  0  0
  9 13  1  0  0  0  0
 10  9  2  0  0  0  0
 11 12  1  0  0  0  0
 11  9  1  0  0  0  0
 14 15  1  0  0  0  0
 15 16  1  0  0  0  0
 15 19  1  0  0  0  0
 16 17  1  0  0  0  0
 17 18  1  0  0  0  0
 19 13  1  6  0  0  0
 19 18  1  0  0  0  0
 20 22  1  0  0  0  0
 20 21  1  0  0  0  0
M  END
>  <minimizedAffinity>
-4.57100868

$$$$

 OpenBabel03252501363D

 22 23  0  0  1  0  0  0  0  0999 V2000
   36.7870   30.7570   40.3850 C   0  0  0  0  0  0  0  0  0  0  0  0
   36.8300   30.0940   39.1840 C   0  0  0  0  0  0  0  0  0  0  0  0
   37.1160   30.8720   38.0740 C   0  0  0  0  0  0  0  0  0  0  0  0
   37.3240   32.1900   38.2580 N   0  0  0  0  0  0  0  0  0  0  0  0
   37.2740   32.8020   39.4450 C   0  0  0  0  0  0  0  0  0  0  0  0
   36.9980   32.0800   40.5540 N   0  0  0  0  0  0  0  0  0  0  0  0
   37.1530   30.3570   37.1240 H   0  0  0  0  0  0  0  0  0  0  0  0
   37.4570   33.8720   39.4970 H   0  0  0  0  0  0  0  0  0  0  0  0
   37.7160   29.6150   42.2190 C   0  0  0  0  0  0  0  0  0  0  0  0
   38.6980   29.7930   41.4520 O   0  0  0  0  0  0  0  0  0  0  0  0
   36.5000   30.1390   41.6740 N   0  0  0  0  0  0  0  0  0  0  0  0
   35.5950   30.0590   42.1680 H   0  0  0  0  0  0  0  0  0  0  0  0
   37.7200   28.9900   43.4700 O   0  0  0  0  0  0  0  0  0  0  0  0
   36.3700   27.3440   41.9850 H   0  0  0  0  0  0  0  0  0  0  0  0
   37.3720   27.1240   42.1580 N   0  0  0  0  0  0  0  0  0  0  0  0
   37.6130   25.6950   42.2680 C   0  0  0  0  0  2  0  0  0  0  0  0
   38.9810   25.6600   42.8950 C   0  0  0  0  0  2  0  0  0  0  0  0
   39.1270   27.0000   43.6190 C   0  0  0  0  0  2  0  0  0  0  0  0
   37.7340   27.5530   43.5110 C   0  0  1  0  0  3  0  0  0  0  0  0
   36.5830   28.7100   39.2000 N   0  0  0  0  0  0  0  0  0  0  0  0
   37.0630   28.0850   39.8500 H   0  0  0  0  0  0  0  0  0  0  0  0
   35.8700   28.4710   38.4760 H   0  0  0  0  0  0  0  0  0  0  0  0
  1  6  1  0  0  0  0
  1 11  1  0  0  0  0
  2 20  1  0  0  0  0
  2  1  2  0  0  0  0
  3  4  2  0  0  0  0
  3  2  1  0  0  0  0
  4  5  1  0  0  0  0
  5  8  1  0  0  0  0
  5  6  2  0  0  0  0
  7  3  1  0  0  0  0
  9 13  1  0  0  0  0
 10  9  2  0  0  0  0
 11 12  1  0  0  0  0
 11  9  1  0  0  0  0
 14 15  1  0  0  0  0
 15 16  1  0  0  0  0
 15 19  1  0  0  0  0
 16 17  1  0  0  0  0
 17 18  1  0  0  0  0
 19 13  1  6  0  0  0
 19 18  1  0  0  0  0
 20 21  1  0  0  0  0
 22 20  1  0  0  0  0
M  END
>  <minimizedAffinity>
-4.49136448

$$$$

 OpenBabel03252501363D

 22 23  0  0  1  0  0  0  0  0999 V2000
   39.1270   31.9430   38.2670 C   0  0  0  0  0  0  0  0  0  0  0  0
   38.2130   31.5790   37.3100 C   0  0  0  0  0  0  0  0  0  0  0  0
   37.3960   30.5080   37.6320 C   0  0  0  0  0  0  0  0  0  0  0  0
   37.5600   29.9210   38.8330 N   0  0  0  0  0  0  0  0  0  0  0  0
   38.4630   30.3040   39.7410 C   0  0  0  0  0  0  0  0  0  0  0  0
   39.2810   31.3450   39.4680 N   0  0  0  0  0  0  0  0  0  0  0  0
   36.6720   30.2150   36.8830 H   0  0  0  0  0  0  0  0  0  0  0  0
   38.5220   29.7700   40.6850 H   0  0  0  0  0  0  0  0  0  0  0  0
   41.2480   32.5550   37.4540 C   0  0  0  0  0  0  0  0  0  0  0  0
   41.1620   31.3330   37.1660 O   0  0  0  0  0  0  0  0  0  0  0  0
   40.0860   33.0350   38.1390 N   0  0  0  0  0  0  0  0  0  0  0  0
   40.0020   34.0130   38.4640 H   0  0  0  0  0  0  0  0  0  0  0  0
   42.3140   33.4170   37.1780 O   0  0  0  0  0  0  0  0  0  0  0  0
   44.6050   33.1790   35.9830 H   0  0  0  0  0  0  0  0  0  0  0  0
   44.5800   33.7240   36.8690 N   0  0  0  0  0  0  0  0  0  0  0  0
   45.7870   33.5520   37.6590 C   0  0  0  0  0  2  0  0  0  0  0  0
   45.3550   34.0780   39.0020 C   0  0  0  0  0  2  0  0  0  0  0  0
   43.8320   33.9340   39.0190 C   0  0  0  0  0  2  0  0  0  0  0  0
   43.5910   33.1300   37.7720 C   0  0  1  0  0  3  0  0  0  0  0  0
   38.1980   32.3200   36.1160 N   0  0  0  0  0  0  0  0  0  0  0  0
   38.1700   33.3410   36.1150 H   0  0  0  0  0  0  0  0  0  0  0  0
   38.2220   31.6710   35.2980 H   0  0  0  0  0  0  0  0  0  0  0  0
  1  6  1  0  0  0  0
  2  3  1  0  0  0  0
  2  1  2  0  0  0  0
  3  4  2  0  0  0  0
  4  5  1  0  0  0  0
  5  8  1  0  0  0  0
  6  5  2  0  0  0  0
  7  3  1  0  0  0  0
  9 11  1  0  0  0  0
 10  9  2  0  0  0  0
 11  1  1  0  0  0  0
 11 12  1  0  0  0  0
 13  9  1  0  0  0  0
 14 15  1  0  0  0  0
 15 16  1  0  0  0  0
 15 19  1  0  0  0  0
 16 17  1  0  0  0  0
 17 18  1  0  0  0  0
 19 13  1  6  0  0  0
 19 18  1  0  0  0  0
 20  2  1  0  0  0  0
 21 20  1  0  0  0  0
 22 20  1  0  0  0  0
M  END
>  <minimizedAffinity>
-4.43135548

$$$$

 OpenBabel03252501363D

 22 23  0  0  1  0  0  0  0  0999 V2000
   40.7220   31.6020   38.8760 C   0  0  0  0  0  0  0  0  0  0  0  0
   40.7570   31.9010   37.5370 C   0  0  0  0  0  0  0  0  0  0  0  0
   41.9940   31.7860   36.9240 C   0  0  0  0  0  0  0  0  0  0  0  0
   43.0420   31.3980   37.6750 N   0  0  0  0  0  0  0  0  0  0  0  0
   42.9700   31.1140   38.9790 C   0  0  0  0  0  0  0  0  0  0  0  0
   41.7830   31.2130   39.6170 N   0  0  0  0  0  0  0  0  0  0  0  0
   42.0290   32.0200   35.8690 H   0  0  0  0  0  0  0  0  0  0  0  0
   43.8710   30.8070   39.5040 H   0  0  0  0  0  0  0  0  0  0  0  0
   39.0400   30.3300   39.9180 C   0  0  0  0  0  0  0  0  0  0  0  0
   39.7270   29.4700   39.3090 O   0  0  0  0  0  0  0  0  0  0  0  0
   39.5330   31.6590   39.7180 N   0  0  0  0  0  0  0  0  0  0  0  0
   39.0720   32.4870   40.1340 H   0  0  0  0  0  0  0  0  0  0  0  0
   37.9140   30.1050   40.7170 O   0  0  0  0  0  0  0  0  0  0  0  0
   37.9440   30.2760   43.3060 H   0  0  0  0  0  0  0  0  0  0  0  0
   37.3250   29.5570   42.8790 N   0  0  0  0  0  0  0  0  0  0  0  0
   37.2500   28.3470   43.6800 C   0  0  0  0  0  2  0  0  0  0  0  0
   36.6630   27.3650   42.7000 C   0  0  0  0  0  2  0  0  0  0  0  0
   37.0160   27.9160   41.3180 C   0  0  0  0  0  2  0  0  0  0  0  0
   37.9610   29.0300   41.6690 C   0  0  1  0  0  3  0  0  0  0  0  0
   39.5500   32.2890   36.9310 N   0  0  0  0  0  0  0  0  0  0  0  0
   38.6910   31.7490   37.0450 H   0  0  0  0  0  0  0  0  0  0  0  0
   39.6960   33.1680   36.3870 H   0  0  0  0  0  0  0  0  0  0  0  0
  1  6  1  0  0  0  0
  1 11  1  0  0  0  0
  2  1  2  0  0  0  0
  3  2  1  0  0  0  0
  3  4  2  0  0  0  0
  4  5  1  0  0  0  0
  5  8  1  0  0  0  0
  5  6  2  0  0  0  0
  7  3  1  0  0  0  0
  9 13  1  0  0  0  0
 10  9  2  0  0  0  0
 11  9  1  0  0  0  0
 11 12  1  0  0  0  0
 15 14  1  0  0  0  0
 15 16  1  0  0  0  0
 17 16  1  0  0  0  0
 18 19  1  0  0  0  0
 18 17  1  0  0  0  0
 19 13  1  6  0  0  0
 19 15  1  0  0  0  0
 20 21  1  0  0  0  0
 20  2  1  0  0  0  0
 22 20  1  0  0  0  0
M  END
>  <minimizedAffinity>
-4.34364939

$$$$

 OpenBabel03252501363D

 22 23  0  0  1  0  0  0  0  0999 V2000
   37.2950   28.8870   42.3320 C   0  0  0  0  0  0  0  0  0  0  0  0
   38.5410   28.8850   42.9070 C   0  0  0  0  0  0  0  0  0  0  0  0
   38.9970   27.6580   43.3590 C   0  0  0  0  0  0  0  0  0  0  0  0
   38.1970   26.5860   43.2020 N   0  0  0  0  0  0  0  0  0  0  0  0
   36.9870   26.6250   42.6360 C   0  0  0  0  0  0  0  0  0  0  0  0
   36.5030   27.8030   42.1810 N   0  0  0  0  0  0  0  0  0  0  0  0
   39.9780   27.6490   43.8130 H   0  0  0  0  0  0  0  0  0  0  0  0
   36.4120   25.7070   42.5510 H   0  0  0  0  0  0  0  0  0  0  0  0
   37.1030   30.3110   40.4700 C   0  0  0  0  0  0  0  0  0  0  0  0
   37.9870   29.4860   40.1220 O   0  0  0  0  0  0  0  0  0  0  0  0
   36.6200   30.0630   41.7950 N   0  0  0  0  0  0  0  0  0  0  0  0
   35.9040   30.6610   42.2420 H   0  0  0  0  0  0  0  0  0  0  0  0
   36.5930   31.3740   39.7180 O   0  0  0  0  0  0  0  0  0  0  0  0
   37.3300   32.8490   41.7220 H   0  0  0  0  0  0  0  0  0  0  0  0
   38.0290   32.6730   40.9720 N   0  0  0  0  0  0  0  0  0  0  0  0
   38.8920   33.8190   40.7420 C   0  0  0  0  0  2  0  0  0  0  0  0
   39.5030   33.4820   39.4080 C   0  0  0  0  0  2  0  0  0  0  0  0
   38.5160   32.5210   38.7430 C   0  0  0  0  0  2  0  0  0  0  0  0
   37.3430   32.6000   39.6800 C   0  0  1  0  0  3  0  0  0  0  0  0
   39.2210   30.1140   42.9790 N   0  0  0  0  0  0  0  0  0  0  0  0
   39.3200   30.7230   42.1650 H   0  0  0  0  0  0  0  0  0  0  0  0
   39.5730   30.2660   43.9500 H   0  0  0  0  0  0  0  0  0  0  0  0
  1  2  1  0  0  0  0
  2 20  1  0  0  0  0
  2  3  2  0  0  0  0
  3  7  1  0  0  0  0
  4  3  1  0  0  0  0
  5  4  2  0  0  0  0
  6  1  2  0  0  0  0
  6  5  1  0  0  0  0
  8  5  1  0  0  0  0
  9 11  1  0  0  0  0
 10  9  2  0  0  0  0
 11 12  1  0  0  0  0
 11  1  1  0  0  0  0
 13  9  1  0  0  0  0
 15 14  1  0  0  0  0
 16 15  1  0  0  0  0
 17 16  1  0  0  0  0
 18 17  1  0  0  0  0
 18 19  1  0  0  0  0
 19 13  1  1  0  0  0
 19 15  1  0  0  0  0
 20 22  1  0  0  0  0
 21 20  1  0  0  0  0
M  END
>  <minimizedAffinity>
-4.30248404

$$$$

 OpenBabel03252501363D

 22 23  0  0  1  0  0  0  0  0999 V2000
   38.0840   30.5510   41.0570 C   0  0  0  0  0  0  0  0  0  0  0  0
   36.9940   31.2840   40.6600 C   0  0  0  0  0  0  0  0  0  0  0  0
   37.2210   32.2080   39.6530 C   0  0  0  0  0  0  0  0  0  0  0  0
   38.4670   32.3120   39.1550 N   0  0  0  0  0  0  0  0  0  0  0  0
   39.5070   31.5800   39.5670 C   0  0  0  0  0  0  0  0  0  0  0  0
   39.3300   30.6670   40.5480 N   0  0  0  0  0  0  0  0  0  0  0  0
   36.3660   32.7890   39.3350 H   0  0  0  0  0  0  0  0  0  0  0  0
   40.4780   31.7340   39.1050 H   0  0  0  0  0  0  0  0  0  0  0  0
   37.6390   28.2910   41.5310 C   0  0  0  0  0  0  0  0  0  0  0  0
   37.3550   28.3990   40.3100 O   0  0  0  0  0  0  0  0  0  0  0  0
   38.0750   29.5310   42.0990 N   0  0  0  0  0  0  0  0  0  0  0  0
   38.3290   29.6210   43.0970 H   0  0  0  0  0  0  0  0  0  0  0  0
   37.5670   27.1380   42.3190 O   0  0  0  0  0  0  0  0  0  0  0  0
   39.2770   26.5150   40.4700 H   0  0  0  0  0  0  0  0  0  0  0  0
   39.6540   26.7960   41.3980 N   0  0  0  0  0  0  0  0  0  0  0  0
   40.8580   26.0630   41.7500 C   0  0  0  0  0  2  0  0  0  0  0  0
   40.9640   26.3370   43.2270 C   0  0  0  0  0  2  0  0  0  0  0  0
   39.5410   26.6720   43.6780 C   0  0  0  0  0  2  0  0  0  0  0  0
   38.7470   26.3280   42.4490 C   0  0  1  0  0  3  0  0  0  0  0  0
   35.7720   31.0260   41.3060 N   0  0  0  0  0  0  0  0  0  0  0  0
   35.4110   30.0780   41.4170 H   0  0  0  0  0  0  0  0  0  0  0  0
   35.3460   31.9240   41.6240 H   0  0  0  0  0  0  0  0  0  0  0  0
  1 11  1  0  0  0  0
  2  1  1  0  0  0  0
  2 20  1  0  0  0  0
  3  2  2  0  0  0  0
  4  5  2  0  0  0  0
  4  3  1  0  0  0  0
  5  6  1  0  0  0  0
  6  1  2  0  0  0  0
  7  3  1  0  0  0  0
  8  5  1  0  0  0  0
  9 11  1  0  0  0  0
  9 13  1  0  0  0  0
 10  9  2  0  0  0  0
 11 12  1  0  0  0  0
 14 15  1  0  0  0  0
 15 16  1  0  0  0  0
 15 19  1  0  0  0  0
 16 17  1  0  0  0  0
 17 18  1  0  0  0  0
 19 13  1  1  0  0  0
 19 18  1  0  0  0  0
 20 21  1  0  0  0  0
 20 22  1  0  0  0  0
M  END
>  <minimizedAffinity>
-4.28881788

$$$$

 OpenBabel03252501363D

 22 23  0  0  1  0  0  0  0  0999 V2000
   38.1930   29.9810   41.9890 C   0  0  0  0  0  0  0  0  0  0  0  0
   36.9330   30.0480   41.4490 C   0  0  0  0  0  0  0  0  0  0  0  0
   36.6510   31.1840   40.7100 C   0  0  0  0  0  0  0  0  0  0  0  0
   37.6160   32.1150   40.5820 N   0  0  0  0  0  0  0  0  0  0  0  0
   38.8340   32.0160   41.1220 C   0  0  0  0  0  0  0  0  0  0  0  0
   39.1510   30.9230   41.8520 N   0  0  0  0  0  0  0  0  0  0  0  0
   35.6600   31.2440   40.2810 H   0  0  0  0  0  0  0  0  0  0  0  0
   39.5500   32.8180   40.9650 H   0  0  0  0  0  0  0  0  0  0  0  0
   39.1930   27.8530   41.9370 C   0  0  0  0  0  0  0  0  0  0  0  0
   39.0430   28.1380   40.7210 O   0  0  0  0  0  0  0  0  0  0  0  0
   38.7000   28.8820   42.8020 N   0  0  0  0  0  0  0  0  0  0  0  0
   38.7300   28.7980   43.8320 H   0  0  0  0  0  0  0  0  0  0  0  0
   39.7620   26.6920   42.4710 O   0  0  0  0  0  0  0  0  0  0  0  0
   37.1980   26.6070   42.8640 H   0  0  0  0  0  0  0  0  0  0  0  0
   37.5990   25.9510   42.1640 N   0  0  0  0  0  0  0  0  0  0  0  0
   36.9120   24.6700   42.1500 C   0  0  0  0  0  2  0  0  0  0  0  0
   37.8860   23.8060   41.3940 C   0  0  0  0  0  2  0  0  0  0  0  0
   39.2470   24.4800   41.5750 C   0  0  0  0  0  2  0  0  0  0  0  0
   38.9300   25.5280   42.6050 C   0  0  1  0  0  3  0  0  0  0  0  0
   36.0660   28.9690   41.6980 N   0  0  0  0  0  0  0  0  0  0  0  0
   36.3530   28.0010   41.5470 H   0  0  0  0  0  0  0  0  0  0  0  0
   35.1470   29.3270   42.0410 H   0  0  0  0  0  0  0  0  0  0  0  0
  1 11  1  0  0  0  0
  2 20  1  0  0  0  0
  2  1  2  0  0  0  0
  3  2  1  0  0  0  0
  4  3  2  0  0  0  0
  4  5  1  0  0  0  0
  5  6  2  0  0  0  0
  6  1  1  0  0  0  0
  7  3  1  0  0  0  0
  8  5  1  0  0  0  0
  9 13  1  0  0  0  0
  9 11  1  0  0  0  0
 10  9  2  0  0  0  0
 11 12  1  0  0  0  0
 15 19  1  0  0  0  0
 15 14  1  0  0  0  0
 16 15  1  0  0  0  0
 17 18  1  0  0  0  0
 17 16  1  0  0  0  0
 18 19  1  0  0  0  0
 19 13  1  6  0  0  0
 20 22  1  0  0  0  0
 21 20  1  0  0  0  0
M  END
>  <minimizedAffinity>
-4.22296667

$$$$

 OpenBabel03252501363D

 22 23  0  0  1  0  0  0  0  0999 V2000
   40.8250   32.5350   37.5720 C   0  0  0  0  0  0  0  0  0  0  0  0
   41.0800   33.3710   38.6310 C   0  0  0  0  0  0  0  0  0  0  0  0
   42.4050   33.4640   39.0220 C   0  0  0  0  0  0  0  0  0  0  0  0
   43.3190   32.7420   38.3470 N   0  0  0  0  0  0  0  0  0  0  0  0
   43.0340   31.9380   37.3180 C   0  0  0  0  0  0  0  0  0  0  0  0
   41.7530   31.8170   36.9040 N   0  0  0  0  0  0  0  0  0  0  0  0
   42.6140   34.1210   39.8560 H   0  0  0  0  0  0  0  0  0  0  0  0
   43.8400   31.3940   36.8330 H   0  0  0  0  0  0  0  0  0  0  0  0
   38.8470   31.2800   37.7770 C   0  0  0  0  0  0  0  0  0  0  0  0
   39.5640   30.8580   38.7210 O   0  0  0  0  0  0  0  0  0  0  0  0
   39.5070   32.2840   36.9990 N   0  0  0  0  0  0  0  0  0  0  0  0
   39.0650   32.7230   36.1740 H   0  0  0  0  0  0  0  0  0  0  0  0
   37.5490   30.8730   37.4520 O   0  0  0  0  0  0  0  0  0  0  0  0
   37.3930   30.8880   40.0420 H   0  0  0  0  0  0  0  0  0  0  0  0
   36.5330   30.6430   39.5100 N   0  0  0  0  0  0  0  0  0  0  0  0
   35.7330   29.6370   40.1880 C   0  0  0  0  0  2  0  0  0  0  0  0
   34.8160   29.1780   39.0850 C   0  0  0  0  0  2  0  0  0  0  0  0
   35.5530   29.5060   37.7860 C   0  0  0  0  0  2  0  0  0  0  0  0
   36.9070   29.9070   38.3000 C   0  0  1  0  0  3  0  0  0  0  0  0
   39.9840   34.0390   39.2040 N   0  0  0  0  0  0  0  0  0  0  0  0
   39.3080   34.5520   38.6360 H   0  0  0  0  0  0  0  0  0  0  0  0
   39.9980   33.9150   40.2400 H   0  0  0  0  0  0  0  0  0  0  0  0
  1  2  1  0  0  0  0
  2  3  2  0  0  0  0
  2 20  1  0  0  0  0
  3  7  1  0  0  0  0
  4  3  1  0  0  0  0
  5  4  2  0  0  0  0
  6  5  1  0  0  0  0
  6  1  2  0  0  0  0
  8  5  1  0  0  0  0
  9 10  2  0  0  0  0
 11  1  1  0  0  0  0
 11  9  1  0  0  0  0
 12 11  1  0  0  0  0
 13  9  1  0  0  0  0
 15 14  1  0  0  0  0
 15 16  1  0  0  0  0
 17 16  1  0  0  0  0
 18 19  1  0  0  0  0
 18 17  1  0  0  0  0
 19 13  1  6  0  0  0
 19 15  1  0  0  0  0
 20 22  1  0  0  0  0
 21 20  1  0  0  0  0
M  END
>  <minimizedAffinity>
-4.22289133

$$$$
