
 OpenBabel03242510083D

 28 30  0  0  1  0  0  0  0  0999 V2000
   44.6390   33.1740   41.1140 Br  0  0  0  0  0  0  0  0  0  0  0  0
   46.3400   34.0310   40.8960 C   0  0  0  0  0  0  0  0  0  0  0  0
   46.8780   34.7750   41.9310 C   0  0  0  0  0  0  0  0  0  0  0  0
   48.1080   35.4000   41.7850 C   0  0  0  0  0  0  0  0  0  0  0  0
   48.7700   35.2600   40.5950 C   0  0  0  0  0  0  0  0  0  0  0  0
   48.2110   34.5170   39.5890 C   0  0  0  0  0  0  0  0  0  0  0  0
   47.0070   33.8910   39.7000 C   0  0  0  0  0  0  0  0  0  0  0  0
   48.5370   35.9800   42.5760 H   0  0  0  0  0  0  0  0  0  0  0  0
   49.7320   35.7390   40.4560 H   0  0  0  0  0  0  0  0  0  0  0  0
   48.7540   34.4220   38.6620 H   0  0  0  0  0  0  0  0  0  0  0  0
   45.6430   34.0230   45.2840 C   0  0  0  0  0  0  0  0  0  0  0  0
   44.7220   35.0680   45.5370 C   0  0  0  0  0  0  0  0  0  0  0  0
   44.5420   36.0260   44.5310 C   0  0  0  0  0  0  0  0  0  0  0  0
   45.2560   35.8930   43.3890 N   0  0  0  0  0  0  0  0  0  0  0  0
   46.1280   34.8870   43.1700 C   0  0  0  0  0  0  0  0  0  0  0  0
   46.3160   33.9490   44.1320 N   0  0  0  0  0  0  0  0  0  0  0  0
   45.7220   33.3280   46.1080 H   0  0  0  0  0  0  0  0  0  0  0  0
   44.1550   35.1750   46.4450 H   0  0  0  0  0  0  0  0  0  0  0  0
   43.8730   36.8670   44.6020 H   0  0  0  0  0  0  0  0  0  0  0  0
   46.8740   31.6570   38.5850 C   0  0  1  0  0  3  0  0  0  0  0  0
   46.4000   33.0960   38.6370 C   0  0  2  0  0  3  0  0  0  0  0  0
   46.6770   33.5040   37.3440 O   0  0  0  0  0  0  0  0  0  0  0  0
   45.9620   32.5360   36.6060 C   0  0  0  0  0  2  0  0  0  0  0  0
   46.1860   31.2230   37.2930 C   0  0  2  0  0  3  0  0  0  0  0  0
   48.2440   31.5830   38.3160 O   0  0  0  0  0  0  0  0  0  0  0  0
   48.4410   31.7560   37.3610 H   0  0  0  0  0  0  0  0  0  0  0  0
   44.9710   30.6310   37.6620 O   0  0  0  0  0  0  0  0  0  0  0  0
   44.3070   31.3230   37.8340 H   0  0  0  0  0  0  0  0  0  0  0  0
  2  1  1  0  0  0  0
  2  3  1  0  0  0  0
  3 15  1  0  0  0  0
  4  3  2  0  0  0  0
  4  8  1  0  0  0  0
  5  4  1  0  0  0  0
  6  7  1  0  0  0  0
  6  5  2  0  0  0  0
  7  2  2  0  0  0  0
  9  5  1  0  0  0  0
 10  6  1  0  0  0  0
 11 12  1  0  0  0  0
 11 17  1  0  0  0  0
 12 18  1  0  0  0  0
 13 19  1  0  0  0  0
 13 12  2  0  0  0  0
 14 13  1  0  0  0  0
 15 14  2  0  0  0  0
 15 16  1  0  0  0  0
 16 11  2  0  0  0  0
 20 25  1  6  0  0  0
 20 21  1  0  0  0  0
 21  7  1  1  0  0  0
 22 21  1  0  0  0  0
 23 24  1  0  0  0  0
 23 22  1  0  0  0  0
 24 27  1  1  0  0  0
 24 20  1  0  0  0  0
 26 25  1  0  0  0  0
 27 28  1  0  0  0  0
M  END
>  <minimizedAffinity>
-5.65616131

>  <minimizedRMSD>
0.914623201

$$$$
