
 OpenBabel03242514433D

 21 22  0  0  1  0  0  0  0  0999 V2000
   45.4460   35.0310   44.2130 C   0  0  0  0  0  0  0  0  0  0  0  0
   46.4130   34.2480   43.5700 C   0  0  0  0  0  0  0  0  0  0  0  0
   46.9180   33.1460   44.2650 C   0  0  0  0  0  0  0  0  0  0  0  0
   46.4490   32.8920   45.5210 N   0  0  0  0  0  0  0  0  0  0  0  0
   45.5130   33.6820   46.0970 C   0  0  0  0  0  0  0  0  0  0  0  0
   45.0100   34.7480   45.4520 N   0  0  0  0  0  0  0  0  0  0  0  0
   47.6660   32.5030   43.8230 H   0  0  0  0  0  0  0  0  0  0  0  0
   45.1630   33.4480   47.1020 H   0  0  0  0  0  0  0  0  0  0  0  0
   48.3230   35.0230   42.1490 C   0  0  2  0  0  0  0  0  0  0  0  0
   46.8870   34.5730   42.1950 C   0  0  1  0  0  0  0  0  0  0  0  0
   46.7410   33.5370   41.3020 O   0  0  0  0  0  0  0  0  0  0  0  0
   47.9670   33.0480   40.9430 C   0  0  0  0  0  0  0  0  0  0  0  0
   48.8420   34.2800   40.9120 C   0  0  1  0  0  0  0  0  0  0  0  0
   49.0770   34.6390   43.2380 O   0  0  0  0  0  0  0  0  0  0  0  0
   48.5500   34.3660   44.0130 H   0  0  0  0  0  0  0  0  0  0  0  0
   48.5230   34.9740   39.7550 O   0  0  0  0  0  0  0  0  0  0  0  0
   49.3540   35.2700   39.3070 H   0  0  0  0  0  0  0  0  0  0  0  0
   44.9050   36.2140   43.4630 C   0  0  0  0  0  0  0  0  0  0  0  0
   44.1140   36.6840   44.0870 H   0  0  0  0  0  0  0  0  0  0  0  0
   44.4100   35.9280   42.5170 H   0  0  0  0  0  0  0  0  0  0  0  0
   45.6910   36.9970   43.3440 H   0  0  0  0  0  0  0  0  0  0  0  0
  1  6  1  0  0  0  0
  2  1  2  0  0  0  0
  2  3  1  0  0  0  0
  3  4  2  0  0  0  0
  4  5  1  0  0  0  0
  5  8  1  0  0  0  0
  6  5  2  0  0  0  0
  7  3  1  0  0  0  0
  9 10  1  0  0  0  0
  9 14  1  1  0  0  0
 10  2  1  1  0  0  0
 11 10  1  0  0  0  0
 12 11  1  0  0  0  0
 13 16  1  6  0  0  0
 13 12  1  0  0  0  0
 13  9  1  0  0  0  0
 14 15  1  0  0  0  0
 17 16  1  0  0  0  0
 18 19  1  0  0  0  0
 18  1  1  0  0  0  0
 20 18  1  0  0  0  0
 21 18  1  0  0  0  0
M  END
>  <minimizedAffinity>
-4.63163996

>  <minimizedRMSD>
1.27626193

$$$$
