
 OpenBabel03252505453D

 25 27  0  0  1  0  0  0  0  0999 V2000
   41.4820   35.0450   40.3120 C   0  0  1  0  0  0  0  0  0  0  0  0
   42.8430   35.1570   40.9670 C   0  0  2  0  0  0  0  0  0  0  0  0
   42.6490   35.2530   39.4840 C   0  0  0  0  0  0  0  0  0  0  0  0
   40.7560   35.8960   40.5240 H   0  0  0  0  0  0  0  0  0  0  0  0
   43.0150   36.1720   41.4360 H   0  0  0  0  0  0  0  0  0  0  0  0
   42.7300   36.2490   38.9780 H   0  0  0  0  0  0  0  0  0  0  0  0
   42.9080   34.4230   38.7980 H   0  0  0  0  0  0  0  0  0  0  0  0
   40.8050   33.7440   40.4930 C   0  0  0  0  0  0  0  0  0  0  0  0
   40.8770   32.8350   39.4180 C   0  0  0  0  0  0  0  0  0  0  0  0
   40.2390   31.5810   39.5710 C   0  0  0  0  0  0  0  0  0  0  0  0
   39.5920   31.3450   40.7710 N   0  0  0  0  0  0  0  0  0  0  0  0
   39.5640   32.2640   41.7550 C   0  0  0  0  0  0  0  0  0  0  0  0
   40.1610   33.4460   41.6200 N   0  0  0  0  0  0  0  0  0  0  0  0
   41.3840   33.0220   38.4800 H   0  0  0  0  0  0  0  0  0  0  0  0
   40.2440   30.8250   38.7980 H   0  0  0  0  0  0  0  0  0  0  0  0
   39.0290   31.9900   42.6700 H   0  0  0  0  0  0  0  0  0  0  0  0
   44.8290   33.5910   40.8210 C   0  0  1  0  0  3  0  0  0  0  0  0
   43.5930   34.0190   41.5340 C   0  0  1  0  0  3  0  0  0  0  0  0
   44.0870   34.4110   42.7800 O   0  0  0  0  0  0  0  0  0  0  0  0
   45.1330   35.2920   42.4150 C   0  0  0  0  0  2  0  0  0  0  0  0
   45.8740   34.5490   41.3140 C   0  0  1  0  0  3  0  0  0  0  0  0
   45.1700   32.3130   41.2860 O   0  0  0  0  0  0  0  0  0  0  0  0
   45.5880   32.3930   42.1780 H   0  0  0  0  0  0  0  0  0  0  0  0
   46.9170   33.8670   41.9570 O   0  0  0  0  0  0  0  0  0  0  0  0
   47.6290   34.5270   42.1230 H   0  0  0  0  0  0  0  0  0  0  0  0
  1  8  1  0  0  0  0
  1  4  1  1  0  0  0
  1  2  1  0  0  0  0
  2  5  1  1  0  0  0
  2 18  1  0  0  0  0
  3  1  1  0  0  0  0
  3  2  1  0  0  0  0
  6  3  1  0  0  0  0
  7  3  1  0  0  0  0
  8 13  1  0  0  0  0
  9 10  1  0  0  0  0
  9  8  2  0  0  0  0
 10 11  2  0  0  0  0
 11 12  1  0  0  0  0
 12 16  1  0  0  0  0
 13 12  2  0  0  0  0
 14  9  1  0  0  0  0
 15 10  1  0  0  0  0
 17 22  1  1  0  0  0
 17 21  1  0  0  0  0
 17 18  1  0  0  0  0
 18 19  1  1  0  0  0
 20 19  1  0  0  0  0
 21 24  1  1  0  0  0
 21 20  1  0  0  0  0
 22 23  1  0  0  0  0
 24 25  1  0  0  0  0
M  END
>  <minimizedAffinity>
-3.6612699

>  <minimizedRMSD>
6.62808895

$$$$
