
 OpenBabel03242523463D

 19 20  0  0  1  0  0  0  0  0999 V2000
   44.9660   35.4160   44.1500 C   0  0  0  0  0  0  0  0  0  0  0  0
   45.9450   35.0610   43.2060 C   0  0  0  0  0  0  0  0  0  0  0  0
   46.8350   34.0380   43.5560 C   0  0  0  0  0  0  0  0  0  0  0  0
   46.7140   33.4420   44.7790 N   0  0  0  0  0  0  0  0  0  0  0  0
   45.7570   33.8190   45.6500 C   0  0  0  0  0  0  0  0  0  0  0  0
   44.8970   34.7880   45.3420 N   0  0  0  0  0  0  0  0  0  0  0  0
   46.0590   35.5170   42.2390 H   0  0  0  0  0  0  0  0  0  0  0  0
   45.7210   33.2970   46.6070 H   0  0  0  0  0  0  0  0  0  0  0  0
   49.1600   34.3980   42.6970 C   0  0  1  0  0  3  0  0  0  0  0  0
   47.9090   33.5430   42.7060 C   0  0  1  0  0  3  0  0  0  0  0  0
   48.4360   32.3400   43.1650 O   0  0  0  0  0  0  0  0  0  0  0  0
   49.5860   32.1060   42.4390 C   0  0  0  0  0  2  0  0  0  0  0  0
   50.1030   33.4380   41.9630 C   0  0  2  0  0  3  0  0  0  0  0  0
   49.0120   35.5830   41.9980 O   0  0  0  0  0  0  0  0  0  0  0  0
   49.5130   36.3470   42.4240 H   0  0  0  0  0  0  0  0  0  0  0  0
   51.4230   33.6650   42.3020 O   0  0  0  0  0  0  0  0  0  0  0  0
   51.9480   34.0190   41.5340 H   0  0  0  0  0  0  0  0  0  0  0  0
   44.0990   36.4120   43.8080 O   0  0  0  0  0  0  0  0  0  0  0  0
   44.4580   37.2000   43.2830 H   0  0  0  0  0  0  0  0  0  0  0  0
  1  6  1  0  0  0  0
  2  3  1  0  0  0  0
  2  1  2  0  0  0  0
  3  4  2  0  0  0  0
  4  5  1  0  0  0  0
  5  8  1  0  0  0  0
  6  5  2  0  0  0  0
  7  2  1  0  0  0  0
  9 14  1  6  0  0  0
  9 10  1  0  0  0  0
 10 11  1  0  0  0  0
 10  3  1  1  0  0  0
 12 11  1  0  0  0  0
 13 16  1  1  0  0  0
 13 12  1  0  0  0  0
 13  9  1  0  0  0  0
 14 15  1  0  0  0  0
 17 16  1  0  0  0  0
 18  1  1  0  0  0  0
 19 18  1  0  0  0  0
M  END
>  <minimizedAffinity>
-5.00872612

>  <minimizedRMSD>
0.518610835

$$$$
