
 OpenBabel03252505253D

 43 46  0  0  1  0  0  0  0  0999 V2000
   46.8410   33.3900   44.7900 F   0  0  0  0  0  0  0  0  0  0  0  0
   47.4230   32.1900   44.5270 C   0  0  0  0  0  0  0  0  0  0  0  0
   48.2230   32.0880   43.4190 C   0  0  0  0  0  0  0  0  0  0  0  0
   48.8040   30.8690   43.1670 C   0  0  0  0  0  0  0  0  0  0  0  0
   48.5740   29.8070   44.0130 C   0  0  0  0  0  0  0  0  0  0  0  0
   47.7720   29.9090   45.1240 C   0  0  0  0  0  0  0  0  0  0  0  0
   47.1850   31.1450   45.3770 C   0  0  0  0  0  0  0  0  0  0  0  0
   49.4340   30.8230   42.2790 H   0  0  0  0  0  0  0  0  0  0  0  0
   49.0830   28.8860   43.7230 H   0  0  0  0  0  0  0  0  0  0  0  0
   47.6210   29.0470   45.7590 H   0  0  0  0  0  0  0  0  0  0  0  0
   46.3600   31.2130   46.5380 N   0  0  0  0  0  0  0  0  0  0  0  0
   45.2730   30.3770   46.9710 C   0  0  0  0  0  0  0  0  0  0  0  0
   45.6590   30.0600   48.4230 C   0  0  0  0  0  0  0  0  0  0  0  0
   46.5510   31.2090   48.8160 C   0  0  0  0  0  0  0  0  0  0  0  0
   46.3660   32.1540   47.6440 C   0  0  2  0  0  0  0  0  0  0  0  0
   45.2230   29.4170   46.4040 H   0  0  0  0  0  0  0  0  0  0  0  0
   44.2930   30.8520   46.9620 H   0  0  0  0  0  0  0  0  0  0  0  0
   44.7670   29.9490   49.0700 H   0  0  0  0  0  0  0  0  0  0  0  0
   46.2450   29.1300   48.4460 H   0  0  0  0  0  0  0  0  0  0  0  0
   46.3030   31.6610   49.7900 H   0  0  0  0  0  0  0  0  0  0  0  0
   47.6390   30.9140   48.8230 H   0  0  0  0  0  0  0  0  0  0  0  0
   47.3010   32.7800   47.6000 H   0  0  0  0  0  0  0  0  0  0  0  0
   45.1520   33.0100   47.7210 C   0  0  0  0  0  0  0  0  0  0  0  0
   45.4650   34.0900   47.7620 H   0  0  0  0  0  0  0  0  0  0  0  0
   44.4790   32.9480   46.8390 H   0  0  0  0  0  0  0  0  0  0  0  0
   44.6030   32.8310   48.6840 H   0  0  0  0  0  0  0  0  0  0  0  0
   49.3890   35.3410   42.2070 C   0  0  0  0  0  0  0  0  0  0  0  0
   48.8480   35.4110   40.9200 C   0  0  0  0  0  0  0  0  0  0  0  0
   48.0890   34.3230   40.5000 C   0  0  0  0  0  0  0  0  0  0  0  0
   47.9120   33.2670   41.3440 N   0  0  0  0  0  0  0  0  0  0  0  0
   48.4390   33.2390   42.5510 C   0  0  0  0  0  0  0  0  0  0  0  0
   49.1750   34.2690   42.9850 N   0  0  0  0  0  0  0  0  0  0  0  0
   49.9850   36.1720   42.5610 H   0  0  0  0  0  0  0  0  0  0  0  0
   49.0480   36.2810   40.3480 H   0  0  0  0  0  0  0  0  0  0  0  0
   46.7250   33.1210   38.8780 C   0  0  2  0  0  3  0  0  0  0  0  0
   47.4980   34.3650   39.1360 C   0  0  2  0  0  3  0  0  0  0  0  0
   48.4460   34.5430   38.1580 O   0  0  0  0  0  0  0  0  0  0  0  0
   48.3800   33.5050   37.2720 C   0  0  0  0  0  2  0  0  0  0  0  0
   47.5220   32.4150   37.8210 C   0  0  1  0  0  3  0  0  0  0  0  0
   45.4200   33.3760   38.4570 O   0  0  0  0  0  0  0  0  0  0  0  0
   44.8010   33.0210   39.1430 H   0  0  0  0  0  0  0  0  0  0  0  0
   48.2730   31.3460   38.2980 O   0  0  0  0  0  0  0  0  0  0  0  0
   49.2390   31.4070   38.0780 H   0  0  0  0  0  0  0  0  0  0  0  0
  2  1  1  0  0  0  0
  2  7  1  0  0  0  0
  3  2  2  0  0  0  0
  4  3  1  0  0  0  0
  4  5  2  0  0  0  0
  5  6  1  0  0  0  0
  6  7  2  0  0  0  0
  6 10  1  0  0  0  0
  7 11  1  0  0  0  0
  8  4  1  0  0  0  0
  9  5  1  0  0  0  0
 11 12  1  0  0  0  0
 11 15  1  0  0  0  0
 12 13  1  0  0  0  0
 13 19  1  0  0  0  0
 13 14  1  0  0  0  0
 13 18  1  0  0  0  0
 14 21  1  0  0  0  0
 14 20  1  0  0  0  0
 15 22  1  6  0  0  0
 15 23  1  0  0  0  0
 15 14  1  0  0  0  0
 16 12  1  0  0  0  0
 17 12  1  0  0  0  0
 23 24  1  0  0  0  0
 23 26  1  0  0  0  0
 25 23  1  0  0  0  0
 27 33  1  0  0  0  0
 27 32  1  0  0  0  0
 28 27  2  0  0  0  0
 29 28  1  0  0  0  0
 29 30  2  0  0  0  0
 30 31  1  0  0  0  0
 31 32  2  0  0  0  0
 31  3  1  0  0  0  0
 34 28  1  0  0  0  0
 35 40  1  6  0  0  0
 35 36  1  0  0  0  0
 36 29  1  1  0  0  0
 37 36  1  0  0  0  0
 38 39  1  0  0  0  0
 38 37  1  0  0  0  0
 39 42  1  1  0  0  0
 39 35  1  0  0  0  0
 40 41  1  0  0  0  0
 43 42  1  0  0  0  0
M  END
>  <minimizedAffinity>
-5.6320343

>  <minimizedRMSD>
0.723124564

$$$$
