
 OpenBabel03242523463D

 19 20  0  0  1  0  0  0  0  0999 V2000
   44.9900   35.4270   44.1900 C   0  0  0  0  0  0  0  0  0  0  0  0
   46.0390   34.9480   43.3850 C   0  0  0  0  0  0  0  0  0  0  0  0
   46.8270   33.9130   43.9050 C   0  0  0  0  0  0  0  0  0  0  0  0
   46.5450   33.4240   45.1480 N   0  0  0  0  0  0  0  0  0  0  0  0
   45.5260   33.9180   45.8810 C   0  0  0  0  0  0  0  0  0  0  0  0
   44.7610   34.9020   45.4110 N   0  0  0  0  0  0  0  0  0  0  0  0
   46.2790   35.3190   42.4050 H   0  0  0  0  0  0  0  0  0  0  0  0
   45.3610   33.4770   46.8650 H   0  0  0  0  0  0  0  0  0  0  0  0
   47.8200   31.8050   42.9880 C   0  0  1  0  0  3  0  0  0  0  0  0
   47.9510   33.2980   43.2140 C   0  0  1  0  0  3  0  0  0  0  0  0
   48.0690   33.7370   41.8990 O   0  0  0  0  0  0  0  0  0  0  0  0
   48.9910   32.9140   41.2850 C   0  0  0  0  0  2  0  0  0  0  0  0
   48.9950   31.6010   42.0240 C   0  0  2  0  0  3  0  0  0  0  0  0
   47.9840   31.0570   44.1400 O   0  0  0  0  0  0  0  0  0  0  0  0
   47.3790   30.2510   44.1670 H   0  0  0  0  0  0  0  0  0  0  0  0
   48.7960   30.5110   41.2030 O   0  0  0  0  0  0  0  0  0  0  0  0
   49.4400   29.7770   41.3970 H   0  0  0  0  0  0  0  0  0  0  0  0
   44.2240   36.4350   43.6830 O   0  0  0  0  0  0  0  0  0  0  0  0
   44.6810   37.1590   43.1420 H   0  0  0  0  0  0  0  0  0  0  0  0
  1  6  1  0  0  0  0
  2  3  1  0  0  0  0
  2  1  2  0  0  0  0
  3  4  2  0  0  0  0
  4  5  1  0  0  0  0
  5  8  1  0  0  0  0
  6  5  2  0  0  0  0
  7  2  1  0  0  0  0
  9 10  1  0  0  0  0
  9 14  1  1  0  0  0
 10  3  1  6  0  0  0
 11 10  1  0  0  0  0
 12 11  1  0  0  0  0
 12 13  1  0  0  0  0
 13 16  1  6  0  0  0
 13  9  1  0  0  0  0
 14 15  1  0  0  0  0
 16 17  1  0  0  0  0
 18  1  1  0  0  0  0
 19 18  1  0  0  0  0
M  END
>  <minimizedAffinity>
-3.93609428

>  <minimizedRMSD>
0.454798281

$$$$
