
 OpenBabel03252506553D

 38 42  0  0  1  0  0  0  0  0999 V2000
   47.2670   31.3780   45.1610 C   0  0  0  0  0  0  0  0  0  0  0  0
   46.8870   32.7060   45.1330 C   0  0  0  0  0  0  0  0  0  0  0  0
   46.2530   33.3290   46.1900 C   0  0  0  0  0  0  0  0  0  0  0  0
   45.9710   32.6210   47.3470 C   0  0  0  0  0  0  0  0  0  0  0  0
   45.3820   32.8840   48.5490 N   0  0  0  0  0  0  0  0  0  0  0  0
   45.4010   31.7530   49.2940 C   0  0  0  0  0  0  0  0  0  0  0  0
   46.0020   30.7960   48.5430 N   0  0  0  0  0  0  0  0  0  0  0  0
   46.3600   31.2960   47.3540 C   0  0  0  0  0  0  0  0  0  0  0  0
   46.9890   30.6520   46.3200 C   0  0  0  0  0  0  0  0  0  0  0  0
   47.7590   30.9010   44.3360 H   0  0  0  0  0  0  0  0  0  0  0  0
   45.9520   34.3780   46.1700 H   0  0  0  0  0  0  0  0  0  0  0  0
   45.0020   33.8290   48.7890 H   0  0  0  0  0  0  0  0  0  0  0  0
   44.9920   31.6750   50.3120 H   0  0  0  0  0  0  0  0  0  0  0  0
   46.5360   35.1630   42.4080 C   0  0  0  0  0  0  0  0  0  0  0  0
   47.7010   34.9630   41.6750 C   0  0  0  0  0  0  0  0  0  0  0  0
   48.6010   33.9970   42.1050 C   0  0  0  0  0  0  0  0  0  0  0  0
   48.2990   33.2820   43.2390 N   0  0  0  0  0  0  0  0  0  0  0  0
   47.1650   33.4920   43.9330 C   0  0  0  0  0  0  0  0  0  0  0  0
   46.2950   34.4230   43.5200 N   0  0  0  0  0  0  0  0  0  0  0  0
   45.8120   35.9040   42.1050 H   0  0  0  0  0  0  0  0  0  0  0  0
   47.8920   35.5470   40.7960 H   0  0  0  0  0  0  0  0  0  0  0  0
   49.5230   33.7960   41.5780 H   0  0  0  0  0  0  0  0  0  0  0  0
   47.3620   29.2360   46.4300 C   0  0  0  0  0  0  0  0  0  0  0  0
   48.6650   28.7760   46.5230 C   0  0  0  0  0  0  0  0  0  0  0  0
   48.5160   27.3900   46.6060 C   0  0  0  0  0  0  0  0  0  0  0  0
   47.1540   27.0920   46.5580 C   0  0  0  0  0  0  0  0  0  0  0  0
   46.5140   28.2380   46.4530 O   0  0  0  0  0  0  0  0  0  0  0  0
   49.5990   29.3210   46.5340 H   0  0  0  0  0  0  0  0  0  0  0  0
   49.2910   26.6510   46.6920 H   0  0  0  0  0  0  0  0  0  0  0  0
   45.6920   25.4720   45.3390 C   0  0  2  0  0  3  0  0  0  0  0  0
   46.4790   25.7910   46.6100 C   0  0  1  0  0  3  0  0  0  0  0  0
   47.3420   24.6970   46.6350 O   0  0  0  0  0  0  0  0  0  0  0  0
   46.4410   23.6310   46.6040 C   0  0  0  0  0  2  0  0  0  0  0  0
   45.3670   24.0100   45.6100 C   0  0  2  0  0  3  0  0  0  0  0  0
   46.5640   25.4880   44.2340 O   0  0  0  0  0  0  0  0  0  0  0  0
   47.0690   24.6300   44.1800 H   0  0  0  0  0  0  0  0  0  0  0  0
   45.4100   23.2290   44.4610 O   0  0  0  0  0  0  0  0  0  0  0  0
   44.9130   23.7160   43.7550 H   0  0  0  0  0  0  0  0  0  0  0  0
  1  9  1  0  0  0  0
  2  1  2  0  0  0  0
  2  3  1  0  0  0  0
  3  4  2  0  0  0  0
  4  8  1  0  0  0  0
  4  5  1  0  0  0  0
  5 12  1  0  0  0  0
  5  6  1  0  0  0  0
  6 13  1  0  0  0  0
  7  6  2  0  0  0  0
  8  7  1  0  0  0  0
  9 23  1  0  0  0  0
  9  8  2  0  0  0  0
 10  1  1  0  0  0  0
 11  3  1  0  0  0  0
 14 19  1  0  0  0  0
 15 16  1  0  0  0  0
 15 14  2  0  0  0  0
 16 17  2  0  0  0  0
 17 18  1  0  0  0  0
 18  2  1  0  0  0  0
 19 18  2  0  0  0  0
 20 14  1  0  0  0  0
 21 15  1  0  0  0  0
 22 16  1  0  0  0  0
 23 27  1  0  0  0  0
 23 24  2  0  0  0  0
 24 28  1  0  0  0  0
 24 25  1  0  0  0  0
 25 29  1  0  0  0  0
 26 25  2  0  0  0  0
 27 26  1  0  0  0  0
 30 35  1  6  0  0  0
 30 34  1  0  0  0  0
 30 31  1  0  0  0  0
 31 26  1  6  0  0  0
 31 32  1  0  0  0  0
 33 32  1  0  0  0  0
 34 37  1  6  0  0  0
 34 33  1  0  0  0  0
 36 35  1  0  0  0  0
 38 37  1  0  0  0  0
M  END
>  <minimizedAffinity>
-5.29740953

>  <minimizedRMSD>
0.240623996

$$$$
