
 OpenBabel03252505533D

 33 35  0  0  1  0  0  0  0  0999 V2000
   47.3640   30.5790   47.5270 C   0  0  0  0  0  0  0  0  0  0  0  0
   48.0490   29.8400   46.5780 C   0  0  0  0  0  0  0  0  0  0  0  0
   49.2350   29.2570   46.9420 C   0  0  0  0  0  0  0  0  0  0  0  0
   49.7330   29.3840   48.1690 N   0  0  0  0  0  0  0  0  0  0  0  0
   49.0600   30.1050   49.0910 C   0  0  0  0  0  0  0  0  0  0  0  0
   47.8770   30.7030   48.7750 N   0  0  0  0  0  0  0  0  0  0  0  0
   47.5190   29.8310   45.6360 H   0  0  0  0  0  0  0  0  0  0  0  0
   49.7120   28.6980   46.1470 H   0  0  0  0  0  0  0  0  0  0  0  0
   50.3570   31.5220   50.5560 C   0  0  1  0  0  0  0  0  0  0  0  0
   49.7100   30.1800   50.4270 C   0  0  2  0  0  0  0  0  0  0  0  0
   50.6590   29.1960   50.6240 O   0  0  0  0  0  0  0  0  0  0  0  0
   51.8570   29.8080   50.9240 C   0  0  0  0  0  0  0  0  0  0  0  0
   51.4930   31.1710   51.5260 C   0  0  2  0  0  0  0  0  0  0  0  0
   50.9200   31.8710   49.3520 O   0  0  0  0  0  0  0  0  0  0  0  0
   50.7370   32.8180   49.1250 H   0  0  0  0  0  0  0  0  0  0  0  0
   51.0180   31.0260   52.8190 O   0  0  0  0  0  0  0  0  0  0  0  0
   50.8590   30.0640   53.0590 H   0  0  0  0  0  0  0  0  0  0  0  0
   46.0880   31.3150   47.4500 C   0  0  0  0  0  0  0  0  0  0  0  0
   45.5680   31.1550   48.4170 H   0  0  0  0  0  0  0  0  0  0  0  0
   45.4150   30.9350   46.6510 H   0  0  0  0  0  0  0  0  0  0  0  0
   46.3680   32.6850   47.3330 O   0  0  0  0  0  0  0  0  0  0  0  0
   44.7840   34.9930   45.1380 C   0  0  0  0  0  0  0  0  0  0  0  0
   45.4560   34.8210   43.9270 C   0  0  0  0  0  0  0  0  0  0  0  0
   46.4800   33.8750   43.9000 C   0  0  0  0  0  0  0  0  0  0  0  0
   46.7740   33.1800   45.0130 N   0  0  0  0  0  0  0  0  0  0  0  0
   46.0890   33.3870   46.1620 C   0  0  0  0  0  0  0  0  0  0  0  0
   45.1100   34.2780   46.2260 N   0  0  0  0  0  0  0  0  0  0  0  0
   43.9850   35.7290   45.1670 H   0  0  0  0  0  0  0  0  0  0  0  0
   47.0040   33.7400   42.9520 H   0  0  0  0  0  0  0  0  0  0  0  0
   45.0460   35.6470   42.7530 C   0  0  0  0  0  0  0  0  0  0  0  0
   45.3610   36.9420   43.0980 F   0  0  0  0  0  0  0  0  0  0  0  0
   43.6580   35.5150   42.6500 F   0  0  0  0  0  0  0  0  0  0  0  0
   45.6820   35.1960   41.6430 F   0  0  0  0  0  0  0  0  0  0  0  0
  1  6  1  0  0  0  0
  2  3  1  0  0  0  0
  2  1  2  0  0  0  0
  3  4  2  0  0  0  0
  4  5  1  0  0  0  0
  6  5  2  0  0  0  0
  7  2  1  0  0  0  0
  8  3  1  0  0  0  0
  9 14  1  6  0  0  0
  9 13  1  0  0  0  0
 10  5  1  6  0  0  0
 10  9  1  0  0  0  0
 10 11  1  0  0  0  0
 11 12  1  0  0  0  0
 12 13  1  0  0  0  0
 13 16  1  1  0  0  0
 15 14  1  0  0  0  0
 16 17  1  0  0  0  0
 18  1  1  0  0  0  0
 18 19  1  0  0  0  0
 20 18  1  0  0  0  0
 21 18  1  0  0  0  0
 22 28  1  0  0  0  0
 22 27  1  0  0  0  0
 23 22  2  0  0  0  0
 24 23  1  0  0  0  0
 24 25  2  0  0  0  0
 25 26  1  0  0  0  0
 26 27  2  0  0  0  0
 26 21  1  0  0  0  0
 29 24  1  0  0  0  0
 30 31  1  0  0  0  0
 30 23  1  0  0  0  0
 32 30  1  0  0  0  0
 33 30  1  0  0  0  0
M  END
>  <minimizedAffinity>
-5.88396311

>  <minimizedRMSD>
1.31412601

$$$$
