
 OpenBabel03242512133D

 41 44  0  0  1  0  0  0  0  0999 V2000
   35.1970   29.5710   40.1090 O   0  0  0  0  0  0  0  0  0  0  0  0
   36.6520   30.0050   40.2260 P   0  0  2  0  0  0  0  0  0  0  0  0
   37.6300   29.1950   39.1700 O   0  0  0  0  0  0  0  0  0  0  0  0
   37.5300   29.5770   38.2840 H   0  0  0  0  0  0  0  0  0  0  0  0
   37.0770   29.8700   41.8560 O   0  0  0  0  0  0  0  0  0  0  0  0
   38.1860   28.1840   43.2700 C   0  0  1  0  0  0  0  0  0  0  0  0
   39.2100   29.2420   42.6890 C   0  0  0  0  0  0  0  0  0  0  0  0
   38.0200   28.8650   41.9630 C   0  0  2  0  0  0  0  0  0  0  0  0
   37.6180   28.5570   44.1180 H   0  0  0  0  0  0  0  0  0  0  0  0
   40.1970   28.8470   42.3880 H   0  0  0  0  0  0  0  0  0  0  0  0
   39.2970   30.1700   43.2830 H   0  0  0  0  0  0  0  0  0  0  0  0
   37.9670   28.1330   41.1460 H   0  0  0  0  0  0  0  0  0  0  0  0
   38.7800   26.8180   43.3230 C   0  0  0  0  0  0  0  0  0  0  0  0
   39.5760   26.5810   44.2200 O   0  0  0  0  0  0  0  0  0  0  0  0
   39.3790   25.1830   41.5900 C   0  0  0  0  0  0  0  0  0  0  0  0
   38.4900   25.7680   42.4090 C   0  0  0  0  0  0  0  0  0  0  0  0
   37.1460   25.2740   42.3290 C   0  0  0  0  0  0  0  0  0  0  0  0
   36.8170   24.2790   41.4750 N   0  0  0  0  0  0  0  0  0  0  0  0
   37.7660   23.7290   40.6740 C   0  0  0  0  0  0  0  0  0  0  0  0
   39.0070   24.1760   40.7380 N   0  0  0  0  0  0  0  0  0  0  0  0
   40.4110   25.5180   41.6090 H   0  0  0  0  0  0  0  0  0  0  0  0
   36.3360   25.6250   42.9100 H   0  0  0  0  0  0  0  0  0  0  0  0
   37.5230   22.9390   39.9910 H   0  0  0  0  0  0  0  0  0  0  0  0
   36.5960   31.7040   39.8560 O   0  0  0  0  0  0  0  0  0  0  0  0
   37.7060   32.5190   39.8190 C   0  0  0  0  0  0  0  0  0  0  0  0
   37.8150   33.8630   40.1290 C   0  0  0  0  0  0  0  0  0  0  0  0
   39.0400   34.5030   40.0240 C   0  0  0  0  0  0  0  0  0  0  0  0
   40.1300   33.7950   39.6120 N   0  0  0  0  0  0  0  0  0  0  0  0
   40.0010   32.4770   39.3130 C   0  0  0  0  0  0  0  0  0  0  0  0
   38.8140   31.8230   39.4070 N   0  0  0  0  0  0  0  0  0  0  0  0
   36.8780   34.3110   40.4440 H   0  0  0  0  0  0  0  0  0  0  0  0
   39.0450   35.5520   40.2840 H   0  0  0  0  0  0  0  0  0  0  0  0
   41.1290   31.5750   37.3810 C   0  0  2  0  0  3  0  0  0  0  0  0
   41.2250   31.7290   38.8630 C   0  0  1  0  0  3  0  0  0  0  0  0
   42.2940   32.5560   39.1630 O   0  0  0  0  0  0  0  0  0  0  0  0
   43.0400   32.7630   38.0260 C   0  0  0  0  0  2  0  0  0  0  0  0
   42.5070   31.9240   36.9130 C   0  0  1  0  0  3  0  0  0  0  0  0
   40.2220   32.4590   36.7900 O   0  0  0  0  0  0  0  0  0  0  0  0
   39.3020   32.1780   37.0150 H   0  0  0  0  0  0  0  0  0  0  0  0
   43.2850   30.7500   36.8290 O   0  0  0  0  0  0  0  0  0  0  0  0
   42.6510   29.9950   36.6830 H   0  0  0  0  0  0  0  0  0  0  0  0
  2  1  2  6  0  0  0
  2  5  1  0  0  0  0
  3  2  1  0  0  0  0
  4  3  1  0  0  0  0
  5  8  1  0  0  0  0
  6 13  1  0  0  0  0
  6  9  1  1  0  0  0
  7  6  1  0  0  0  0
  7 11  1  0  0  0  0
  8 12  1  6  0  0  0
  8  7  1  0  0  0  0
  8  6  1  0  0  0  0
 10  7  1  0  0  0  0
 13 14  2  0  0  0  0
 15 21  1  0  0  0  0
 15 16  1  0  0  0  0
 16 13  1  0  0  0  0
 17 16  2  0  0  0  0
 17 22  1  0  0  0  0
 18 17  1  0  0  0  0
 19 20  1  0  0  0  0
 19 18  2  0  0  0  0
 20 15  2  0  0  0  0
 23 19  1  0  0  0  0
 24  2  1  0  0  0  0
 25 24  1  0  0  0  0
 25 26  1  0  0  0  0
 26 31  1  0  0  0  0
 27 26  2  0  0  0  0
 27 32  1  0  0  0  0
 28 27  1  0  0  0  0
 29 30  1  0  0  0  0
 29 28  2  0  0  0  0
 30 25  2  0  0  0  0
 33 38  1  6  0  0  0
 33 34  1  0  0  0  0
 34 35  1  0  0  0  0
 34 29  1  6  0  0  0
 36 35  1  0  0  0  0
 37 40  1  1  0  0  0
 37 33  1  0  0  0  0
 37 36  1  0  0  0  0
 38 39  1  0  0  0  0
 41 40  1  0  0  0  0
M  END
>  <minimizedAffinity>
-6.1777215

$$$$

 OpenBabel03242512133D

 41 44  0  0  1  0  0  0  0  0999 V2000
   36.6400   30.9620   38.3830 O   0  0  0  0  0  0  0  0  0  0  0  0
   37.9030   30.1240   38.5400 P   0  0  2  0  0  0  0  0  0  0  0  0
   38.8510   30.1690   37.1890 O   0  0  0  0  0  0  0  0  0  0  0  0
   39.3430   31.0060   37.1710 H   0  0  0  0  0  0  0  0  0  0  0  0
   37.4130   28.5830   39.0300 O   0  0  0  0  0  0  0  0  0  0  0  0
   36.7440   27.4350   41.1060 C   0  0  1  0  0  0  0  0  0  0  0  0
   36.1450   28.8970   41.0130 C   0  0  0  0  0  0  0  0  0  0  0  0
   37.4150   28.5620   40.4130 C   0  0  2  0  0  0  0  0  0  0  0  0
   36.2040   26.7100   40.5020 H   0  0  0  0  0  0  0  0  0  0  0  0
   36.1070   29.4670   41.9600 H   0  0  0  0  0  0  0  0  0  0  0  0
   35.1990   28.9700   40.4460 H   0  0  0  0  0  0  0  0  0  0  0  0
   38.4050   28.7530   40.8470 H   0  0  0  0  0  0  0  0  0  0  0  0
   37.1320   27.0890   42.5030 C   0  0  0  0  0  0  0  0  0  0  0  0
   36.2850   27.2190   43.3750 O   0  0  0  0  0  0  0  0  0  0  0  0
   39.3080   27.3120   43.6210 C   0  0  0  0  0  0  0  0  0  0  0  0
   38.4140   26.6170   42.8990 C   0  0  0  0  0  0  0  0  0  0  0  0
   38.8150   25.2970   42.5070 C   0  0  0  0  0  0  0  0  0  0  0  0
   40.0240   24.8020   42.8560 N   0  0  0  0  0  0  0  0  0  0  0  0
   40.8820   25.5580   43.5890 C   0  0  0  0  0  0  0  0  0  0  0  0
   40.5240   26.7750   43.9550 N   0  0  0  0  0  0  0  0  0  0  0  0
   39.0560   28.3170   43.9440 H   0  0  0  0  0  0  0  0  0  0  0  0
   38.2230   24.6260   41.9440 H   0  0  0  0  0  0  0  0  0  0  0  0
   41.8450   25.1810   43.8740 H   0  0  0  0  0  0  0  0  0  0  0  0
   38.7050   30.8560   39.8990 O   0  0  0  0  0  0  0  0  0  0  0  0
   39.1800   32.1500   39.9040 C   0  0  0  0  0  0  0  0  0  0  0  0
   38.7900   33.2210   40.6880 C   0  0  0  0  0  0  0  0  0  0  0  0
   39.4040   34.4540   40.5330 C   0  0  0  0  0  0  0  0  0  0  0  0
   40.3890   34.5980   39.6020 N   0  0  0  0  0  0  0  0  0  0  0  0
   40.7560   33.5340   38.8430 C   0  0  0  0  0  0  0  0  0  0  0  0
   40.1740   32.3140   38.9720 N   0  0  0  0  0  0  0  0  0  0  0  0
   37.9990   32.9770   41.3890 H   0  0  0  0  0  0  0  0  0  0  0  0
   39.0460   35.2410   41.1820 H   0  0  0  0  0  0  0  0  0  0  0  0
   43.1310   33.8640   38.5750 C   0  0  2  0  0  3  0  0  0  0  0  0
   41.8460   33.7310   37.8260 C   0  0  1  0  0  3  0  0  0  0  0  0
   41.8730   32.5620   37.0840 O   0  0  0  0  0  0  0  0  0  0  0  0
   43.1480   32.0450   37.1000 C   0  0  0  0  0  2  0  0  0  0  0  0
   44.0670   32.9900   37.8000 C   0  0  1  0  0  3  0  0  0  0  0  0
   43.0590   33.3850   39.8860 O   0  0  0  0  0  0  0  0  0  0  0  0
   42.5210   34.0090   40.4310 H   0  0  0  0  0  0  0  0  0  0  0  0
   44.7340   33.7640   36.8280 O   0  0  0  0  0  0  0  0  0  0  0  0
   44.7470   34.7010   37.1660 H   0  0  0  0  0  0  0  0  0  0  0  0
  2  1  2  6  0  0  0
  2  5  1  0  0  0  0
  2 24  1  0  0  0  0
  3  2  1  0  0  0  0
  4  3  1  0  0  0  0
  5  8  1  0  0  0  0
  6  9  1  6  0  0  0
  6 13  1  0  0  0  0
  7  6  1  0  0  0  0
  7 10  1  0  0  0  0
  8 12  1  1  0  0  0
  8  7  1  0  0  0  0
  8  6  1  0  0  0  0
 11  7  1  0  0  0  0
 13 16  1  0  0  0  0
 13 14  2  0  0  0  0
 15 21  1  0  0  0  0
 15 20  1  0  0  0  0
 16 15  2  0  0  0  0
 17 18  2  0  0  0  0
 17 16  1  0  0  0  0
 18 19  1  0  0  0  0
 19 23  1  0  0  0  0
 19 20  2  0  0  0  0
 22 17  1  0  0  0  0
 24 25  1  0  0  0  0
 25 26  1  0  0  0  0
 26 31  1  0  0  0  0
 27 26  2  0  0  0  0
 27 32  1  0  0  0  0
 28 27  1  0  0  0  0
 29 30  1  0  0  0  0
 29 28  2  0  0  0  0
 30 25  2  0  0  0  0
 33 38  1  1  0  0  0
 34 33  1  0  0  0  0
 34 29  1  1  0  0  0
 35 36  1  0  0  0  0
 35 34  1  0  0  0  0
 36 37  1  0  0  0  0
 37 40  1  6  0  0  0
 37 33  1  0  0  0  0
 38 39  1  0  0  0  0
 40 41  1  0  0  0  0
M  END
>  <minimizedAffinity>
-6.164464

$$$$

 OpenBabel03242512133D

 41 44  0  0  1  0  0  0  0  0999 V2000
   37.1160   29.7760   39.2810 O   0  0  0  0  0  0  0  0  0  0  0  0
   36.5380   30.0290   40.6680 P   0  0  2  0  0  0  0  0  0  0  0  0
   34.9530   29.5800   40.7730 O   0  0  0  0  0  0  0  0  0  0  0  0
   34.8990   28.6150   40.8670 H   0  0  0  0  0  0  0  0  0  0  0  0
   36.8610   31.6430   41.0490 O   0  0  0  0  0  0  0  0  0  0  0  0
   38.5630   33.3220   40.4490 C   0  0  1  0  0  0  0  0  0  0  0  0
   37.3300   33.3420   39.4570 C   0  0  0  0  0  0  0  0  0  0  0  0
   37.7550   32.1260   40.1090 C   0  0  2  0  0  0  0  0  0  0  0  0
   38.3640   33.8250   41.3910 H   0  0  0  0  0  0  0  0  0  0  0  0
   37.5670   33.5160   38.3910 H   0  0  0  0  0  0  0  0  0  0  0  0
   36.4760   33.9550   39.7990 H   0  0  0  0  0  0  0  0  0  0  0  0
   38.3840   31.3410   39.6680 H   0  0  0  0  0  0  0  0  0  0  0  0
   39.8470   33.5750   39.7340 C   0  0  0  0  0  0  0  0  0  0  0  0
   40.2260   34.7330   39.6450 O   0  0  0  0  0  0  0  0  0  0  0  0
   41.4580   31.7230   39.8210 C   0  0  0  0  0  0  0  0  0  0  0  0
   40.6630   32.5690   39.1470 C   0  0  0  0  0  0  0  0  0  0  0  0
   40.6610   32.4240   37.7200 C   0  0  0  0  0  0  0  0  0  0  0  0
   41.4210   31.4850   37.1130 N   0  0  0  0  0  0  0  0  0  0  0  0
   42.2030   30.6590   37.8540 C   0  0  0  0  0  0  0  0  0  0  0  0
   42.2130   30.7840   39.1690 N   0  0  0  0  0  0  0  0  0  0  0  0
   41.4980   31.7880   40.9040 H   0  0  0  0  0  0  0  0  0  0  0  0
   40.0860   33.0080   37.0520 H   0  0  0  0  0  0  0  0  0  0  0  0
   42.8120   29.9080   37.3890 H   0  0  0  0  0  0  0  0  0  0  0  0
   37.5400   29.0540   41.7040 O   0  0  0  0  0  0  0  0  0  0  0  0
   37.6410   27.6830   41.6070 C   0  0  0  0  0  0  0  0  0  0  0  0
   36.8420   26.7960   40.9080 C   0  0  0  0  0  0  0  0  0  0  0  0
   37.1190   25.4380   40.9420 C   0  0  0  0  0  0  0  0  0  0  0  0
   38.1810   24.9910   41.6690 N   0  0  0  0  0  0  0  0  0  0  0  0
   38.9530   25.8790   42.3480 C   0  0  0  0  0  0  0  0  0  0  0  0
   38.7060   27.2150   42.3330 N   0  0  0  0  0  0  0  0  0  0  0  0
   36.0310   27.2760   40.3700 H   0  0  0  0  0  0  0  0  0  0  0  0
   36.4510   24.8090   40.3710 H   0  0  0  0  0  0  0  0  0  0  0  0
   41.2520   25.1670   42.1870 C   0  0  2  0  0  3  0  0  0  0  0  0
   40.1160   25.3490   43.1390 C   0  0  1  0  0  3  0  0  0  0  0  0
   40.4350   26.3500   44.0400 O   0  0  0  0  0  0  0  0  0  0  0  0
   41.7660   26.6720   43.9060 C   0  0  0  0  0  2  0  0  0  0  0  0
   42.4140   25.7440   42.9330 C   0  0  1  0  0  3  0  0  0  0  0  0
   41.0940   25.8760   40.9940 O   0  0  0  0  0  0  0  0  0  0  0  0
   40.3920   25.4440   40.4500 H   0  0  0  0  0  0  0  0  0  0  0  0
   43.0610   24.7200   43.6580 O   0  0  0  0  0  0  0  0  0  0  0  0
   42.8710   23.8660   43.1810 H   0  0  0  0  0  0  0  0  0  0  0  0
  2  1  2  6  0  0  0
  2  3  1  0  0  0  0
  2  5  1  0  0  0  0
  2 24  1  0  0  0  0
  3  4  1  0  0  0  0
  6  9  1  1  0  0  0
  7 11  1  0  0  0  0
  7  8  1  0  0  0  0
  7  6  1  0  0  0  0
  8 12  1  6  0  0  0
  8  6  1  0  0  0  0
  8  5  1  0  0  0  0
 10  7  1  0  0  0  0
 13  6  1  0  0  0  0
 14 13  2  0  0  0  0
 15 21  1  0  0  0  0
 16 13  1  0  0  0  0
 16 15  2  0  0  0  0
 17 16  1  0  0  0  0
 18 17  2  0  0  0  0
 18 19  1  0  0  0  0
 19 20  2  0  0  0  0
 20 15  1  0  0  0  0
 22 17  1  0  0  0  0
 23 19  1  0  0  0  0
 25 24  1  0  0  0  0
 25 30  1  0  0  0  0
 26 27  1  0  0  0  0
 26 25  2  0  0  0  0
 27 28  2  0  0  0  0
 28 29  1  0  0  0  0
 30 29  2  0  0  0  0
 31 26  1  0  0  0  0
 32 27  1  0  0  0  0
 33 38  1  6  0  0  0
 33 37  1  0  0  0  0
 33 34  1  0  0  0  0
 34 29  1  6  0  0  0
 34 35  1  0  0  0  0
 36 35  1  0  0  0  0
 37 40  1  1  0  0  0
 37 36  1  0  0  0  0
 39 38  1  0  0  0  0
 41 40  1  0  0  0  0
M  END
>  <minimizedAffinity>
-6.09630919

$$$$

 OpenBabel03242512133D

 41 44  0  0  1  0  0  0  0  0999 V2000
   36.1580   30.4380   38.6560 O   0  0  0  0  0  0  0  0  0  0  0  0
   36.3630   30.2550   40.1540 P   0  0  2  0  0  0  0  0  0  0  0  0
   35.0740   29.5150   40.8730 O   0  0  0  0  0  0  0  0  0  0  0  0
   35.1130   28.5610   40.6960 H   0  0  0  0  0  0  0  0  0  0  0  0
   36.7720   31.7700   40.7820 O   0  0  0  0  0  0  0  0  0  0  0  0
   38.6440   33.3380   40.4510 C   0  0  1  0  0  0  0  0  0  0  0  0
   37.3750   33.7340   39.5920 C   0  0  0  0  0  0  0  0  0  0  0  0
   37.6720   32.3570   39.9120 C   0  0  2  0  0  0  0  0  0  0  0  0
   38.5600   33.6210   41.4970 H   0  0  0  0  0  0  0  0  0  0  0  0
   37.5790   34.1280   38.5800 H   0  0  0  0  0  0  0  0  0  0  0  0
   36.6260   34.3410   40.1330 H   0  0  0  0  0  0  0  0  0  0  0  0
   38.1710   31.6340   39.2530 H   0  0  0  0  0  0  0  0  0  0  0  0
   39.9120   33.6060   39.7140 C   0  0  0  0  0  0  0  0  0  0  0  0
   40.2970   34.7650   39.6540 O   0  0  0  0  0  0  0  0  0  0  0  0
   41.1720   31.4980   39.6570 C   0  0  0  0  0  0  0  0  0  0  0  0
   40.7070   32.6150   39.0750 C   0  0  0  0  0  0  0  0  0  0  0  0
   41.0590   32.7960   37.6960 C   0  0  0  0  0  0  0  0  0  0  0  0
   41.8140   31.8840   37.0440 N   0  0  0  0  0  0  0  0  0  0  0  0
   42.2520   30.7750   37.6920 C   0  0  0  0  0  0  0  0  0  0  0  0
   41.9350   30.5970   38.9620 N   0  0  0  0  0  0  0  0  0  0  0  0
   40.9350   31.3110   40.7000 H   0  0  0  0  0  0  0  0  0  0  0  0
   40.7660   33.6170   37.0990 H   0  0  0  0  0  0  0  0  0  0  0  0
   42.8530   30.0410   37.1890 H   0  0  0  0  0  0  0  0  0  0  0  0
   37.7910   29.2660   40.2470 O   0  0  0  0  0  0  0  0  0  0  0  0
   38.1120   28.4810   41.3330 C   0  0  0  0  0  0  0  0  0  0  0  0
   38.1920   28.8290   42.6690 C   0  0  0  0  0  0  0  0  0  0  0  0
   38.5360   27.8750   43.6150 C   0  0  0  0  0  0  0  0  0  0  0  0
   38.7940   26.5980   43.2130 N   0  0  0  0  0  0  0  0  0  0  0  0
   38.7090   26.2780   41.8960 C   0  0  0  0  0  0  0  0  0  0  0  0
   38.3740   27.1910   40.9470 N   0  0  0  0  0  0  0  0  0  0  0  0
   37.9640   29.8720   42.8590 H   0  0  0  0  0  0  0  0  0  0  0  0
   38.5770   28.2220   44.6370 H   0  0  0  0  0  0  0  0  0  0  0  0
   37.8320   24.0310   41.9080 C   0  0  2  0  0  3  0  0  0  0  0  0
   39.0010   24.8610   41.4900 C   0  0  1  0  0  3  0  0  0  0  0  0
   39.0720   24.8800   40.1080 O   0  0  0  0  0  0  0  0  0  0  0  0
   38.1970   23.9490   39.5960 C   0  0  0  0  0  2  0  0  0  0  0  0
   37.5830   23.1690   40.7100 C   0  0  1  0  0  3  0  0  0  0  0  0
   36.6810   24.7840   42.1600 O   0  0  0  0  0  0  0  0  0  0  0  0
   36.8000   25.2850   43.0030 H   0  0  0  0  0  0  0  0  0  0  0  0
   38.2930   21.9580   40.8490 O   0  0  0  0  0  0  0  0  0  0  0  0
   38.4130   21.8050   41.8260 H   0  0  0  0  0  0  0  0  0  0  0  0
  2  1  2  6  0  0  0
  2 24  1  0  0  0  0
  2  5  1  0  0  0  0
  2  3  1  0  0  0  0
  4  3  1  0  0  0  0
  6  9  1  1  0  0  0
  7  8  1  0  0  0  0
  7 11  1  0  0  0  0
  7  6  1  0  0  0  0
  8 12  1  6  0  0  0
  8  6  1  0  0  0  0
  8  5  1  0  0  0  0
 10  7  1  0  0  0  0
 13  6  1  0  0  0  0
 14 13  2  0  0  0  0
 15 21  1  0  0  0  0
 16 15  1  0  0  0  0
 16 13  1  0  0  0  0
 17 16  2  0  0  0  0
 18 19  2  0  0  0  0
 18 17  1  0  0  0  0
 19 20  1  0  0  0  0
 20 15  2  0  0  0  0
 22 17  1  0  0  0  0
 23 19  1  0  0  0  0
 24 25  1  0  0  0  0
 25 26  1  0  0  0  0
 26 31  1  0  0  0  0
 26 27  2  0  0  0  0
 27 32  1  0  0  0  0
 28 27  1  0  0  0  0
 29 28  2  0  0  0  0
 30 25  2  0  0  0  0
 30 29  1  0  0  0  0
 33 38  1  6  0  0  0
 34 29  1  6  0  0  0
 34 33  1  0  0  0  0
 35 34  1  0  0  0  0
 36 35  1  0  0  0  0
 36 37  1  0  0  0  0
 37 40  1  1  0  0  0
 37 33  1  0  0  0  0
 38 39  1  0  0  0  0
 40 41  1  0  0  0  0
M  END
>  <minimizedAffinity>
-6.03815031

$$$$

 OpenBabel03242512133D

 41 44  0  0  1  0  0  0  0  0999 V2000
   37.0430   33.2060   39.2180 O   0  0  0  0  0  0  0  0  0  0  0  0
   37.7150   31.8620   39.4720 P   0  0  2  0  0  0  0  0  0  0  0  0
   38.9720   31.5890   38.4370 O   0  0  0  0  0  0  0  0  0  0  0  0
   39.7460   32.0940   38.7340 H   0  0  0  0  0  0  0  0  0  0  0  0
   36.4960   30.6920   39.4560 O   0  0  0  0  0  0  0  0  0  0  0  0
   37.1840   28.8040   40.8830 C   0  0  1  0  0  0  0  0  0  0  0  0
   35.6100   28.9380   40.7890 C   0  0  0  0  0  0  0  0  0  0  0  0
   36.4720   30.0930   40.7020 C   0  0  2  0  0  0  0  0  0  0  0  0
   37.6280   28.3360   40.0080 H   0  0  0  0  0  0  0  0  0  0  0  0
   35.0480   28.7280   41.7180 H   0  0  0  0  0  0  0  0  0  0  0  0
   35.1590   28.4420   39.9090 H   0  0  0  0  0  0  0  0  0  0  0  0
   36.7070   30.7860   41.5210 H   0  0  0  0  0  0  0  0  0  0  0  0
   37.6180   28.3830   42.2460 C   0  0  0  0  0  0  0  0  0  0  0  0
   37.3960   29.1480   43.1720 O   0  0  0  0  0  0  0  0  0  0  0  0
   37.9630   25.9610   42.0180 C   0  0  0  0  0  0  0  0  0  0  0  0
   38.2710   27.1560   42.5480 C   0  0  0  0  0  0  0  0  0  0  0  0
   39.3490   27.1620   43.4950 C   0  0  0  0  0  0  0  0  0  0  0  0
   40.0010   26.0230   43.8180 N   0  0  0  0  0  0  0  0  0  0  0  0
   39.6390   24.8470   43.2440 C   0  0  0  0  0  0  0  0  0  0  0  0
   38.6480   24.8280   42.3720 N   0  0  0  0  0  0  0  0  0  0  0  0
   37.1560   25.8980   41.2960 H   0  0  0  0  0  0  0  0  0  0  0  0
   39.7120   28.0210   43.9920 H   0  0  0  0  0  0  0  0  0  0  0  0
   40.1460   23.9330   43.4890 H   0  0  0  0  0  0  0  0  0  0  0  0
   38.2690   31.9940   41.1160 O   0  0  0  0  0  0  0  0  0  0  0  0
   39.5910   31.8910   41.4920 C   0  0  0  0  0  0  0  0  0  0  0  0
   40.1750   31.0310   42.4050 C   0  0  0  0  0  0  0  0  0  0  0  0
   41.5400   31.0920   42.6390 C   0  0  0  0  0  0  0  0  0  0  0  0
   42.2940   32.0040   41.9640 N   0  0  0  0  0  0  0  0  0  0  0  0
   41.7000   32.8380   41.0710 C   0  0  0  0  0  0  0  0  0  0  0  0
   40.3660   32.8020   40.8210 N   0  0  0  0  0  0  0  0  0  0  0  0
   39.4690   30.3550   42.8740 H   0  0  0  0  0  0  0  0  0  0  0  0
   41.9230   30.3890   43.3650 H   0  0  0  0  0  0  0  0  0  0  0  0
   43.3650   33.0700   39.3410 C   0  0  2  0  0  3  0  0  0  0  0  0
   42.5640   33.8320   40.3450 C   0  0  1  0  0  3  0  0  0  0  0  0
   41.6840   34.6700   39.6820 O   0  0  0  0  0  0  0  0  0  0  0  0
   42.0030   34.6940   38.3440 C   0  0  0  0  0  2  0  0  0  0  0  0
   43.2530   33.9140   38.1090 C   0  0  1  0  0  3  0  0  0  0  0  0
   42.8420   31.8050   39.0610 O   0  0  0  0  0  0  0  0  0  0  0  0
   42.9980   31.2110   39.8350 H   0  0  0  0  0  0  0  0  0  0  0  0
   44.3370   34.8160   38.0600 O   0  0  0  0  0  0  0  0  0  0  0  0
   45.0810   34.4000   38.5760 H   0  0  0  0  0  0  0  0  0  0  0  0
  2  1  2  6  0  0  0
  2 24  1  0  0  0  0
  3  4  1  0  0  0  0
  3  2  1  0  0  0  0
  5  2  1  0  0  0  0
  5  8  1  0  0  0  0
  6  9  1  6  0  0  0
  6 13  1  0  0  0  0
  7  6  1  0  0  0  0
  7 10  1  0  0  0  0
  8  7  1  0  0  0  0
  8  6  1  0  0  0  0
  8 12  1  1  0  0  0
 11  7  1  0  0  0  0
 13 16  1  0  0  0  0
 13 14  2  0  0  0  0
 15 20  2  0  0  0  0
 15 16  1  0  0  0  0
 16 17  2  0  0  0  0
 17 18  1  0  0  0  0
 17 22  1  0  0  0  0
 19 23  1  0  0  0  0
 19 18  2  0  0  0  0
 20 19  1  0  0  0  0
 21 15  1  0  0  0  0
 24 25  1  0  0  0  0
 25 26  1  0  0  0  0
 26 27  2  0  0  0  0
 26 31  1  0  0  0  0
 27 32  1  0  0  0  0
 28 27  1  0  0  0  0
 29 28  2  0  0  0  0
 30 29  1  0  0  0  0
 30 25  2  0  0  0  0
 33 38  1  6  0  0  0
 33 34  1  0  0  0  0
 34 29  1  6  0  0  0
 35 34  1  0  0  0  0
 36 35  1  0  0  0  0
 37 40  1  1  0  0  0
 37 36  1  0  0  0  0
 37 33  1  0  0  0  0
 38 39  1  0  0  0  0
 40 41  1  0  0  0  0
M  END
>  <minimizedAffinity>
-6.03035259

$$$$

 OpenBabel03242512133D

 41 44  0  0  1  0  0  0  0  0999 V2000
   39.4250   29.9440   42.9590 O   0  0  0  0  0  0  0  0  0  0  0  0
   38.2720   29.1210   42.3970 P   0  0  2  0  0  0  0  0  0  0  0  0
   36.8740   29.3480   43.2460 O   0  0  0  0  0  0  0  0  0  0  0  0
   36.4730   30.1910   42.9810 H   0  0  0  0  0  0  0  0  0  0  0  0
   38.8100   27.5220   42.3020 O   0  0  0  0  0  0  0  0  0  0  0  0
   37.1610   26.3640   40.8830 C   0  0  1  0  0  0  0  0  0  0  0  0
   38.5460   25.6010   40.9310 C   0  0  0  0  0  0  0  0  0  0  0  0
   38.4710   27.0380   41.0510 C   0  0  2  0  0  0  0  0  0  0  0  0
   36.5500   26.2020   41.7680 H   0  0  0  0  0  0  0  0  0  0  0  0
   38.8770   25.1370   39.9840 H   0  0  0  0  0  0  0  0  0  0  0  0
   38.6650   24.9190   41.7920 H   0  0  0  0  0  0  0  0  0  0  0  0
   38.6430   27.7640   40.2460 H   0  0  0  0  0  0  0  0  0  0  0  0
   36.5370   26.2850   39.5310 C   0  0  0  0  0  0  0  0  0  0  0  0
   36.0350   25.2210   39.2010 O   0  0  0  0  0  0  0  0  0  0  0  0
   37.2410   27.4650   37.4950 C   0  0  0  0  0  0  0  0  0  0  0  0
   36.4810   27.3560   38.5970 C   0  0  0  0  0  0  0  0  0  0  0  0
   35.5490   28.4230   38.8240 C   0  0  0  0  0  0  0  0  0  0  0  0
   35.4590   29.4640   37.9670 N   0  0  0  0  0  0  0  0  0  0  0  0
   36.2570   29.5130   36.8690 C   0  0  0  0  0  0  0  0  0  0  0  0
   37.1190   28.5370   36.6500 N   0  0  0  0  0  0  0  0  0  0  0  0
   37.9630   26.6860   37.2740 H   0  0  0  0  0  0  0  0  0  0  0  0
   34.8800   28.4790   39.6400 H   0  0  0  0  0  0  0  0  0  0  0  0
   36.1980   30.3320   36.1790 H   0  0  0  0  0  0  0  0  0  0  0  0
   38.1210   29.7030   40.7650 O   0  0  0  0  0  0  0  0  0  0  0  0
   38.3380   31.0120   40.3930 C   0  0  0  0  0  0  0  0  0  0  0  0
   37.4600   32.0810   40.4080 C   0  0  0  0  0  0  0  0  0  0  0  0
   37.8840   33.3330   39.9870 C   0  0  0  0  0  0  0  0  0  0  0  0
   39.1690   33.4950   39.5610 N   0  0  0  0  0  0  0  0  0  0  0  0
   40.0140   32.4310   39.5550 C   0  0  0  0  0  0  0  0  0  0  0  0
   39.6270   31.1940   39.9610 N   0  0  0  0  0  0  0  0  0  0  0  0
   36.4700   31.8230   40.7680 H   0  0  0  0  0  0  0  0  0  0  0  0
   37.1420   34.1170   40.0280 H   0  0  0  0  0  0  0  0  0  0  0  0
   41.4260   32.4400   37.5990 C   0  0  2  0  0  3  0  0  0  0  0  0
   41.4230   32.6480   39.0780 C   0  0  1  0  0  3  0  0  0  0  0  0
   41.7040   33.9760   39.3500 O   0  0  0  0  0  0  0  0  0  0  0  0
   42.1190   34.5970   38.1940 C   0  0  0  0  0  2  0  0  0  0  0  0
   42.2410   33.5920   37.0970 C   0  0  1  0  0  3  0  0  0  0  0  0
   40.1530   32.5140   37.0270 O   0  0  0  0  0  0  0  0  0  0  0  0
   39.6390   31.7080   37.2750 H   0  0  0  0  0  0  0  0  0  0  0  0
   43.5930   33.2020   36.9990 O   0  0  0  0  0  0  0  0  0  0  0  0
   43.5990   32.2140   36.8710 H   0  0  0  0  0  0  0  0  0  0  0  0
  2  1  2  1  0  0  0
  2  3  1  0  0  0  0
  4  3  1  0  0  0  0
  5  2  1  0  0  0  0
  6  7  1  0  0  0  0
  6  8  1  0  0  0  0
  6  9  1  1  0  0  0
  7  8  1  0  0  0  0
  7 11  1  0  0  0  0
  8 12  1  6  0  0  0
  8  5  1  0  0  0  0
 10  7  1  0  0  0  0
 13  6  1  0  0  0  0
 14 13  2  0  0  0  0
 15 16  1  0  0  0  0
 16 17  2  0  0  0  0
 16 13  1  0  0  0  0
 17 22  1  0  0  0  0
 18 17  1  0  0  0  0
 19 18  2  0  0  0  0
 20 19  1  0  0  0  0
 20 15  2  0  0  0  0
 21 15  1  0  0  0  0
 23 19  1  0  0  0  0
 24  2  1  0  0  0  0
 25 26  1  0  0  0  0
 25 24  1  0  0  0  0
 26 31  1  0  0  0  0
 27 32  1  0  0  0  0
 27 26  2  0  0  0  0
 28 27  1  0  0  0  0
 29 28  2  0  0  0  0
 29 30  1  0  0  0  0
 30 25  2  0  0  0  0
 33 38  1  6  0  0  0
 33 34  1  0  0  0  0
 34 35  1  0  0  0  0
 34 29  1  6  0  0  0
 36 35  1  0  0  0  0
 37 40  1  1  0  0  0
 37 33  1  0  0  0  0
 37 36  1  0  0  0  0
 38 39  1  0  0  0  0
 41 40  1  0  0  0  0
M  END
>  <minimizedAffinity>
-5.98113012

$$$$

 OpenBabel03242512133D

 41 44  0  0  1  0  0  0  0  0999 V2000
   37.3560   29.4450   42.4840 O   0  0  0  0  0  0  0  0  0  0  0  0
   37.0130   30.2150   41.2150 P   0  0  2  0  0  0  0  0  0  0  0  0
   35.4220   30.6540   41.1650 O   0  0  0  0  0  0  0  0  0  0  0  0
   35.2850   31.4270   41.7360 H   0  0  0  0  0  0  0  0  0  0  0  0
   37.5480   29.2800   39.9130 O   0  0  0  0  0  0  0  0  0  0  0  0
   37.8850   26.9130   39.3160 C   0  0  1  0  0  0  0  0  0  0  0  0
   36.3770   27.2270   39.6800 C   0  0  0  0  0  0  0  0  0  0  0  0
   37.4680   27.9510   40.2890 C   0  0  2  0  0  0  0  0  0  0  0  0
   38.1590   27.2300   38.3130 H   0  0  0  0  0  0  0  0  0  0  0  0
   35.8420   26.4430   40.2470 H   0  0  0  0  0  0  0  0  0  0  0  0
   35.7740   27.6180   38.8410 H   0  0  0  0  0  0  0  0  0  0  0  0
   37.9020   27.7550   41.2790 H   0  0  0  0  0  0  0  0  0  0  0  0
   38.2980   25.5650   39.8020 C   0  0  0  0  0  0  0  0  0  0  0  0
   37.8710   24.5910   39.2000 O   0  0  0  0  0  0  0  0  0  0  0  0
   38.7790   24.7570   42.0710 C   0  0  0  0  0  0  0  0  0  0  0  0
   39.1510   25.3280   40.9140 C   0  0  0  0  0  0  0  0  0  0  0  0
   40.5280   25.7210   40.8240 C   0  0  0  0  0  0  0  0  0  0  0  0
   41.3810   25.5190   41.8540 N   0  0  0  0  0  0  0  0  0  0  0  0
   40.9390   24.9350   42.9980 C   0  0  0  0  0  0  0  0  0  0  0  0
   39.6730   24.5700   43.0930 N   0  0  0  0  0  0  0  0  0  0  0  0
   37.7490   24.4400   42.1940 H   0  0  0  0  0  0  0  0  0  0  0  0
   40.9740   26.1750   39.9800 H   0  0  0  0  0  0  0  0  0  0  0  0
   41.6020   24.7680   43.8250 H   0  0  0  0  0  0  0  0  0  0  0  0
   38.0500   31.6080   41.2980 O   0  0  0  0  0  0  0  0  0  0  0  0
   39.4270   31.5430   41.2770 C   0  0  0  0  0  0  0  0  0  0  0  0
   40.2970   31.1340   42.2710 C   0  0  0  0  0  0  0  0  0  0  0  0
   41.6650   31.1440   42.0430 C   0  0  0  0  0  0  0  0  0  0  0  0
   42.1380   31.5620   40.8360 N   0  0  0  0  0  0  0  0  0  0  0  0
   41.2660   31.9600   39.8740 C   0  0  0  0  0  0  0  0  0  0  0  0
   39.9210   31.9600   40.0680 N   0  0  0  0  0  0  0  0  0  0  0  0
   39.7970   30.8250   43.1830 H   0  0  0  0  0  0  0  0  0  0  0  0
   42.2800   30.8100   42.8670 H   0  0  0  0  0  0  0  0  0  0  0  0
   41.5480   33.8770   38.4370 C   0  0  2  0  0  3  0  0  0  0  0  0
   41.8240   32.4150   38.5540 C   0  0  1  0  0  3  0  0  0  0  0  0
   43.1910   32.2170   38.6450 O   0  0  0  0  0  0  0  0  0  0  0  0
   43.8390   33.3980   38.3620 C   0  0  0  0  0  2  0  0  0  0  0  0
   42.8470   34.4280   37.9360 C   0  0  1  0  0  3  0  0  0  0  0  0
   41.2510   34.4840   39.6600 O   0  0  0  0  0  0  0  0  0  0  0  0
   40.3510   34.2000   39.9530 H   0  0  0  0  0  0  0  0  0  0  0  0
   42.8260   34.4690   36.5260 O   0  0  0  0  0  0  0  0  0  0  0  0
   41.8700   34.5370   36.2550 H   0  0  0  0  0  0  0  0  0  0  0  0
  2 24  1  0  0  0  0
  2  1  2  1  0  0  0
  3  2  1  0  0  0  0
  3  4  1  0  0  0  0
  5  8  1  0  0  0  0
  5  2  1  0  0  0  0
  6  9  1  6  0  0  0
  6  7  1  0  0  0  0
  6 13  1  0  0  0  0
  6  8  1  0  0  0  0
  7 10  1  0  0  0  0
  7  8  1  0  0  0  0
  8 12  1  1  0  0  0
 11  7  1  0  0  0  0
 13 16  1  0  0  0  0
 14 13  2  0  0  0  0
 15 21  1  0  0  0  0
 15 20  1  0  0  0  0
 16 15  2  0  0  0  0
 17 16  1  0  0  0  0
 17 18  2  0  0  0  0
 18 19  1  0  0  0  0
 19 20  2  0  0  0  0
 19 23  1  0  0  0  0
 22 17  1  0  0  0  0
 25 24  1  0  0  0  0
 25 26  1  0  0  0  0
 26 31  1  0  0  0  0
 27 26  2  0  0  0  0
 27 32  1  0  0  0  0
 28 27  1  0  0  0  0
 29 30  1  0  0  0  0
 29 28  2  0  0  0  0
 30 25  2  0  0  0  0
 33 34  1  0  0  0  0
 33 38  1  1  0  0  0
 34 35  1  0  0  0  0
 34 29  1  1  0  0  0
 36 35  1  0  0  0  0
 37 40  1  6  0  0  0
 37 36  1  0  0  0  0
 37 33  1  0  0  0  0
 38 39  1  0  0  0  0
 41 40  1  0  0  0  0
M  END
>  <minimizedAffinity>
-5.89443159

$$$$

 OpenBabel03242512133D

 41 44  0  0  1  0  0  0  0  0999 V2000
   35.4020   29.4720   37.4010 O   0  0  0  0  0  0  0  0  0  0  0  0
   36.8960   29.2450   37.5920 P   0  0  2  0  0  0  0  0  0  0  0  0
   37.8000   30.1230   36.5250 O   0  0  0  0  0  0  0  0  0  0  0  0
   37.8460   31.0440   36.8270 H   0  0  0  0  0  0  0  0  0  0  0  0
   37.1490   27.5750   37.5530 O   0  0  0  0  0  0  0  0  0  0  0  0
   38.1200   26.1030   39.2750 C   0  0  1  0  0  0  0  0  0  0  0  0
   36.5960   25.7770   39.0030 C   0  0  0  0  0  0  0  0  0  0  0  0
   37.1200   27.1150   38.8570 C   0  0  2  0  0  0  0  0  0  0  0  0
   38.7870   25.6990   38.5190 H   0  0  0  0  0  0  0  0  0  0  0  0
   35.9920   25.5080   39.8890 H   0  0  0  0  0  0  0  0  0  0  0  0
   36.4170   25.0930   38.1540 H   0  0  0  0  0  0  0  0  0  0  0  0
   37.0470   27.9220   39.5990 H   0  0  0  0  0  0  0  0  0  0  0  0
   38.4640   25.9540   40.7180 C   0  0  0  0  0  0  0  0  0  0  0  0
   39.0440   24.9340   41.0590 O   0  0  0  0  0  0  0  0  0  0  0  0
   38.8510   28.0460   41.9460 C   0  0  0  0  0  0  0  0  0  0  0  0
   38.1690   26.9110   41.7280 C   0  0  0  0  0  0  0  0  0  0  0  0
   37.0580   26.6700   42.6030 C   0  0  0  0  0  0  0  0  0  0  0  0
   36.7360   27.5470   43.5800 N   0  0  0  0  0  0  0  0  0  0  0  0
   37.4680   28.6780   43.7460 C   0  0  0  0  0  0  0  0  0  0  0  0
   38.4940   28.9110   42.9470 N   0  0  0  0  0  0  0  0  0  0  0  0
   39.7020   28.2790   41.3130 H   0  0  0  0  0  0  0  0  0  0  0  0
   36.4210   25.8280   42.5560 H   0  0  0  0  0  0  0  0  0  0  0  0
   37.2270   29.3850   44.5170 H   0  0  0  0  0  0  0  0  0  0  0  0
   37.1750   29.7610   39.2300 O   0  0  0  0  0  0  0  0  0  0  0  0
   37.7740   30.9560   39.5670 C   0  0  0  0  0  0  0  0  0  0  0  0
   37.2440   32.0370   40.2480 C   0  0  0  0  0  0  0  0  0  0  0  0
   38.0260   33.1570   40.4870 C   0  0  0  0  0  0  0  0  0  0  0  0
   39.3140   33.1800   40.0420 N   0  0  0  0  0  0  0  0  0  0  0  0
   39.8140   32.1080   39.3750 C   0  0  0  0  0  0  0  0  0  0  0  0
   39.0720   30.9970   39.1270 N   0  0  0  0  0  0  0  0  0  0  0  0
   36.2110   31.8950   40.5480 H   0  0  0  0  0  0  0  0  0  0  0  0
   37.5420   33.9600   41.0250 H   0  0  0  0  0  0  0  0  0  0  0  0
   41.2090   32.1420   37.4070 C   0  0  2  0  0  3  0  0  0  0  0  0
   41.2380   32.1700   38.9000 C   0  0  1  0  0  3  0  0  0  0  0  0
   41.7150   33.3990   39.3210 O   0  0  0  0  0  0  0  0  0  0  0  0
   42.2160   34.0850   38.2390 C   0  0  0  0  0  2  0  0  0  0  0  0
   42.1850   33.2120   37.0290 C   0  0  1  0  0  3  0  0  0  0  0  0
   39.9600   32.4700   36.8720 O   0  0  0  0  0  0  0  0  0  0  0  0
   39.3320   31.7250   37.0330 H   0  0  0  0  0  0  0  0  0  0  0  0
   43.4640   32.6400   36.8600 O   0  0  0  0  0  0  0  0  0  0  0  0
   43.3220   31.6850   36.6160 H   0  0  0  0  0  0  0  0  0  0  0  0
  2  1  2  6  0  0  0
  2 24  1  0  0  0  0
  3  4  1  0  0  0  0
  3  2  1  0  0  0  0
  5  2  1  0  0  0  0
  5  8  1  0  0  0  0
  6  9  1  6  0  0  0
  6 13  1  0  0  0  0
  7  6  1  0  0  0  0
  7 10  1  0  0  0  0
  8  7  1  0  0  0  0
  8  6  1  0  0  0  0
  8 12  1  1  0  0  0
 11  7  1  0  0  0  0
 13 14  2  0  0  0  0
 13 16  1  0  0  0  0
 15 20  1  0  0  0  0
 16 15  2  0  0  0  0
 16 17  1  0  0  0  0
 17 18  2  0  0  0  0
 18 19  1  0  0  0  0
 19 23  1  0  0  0  0
 20 19  2  0  0  0  0
 21 15  1  0  0  0  0
 22 17  1  0  0  0  0
 24 25  1  0  0  0  0
 25 26  1  0  0  0  0
 26 27  2  0  0  0  0
 26 31  1  0  0  0  0
 27 32  1  0  0  0  0
 28 27  1  0  0  0  0
 29 28  2  0  0  0  0
 30 29  1  0  0  0  0
 30 25  2  0  0  0  0
 33 38  1  1  0  0  0
 33 34  1  0  0  0  0
 34 35  1  0  0  0  0
 34 29  1  1  0  0  0
 36 35  1  0  0  0  0
 37 40  1  1  0  0  0
 37 33  1  0  0  0  0
 37 36  1  0  0  0  0
 38 39  1  0  0  0  0
 41 40  1  0  0  0  0
M  END
>  <minimizedAffinity>
-5.8908844

$$$$

 OpenBabel03242512133D

 41 44  0  0  1  0  0  0  0  0999 V2000
   40.7310   28.7100   40.1520 O   0  0  0  0  0  0  0  0  0  0  0  0
   40.8240   29.8150   41.1960 P   0  0  2  0  0  0  0  0  0  0  0  0
   42.2600   30.6280   41.1170 O   0  0  0  0  0  0  0  0  0  0  0  0
   42.2310   31.2550   40.3760 H   0  0  0  0  0  0  0  0  0  0  0  0
   40.4730   29.1100   42.6910 O   0  0  0  0  0  0  0  0  0  0  0  0
   38.1880   28.4180   43.3020 C   0  0  1  0  0  0  0  0  0  0  0  0
   39.2500   27.2770   43.5760 C   0  0  0  0  0  0  0  0  0  0  0  0
   39.4230   28.2290   42.5040 C   0  0  2  0  0  0  0  0  0  0  0  0
   38.1830   29.1920   44.0650 H   0  0  0  0  0  0  0  0  0  0  0  0
   38.9200   26.2440   43.3570 H   0  0  0  0  0  0  0  0  0  0  0  0
   39.7630   27.3520   44.5520 H   0  0  0  0  0  0  0  0  0  0  0  0
   39.1830   28.0620   41.4460 H   0  0  0  0  0  0  0  0  0  0  0  0
   36.8960   27.8590   42.8110 C   0  0  0  0  0  0  0  0  0  0  0  0
   36.1690   27.3110   43.6260 O   0  0  0  0  0  0  0  0  0  0  0  0
   35.7270   28.9150   40.9260 C   0  0  0  0  0  0  0  0  0  0  0  0
   36.4450   27.9160   41.4630 C   0  0  0  0  0  0  0  0  0  0  0  0
   36.7670   26.8310   40.5810 C   0  0  0  0  0  0  0  0  0  0  0  0
   36.3610   26.8360   39.2910 N   0  0  0  0  0  0  0  0  0  0  0  0
   35.6360   27.8790   38.8110 C   0  0  0  0  0  0  0  0  0  0  0  0
   35.3340   28.8840   39.6140 N   0  0  0  0  0  0  0  0  0  0  0  0
   35.4550   29.7620   41.5480 H   0  0  0  0  0  0  0  0  0  0  0  0
   37.3290   25.9780   40.8500 H   0  0  0  0  0  0  0  0  0  0  0  0
   35.3060   27.8990   37.7900 H   0  0  0  0  0  0  0  0  0  0  0  0
   39.4870   30.8550   40.8010 O   0  0  0  0  0  0  0  0  0  0  0  0
   39.6200   32.1910   40.4860 C   0  0  0  0  0  0  0  0  0  0  0  0
   38.9480   33.2820   41.0060 C   0  0  0  0  0  0  0  0  0  0  0  0
   39.2360   34.5580   40.5450 C   0  0  0  0  0  0  0  0  0  0  0  0
   40.1820   34.7220   39.5790 N   0  0  0  0  0  0  0  0  0  0  0  0
   40.8300   33.6360   39.0820 C   0  0  0  0  0  0  0  0  0  0  0  0
   40.5700   32.3750   39.5140 N   0  0  0  0  0  0  0  0  0  0  0  0
   38.2210   33.0190   41.7680 H   0  0  0  0  0  0  0  0  0  0  0  0
   38.6700   35.3580   41.0000 H   0  0  0  0  0  0  0  0  0  0  0  0
   43.1950   33.9130   38.6970 C   0  0  2  0  0  3  0  0  0  0  0  0
   41.8670   33.8560   38.0170 C   0  0  1  0  0  3  0  0  0  0  0  0
   41.8170   32.7290   37.2150 O   0  0  0  0  0  0  0  0  0  0  0  0
   43.0740   32.1760   37.1320 C   0  0  0  0  0  2  0  0  0  0  0  0
   44.0590   33.0550   37.8250 C   0  0  1  0  0  3  0  0  0  0  0  0
   43.1820   33.3670   39.9830 O   0  0  0  0  0  0  0  0  0  0  0  0
   42.6940   33.9760   40.5890 H   0  0  0  0  0  0  0  0  0  0  0  0
   44.6950   33.8620   36.8580 O   0  0  0  0  0  0  0  0  0  0  0  0
   44.7560   34.7790   37.2420 H   0  0  0  0  0  0  0  0  0  0  0  0
  2  1  2  6  0  0  0
  2  5  1  0  0  0  0
  3  2  1  0  0  0  0
  4  3  1  0  0  0  0
  6  7  1  0  0  0  0
  6  9  1  1  0  0  0
  7 11  1  0  0  0  0
  8 12  1  6  0  0  0
  8  5  1  0  0  0  0
  8  6  1  0  0  0  0
  8  7  1  0  0  0  0
 10  7  1  0  0  0  0
 13  6  1  0  0  0  0
 13 14  2  0  0  0  0
 15 16  1  0  0  0  0
 15 21  1  0  0  0  0
 16 13  1  0  0  0  0
 17 22  1  0  0  0  0
 17 16  2  0  0  0  0
 18 17  1  0  0  0  0
 19 18  2  0  0  0  0
 19 20  1  0  0  0  0
 20 15  2  0  0  0  0
 23 19  1  0  0  0  0
 24  2  1  0  0  0  0
 25 24  1  0  0  0  0
 25 26  1  0  0  0  0
 26 31  1  0  0  0  0
 27 32  1  0  0  0  0
 27 26  2  0  0  0  0
 28 27  1  0  0  0  0
 29 30  1  0  0  0  0
 29 28  2  0  0  0  0
 30 25  2  0  0  0  0
 33 38  1  1  0  0  0
 34 33  1  0  0  0  0
 34 29  1  1  0  0  0
 35 34  1  0  0  0  0
 36 35  1  0  0  0  0
 36 37  1  0  0  0  0
 37 40  1  6  0  0  0
 37 33  1  0  0  0  0
 38 39  1  0  0  0  0
 40 41  1  0  0  0  0
M  END
>  <minimizedAffinity>
-5.87597847

$$$$
