
 OpenBabel03242523483D

 19 20  0  0  1  0  0  0  0  0999 V2000
   39.2150   27.6970   43.1930 C   0  0  0  0  0  0  0  0  0  0  0  0
   39.1580   28.6570   42.1670 C   0  0  0  0  0  0  0  0  0  0  0  0
   37.8920   28.9980   41.6740 C   0  0  0  0  0  0  0  0  0  0  0  0
   36.7880   28.3930   42.2040 N   0  0  0  0  0  0  0  0  0  0  0  0
   36.8960   27.4780   43.1890 C   0  0  0  0  0  0  0  0  0  0  0  0
   38.0880   27.1350   43.6760 N   0  0  0  0  0  0  0  0  0  0  0  0
   40.0130   29.1440   41.7340 H   0  0  0  0  0  0  0  0  0  0  0  0
   35.9710   27.0380   43.5630 H   0  0  0  0  0  0  0  0  0  0  0  0
   36.8830   31.2030   41.0520 C   0  0  1  0  0  3  0  0  0  0  0  0
   37.6450   29.9680   40.6170 C   0  0  1  0  0  3  0  0  0  0  0  0
   38.8180   30.5530   40.1510 O   0  0  0  0  0  0  0  0  0  0  0  0
   38.4420   31.6120   39.3490 C   0  0  0  0  0  2  0  0  0  0  0  0
   37.0770   32.0620   39.7970 C   0  0  2  0  0  3  0  0  0  0  0  0
   35.5400   30.9680   41.2920 O   0  0  0  0  0  0  0  0  0  0  0  0
   35.1850   31.5090   42.0640 H   0  0  0  0  0  0  0  0  0  0  0  0
   37.0140   33.4100   40.0880 O   0  0  0  0  0  0  0  0  0  0  0  0
   36.2110   33.8400   39.6840 H   0  0  0  0  0  0  0  0  0  0  0  0
   40.4480   27.3660   43.6710 O   0  0  0  0  0  0  0  0  0  0  0  0
   41.2160   27.2990   43.0130 H   0  0  0  0  0  0  0  0  0  0  0  0
  1 18  1  0  0  0  0
  1  6  1  0  0  0  0
  2  1  2  0  0  0  0
  3  2  1  0  0  0  0
  3  4  2  0  0  0  0
  4  5  1  0  0  0  0
  5  8  1  0  0  0  0
  5  6  2  0  0  0  0
  7  2  1  0  0  0  0
  9 14  1  6  0  0  0
 10  9  1  0  0  0  0
 10  3  1  1  0  0  0
 11 10  1  0  0  0  0
 12 13  1  0  0  0  0
 12 11  1  0  0  0  0
 13 16  1  1  0  0  0
 13  9  1  0  0  0  0
 14 15  1  0  0  0  0
 17 16  1  0  0  0  0
 19 18  1  0  0  0  0
M  END
>  <minimizedAffinity>
-5.15496349

$$$$

 OpenBabel03242523483D

 19 20  0  0  1  0  0  0  0  0999 V2000
   39.6020   32.1780   38.0050 C   0  0  0  0  0  0  0  0  0  0  0  0
   38.6610   31.1540   38.2110 C   0  0  0  0  0  0  0  0  0  0  0  0
   38.2340   30.9290   39.5260 C   0  0  0  0  0  0  0  0  0  0  0  0
   38.7430   31.7000   40.5310 N   0  0  0  0  0  0  0  0  0  0  0  0
   39.6450   32.6710   40.2800 C   0  0  0  0  0  0  0  0  0  0  0  0
   40.0680   32.9070   39.0390 N   0  0  0  0  0  0  0  0  0  0  0  0
   38.2480   30.5340   37.4360 H   0  0  0  0  0  0  0  0  0  0  0  0
   40.0070   33.2470   41.1330 H   0  0  0  0  0  0  0  0  0  0  0  0
   35.8780   30.4400   40.2190 C   0  0  1  0  0  3  0  0  0  0  0  0
   37.2680   29.9140   39.9240 C   0  0  1  0  0  3  0  0  0  0  0  0
   36.9820   29.0240   38.8950 O   0  0  0  0  0  0  0  0  0  0  0  0
   35.8920   28.2820   39.3030 C   0  0  0  0  0  2  0  0  0  0  0  0
   35.1270   29.1060   40.3050 C   0  0  2  0  0  3  0  0  0  0  0  0
   35.7920   31.1380   41.4110 O   0  0  0  0  0  0  0  0  0  0  0  0
   35.1600   31.9200   41.3570 H   0  0  0  0  0  0  0  0  0  0  0  0
   33.7920   29.2520   39.9870 O   0  0  0  0  0  0  0  0  0  0  0  0
   33.2030   29.0950   40.7750 H   0  0  0  0  0  0  0  0  0  0  0  0
   40.0170   32.3960   36.7240 O   0  0  0  0  0  0  0  0  0  0  0  0
   40.1540   31.5940   36.1210 H   0  0  0  0  0  0  0  0  0  0  0  0
  1  2  2  0  0  0  0
  1  6  1  0  0  0  0
  2  3  1  0  0  0  0
  3  4  2  0  0  0  0
  5  4  1  0  0  0  0
  5  8  1  0  0  0  0
  6  5  2  0  0  0  0
  7  2  1  0  0  0  0
  9 13  1  0  0  0  0
  9 14  1  1  0  0  0
 10  3  1  6  0  0  0
 10  9  1  0  0  0  0
 11 12  1  0  0  0  0
 11 10  1  0  0  0  0
 12 13  1  0  0  0  0
 13 16  1  6  0  0  0
 15 14  1  0  0  0  0
 16 17  1  0  0  0  0
 18  1  1  0  0  0  0
 19 18  1  0  0  0  0
M  END
>  <minimizedAffinity>
-4.94723845

$$$$

 OpenBabel03242523483D

 19 20  0  0  1  0  0  0  0  0999 V2000
   34.0380   28.8530   37.6300 C   0  0  0  0  0  0  0  0  0  0  0  0
   34.7300   28.9950   38.8450 C   0  0  0  0  0  0  0  0  0  0  0  0
   36.0880   29.3340   38.7760 C   0  0  0  0  0  0  0  0  0  0  0  0
   36.6680   29.5080   37.5520 N   0  0  0  0  0  0  0  0  0  0  0  0
   35.9590   29.3590   36.4140 C   0  0  0  0  0  0  0  0  0  0  0  0
   34.6670   29.0380   36.4510 N   0  0  0  0  0  0  0  0  0  0  0  0
   34.2940   28.8630   39.8190 H   0  0  0  0  0  0  0  0  0  0  0  0
   36.4900   29.5140   35.4740 H   0  0  0  0  0  0  0  0  0  0  0  0
   36.2340   29.7800   41.2360 C   0  0  1  0  0  3  0  0  0  0  0  0
   36.9570   29.5220   39.9290 C   0  0  1  0  0  3  0  0  0  0  0  0
   37.6560   28.3650   40.2580 O   0  0  0  0  0  0  0  0  0  0  0  0
   38.2380   28.5890   41.4900 C   0  0  0  0  0  2  0  0  0  0  0  0
   37.4160   29.6320   42.2000 C   0  0  2  0  0  3  0  0  0  0  0  0
   35.6780   31.0450   41.3190 O   0  0  0  0  0  0  0  0  0  0  0  0
   34.7960   31.0480   41.8060 H   0  0  0  0  0  0  0  0  0  0  0  0
   37.0030   29.2390   43.4570 O   0  0  0  0  0  0  0  0  0  0  0  0
   37.1460   29.9540   44.1360 H   0  0  0  0  0  0  0  0  0  0  0  0
   32.7160   28.5230   37.6980 O   0  0  0  0  0  0  0  0  0  0  0  0
   32.4230   27.8640   38.4100 H   0  0  0  0  0  0  0  0  0  0  0  0
  1 18  1  0  0  0  0
  1  2  1  0  0  0  0
  2  7  1  0  0  0  0
  3  2  2  0  0  0  0
  4  3  1  0  0  0  0
  5  6  1  0  0  0  0
  5  4  2  0  0  0  0
  6  1  2  0  0  0  0
  8  5  1  0  0  0  0
  9 14  1  6  0  0  0
  9 13  1  0  0  0  0
 10  3  1  6  0  0  0
 10 11  1  0  0  0  0
 10  9  1  0  0  0  0
 11 12  1  0  0  0  0
 12 13  1  0  0  0  0
 13 16  1  1  0  0  0
 14 15  1  0  0  0  0
 16 17  1  0  0  0  0
 18 19  1  0  0  0  0
M  END
>  <minimizedAffinity>
-4.76831913

$$$$

 OpenBabel03242523483D

 19 20  0  0  1  0  0  0  0  0999 V2000
   41.0020   31.7290   37.6590 C   0  0  0  0  0  0  0  0  0  0  0  0
   40.0860   31.0950   38.5170 C   0  0  0  0  0  0  0  0  0  0  0  0
   39.5770   31.8480   39.5830 C   0  0  0  0  0  0  0  0  0  0  0  0
   39.9870   33.1410   39.7390 N   0  0  0  0  0  0  0  0  0  0  0  0
   40.8690   33.7030   38.8880 C   0  0  0  0  0  0  0  0  0  0  0  0
   41.3680   33.0110   37.8660 N   0  0  0  0  0  0  0  0  0  0  0  0
   39.7500   30.0790   38.4140 H   0  0  0  0  0  0  0  0  0  0  0  0
   41.1490   34.7410   39.0760 H   0  0  0  0  0  0  0  0  0  0  0  0
   37.1690   31.6240   40.2330 C   0  0  1  0  0  3  0  0  0  0  0  0
   38.6220   31.3550   40.5670 C   0  0  1  0  0  3  0  0  0  0  0  0
   38.6060   29.9660   40.6380 O   0  0  0  0  0  0  0  0  0  0  0  0
   37.5100   29.6200   41.4030 C   0  0  0  0  0  2  0  0  0  0  0  0
   36.5080   30.7400   41.2970 C   0  0  2  0  0  3  0  0  0  0  0  0
   36.8020   32.9490   40.3880 O   0  0  0  0  0  0  0  0  0  0  0  0
   36.1410   33.2510   39.6900 H   0  0  0  0  0  0  0  0  0  0  0  0
   35.2550   30.3170   40.9020 O   0  0  0  0  0  0  0  0  0  0  0  0
   34.5350   30.7160   41.4620 H   0  0  0  0  0  0  0  0  0  0  0  0
   41.4970   30.9960   36.6210 O   0  0  0  0  0  0  0  0  0  0  0  0
   41.7050   30.0170   36.7820 H   0  0  0  0  0  0  0  0  0  0  0  0
  1  6  2  0  0  0  0
  1  2  1  0  0  0  0
  2  3  2  0  0  0  0
  3  4  1  0  0  0  0
  5  8  1  0  0  0  0
  5  4  2  0  0  0  0
  6  5  1  0  0  0  0
  7  2  1  0  0  0  0
  9 14  1  1  0  0  0
  9 10  1  0  0  0  0
  9 13  1  0  0  0  0
 10  3  1  6  0  0  0
 10 11  1  0  0  0  0
 11 12  1  0  0  0  0
 13 16  1  6  0  0  0
 13 12  1  0  0  0  0
 15 14  1  0  0  0  0
 16 17  1  0  0  0  0
 18 19  1  0  0  0  0
 18  1  1  0  0  0  0
M  END
>  <minimizedAffinity>
-4.63248253

$$$$

 OpenBabel03242523483D

 19 20  0  0  1  0  0  0  0  0999 V2000
   36.3970   29.6230   36.2310 C   0  0  0  0  0  0  0  0  0  0  0  0
   37.1980   29.8600   37.3610 C   0  0  0  0  0  0  0  0  0  0  0  0
   36.6130   29.6600   38.6180 C   0  0  0  0  0  0  0  0  0  0  0  0
   35.3120   29.2520   38.6880 N   0  0  0  0  0  0  0  0  0  0  0  0
   34.5850   29.0380   37.5730 C   0  0  0  0  0  0  0  0  0  0  0  0
   35.1160   29.2200   36.3650 N   0  0  0  0  0  0  0  0  0  0  0  0
   38.2240   30.1820   37.3300 H   0  0  0  0  0  0  0  0  0  0  0  0
   33.5520   28.7120   37.7060 H   0  0  0  0  0  0  0  0  0  0  0  0
   36.3840   29.8390   41.1050 C   0  0  1  0  0  3  0  0  0  0  0  0
   37.2920   29.8570   39.8920 C   0  0  1  0  0  3  0  0  0  0  0  0
   38.1440   28.8030   40.2050 O   0  0  0  0  0  0  0  0  0  0  0  0
   38.5260   28.9790   41.5200 C   0  0  0  0  0  2  0  0  0  0  0  0
   37.4510   29.7820   42.2050 C   0  0  2  0  0  3  0  0  0  0  0  0
   35.6030   30.9750   41.2280 O   0  0  0  0  0  0  0  0  0  0  0  0
   34.6840   30.7750   41.5880 H   0  0  0  0  0  0  0  0  0  0  0  0
   36.9690   29.1830   43.3510 O   0  0  0  0  0  0  0  0  0  0  0  0
   36.9000   29.8290   44.1060 H   0  0  0  0  0  0  0  0  0  0  0  0
   36.9680   29.8180   35.0080 O   0  0  0  0  0  0  0  0  0  0  0  0
   37.6050   30.5970   34.8950 H   0  0  0  0  0  0  0  0  0  0  0  0
  1  6  2  0  0  0  0
  1  2  1  0  0  0  0
  2  3  2  0  0  0  0
  3  4  1  0  0  0  0
  5  8  1  0  0  0  0
  5  4  2  0  0  0  0
  6  5  1  0  0  0  0
  7  2  1  0  0  0  0
  9 14  1  1  0  0  0
  9 13  1  0  0  0  0
 10  3  1  6  0  0  0
 10 11  1  0  0  0  0
 10  9  1  0  0  0  0
 11 12  1  0  0  0  0
 12 13  1  0  0  0  0
 13 16  1  1  0  0  0
 14 15  1  0  0  0  0
 16 17  1  0  0  0  0
 18  1  1  0  0  0  0
 19 18  1  0  0  0  0
M  END
>  <minimizedAffinity>
-4.632442

$$$$

 OpenBabel03242523483D

 19 20  0  0  1  0  0  0  0  0999 V2000
   38.2520   24.6110   42.0890 C   0  0  0  0  0  0  0  0  0  0  0  0
   37.2510   25.4920   41.6430 C   0  0  0  0  0  0  0  0  0  0  0  0
   37.4150   26.8520   41.9340 C   0  0  0  0  0  0  0  0  0  0  0  0
   38.5210   27.2550   42.6250 N   0  0  0  0  0  0  0  0  0  0  0  0
   39.4540   26.3690   43.0310 C   0  0  0  0  0  0  0  0  0  0  0  0
   39.3230   25.0700   42.7680 N   0  0  0  0  0  0  0  0  0  0  0  0
   36.3720   25.1970   41.0980 H   0  0  0  0  0  0  0  0  0  0  0  0
   40.3110   26.7650   43.5790 H   0  0  0  0  0  0  0  0  0  0  0  0
   36.9630   29.3130   41.8270 C   0  0  1  0  0  3  0  0  0  0  0  0
   36.4810   27.9030   41.5510 C   0  0  1  0  0  3  0  0  0  0  0  0
   36.2960   27.9700   40.1740 O   0  0  0  0  0  0  0  0  0  0  0  0
   35.6050   29.1380   39.9230 C   0  0  0  0  0  2  0  0  0  0  0  0
   35.8900   30.0900   41.0550 C   0  0  2  0  0  3  0  0  0  0  0  0
   36.9510   29.6480   43.1700 O   0  0  0  0  0  0  0  0  0  0  0  0
   37.7260   30.2370   43.4280 H   0  0  0  0  0  0  0  0  0  0  0  0
   36.3570   31.3180   40.6310 O   0  0  0  0  0  0  0  0  0  0  0  0
   35.8980   32.0700   41.0950 H   0  0  0  0  0  0  0  0  0  0  0  0
   38.0910   23.2870   41.8050 O   0  0  0  0  0  0  0  0  0  0  0  0
   37.1570   22.8960   41.8550 H   0  0  0  0  0  0  0  0  0  0  0  0
  1  6  1  0  0  0  0
  2  3  1  0  0  0  0
  2  1  2  0  0  0  0
  3  4  2  0  0  0  0
  4  5  1  0  0  0  0
  5  8  1  0  0  0  0
  6  5  2  0  0  0  0
  7  2  1  0  0  0  0
  9 14  1  1  0  0  0
 10  9  1  0  0  0  0
 10  3  1  6  0  0  0
 11 10  1  0  0  0  0
 12 11  1  0  0  0  0
 12 13  1  0  0  0  0
 13 16  1  6  0  0  0
 13  9  1  0  0  0  0
 14 15  1  0  0  0  0
 16 17  1  0  0  0  0
 18 19  1  0  0  0  0
 18  1  1  0  0  0  0
M  END
>  <minimizedAffinity>
-4.62141085

$$$$

 OpenBabel03242523483D

 19 20  0  0  1  0  0  0  0  0999 V2000
   38.6860   24.4490   42.4540 C   0  0  0  0  0  0  0  0  0  0  0  0
   38.7940   25.8450   42.3280 C   0  0  0  0  0  0  0  0  0  0  0  0
   37.8590   26.4910   41.5080 C   0  0  0  0  0  0  0  0  0  0  0  0
   36.9010   25.7480   40.8790 N   0  0  0  0  0  0  0  0  0  0  0  0
   36.8400   24.4100   41.0330 C   0  0  0  0  0  0  0  0  0  0  0  0
   37.7160   23.7700   41.8070 N   0  0  0  0  0  0  0  0  0  0  0  0
   39.5390   26.4500   42.8120 H   0  0  0  0  0  0  0  0  0  0  0  0
   36.0480   23.8830   40.5000 H   0  0  0  0  0  0  0  0  0  0  0  0
   36.4350   28.4950   41.0330 C   0  0  1  0  0  3  0  0  0  0  0  0
   37.8200   27.9260   41.2620 C   0  0  1  0  0  3  0  0  0  0  0  0
   38.2100   28.6640   42.3750 O   0  0  0  0  0  0  0  0  0  0  0  0
   37.8960   29.9810   42.1070 C   0  0  0  0  0  2  0  0  0  0  0  0
   36.7710   29.9890   41.1060 C   0  0  2  0  0  3  0  0  0  0  0  0
   35.8980   28.1650   39.8010 O   0  0  0  0  0  0  0  0  0  0  0  0
   34.9050   28.0030   39.8430 H   0  0  0  0  0  0  0  0  0  0  0  0
   35.6840   30.7370   41.5100 O   0  0  0  0  0  0  0  0  0  0  0  0
   35.3490   31.3290   40.7830 H   0  0  0  0  0  0  0  0  0  0  0  0
   39.5960   23.8220   43.2520 O   0  0  0  0  0  0  0  0  0  0  0  0
   40.5530   24.1530   43.2400 H   0  0  0  0  0  0  0  0  0  0  0  0
  1 18  1  0  0  0  0
  2  1  1  0  0  0  0
  2  7  1  0  0  0  0
  3  2  2  0  0  0  0
  4  5  2  0  0  0  0
  4  3  1  0  0  0  0
  5  6  1  0  0  0  0
  6  1  2  0  0  0  0
  8  5  1  0  0  0  0
  9 14  1  6  0  0  0
  9 13  1  0  0  0  0
  9 10  1  0  0  0  0
 10  3  1  1  0  0  0
 10 11  1  0  0  0  0
 12 11  1  0  0  0  0
 13 16  1  1  0  0  0
 13 12  1  0  0  0  0
 14 15  1  0  0  0  0
 17 16  1  0  0  0  0
 19 18  1  0  0  0  0
M  END
>  <minimizedAffinity>
-4.61141539

$$$$

 OpenBabel03242523483D

 19 20  0  0  1  0  0  0  0  0999 V2000
   36.4450   28.9420   35.3040 C   0  0  0  0  0  0  0  0  0  0  0  0
   37.1290   29.5620   36.3640 C   0  0  0  0  0  0  0  0  0  0  0  0
   36.4170   29.7710   37.5530 C   0  0  0  0  0  0  0  0  0  0  0  0
   35.1140   29.3710   37.6260 N   0  0  0  0  0  0  0  0  0  0  0  0
   34.5030   28.7800   36.5790 C   0  0  0  0  0  0  0  0  0  0  0  0
   35.1560   28.5680   35.4370 N   0  0  0  0  0  0  0  0  0  0  0  0
   38.1540   29.8860   36.3290 H   0  0  0  0  0  0  0  0  0  0  0  0
   33.4600   28.4870   36.7110 H   0  0  0  0  0  0  0  0  0  0  0  0
   37.1930   31.8910   38.6370 C   0  0  1  0  0  3  0  0  0  0  0  0
   36.9630   30.3970   38.7490 C   0  0  1  0  0  3  0  0  0  0  0  0
   36.0720   30.3640   39.8170 O   0  0  0  0  0  0  0  0  0  0  0  0
   36.5910   31.1910   40.7920 C   0  0  0  0  0  2  0  0  0  0  0  0
   37.4730   32.2040   40.1110 C   0  0  2  0  0  3  0  0  0  0  0  0
   38.2760   32.2250   37.8420 O   0  0  0  0  0  0  0  0  0  0  0  0
   38.1180   33.0630   37.3060 H   0  0  0  0  0  0  0  0  0  0  0  0
   37.1510   33.5090   40.4250 O   0  0  0  0  0  0  0  0  0  0  0  0
   37.9590   34.0490   40.6450 H   0  0  0  0  0  0  0  0  0  0  0  0
   37.1390   28.7380   34.1470 O   0  0  0  0  0  0  0  0  0  0  0  0
   37.7880   29.4550   33.8450 H   0  0  0  0  0  0  0  0  0  0  0  0
  1  6  2  0  0  0  0
  1  2  1  0  0  0  0
  2  3  2  0  0  0  0
  3  4  1  0  0  0  0
  5  8  1  0  0  0  0
  5  4  2  0  0  0  0
  6  5  1  0  0  0  0
  7  2  1  0  0  0  0
  9 14  1  6  0  0  0
  9 10  1  0  0  0  0
  9 13  1  0  0  0  0
 10  3  1  6  0  0  0
 10 11  1  0  0  0  0
 11 12  1  0  0  0  0
 13 16  1  1  0  0  0
 13 12  1  0  0  0  0
 15 14  1  0  0  0  0
 16 17  1  0  0  0  0
 18  1  1  0  0  0  0
 19 18  1  0  0  0  0
M  END
>  <minimizedAffinity>
-4.46001434

$$$$

 OpenBabel03242523483D

 19 20  0  0  1  0  0  0  0  0999 V2000
   38.1120   31.4630   37.3290 C   0  0  0  0  0  0  0  0  0  0  0  0
   38.3840   31.4520   38.7080 C   0  0  0  0  0  0  0  0  0  0  0  0
   37.6140   30.5980   39.5080 C   0  0  0  0  0  0  0  0  0  0  0  0
   36.6500   29.8290   38.9230 N   0  0  0  0  0  0  0  0  0  0  0  0
   36.4280   29.8760   37.5930 C   0  0  0  0  0  0  0  0  0  0  0  0
   37.1460   30.6780   36.8090 N   0  0  0  0  0  0  0  0  0  0  0  0
   39.1370   32.0500   39.1900 H   0  0  0  0  0  0  0  0  0  0  0  0
   35.6420   29.2320   37.1970 H   0  0  0  0  0  0  0  0  0  0  0  0
   37.2550   29.1440   41.5150 C   0  0  1  0  0  3  0  0  0  0  0  0
   37.7570   30.4580   40.9510 C   0  0  1  0  0  3  0  0  0  0  0  0
   39.0900   30.4040   41.3470 O   0  0  0  0  0  0  0  0  0  0  0  0
   39.0940   30.0240   42.6740 C   0  0  0  0  0  2  0  0  0  0  0  0
   37.8240   29.2570   42.9340 C   0  0  2  0  0  3  0  0  0  0  0  0
   35.8750   29.0450   41.5390 O   0  0  0  0  0  0  0  0  0  0  0  0
   35.5520   28.1120   41.3380 H   0  0  0  0  0  0  0  0  0  0  0  0
   38.0410   28.0150   43.4960 O   0  0  0  0  0  0  0  0  0  0  0  0
   37.4290   27.8420   44.2620 H   0  0  0  0  0  0  0  0  0  0  0  0
   38.8620   32.2950   36.5500 O   0  0  0  0  0  0  0  0  0  0  0  0
   39.1090   33.2050   36.9200 H   0  0  0  0  0  0  0  0  0  0  0  0
  1  2  1  0  0  0  0
  2  7  1  0  0  0  0
  2  3  2  0  0  0  0
  4  3  1  0  0  0  0
  5  4  2  0  0  0  0
  6  1  2  0  0  0  0
  6  5  1  0  0  0  0
  8  5  1  0  0  0  0
  9 14  1  1  0  0  0
  9 13  1  0  0  0  0
 10  3  1  6  0  0  0
 10 11  1  0  0  0  0
 10  9  1  0  0  0  0
 11 12  1  0  0  0  0
 12 13  1  0  0  0  0
 13 16  1  6  0  0  0
 15 14  1  0  0  0  0
 16 17  1  0  0  0  0
 18 19  1  0  0  0  0
 18  1  1  0  0  0  0
M  END
>  <minimizedAffinity>
-4.40497923

$$$$
