
 OpenBabel03242514453D

 21 22  0  0  1  0  0  0  0  0999 V2000
   37.0040   27.9820   41.1300 C   0  0  0  0  0  0  0  0  0  0  0  0
   37.5910   29.2320   41.3600 C   0  0  0  0  0  0  0  0  0  0  0  0
   38.0610   29.4970   42.6490 C   0  0  0  0  0  0  0  0  0  0  0  0
   37.9250   28.5360   43.6080 N   0  0  0  0  0  0  0  0  0  0  0  0
   37.3480   27.3420   43.3320 C   0  0  0  0  0  0  0  0  0  0  0  0
   36.8880   27.0600   42.1020 N   0  0  0  0  0  0  0  0  0  0  0  0
   38.5250   30.4440   42.8890 H   0  0  0  0  0  0  0  0  0  0  0  0
   37.2570   26.5990   44.1230 H   0  0  0  0  0  0  0  0  0  0  0  0
   36.5070   31.1330   40.1450 C   0  0  2  0  0  3  0  0  0  0  0  0
   37.7140   30.2440   40.2730 C   0  0  1  0  0  3  0  0  0  0  0  0
   38.8220   31.0510   40.3940 O   0  0  0  0  0  0  0  0  0  0  0  0
   38.4410   32.3300   40.6990 C   0  0  0  0  0  2  0  0  0  0  0  0
   37.1540   32.5060   39.9280 C   0  0  1  0  0  3  0  0  0  0  0  0
   35.7190   31.1930   41.2760 O   0  0  0  0  0  0  0  0  0  0  0  0
   35.8770   30.4700   41.9120 H   0  0  0  0  0  0  0  0  0  0  0  0
   37.4990   32.6800   38.5970 O   0  0  0  0  0  0  0  0  0  0  0  0
   36.9730   33.4240   38.2130 H   0  0  0  0  0  0  0  0  0  0  0  0
   36.5010   27.6990   39.7440 C   0  0  0  0  0  0  0  0  0  0  0  0
   36.1240   26.6530   39.7220 H   0  0  0  0  0  0  0  0  0  0  0  0
   37.3010   27.7460   38.9830 H   0  0  0  0  0  0  0  0  0  0  0  0
   35.6160   28.3360   39.5100 H   0  0  0  0  0  0  0  0  0  0  0  0
  1  2  2  0  0  0  0
  1  6  1  0  0  0  0
  2  3  1  0  0  0  0
  3  7  1  0  0  0  0
  3  4  2  0  0  0  0
  5  4  1  0  0  0  0
  5  8  1  0  0  0  0
  6  5  2  0  0  0  0
  9 10  1  0  0  0  0
  9 14  1  1  0  0  0
 10 11  1  0  0  0  0
 10  2  1  1  0  0  0
 11 12  1  0  0  0  0
 13 16  1  6  0  0  0
 13  9  1  0  0  0  0
 13 12  1  0  0  0  0
 14 15  1  0  0  0  0
 17 16  1  0  0  0  0
 18  1  1  0  0  0  0
 19 18  1  0  0  0  0
 20 18  1  0  0  0  0
 21 18  1  0  0  0  0
M  END
>  <minimizedAffinity>
-4.78854847

$$$$

 OpenBabel03242514453D

 21 22  0  0  1  0  0  0  0  0999 V2000
   38.9410   32.0140   41.1140 C   0  0  0  0  0  0  0  0  0  0  0  0
   37.9070   31.5010   40.3220 C   0  0  0  0  0  0  0  0  0  0  0  0
   37.2070   32.4010   39.5120 C   0  0  0  0  0  0  0  0  0  0  0  0
   37.5630   33.7170   39.5350 N   0  0  0  0  0  0  0  0  0  0  0  0
   38.5720   34.1610   40.3220 C   0  0  0  0  0  0  0  0  0  0  0  0
   39.2610   33.3190   41.1100 N   0  0  0  0  0  0  0  0  0  0  0  0
   36.3990   32.0660   38.8770 H   0  0  0  0  0  0  0  0  0  0  0  0
   38.8270   35.2200   40.3140 H   0  0  0  0  0  0  0  0  0  0  0  0
   36.3890   29.7240   41.2190 C   0  0  2  0  0  3  0  0  0  0  0  0
   37.5620   30.0510   40.3360 C   0  0  1  0  0  3  0  0  0  0  0  0
   37.3080   29.5320   39.0880 O   0  0  0  0  0  0  0  0  0  0  0  0
   35.9820   29.2140   38.9710 C   0  0  0  0  0  2  0  0  0  0  0  0
   35.6160   28.7230   40.3520 C   0  0  1  0  0  3  0  0  0  0  0  0
   35.5630   30.7960   41.4920 O   0  0  0  0  0  0  0  0  0  0  0  0
   35.9660   31.6660   41.3140 H   0  0  0  0  0  0  0  0  0  0  0  0
   36.1480   27.4500   40.4840 O   0  0  0  0  0  0  0  0  0  0  0  0
   35.4760   26.8510   40.8930 H   0  0  0  0  0  0  0  0  0  0  0  0
   39.6910   31.0450   41.9820 C   0  0  0  0  0  0  0  0  0  0  0  0
   40.5070   31.6020   42.4940 H   0  0  0  0  0  0  0  0  0  0  0  0
   40.1900   30.2500   41.4000 H   0  0  0  0  0  0  0  0  0  0  0  0
   39.0370   30.6640   42.8010 H   0  0  0  0  0  0  0  0  0  0  0  0
  1 18  1  0  0  0  0
  2  1  2  0  0  0  0
  3  4  2  0  0  0  0
  3  2  1  0  0  0  0
  4  5  1  0  0  0  0
  5  6  2  0  0  0  0
  6  1  1  0  0  0  0
  7  3  1  0  0  0  0
  8  5  1  0  0  0  0
  9 14  1  6  0  0  0
 10  2  1  6  0  0  0
 10  9  1  0  0  0  0
 11 10  1  0  0  0  0
 12 11  1  0  0  0  0
 12 13  1  0  0  0  0
 13 16  1  6  0  0  0
 13  9  1  0  0  0  0
 15 14  1  0  0  0  0
 16 17  1  0  0  0  0
 18 19  1  0  0  0  0
 18 21  1  0  0  0  0
 20 18  1  0  0  0  0
M  END
>  <minimizedAffinity>
-4.40939713

$$$$

 OpenBabel03242514453D

 21 22  0  0  1  0  0  0  0  0999 V2000
   37.0920   27.2990   42.4460 C   0  0  0  0  0  0  0  0  0  0  0  0
   36.7140   27.9560   41.2690 C   0  0  0  0  0  0  0  0  0  0  0  0
   36.5520   27.1770   40.1200 C   0  0  0  0  0  0  0  0  0  0  0  0
   36.7680   25.8330   40.2020 N   0  0  0  0  0  0  0  0  0  0  0  0
   37.1330   25.2480   41.3670 C   0  0  0  0  0  0  0  0  0  0  0  0
   37.2960   25.9710   42.4870 N   0  0  0  0  0  0  0  0  0  0  0  0
   36.2610   27.6260   39.1800 H   0  0  0  0  0  0  0  0  0  0  0  0
   37.2960   24.1710   41.3950 H   0  0  0  0  0  0  0  0  0  0  0  0
   37.7520   30.2200   41.0160 C   0  0  2  0  0  3  0  0  0  0  0  0
   36.4910   29.4290   41.2380 C   0  0  1  0  0  3  0  0  0  0  0  0
   35.5720   29.8280   40.2960 O   0  0  0  0  0  0  0  0  0  0  0  0
   36.1940   30.5230   39.2950 C   0  0  0  0  0  2  0  0  0  0  0  0
   37.2790   31.2850   40.0190 C   0  0  1  0  0  3  0  0  0  0  0  0
   38.7800   29.5050   40.4380 O   0  0  0  0  0  0  0  0  0  0  0  0
   38.6710   28.5370   40.4880 H   0  0  0  0  0  0  0  0  0  0  0  0
   36.6640   32.3360   40.6810 O   0  0  0  0  0  0  0  0  0  0  0  0
   37.1890   33.1630   40.5490 H   0  0  0  0  0  0  0  0  0  0  0  0
   37.2650   28.1380   43.6800 C   0  0  0  0  0  0  0  0  0  0  0  0
   37.5050   27.4580   44.5270 H   0  0  0  0  0  0  0  0  0  0  0  0
   36.3370   28.6640   43.9700 H   0  0  0  0  0  0  0  0  0  0  0  0
   38.1520   28.8060   43.5790 H   0  0  0  0  0  0  0  0  0  0  0  0
  1  6  1  0  0  0  0
  1 18  1  0  0  0  0
  2  1  2  0  0  0  0
  3  4  2  0  0  0  0
  3  2  1  0  0  0  0
  4  5  1  0  0  0  0
  5  8  1  0  0  0  0
  5  6  2  0  0  0  0
  7  3  1  0  0  0  0
  9 14  1  6  0  0  0
  9 10  1  0  0  0  0
 10  2  1  6  0  0  0
 11 10  1  0  0  0  0
 12 13  1  0  0  0  0
 12 11  1  0  0  0  0
 13 16  1  1  0  0  0
 13  9  1  0  0  0  0
 14 15  1  0  0  0  0
 17 16  1  0  0  0  0
 18 20  1  0  0  0  0
 18 19  1  0  0  0  0
 21 18  1  0  0  0  0
M  END
>  <minimizedAffinity>
-4.37171936

$$$$

 OpenBabel03242514453D

 21 22  0  0  1  0  0  0  0  0999 V2000
   36.4910   30.1740   38.2930 C   0  0  0  0  0  0  0  0  0  0  0  0
   37.0870   30.6430   39.4700 C   0  0  0  0  0  0  0  0  0  0  0  0
   36.4920   30.2810   40.6830 C   0  0  0  0  0  0  0  0  0  0  0  0
   35.3740   29.4990   40.6570 N   0  0  0  0  0  0  0  0  0  0  0  0
   34.8380   29.0740   39.4890 C   0  0  0  0  0  0  0  0  0  0  0  0
   35.3890   29.4060   38.3100 N   0  0  0  0  0  0  0  0  0  0  0  0
   36.9050   30.6110   41.6260 H   0  0  0  0  0  0  0  0  0  0  0  0
   33.9450   28.4500   39.5080 H   0  0  0  0  0  0  0  0  0  0  0  0
   38.0160   32.9660   39.5420 C   0  0  2  0  0  3  0  0  0  0  0  0
   38.3090   31.4940   39.4380 C   0  0  1  0  0  3  0  0  0  0  0  0
   39.2280   31.1780   40.4120 O   0  0  0  0  0  0  0  0  0  0  0  0
   39.3010   32.1850   41.3350 C   0  0  0  0  0  2  0  0  0  0  0  0
   39.1100   33.4340   40.5080 C   0  0  1  0  0  3  0  0  0  0  0  0
   36.7870   33.2660   40.0930 O   0  0  0  0  0  0  0  0  0  0  0  0
   36.1600   32.5190   40.1010 H   0  0  0  0  0  0  0  0  0  0  0  0
   40.2980   33.6570   39.8300 O   0  0  0  0  0  0  0  0  0  0  0  0
   40.5380   34.6150   39.8860 H   0  0  0  0  0  0  0  0  0  0  0  0
   37.1320   30.5640   36.9930 C   0  0  0  0  0  0  0  0  0  0  0  0
   36.5740   30.0640   36.1700 H   0  0  0  0  0  0  0  0  0  0  0  0
   38.1750   30.2060   36.9080 H   0  0  0  0  0  0  0  0  0  0  0  0
   37.0130   31.6570   36.8080 H   0  0  0  0  0  0  0  0  0  0  0  0
  1  6  2  0  0  0  0
  1  2  1  0  0  0  0
  2  3  2  0  0  0  0
  3  7  1  0  0  0  0
  4  3  1  0  0  0  0
  5  8  1  0  0  0  0
  5  4  2  0  0  0  0
  6  5  1  0  0  0  0
  9 14  1  1  0  0  0
  9 13  1  0  0  0  0
 10  2  1  1  0  0  0
 10  9  1  0  0  0  0
 10 11  1  0  0  0  0
 11 12  1  0  0  0  0
 13 16  1  6  0  0  0
 13 12  1  0  0  0  0
 14 15  1  0  0  0  0
 16 17  1  0  0  0  0
 18  1  1  0  0  0  0
 19 18  1  0  0  0  0
 20 18  1  0  0  0  0
 21 18  1  0  0  0  0
M  END
>  <minimizedAffinity>
-4.25035286

$$$$

 OpenBabel03242514453D

 21 22  0  0  1  0  0  0  0  0999 V2000
   39.1260   31.2540   41.4910 C   0  0  0  0  0  0  0  0  0  0  0  0
   38.2710   30.1900   41.1820 C   0  0  0  0  0  0  0  0  0  0  0  0
   37.1350   30.4750   40.4190 C   0  0  0  0  0  0  0  0  0  0  0  0
   36.9200   31.7610   40.0190 N   0  0  0  0  0  0  0  0  0  0  0  0
   37.7800   32.7540   40.3460 C   0  0  0  0  0  0  0  0  0  0  0  0
   38.8790   32.5090   41.0780 N   0  0  0  0  0  0  0  0  0  0  0  0
   36.4370   29.6950   40.1480 H   0  0  0  0  0  0  0  0  0  0  0  0
   37.5750   33.7690   40.0080 H   0  0  0  0  0  0  0  0  0  0  0  0
   38.0080   28.5050   43.0160 C   0  0  2  0  0  3  0  0  0  0  0  0
   38.5570   28.8030   41.6470 C   0  0  1  0  0  3  0  0  0  0  0  0
   38.1010   27.8290   40.7890 O   0  0  0  0  0  0  0  0  0  0  0  0
   37.0630   27.1450   41.3610 C   0  0  0  0  0  2  0  0  0  0  0  0
   37.4400   27.0940   42.8230 C   0  0  1  0  0  3  0  0  0  0  0  0
   36.9830   29.3390   43.4130 O   0  0  0  0  0  0  0  0  0  0  0  0
   36.9170   30.1650   42.8980 H   0  0  0  0  0  0  0  0  0  0  0  0
   38.4400   26.1430   42.9510 O   0  0  0  0  0  0  0  0  0  0  0  0
   38.2530   25.5690   43.7350 H   0  0  0  0  0  0  0  0  0  0  0  0
   40.3460   30.9450   42.3100 C   0  0  0  0  0  0  0  0  0  0  0  0
   40.9390   31.8810   42.4120 H   0  0  0  0  0  0  0  0  0  0  0  0
   41.0160   30.2170   41.8180 H   0  0  0  0  0  0  0  0  0  0  0  0
   40.0590   30.6640   43.3510 H   0  0  0  0  0  0  0  0  0  0  0  0
  1 18  1  0  0  0  0
  2  1  1  0  0  0  0
  3  2  2  0  0  0  0
  4  5  2  0  0  0  0
  4  3  1  0  0  0  0
  5  6  1  0  0  0  0
  6  1  2  0  0  0  0
  7  3  1  0  0  0  0
  8  5  1  0  0  0  0
  9 14  1  6  0  0  0
 10  2  1  6  0  0  0
 10  9  1  0  0  0  0
 11 12  1  0  0  0  0
 11 10  1  0  0  0  0
 12 13  1  0  0  0  0
 13 16  1  6  0  0  0
 13  9  1  0  0  0  0
 15 14  1  0  0  0  0
 16 17  1  0  0  0  0
 18 19  1  0  0  0  0
 18 21  1  0  0  0  0
 20 18  1  0  0  0  0
M  END
>  <minimizedAffinity>
-4.24930811

$$$$

 OpenBabel03242514453D

 21 22  0  0  1  0  0  0  0  0999 V2000
   39.0260   27.0670   42.0690 C   0  0  0  0  0  0  0  0  0  0  0  0
   37.8500   27.3350   41.3580 C   0  0  0  0  0  0  0  0  0  0  0  0
   37.4600   26.4120   40.3840 C   0  0  0  0  0  0  0  0  0  0  0  0
   38.2370   25.3100   40.1770 N   0  0  0  0  0  0  0  0  0  0  0  0
   39.3670   25.0990   40.8930 C   0  0  0  0  0  0  0  0  0  0  0  0
   39.7650   25.9700   41.8360 N   0  0  0  0  0  0  0  0  0  0  0  0
   36.5620   26.5630   39.8010 H   0  0  0  0  0  0  0  0  0  0  0  0
   39.9620   24.2070   40.7000 H   0  0  0  0  0  0  0  0  0  0  0  0
   37.4670   29.7490   40.8150 C   0  0  2  0  0  3  0  0  0  0  0  0
   37.0400   28.5570   41.6280 C   0  0  1  0  0  3  0  0  0  0  0  0
   35.6890   28.3770   41.4340 O   0  0  0  0  0  0  0  0  0  0  0  0
   35.2710   29.0900   40.3440 C   0  0  0  0  0  2  0  0  0  0  0  0
   36.1160   30.3410   40.3970 C   0  0  1  0  0  3  0  0  0  0  0  0
   38.1800   29.4380   39.6760 O   0  0  0  0  0  0  0  0  0  0  0  0
   38.5480   28.5340   39.6690 H   0  0  0  0  0  0  0  0  0  0  0  0
   35.5980   31.1380   41.4060 O   0  0  0  0  0  0  0  0  0  0  0  0
   35.5390   32.0740   41.0920 H   0  0  0  0  0  0  0  0  0  0  0  0
   39.4410   28.0610   43.1160 C   0  0  0  0  0  0  0  0  0  0  0  0
   40.3520   27.6690   43.6190 H   0  0  0  0  0  0  0  0  0  0  0  0
   38.6850   28.1800   43.9130 H   0  0  0  0  0  0  0  0  0  0  0  0
   39.7560   29.0210   42.6430 H   0  0  0  0  0  0  0  0  0  0  0  0
  1 18  1  0  0  0  0
  2  1  2  0  0  0  0
  3  2  1  0  0  0  0
  4  3  2  0  0  0  0
  4  5  1  0  0  0  0
  5  6  2  0  0  0  0
  6  1  1  0  0  0  0
  7  3  1  0  0  0  0
  8  5  1  0  0  0  0
  9 14  1  6  0  0  0
  9 10  1  0  0  0  0
 10  2  1  6  0  0  0
 11 10  1  0  0  0  0
 12 13  1  0  0  0  0
 12 11  1  0  0  0  0
 13  9  1  0  0  0  0
 13 16  1  1  0  0  0
 15 14  1  0  0  0  0
 17 16  1  0  0  0  0
 18 19  1  0  0  0  0
 18 20  1  0  0  0  0
 21 18  1  0  0  0  0
M  END
>  <minimizedAffinity>
-4.23198175

$$$$

 OpenBabel03242514453D

 21 22  0  0  1  0  0  0  0  0999 V2000
   40.5040   29.3450   42.5280 C   0  0  0  0  0  0  0  0  0  0  0  0
   39.2660   28.7590   42.2410 C   0  0  0  0  0  0  0  0  0  0  0  0
   39.2460   27.3840   41.9900 C   0  0  0  0  0  0  0  0  0  0  0  0
   40.4200   26.6920   42.0350 N   0  0  0  0  0  0  0  0  0  0  0  0
   41.5920   27.3090   42.3170 C   0  0  0  0  0  0  0  0  0  0  0  0
   41.6410   28.6290   42.5630 N   0  0  0  0  0  0  0  0  0  0  0  0
   38.3210   26.8730   41.7630 H   0  0  0  0  0  0  0  0  0  0  0  0
   42.5100   26.7230   42.3440 H   0  0  0  0  0  0  0  0  0  0  0  0
   37.8060   30.2930   40.9050 C   0  0  2  0  0  3  0  0  0  0  0  0
   38.0130   29.5650   42.2060 C   0  0  1  0  0  3  0  0  0  0  0  0
   36.8780   28.8320   42.4640 O   0  0  0  0  0  0  0  0  0  0  0  0
   36.1140   28.7330   41.3320 C   0  0  0  0  0  2  0  0  0  0  0  0
   36.3100   30.0710   40.6590 C   0  0  1  0  0  3  0  0  0  0  0  0
   38.5080   29.7680   39.8400 O   0  0  0  0  0  0  0  0  0  0  0  0
   39.2410   29.1770   40.0960 H   0  0  0  0  0  0  0  0  0  0  0  0
   35.5560   30.9950   41.3650 O   0  0  0  0  0  0  0  0  0  0  0  0
   35.0630   31.5740   40.7330 H   0  0  0  0  0  0  0  0  0  0  0  0
   40.5220   30.8220   42.7980 C   0  0  0  0  0  0  0  0  0  0  0  0
   41.5640   31.1110   43.0640 H   0  0  0  0  0  0  0  0  0  0  0  0
   39.9020   31.1030   43.6690 H   0  0  0  0  0  0  0  0  0  0  0  0
   40.2860   31.3950   41.8700 H   0  0  0  0  0  0  0  0  0  0  0  0
  1  6  1  0  0  0  0
  1 18  1  0  0  0  0
  2  1  2  0  0  0  0
  3  4  2  0  0  0  0
  3  2  1  0  0  0  0
  4  5  1  0  0  0  0
  5  8  1  0  0  0  0
  5  6  2  0  0  0  0
  7  3  1  0  0  0  0
  9 14  1  6  0  0  0
  9 10  1  0  0  0  0
 10  2  1  6  0  0  0
 10 11  1  0  0  0  0
 12 11  1  0  0  0  0
 13  9  1  0  0  0  0
 13 12  1  0  0  0  0
 13 16  1  1  0  0  0
 14 15  1  0  0  0  0
 17 16  1  0  0  0  0
 18 19  1  0  0  0  0
 18 20  1  0  0  0  0
 21 18  1  0  0  0  0
M  END
>  <minimizedAffinity>
-4.07672882

$$$$

 OpenBabel03242514453D

 21 22  0  0  1  0  0  0  0  0999 V2000
   36.0740   29.5780   38.6530 C   0  0  0  0  0  0  0  0  0  0  0  0
   36.8970   29.6350   39.7830 C   0  0  0  0  0  0  0  0  0  0  0  0
   38.1830   30.1580   39.6190 C   0  0  0  0  0  0  0  0  0  0  0  0
   38.5660   30.5820   38.3800 N   0  0  0  0  0  0  0  0  0  0  0  0
   37.7280   30.5040   37.3190 C   0  0  0  0  0  0  0  0  0  0  0  0
   36.4880   30.0050   37.4470 N   0  0  0  0  0  0  0  0  0  0  0  0
   38.8660   30.2290   40.4540 H   0  0  0  0  0  0  0  0  0  0  0  0
   38.0690   30.8520   36.3450 H   0  0  0  0  0  0  0  0  0  0  0  0
   36.6600   27.6880   41.3400 C   0  0  2  0  0  3  0  0  0  0  0  0
   36.4250   29.1570   41.1130 C   0  0  1  0  0  3  0  0  0  0  0  0
   36.9780   29.8400   42.1730 O   0  0  0  0  0  0  0  0  0  0  0  0
   37.8260   29.0220   42.8690 C   0  0  0  0  0  2  0  0  0  0  0  0
   37.1550   27.6710   42.7900 C   0  0  1  0  0  3  0  0  0  0  0  0
   37.6370   27.1350   40.5370 O   0  0  0  0  0  0  0  0  0  0  0  0
   37.8650   27.6740   39.7560 H   0  0  0  0  0  0  0  0  0  0  0  0
   36.0860   27.6980   43.6720 O   0  0  0  0  0  0  0  0  0  0  0  0
   36.0660   26.8600   44.1960 H   0  0  0  0  0  0  0  0  0  0  0  0
   34.6930   29.0150   38.8320 C   0  0  0  0  0  0  0  0  0  0  0  0
   34.1590   29.0980   37.8590 H   0  0  0  0  0  0  0  0  0  0  0  0
   34.0890   29.5920   39.5560 H   0  0  0  0  0  0  0  0  0  0  0  0
   34.7390   27.9220   39.0500 H   0  0  0  0  0  0  0  0  0  0  0  0
  1 18  1  0  0  0  0
  1  2  1  0  0  0  0
  3  2  2  0  0  0  0
  3  7  1  0  0  0  0
  4  3  1  0  0  0  0
  5  6  1  0  0  0  0
  5  4  2  0  0  0  0
  6  1  2  0  0  0  0
  8  5  1  0  0  0  0
  9 14  1  6  0  0  0
  9 13  1  0  0  0  0
 10  2  1  6  0  0  0
 10  9  1  0  0  0  0
 10 11  1  0  0  0  0
 11 12  1  0  0  0  0
 13 12  1  0  0  0  0
 13 16  1  1  0  0  0
 15 14  1  0  0  0  0
 16 17  1  0  0  0  0
 18 21  1  0  0  0  0
 18 20  1  0  0  0  0
 19 18  1  0  0  0  0
M  END
>  <minimizedAffinity>
-4.04479742

$$$$

 OpenBabel03242514453D

 21 22  0  0  1  0  0  0  0  0999 V2000
   38.9790   30.6930   39.5820 C   0  0  0  0  0  0  0  0  0  0  0  0
   39.5480   31.9570   39.3890 C   0  0  0  0  0  0  0  0  0  0  0  0
   38.7460   33.0730   39.6460 C   0  0  0  0  0  0  0  0  0  0  0  0
   37.4630   32.8750   40.0670 N   0  0  0  0  0  0  0  0  0  0  0  0
   36.9620   31.6290   40.2380 C   0  0  0  0  0  0  0  0  0  0  0  0
   37.7100   30.5400   39.9980 N   0  0  0  0  0  0  0  0  0  0  0  0
   39.1280   34.0760   39.5150 H   0  0  0  0  0  0  0  0  0  0  0  0
   35.9330   31.5110   40.5760 H   0  0  0  0  0  0  0  0  0  0  0  0
   41.0960   32.1340   37.4290 C   0  0  2  0  0  3  0  0  0  0  0  0
   40.9560   32.1130   38.9270 C   0  0  1  0  0  3  0  0  0  0  0  0
   41.5790   33.2350   39.4240 O   0  0  0  0  0  0  0  0  0  0  0  0
   41.8000   34.1350   38.4180 C   0  0  0  0  0  2  0  0  0  0  0  0
   42.1160   33.2610   37.2270 C   0  0  1  0  0  3  0  0  0  0  0  0
   39.9400   32.4640   36.7520 O   0  0  0  0  0  0  0  0  0  0  0  0
   39.1270   32.3820   37.2860 H   0  0  0  0  0  0  0  0  0  0  0  0
   43.4070   32.7890   37.4010 O   0  0  0  0  0  0  0  0  0  0  0  0
   43.9050   32.8640   36.5510 H   0  0  0  0  0  0  0  0  0  0  0  0
   39.8430   29.4970   39.3060 C   0  0  0  0  0  0  0  0  0  0  0  0
   39.2610   28.5850   39.5650 H   0  0  0  0  0  0  0  0  0  0  0  0
   40.7460   29.4680   39.9430 H   0  0  0  0  0  0  0  0  0  0  0  0
   40.0560   29.4100   38.2140 H   0  0  0  0  0  0  0  0  0  0  0  0
  1  6  1  0  0  0  0
  2  1  2  0  0  0  0
  2  3  1  0  0  0  0
  3  4  2  0  0  0  0
  4  5  1  0  0  0  0
  5  8  1  0  0  0  0
  6  5  2  0  0  0  0
  7  3  1  0  0  0  0
  9 14  1  6  0  0  0
  9 10  1  0  0  0  0
 10  2  1  6  0  0  0
 10 11  1  0  0  0  0
 12 11  1  0  0  0  0
 13 16  1  1  0  0  0
 13  9  1  0  0  0  0
 13 12  1  0  0  0  0
 14 15  1  0  0  0  0
 17 16  1  0  0  0  0
 18 19  1  0  0  0  0
 18  1  1  0  0  0  0
 18 20  1  0  0  0  0
 21 18  1  0  0  0  0
M  END
>  <minimizedAffinity>
-4.02951241

$$$$
