
 OpenBabel03242513323D

 37 40  0  0  1  0  0  0  0  0999 V2000
   38.0320   26.4110   42.1100 C   0  0  0  0  0  0  0  0  0  0  0  0
   38.4750   25.1090   41.9340 C   0  0  0  0  0  0  0  0  0  0  0  0
   39.4820   24.6790   42.7240 C   0  0  0  0  0  0  0  0  0  0  0  0
   40.0670   25.4960   43.6860 C   0  0  0  0  0  0  0  0  0  0  0  0
   39.6270   26.7830   43.8570 C   0  0  0  0  0  0  0  0  0  0  0  0
   38.5900   27.2650   43.0610 C   0  0  0  0  0  0  0  0  0  0  0  0
   39.8120   23.6450   42.5650 H   0  0  0  0  0  0  0  0  0  0  0  0
   40.8550   25.0560   44.2560 H   0  0  0  0  0  0  0  0  0  0  0  0
   40.0770   27.4160   44.5980 H   0  0  0  0  0  0  0  0  0  0  0  0
   37.8400   22.8390   38.9940 C   0  0  0  0  0  0  0  0  0  0  0  0
   38.5030   23.6030   39.9590 C   0  0  0  0  0  0  0  0  0  0  0  0
   37.8280   24.3080   40.9190 C   0  0  0  0  0  0  0  0  0  0  0  0
   36.4700   24.1910   40.8410 N   0  0  0  0  0  0  0  0  0  0  0  0
   35.8100   23.4690   39.9300 C   0  0  0  0  0  0  0  0  0  0  0  0
   36.5030   22.7880   38.9980 N   0  0  0  0  0  0  0  0  0  0  0  0
   38.4540   22.3060   38.2630 H   0  0  0  0  0  0  0  0  0  0  0  0
   39.5910   23.6410   39.9490 H   0  0  0  0  0  0  0  0  0  0  0  0
   34.7310   23.4820   40.0050 H   0  0  0  0  0  0  0  0  0  0  0  0
   36.9980   26.9010   41.3200 O   0  0  0  0  0  0  0  0  0  0  0  0
   36.0270   26.8180   41.5560 H   0  0  0  0  0  0  0  0  0  0  0  0
   38.0980   28.5440   43.1770 O   0  0  0  0  0  0  0  0  0  0  0  0
   38.6010   29.6330   42.5660 C   0  0  0  0  0  0  0  0  0  0  0  0
   39.8070   30.2790   42.7380 C   0  0  0  0  0  0  0  0  0  0  0  0
   40.0980   31.3800   41.9950 C   0  0  0  0  0  0  0  0  0  0  0  0
   39.1020   31.7950   41.0650 C   0  0  0  0  0  0  0  0  0  0  0  0
   37.7670   30.5800   41.2900 S   0  0  0  0  0  0  0  0  0  0  0  0
   40.4960   29.8830   43.4720 H   0  0  0  0  0  0  0  0  0  0  0  0
   41.0130   31.9500   42.0580 H   0  0  0  0  0  0  0  0  0  0  0  0
   40.3250   33.2220   39.5760 C   0  0  2  0  0  3  0  0  0  0  0  0
   38.9840   32.8730   40.1030 C   0  0  2  0  0  3  0  0  0  0  0  0
   38.4890   33.9830   40.7830 O   0  0  0  0  0  0  0  0  0  0  0  0
   39.0510   35.0990   40.1760 C   0  0  0  0  0  2  0  0  0  0  0  0
   40.4770   34.6900   39.9600 C   0  0  1  0  0  3  0  0  0  0  0  0
   40.3760   33.2040   38.1750 O   0  0  0  0  0  0  0  0  0  0  0  0
   39.8870   32.4450   37.7850 H   0  0  0  0  0  0  0  0  0  0  0  0
   41.1340   34.8100   41.1820 O   0  0  0  0  0  0  0  0  0  0  0  0
   40.5570   34.4500   41.9060 H   0  0  0  0  0  0  0  0  0  0  0  0
  1  6  1  0  0  0  0
  2  1  2  0  0  0  0
  2  3  1  0  0  0  0
  3  4  2  0  0  0  0
  4  5  1  0  0  0  0
  4  8  1  0  0  0  0
  5  9  1  0  0  0  0
  6 21  1  0  0  0  0
  6  5  2  0  0  0  0
  7  3  1  0  0  0  0
 10 15  2  0  0  0  0
 10 11  1  0  0  0  0
 11 12  2  0  0  0  0
 12  2  1  0  0  0  0
 13 12  1  0  0  0  0
 14 18  1  0  0  0  0
 14 13  2  0  0  0  0
 15 14  1  0  0  0  0
 16 10  1  0  0  0  0
 17 11  1  0  0  0  0
 19 20  1  0  0  0  0
 19  1  1  0  0  0  0
 22 23  2  0  0  0  0
 22 21  1  0  0  0  0
 23 27  1  0  0  0  0
 24 28  1  0  0  0  0
 24 23  1  0  0  0  0
 25 26  1  0  0  0  0
 25 24  2  0  0  0  0
 26 22  1  0  0  0  0
 29 34  1  6  0  0  0
 29 33  1  0  0  0  0
 29 30  1  0  0  0  0
 30 31  1  0  0  0  0
 30 25  1  1  0  0  0
 32 31  1  0  0  0  0
 33 32  1  0  0  0  0
 33 36  1  1  0  0  0
 35 34  1  0  0  0  0
 36 37  1  0  0  0  0
M  END
>  <minimizedAffinity>
-6.61347389

$$$$

 OpenBabel03242513323D

 37 40  0  0  1  0  0  0  0  0999 V2000
   37.6490   29.9180   40.7050 C   0  0  0  0  0  0  0  0  0  0  0  0
   37.4380   28.6580   40.1650 C   0  0  0  0  0  0  0  0  0  0  0  0
   36.8750   28.5890   38.9390 C   0  0  0  0  0  0  0  0  0  0  0  0
   36.5140   29.7290   38.2270 C   0  0  0  0  0  0  0  0  0  0  0  0
   36.7230   30.9730   38.7640 C   0  0  0  0  0  0  0  0  0  0  0  0
   37.3010   31.0860   40.0270 C   0  0  0  0  0  0  0  0  0  0  0  0
   36.7200   27.5820   38.5350 H   0  0  0  0  0  0  0  0  0  0  0  0
   36.0770   29.5600   37.2670 H   0  0  0  0  0  0  0  0  0  0  0  0
   36.4450   31.8530   38.2170 H   0  0  0  0  0  0  0  0  0  0  0  0
   37.3790   25.4860   42.1980 C   0  0  0  0  0  0  0  0  0  0  0  0
   36.9560   26.5820   41.4410 C   0  0  0  0  0  0  0  0  0  0  0  0
   37.8340   27.5120   40.9520 C   0  0  0  0  0  0  0  0  0  0  0  0
   39.1370   27.2660   41.2730 N   0  0  0  0  0  0  0  0  0  0  0  0
   39.5700   26.2280   41.9950 C   0  0  0  0  0  0  0  0  0  0  0  0
   38.6820   25.3310   42.4620 N   0  0  0  0  0  0  0  0  0  0  0  0
   36.6130   24.7900   42.5510 H   0  0  0  0  0  0  0  0  0  0  0  0
   35.8940   26.7030   41.2310 H   0  0  0  0  0  0  0  0  0  0  0  0
   40.6380   26.1770   42.1610 H   0  0  0  0  0  0  0  0  0  0  0  0
   38.2250   30.0410   41.9640 O   0  0  0  0  0  0  0  0  0  0  0  0
   39.2120   30.0960   42.1240 H   0  0  0  0  0  0  0  0  0  0  0  0
   37.5410   32.3000   40.6270 O   0  0  0  0  0  0  0  0  0  0  0  0
   38.5570   33.1310   40.3310 C   0  0  0  0  0  0  0  0  0  0  0  0
   38.7540   34.4570   40.6590 C   0  0  0  0  0  0  0  0  0  0  0  0
   39.8780   35.0980   40.2400 C   0  0  0  0  0  0  0  0  0  0  0  0
   40.7940   34.3280   39.4690 C   0  0  0  0  0  0  0  0  0  0  0  0
   40.0070   32.6910   39.3700 S   0  0  0  0  0  0  0  0  0  0  0  0
   37.9960   34.9520   41.2490 H   0  0  0  0  0  0  0  0  0  0  0  0
   40.1190   36.1300   40.4470 H   0  0  0  0  0  0  0  0  0  0  0  0
   42.2520   33.6770   37.6800 C   0  0  2  0  0  3  0  0  0  0  0  0
   42.0720   34.5880   38.8360 C   0  0  2  0  0  3  0  0  0  0  0  0
   43.0640   34.2980   39.7690 O   0  0  0  0  0  0  0  0  0  0  0  0
   44.1520   33.8200   39.0500 C   0  0  0  0  0  2  0  0  0  0  0  0
   43.5210   32.9110   38.0380 C   0  0  1  0  0  3  0  0  0  0  0  0
   42.5610   34.3620   36.4960 O   0  0  0  0  0  0  0  0  0  0  0  0
   42.0350   35.1850   36.3830 H   0  0  0  0  0  0  0  0  0  0  0  0
   43.2060   31.7200   38.6870 O   0  0  0  0  0  0  0  0  0  0  0  0
   42.8110   31.9210   39.5760 H   0  0  0  0  0  0  0  0  0  0  0  0
  1 19  1  0  0  0  0
  2  1  1  0  0  0  0
  2 12  1  0  0  0  0
  3  2  2  0  0  0  0
  4  5  2  0  0  0  0
  4  3  1  0  0  0  0
  5  6  1  0  0  0  0
  6 21  1  0  0  0  0
  6  1  2  0  0  0  0
  7  3  1  0  0  0  0
  8  4  1  0  0  0  0
  9  5  1  0  0  0  0
 10 15  1  0  0  0  0
 10 16  1  0  0  0  0
 11 10  2  0  0  0  0
 12 13  2  0  0  0  0
 12 11  1  0  0  0  0
 13 14  1  0  0  0  0
 14 18  1  0  0  0  0
 14 15  2  0  0  0  0
 17 11  1  0  0  0  0
 19 20  1  0  0  0  0
 22 21  1  0  0  0  0
 22 23  2  0  0  0  0
 23 27  1  0  0  0  0
 24 28  1  0  0  0  0
 24 23  1  0  0  0  0
 25 24  2  0  0  0  0
 26 25  1  0  0  0  0
 26 22  1  0  0  0  0
 29 34  1  6  0  0  0
 29 33  1  0  0  0  0
 29 30  1  0  0  0  0
 30 25  1  1  0  0  0
 30 31  1  0  0  0  0
 32 31  1  0  0  0  0
 33 36  1  1  0  0  0
 33 32  1  0  0  0  0
 35 34  1  0  0  0  0
 36 37  1  0  0  0  0
M  END
>  <minimizedAffinity>
-6.52699518

$$$$

 OpenBabel03242513323D

 37 40  0  0  1  0  0  0  0  0999 V2000
   38.2790   31.5090   40.1840 C   0  0  0  0  0  0  0  0  0  0  0  0
   38.6570   31.9910   38.9400 C   0  0  0  0  0  0  0  0  0  0  0  0
   37.9230   31.6100   37.8720 C   0  0  0  0  0  0  0  0  0  0  0  0
   36.8240   30.7660   37.9950 C   0  0  0  0  0  0  0  0  0  0  0  0
   36.4530   30.2920   39.2260 C   0  0  0  0  0  0  0  0  0  0  0  0
   37.1850   30.6610   40.3520 C   0  0  0  0  0  0  0  0  0  0  0  0
   38.2430   32.0060   36.9010 H   0  0  0  0  0  0  0  0  0  0  0  0
   36.3140   30.5290   37.0860 H   0  0  0  0  0  0  0  0  0  0  0  0
   35.6050   29.6400   39.3230 H   0  0  0  0  0  0  0  0  0  0  0  0
   41.9430   33.5600   37.9680 C   0  0  0  0  0  0  0  0  0  0  0  0
   40.8470   32.6930   38.0000 C   0  0  0  0  0  0  0  0  0  0  0  0
   39.8090   32.8630   38.8760 C   0  0  0  0  0  0  0  0  0  0  0  0
   39.9490   33.9430   39.6990 N   0  0  0  0  0  0  0  0  0  0  0  0
   40.9850   34.7870   39.6910 C   0  0  0  0  0  0  0  0  0  0  0  0
   41.9910   34.5930   38.8190 N   0  0  0  0  0  0  0  0  0  0  0  0
   42.7300   33.3530   37.2380 H   0  0  0  0  0  0  0  0  0  0  0  0
   40.8150   31.8550   37.3060 H   0  0  0  0  0  0  0  0  0  0  0  0
   40.9440   35.5950   40.4100 H   0  0  0  0  0  0  0  0  0  0  0  0
   39.0040   31.8710   41.3140 O   0  0  0  0  0  0  0  0  0  0  0  0
   38.8110   32.6870   41.8630 H   0  0  0  0  0  0  0  0  0  0  0  0
   36.8710   30.2230   41.6170 O   0  0  0  0  0  0  0  0  0  0  0  0
   37.2210   29.0340   42.1430 C   0  0  0  0  0  0  0  0  0  0  0  0
   37.8280   28.7300   43.3430 C   0  0  0  0  0  0  0  0  0  0  0  0
   38.0860   27.4330   43.6620 C   0  0  0  0  0  0  0  0  0  0  0  0
   37.6950   26.4570   42.7010 C   0  0  0  0  0  0  0  0  0  0  0  0
   36.9640   27.4410   41.3570 S   0  0  0  0  0  0  0  0  0  0  0  0
   38.0850   29.5460   44.0040 H   0  0  0  0  0  0  0  0  0  0  0  0
   38.5550   27.0980   44.5750 H   0  0  0  0  0  0  0  0  0  0  0  0
   39.1530   24.6030   42.2680 C   0  0  2  0  0  3  0  0  0  0  0  0
   37.7720   25.0120   42.6190 C   0  0  2  0  0  3  0  0  0  0  0  0
   36.9300   24.6110   41.5840 O   0  0  0  0  0  0  0  0  0  0  0  0
   37.5120   23.4830   41.0200 C   0  0  0  0  0  2  0  0  0  0  0  0
   38.9660   23.8400   40.9600 C   0  0  1  0  0  3  0  0  0  0  0  0
   39.6830   23.6650   43.1650 O   0  0  0  0  0  0  0  0  0  0  0  0
   39.4630   23.8670   44.1020 H   0  0  0  0  0  0  0  0  0  0  0  0
   39.1430   24.6890   39.8700 O   0  0  0  0  0  0  0  0  0  0  0  0
   38.4060   25.3540   39.8460 H   0  0  0  0  0  0  0  0  0  0  0  0
  1  6  1  0  0  0  0
  1 19  1  0  0  0  0
  2  1  2  0  0  0  0
  3  4  2  0  0  0  0
  3  2  1  0  0  0  0
  4  5  1  0  0  0  0
  5  9  1  0  0  0  0
  5  6  2  0  0  0  0
  6 21  1  0  0  0  0
  7  3  1  0  0  0  0
  8  4  1  0  0  0  0
 10 11  2  0  0  0  0
 10 15  1  0  0  0  0
 11 12  1  0  0  0  0
 12  2  1  0  0  0  0
 12 13  2  0  0  0  0
 14 13  1  0  0  0  0
 14 18  1  0  0  0  0
 15 14  2  0  0  0  0
 16 10  1  0  0  0  0
 17 11  1  0  0  0  0
 19 20  1  0  0  0  0
 21 22  1  0  0  0  0
 22 23  2  0  0  0  0
 23 24  1  0  0  0  0
 23 27  1  0  0  0  0
 24 28  1  0  0  0  0
 25 24  2  0  0  0  0
 26 22  1  0  0  0  0
 26 25  1  0  0  0  0
 29 30  1  0  0  0  0
 29 34  1  1  0  0  0
 30 25  1  6  0  0  0
 31 30  1  0  0  0  0
 32 31  1  0  0  0  0
 33 36  1  6  0  0  0
 33 32  1  0  0  0  0
 33 29  1  0  0  0  0
 34 35  1  0  0  0  0
 37 36  1  0  0  0  0
M  END
>  <minimizedAffinity>
-6.45615053

$$$$

 OpenBabel03242513323D

 37 40  0  0  1  0  0  0  0  0999 V2000
   40.1140   33.0980   39.1470 C   0  0  0  0  0  0  0  0  0  0  0  0
   40.8690   34.1110   39.7180 C   0  0  0  0  0  0  0  0  0  0  0  0
   40.2100   35.0890   40.3750 C   0  0  0  0  0  0  0  0  0  0  0  0
   38.8230   35.0980   40.4880 C   0  0  0  0  0  0  0  0  0  0  0  0
   38.0790   34.0960   39.9220 C   0  0  0  0  0  0  0  0  0  0  0  0
   38.7220   33.0690   39.2350 C   0  0  0  0  0  0  0  0  0  0  0  0
   40.8320   35.8770   40.8170 H   0  0  0  0  0  0  0  0  0  0  0  0
   38.4050   35.9190   41.0290 H   0  0  0  0  0  0  0  0  0  0  0  0
   37.0090   34.1010   40.0080 H   0  0  0  0  0  0  0  0  0  0  0  0
   44.5670   33.9510   40.4290 C   0  0  0  0  0  0  0  0  0  0  0  0
   43.1830   34.0140   40.6170 C   0  0  0  0  0  0  0  0  0  0  0  0
   42.3070   34.0470   39.5660 C   0  0  0  0  0  0  0  0  0  0  0  0
   42.9070   34.0140   38.3410 N   0  0  0  0  0  0  0  0  0  0  0  0
   44.2260   33.9550   38.1320 C   0  0  0  0  0  0  0  0  0  0  0  0
   45.0620   33.9240   39.1860 N   0  0  0  0  0  0  0  0  0  0  0  0
   45.1970   33.9270   41.3220 H   0  0  0  0  0  0  0  0  0  0  0  0
   42.7870   34.0360   41.6310 H   0  0  0  0  0  0  0  0  0  0  0  0
   44.5420   33.9360   37.0970 H   0  0  0  0  0  0  0  0  0  0  0  0
   40.7460   32.0690   38.4590 O   0  0  0  0  0  0  0  0  0  0  0  0
   41.0700   31.2250   38.8910 H   0  0  0  0  0  0  0  0  0  0  0  0
   38.0400   32.0320   38.6430 O   0  0  0  0  0  0  0  0  0  0  0  0
   37.4590   31.0060   39.2930 C   0  0  0  0  0  0  0  0  0  0  0  0
   36.3700   30.2320   38.9520 C   0  0  0  0  0  0  0  0  0  0  0  0
   35.9600   29.2350   39.7820 C   0  0  0  0  0  0  0  0  0  0  0  0
   36.7120   29.0610   40.9780 C   0  0  0  0  0  0  0  0  0  0  0  0
   37.9960   30.3460   40.8730 S   0  0  0  0  0  0  0  0  0  0  0  0
   35.8660   30.4460   38.0190 H   0  0  0  0  0  0  0  0  0  0  0  0
   35.1220   28.5790   39.6000 H   0  0  0  0  0  0  0  0  0  0  0  0
   37.4950   28.6700   43.2110 C   0  0  2  0  0  3  0  0  0  0  0  0
   36.6400   28.1610   42.1120 C   0  0  2  0  0  3  0  0  0  0  0  0
   37.1580   26.9350   41.7000 O   0  0  0  0  0  0  0  0  0  0  0  0
   37.7730   26.3750   42.8130 C   0  0  0  0  0  2  0  0  0  0  0  0
   38.4920   27.5370   43.4280 C   0  0  1  0  0  3  0  0  0  0  0  0
   36.8020   28.7850   44.4250 O   0  0  0  0  0  0  0  0  0  0  0  0
   35.8940   29.1450   44.3130 H   0  0  0  0  0  0  0  0  0  0  0  0
   39.6480   27.7540   42.6820 O   0  0  0  0  0  0  0  0  0  0  0  0
   39.4370   27.6810   41.7150 H   0  0  0  0  0  0  0  0  0  0  0  0
  1  6  2  0  0  0  0
  1  2  1  0  0  0  0
  2  3  2  0  0  0  0
  3  4  1  0  0  0  0
  3  7  1  0  0  0  0
  4  8  1  0  0  0  0
  5  9  1  0  0  0  0
  5  4  2  0  0  0  0
  6  5  1  0  0  0  0
 10 11  1  0  0  0  0
 10 16  1  0  0  0  0
 11 17  1  0  0  0  0
 12  2  1  0  0  0  0
 12 11  2  0  0  0  0
 13 12  1  0  0  0  0
 14 13  2  0  0  0  0
 14 15  1  0  0  0  0
 15 10  2  0  0  0  0
 18 14  1  0  0  0  0
 19 20  1  0  0  0  0
 19  1  1  0  0  0  0
 21  6  1  0  0  0  0
 21 22  1  0  0  0  0
 22 26  1  0  0  0  0
 23 22  2  0  0  0  0
 23 24  1  0  0  0  0
 24 25  2  0  0  0  0
 26 25  1  0  0  0  0
 27 23  1  0  0  0  0
 28 24  1  0  0  0  0
 29 33  1  0  0  0  0
 29 34  1  1  0  0  0
 30 25  1  6  0  0  0
 30 29  1  0  0  0  0
 31 30  1  0  0  0  0
 31 32  1  0  0  0  0
 32 33  1  0  0  0  0
 33 36  1  6  0  0  0
 35 34  1  0  0  0  0
 37 36  1  0  0  0  0
M  END
>  <minimizedAffinity>
-6.44135094

$$$$

 OpenBabel03242513323D

 37 40  0  0  1  0  0  0  0  0999 V2000
   38.6150   26.9510   41.7910 C   0  0  0  0  0  0  0  0  0  0  0  0
   37.5090   26.1410   41.9960 C   0  0  0  0  0  0  0  0  0  0  0  0
   36.6320   26.5100   42.9550 C   0  0  0  0  0  0  0  0  0  0  0  0
   36.8160   27.6570   43.7210 C   0  0  0  0  0  0  0  0  0  0  0  0
   37.9110   28.4550   43.5170 C   0  0  0  0  0  0  0  0  0  0  0  0
   38.8380   28.1090   42.5360 C   0  0  0  0  0  0  0  0  0  0  0  0
   35.7660   25.8530   43.0960 H   0  0  0  0  0  0  0  0  0  0  0  0
   36.0630   27.8550   44.4520 H   0  0  0  0  0  0  0  0  0  0  0  0
   38.0550   29.3400   44.1060 H   0  0  0  0  0  0  0  0  0  0  0  0
   36.3660   23.6870   39.3740 C   0  0  0  0  0  0  0  0  0  0  0  0
   36.4650   24.8440   40.1520 C   0  0  0  0  0  0  0  0  0  0  0  0
   37.3730   24.9620   41.1690 C   0  0  0  0  0  0  0  0  0  0  0  0
   38.1570   23.8590   41.3440 N   0  0  0  0  0  0  0  0  0  0  0  0
   38.0840   22.7400   40.6170 C   0  0  0  0  0  0  0  0  0  0  0  0
   37.1790   22.6540   39.6240 N   0  0  0  0  0  0  0  0  0  0  0  0
   35.6130   23.6740   38.5810 H   0  0  0  0  0  0  0  0  0  0  0  0
   35.7990   25.6800   39.9440 H   0  0  0  0  0  0  0  0  0  0  0  0
   38.7780   21.9530   40.8840 H   0  0  0  0  0  0  0  0  0  0  0  0
   39.5470   26.6130   40.8150 O   0  0  0  0  0  0  0  0  0  0  0  0
   39.4840   26.9060   39.8590 H   0  0  0  0  0  0  0  0  0  0  0  0
   39.9590   28.8610   42.2760 O   0  0  0  0  0  0  0  0  0  0  0  0
   39.9740   30.0530   41.6500 C   0  0  0  0  0  0  0  0  0  0  0  0
   39.6860   31.3160   42.1230 C   0  0  0  0  0  0  0  0  0  0  0  0
   39.7710   32.3870   41.2890 C   0  0  0  0  0  0  0  0  0  0  0  0
   40.1630   32.1130   39.9470 C   0  0  0  0  0  0  0  0  0  0  0  0
   40.3990   30.3100   39.9260 S   0  0  0  0  0  0  0  0  0  0  0  0
   39.3980   31.4170   43.1600 H   0  0  0  0  0  0  0  0  0  0  0  0
   39.5670   33.4100   41.5670 H   0  0  0  0  0  0  0  0  0  0  0  0
   40.5460   32.0280   37.5820 C   0  0  2  0  0  3  0  0  0  0  0  0
   40.3750   32.9140   38.7580 C   0  0  2  0  0  3  0  0  0  0  0  0
   41.5620   33.6190   38.9400 O   0  0  0  0  0  0  0  0  0  0  0  0
   42.1390   33.7480   37.6820 C   0  0  0  0  0  2  0  0  0  0  0  0
   41.9350   32.3940   37.0720 C   0  0  1  0  0  3  0  0  0  0  0  0
   39.6740   32.3510   36.5320 O   0  0  0  0  0  0  0  0  0  0  0  0
   38.7680   32.5700   36.8420 H   0  0  0  0  0  0  0  0  0  0  0  0
   42.8950   31.5430   37.6150 O   0  0  0  0  0  0  0  0  0  0  0  0
   42.9680   31.7060   38.5920 H   0  0  0  0  0  0  0  0  0  0  0  0
  1  2  2  0  0  0  0
  1  6  1  0  0  0  0
  2  3  1  0  0  0  0
  3  7  1  0  0  0  0
  3  4  2  0  0  0  0
  4  8  1  0  0  0  0
  5  4  1  0  0  0  0
  5  9  1  0  0  0  0
  6  5  2  0  0  0  0
 10 15  2  0  0  0  0
 10 11  1  0  0  0  0
 11 12  2  0  0  0  0
 12 13  1  0  0  0  0
 12  2  1  0  0  0  0
 14 18  1  0  0  0  0
 14 13  2  0  0  0  0
 15 14  1  0  0  0  0
 16 10  1  0  0  0  0
 17 11  1  0  0  0  0
 19  1  1  0  0  0  0
 20 19  1  0  0  0  0
 21  6  1  0  0  0  0
 22 23  2  0  0  0  0
 22 21  1  0  0  0  0
 23 27  1  0  0  0  0
 24 28  1  0  0  0  0
 24 23  1  0  0  0  0
 25 24  2  0  0  0  0
 26 25  1  0  0  0  0
 26 22  1  0  0  0  0
 29 34  1  6  0  0  0
 29 30  1  0  0  0  0
 30 31  1  0  0  0  0
 30 25  1  1  0  0  0
 32 31  1  0  0  0  0
 33 29  1  0  0  0  0
 33 36  1  1  0  0  0
 33 32  1  0  0  0  0
 34 35  1  0  0  0  0
 36 37  1  0  0  0  0
M  END
>  <minimizedAffinity>
-6.28332901

$$$$

 OpenBabel03242513323D

 37 40  0  0  1  0  0  0  0  0999 V2000
   37.5250   26.8370   41.7220 C   0  0  0  0  0  0  0  0  0  0  0  0
   38.1980   25.6300   41.8360 C   0  0  0  0  0  0  0  0  0  0  0  0
   39.1120   25.5140   42.8240 C   0  0  0  0  0  0  0  0  0  0  0  0
   39.3820   26.5560   43.7050 C   0  0  0  0  0  0  0  0  0  0  0  0
   38.7160   27.7480   43.5890 C   0  0  0  0  0  0  0  0  0  0  0  0
   37.7650   27.9080   42.5830 C   0  0  0  0  0  0  0  0  0  0  0  0
   39.6280   24.5500   42.8930 H   0  0  0  0  0  0  0  0  0  0  0  0
   40.1230   26.3580   44.4490 H   0  0  0  0  0  0  0  0  0  0  0  0
   38.9230   28.5540   44.2680 H   0  0  0  0  0  0  0  0  0  0  0  0
   38.4520   22.9040   39.2470 C   0  0  0  0  0  0  0  0  0  0  0  0
   38.8070   23.9100   40.1510 C   0  0  0  0  0  0  0  0  0  0  0  0
   37.8730   24.5850   40.8910 C   0  0  0  0  0  0  0  0  0  0  0  0
   36.5890   24.1850   40.6620 N   0  0  0  0  0  0  0  0  0  0  0  0
   36.2210   23.2280   39.8050 C   0  0  0  0  0  0  0  0  0  0  0  0
   37.1620   22.5830   39.0900 N   0  0  0  0  0  0  0  0  0  0  0  0
   39.2590   22.4140   38.6950 H   0  0  0  0  0  0  0  0  0  0  0  0
   39.8570   24.1670   40.2720 H   0  0  0  0  0  0  0  0  0  0  0  0
   35.1600   23.0300   39.7400 H   0  0  0  0  0  0  0  0  0  0  0  0
   36.5750   27.0060   40.7200 O   0  0  0  0  0  0  0  0  0  0  0  0
   35.6050   26.7760   40.8260 H   0  0  0  0  0  0  0  0  0  0  0  0
   37.0590   29.0740   42.4070 O   0  0  0  0  0  0  0  0  0  0  0  0
   37.3400   30.0300   41.5020 C   0  0  0  0  0  0  0  0  0  0  0  0
   36.5110   30.9250   40.8580 C   0  0  0  0  0  0  0  0  0  0  0  0
   37.0330   31.8120   39.9690 C   0  0  0  0  0  0  0  0  0  0  0  0
   38.4410   31.7480   39.7650 C   0  0  0  0  0  0  0  0  0  0  0  0
   38.9770   30.4030   40.8670 S   0  0  0  0  0  0  0  0  0  0  0  0
   35.4550   30.8920   41.0830 H   0  0  0  0  0  0  0  0  0  0  0  0
   36.4660   32.5480   39.4190 H   0  0  0  0  0  0  0  0  0  0  0  0
   39.6720   31.6980   37.7080 C   0  0  2  0  0  3  0  0  0  0  0  0
   39.3910   32.4700   38.9430 C   0  0  2  0  0  3  0  0  0  0  0  0
   40.5770   32.5660   39.6670 O   0  0  0  0  0  0  0  0  0  0  0  0
   41.6090   32.5320   38.7380 C   0  0  0  0  0  2  0  0  0  0  0  0
   41.1770   31.4600   37.7840 C   0  0  1  0  0  3  0  0  0  0  0  0
   39.4810   32.4550   36.5440 O   0  0  0  0  0  0  0  0  0  0  0  0
   38.6800   33.0230   36.5850 H   0  0  0  0  0  0  0  0  0  0  0  0
   41.4470   30.2330   38.3870 O   0  0  0  0  0  0  0  0  0  0  0  0
   41.1800   30.2670   39.3420 H   0  0  0  0  0  0  0  0  0  0  0  0
  1  2  2  0  0  0  0
  1  6  1  0  0  0  0
  2  3  1  0  0  0  0
  3  7  1  0  0  0  0
  3  4  2  0  0  0  0
  4  8  1  0  0  0  0
  5  4  1  0  0  0  0
  5  9  1  0  0  0  0
  6  5  2  0  0  0  0
 10 11  1  0  0  0  0
 11 17  1  0  0  0  0
 11 12  2  0  0  0  0
 12  2  1  0  0  0  0
 13 12  1  0  0  0  0
 14 13  2  0  0  0  0
 15 10  2  0  0  0  0
 15 14  1  0  0  0  0
 16 10  1  0  0  0  0
 18 14  1  0  0  0  0
 19 20  1  0  0  0  0
 19  1  1  0  0  0  0
 21  6  1  0  0  0  0
 22 21  1  0  0  0  0
 23 27  1  0  0  0  0
 23 22  2  0  0  0  0
 24 23  1  0  0  0  0
 25 24  2  0  0  0  0
 25 26  1  0  0  0  0
 26 22  1  0  0  0  0
 28 24  1  0  0  0  0
 29 34  1  6  0  0  0
 29 33  1  0  0  0  0
 29 30  1  0  0  0  0
 30 31  1  0  0  0  0
 30 25  1  1  0  0  0
 32 31  1  0  0  0  0
 33 36  1  1  0  0  0
 33 32  1  0  0  0  0
 34 35  1  0  0  0  0
 36 37  1  0  0  0  0
M  END
>  <minimizedAffinity>
-6.2623229

$$$$

 OpenBabel03242513323D

 37 40  0  0  1  0  0  0  0  0999 V2000
   37.7370   27.8620   40.8090 C   0  0  0  0  0  0  0  0  0  0  0  0
   37.5370   26.8140   41.6950 C   0  0  0  0  0  0  0  0  0  0  0  0
   37.4290   27.1160   43.0070 C   0  0  0  0  0  0  0  0  0  0  0  0
   37.5120   28.4240   43.4730 C   0  0  0  0  0  0  0  0  0  0  0  0
   37.7110   29.4580   42.5950 C   0  0  0  0  0  0  0  0  0  0  0  0
   37.8280   29.1870   41.2330 C   0  0  0  0  0  0  0  0  0  0  0  0
   37.2700   26.2690   43.6850 H   0  0  0  0  0  0  0  0  0  0  0  0
   37.4140   28.5510   44.5290 H   0  0  0  0  0  0  0  0  0  0  0  0
   37.7760   30.4680   42.9520 H   0  0  0  0  0  0  0  0  0  0  0  0
   38.2250   23.1910   40.9200 C   0  0  0  0  0  0  0  0  0  0  0  0
   38.3350   24.4720   41.4670 C   0  0  0  0  0  0  0  0  0  0  0  0
   37.4590   25.4760   41.1510 C   0  0  0  0  0  0  0  0  0  0  0  0
   36.4890   25.1080   40.2650 N   0  0  0  0  0  0  0  0  0  0  0  0
   36.3610   23.8910   39.7260 C   0  0  0  0  0  0  0  0  0  0  0  0
   37.2380   22.9250   40.0560 N   0  0  0  0  0  0  0  0  0  0  0  0
   38.9650   22.4460   41.2250 H   0  0  0  0  0  0  0  0  0  0  0  0
   39.1410   24.6820   42.1680 H   0  0  0  0  0  0  0  0  0  0  0  0
   35.5350   23.7610   39.0380 H   0  0  0  0  0  0  0  0  0  0  0  0
   37.8560   27.6020   39.4480 O   0  0  0  0  0  0  0  0  0  0  0  0
   37.0780   27.5640   38.8170 H   0  0  0  0  0  0  0  0  0  0  0  0
   38.0280   30.1730   40.2950 O   0  0  0  0  0  0  0  0  0  0  0  0
   39.0850   31.0050   40.2480 C   0  0  0  0  0  0  0  0  0  0  0  0
   39.2530   32.2700   40.7700 C   0  0  0  0  0  0  0  0  0  0  0  0
   40.4310   32.9260   40.5910 C   0  0  0  0  0  0  0  0  0  0  0  0
   41.4330   32.2330   39.8530 C   0  0  0  0  0  0  0  0  0  0  0  0
   40.6460   30.6480   39.4370 S   0  0  0  0  0  0  0  0  0  0  0  0
   38.4290   32.7090   41.3160 H   0  0  0  0  0  0  0  0  0  0  0  0
   40.6560   33.9150   40.9620 H   0  0  0  0  0  0  0  0  0  0  0  0
   42.8990   33.9740   39.0960 C   0  0  2  0  0  3  0  0  0  0  0  0
   42.7870   32.5340   39.4330 C   0  0  2  0  0  3  0  0  0  0  0  0
   43.0330   31.8030   38.2730 O   0  0  0  0  0  0  0  0  0  0  0  0
   43.8920   32.5720   37.4980 C   0  0  0  0  0  2  0  0  0  0  0  0
   43.3310   33.9540   37.6340 C   0  0  1  0  0  3  0  0  0  0  0  0
   43.9470   34.6080   39.7780 O   0  0  0  0  0  0  0  0  0  0  0  0
   44.0170   34.3260   40.7170 H   0  0  0  0  0  0  0  0  0  0  0  0
   42.2220   34.0380   36.7950 O   0  0  0  0  0  0  0  0  0  0  0  0
   41.6820   33.2100   36.8770 H   0  0  0  0  0  0  0  0  0  0  0  0
  1  6  2  0  0  0  0
  1  2  1  0  0  0  0
  2  3  2  0  0  0  0
  3  4  1  0  0  0  0
  3  7  1  0  0  0  0
  4  8  1  0  0  0  0
  5  9  1  0  0  0  0
  5  4  2  0  0  0  0
  6  5  1  0  0  0  0
 10 16  1  0  0  0  0
 10 11  1  0  0  0  0
 11 17  1  0  0  0  0
 12 11  2  0  0  0  0
 12  2  1  0  0  0  0
 13 12  1  0  0  0  0
 14 15  1  0  0  0  0
 14 13  2  0  0  0  0
 15 10  2  0  0  0  0
 18 14  1  0  0  0  0
 19  1  1  0  0  0  0
 20 19  1  0  0  0  0
 21  6  1  0  0  0  0
 22 21  1  0  0  0  0
 22 23  2  0  0  0  0
 23 27  1  0  0  0  0
 24 23  1  0  0  0  0
 24 28  1  0  0  0  0
 25 24  2  0  0  0  0
 26 25  1  0  0  0  0
 26 22  1  0  0  0  0
 29 30  1  0  0  0  0
 29 34  1  1  0  0  0
 30 25  1  6  0  0  0
 31 30  1  0  0  0  0
 32 33  1  0  0  0  0
 32 31  1  0  0  0  0
 33 36  1  6  0  0  0
 33 29  1  0  0  0  0
 34 35  1  0  0  0  0
 36 37  1  0  0  0  0
M  END
>  <minimizedAffinity>
-6.16274643

$$$$

 OpenBabel03242513323D

 37 40  0  0  1  0  0  0  0  0999 V2000
   38.8600   26.7850   42.1310 C   0  0  0  0  0  0  0  0  0  0  0  0
   37.6210   26.1640   42.1040 C   0  0  0  0  0  0  0  0  0  0  0  0
   36.6440   26.6820   42.8800 C   0  0  0  0  0  0  0  0  0  0  0  0
   36.8540   27.7980   43.6840 C   0  0  0  0  0  0  0  0  0  0  0  0
   38.0800   28.4090   43.7090 C   0  0  0  0  0  0  0  0  0  0  0  0
   39.1140   27.9050   42.9220 C   0  0  0  0  0  0  0  0  0  0  0  0
   35.6740   26.1720   42.8400 H   0  0  0  0  0  0  0  0  0  0  0  0
   36.0140   28.1240   44.2580 H   0  0  0  0  0  0  0  0  0  0  0  0
   38.2440   29.2700   44.3280 H   0  0  0  0  0  0  0  0  0  0  0  0
   36.4560   23.8070   39.4040 C   0  0  0  0  0  0  0  0  0  0  0  0
   36.5770   24.9440   40.2080 C   0  0  0  0  0  0  0  0  0  0  0  0
   37.4640   25.0080   41.2490 C   0  0  0  0  0  0  0  0  0  0  0  0
   38.2030   23.8730   41.4190 N   0  0  0  0  0  0  0  0  0  0  0  0
   38.1080   22.7730   40.6660 C   0  0  0  0  0  0  0  0  0  0  0  0
   37.2260   22.7400   39.6500 N   0  0  0  0  0  0  0  0  0  0  0  0
   35.7230   23.8380   38.5930 H   0  0  0  0  0  0  0  0  0  0  0  0
   35.9470   25.8070   40.0030 H   0  0  0  0  0  0  0  0  0  0  0  0
   38.7670   21.9570   40.9330 H   0  0  0  0  0  0  0  0  0  0  0  0
   39.8980   26.2890   41.3500 O   0  0  0  0  0  0  0  0  0  0  0  0
   40.0690   26.5720   40.4040 H   0  0  0  0  0  0  0  0  0  0  0  0
   40.3690   28.4670   42.8970 O   0  0  0  0  0  0  0  0  0  0  0  0
   40.6840   29.6530   42.3440 C   0  0  0  0  0  0  0  0  0  0  0  0
   41.7500   30.4960   42.5810 C   0  0  0  0  0  0  0  0  0  0  0  0
   41.8580   31.6620   41.8880 C   0  0  0  0  0  0  0  0  0  0  0  0
   40.8290   31.9310   40.9410 C   0  0  0  0  0  0  0  0  0  0  0  0
   39.7280   30.4900   41.0760 S   0  0  0  0  0  0  0  0  0  0  0  0
   42.4780   30.1980   43.3220 H   0  0  0  0  0  0  0  0  0  0  0  0
   42.6540   32.3820   42.0030 H   0  0  0  0  0  0  0  0  0  0  0  0
   40.8600   34.3110   40.6530 C   0  0  2  0  0  3  0  0  0  0  0  0
   40.5450   33.0100   40.0170 C   0  0  2  0  0  3  0  0  0  0  0  0
   39.1770   32.9820   39.7540 O   0  0  0  0  0  0  0  0  0  0  0  0
   38.7890   34.3000   39.5510 C   0  0  0  0  0  2  0  0  0  0  0  0
   39.5220   35.0430   40.6260 C   0  0  1  0  0  3  0  0  0  0  0  0
   41.7220   35.0980   39.8770 O   0  0  0  0  0  0  0  0  0  0  0  0
   42.4450   34.5760   39.4630 H   0  0  0  0  0  0  0  0  0  0  0  0
   38.8300   34.8420   41.8190 O   0  0  0  0  0  0  0  0  0  0  0  0
   38.5600   33.8890   41.8880 H   0  0  0  0  0  0  0  0  0  0  0  0
  1  6  1  0  0  0  0
  2  1  2  0  0  0  0
  2  3  1  0  0  0  0
  3  4  2  0  0  0  0
  4  5  1  0  0  0  0
  4  8  1  0  0  0  0
  5  9  1  0  0  0  0
  6  5  2  0  0  0  0
  7  3  1  0  0  0  0
 10 15  2  0  0  0  0
 10 11  1  0  0  0  0
 11 12  2  0  0  0  0
 12 13  1  0  0  0  0
 12  2  1  0  0  0  0
 14 18  1  0  0  0  0
 14 13  2  0  0  0  0
 15 14  1  0  0  0  0
 16 10  1  0  0  0  0
 17 11  1  0  0  0  0
 19  1  1  0  0  0  0
 20 19  1  0  0  0  0
 21  6  1  0  0  0  0
 22 23  2  0  0  0  0
 22 21  1  0  0  0  0
 23 27  1  0  0  0  0
 24 28  1  0  0  0  0
 24 23  1  0  0  0  0
 25 26  1  0  0  0  0
 25 24  2  0  0  0  0
 26 22  1  0  0  0  0
 29 34  1  6  0  0  0
 30 29  1  0  0  0  0
 30 25  1  1  0  0  0
 31 30  1  0  0  0  0
 32 31  1  0  0  0  0
 32 33  1  0  0  0  0
 33 29  1  0  0  0  0
 33 36  1  1  0  0  0
 35 34  1  0  0  0  0
 36 37  1  0  0  0  0
M  END
>  <minimizedAffinity>
-6.06415415

$$$$

 OpenBabel03242513323D

 37 40  0  0  1  0  0  0  0  0999 V2000
   38.9200   31.4060   40.8540 C   0  0  0  0  0  0  0  0  0  0  0  0
   38.8030   32.0650   39.6400 C   0  0  0  0  0  0  0  0  0  0  0  0
   37.7200   31.7920   38.8810 C   0  0  0  0  0  0  0  0  0  0  0  0
   36.7450   30.8860   39.2860 C   0  0  0  0  0  0  0  0  0  0  0  0
   36.8630   30.2360   40.4860 C   0  0  0  0  0  0  0  0  0  0  0  0
   37.9670   30.4900   41.2980 C   0  0  0  0  0  0  0  0  0  0  0  0
   37.6520   32.3280   37.9260 H   0  0  0  0  0  0  0  0  0  0  0  0
   35.9300   30.7450   38.6100 H   0  0  0  0  0  0  0  0  0  0  0  0
   36.1120   29.5360   40.8000 H   0  0  0  0  0  0  0  0  0  0  0  0
   41.7580   33.6890   37.9550 C   0  0  0  0  0  0  0  0  0  0  0  0
   40.7620   32.7640   38.2800 C   0  0  0  0  0  0  0  0  0  0  0  0
   39.8490   32.9950   39.2740 C   0  0  0  0  0  0  0  0  0  0  0  0
   40.0060   34.1960   39.9030 N   0  0  0  0  0  0  0  0  0  0  0  0
   40.9490   35.0990   39.6140 C   0  0  0  0  0  0  0  0  0  0  0  0
   41.8330   34.8420   38.6320 N   0  0  0  0  0  0  0  0  0  0  0  0
   42.4470   33.4270   37.1480 H   0  0  0  0  0  0  0  0  0  0  0  0
   40.7070   31.8280   37.7260 H   0  0  0  0  0  0  0  0  0  0  0  0
   40.9380   36.0030   40.2080 H   0  0  0  0  0  0  0  0  0  0  0  0
   40.0180   31.6530   41.6700 O   0  0  0  0  0  0  0  0  0  0  0  0
   40.0490   32.3780   42.3610 H   0  0  0  0  0  0  0  0  0  0  0  0
   38.1510   29.8750   42.5140 O   0  0  0  0  0  0  0  0  0  0  0  0
   38.7330   28.6760   42.7030 C   0  0  0  0  0  0  0  0  0  0  0  0
   38.5250   27.7240   43.6800 C   0  0  0  0  0  0  0  0  0  0  0  0
   39.2450   26.5710   43.6660 C   0  0  0  0  0  0  0  0  0  0  0  0
   40.1900   26.4290   42.6100 C   0  0  0  0  0  0  0  0  0  0  0  0
   40.0130   27.9710   41.6620 S   0  0  0  0  0  0  0  0  0  0  0  0
   37.7820   27.9290   44.4390 H   0  0  0  0  0  0  0  0  0  0  0  0
   39.1520   25.7700   44.3840 H   0  0  0  0  0  0  0  0  0  0  0  0
   42.4850   25.7470   42.7400 C   0  0  2  0  0  3  0  0  0  0  0  0
   41.1410   25.4090   42.2160 C   0  0  2  0  0  3  0  0  0  0  0  0
   41.2080   25.4210   40.8250 O   0  0  0  0  0  0  0  0  0  0  0  0
   42.5120   25.0780   40.4920 C   0  0  0  0  0  2  0  0  0  0  0  0
   43.3330   25.8540   41.4770 C   0  0  1  0  0  3  0  0  0  0  0  0
   43.0570   24.7000   43.4760 O   0  0  0  0  0  0  0  0  0  0  0  0
   42.4110   24.2490   44.0630 H   0  0  0  0  0  0  0  0  0  0  0  0
   43.3820   27.1730   41.0310 O   0  0  0  0  0  0  0  0  0  0  0  0
   42.4820   27.4500   40.7180 H   0  0  0  0  0  0  0  0  0  0  0  0
  1  6  1  0  0  0  0
  1 19  1  0  0  0  0
  2  1  2  0  0  0  0
  3  4  2  0  0  0  0
  3  2  1  0  0  0  0
  4  5  1  0  0  0  0
  5  9  1  0  0  0  0
  5  6  2  0  0  0  0
  6 21  1  0  0  0  0
  7  3  1  0  0  0  0
  8  4  1  0  0  0  0
 10 11  2  0  0  0  0
 10 15  1  0  0  0  0
 11 12  1  0  0  0  0
 12  2  1  0  0  0  0
 12 13  2  0  0  0  0
 14 13  1  0  0  0  0
 14 18  1  0  0  0  0
 15 14  2  0  0  0  0
 16 10  1  0  0  0  0
 17 11  1  0  0  0  0
 19 20  1  0  0  0  0
 21 22  1  0  0  0  0
 22 23  2  0  0  0  0
 23 27  1  0  0  0  0
 24 23  1  0  0  0  0
 24 28  1  0  0  0  0
 25 24  2  0  0  0  0
 26 25  1  0  0  0  0
 26 22  1  0  0  0  0
 29 34  1  1  0  0  0
 30 25  1  6  0  0  0
 30 29  1  0  0  0  0
 31 30  1  0  0  0  0
 32 31  1  0  0  0  0
 32 33  1  0  0  0  0
 33 36  1  6  0  0  0
 33 29  1  0  0  0  0
 34 35  1  0  0  0  0
 37 36  1  0  0  0  0
M  END
>  <minimizedAffinity>
-6.04334545

$$$$
