
 OpenBabel03242521063D

 34 37  0  0  1  0  0  0  0  0999 V2000
   37.1240   26.7970   41.5660 C   0  0  0  0  0  0  0  0  0  0  0  0
   37.2750   26.6130   42.9230 C   0  0  0  0  0  0  0  0  0  0  0  0
   37.5130   27.6100   43.8410 C   0  0  0  0  0  0  0  0  0  0  0  0
   37.6120   28.9060   43.3850 C   0  0  0  0  0  0  0  0  0  0  0  0
   37.4590   29.0700   42.0370 C   0  0  0  0  0  0  0  0  0  0  0  0
   37.2300   28.0730   41.1860 N   0  0  0  0  0  0  0  0  0  0  0  0
   37.2030   25.5920   43.3270 H   0  0  0  0  0  0  0  0  0  0  0  0
   37.6190   27.3570   44.9040 H   0  0  0  0  0  0  0  0  0  0  0  0
   37.8000   29.6730   44.1240 H   0  0  0  0  0  0  0  0  0  0  0  0
   36.6730   23.4330   39.9380 C   0  0  0  0  0  0  0  0  0  0  0  0
   36.9440   24.3590   40.9510 C   0  0  0  0  0  0  0  0  0  0  0  0
   36.8720   25.7010   40.6350 C   0  0  0  0  0  0  0  0  0  0  0  0
   36.5450   26.0480   39.3660 N   0  0  0  0  0  0  0  0  0  0  0  0
   36.2860   25.1300   38.4020 C   0  0  0  0  0  0  0  0  0  0  0  0
   36.3570   23.8190   38.7170 N   0  0  0  0  0  0  0  0  0  0  0  0
   36.7360   22.3880   40.2120 H   0  0  0  0  0  0  0  0  0  0  0  0
   37.2050   24.1170   41.9600 H   0  0  0  0  0  0  0  0  0  0  0  0
   36.0340   25.5600   37.4210 H   0  0  0  0  0  0  0  0  0  0  0  0
   37.5590   30.4590   41.5060 C   0  0  2  0  0  0  0  0  0  0  0  0
   36.2890   31.0190   40.9260 C   0  0  0  0  0  0  0  0  0  0  0  0
   37.4770   30.6940   40.0680 C   0  0  1  0  0  0  0  0  0  0  0  0
   38.1120   31.2120   42.1370 H   0  0  0  0  0  0  0  0  0  0  0  0
   35.3810   30.3630   40.8930 H   0  0  0  0  0  0  0  0  0  0  0  0
   36.0520   32.0850   41.0340 H   0  0  0  0  0  0  0  0  0  0  0  0
   37.3310   29.8280   39.3750 H   0  0  0  0  0  0  0  0  0  0  0  0
   38.0280   33.0820   40.2750 C   0  0  1  0  0  3  0  0  0  0  0  0
   38.3250   31.7960   39.5220 C   0  0  1  0  0  3  0  0  0  0  0  0
   39.6820   31.6260   39.7510 O   0  0  0  0  0  0  0  0  0  0  0  0
   40.2470   32.8680   39.4950 C   0  0  0  0  0  2  0  0  0  0  0  0
   39.2610   33.9020   39.9880 C   0  0  2  0  0  3  0  0  0  0  0  0
   36.8680   33.7000   39.8230 O   0  0  0  0  0  0  0  0  0  0  0  0
   36.2600   33.7770   40.6070 H   0  0  0  0  0  0  0  0  0  0  0  0
   39.7620   34.5360   41.1350 O   0  0  0  0  0  0  0  0  0  0  0  0
   39.0710   35.0480   41.5900 H   0  0  0  0  0  0  0  0  0  0  0  0
  1  2  1  0  0  0  0
  2  7  1  0  0  0  0
  2  3  2  0  0  0  0
  3  8  1  0  0  0  0
  4  3  1  0  0  0  0
  4  9  1  0  0  0  0
  5  4  2  0  0  0  0
  6  1  2  0  0  0  0
  6  5  1  0  0  0  0
 10 16  1  0  0  0  0
 10 11  1  0  0  0  0
 11 17  1  0  0  0  0
 12 11  2  0  0  0  0
 12  1  1  0  0  0  0
 13 12  1  0  0  0  0
 14 15  1  0  0  0  0
 14 13  2  0  0  0  0
 15 10  2  0  0  0  0
 18 14  1  0  0  0  0
 19  5  1  0  0  0  0
 19 22  1  1  0  0  0
 20 24  1  0  0  0  0
 20 19  1  0  0  0  0
 21 25  1  6  0  0  0
 21 20  1  0  0  0  0
 21 19  1  0  0  0  0
 23 20  1  0  0  0  0
 26 31  1  6  0  0  0
 27 28  1  1  0  0  0
 27 21  1  0  0  0  0
 27 26  1  0  0  0  0
 29 28  1  0  0  0  0
 29 30  1  0  0  0  0
 30 26  1  0  0  0  0
 30 33  1  1  0  0  0
 31 32  1  0  0  0  0
 33 34  1  0  0  0  0
M  END
>  <minimizedAffinity>
-6.22755623

$$$$

 OpenBabel03242521063D

 34 37  0  0  1  0  0  0  0  0999 V2000
   37.3950   30.8660   40.6650 C   0  0  0  0  0  0  0  0  0  0  0  0
   36.1960   30.7190   40.0030 C   0  0  0  0  0  0  0  0  0  0  0  0
   35.3670   29.6240   40.0880 C   0  0  0  0  0  0  0  0  0  0  0  0
   35.7510   28.5780   40.8980 C   0  0  0  0  0  0  0  0  0  0  0  0
   36.9420   28.7410   41.5460 C   0  0  0  0  0  0  0  0  0  0  0  0
   37.7120   29.8200   41.4330 N   0  0  0  0  0  0  0  0  0  0  0  0
   35.8540   31.5330   39.3470 H   0  0  0  0  0  0  0  0  0  0  0  0
   34.4290   29.6060   39.5170 H   0  0  0  0  0  0  0  0  0  0  0  0
   35.0850   27.7270   40.9490 H   0  0  0  0  0  0  0  0  0  0  0  0
   38.7280   34.3440   40.1190 C   0  0  0  0  0  0  0  0  0  0  0  0
   37.7860   33.3120   40.1980 C   0  0  0  0  0  0  0  0  0  0  0  0
   38.2360   32.0520   40.5390 C   0  0  0  0  0  0  0  0  0  0  0  0
   39.5610   31.8840   40.7780 N   0  0  0  0  0  0  0  0  0  0  0  0
   40.4530   32.9020   40.6950 C   0  0  0  0  0  0  0  0  0  0  0  0
   40.0060   34.1320   40.3620 N   0  0  0  0  0  0  0  0  0  0  0  0
   38.3480   35.3210   39.8500 H   0  0  0  0  0  0  0  0  0  0  0  0
   36.7370   33.4130   40.0150 H   0  0  0  0  0  0  0  0  0  0  0  0
   41.4910   32.6150   40.9160 H   0  0  0  0  0  0  0  0  0  0  0  0
   37.3910   27.6290   42.4310 C   0  0  2  0  0  0  0  0  0  0  0  0
   36.9530   27.7320   43.8670 C   0  0  0  0  0  0  0  0  0  0  0  0
   38.3910   27.8820   43.4640 C   0  0  1  0  0  0  0  0  0  0  0  0
   37.2960   26.5800   42.0280 H   0  0  0  0  0  0  0  0  0  0  0  0
   36.3660   28.6330   44.1840 H   0  0  0  0  0  0  0  0  0  0  0  0
   36.7050   26.8290   44.4390 H   0  0  0  0  0  0  0  0  0  0  0  0
   38.8080   28.9120   43.5880 H   0  0  0  0  0  0  0  0  0  0  0  0
   39.4320   25.8560   42.5340 C   0  0  1  0  0  3  0  0  0  0  0  0
   39.3600   26.7770   43.7400 C   0  0  1  0  0  3  0  0  0  0  0  0
   40.6730   27.2030   43.8660 O   0  0  0  0  0  0  0  0  0  0  0  0
   41.4350   26.0460   43.7700 C   0  0  0  0  0  2  0  0  0  0  0  0
   40.7520   25.1610   42.7520 C   0  0  2  0  0  3  0  0  0  0  0  0
   38.3680   24.9620   42.4910 O   0  0  0  0  0  0  0  0  0  0  0  0
   37.9000   25.1140   41.6260 H   0  0  0  0  0  0  0  0  0  0  0  0
   41.5220   25.0930   41.5800 O   0  0  0  0  0  0  0  0  0  0  0  0
   41.0170   24.7100   40.8430 H   0  0  0  0  0  0  0  0  0  0  0  0
  1  6  1  0  0  0  0
  2  3  1  0  0  0  0
  2  1  2  0  0  0  0
  3  4  2  0  0  0  0
  4  9  1  0  0  0  0
  4  5  1  0  0  0  0
  5 19  1  0  0  0  0
  6  5  2  0  0  0  0
  7  2  1  0  0  0  0
  8  3  1  0  0  0  0
 10 11  2  0  0  0  0
 10 15  1  0  0  0  0
 11 12  1  0  0  0  0
 12  1  1  0  0  0  0
 12 13  2  0  0  0  0
 14 13  1  0  0  0  0
 14 18  1  0  0  0  0
 15 14  2  0  0  0  0
 16 10  1  0  0  0  0
 17 11  1  0  0  0  0
 19 22  1  6  0  0  0
 19 21  1  0  0  0  0
 19 20  1  0  0  0  0
 20 23  1  0  0  0  0
 20 24  1  0  0  0  0
 21 25  1  1  0  0  0
 21 27  1  0  0  0  0
 21 20  1  0  0  0  0
 26 31  1  1  0  0  0
 26 30  1  0  0  0  0
 26 27  1  0  0  0  0
 27 28  1  6  0  0  0
 29 28  1  0  0  0  0
 30 33  1  6  0  0  0
 30 29  1  0  0  0  0
 32 31  1  0  0  0  0
 34 33  1  0  0  0  0
M  END
>  <minimizedAffinity>
-6.19466209

$$$$

 OpenBabel03242521063D

 34 37  0  0  1  0  0  0  0  0999 V2000
   38.4670   24.6220   41.6290 C   0  0  0  0  0  0  0  0  0  0  0  0
   39.3080   24.2890   42.6670 C   0  0  0  0  0  0  0  0  0  0  0  0
   39.9780   25.1860   43.4680 C   0  0  0  0  0  0  0  0  0  0  0  0
   39.8050   26.5310   43.2270 C   0  0  0  0  0  0  0  0  0  0  0  0
   38.9670   26.8420   42.1940 C   0  0  0  0  0  0  0  0  0  0  0  0
   38.3400   25.9390   41.4440 N   0  0  0  0  0  0  0  0  0  0  0  0
   39.4720   23.2250   42.8920 H   0  0  0  0  0  0  0  0  0  0  0  0
   40.6280   24.8170   44.2730 H   0  0  0  0  0  0  0  0  0  0  0  0
   40.3410   27.2180   43.8680 H   0  0  0  0  0  0  0  0  0  0  0  0
   35.9990   22.7220   39.5130 C   0  0  0  0  0  0  0  0  0  0  0  0
   36.5140   23.7740   40.2790 C   0  0  0  0  0  0  0  0  0  0  0  0
   37.7800   23.6280   40.8090 C   0  0  0  0  0  0  0  0  0  0  0  0
   38.4540   22.4770   40.5600 N   0  0  0  0  0  0  0  0  0  0  0  0
   37.9320   21.4730   39.8140 C   0  0  0  0  0  0  0  0  0  0  0  0
   36.6930   21.6220   39.2980 N   0  0  0  0  0  0  0  0  0  0  0  0
   35.0050   22.8630   39.1100 H   0  0  0  0  0  0  0  0  0  0  0  0
   36.0080   24.6920   40.4930 H   0  0  0  0  0  0  0  0  0  0  0  0
   38.5940   20.6020   39.6980 H   0  0  0  0  0  0  0  0  0  0  0  0
   38.7550   28.2880   41.9020 C   0  0  2  0  0  0  0  0  0  0  0  0
   37.8790   29.0200   42.8820 C   0  0  0  0  0  0  0  0  0  0  0  0
   37.4430   28.7560   41.4700 C   0  0  1  0  0  0  0  0  0  0  0  0
   39.6600   28.8900   41.6020 H   0  0  0  0  0  0  0  0  0  0  0  0
   37.4190   28.4420   43.7240 H   0  0  0  0  0  0  0  0  0  0  0  0
   38.0830   30.0690   43.1340 H   0  0  0  0  0  0  0  0  0  0  0  0
   36.6020   28.0260   41.3680 H   0  0  0  0  0  0  0  0  0  0  0  0
   36.9270   31.1400   41.1460 C   0  0  1  0  0  3  0  0  0  0  0  0
   37.4270   29.8720   40.4750 C   0  0  1  0  0  3  0  0  0  0  0  0
   38.6860   30.2470   40.0330 O   0  0  0  0  0  0  0  0  0  0  0  0
   38.4960   31.4750   39.4140 C   0  0  0  0  0  2  0  0  0  0  0  0
   37.4470   32.2090   40.2180 C   0  0  2  0  0  3  0  0  0  0  0  0
   35.5410   31.1660   41.2550 O   0  0  0  0  0  0  0  0  0  0  0  0
   35.3310   31.2570   42.2230 H   0  0  0  0  0  0  0  0  0  0  0  0
   38.0320   33.2800   40.9100 O   0  0  0  0  0  0  0  0  0  0  0  0
   37.4340   33.6360   41.5890 H   0  0  0  0  0  0  0  0  0  0  0  0
  1  2  1  0  0  0  0
  2  7  1  0  0  0  0
  2  3  2  0  0  0  0
  3  8  1  0  0  0  0
  4  3  1  0  0  0  0
  4  9  1  0  0  0  0
  5  4  2  0  0  0  0
  6  1  2  0  0  0  0
  6  5  1  0  0  0  0
 10 11  1  0  0  0  0
 11 17  1  0  0  0  0
 11 12  2  0  0  0  0
 12  1  1  0  0  0  0
 13 12  1  0  0  0  0
 14 13  2  0  0  0  0
 15 10  2  0  0  0  0
 15 14  1  0  0  0  0
 16 10  1  0  0  0  0
 18 14  1  0  0  0  0
 19 22  1  6  0  0  0
 19  5  1  0  0  0  0
 19 20  1  0  0  0  0
 20 24  1  0  0  0  0
 20 23  1  0  0  0  0
 21 25  1  6  0  0  0
 21 19  1  0  0  0  0
 21 20  1  0  0  0  0
 26 31  1  6  0  0  0
 27 28  1  1  0  0  0
 27 26  1  0  0  0  0
 27 21  1  0  0  0  0
 29 28  1  0  0  0  0
 29 30  1  0  0  0  0
 30 33  1  1  0  0  0
 30 26  1  0  0  0  0
 31 32  1  0  0  0  0
 33 34  1  0  0  0  0
M  END
>  <minimizedAffinity>
-6.00436163

$$$$

 OpenBabel03242521063D

 34 37  0  0  1  0  0  0  0  0999 V2000
   38.5560   25.5320   41.8550 C   0  0  0  0  0  0  0  0  0  0  0  0
   39.3690   25.1490   42.8990 C   0  0  0  0  0  0  0  0  0  0  0  0
   40.0530   26.0060   43.7310 C   0  0  0  0  0  0  0  0  0  0  0  0
   39.9270   27.3600   43.5180 C   0  0  0  0  0  0  0  0  0  0  0  0
   39.1170   27.7210   42.4790 C   0  0  0  0  0  0  0  0  0  0  0  0
   38.4730   26.8560   41.6990 N   0  0  0  0  0  0  0  0  0  0  0  0
   39.4950   24.0750   43.1010 H   0  0  0  0  0  0  0  0  0  0  0  0
   40.6770   25.5970   44.5370 H   0  0  0  0  0  0  0  0  0  0  0  0
   40.4740   28.0140   44.1830 H   0  0  0  0  0  0  0  0  0  0  0  0
   37.3970   22.4660   40.0020 C   0  0  0  0  0  0  0  0  0  0  0  0
   38.1770   23.2440   40.8640 C   0  0  0  0  0  0  0  0  0  0  0  0
   37.8510   24.5790   41.0010 C   0  0  0  0  0  0  0  0  0  0  0  0
   36.7980   25.0610   40.2960 N   0  0  0  0  0  0  0  0  0  0  0  0
   36.0580   24.2850   39.4670 C   0  0  0  0  0  0  0  0  0  0  0  0
   36.3810   22.9800   39.3370 N   0  0  0  0  0  0  0  0  0  0  0  0
   37.6740   21.4230   39.9130 H   0  0  0  0  0  0  0  0  0  0  0  0
   39.0120   22.8940   41.4330 H   0  0  0  0  0  0  0  0  0  0  0  0
   35.2360   24.8130   38.9620 H   0  0  0  0  0  0  0  0  0  0  0  0
   38.9560   29.1790   42.2170 C   0  0  2  0  0  0  0  0  0  0  0  0
   37.5580   29.7120   42.3820 C   0  0  0  0  0  0  0  0  0  0  0  0
   38.2220   29.6290   41.0390 C   0  0  1  0  0  0  0  0  0  0  0  0
   39.7320   29.8690   42.6560 H   0  0  0  0  0  0  0  0  0  0  0  0
   36.7390   28.9930   42.6440 H   0  0  0  0  0  0  0  0  0  0  0  0
   37.3920   30.7240   42.7740 H   0  0  0  0  0  0  0  0  0  0  0  0
   37.7800   28.8730   40.3430 H   0  0  0  0  0  0  0  0  0  0  0  0
   37.8270   32.0400   40.7570 C   0  0  1  0  0  3  0  0  0  0  0  0
   38.7210   30.8720   40.3760 C   0  0  1  0  0  3  0  0  0  0  0  0
   39.9620   31.2900   40.8300 O   0  0  0  0  0  0  0  0  0  0  0  0
   40.0900   32.5950   40.3740 C   0  0  0  0  0  2  0  0  0  0  0  0
   38.7170   33.2220   40.4640 C   0  0  2  0  0  3  0  0  0  0  0  0
   36.6530   32.0690   40.0110 O   0  0  0  0  0  0  0  0  0  0  0  0
   35.9010   32.0260   40.6600 H   0  0  0  0  0  0  0  0  0  0  0  0
   38.6920   34.1790   41.4910 O   0  0  0  0  0  0  0  0  0  0  0  0
   37.7820   34.4430   41.7090 H   0  0  0  0  0  0  0  0  0  0  0  0
  1  2  1  0  0  0  0
  2  7  1  0  0  0  0
  2  3  2  0  0  0  0
  3  8  1  0  0  0  0
  4  3  1  0  0  0  0
  4  9  1  0  0  0  0
  5  4  2  0  0  0  0
  6  1  2  0  0  0  0
  6  5  1  0  0  0  0
 10 11  1  0  0  0  0
 11 12  2  0  0  0  0
 11 17  1  0  0  0  0
 12  1  1  0  0  0  0
 13 12  1  0  0  0  0
 14 13  2  0  0  0  0
 15 14  1  0  0  0  0
 15 10  2  0  0  0  0
 16 10  1  0  0  0  0
 18 14  1  0  0  0  0
 19 20  1  0  0  0  0
 19  5  1  0  0  0  0
 19 22  1  1  0  0  0
 20 23  1  0  0  0  0
 20 24  1  0  0  0  0
 21 25  1  6  0  0  0
 21 19  1  0  0  0  0
 21 20  1  0  0  0  0
 26 31  1  6  0  0  0
 27 26  1  0  0  0  0
 27 28  1  1  0  0  0
 27 21  1  0  0  0  0
 29 30  1  0  0  0  0
 29 28  1  0  0  0  0
 30 26  1  0  0  0  0
 30 33  1  1  0  0  0
 31 32  1  0  0  0  0
 33 34  1  0  0  0  0
M  END
>  <minimizedAffinity>
-5.77042341

$$$$

 OpenBabel03242521063D

 34 37  0  0  1  0  0  0  0  0999 V2000
   37.0930   28.0650   40.1420 C   0  0  0  0  0  0  0  0  0  0  0  0
   35.9120   28.4400   39.5400 C   0  0  0  0  0  0  0  0  0  0  0  0
   35.6290   29.6960   39.0560 C   0  0  0  0  0  0  0  0  0  0  0  0
   36.5930   30.6730   39.1740 C   0  0  0  0  0  0  0  0  0  0  0  0
   37.7570   30.2830   39.7730 C   0  0  0  0  0  0  0  0  0  0  0  0
   37.9870   29.0540   40.2270 N   0  0  0  0  0  0  0  0  0  0  0  0
   35.1180   27.6880   39.4270 H   0  0  0  0  0  0  0  0  0  0  0  0
   34.6530   29.8930   38.5920 H   0  0  0  0  0  0  0  0  0  0  0  0
   36.3480   31.6530   38.7880 H   0  0  0  0  0  0  0  0  0  0  0  0
   37.4050   24.9570   42.2450 C   0  0  0  0  0  0  0  0  0  0  0  0
   37.1110   26.2890   41.9320 C   0  0  0  0  0  0  0  0  0  0  0  0
   37.3420   26.7140   40.6390 C   0  0  0  0  0  0  0  0  0  0  0  0
   37.8400   25.8230   39.7460 N   0  0  0  0  0  0  0  0  0  0  0  0
   38.1170   24.5370   40.0760 C   0  0  0  0  0  0  0  0  0  0  0  0
   37.8880   24.1270   41.3420 N   0  0  0  0  0  0  0  0  0  0  0  0
   37.2140   24.6500   43.2650 H   0  0  0  0  0  0  0  0  0  0  0  0
   36.7180   27.0150   42.6120 H   0  0  0  0  0  0  0  0  0  0  0  0
   38.5150   23.9320   39.2480 H   0  0  0  0  0  0  0  0  0  0  0  0
   38.8240   31.3130   39.9190 C   0  0  2  0  0  0  0  0  0  0  0  0
   38.3910   32.7300   39.6580 C   0  0  0  0  0  0  0  0  0  0  0  0
   39.3310   32.0060   38.7390 C   0  0  1  0  0  0  0  0  0  0  0  0
   39.4990   31.2300   40.8180 H   0  0  0  0  0  0  0  0  0  0  0  0
   37.3320   32.9160   39.3380 H   0  0  0  0  0  0  0  0  0  0  0  0
   38.8240   33.5590   40.2330 H   0  0  0  0  0  0  0  0  0  0  0  0
   38.9090   31.7630   37.7320 H   0  0  0  0  0  0  0  0  0  0  0  0
   41.2600   32.5430   37.3100 C   0  0  1  0  0  3  0  0  0  0  0  0
   40.7860   32.3500   38.7410 C   0  0  1  0  0  3  0  0  0  0  0  0
   41.0710   33.5780   39.3150 O   0  0  0  0  0  0  0  0  0  0  0  0
   42.3700   33.8650   38.9210 C   0  0  0  0  0  2  0  0  0  0  0  0
   42.5170   33.3530   37.5070 C   0  0  2  0  0  3  0  0  0  0  0  0
   41.5080   31.3330   36.6710 O   0  0  0  0  0  0  0  0  0  0  0  0
   40.9240   31.3090   35.8660 H   0  0  0  0  0  0  0  0  0  0  0  0
   42.6050   34.4300   36.6110 O   0  0  0  0  0  0  0  0  0  0  0  0
   42.4900   34.1390   35.6900 H   0  0  0  0  0  0  0  0  0  0  0  0
  1  6  1  0  0  0  0
  1 12  1  0  0  0  0
  2  1  2  0  0  0  0
  3  4  2  0  0  0  0
  3  2  1  0  0  0  0
  4  5  1  0  0  0  0
  5 19  1  0  0  0  0
  5  6  2  0  0  0  0
  7  2  1  0  0  0  0
  8  3  1  0  0  0  0
  9  4  1  0  0  0  0
 10 16  1  0  0  0  0
 11 10  1  0  0  0  0
 11 17  1  0  0  0  0
 12 11  2  0  0  0  0
 13 14  2  0  0  0  0
 13 12  1  0  0  0  0
 14 15  1  0  0  0  0
 15 10  2  0  0  0  0
 18 14  1  0  0  0  0
 19 22  1  1  0  0  0
 20 19  1  0  0  0  0
 20 24  1  0  0  0  0
 21 25  1  6  0  0  0
 21 27  1  0  0  0  0
 21 20  1  0  0  0  0
 21 19  1  0  0  0  0
 23 20  1  0  0  0  0
 26 31  1  1  0  0  0
 26 30  1  0  0  0  0
 26 27  1  0  0  0  0
 27 28  1  1  0  0  0
 29 28  1  0  0  0  0
 30 33  1  6  0  0  0
 30 29  1  0  0  0  0
 32 31  1  0  0  0  0
 34 33  1  0  0  0  0
M  END
>  <minimizedAffinity>
-5.74854088

$$$$

 OpenBabel03242521063D

 34 37  0  0  1  0  0  0  0  0999 V2000
   37.3270   26.4950   41.6490 C   0  0  0  0  0  0  0  0  0  0  0  0
   36.9480   26.6280   42.9660 C   0  0  0  0  0  0  0  0  0  0  0  0
   37.0370   27.7850   43.7070 C   0  0  0  0  0  0  0  0  0  0  0  0
   37.5440   28.9120   43.0980 C   0  0  0  0  0  0  0  0  0  0  0  0
   37.9140   28.7600   41.7920 C   0  0  0  0  0  0  0  0  0  0  0  0
   37.8100   27.6200   41.1140 N   0  0  0  0  0  0  0  0  0  0  0  0
   36.5380   25.7510   43.4880 H   0  0  0  0  0  0  0  0  0  0  0  0
   36.7070   27.7860   44.7540 H   0  0  0  0  0  0  0  0  0  0  0  0
   37.6050   29.8090   43.7000 H   0  0  0  0  0  0  0  0  0  0  0  0
   37.5010   22.9130   40.5000 C   0  0  0  0  0  0  0  0  0  0  0  0
   37.6970   24.0210   41.3330 C   0  0  0  0  0  0  0  0  0  0  0  0
   37.2110   25.2420   40.9080 C   0  0  0  0  0  0  0  0  0  0  0  0
   36.5740   25.3010   39.7120 N   0  0  0  0  0  0  0  0  0  0  0  0
   36.3980   24.2120   38.9240 C   0  0  0  0  0  0  0  0  0  0  0  0
   36.8750   23.0210   39.3450 N   0  0  0  0  0  0  0  0  0  0  0  0
   37.8920   21.9690   40.8570 H   0  0  0  0  0  0  0  0  0  0  0  0
   38.1940   24.0060   42.2800 H   0  0  0  0  0  0  0  0  0  0  0  0
   35.8640   24.4130   37.9840 H   0  0  0  0  0  0  0  0  0  0  0  0
   38.4670   29.9580   41.0990 C   0  0  2  0  0  0  0  0  0  0  0  0
   39.9480   29.9210   40.8350 C   0  0  0  0  0  0  0  0  0  0  0  0
   39.3420   30.8760   41.8220 C   0  0  1  0  0  0  0  0  0  0  0  0
   37.8850   30.3600   40.2220 H   0  0  0  0  0  0  0  0  0  0  0  0
   40.5350   29.0390   41.2010 H   0  0  0  0  0  0  0  0  0  0  0  0
   40.3610   30.3710   39.9230 H   0  0  0  0  0  0  0  0  0  0  0  0
   39.5970   30.6680   42.8920 H   0  0  0  0  0  0  0  0  0  0  0  0
   40.4720   32.7780   40.7470 C   0  0  1  0  0  3  0  0  0  0  0  0
   39.2200   32.3250   41.4790 C   0  0  1  0  0  3  0  0  0  0  0  0
   38.2220   32.6000   40.5560 O   0  0  0  0  0  0  0  0  0  0  0  0
   38.4860   33.8900   40.1180 C   0  0  0  0  0  2  0  0  0  0  0  0
   39.9910   34.0260   40.0500 C   0  0  2  0  0  3  0  0  0  0  0  0
   41.5260   33.0340   41.6170 O   0  0  0  0  0  0  0  0  0  0  0  0
   42.2750   32.4400   41.3430 H   0  0  0  0  0  0  0  0  0  0  0  0
   40.4090   34.0860   38.7120 O   0  0  0  0  0  0  0  0  0  0  0  0
   41.3700   33.9630   38.6320 H   0  0  0  0  0  0  0  0  0  0  0  0
  1  2  1  0  0  0  0
  2  7  1  0  0  0  0
  2  3  2  0  0  0  0
  3  8  1  0  0  0  0
  4  9  1  0  0  0  0
  4  3  1  0  0  0  0
  5  4  2  0  0  0  0
  6  1  2  0  0  0  0
  6  5  1  0  0  0  0
 10 16  1  0  0  0  0
 10 11  1  0  0  0  0
 11 17  1  0  0  0  0
 12 11  2  0  0  0  0
 12  1  1  0  0  0  0
 13 12  1  0  0  0  0
 14 15  1  0  0  0  0
 14 13  2  0  0  0  0
 15 10  2  0  0  0  0
 18 14  1  0  0  0  0
 19 22  1  6  0  0  0
 19  5  1  0  0  0  0
 19 21  1  0  0  0  0
 20 19  1  0  0  0  0
 20 23  1  0  0  0  0
 20 21  1  0  0  0  0
 21 25  1  1  0  0  0
 24 20  1  0  0  0  0
 26 27  1  0  0  0  0
 26 31  1  1  0  0  0
 27 28  1  6  0  0  0
 27 21  1  0  0  0  0
 29 28  1  0  0  0  0
 30 33  1  6  0  0  0
 30 29  1  0  0  0  0
 30 26  1  0  0  0  0
 32 31  1  0  0  0  0
 34 33  1  0  0  0  0
M  END
>  <minimizedAffinity>
-5.71301508

$$$$

 OpenBabel03242521063D

 34 37  0  0  1  0  0  0  0  0999 V2000
   37.6620   28.8360   41.6370 C   0  0  0  0  0  0  0  0  0  0  0  0
   36.3560   28.7430   41.2080 C   0  0  0  0  0  0  0  0  0  0  0  0
   35.6200   29.7730   40.6690 C   0  0  0  0  0  0  0  0  0  0  0  0
   36.2210   31.0050   40.5390 C   0  0  0  0  0  0  0  0  0  0  0  0
   37.5150   31.0780   40.9690 C   0  0  0  0  0  0  0  0  0  0  0  0
   38.1890   30.0540   41.4850 N   0  0  0  0  0  0  0  0  0  0  0  0
   35.8410   27.7750   41.2950 H   0  0  0  0  0  0  0  0  0  0  0  0
   34.5820   29.5940   40.3570 H   0  0  0  0  0  0  0  0  0  0  0  0
   35.6230   31.8000   40.1130 H   0  0  0  0  0  0  0  0  0  0  0  0
   39.6110   26.5080   43.8640 C   0  0  0  0  0  0  0  0  0  0  0  0
   38.9310   27.6680   43.4760 C   0  0  0  0  0  0  0  0  0  0  0  0
   38.3980   27.7090   42.2030 C   0  0  0  0  0  0  0  0  0  0  0  0
   38.5620   26.6280   41.4010 N   0  0  0  0  0  0  0  0  0  0  0  0
   39.2250   25.5150   41.8010 C   0  0  0  0  0  0  0  0  0  0  0  0
   39.7440   25.4810   43.0480 N   0  0  0  0  0  0  0  0  0  0  0  0
   40.0190   26.5020   44.8660 H   0  0  0  0  0  0  0  0  0  0  0  0
   38.7860   28.5360   44.0850 H   0  0  0  0  0  0  0  0  0  0  0  0
   39.2770   24.7200   41.0440 H   0  0  0  0  0  0  0  0  0  0  0  0
   38.1990   32.3970   40.8450 C   0  0  2  0  0  0  0  0  0  0  0  0
   37.7560   33.2450   39.6830 C   0  0  0  0  0  0  0  0  0  0  0  0
   39.1250   32.6330   39.7420 C   0  0  1  0  0  0  0  0  0  0  0  0
   38.3310   32.9990   41.7890 H   0  0  0  0  0  0  0  0  0  0  0  0
   36.9900   32.8290   38.9790 H   0  0  0  0  0  0  0  0  0  0  0  0
   37.7120   34.3370   39.7780 H   0  0  0  0  0  0  0  0  0  0  0  0
   39.3100   31.8240   38.9930 H   0  0  0  0  0  0  0  0  0  0  0  0
   41.4490   32.6230   40.5480 C   0  0  1  0  0  3  0  0  0  0  0  0
   40.3120   33.4920   40.0400 C   0  0  1  0  0  3  0  0  0  0  0  0
   40.8700   34.0850   38.9180 O   0  0  0  0  0  0  0  0  0  0  0  0
   42.1150   34.5360   39.3350 C   0  0  0  0  0  2  0  0  0  0  0  0
   42.6480   33.5060   40.3040 C   0  0  2  0  0  3  0  0  0  0  0  0
   41.3020   32.2970   41.8920 O   0  0  0  0  0  0  0  0  0  0  0  0
   41.2830   31.3030   41.9450 H   0  0  0  0  0  0  0  0  0  0  0  0
   43.7180   32.8070   39.7250 O   0  0  0  0  0  0  0  0  0  0  0  0
   43.9410   32.0090   40.2350 H   0  0  0  0  0  0  0  0  0  0  0  0
  1 12  1  0  0  0  0
  2  7  1  0  0  0  0
  2  1  2  0  0  0  0
  3  2  1  0  0  0  0
  4  3  2  0  0  0  0
  4  5  1  0  0  0  0
  5  6  2  0  0  0  0
  6  1  1  0  0  0  0
  8  3  1  0  0  0  0
  9  4  1  0  0  0  0
 10 16  1  0  0  0  0
 11 10  1  0  0  0  0
 11 17  1  0  0  0  0
 12 11  2  0  0  0  0
 13 14  2  0  0  0  0
 13 12  1  0  0  0  0
 14 15  1  0  0  0  0
 15 10  2  0  0  0  0
 18 14  1  0  0  0  0
 19  5  1  0  0  0  0
 19 22  1  1  0  0  0
 20 21  1  0  0  0  0
 20 24  1  0  0  0  0
 20 19  1  0  0  0  0
 21 25  1  6  0  0  0
 21 27  1  0  0  0  0
 21 19  1  0  0  0  0
 23 20  1  0  0  0  0
 26 31  1  1  0  0  0
 27 28  1  6  0  0  0
 27 26  1  0  0  0  0
 28 29  1  0  0  0  0
 29 30  1  0  0  0  0
 30 33  1  6  0  0  0
 30 26  1  0  0  0  0
 31 32  1  0  0  0  0
 33 34  1  0  0  0  0
M  END
>  <minimizedAffinity>
-5.62493229

$$$$

 OpenBabel03242521063D

 34 37  0  0  1  0  0  0  0  0999 V2000
   37.3100   26.8020   41.6630 C   0  0  0  0  0  0  0  0  0  0  0  0
   36.9620   26.7980   42.9960 C   0  0  0  0  0  0  0  0  0  0  0  0
   37.1330   27.8500   43.8670 C   0  0  0  0  0  0  0  0  0  0  0  0
   37.6980   29.0100   43.3850 C   0  0  0  0  0  0  0  0  0  0  0  0
   38.0370   28.9950   42.0620 C   0  0  0  0  0  0  0  0  0  0  0  0
   37.8520   27.9530   41.2560 N   0  0  0  0  0  0  0  0  0  0  0  0
   36.5080   25.8900   43.4190 H   0  0  0  0  0  0  0  0  0  0  0  0
   36.8210   27.7450   44.9150 H   0  0  0  0  0  0  0  0  0  0  0  0
   37.8240   29.8230   44.0880 H   0  0  0  0  0  0  0  0  0  0  0  0
   36.4680   24.5260   38.7850 C   0  0  0  0  0  0  0  0  0  0  0  0
   36.6020   25.7230   39.4980 C   0  0  0  0  0  0  0  0  0  0  0  0
   37.1050   25.6560   40.7820 C   0  0  0  0  0  0  0  0  0  0  0  0
   37.4400   24.4400   41.2810 N   0  0  0  0  0  0  0  0  0  0  0  0
   37.3000   23.2950   40.5690 C   0  0  0  0  0  0  0  0  0  0  0  0
   36.8080   23.3670   39.3130 N   0  0  0  0  0  0  0  0  0  0  0  0
   36.0710   24.6060   37.7810 H   0  0  0  0  0  0  0  0  0  0  0  0
   36.3480   26.6950   39.1320 H   0  0  0  0  0  0  0  0  0  0  0  0
   37.6130   22.3860   41.1030 H   0  0  0  0  0  0  0  0  0  0  0  0
   38.6510   30.2330   41.5040 C   0  0  2  0  0  0  0  0  0  0  0  0
   37.6990   31.1650   40.8050 C   0  0  0  0  0  0  0  0  0  0  0  0
   38.7560   30.4040   40.0590 C   0  0  1  0  0  0  0  0  0  0  0  0
   39.3860   30.7830   42.1590 H   0  0  0  0  0  0  0  0  0  0  0  0
   36.6240   30.8620   40.7130 H   0  0  0  0  0  0  0  0  0  0  0  0
   37.8410   32.2520   40.8640 H   0  0  0  0  0  0  0  0  0  0  0  0
   38.3670   29.6050   39.3790 H   0  0  0  0  0  0  0  0  0  0  0  0
   39.5490   32.3480   38.7780 C   0  0  1  0  0  3  0  0  0  0  0  0
   39.9710   31.1150   39.5570 C   0  0  1  0  0  3  0  0  0  0  0  0
   40.7590   31.6550   40.5610 O   0  0  0  0  0  0  0  0  0  0  0  0
   41.6110   32.5380   39.9120 C   0  0  0  0  0  2  0  0  0  0  0  0
   40.8070   33.1790   38.8030 C   0  0  2  0  0  3  0  0  0  0  0  0
   39.1480   32.0400   37.4820 O   0  0  0  0  0  0  0  0  0  0  0  0
   38.2120   32.3640   37.3870 H   0  0  0  0  0  0  0  0  0  0  0  0
   40.5550   34.5250   39.1070 O   0  0  0  0  0  0  0  0  0  0  0  0
   39.8730   34.9010   38.5250 H   0  0  0  0  0  0  0  0  0  0  0  0
  1  2  1  0  0  0  0
  2  7  1  0  0  0  0
  2  3  2  0  0  0  0
  3  8  1  0  0  0  0
  4  3  1  0  0  0  0
  4  9  1  0  0  0  0
  5  4  2  0  0  0  0
  6  1  2  0  0  0  0
  6  5  1  0  0  0  0
 10 15  2  0  0  0  0
 10 11  1  0  0  0  0
 11 12  2  0  0  0  0
 12 13  1  0  0  0  0
 12  1  1  0  0  0  0
 14 18  1  0  0  0  0
 14 13  2  0  0  0  0
 15 14  1  0  0  0  0
 16 10  1  0  0  0  0
 17 11  1  0  0  0  0
 19  5  1  0  0  0  0
 19 22  1  1  0  0  0
 20 24  1  0  0  0  0
 20 19  1  0  0  0  0
 21 25  1  6  0  0  0
 21 20  1  0  0  0  0
 21 19  1  0  0  0  0
 23 20  1  0  0  0  0
 26 31  1  6  0  0  0
 26 30  1  0  0  0  0
 26 27  1  0  0  0  0
 27 21  1  0  0  0  0
 27 28  1  1  0  0  0
 29 28  1  0  0  0  0
 30 33  1  1  0  0  0
 30 29  1  0  0  0  0
 32 31  1  0  0  0  0
 34 33  1  0  0  0  0
M  END
>  <minimizedAffinity>
-5.47226429

$$$$

 OpenBabel03242521063D

 34 37  0  0  1  0  0  0  0  0999 V2000
   37.3060   26.4650   41.6040 C   0  0  0  0  0  0  0  0  0  0  0  0
   36.8230   26.4130   42.8930 C   0  0  0  0  0  0  0  0  0  0  0  0
   36.8170   27.4620   43.7840 C   0  0  0  0  0  0  0  0  0  0  0  0
   37.3330   28.6700   43.3720 C   0  0  0  0  0  0  0  0  0  0  0  0
   37.8070   28.7030   42.0920 C   0  0  0  0  0  0  0  0  0  0  0  0
   37.7920   27.6620   41.2640 N   0  0  0  0  0  0  0  0  0  0  0  0
   36.4020   25.4650   43.2600 H   0  0  0  0  0  0  0  0  0  0  0  0
   36.4070   27.3150   44.7930 H   0  0  0  0  0  0  0  0  0  0  0  0
   37.3190   29.4800   44.0900 H   0  0  0  0  0  0  0  0  0  0  0  0
   36.7110   23.1300   39.9620 C   0  0  0  0  0  0  0  0  0  0  0  0
   36.6280   24.1300   40.9370 C   0  0  0  0  0  0  0  0  0  0  0  0
   37.2870   25.3200   40.6980 C   0  0  0  0  0  0  0  0  0  0  0  0
   37.9750   25.4550   39.5370 N   0  0  0  0  0  0  0  0  0  0  0  0
   38.0390   24.4690   38.6080 C   0  0  0  0  0  0  0  0  0  0  0  0
   37.3930   23.3070   38.8470 N   0  0  0  0  0  0  0  0  0  0  0  0
   36.1870   22.2070   40.1740 H   0  0  0  0  0  0  0  0  0  0  0  0
   36.0940   24.0540   41.8600 H   0  0  0  0  0  0  0  0  0  0  0  0
   38.6340   24.7220   37.7180 H   0  0  0  0  0  0  0  0  0  0  0  0
   38.3730   29.9950   41.6100 C   0  0  2  0  0  0  0  0  0  0  0  0
   37.3850   30.9310   40.9690 C   0  0  0  0  0  0  0  0  0  0  0  0
   38.4680   30.2570   40.1780 C   0  0  1  0  0  0  0  0  0  0  0  0
   39.0890   30.5300   42.2970 H   0  0  0  0  0  0  0  0  0  0  0  0
   36.3220   30.5940   40.8600 H   0  0  0  0  0  0  0  0  0  0  0  0
   37.4870   32.0170   41.0950 H   0  0  0  0  0  0  0  0  0  0  0  0
   38.1060   29.4870   39.4510 H   0  0  0  0  0  0  0  0  0  0  0  0
   39.8910   30.7820   38.2410 C   0  0  1  0  0  3  0  0  0  0  0  0
   39.6540   31.0410   39.7190 C   0  0  1  0  0  3  0  0  0  0  0  0
   39.4650   32.4140   39.7520 O   0  0  0  0  0  0  0  0  0  0  0  0
   40.5010   32.9360   38.9900 C   0  0  0  0  0  2  0  0  0  0  0  0
   40.7250   31.9740   37.8460 C   0  0  2  0  0  3  0  0  0  0  0  0
   40.5530   29.5790   38.0180 O   0  0  0  0  0  0  0  0  0  0  0  0
   39.9630   29.0330   37.4310 H   0  0  0  0  0  0  0  0  0  0  0  0
   40.2970   32.5510   36.6400 O   0  0  0  0  0  0  0  0  0  0  0  0
   40.2330   31.8900   35.9310 H   0  0  0  0  0  0  0  0  0  0  0  0
  1  2  1  0  0  0  0
  2  7  1  0  0  0  0
  2  3  2  0  0  0  0
  3  8  1  0  0  0  0
  4  3  1  0  0  0  0
  4  9  1  0  0  0  0
  5  4  2  0  0  0  0
  6  1  2  0  0  0  0
  6  5  1  0  0  0  0
 10 16  1  0  0  0  0
 10 11  1  0  0  0  0
 11 17  1  0  0  0  0
 12 11  2  0  0  0  0
 12  1  1  0  0  0  0
 13 12  1  0  0  0  0
 14 15  1  0  0  0  0
 14 13  2  0  0  0  0
 15 10  2  0  0  0  0
 18 14  1  0  0  0  0
 19  5  1  0  0  0  0
 19 22  1  1  0  0  0
 20 24  1  0  0  0  0
 20 19  1  0  0  0  0
 21 25  1  6  0  0  0
 21 20  1  0  0  0  0
 21 19  1  0  0  0  0
 23 20  1  0  0  0  0
 26 31  1  1  0  0  0
 26 27  1  0  0  0  0
 27 28  1  6  0  0  0
 27 21  1  0  0  0  0
 29 28  1  0  0  0  0
 30 33  1  6  0  0  0
 30 26  1  0  0  0  0
 30 29  1  0  0  0  0
 32 31  1  0  0  0  0
 34 33  1  0  0  0  0
M  END
>  <minimizedAffinity>
-5.46122932

$$$$
