
 OpenBabel03242512113D

 41 44  0  0  1  0  0  0  0  0999 V2000
   48.8840   32.0860   43.3380 O   0  0  0  0  0  0  0  0  0  0  0  0
   50.0120   32.3190   42.3400 P   0  0  2  0  0  0  0  0  0  0  0  0
   51.4170   31.5870   42.8060 O   0  0  0  0  0  0  0  0  0  0  0  0
   51.3650   30.6380   42.6080 H   0  0  0  0  0  0  0  0  0  0  0  0
   50.1120   33.9880   42.0930 O   0  0  0  0  0  0  0  0  0  0  0  0
   47.8770   34.4740   41.1740 C   0  0  1  0  0  0  0  0  0  0  0  0
   48.6300   35.7870   41.6370 C   0  0  0  0  0  0  0  0  0  0  0  0
   48.8500   34.5180   42.2920 C   0  0  2  0  0  0  0  0  0  0  0  0
   48.2190   34.1010   40.2120 H   0  0  0  0  0  0  0  0  0  0  0  0
   48.0040   36.5610   42.1170 H   0  0  0  0  0  0  0  0  0  0  0  0
   49.3150   36.2140   40.8830 H   0  0  0  0  0  0  0  0  0  0  0  0
   48.3830   34.1850   43.2290 H   0  0  0  0  0  0  0  0  0  0  0  0
   46.4160   34.5490   41.4590 C   0  0  0  0  0  0  0  0  0  0  0  0
   45.6470   34.3460   40.5320 O   0  0  0  0  0  0  0  0  0  0  0  0
   45.2830   36.0060   43.0810 C   0  0  0  0  0  0  0  0  0  0  0  0
   45.8500   34.8400   42.7310 C   0  0  0  0  0  0  0  0  0  0  0  0
   45.8730   33.8260   43.7460 C   0  0  0  0  0  0  0  0  0  0  0  0
   45.3500   34.0520   44.9710 N   0  0  0  0  0  0  0  0  0  0  0  0
   44.7900   35.2550   45.2600 C   0  0  0  0  0  0  0  0  0  0  0  0
   44.7630   36.1970   44.3340 N   0  0  0  0  0  0  0  0  0  0  0  0
   45.2380   36.8090   42.3520 H   0  0  0  0  0  0  0  0  0  0  0  0
   46.2770   32.8570   43.6240 H   0  0  0  0  0  0  0  0  0  0  0  0
   44.3700   35.4520   46.2270 H   0  0  0  0  0  0  0  0  0  0  0  0
   49.3970   31.6250   40.8680 O   0  0  0  0  0  0  0  0  0  0  0  0
   50.0660   31.6620   39.6640 C   0  0  0  0  0  0  0  0  0  0  0  0
   49.5690   31.9000   38.3950 C   0  0  0  0  0  0  0  0  0  0  0  0
   50.4230   31.8920   37.3030 C   0  0  0  0  0  0  0  0  0  0  0  0
   51.7500   31.6460   37.4940 N   0  0  0  0  0  0  0  0  0  0  0  0
   52.2170   31.4150   38.7490 C   0  0  0  0  0  0  0  0  0  0  0  0
   51.4050   31.4170   39.8370 N   0  0  0  0  0  0  0  0  0  0  0  0
   48.5000   32.0810   38.3770 H   0  0  0  0  0  0  0  0  0  0  0  0
   49.9610   32.0870   36.3460 H   0  0  0  0  0  0  0  0  0  0  0  0
   53.8650   29.6670   38.9640 C   0  0  2  0  0  0  0  0  0  0  0  0
   53.6860   31.1480   38.9210 C   0  0  1  0  0  0  0  0  0  0  0  0
   54.2870   31.6440   37.7760 O   0  0  0  0  0  0  0  0  0  0  0  0
   55.0400   30.6510   37.1940 C   0  0  0  0  0  0  0  0  0  0  0  0
   55.0430   29.4410   38.0680 C   0  0  1  0  0  0  0  0  0  0  0  0
   52.7730   28.9620   38.4490 O   0  0  0  0  0  0  0  0  0  0  0  0
   52.0180   29.0250   39.0830 H   0  0  0  0  0  0  0  0  0  0  0  0
   56.2250   29.4500   38.8370 O   0  0  0  0  0  0  0  0  0  0  0  0
   55.9690   29.1800   39.7610 H   0  0  0  0  0  0  0  0  0  0  0  0
  2  3  1  0  0  0  0
  2  1  2  1  0  0  0
  4  3  1  0  0  0  0
  5  8  1  0  0  0  0
  5  2  1  0  0  0  0
  6  9  1  6  0  0  0
  6 13  1  0  0  0  0
  6  7  1  0  0  0  0
  6  8  1  0  0  0  0
  7 10  1  0  0  0  0
  7  8  1  0  0  0  0
  8 12  1  1  0  0  0
 11  7  1  0  0  0  0
 13 16  1  0  0  0  0
 14 13  2  0  0  0  0
 15 20  1  0  0  0  0
 16 15  2  0  0  0  0
 16 17  1  0  0  0  0
 17 18  2  0  0  0  0
 18 19  1  0  0  0  0
 19 23  1  0  0  0  0
 20 19  2  0  0  0  0
 21 15  1  0  0  0  0
 22 17  1  0  0  0  0
 24  2  1  0  0  0  0
 25 30  1  0  0  0  0
 25 24  1  0  0  0  0
 26 25  2  0  0  0  0
 27 28  2  0  0  0  0
 27 26  1  0  0  0  0
 28 29  1  0  0  0  0
 29 30  2  0  0  0  0
 31 26  1  0  0  0  0
 32 27  1  0  0  0  0
 33 38  1  6  0  0  0
 34 29  1  6  0  0  0
 34 33  1  0  0  0  0
 35 34  1  0  0  0  0
 36 35  1  0  0  0  0
 36 37  1  0  0  0  0
 37 40  1  1  0  0  0
 37 33  1  0  0  0  0
 38 39  1  0  0  0  0
 40 41  1  0  0  0  0
M  END
>  <minimizedAffinity>
-5.54042435

>  <minimizedRMSD>
1.08343124

$$$$
