
 OpenBabel03252505183D

 34 37  0  0  1  0  0  0  0  0999 V2000
   45.9690   33.0550   46.3810 C   0  0  0  0  0  0  0  0  0  0  0  0
   45.1680   33.1020   47.5030 C   0  0  0  0  0  0  0  0  0  0  0  0
   45.3750   32.1930   48.5310 C   0  0  0  0  0  0  0  0  0  0  0  0
   46.3920   31.2670   48.3790 C   0  0  0  0  0  0  0  0  0  0  0  0
   47.1650   31.2690   47.2270 C   0  0  0  0  0  0  0  0  0  0  0  0
   46.9640   32.1570   46.2220 N   0  0  0  0  0  0  0  0  0  0  0  0
   44.3690   33.8250   47.6290 H   0  0  0  0  0  0  0  0  0  0  0  0
   44.7430   32.2350   49.4110 H   0  0  0  0  0  0  0  0  0  0  0  0
   46.5660   30.5610   49.1580 H   0  0  0  0  0  0  0  0  0  0  0  0
   44.5960   35.8610   44.4230 C   0  0  0  0  0  0  0  0  0  0  0  0
   45.3230   35.8100   43.2110 C   0  0  0  0  0  0  0  0  0  0  0  0
   46.2610   34.8080   43.1220 C   0  0  0  0  0  0  0  0  0  0  0  0
   46.4630   33.9270   44.1570 N   0  0  0  0  0  0  0  0  0  0  0  0
   45.7280   34.0210   45.3130 C   0  0  0  0  0  0  0  0  0  0  0  0
   44.8040   34.9880   45.4300 N   0  0  0  0  0  0  0  0  0  0  0  0
   43.8380   36.6480   44.5280 H   0  0  0  0  0  0  0  0  0  0  0  0
   45.1380   36.5200   42.4160 H   0  0  0  0  0  0  0  0  0  0  0  0
   47.0660   34.6420   41.8680 C   0  0  0  0  0  0  0  0  0  0  0  0
   48.3280   35.5050   41.8720 C   0  0  0  0  0  0  0  0  0  0  0  0
   48.3230   33.9440   41.9280 C   0  0  0  0  0  0  0  0  0  0  0  0
   46.4740   34.6860   40.9260 H   0  0  0  0  0  0  0  0  0  0  0  0
   48.6230   35.9840   42.8270 H   0  0  0  0  0  0  0  0  0  0  0  0
   48.5720   35.9640   40.9170 H   0  0  0  0  0  0  0  0  0  0  0  0
   48.7090   33.4930   42.8700 H   0  0  0  0  0  0  0  0  0  0  0  0
   48.7360   33.4880   41.0090 H   0  0  0  0  0  0  0  0  0  0  0  0
   48.4400   29.7080   45.7400 C   0  0  1  0  0  3  0  0  0  0  0  0
   48.2380   30.2600   47.1150 C   0  0  2  0  0  3  0  0  0  0  0  0
   48.0000   29.1140   47.8660 O   0  0  0  0  0  0  0  0  0  0  0  0
   49.0240   28.2710   47.5000 C   0  0  0  0  0  2  0  0  0  0  0  0
   49.3790   28.5360   46.0610 C   0  0  2  0  0  3  0  0  0  0  0  0
   47.3110   29.2200   45.1290 O   0  0  0  0  0  0  0  0  0  0  0  0
   46.8440   29.8600   44.5370 H   0  0  0  0  0  0  0  0  0  0  0  0
   50.7220   28.9580   46.0410 O   0  0  0  0  0  0  0  0  0  0  0  0
   50.7880   29.8970   46.3500 H   0  0  0  0  0  0  0  0  0  0  0  0
  1  2  1  0  0  0  0
  2  7  1  0  0  0  0
  2  3  2  0  0  0  0
  3  8  1  0  0  0  0
  4  3  1  0  0  0  0
  4  9  1  0  0  0  0
  5  4  2  0  0  0  0
  6  1  2  0  0  0  0
  6  5  1  0  0  0  0
 10 16  1  0  0  0  0
 10 15  1  0  0  0  0
 11 10  2  0  0  0  0
 12 11  1  0  0  0  0
 12 13  2  0  0  0  0
 13 14  1  0  0  0  0
 14 15  2  0  0  0  0
 14  1  1  0  0  0  0
 17 11  1  0  0  0  0
 18 19  1  0  0  0  0
 18 20  1  0  0  0  0
 18 12  1  0  0  0  0
 19 20  1  0  0  0  0
 19 22  1  0  0  0  0
 20 24  1  0  0  0  0
 21 18  1  0  0  0  0
 23 19  1  0  0  0  0
 25 20  1  0  0  0  0
 26 31  1  1  0  0  0
 26 30  1  0  0  0  0
 26 27  1  0  0  0  0
 27  5  1  6  0  0  0
 27 28  1  0  0  0  0
 29 28  1  0  0  0  0
 30 33  1  1  0  0  0
 30 29  1  0  0  0  0
 32 31  1  0  0  0  0
 33 34  1  0  0  0  0
M  END
>  <minimizedAffinity>
-5.75387478

>  <minimizedRMSD>
0.799146652

$$$$
