
 OpenBabel03252506553D

 38 42  0  0  1  0  0  0  0  0999 V2000
   46.1130   30.7580   45.3110 C   0  0  0  0  0  0  0  0  0  0  0  0
   46.5220   32.0760   45.3800 C   0  0  0  0  0  0  0  0  0  0  0  0
   46.4500   32.8260   46.5370 C   0  0  0  0  0  0  0  0  0  0  0  0
   45.9490   32.2640   47.7000 C   0  0  0  0  0  0  0  0  0  0  0  0
   45.7310   32.6740   48.9830 N   0  0  0  0  0  0  0  0  0  0  0  0
   45.2050   31.6390   49.6820 C   0  0  0  0  0  0  0  0  0  0  0  0
   45.1000   30.5950   48.8210 N   0  0  0  0  0  0  0  0  0  0  0  0
   45.5460   30.9460   47.6090 C   0  0  0  0  0  0  0  0  0  0  0  0
   45.6060   30.1790   46.4750 C   0  0  0  0  0  0  0  0  0  0  0  0
   46.1720   30.1820   44.4080 H   0  0  0  0  0  0  0  0  0  0  0  0
   46.7730   33.8670   46.5940 H   0  0  0  0  0  0  0  0  0  0  0  0
   45.9590   33.6420   49.3050 H   0  0  0  0  0  0  0  0  0  0  0  0
   44.9300   31.6860   50.7460 H   0  0  0  0  0  0  0  0  0  0  0  0
   47.2110   34.5780   42.7630 C   0  0  0  0  0  0  0  0  0  0  0  0
   48.0730   33.8910   41.9130 C   0  0  0  0  0  0  0  0  0  0  0  0
   48.4170   32.5830   42.2290 C   0  0  0  0  0  0  0  0  0  0  0  0
   47.8900   32.0260   43.3700 N   0  0  0  0  0  0  0  0  0  0  0  0
   47.0580   32.7110   44.1780 C   0  0  0  0  0  0  0  0  0  0  0  0
   46.7240   33.9720   43.8750 N   0  0  0  0  0  0  0  0  0  0  0  0
   46.9200   35.5950   42.5500 H   0  0  0  0  0  0  0  0  0  0  0  0
   48.4580   34.3690   41.0340 H   0  0  0  0  0  0  0  0  0  0  0  0
   49.0810   31.9980   41.6090 H   0  0  0  0  0  0  0  0  0  0  0  0
   45.1500   28.7820   46.4840 C   0  0  0  0  0  0  0  0  0  0  0  0
   43.9240   28.3580   46.0010 C   0  0  0  0  0  0  0  0  0  0  0  0
   43.9480   26.9780   46.2210 C   0  0  0  0  0  0  0  0  0  0  0  0
   45.1660   26.6510   46.8150 C   0  0  0  0  0  0  0  0  0  0  0  0
   45.8440   27.7720   46.9470 O   0  0  0  0  0  0  0  0  0  0  0  0
   43.1150   28.9200   45.5550 H   0  0  0  0  0  0  0  0  0  0  0  0
   43.1800   26.2630   45.9870 H   0  0  0  0  0  0  0  0  0  0  0  0
   45.8100   25.2150   48.7590 C   0  0  2  0  0  0  0  0  0  0  0  0
   45.6770   25.3440   47.2410 C   0  0  1  0  0  0  0  0  0  0  0  0
   44.8140   24.2790   46.9880 O   0  0  0  0  0  0  0  0  0  0  0  0
   45.5140   23.2130   47.5550 C   0  0  0  0  0  0  0  0  0  0  0  0
   46.0860   23.7220   48.8580 C   0  0  2  0  0  0  0  0  0  0  0  0
   44.5530   25.4290   49.3570 O   0  0  0  0  0  0  0  0  0  0  0  0
   43.9990   24.6010   49.2990 H   0  0  0  0  0  0  0  0  0  0  0  0
   45.4840   23.1380   49.9650 O   0  0  0  0  0  0  0  0  0  0  0  0
   45.6710   23.7210   50.7450 H   0  0  0  0  0  0  0  0  0  0  0  0
  1  2  2  0  0  0  0
  1  9  1  0  0  0  0
  2  3  1  0  0  0  0
  3 11  1  0  0  0  0
  3  4  2  0  0  0  0
  4  5  1  0  0  0  0
  5 12  1  0  0  0  0
  5  6  1  0  0  0  0
  6 13  1  0  0  0  0
  7  6  2  0  0  0  0
  8  4  1  0  0  0  0
  8  7  1  0  0  0  0
  9 23  1  0  0  0  0
  9  8  2  0  0  0  0
 10  1  1  0  0  0  0
 14 19  1  0  0  0  0
 15 16  1  0  0  0  0
 15 14  2  0  0  0  0
 16 17  2  0  0  0  0
 17 18  1  0  0  0  0
 18  2  1  0  0  0  0
 19 18  2  0  0  0  0
 20 14  1  0  0  0  0
 21 15  1  0  0  0  0
 22 16  1  0  0  0  0
 23 27  1  0  0  0  0
 24 25  1  0  0  0  0
 24 23  2  0  0  0  0
 25 26  2  0  0  0  0
 26 27  1  0  0  0  0
 28 24  1  0  0  0  0
 29 25  1  0  0  0  0
 30 34  1  0  0  0  0
 30 35  1  1  0  0  0
 31 26  1  1  0  0  0
 31 30  1  0  0  0  0
 32 31  1  0  0  0  0
 32 33  1  0  0  0  0
 33 34  1  0  0  0  0
 34 37  1  1  0  0  0
 36 35  1  0  0  0  0
 37 38  1  0  0  0  0
M  END
>  <minimizedAffinity>
-6.42843723

>  <minimizedRMSD>
2.3986187

$$$$
