
 OpenBabel03242523463D

 19 20  0  0  1  0  0  0  0  0999 V2000
   44.9810   35.4270   44.1300 C   0  0  0  0  0  0  0  0  0  0  0  0
   45.9680   35.0650   43.1970 C   0  0  0  0  0  0  0  0  0  0  0  0
   46.8480   34.0360   43.5580 C   0  0  0  0  0  0  0  0  0  0  0  0
   46.7090   33.4410   44.7790 N   0  0  0  0  0  0  0  0  0  0  0  0
   45.7440   33.8260   45.6400 C   0  0  0  0  0  0  0  0  0  0  0  0
   44.8940   34.8010   45.3220 N   0  0  0  0  0  0  0  0  0  0  0  0
   46.0970   35.5190   42.2310 H   0  0  0  0  0  0  0  0  0  0  0  0
   45.6940   33.3040   46.5970 H   0  0  0  0  0  0  0  0  0  0  0  0
   49.2210   34.3160   42.8100 C   0  0  1  0  0  0  0  0  0  0  0  0
   47.9270   33.5320   42.7200 C   0  0  1  0  0  0  0  0  0  0  0  0
   48.3700   32.2780   43.1250 O   0  0  0  0  0  0  0  0  0  0  0  0
   49.5350   32.0240   42.4290 C   0  0  0  0  0  0  0  0  0  0  0  0
   50.1420   33.3510   42.0560 C   0  0  2  0  0  0  0  0  0  0  0  0
   49.1660   35.5470   42.1800 O   0  0  0  0  0  0  0  0  0  0  0  0
   49.6880   36.2560   42.6710 H   0  0  0  0  0  0  0  0  0  0  0  0
   51.4560   33.4820   42.4580 O   0  0  0  0  0  0  0  0  0  0  0  0
   52.0310   33.8520   41.7330 H   0  0  0  0  0  0  0  0  0  0  0  0
   44.1250   36.4290   43.7770 O   0  0  0  0  0  0  0  0  0  0  0  0
   44.4960   37.2140   43.2560 H   0  0  0  0  0  0  0  0  0  0  0  0
  1  6  1  0  0  0  0
  2  3  1  0  0  0  0
  2  1  2  0  0  0  0
  3  4  2  0  0  0  0
  4  5  1  0  0  0  0
  5  8  1  0  0  0  0
  6  5  2  0  0  0  0
  7  2  1  0  0  0  0
  9 14  1  6  0  0  0
 10  9  1  0  0  0  0
 10 11  1  0  0  0  0
 10  3  1  1  0  0  0
 12 11  1  0  0  0  0
 13 12  1  0  0  0  0
 13 16  1  1  0  0  0
 13  9  1  0  0  0  0
 14 15  1  0  0  0  0
 17 16  1  0  0  0  0
 18  1  1  0  0  0  0
 19 18  1  0  0  0  0
M  END
>  <minimizedAffinity>
-5.01254606

>  <minimizedRMSD>
0.749211609

$$$$
