
 OpenBabel03252501563D

 21 22  0  0  1  0  0  0  0  0999 V2000
   37.6800   25.9420   42.0510 C   0  0  0  0  0  0  0  0  0  0  0  0
   37.3050   27.2380   42.3730 C   0  0  0  0  0  0  0  0  0  0  0  0
   37.6830   28.2620   41.5140 C   0  0  0  0  0  0  0  0  0  0  0  0
   38.3920   27.9420   40.4150 N   0  0  0  0  0  0  0  0  0  0  0  0
   38.7460   26.6830   40.1180 C   0  0  0  0  0  0  0  0  0  0  0  0
   38.3960   25.6660   40.9300 N   0  0  0  0  0  0  0  0  0  0  0  0
   37.4450   25.0620   42.6420 H   0  0  0  0  0  0  0  0  0  0  0  0
   39.3230   26.5410   39.1950 H   0  0  0  0  0  0  0  0  0  0  0  0
   36.5860   30.3880   40.8080 C   0  0  2  0  0  3  0  0  0  0  0  0
   37.2560   29.6240   41.9090 C   0  0  2  0  0  3  0  0  0  0  0  0
   38.4540   30.3290   42.1700 O   0  0  0  0  0  0  0  0  0  0  0  0
   38.8560   30.8730   40.9580 C   0  0  0  0  0  2  0  0  0  0  0  0
   37.5920   31.3730   40.2810 C   0  0  2  0  0  3  0  0  0  0  0  0
   35.5150   31.0840   41.3930 O   0  0  0  0  0  0  0  0  0  0  0  0
   35.8090   31.6280   42.1530 H   0  0  0  0  0  0  0  0  0  0  0  0
   37.2790   32.6910   40.6430 O   0  0  0  0  0  0  0  0  0  0  0  0
   38.1220   33.1230   40.9320 H   0  0  0  0  0  0  0  0  0  0  0  0
   36.5230   27.3890   43.6330 C   0  0  0  0  0  0  0  0  0  0  0  0
   35.8490   28.2620   43.6310 H   0  0  0  0  0  0  0  0  0  0  0  0
   37.1370   27.3860   44.5400 H   0  0  0  0  0  0  0  0  0  0  0  0
   35.8270   26.5030   43.7170 H   0  0  0  0  0  0  0  0  0  0  0  0
  1  2  1  0  0  0  0
  1  7  1  0  0  0  0
  2 18  1  0  0  0  0
  3  2  2  0  0  0  0
  4  3  1  0  0  0  0
  5  4  2  0  0  0  0
  5  6  1  0  0  0  0
  6  1  2  0  0  0  0
  8  5  1  0  0  0  0
  9 14  1  1  0  0  0
  9 10  1  0  0  0  0
 10  3  1  6  0  0  0
 10 11  1  0  0  0  0
 12 11  1  0  0  0  0
 13 16  1  1  0  0  0
 13  9  1  0  0  0  0
 13 12  1  0  0  0  0
 14 15  1  0  0  0  0
 16 17  1  0  0  0  0
 18 21  1  0  0  0  0
 18 20  1  0  0  0  0
 19 18  1  0  0  0  0
M  END
>  <minimizedAffinity>
-5.09865141

$$$$

 OpenBabel03252501563D

 21 22  0  0  1  0  0  0  0  0999 V2000
   38.4660   28.7370   43.2510 C   0  0  0  0  0  0  0  0  0  0  0  0
   38.6810   29.8920   42.5150 C   0  0  0  0  0  0  0  0  0  0  0  0
   37.7830   30.1990   41.5010 C   0  0  0  0  0  0  0  0  0  0  0  0
   36.7520   29.3600   41.2860 N   0  0  0  0  0  0  0  0  0  0  0  0
   36.5590   28.2460   42.0080 C   0  0  0  0  0  0  0  0  0  0  0  0
   37.4100   27.9180   43.0000 N   0  0  0  0  0  0  0  0  0  0  0  0
   39.0960   28.3920   44.0660 H   0  0  0  0  0  0  0  0  0  0  0  0
   35.6840   27.6380   41.7440 H   0  0  0  0  0  0  0  0  0  0  0  0
   36.9080   31.9220   39.9230 C   0  0  2  0  0  3  0  0  0  0  0  0
   38.0640   31.4440   40.7480 C   0  0  2  0  0  3  0  0  0  0  0  0
   39.0640   31.0940   39.8110 O   0  0  0  0  0  0  0  0  0  0  0  0
   38.3970   30.6360   38.6830 C   0  0  0  0  0  2  0  0  0  0  0  0
   37.2050   31.5570   38.4960 C   0  0  2  0  0  3  0  0  0  0  0  0
   36.8740   33.3210   40.0490 O   0  0  0  0  0  0  0  0  0  0  0  0
   37.7380   33.7260   39.8230 H   0  0  0  0  0  0  0  0  0  0  0  0
   37.5170   32.6820   37.7180 O   0  0  0  0  0  0  0  0  0  0  0  0
   38.2960   32.4420   37.1560 H   0  0  0  0  0  0  0  0  0  0  0  0
   39.8780   30.6910   42.9040 C   0  0  0  0  0  0  0  0  0  0  0  0
   39.7790   31.7670   42.6850 H   0  0  0  0  0  0  0  0  0  0  0  0
   40.8190   30.3060   42.4970 H   0  0  0  0  0  0  0  0  0  0  0  0
   39.9740   30.6440   44.0280 H   0  0  0  0  0  0  0  0  0  0  0  0
  1  7  1  0  0  0  0
  2 18  1  0  0  0  0
  2  1  2  0  0  0  0
  3  2  1  0  0  0  0
  4  3  2  0  0  0  0
  4  5  1  0  0  0  0
  5  6  2  0  0  0  0
  6  1  1  0  0  0  0
  8  5  1  0  0  0  0
  9 14  1  6  0  0  0
  9 10  1  0  0  0  0
 10  3  1  6  0  0  0
 11 10  1  0  0  0  0
 12 11  1  0  0  0  0
 13 16  1  6  0  0  0
 13 12  1  0  0  0  0
 13  9  1  0  0  0  0
 15 14  1  0  0  0  0
 17 16  1  0  0  0  0
 18 21  1  0  0  0  0
 19 18  1  0  0  0  0
 20 18  1  0  0  0  0
M  END
>  <minimizedAffinity>
-4.67166519

$$$$

 OpenBabel03252501563D

 21 22  0  0  1  0  0  0  0  0999 V2000
   39.0650   24.0780   42.1300 C   0  0  0  0  0  0  0  0  0  0  0  0
   38.0050   24.9610   41.9840 C   0  0  0  0  0  0  0  0  0  0  0  0
   38.0760   26.1830   42.6390 C   0  0  0  0  0  0  0  0  0  0  0  0
   39.1690   26.4470   43.3800 N   0  0  0  0  0  0  0  0  0  0  0  0
   40.1860   25.5830   43.5100 C   0  0  0  0  0  0  0  0  0  0  0  0
   40.1500   24.3880   42.8880 N   0  0  0  0  0  0  0  0  0  0  0  0
   39.1260   23.0970   41.6700 H   0  0  0  0  0  0  0  0  0  0  0  0
   41.0250   25.9060   44.1390 H   0  0  0  0  0  0  0  0  0  0  0  0
   37.1510   28.1630   41.4350 C   0  0  2  0  0  3  0  0  0  0  0  0
   36.9150   27.0830   42.4470 C   0  0  2  0  0  3  0  0  0  0  0  0
   36.7620   27.7610   43.6790 O   0  0  0  0  0  0  0  0  0  0  0  0
   37.5690   28.8880   43.6060 C   0  0  0  0  0  2  0  0  0  0  0  0
   37.4040   29.4330   42.1980 C   0  0  2  0  0  3  0  0  0  0  0  0
   35.9630   28.2910   40.6970 O   0  0  0  0  0  0  0  0  0  0  0  0
   35.1880   28.4340   41.2800 H   0  0  0  0  0  0  0  0  0  0  0  0
   36.3310   30.3310   42.0970 O   0  0  0  0  0  0  0  0  0  0  0  0
   36.1740   30.7020   43.0010 H   0  0  0  0  0  0  0  0  0  0  0  0
   36.8850   24.4850   41.1230 C   0  0  0  0  0  0  0  0  0  0  0  0
   36.3280   25.3030   40.6350 H   0  0  0  0  0  0  0  0  0  0  0  0
   36.1940   23.8040   41.6290 H   0  0  0  0  0  0  0  0  0  0  0  0
   37.3320   23.9050   40.2630 H   0  0  0  0  0  0  0  0  0  0  0  0
  1  6  1  0  0  0  0
  2  1  2  0  0  0  0
  2  3  1  0  0  0  0
  3  4  2  0  0  0  0
  4  5  1  0  0  0  0
  5  8  1  0  0  0  0
  6  5  2  0  0  0  0
  7  1  1  0  0  0  0
  9 14  1  6  0  0  0
  9 13  1  0  0  0  0
  9 10  1  0  0  0  0
 10  3  1  1  0  0  0
 10 11  1  0  0  0  0
 12 11  1  0  0  0  0
 13 16  1  1  0  0  0
 13 12  1  0  0  0  0
 14 15  1  0  0  0  0
 16 17  1  0  0  0  0
 18 20  1  0  0  0  0
 18  2  1  0  0  0  0
 19 18  1  0  0  0  0
 21 18  1  0  0  0  0
M  END
>  <minimizedAffinity>
-4.57760954

$$$$

 OpenBabel03252501563D

 21 22  0  0  1  0  0  0  0  0999 V2000
   35.6320   28.8500   36.2580 C   0  0  0  0  0  0  0  0  0  0  0  0
   35.2050   28.9860   37.5710 C   0  0  0  0  0  0  0  0  0  0  0  0
   36.1460   29.3190   38.5350 C   0  0  0  0  0  0  0  0  0  0  0  0
   37.4230   29.4940   38.1460 N   0  0  0  0  0  0  0  0  0  0  0  0
   37.8200   29.3590   36.8720 C   0  0  0  0  0  0  0  0  0  0  0  0
   36.9330   29.0360   35.9110 N   0  0  0  0  0  0  0  0  0  0  0  0
   34.9930   28.5920   35.4190 H   0  0  0  0  0  0  0  0  0  0  0  0
   38.8860   29.5250   36.6720 H   0  0  0  0  0  0  0  0  0  0  0  0
   36.4820   30.3160   40.7970 C   0  0  2  0  0  3  0  0  0  0  0  0
   35.6320   29.4490   39.9180 C   0  0  2  0  0  3  0  0  0  0  0  0
   35.7300   28.1530   40.4750 O   0  0  0  0  0  0  0  0  0  0  0  0
   37.0020   28.0600   41.0230 C   0  0  0  0  0  2  0  0  0  0  0  0
   37.2730   29.3980   41.6870 C   0  0  2  0  0  3  0  0  0  0  0  0
   35.6020   31.0800   41.5820 O   0  0  0  0  0  0  0  0  0  0  0  0
   34.9570   30.5160   42.0570 H   0  0  0  0  0  0  0  0  0  0  0  0
   36.8250   29.4360   43.0150 O   0  0  0  0  0  0  0  0  0  0  0  0
   36.7930   28.5000   43.3390 H   0  0  0  0  0  0  0  0  0  0  0  0
   33.7510   28.7510   37.8020 C   0  0  0  0  0  0  0  0  0  0  0  0
   33.3490   29.3040   38.6680 H   0  0  0  0  0  0  0  0  0  0  0  0
   33.4760   27.6930   37.8660 H   0  0  0  0  0  0  0  0  0  0  0  0
   33.1870   29.1740   36.9190 H   0  0  0  0  0  0  0  0  0  0  0  0
  1  2  1  0  0  0  0
  2 18  1  0  0  0  0
  2  3  2  0  0  0  0
  4  3  1  0  0  0  0
  5  4  2  0  0  0  0
  6  1  2  0  0  0  0
  6  5  1  0  0  0  0
  7  1  1  0  0  0  0
  8  5  1  0  0  0  0
  9 14  1  1  0  0  0
  9 13  1  0  0  0  0
 10  3  1  6  0  0  0
 10 11  1  0  0  0  0
 10  9  1  0  0  0  0
 11 12  1  0  0  0  0
 12 13  1  0  0  0  0
 13 16  1  1  0  0  0
 14 15  1  0  0  0  0
 16 17  1  0  0  0  0
 18 20  1  0  0  0  0
 18 19  1  0  0  0  0
 21 18  1  0  0  0  0
M  END
>  <minimizedAffinity>
-4.57343149

$$$$

 OpenBabel03252501563D

 21 22  0  0  1  0  0  0  0  0999 V2000
   37.6610   30.1300   41.4100 C   0  0  0  0  0  0  0  0  0  0  0  0
   37.8440   30.9630   40.3160 C   0  0  0  0  0  0  0  0  0  0  0  0
   39.0030   31.7260   40.2610 C   0  0  0  0  0  0  0  0  0  0  0  0
   39.8860   31.6180   41.2710 N   0  0  0  0  0  0  0  0  0  0  0  0
   39.6940   30.8070   42.3220 C   0  0  0  0  0  0  0  0  0  0  0  0
   38.5810   30.0520   42.4070 N   0  0  0  0  0  0  0  0  0  0  0  0
   36.7990   29.4870   41.5650 H   0  0  0  0  0  0  0  0  0  0  0  0
   40.4820   30.8010   43.0850 H   0  0  0  0  0  0  0  0  0  0  0  0
   40.0530   32.0370   38.0200 C   0  0  2  0  0  3  0  0  0  0  0  0
   39.1430   32.5970   39.0710 C   0  0  2  0  0  3  0  0  0  0  0  0
   39.7930   33.7630   39.5370 O   0  0  0  0  0  0  0  0  0  0  0  0
   41.1550   33.5140   39.4390 C   0  0  0  0  0  2  0  0  0  0  0  0
   41.3550   32.7800   38.1250 C   0  0  2  0  0  3  0  0  0  0  0  0
   39.4560   32.3170   36.7790 O   0  0  0  0  0  0  0  0  0  0  0  0
   39.2520   33.2700   36.6820 H   0  0  0  0  0  0  0  0  0  0  0  0
   41.5510   33.6570   37.0480 O   0  0  0  0  0  0  0  0  0  0  0  0
   41.8980   34.5060   37.4220 H   0  0  0  0  0  0  0  0  0  0  0  0
   36.7520   30.9440   39.3020 C   0  0  0  0  0  0  0  0  0  0  0  0
   37.0940   31.1910   38.2820 H   0  0  0  0  0  0  0  0  0  0  0  0
   35.8850   31.5570   39.5700 H   0  0  0  0  0  0  0  0  0  0  0  0
   36.3770   29.8810   39.2170 H   0  0  0  0  0  0  0  0  0  0  0  0
  1  7  1  0  0  0  0
  1  6  1  0  0  0  0
  2  1  2  0  0  0  0
  3  2  1  0  0  0  0
  3  4  2  0  0  0  0
  4  5  1  0  0  0  0
  5  6  2  0  0  0  0
  5  8  1  0  0  0  0
  9 14  1  6  0  0  0
  9 13  1  0  0  0  0
  9 10  1  0  0  0  0
 10 11  1  0  0  0  0
 10  3  1  1  0  0  0
 12 11  1  0  0  0  0
 13 16  1  6  0  0  0
 13 12  1  0  0  0  0
 15 14  1  0  0  0  0
 16 17  1  0  0  0  0
 18 20  1  0  0  0  0
 18  2  1  0  0  0  0
 19 18  1  0  0  0  0
 21 18  1  0  0  0  0
M  END
>  <minimizedAffinity>
-4.46520519

$$$$

 OpenBabel03252501563D

 21 22  0  0  1  0  0  0  0  0999 V2000
   36.1830   28.2530   38.1240 C   0  0  0  0  0  0  0  0  0  0  0  0
   36.0660   29.3250   38.9960 C   0  0  0  0  0  0  0  0  0  0  0  0
   37.0130   30.3370   38.9220 C   0  0  0  0  0  0  0  0  0  0  0  0
   37.9950   30.2250   38.0070 N   0  0  0  0  0  0  0  0  0  0  0  0
   38.0940   29.1810   37.1710 C   0  0  0  0  0  0  0  0  0  0  0  0
   37.1920   28.1820   37.2160 N   0  0  0  0  0  0  0  0  0  0  0  0
   35.5070   27.4040   38.0870 H   0  0  0  0  0  0  0  0  0  0  0  0
   38.9360   29.1960   36.4670 H   0  0  0  0  0  0  0  0  0  0  0  0
   37.6250   32.6800   39.5230 C   0  0  2  0  0  3  0  0  0  0  0  0
   36.8380   31.4550   39.8780 C   0  0  2  0  0  3  0  0  0  0  0  0
   37.3980   30.9970   41.0930 O   0  0  0  0  0  0  0  0  0  0  0  0
   38.7450   31.3280   41.0500 C   0  0  0  0  0  2  0  0  0  0  0  0
   38.8180   32.7150   40.4370 C   0  0  2  0  0  3  0  0  0  0  0  0
   36.7990   33.7830   39.7930 O   0  0  0  0  0  0  0  0  0  0  0  0
   36.4570   33.7640   40.7110 H   0  0  0  0  0  0  0  0  0  0  0  0
   38.7140   33.7290   41.4000 O   0  0  0  0  0  0  0  0  0  0  0  0
   39.0040   33.3430   42.2650 H   0  0  0  0  0  0  0  0  0  0  0  0
   34.9100   29.2670   39.9370 C   0  0  0  0  0  0  0  0  0  0  0  0
   34.5510   30.2610   40.2530 H   0  0  0  0  0  0  0  0  0  0  0  0
   35.0800   28.6290   40.8100 H   0  0  0  0  0  0  0  0  0  0  0  0
   34.0340   28.8200   39.3810 H   0  0  0  0  0  0  0  0  0  0  0  0
  1  2  1  0  0  0  0
  2 18  1  0  0  0  0
  3  2  2  0  0  0  0
  4  3  1  0  0  0  0
  5  6  1  0  0  0  0
  5  4  2  0  0  0  0
  6  1  2  0  0  0  0
  7  1  1  0  0  0  0
  8  5  1  0  0  0  0
  9 14  1  1  0  0  0
  9 10  1  0  0  0  0
  9 13  1  0  0  0  0
 10  3  1  6  0  0  0
 10 11  1  0  0  0  0
 12 11  1  0  0  0  0
 13 12  1  0  0  0  0
 13 16  1  1  0  0  0
 14 15  1  0  0  0  0
 16 17  1  0  0  0  0
 18 19  1  0  0  0  0
 18 20  1  0  0  0  0
 21 18  1  0  0  0  0
M  END
>  <minimizedAffinity>
-4.43001127

$$$$

 OpenBabel03252501563D

 21 22  0  0  1  0  0  0  0  0999 V2000
   39.8000   32.0110   37.5800 C   0  0  0  0  0  0  0  0  0  0  0  0
   38.6170   31.4410   38.0260 C   0  0  0  0  0  0  0  0  0  0  0  0
   38.5070   31.1310   39.3750 C   0  0  0  0  0  0  0  0  0  0  0  0
   39.5550   31.3990   40.1780 N   0  0  0  0  0  0  0  0  0  0  0  0
   40.6920   31.9510   39.7300 C   0  0  0  0  0  0  0  0  0  0  0  0
   40.8320   32.2650   38.4270 N   0  0  0  0  0  0  0  0  0  0  0  0
   40.0040   32.2960   36.5530 H   0  0  0  0  0  0  0  0  0  0  0  0
   41.4780   32.1240   40.4760 H   0  0  0  0  0  0  0  0  0  0  0  0
   36.9660   30.6130   41.2670 C   0  0  2  0  0  3  0  0  0  0  0  0
   37.2220   30.5240   39.7930 C   0  0  2  0  0  3  0  0  0  0  0  0
   37.3590   29.1410   39.5270 O   0  0  0  0  0  0  0  0  0  0  0  0
   37.9230   28.5800   40.6640 C   0  0  0  0  0  2  0  0  0  0  0  0
   37.2480   29.2550   41.8450 C   0  0  2  0  0  3  0  0  0  0  0  0
   35.6020   30.9110   41.4220 O   0  0  0  0  0  0  0  0  0  0  0  0
   35.0350   30.2720   40.9420 H   0  0  0  0  0  0  0  0  0  0  0  0
   36.0740   28.5940   42.2370 O   0  0  0  0  0  0  0  0  0  0  0  0
   36.1520   27.6550   41.9330 H   0  0  0  0  0  0  0  0  0  0  0  0
   37.5740   31.2210   36.9840 C   0  0  0  0  0  0  0  0  0  0  0  0
   36.5450   31.2410   37.3800 H   0  0  0  0  0  0  0  0  0  0  0  0
   37.7320   30.3210   36.3810 H   0  0  0  0  0  0  0  0  0  0  0  0
   37.6120   32.0940   36.2680 H   0  0  0  0  0  0  0  0  0  0  0  0
  1  2  2  0  0  0  0
  1  6  1  0  0  0  0
  2  3  1  0  0  0  0
  3  4  2  0  0  0  0
  5  4  1  0  0  0  0
  5  8  1  0  0  0  0
  6  5  2  0  0  0  0
  7  1  1  0  0  0  0
  9 14  1  6  0  0  0
  9 13  1  0  0  0  0
 10  3  1  1  0  0  0
 10  9  1  0  0  0  0
 11 10  1  0  0  0  0
 11 12  1  0  0  0  0
 12 13  1  0  0  0  0
 13 16  1  6  0  0  0
 15 14  1  0  0  0  0
 17 16  1  0  0  0  0
 18 19  1  0  0  0  0
 18  2  1  0  0  0  0
 20 18  1  0  0  0  0
 21 18  1  0  0  0  0
M  END
>  <minimizedAffinity>
-4.3514924

$$$$

 OpenBabel03252501563D

 21 22  0  0  1  0  0  0  0  0999 V2000
   40.7850   32.8150   40.1930 C   0  0  0  0  0  0  0  0  0  0  0  0
   39.4000   32.8190   40.2600 C   0  0  0  0  0  0  0  0  0  0  0  0
   38.7360   31.6030   40.1830 C   0  0  0  0  0  0  0  0  0  0  0  0
   39.4720   30.4830   40.0470 N   0  0  0  0  0  0  0  0  0  0  0  0
   40.8110   30.4950   39.9840 C   0  0  0  0  0  0  0  0  0  0  0  0
   41.4870   31.6590   40.0560 N   0  0  0  0  0  0  0  0  0  0  0  0
   41.4140   33.6990   40.2420 H   0  0  0  0  0  0  0  0  0  0  0  0
   41.3050   29.5210   39.8730 H   0  0  0  0  0  0  0  0  0  0  0  0
   36.6440   30.5530   41.0470 C   0  0  2  0  0  3  0  0  0  0  0  0
   37.2580   31.6700   40.2590 C   0  0  2  0  0  3  0  0  0  0  0  0
   36.8080   31.4750   38.9320 O   0  0  0  0  0  0  0  0  0  0  0  0
   36.6750   30.1040   38.7640 C   0  0  0  0  0  2  0  0  0  0  0  0
   36.0720   29.5780   40.0550 C   0  0  2  0  0  3  0  0  0  0  0  0
   35.6010   31.1170   41.8000 O   0  0  0  0  0  0  0  0  0  0  0  0
   34.9750   31.6160   41.2360 H   0  0  0  0  0  0  0  0  0  0  0  0
   34.6700   29.6040   40.0390 O   0  0  0  0  0  0  0  0  0  0  0  0
   34.3890   29.5840   39.0900 H   0  0  0  0  0  0  0  0  0  0  0  0
   38.7670   34.1610   40.4100 C   0  0  0  0  0  0  0  0  0  0  0  0
   37.7930   34.1330   40.9270 H   0  0  0  0  0  0  0  0  0  0  0  0
   38.6820   34.7190   39.4720 H   0  0  0  0  0  0  0  0  0  0  0  0
   39.4240   34.7790   41.0900 H   0  0  0  0  0  0  0  0  0  0  0  0
  1  7  1  0  0  0  0
  1  2  1  0  0  0  0
  2 18  1  0  0  0  0
  3  2  2  0  0  0  0
  4  3  1  0  0  0  0
  5  4  2  0  0  0  0
  5  6  1  0  0  0  0
  6  1  2  0  0  0  0
  8  5  1  0  0  0  0
  9 14  1  1  0  0  0
 10  3  1  6  0  0  0
 10  9  1  0  0  0  0
 11 10  1  0  0  0  0
 12 11  1  0  0  0  0
 12 13  1  0  0  0  0
 13 16  1  6  0  0  0
 13  9  1  0  0  0  0
 15 14  1  0  0  0  0
 17 16  1  0  0  0  0
 18 19  1  0  0  0  0
 18 21  1  0  0  0  0
 20 18  1  0  0  0  0
M  END
>  <minimizedAffinity>
-4.25962734

$$$$

 OpenBabel03252501563D

 21 22  0  0  1  0  0  0  0  0999 V2000
   39.3980   24.4360   41.0960 C   0  0  0  0  0  0  0  0  0  0  0  0
   39.2580   25.8100   41.2180 C   0  0  0  0  0  0  0  0  0  0  0  0
   37.9950   26.3190   41.4890 C   0  0  0  0  0  0  0  0  0  0  0  0
   36.9730   25.4520   41.6200 N   0  0  0  0  0  0  0  0  0  0  0  0
   37.1250   24.1250   41.4990 C   0  0  0  0  0  0  0  0  0  0  0  0
   38.3370   23.5980   41.2360 N   0  0  0  0  0  0  0  0  0  0  0  0
   40.3300   23.9210   40.8850 H   0  0  0  0  0  0  0  0  0  0  0  0
   36.2220   23.5150   41.6260 H   0  0  0  0  0  0  0  0  0  0  0  0
   36.6390   28.2710   42.2480 C   0  0  2  0  0  3  0  0  0  0  0  0
   37.9070   27.7930   41.6070 C   0  0  2  0  0  3  0  0  0  0  0  0
   37.8490   28.2700   40.2770 O   0  0  0  0  0  0  0  0  0  0  0  0
   36.5060   28.2800   39.9260 C   0  0  0  0  0  2  0  0  0  0  0  0
   35.7550   28.7830   41.1460 C   0  0  2  0  0  3  0  0  0  0  0  0
   36.9920   29.3340   43.0950 O   0  0  0  0  0  0  0  0  0  0  0  0
   37.4980   30.0240   42.6190 H   0  0  0  0  0  0  0  0  0  0  0  0
   35.6460   30.1820   41.1650 O   0  0  0  0  0  0  0  0  0  0  0  0
   35.7250   30.4940   40.2280 H   0  0  0  0  0  0  0  0  0  0  0  0
   40.5080   26.6030   41.0380 C   0  0  0  0  0  0  0  0  0  0  0  0
   40.5040   27.5610   41.5860 H   0  0  0  0  0  0  0  0  0  0  0  0
   40.7840   26.7660   39.9910 H   0  0  0  0  0  0  0  0  0  0  0  0
   41.3570   26.0220   41.5050 H   0  0  0  0  0  0  0  0  0  0  0  0
  1  2  2  0  0  0  0
  1  6  1  0  0  0  0
  2  3  1  0  0  0  0
  3  4  2  0  0  0  0
  5  4  1  0  0  0  0
  5  8  1  0  0  0  0
  6  5  2  0  0  0  0
  7  1  1  0  0  0  0
  9 14  1  1  0  0  0
 10  3  1  6  0  0  0
 10  9  1  0  0  0  0
 11 10  1  0  0  0  0
 12 11  1  0  0  0  0
 12 13  1  0  0  0  0
 13 16  1  6  0  0  0
 13  9  1  0  0  0  0
 15 14  1  0  0  0  0
 17 16  1  0  0  0  0
 18  2  1  0  0  0  0
 18 21  1  0  0  0  0
 18 19  1  0  0  0  0
 20 18  1  0  0  0  0
M  END
>  <minimizedAffinity>
-4.23882484

$$$$
