
 OpenBabel03252505533D

 33 35  0  0  1  0  0  0  0  0999 V2000
   47.3830   30.4450   47.6600 C   0  0  0  0  0  0  0  0  0  0  0  0
   48.0780   29.6430   46.7710 C   0  0  0  0  0  0  0  0  0  0  0  0
   49.2730   29.1080   47.1780 C   0  0  0  0  0  0  0  0  0  0  0  0
   49.7710   29.3410   48.3900 N   0  0  0  0  0  0  0  0  0  0  0  0
   49.0880   30.1230   49.2530 C   0  0  0  0  0  0  0  0  0  0  0  0
   47.8960   30.6760   48.8930 N   0  0  0  0  0  0  0  0  0  0  0  0
   47.5470   29.5500   45.8350 H   0  0  0  0  0  0  0  0  0  0  0  0
   49.7580   28.4940   46.4300 H   0  0  0  0  0  0  0  0  0  0  0  0
   50.3970   31.6560   50.5830 C   0  0  1  0  0  3  0  0  0  0  0  0
   49.7380   30.3140   50.5770 C   0  0  2  0  0  3  0  0  0  0  0  0
   50.6790   29.3440   50.8640 O   0  0  0  0  0  0  0  0  0  0  0  0
   51.8820   29.9710   51.1090 C   0  0  0  0  0  2  0  0  0  0  0  0
   51.5300   31.3870   51.5820 C   0  0  2  0  0  3  0  0  0  0  0  0
   50.9630   31.8890   49.3520 O   0  0  0  0  0  0  0  0  0  0  0  0
   50.7890   32.8120   49.0400 H   0  0  0  0  0  0  0  0  0  0  0  0
   51.0550   31.3640   52.8820 O   0  0  0  0  0  0  0  0  0  0  0  0
   50.8860   30.4290   53.2100 H   0  0  0  0  0  0  0  0  0  0  0  0
   46.0960   31.1530   47.5270 C   0  0  0  0  0  0  0  0  0  0  0  0
   45.5400   30.9870   48.4740 H   0  0  0  0  0  0  0  0  0  0  0  0
   45.4640   30.7550   46.7050 H   0  0  0  0  0  0  0  0  0  0  0  0
   46.3520   32.5270   47.4140 O   0  0  0  0  0  0  0  0  0  0  0  0
   45.0750   34.7690   44.9630 C   0  0  0  0  0  0  0  0  0  0  0  0
   45.8940   34.5550   43.8540 C   0  0  0  0  0  0  0  0  0  0  0  0
   46.9060   33.6050   43.9870 C   0  0  0  0  0  0  0  0  0  0  0  0
   47.0520   32.9460   45.1500 N   0  0  0  0  0  0  0  0  0  0  0  0
   46.2280   33.1920   46.1950 C   0  0  0  0  0  0  0  0  0  0  0  0
   45.2550   34.0880   46.1070 N   0  0  0  0  0  0  0  0  0  0  0  0
   44.2850   35.5070   44.8670 H   0  0  0  0  0  0  0  0  0  0  0  0
   47.5460   33.4380   43.1180 H   0  0  0  0  0  0  0  0  0  0  0  0
   45.6420   35.3430   42.6120 C   0  0  0  0  0  0  0  0  0  0  0  0
   45.4050   36.6290   43.0440 F   0  0  0  0  0  0  0  0  0  0  0  0
   44.4760   34.8180   42.0460 F   0  0  0  0  0  0  0  0  0  0  0  0
   46.7070   35.2230   41.7800 F   0  0  0  0  0  0  0  0  0  0  0  0
  1  6  1  0  0  0  0
  2  3  1  0  0  0  0
  2  1  2  0  0  0  0
  3  4  2  0  0  0  0
  4  5  1  0  0  0  0
  6  5  2  0  0  0  0
  7  2  1  0  0  0  0
  8  3  1  0  0  0  0
  9 14  1  6  0  0  0
  9 13  1  0  0  0  0
 10  5  1  6  0  0  0
 10  9  1  0  0  0  0
 10 11  1  0  0  0  0
 11 12  1  0  0  0  0
 12 13  1  0  0  0  0
 13 16  1  1  0  0  0
 15 14  1  0  0  0  0
 16 17  1  0  0  0  0
 18  1  1  0  0  0  0
 18 19  1  0  0  0  0
 20 18  1  0  0  0  0
 21 18  1  0  0  0  0
 22 27  1  0  0  0  0
 23 24  1  0  0  0  0
 23 22  2  0  0  0  0
 24 25  2  0  0  0  0
 25 26  1  0  0  0  0
 26 21  1  0  0  0  0
 27 26  2  0  0  0  0
 28 22  1  0  0  0  0
 29 24  1  0  0  0  0
 30 31  1  0  0  0  0
 30 23  1  0  0  0  0
 32 30  1  0  0  0  0
 33 30  1  0  0  0  0
M  END
>  <minimizedAffinity>
-5.84528065

>  <minimizedRMSD>
0.992160618

$$$$
