
 OpenBabel03242512073D

 27 29  0  0  1  0  0  0  0  0999 V2000
   44.7420   33.6840   41.1640 C   0  0  1  0  0  0  0  0  0  0  0  0
   46.1510   34.3120   40.8880 C   0  0  0  0  0  0  0  0  0  0  0  0
   45.1940   34.8370   41.9050 C   0  0  2  0  0  0  0  0  0  0  0  0
   44.9660   32.5940   41.3440 H   0  0  0  0  0  0  0  0  0  0  0  0
   47.0420   33.7630   41.1710 H   0  0  0  0  0  0  0  0  0  0  0  0
   46.2610   34.8860   39.9460 H   0  0  0  0  0  0  0  0  0  0  0  0
   44.7020   35.8010   41.6500 H   0  0  0  0  0  0  0  0  0  0  0  0
   44.6490   35.4740   44.2040 C   0  0  1  0  0  0  0  0  0  0  0  0
   45.6760   34.7490   43.3330 C   0  0  1  0  0  0  0  0  0  0  0  0
   45.6090   33.4690   43.8510 O   0  0  0  0  0  0  0  0  0  0  0  0
   45.4830   33.5620   45.2190 C   0  0  0  0  0  0  0  0  0  0  0  0
   45.1440   34.9870   45.5720 C   0  0  2  0  0  0  0  0  0  0  0  0
   44.6920   36.8350   44.0680 O   0  0  0  0  0  0  0  0  0  0  0  0
   43.8210   37.1300   43.6560 H   0  0  0  0  0  0  0  0  0  0  0  0
   44.1150   35.0950   46.5030 O   0  0  0  0  0  0  0  0  0  0  0  0
   44.0640   36.0600   46.7300 H   0  0  0  0  0  0  0  0  0  0  0  0
   43.8160   33.8380   40.0040 C   0  0  0  0  0  0  0  0  0  0  0  0
   44.2050   33.3810   38.9240 O   0  0  0  0  0  0  0  0  0  0  0  0
   42.0600   35.2500   39.0630 C   0  0  0  0  0  0  0  0  0  0  0  0
   42.5330   34.4620   40.0760 C   0  0  0  0  0  0  0  0  0  0  0  0
   41.7250   34.2580   41.2120 C   0  0  0  0  0  0  0  0  0  0  0  0
   40.5000   34.8510   41.2630 N   0  0  0  0  0  0  0  0  0  0  0  0
   40.0610   35.6260   40.2420 C   0  0  0  0  0  0  0  0  0  0  0  0
   40.8250   35.8160   39.1740 N   0  0  0  0  0  0  0  0  0  0  0  0
   42.6170   35.4560   38.1610 H   0  0  0  0  0  0  0  0  0  0  0  0
   42.1140   33.6260   42.0150 H   0  0  0  0  0  0  0  0  0  0  0  0
   39.0630   36.0800   40.3390 H   0  0  0  0  0  0  0  0  0  0  0  0
  1  4  1  1  0  0  0
  1  3  1  0  0  0  0
  2  1  1  0  0  0  0
  2  5  1  0  0  0  0
  2  3  1  0  0  0  0
  3  7  1  6  0  0  0
  3  9  1  0  0  0  0
  6  2  1  0  0  0  0
  8 13  1  1  0  0  0
  8 12  1  0  0  0  0
  9 10  1  1  0  0  0
  9  8  1  0  0  0  0
 10 11  1  0  0  0  0
 11 12  1  0  0  0  0
 12 15  1  1  0  0  0
 14 13  1  0  0  0  0
 15 16  1  0  0  0  0
 17 20  1  0  0  0  0
 17  1  1  0  0  0  0
 18 17  2  0  0  0  0
 19 24  2  0  0  0  0
 19 20  1  0  0  0  0
 20 21  2  0  0  0  0
 21 22  1  0  0  0  0
 21 26  1  0  0  0  0
 23 27  1  0  0  0  0
 23 22  2  0  0  0  0
 24 23  1  0  0  0  0
 25 19  1  0  0  0  0
M  END
>  <minimizedAffinity>
-5.49301481

>  <minimizedRMSD>
5.67791367

$$$$
