
 OpenBabel03252506553D

 38 42  0  0  1  0  0  0  0  0999 V2000
   47.3910   31.3610   45.2430 C   0  0  0  0  0  0  0  0  0  0  0  0
   46.9200   32.6530   45.1260 C   0  0  0  0  0  0  0  0  0  0  0  0
   46.2200   33.2920   46.1320 C   0  0  0  0  0  0  0  0  0  0  0  0
   45.9620   32.6360   47.3240 C   0  0  0  0  0  0  0  0  0  0  0  0
   45.3290   32.9290   48.4970 N   0  0  0  0  0  0  0  0  0  0  0  0
   45.4100   31.8480   49.3110 C   0  0  0  0  0  0  0  0  0  0  0  0
   46.0940   30.8930   48.6300 N   0  0  0  0  0  0  0  0  0  0  0  0
   46.4420   31.3460   47.4200 C   0  0  0  0  0  0  0  0  0  0  0  0
   47.1380   30.6870   46.4390 C   0  0  0  0  0  0  0  0  0  0  0  0
   47.9330   30.8710   44.4580 H   0  0  0  0  0  0  0  0  0  0  0  0
   45.8470   34.3140   46.0420 H   0  0  0  0  0  0  0  0  0  0  0  0
   44.8790   33.8560   48.6720 H   0  0  0  0  0  0  0  0  0  0  0  0
   44.9840   31.8020   50.3230 H   0  0  0  0  0  0  0  0  0  0  0  0
   46.5930   35.0960   42.3860 C   0  0  0  0  0  0  0  0  0  0  0  0
   47.6500   34.7490   41.5500 C   0  0  0  0  0  0  0  0  0  0  0  0
   48.4690   33.6900   41.9170 C   0  0  0  0  0  0  0  0  0  0  0  0
   48.1980   33.0310   43.0930 N   0  0  0  0  0  0  0  0  0  0  0  0
   47.1690   33.3850   43.8860 C   0  0  0  0  0  0  0  0  0  0  0  0
   46.3770   34.4060   43.5350 N   0  0  0  0  0  0  0  0  0  0  0  0
   45.9340   35.9130   42.1340 H   0  0  0  0  0  0  0  0  0  0  0  0
   47.8210   35.2940   40.6430 H   0  0  0  0  0  0  0  0  0  0  0  0
   49.3060   33.3730   41.3100 H   0  0  0  0  0  0  0  0  0  0  0  0
   47.6060   29.3100   46.6420 C   0  0  0  0  0  0  0  0  0  0  0  0
   48.9340   28.9190   46.5810 C   0  0  0  0  0  0  0  0  0  0  0  0
   48.8810   27.5470   46.8360 C   0  0  0  0  0  0  0  0  0  0  0  0
   47.5480   27.1890   47.0340 C   0  0  0  0  0  0  0  0  0  0  0  0
   46.8320   28.2870   46.9060 O   0  0  0  0  0  0  0  0  0  0  0  0
   49.8250   29.5000   46.3860 H   0  0  0  0  0  0  0  0  0  0  0  0
   49.7030   26.8560   46.8790 H   0  0  0  0  0  0  0  0  0  0  0  0
   45.4400   25.9000   47.4160 C   0  0  2  0  0  3  0  0  0  0  0  0
   46.9670   25.8760   47.3310 C   0  0  1  0  0  3  0  0  0  0  0  0
   47.1330   24.9320   46.3190 O   0  0  0  0  0  0  0  0  0  0  0  0
   46.4310   23.8420   46.8370 C   0  0  0  0  0  2  0  0  0  0  0  0
   45.1710   24.4020   47.4590 C   0  0  2  0  0  3  0  0  0  0  0  0
   44.9130   26.3660   46.1980 O   0  0  0  0  0  0  0  0  0  0  0  0
   44.9000   25.6300   45.5230 H   0  0  0  0  0  0  0  0  0  0  0  0
   44.0280   24.0430   46.7540 O   0  0  0  0  0  0  0  0  0  0  0  0
   43.3110   24.6750   47.0160 H   0  0  0  0  0  0  0  0  0  0  0  0
  1  9  1  0  0  0  0
  2  1  2  0  0  0  0
  2  3  1  0  0  0  0
  3  4  2  0  0  0  0
  4  8  1  0  0  0  0
  4  5  1  0  0  0  0
  5 12  1  0  0  0  0
  5  6  1  0  0  0  0
  6 13  1  0  0  0  0
  7  6  2  0  0  0  0
  8  7  1  0  0  0  0
  9 23  1  0  0  0  0
  9  8  2  0  0  0  0
 10  1  1  0  0  0  0
 11  3  1  0  0  0  0
 14 19  1  0  0  0  0
 15 16  1  0  0  0  0
 15 14  2  0  0  0  0
 16 17  2  0  0  0  0
 17 18  1  0  0  0  0
 18  2  1  0  0  0  0
 19 18  2  0  0  0  0
 20 14  1  0  0  0  0
 21 15  1  0  0  0  0
 22 16  1  0  0  0  0
 23 27  1  0  0  0  0
 24 23  2  0  0  0  0
 24 25  1  0  0  0  0
 25 29  1  0  0  0  0
 25 26  2  0  0  0  0
 27 26  1  0  0  0  0
 28 24  1  0  0  0  0
 30 35  1  6  0  0  0
 30 34  1  0  0  0  0
 31 26  1  6  0  0  0
 31 30  1  0  0  0  0
 32 33  1  0  0  0  0
 32 31  1  0  0  0  0
 33 34  1  0  0  0  0
 34 37  1  6  0  0  0
 36 35  1  0  0  0  0
 37 38  1  0  0  0  0
M  END
>  <minimizedAffinity>
-5.60915041

>  <minimizedRMSD>
1.10085762

$$$$
