
 OpenBabel03252505153D

 25 27  0  0  1  0  0  0  0  0999 V2000
   44.7600   35.7380   44.8360 C   0  0  0  0  0  0  0  0  0  0  0  0
   45.3380   35.8950   43.5670 C   0  0  0  0  0  0  0  0  0  0  0  0
   46.0550   34.7910   43.1150 C   0  0  0  0  0  0  0  0  0  0  0  0
   46.1550   33.6620   43.8970 N   0  0  0  0  0  0  0  0  0  0  0  0
   45.5730   33.5750   45.1140 C   0  0  0  0  0  0  0  0  0  0  0  0
   44.8770   34.6300   45.5650 N   0  0  0  0  0  0  0  0  0  0  0  0
   44.2000   36.5570   45.2270 H   0  0  0  0  0  0  0  0  0  0  0  0
   45.2650   36.7680   42.9530 H   0  0  0  0  0  0  0  0  0  0  0  0
   46.7190   34.8080   41.7650 C   0  0  0  0  0  0  0  0  0  0  0  0
   48.1480   35.2980   41.8240 C   0  0  0  0  0  0  0  0  0  0  0  0
   47.7650   33.8290   41.4980 C   0  0  0  0  0  0  0  0  0  0  0  0
   46.0930   35.1810   40.9180 H   0  0  0  0  0  0  0  0  0  0  0  0
   48.4450   35.9230   40.9650 H   0  0  0  0  0  0  0  0  0  0  0  0
   48.5830   35.4960   42.8050 H   0  0  0  0  0  0  0  0  0  0  0  0
   47.9960   33.5280   40.4420 H   0  0  0  0  0  0  0  0  0  0  0  0
   48.0920   33.1200   42.2770 H   0  0  0  0  0  0  0  0  0  0  0  0
   45.5230   32.3100   47.2440 C   0  0  2  0  0  3  0  0  0  0  0  0
   45.8240   32.2590   45.7590 C   0  0  2  0  0  3  0  0  0  0  0  0
   47.1590   31.8980   45.6190 O   0  0  0  0  0  0  0  0  0  0  0  0
   47.5000   31.1800   46.7630 C   0  0  0  0  0  2  0  0  0  0  0  0
   46.9080   32.1040   47.8300 C   0  0  1  0  0  3  0  0  0  0  0  0
   44.7400   31.2300   47.6470 O   0  0  0  0  0  0  0  0  0  0  0  0
   43.8130   31.2860   47.2890 H   0  0  0  0  0  0  0  0  0  0  0  0
   47.5690   33.3270   47.7650 O   0  0  0  0  0  0  0  0  0  0  0  0
   48.5090   33.1360   47.4600 H   0  0  0  0  0  0  0  0  0  0  0  0
  1  7  1  0  0  0  0
  1  6  1  0  0  0  0
  2  1  2  0  0  0  0
  3  2  1  0  0  0  0
  3  4  2  0  0  0  0
  4  5  1  0  0  0  0
  5  6  2  0  0  0  0
  8  2  1  0  0  0  0
  9 10  1  0  0  0  0
  9  3  1  0  0  0  0
 10 14  1  0  0  0  0
 11  9  1  0  0  0  0
 11 10  1  0  0  0  0
 11 16  1  0  0  0  0
 12  9  1  0  0  0  0
 13 10  1  0  0  0  0
 15 11  1  0  0  0  0
 17 22  1  1  0  0  0
 17 21  1  0  0  0  0
 18  5  1  1  0  0  0
 18 17  1  0  0  0  0
 19 18  1  0  0  0  0
 19 20  1  0  0  0  0
 20 21  1  0  0  0  0
 21 24  1  6  0  0  0
 23 22  1  0  0  0  0
 25 24  1  0  0  0  0
M  END
>  <minimizedAffinity>
-5.33021545

>  <minimizedRMSD>
0.893140376

$$$$
