
 OpenBabel03252503403D

 21 22  0  0  1  0  0  0  0  0999 V2000
   44.6590   35.3730   45.1970 C   0  0  0  0  0  0  0  0  0  0  0  0
   45.3890   35.2280   44.0160 C   0  0  0  0  0  0  0  0  0  0  0  0
   46.2270   34.1180   43.9150 C   0  0  0  0  0  0  0  0  0  0  0  0
   46.2880   33.2510   44.9550 N   0  0  0  0  0  0  0  0  0  0  0  0
   45.5720   33.4210   46.0780 C   0  0  0  0  0  0  0  0  0  0  0  0
   44.7450   34.4870   46.2170 N   0  0  0  0  0  0  0  0  0  0  0  0
   43.9660   36.1940   45.4100 H   0  0  0  0  0  0  0  0  0  0  0  0
   46.7690   34.0440   42.9930 H   0  0  0  0  0  0  0  0  0  0  0  0
   47.1930   32.1290   47.4780 C   0  0  2  0  0  0  0  0  0  0  0  0
   45.7280   32.4140   47.1240 C   0  0  1  0  0  0  0  0  0  0  0  0
   45.2410   32.7950   48.3650 O   0  0  0  0  0  0  0  0  0  0  0  0
   45.7120   31.8630   49.2540 C   0  0  0  0  0  0  0  0  0  0  0  0
   46.9290   31.1940   48.6660 C   0  0  2  0  0  0  0  0  0  0  0  0
   47.7320   33.2770   48.0200 O   0  0  0  0  0  0  0  0  0  0  0  0
   48.4720   33.1120   48.6550 H   0  0  0  0  0  0  0  0  0  0  0  0
   48.0000   31.0970   49.5190 O   0  0  0  0  0  0  0  0  0  0  0  0
   48.1320   30.1390   49.7390 H   0  0  0  0  0  0  0  0  0  0  0  0
   45.1830   36.2810   43.0020 C   0  0  0  0  0  0  0  0  0  0  0  0
   44.1830   36.2390   42.5220 H   0  0  0  0  0  0  0  0  0  0  0  0
   45.4170   37.2850   43.4010 H   0  0  0  0  0  0  0  0  0  0  0  0
   45.8980   36.0770   42.1590 H   0  0  0  0  0  0  0  0  0  0  0  0
  1  7  1  0  0  0  0
  1  6  1  0  0  0  0
  2  1  2  0  0  0  0
  3  2  1  0  0  0  0
  3  4  2  0  0  0  0
  4  5  1  0  0  0  0
  5  6  2  0  0  0  0
  8  3  1  0  0  0  0
  9 14  1  1  0  0  0
  9 13  1  0  0  0  0
 10  5  1  6  0  0  0
 10  9  1  0  0  0  0
 10 11  1  0  0  0  0
 11 12  1  0  0  0  0
 13 12  1  0  0  0  0
 13 16  1  1  0  0  0
 14 15  1  0  0  0  0
 16 17  1  0  0  0  0
 18 20  1  0  0  0  0
 18  2  1  0  0  0  0
 19 18  1  0  0  0  0
 21 18  1  0  0  0  0
M  END
>  <minimizedAffinity>
-5.36057186

>  <minimizedRMSD>
1.28321826

$$$$
