
 OpenBabel03252506533D

 31 34  0  0  1  0  0  0  0  0999 V2000
   36.9150   30.3590   39.6170 C   0  0  0  0  0  0  0  0  0  0  0  0
   36.0030   29.3390   39.4570 C   0  0  0  0  0  0  0  0  0  0  0  0
   35.7550   28.4150   40.4610 C   0  0  0  0  0  0  0  0  0  0  0  0
   36.4270   28.4860   41.6800 C   0  0  0  0  0  0  0  0  0  0  0  0
   36.4430   27.7890   42.8390 N   0  0  0  0  0  0  0  0  0  0  0  0
   37.3400   28.3690   43.6800 C   0  0  0  0  0  0  0  0  0  0  0  0
   37.8720   29.4260   43.0250 N   0  0  0  0  0  0  0  0  0  0  0  0
   37.3280   29.5180   41.7950 C   0  0  0  0  0  0  0  0  0  0  0  0
   37.6030   30.4560   40.8260 C   0  0  0  0  0  0  0  0  0  0  0  0
   37.0660   31.0550   38.7900 H   0  0  0  0  0  0  0  0  0  0  0  0
   35.0410   27.6170   40.3390 H   0  0  0  0  0  0  0  0  0  0  0  0
   35.8400   26.9570   42.9910 H   0  0  0  0  0  0  0  0  0  0  0  0
   37.5440   28.0010   44.6800 H   0  0  0  0  0  0  0  0  0  0  0  0
   35.1300   29.1470   35.8870 C   0  0  0  0  0  0  0  0  0  0  0  0
   33.7540   28.8960   35.9330 C   0  0  0  0  0  0  0  0  0  0  0  0
   33.1330   28.7940   37.1850 C   0  0  0  0  0  0  0  0  0  0  0  0
   33.9310   28.9500   38.2810 N   0  0  0  0  0  0  0  0  0  0  0  0
   35.2580   29.1910   38.2170 C   0  0  0  0  0  0  0  0  0  0  0  0
   35.8560   29.2890   37.0250 N   0  0  0  0  0  0  0  0  0  0  0  0
   35.6720   29.2360   34.9500 H   0  0  0  0  0  0  0  0  0  0  0  0
   33.1940   28.7840   35.0110 H   0  0  0  0  0  0  0  0  0  0  0  0
   32.0890   28.6040   37.2630 H   0  0  0  0  0  0  0  0  0  0  0  0
   38.3380   32.6890   40.0730 C   0  0  2  0  0  3  0  0  0  0  0  0
   38.5760   31.5270   41.0230 C   0  0  2  0  0  3  0  0  0  0  0  0
   39.8740   31.1600   40.6730 O   0  0  0  0  0  0  0  0  0  0  0  0
   40.6020   32.3170   40.5450 C   0  0  0  0  0  2  0  0  0  0  0  0
   39.6400   33.4440   40.2610 C   0  0  1  0  0  3  0  0  0  0  0  0
   37.2260   33.4430   40.4020 O   0  0  0  0  0  0  0  0  0  0  0  0
   36.5190   33.1780   39.7390 H   0  0  0  0  0  0  0  0  0  0  0  0
   39.9880   34.1610   39.1210 O   0  0  0  0  0  0  0  0  0  0  0  0
   39.1340   34.3040   38.6160 H   0  0  0  0  0  0  0  0  0  0  0  0
  1  9  1  0  0  0  0
  2  1  2  0  0  0  0
  2  3  1  0  0  0  0
  3  4  2  0  0  0  0
  4  8  1  0  0  0  0
  4  5  1  0  0  0  0
  5 12  1  0  0  0  0
  5  6  1  0  0  0  0
  6 13  1  0  0  0  0
  7  6  2  0  0  0  0
  8  7  1  0  0  0  0
  9  8  2  0  0  0  0
 10  1  1  0  0  0  0
 11  3  1  0  0  0  0
 14 15  2  0  0  0  0
 14 19  1  0  0  0  0
 15 16  1  0  0  0  0
 16 22  1  0  0  0  0
 16 17  2  0  0  0  0
 18 17  1  0  0  0  0
 18  2  1  0  0  0  0
 19 18  2  0  0  0  0
 20 14  1  0  0  0  0
 21 15  1  0  0  0  0
 23 27  1  0  0  0  0
 23 28  1  1  0  0  0
 23 24  1  0  0  0  0
 24  9  1  6  0  0  0
 25 24  1  0  0  0  0
 26 25  1  0  0  0  0
 27 30  1  6  0  0  0
 27 26  1  0  0  0  0
 29 28  1  0  0  0  0
 31 30  1  0  0  0  0
M  END
>  <minimizedAffinity>
-6.31799269

$$$$

 OpenBabel03252506533D

 31 34  0  0  1  0  0  0  0  0999 V2000
   36.7460   25.9580   40.2620 C   0  0  0  0  0  0  0  0  0  0  0  0
   36.6540   24.5830   40.2610 C   0  0  0  0  0  0  0  0  0  0  0  0
   37.4370   23.7970   41.0920 C   0  0  0  0  0  0  0  0  0  0  0  0
   38.3560   24.3750   41.9660 C   0  0  0  0  0  0  0  0  0  0  0  0
   39.2500   23.9410   42.8830 N   0  0  0  0  0  0  0  0  0  0  0  0
   39.8700   25.0220   43.4260 C   0  0  0  0  0  0  0  0  0  0  0  0
   39.3470   26.1200   42.8330 N   0  0  0  0  0  0  0  0  0  0  0  0
   38.4150   25.7470   41.9320 C   0  0  0  0  0  0  0  0  0  0  0  0
   37.6570   26.5650   41.1260 C   0  0  0  0  0  0  0  0  0  0  0  0
   36.1030   26.5220   39.5840 H   0  0  0  0  0  0  0  0  0  0  0  0
   37.3650   22.7210   41.0940 H   0  0  0  0  0  0  0  0  0  0  0  0
   39.3870   22.9320   43.0870 H   0  0  0  0  0  0  0  0  0  0  0  0
   40.6360   24.9490   44.1920 H   0  0  0  0  0  0  0  0  0  0  0  0
   34.9170   23.3550   37.2570 C   0  0  0  0  0  0  0  0  0  0  0  0
   33.9040   22.5610   37.8070 C   0  0  0  0  0  0  0  0  0  0  0  0
   33.8210   22.4510   39.2010 C   0  0  0  0  0  0  0  0  0  0  0  0
   34.7500   23.1370   39.9280 N   0  0  0  0  0  0  0  0  0  0  0  0
   35.7200   23.8990   39.3810 C   0  0  0  0  0  0  0  0  0  0  0  0
   35.8050   24.0080   38.0510 N   0  0  0  0  0  0  0  0  0  0  0  0
   35.0370   23.4830   36.1850 H   0  0  0  0  0  0  0  0  0  0  0  0
   33.2060   22.0480   37.1540 H   0  0  0  0  0  0  0  0  0  0  0  0
   33.0660   21.8560   39.6580 H   0  0  0  0  0  0  0  0  0  0  0  0
   36.6060   28.6740   41.8590 C   0  0  2  0  0  3  0  0  0  0  0  0
   37.7780   28.0200   41.1470 C   0  0  2  0  0  3  0  0  0  0  0  0
   37.6760   28.5980   39.8830 O   0  0  0  0  0  0  0  0  0  0  0  0
   37.4320   29.9360   40.0670 C   0  0  0  0  0  2  0  0  0  0  0  0
   36.8200   30.1150   41.4340 C   0  0  1  0  0  3  0  0  0  0  0  0
   36.6390   28.5080   43.2320 O   0  0  0  0  0  0  0  0  0  0  0  0
   35.9500   27.8040   43.4320 H   0  0  0  0  0  0  0  0  0  0  0  0
   35.6220   30.8210   41.3890 O   0  0  0  0  0  0  0  0  0  0  0  0
   34.9910   30.3300   41.9930 H   0  0  0  0  0  0  0  0  0  0  0  0
  1  9  1  0  0  0  0
  2  1  2  0  0  0  0
  2  3  1  0  0  0  0
  3 11  1  0  0  0  0
  3  4  2  0  0  0  0
  4  5  1  0  0  0  0
  5 12  1  0  0  0  0
  5  6  1  0  0  0  0
  6 13  1  0  0  0  0
  7  6  2  0  0  0  0
  8  4  1  0  0  0  0
  8  7  1  0  0  0  0
  9  8  2  0  0  0  0
 10  1  1  0  0  0  0
 14 15  2  0  0  0  0
 14 19  1  0  0  0  0
 15 16  1  0  0  0  0
 16 22  1  0  0  0  0
 16 17  2  0  0  0  0
 18 17  1  0  0  0  0
 18  2  1  0  0  0  0
 19 18  2  0  0  0  0
 20 14  1  0  0  0  0
 21 15  1  0  0  0  0
 23 28  1  1  0  0  0
 24  9  1  6  0  0  0
 24 23  1  0  0  0  0
 25 26  1  0  0  0  0
 25 24  1  0  0  0  0
 26 27  1  0  0  0  0
 27 30  1  6  0  0  0
 27 23  1  0  0  0  0
 28 29  1  0  0  0  0
 30 31  1  0  0  0  0
M  END
>  <minimizedAffinity>
-6.09641743

$$$$

 OpenBabel03252506533D

 31 34  0  0  1  0  0  0  0  0999 V2000
   39.5130   29.8470   40.0750 C   0  0  0  0  0  0  0  0  0  0  0  0
   38.2960   29.6080   40.6770 C   0  0  0  0  0  0  0  0  0  0  0  0
   37.3490   30.6070   40.8340 C   0  0  0  0  0  0  0  0  0  0  0  0
   37.5950   31.9030   40.3850 C   0  0  0  0  0  0  0  0  0  0  0  0
   36.9340   33.0830   40.3680 N   0  0  0  0  0  0  0  0  0  0  0  0
   37.7260   34.0140   39.7740 C   0  0  0  0  0  0  0  0  0  0  0  0
   38.8780   33.3930   39.4270 N   0  0  0  0  0  0  0  0  0  0  0  0
   38.8200   32.0970   39.7920 C   0  0  0  0  0  0  0  0  0  0  0  0
   39.7880   31.1340   39.6160 C   0  0  0  0  0  0  0  0  0  0  0  0
   40.2170   29.0190   39.9810 H   0  0  0  0  0  0  0  0  0  0  0  0
   36.3960   30.4220   41.3040 H   0  0  0  0  0  0  0  0  0  0  0  0
   35.9800   33.1870   40.7640 H   0  0  0  0  0  0  0  0  0  0  0  0
   37.4290   35.0490   39.6340 H   0  0  0  0  0  0  0  0  0  0  0  0
   37.9910   25.9550   41.0130 C   0  0  0  0  0  0  0  0  0  0  0  0
   37.2640   25.8290   42.2020 C   0  0  0  0  0  0  0  0  0  0  0  0
   36.8830   26.9930   42.8810 C   0  0  0  0  0  0  0  0  0  0  0  0
   37.2560   28.1810   42.3230 N   0  0  0  0  0  0  0  0  0  0  0  0
   37.9570   28.2840   41.1740 C   0  0  0  0  0  0  0  0  0  0  0  0
   38.3240   27.1760   40.5210 N   0  0  0  0  0  0  0  0  0  0  0  0
   38.3170   25.0940   40.4380 H   0  0  0  0  0  0  0  0  0  0  0  0
   37.0090   24.8430   42.5770 H   0  0  0  0  0  0  0  0  0  0  0  0
   36.3290   26.9400   43.7890 H   0  0  0  0  0  0  0  0  0  0  0  0
   40.9890   31.2770   37.4640 C   0  0  2  0  0  3  0  0  0  0  0  0
   41.0690   31.4170   38.9740 C   0  0  2  0  0  3  0  0  0  0  0  0
   42.0530   30.4770   39.2760 O   0  0  0  0  0  0  0  0  0  0  0  0
   43.0570   30.6310   38.3530 C   0  0  0  0  0  2  0  0  0  0  0  0
   42.4680   31.2830   37.1270 C   0  0  1  0  0  3  0  0  0  0  0  0
   40.2940   32.3070   36.8560 O   0  0  0  0  0  0  0  0  0  0  0  0
   39.3990   31.9190   36.6150 H   0  0  0  0  0  0  0  0  0  0  0  0
   42.7340   30.5640   35.9660 O   0  0  0  0  0  0  0  0  0  0  0  0
   41.8740   30.5450   35.4520 H   0  0  0  0  0  0  0  0  0  0  0  0
  1  2  1  0  0  0  0
  2  3  2  0  0  0  0
  2 18  1  0  0  0  0
  3 11  1  0  0  0  0
  4  3  1  0  0  0  0
  5  4  1  0  0  0  0
  5 12  1  0  0  0  0
  6  5  1  0  0  0  0
  7  6  2  0  0  0  0
  7  8  1  0  0  0  0
  8  4  2  0  0  0  0
  9  8  1  0  0  0  0
  9  1  2  0  0  0  0
 10  1  1  0  0  0  0
 13  6  1  0  0  0  0
 14 15  1  0  0  0  0
 15 21  1  0  0  0  0
 15 16  2  0  0  0  0
 16 22  1  0  0  0  0
 17 16  1  0  0  0  0
 18 17  2  0  0  0  0
 19 14  2  0  0  0  0
 19 18  1  0  0  0  0
 20 14  1  0  0  0  0
 23 28  1  6  0  0  0
 23 24  1  0  0  0  0
 24 25  1  0  0  0  0
 24  9  1  1  0  0  0
 26 25  1  0  0  0  0
 27 30  1  6  0  0  0
 27 23  1  0  0  0  0
 27 26  1  0  0  0  0
 29 28  1  0  0  0  0
 31 30  1  0  0  0  0
M  END
>  <minimizedAffinity>
-5.85974932

$$$$

 OpenBabel03252506533D

 31 34  0  0  1  0  0  0  0  0999 V2000
   36.4440   27.1760   39.3040 C   0  0  0  0  0  0  0  0  0  0  0  0
   35.6930   28.3290   39.2420 C   0  0  0  0  0  0  0  0  0  0  0  0
   35.7080   29.2680   40.2610 C   0  0  0  0  0  0  0  0  0  0  0  0
   36.4910   29.0770   41.3980 C   0  0  0  0  0  0  0  0  0  0  0  0
   36.7440   29.7490   42.5440 N   0  0  0  0  0  0  0  0  0  0  0  0
   37.6250   29.0240   43.2840 C   0  0  0  0  0  0  0  0  0  0  0  0
   37.9070   27.9030   42.5800 N   0  0  0  0  0  0  0  0  0  0  0  0
   37.2220   27.9140   41.4190 C   0  0  0  0  0  0  0  0  0  0  0  0
   37.2380   26.9570   40.4300 C   0  0  0  0  0  0  0  0  0  0  0  0
   36.3910   26.4740   38.4700 H   0  0  0  0  0  0  0  0  0  0  0  0
   35.1220   30.1720   40.2130 H   0  0  0  0  0  0  0  0  0  0  0  0
   36.3030   30.6640   42.7570 H   0  0  0  0  0  0  0  0  0  0  0  0
   37.9940   29.3430   44.2540 H   0  0  0  0  0  0  0  0  0  0  0  0
   32.7830   29.1160   37.1310 C   0  0  0  0  0  0  0  0  0  0  0  0
   33.3420   29.1230   35.8480 C   0  0  0  0  0  0  0  0  0  0  0  0
   34.7110   28.8590   35.7130 C   0  0  0  0  0  0  0  0  0  0  0  0
   35.4060   28.6100   36.8610 N   0  0  0  0  0  0  0  0  0  0  0  0
   34.8490   28.6080   38.0910 C   0  0  0  0  0  0  0  0  0  0  0  0
   33.5430   28.8600   38.2260 N   0  0  0  0  0  0  0  0  0  0  0  0
   31.7290   29.3130   37.3050 H   0  0  0  0  0  0  0  0  0  0  0  0
   32.7170   29.3310   34.9870 H   0  0  0  0  0  0  0  0  0  0  0  0
   35.1750   28.8550   34.7550 H   0  0  0  0  0  0  0  0  0  0  0  0
   37.8240   25.0190   41.8420 C   0  0  2  0  0  3  0  0  0  0  0  0
   38.0440   25.7420   40.5240 C   0  0  2  0  0  3  0  0  0  0  0  0
   39.4130   25.9950   40.5850 O   0  0  0  0  0  0  0  0  0  0  0  0
   40.0170   24.8490   41.0370 C   0  0  0  0  0  2  0  0  0  0  0  0
   38.9900   24.0480   41.7980 C   0  0  1  0  0  3  0  0  0  0  0  0
   36.5970   24.3830   41.9180 O   0  0  0  0  0  0  0  0  0  0  0  0
   36.0340   24.9630   42.5150 H   0  0  0  0  0  0  0  0  0  0  0  0
   39.4240   23.7100   43.0760 O   0  0  0  0  0  0  0  0  0  0  0  0
   38.6470   23.8810   43.6850 H   0  0  0  0  0  0  0  0  0  0  0  0
  1  9  1  0  0  0  0
  2  1  2  0  0  0  0
  2  3  1  0  0  0  0
  3  4  2  0  0  0  0
  4  8  1  0  0  0  0
  4  5  1  0  0  0  0
  5 12  1  0  0  0  0
  5  6  1  0  0  0  0
  6 13  1  0  0  0  0
  7  6  2  0  0  0  0
  8  7  1  0  0  0  0
  9  8  2  0  0  0  0
 10  1  1  0  0  0  0
 11  3  1  0  0  0  0
 14 20  1  0  0  0  0
 14 19  1  0  0  0  0
 15 14  2  0  0  0  0
 16 15  1  0  0  0  0
 16 17  2  0  0  0  0
 17 18  1  0  0  0  0
 18 19  2  0  0  0  0
 18  2  1  0  0  0  0
 21 15  1  0  0  0  0
 22 16  1  0  0  0  0
 23 28  1  6  0  0  0
 24  9  1  1  0  0  0
 24 25  1  0  0  0  0
 24 23  1  0  0  0  0
 25 26  1  0  0  0  0
 26 27  1  0  0  0  0
 27 23  1  0  0  0  0
 27 30  1  1  0  0  0
 28 29  1  0  0  0  0
 30 31  1  0  0  0  0
M  END
>  <minimizedAffinity>
-5.80378199

$$$$

 OpenBabel03252506533D

 31 34  0  0  1  0  0  0  0  0999 V2000
   36.9360   28.3690   39.8190 C   0  0  0  0  0  0  0  0  0  0  0  0
   36.7030   27.0130   39.7440 C   0  0  0  0  0  0  0  0  0  0  0  0
   37.1840   26.1330   40.7010 C   0  0  0  0  0  0  0  0  0  0  0  0
   37.9290   26.5940   41.7850 C   0  0  0  0  0  0  0  0  0  0  0  0
   38.5340   26.0530   42.8660 N   0  0  0  0  0  0  0  0  0  0  0  0
   39.1200   27.0510   43.5790 C   0  0  0  0  0  0  0  0  0  0  0  0
   38.8670   28.2080   42.9240 N   0  0  0  0  0  0  0  0  0  0  0  0
   38.1380   27.9520   41.8200 C   0  0  0  0  0  0  0  0  0  0  0  0
   37.6780   28.8600   40.8930 C   0  0  0  0  0  0  0  0  0  0  0  0
   36.5310   29.0100   39.0350 H   0  0  0  0  0  0  0  0  0  0  0  0
   37.0020   25.0720   40.6440 H   0  0  0  0  0  0  0  0  0  0  0  0
   38.5140   25.0320   43.0570 H   0  0  0  0  0  0  0  0  0  0  0  0
   39.6740   26.8830   44.4970 H   0  0  0  0  0  0  0  0  0  0  0  0
   35.2910   24.6570   37.2940 C   0  0  0  0  0  0  0  0  0  0  0  0
   34.4380   25.4810   36.5510 C   0  0  0  0  0  0  0  0  0  0  0  0
   34.3510   26.8370   36.8920 C   0  0  0  0  0  0  0  0  0  0  0  0
   35.1170   27.2570   37.9400 N   0  0  0  0  0  0  0  0  0  0  0  0
   35.9350   26.4480   38.6460 C   0  0  0  0  0  0  0  0  0  0  0  0
   36.0220   25.1530   38.3250 N   0  0  0  0  0  0  0  0  0  0  0  0
   35.4040   23.5980   37.0820 H   0  0  0  0  0  0  0  0  0  0  0  0
   33.8620   25.0640   35.7310 H   0  0  0  0  0  0  0  0  0  0  0  0
   33.7130   27.4970   36.3520 H   0  0  0  0  0  0  0  0  0  0  0  0
   36.7590   31.1200   40.5220 C   0  0  2  0  0  3  0  0  0  0  0  0
   37.9410   30.2920   40.9980 C   0  0  2  0  0  3  0  0  0  0  0  0
   38.9390   30.7330   40.1310 O   0  0  0  0  0  0  0  0  0  0  0  0
   38.8350   32.0990   40.0530 C   0  0  0  0  0  2  0  0  0  0  0  0
   37.4230   32.4810   40.4230 C   0  0  1  0  0  3  0  0  0  0  0  0
   35.6920   31.1060   41.4020 O   0  0  0  0  0  0  0  0  0  0  0  0
   35.0130   30.4910   40.9870 H   0  0  0  0  0  0  0  0  0  0  0  0
   36.8200   33.2780   39.4550 O   0  0  0  0  0  0  0  0  0  0  0  0
   35.8940   32.9140   39.3380 H   0  0  0  0  0  0  0  0  0  0  0  0
  1  9  1  0  0  0  0
  2  1  2  0  0  0  0
  2  3  1  0  0  0  0
  3  4  2  0  0  0  0
  4  8  1  0  0  0  0
  4  5  1  0  0  0  0
  5 12  1  0  0  0  0
  5  6  1  0  0  0  0
  6 13  1  0  0  0  0
  7  6  2  0  0  0  0
  8  7  1  0  0  0  0
  9  8  2  0  0  0  0
 10  1  1  0  0  0  0
 11  3  1  0  0  0  0
 14 19  1  0  0  0  0
 15 16  1  0  0  0  0
 15 14  2  0  0  0  0
 16 17  2  0  0  0  0
 17 18  1  0  0  0  0
 18  2  1  0  0  0  0
 19 18  2  0  0  0  0
 20 14  1  0  0  0  0
 21 15  1  0  0  0  0
 22 16  1  0  0  0  0
 23 24  1  0  0  0  0
 23 28  1  1  0  0  0
 24  9  1  6  0  0  0
 25 24  1  0  0  0  0
 26 25  1  0  0  0  0
 26 27  1  0  0  0  0
 27 30  1  6  0  0  0
 27 23  1  0  0  0  0
 29 28  1  0  0  0  0
 31 30  1  0  0  0  0
M  END
>  <minimizedAffinity>
-5.73189116

$$$$

 OpenBabel03252506533D

 31 34  0  0  1  0  0  0  0  0999 V2000
   34.3520   28.8840   38.6770 C   0  0  0  0  0  0  0  0  0  0  0  0
   34.1830   29.0840   37.3250 C   0  0  0  0  0  0  0  0  0  0  0  0
   35.2610   29.2380   36.4670 C   0  0  0  0  0  0  0  0  0  0  0  0
   36.5690   29.1970   36.9480 C   0  0  0  0  0  0  0  0  0  0  0  0
   37.8130   29.3050   36.4300 N   0  0  0  0  0  0  0  0  0  0  0  0
   38.7150   29.1750   37.4390 C   0  0  0  0  0  0  0  0  0  0  0  0
   38.0100   28.9860   38.5790 N   0  0  0  0  0  0  0  0  0  0  0  0
   36.6910   28.9960   38.3020 C   0  0  0  0  0  0  0  0  0  0  0  0
   35.6490   28.8380   39.1880 C   0  0  0  0  0  0  0  0  0  0  0  0
   33.4640   28.7690   39.3010 H   0  0  0  0  0  0  0  0  0  0  0  0
   35.1310   29.3940   35.4080 H   0  0  0  0  0  0  0  0  0  0  0  0
   37.9780   29.4610   35.4160 H   0  0  0  0  0  0  0  0  0  0  0  0
   39.7890   29.2230   37.2900 H   0  0  0  0  0  0  0  0  0  0  0  0
   31.3760   28.8420   34.9560 C   0  0  0  0  0  0  0  0  0  0  0  0
   30.2980   29.2850   35.7310 C   0  0  0  0  0  0  0  0  0  0  0  0
   30.5380   29.6630   37.0590 C   0  0  0  0  0  0  0  0  0  0  0  0
   31.8250   29.5690   37.5020 N   0  0  0  0  0  0  0  0  0  0  0  0
   32.8530   29.1400   36.7400 C   0  0  0  0  0  0  0  0  0  0  0  0
   32.6310   28.7770   35.4720 N   0  0  0  0  0  0  0  0  0  0  0  0
   31.2590   28.5340   33.9210 H   0  0  0  0  0  0  0  0  0  0  0  0
   29.3040   29.3280   35.2990 H   0  0  0  0  0  0  0  0  0  0  0  0
   29.7450   30.0050   37.6810 H   0  0  0  0  0  0  0  0  0  0  0  0
   36.5720   29.8040   41.2640 C   0  0  2  0  0  3  0  0  0  0  0  0
   35.8590   28.6280   40.6180 C   0  0  2  0  0  3  0  0  0  0  0  0
   36.7490   27.5930   40.8960 O   0  0  0  0  0  0  0  0  0  0  0  0
   37.1410   27.7360   42.2040 C   0  0  0  0  0  2  0  0  0  0  0  0
   36.9420   29.1790   42.5960 C   0  0  1  0  0  3  0  0  0  0  0  0
   35.7680   30.9220   41.3990 O   0  0  0  0  0  0  0  0  0  0  0  0
   36.0670   31.5540   40.6760 H   0  0  0  0  0  0  0  0  0  0  0  0
   38.0950   29.7470   43.1270 O   0  0  0  0  0  0  0  0  0  0  0  0
   38.1750   30.6520   42.7040 H   0  0  0  0  0  0  0  0  0  0  0  0
  1  9  1  0  0  0  0
  1 10  1  0  0  0  0
  2  1  2  0  0  0  0
  3  4  2  0  0  0  0
  3  2  1  0  0  0  0
  4  8  1  0  0  0  0
  5  4  1  0  0  0  0
  5  6  1  0  0  0  0
  6  7  2  0  0  0  0
  8  7  1  0  0  0  0
  8  9  2  0  0  0  0
 11  3  1  0  0  0  0
 12  5  1  0  0  0  0
 13  6  1  0  0  0  0
 14 19  2  0  0  0  0
 14 15  1  0  0  0  0
 15 16  2  0  0  0  0
 16 17  1  0  0  0  0
 16 22  1  0  0  0  0
 18  2  1  0  0  0  0
 18 17  2  0  0  0  0
 19 18  1  0  0  0  0
 20 14  1  0  0  0  0
 21 15  1  0  0  0  0
 23 28  1  1  0  0  0
 23 27  1  0  0  0  0
 24  9  1  6  0  0  0
 24 25  1  0  0  0  0
 24 23  1  0  0  0  0
 25 26  1  0  0  0  0
 26 27  1  0  0  0  0
 27 30  1  6  0  0  0
 29 28  1  0  0  0  0
 31 30  1  0  0  0  0
M  END
>  <minimizedAffinity>
-5.69378853

$$$$

 OpenBabel03252506533D

 31 34  0  0  1  0  0  0  0  0999 V2000
   36.4380   28.6930   38.8650 C   0  0  0  0  0  0  0  0  0  0  0  0
   35.9730   27.4420   38.5250 C   0  0  0  0  0  0  0  0  0  0  0  0
   36.2330   26.3260   39.3060 C   0  0  0  0  0  0  0  0  0  0  0  0
   36.9820   26.4330   40.4770 C   0  0  0  0  0  0  0  0  0  0  0  0
   37.4160   25.5980   41.4480 N   0  0  0  0  0  0  0  0  0  0  0  0
   38.1260   26.3210   42.3540 C   0  0  0  0  0  0  0  0  0  0  0  0
   38.1220   27.6060   41.9280 N   0  0  0  0  0  0  0  0  0  0  0  0
   37.4260   27.6990   40.7780 C   0  0  0  0  0  0  0  0  0  0  0  0
   37.1910   28.8300   40.0310 C   0  0  0  0  0  0  0  0  0  0  0  0
   36.2010   29.5320   38.2090 H   0  0  0  0  0  0  0  0  0  0  0  0
   35.8690   25.3470   39.0420 H   0  0  0  0  0  0  0  0  0  0  0  0
   37.2040   24.5820   41.4380 H   0  0  0  0  0  0  0  0  0  0  0  0
   38.5860   25.8870   43.2360 H   0  0  0  0  0  0  0  0  0  0  0  0
   34.4910   27.8810   35.1850 C   0  0  0  0  0  0  0  0  0  0  0  0
   33.6490   26.7680   35.0870 C   0  0  0  0  0  0  0  0  0  0  0  0
   33.5930   25.8740   36.1640 C   0  0  0  0  0  0  0  0  0  0  0  0
   34.3770   26.1610   37.2430 N   0  0  0  0  0  0  0  0  0  0  0  0
   35.1840   27.2410   37.3200 C   0  0  0  0  0  0  0  0  0  0  0  0
   35.2410   28.0980   36.2950 N   0  0  0  0  0  0  0  0  0  0  0  0
   34.5810   28.6120   34.3860 H   0  0  0  0  0  0  0  0  0  0  0  0
   33.0580   26.6140   34.1900 H   0  0  0  0  0  0  0  0  0  0  0  0
   32.9650   25.0140   36.1290 H   0  0  0  0  0  0  0  0  0  0  0  0
   36.6070   31.2030   40.3820 C   0  0  2  0  0  3  0  0  0  0  0  0
   37.6970   30.1450   40.4160 C   0  0  2  0  0  3  0  0  0  0  0  0
   38.6070   30.6720   39.5020 O   0  0  0  0  0  0  0  0  0  0  0  0
   38.7160   32.0140   39.7670 C   0  0  0  0  0  2  0  0  0  0  0  0
   37.4610   32.4540   40.4790 C   0  0  1  0  0  3  0  0  0  0  0  0
   35.7010   31.0880   41.4220 O   0  0  0  0  0  0  0  0  0  0  0  0
   34.8750   30.6870   41.0120 H   0  0  0  0  0  0  0  0  0  0  0  0
   36.8530   33.5400   39.8590 O   0  0  0  0  0  0  0  0  0  0  0  0
   35.8730   33.3320   39.8390 H   0  0  0  0  0  0  0  0  0  0  0  0
  1  9  1  0  0  0  0
  2  1  2  0  0  0  0
  2  3  1  0  0  0  0
  3  4  2  0  0  0  0
  4  8  1  0  0  0  0
  4  5  1  0  0  0  0
  5  6  1  0  0  0  0
  6 13  1  0  0  0  0
  7  6  2  0  0  0  0
  8  7  1  0  0  0  0
  9  8  2  0  0  0  0
 10  1  1  0  0  0  0
 11  3  1  0  0  0  0
 12  5  1  0  0  0  0
 14 19  1  0  0  0  0
 15 14  2  0  0  0  0
 15 16  1  0  0  0  0
 16 17  2  0  0  0  0
 17 18  1  0  0  0  0
 18  2  1  0  0  0  0
 19 18  2  0  0  0  0
 20 14  1  0  0  0  0
 21 15  1  0  0  0  0
 22 16  1  0  0  0  0
 23 24  1  0  0  0  0
 23 27  1  0  0  0  0
 23 28  1  1  0  0  0
 24  9  1  6  0  0  0
 25 26  1  0  0  0  0
 25 24  1  0  0  0  0
 26 27  1  0  0  0  0
 27 30  1  6  0  0  0
 29 28  1  0  0  0  0
 31 30  1  0  0  0  0
M  END
>  <minimizedAffinity>
-5.5331192

$$$$

 OpenBabel03252506533D

 31 34  0  0  1  0  0  0  0  0999 V2000
   36.9020   29.7670   39.5410 C   0  0  0  0  0  0  0  0  0  0  0  0
   36.8360   30.4020   38.3200 C   0  0  0  0  0  0  0  0  0  0  0  0
   37.3890   31.6570   38.1170 C   0  0  0  0  0  0  0  0  0  0  0  0
   38.0380   32.3280   39.1520 C   0  0  0  0  0  0  0  0  0  0  0  0
   38.6690   33.5130   39.3140 N   0  0  0  0  0  0  0  0  0  0  0  0
   39.1070   33.5970   40.5980 C   0  0  0  0  0  0  0  0  0  0  0  0
   38.7380   32.4530   41.2190 N   0  0  0  0  0  0  0  0  0  0  0  0
   38.0800   31.6590   40.3510 C   0  0  0  0  0  0  0  0  0  0  0  0
   37.5460   30.4140   40.5950 C   0  0  0  0  0  0  0  0  0  0  0  0
   36.4480   28.7800   39.6390 H   0  0  0  0  0  0  0  0  0  0  0  0
   37.3390   32.1550   37.1620 H   0  0  0  0  0  0  0  0  0  0  0  0
   38.7660   34.1980   38.5400 H   0  0  0  0  0  0  0  0  0  0  0  0
   39.6470   34.4530   40.9900 H   0  0  0  0  0  0  0  0  0  0  0  0
   34.3880   28.6200   36.2270 C   0  0  0  0  0  0  0  0  0  0  0  0
   35.0200   28.6110   34.9790 C   0  0  0  0  0  0  0  0  0  0  0  0
   36.2790   29.2140   34.8600 C   0  0  0  0  0  0  0  0  0  0  0  0
   36.8010   29.7730   35.9890 N   0  0  0  0  0  0  0  0  0  0  0  0
   36.1770   29.7730   37.1870 C   0  0  0  0  0  0  0  0  0  0  0  0
   34.9750   29.1990   37.3060 N   0  0  0  0  0  0  0  0  0  0  0  0
   33.4120   28.1710   36.3870 H   0  0  0  0  0  0  0  0  0  0  0  0
   34.5320   28.1430   34.1300 H   0  0  0  0  0  0  0  0  0  0  0  0
   36.7920   29.2280   33.9270 H   0  0  0  0  0  0  0  0  0  0  0  0
   38.9050   28.9510   42.0460 C   0  0  2  0  0  3  0  0  0  0  0  0
   37.6300   29.7650   41.9010 C   0  0  2  0  0  3  0  0  0  0  0  0
   36.6640   28.7790   42.0880 O   0  0  0  0  0  0  0  0  0  0  0  0
   37.0660   28.0130   43.1520 C   0  0  0  0  0  2  0  0  0  0  0  0
   38.5620   28.1570   43.2930 C   0  0  1  0  0  3  0  0  0  0  0  0
   40.0370   29.7320   42.2000 O   0  0  0  0  0  0  0  0  0  0  0  0
   40.5040   29.7020   41.3110 H   0  0  0  0  0  0  0  0  0  0  0  0
   39.2120   26.9280   43.3150 O   0  0  0  0  0  0  0  0  0  0  0  0
   40.0110   27.0290   42.7170 H   0  0  0  0  0  0  0  0  0  0  0  0
  1 10  1  0  0  0  0
  1  9  1  0  0  0  0
  2  1  2  0  0  0  0
  3  2  1  0  0  0  0
  3  4  2  0  0  0  0
  4  5  1  0  0  0  0
  4  8  1  0  0  0  0
  5  6  1  0  0  0  0
  6 13  1  0  0  0  0
  6  7  2  0  0  0  0
  8  9  2  0  0  0  0
  8  7  1  0  0  0  0
 11  3  1  0  0  0  0
 12  5  1  0  0  0  0
 14 20  1  0  0  0  0
 14 19  1  0  0  0  0
 15 14  2  0  0  0  0
 16 15  1  0  0  0  0
 16 17  2  0  0  0  0
 17 18  1  0  0  0  0
 18 19  2  0  0  0  0
 18  2  1  0  0  0  0
 21 15  1  0  0  0  0
 22 16  1  0  0  0  0
 23 28  1  1  0  0  0
 23 27  1  0  0  0  0
 24  9  1  6  0  0  0
 24 23  1  0  0  0  0
 24 25  1  0  0  0  0
 25 26  1  0  0  0  0
 26 27  1  0  0  0  0
 27 30  1  6  0  0  0
 29 28  1  0  0  0  0
 31 30  1  0  0  0  0
M  END
>  <minimizedAffinity>
-5.44422865

$$$$

 OpenBabel03252506533D

 31 34  0  0  1  0  0  0  0  0999 V2000
   38.8850   29.9620   38.5370 C   0  0  0  0  0  0  0  0  0  0  0  0
   37.5200   29.8820   38.7100 C   0  0  0  0  0  0  0  0  0  0  0  0
   36.7790   30.9520   39.1870 C   0  0  0  0  0  0  0  0  0  0  0  0
   37.3940   32.1590   39.5120 C   0  0  0  0  0  0  0  0  0  0  0  0
   37.0080   33.3660   39.9840 N   0  0  0  0  0  0  0  0  0  0  0  0
   38.1070   34.1580   40.0960 C   0  0  0  0  0  0  0  0  0  0  0  0
   39.1690   33.4250   39.6880 N   0  0  0  0  0  0  0  0  0  0  0  0
   38.7550   32.1940   39.3250 C   0  0  0  0  0  0  0  0  0  0  0  0
   39.5280   31.1580   38.8540 C   0  0  0  0  0  0  0  0  0  0  0  0
   39.4130   29.0850   38.1580 H   0  0  0  0  0  0  0  0  0  0  0  0
   35.7110   30.8920   39.3220 H   0  0  0  0  0  0  0  0  0  0  0  0
   36.0160   33.5820   40.2040 H   0  0  0  0  0  0  0  0  0  0  0  0
   38.0710   35.1830   40.4540 H   0  0  0  0  0  0  0  0  0  0  0  0
   36.3580   26.3890   38.7160 C   0  0  0  0  0  0  0  0  0  0  0  0
   35.3750   26.4040   37.7210 C   0  0  0  0  0  0  0  0  0  0  0  0
   35.1150   27.6090   37.0540 C   0  0  0  0  0  0  0  0  0  0  0  0
   35.8530   28.6920   37.4320 N   0  0  0  0  0  0  0  0  0  0  0  0
   36.7980   28.6590   38.3950 C   0  0  0  0  0  0  0  0  0  0  0  0
   37.0510   27.5130   39.0350 N   0  0  0  0  0  0  0  0  0  0  0  0
   36.6080   25.4900   39.2710 H   0  0  0  0  0  0  0  0  0  0  0  0
   34.8330   25.4950   37.4820 H   0  0  0  0  0  0  0  0  0  0  0  0
   34.3750   27.6620   36.2910 H   0  0  0  0  0  0  0  0  0  0  0  0
   41.3410   31.7410   37.2840 C   0  0  2  0  0  3  0  0  0  0  0  0
   40.9740   31.2710   38.6810 C   0  0  2  0  0  3  0  0  0  0  0  0
   41.6300   30.0420   38.7290 O   0  0  0  0  0  0  0  0  0  0  0  0
   42.8810   30.2300   38.1970 C   0  0  0  0  0  2  0  0  0  0  0  0
   42.8280   31.4390   37.2950 C   0  0  1  0  0  3  0  0  0  0  0  0
   41.0660   33.0800   37.0680 O   0  0  0  0  0  0  0  0  0  0  0  0
   40.2350   33.0920   36.5030 H   0  0  0  0  0  0  0  0  0  0  0  0
   43.3070   31.1660   36.0180 O   0  0  0  0  0  0  0  0  0  0  0  0
   42.6600   31.5970   35.3840 H   0  0  0  0  0  0  0  0  0  0  0  0
  1  2  2  0  0  0  0
  1  9  1  0  0  0  0
  2  3  1  0  0  0  0
  3 11  1  0  0  0  0
  3  4  2  0  0  0  0
  4  5  1  0  0  0  0
  5  6  1  0  0  0  0
  5 12  1  0  0  0  0
  6 13  1  0  0  0  0
  7  6  2  0  0  0  0
  8  4  1  0  0  0  0
  8  7  1  0  0  0  0
  9  8  2  0  0  0  0
 10  1  1  0  0  0  0
 14 19  1  0  0  0  0
 14 20  1  0  0  0  0
 15 14  2  0  0  0  0
 16 17  2  0  0  0  0
 16 15  1  0  0  0  0
 17 18  1  0  0  0  0
 18  2  1  0  0  0  0
 18 19  2  0  0  0  0
 21 15  1  0  0  0  0
 22 16  1  0  0  0  0
 23 28  1  1  0  0  0
 23 27  1  0  0  0  0
 23 24  1  0  0  0  0
 24 25  1  0  0  0  0
 24  9  1  6  0  0  0
 26 25  1  0  0  0  0
 27 30  1  6  0  0  0
 27 26  1  0  0  0  0
 29 28  1  0  0  0  0
 31 30  1  0  0  0  0
M  END
>  <minimizedAffinity>
-5.41861391

$$$$
