
 OpenBabel03252504493D

 24 25  0  0  1  0  0  0  0  0999 V2000
   45.3670   34.6300   44.4540 C   0  0  0  0  0  0  0  0  0  0  0  0
   46.2870   34.1880   43.5040 C   0  0  0  0  0  0  0  0  0  0  0  0
   47.2190   33.2330   43.9190 C   0  0  0  0  0  0  0  0  0  0  0  0
   47.1660   32.8000   45.2140 N   0  0  0  0  0  0  0  0  0  0  0  0
   46.2690   33.2450   46.0980 C   0  0  0  0  0  0  0  0  0  0  0  0
   45.3500   34.1740   45.7250 N   0  0  0  0  0  0  0  0  0  0  0  0
   44.5890   35.3680   44.2670 H   0  0  0  0  0  0  0  0  0  0  0  0
   47.9250   32.8970   43.1840 H   0  0  0  0  0  0  0  0  0  0  0  0
   45.2630   31.5860   47.5490 C   0  0  1  0  0  0  0  0  0  0  0  0
   46.2980   32.7080   47.4820 C   0  0  1  0  0  0  0  0  0  0  0  0
   47.5310   32.1050   47.7550 O   0  0  0  0  0  0  0  0  0  0  0  0
   47.1960   31.2320   48.7960 C   0  0  0  0  0  0  0  0  0  0  0  0
   46.0930   30.4280   48.0980 C   0  0  1  0  0  0  0  0  0  0  0  0
   44.2240   31.8870   48.3960 O   0  0  0  0  0  0  0  0  0  0  0  0
   44.3330   32.7000   48.9150 H   0  0  0  0  0  0  0  0  0  0  0  0
   45.3210   29.7310   49.0000 O   0  0  0  0  0  0  0  0  0  0  0  0
   45.7510   28.8950   49.2920 H   0  0  0  0  0  0  0  0  0  0  0  0
   46.2210   34.7370   42.1680 C   0  0  0  0  0  0  0  0  0  0  0  0
   45.7020   35.6940   42.1500 H   0  0  0  0  0  0  0  0  0  0  0  0
   45.7180   34.0170   41.4740 H   0  0  0  0  0  0  0  0  0  0  0  0
   47.6410   35.0040   41.6970 C   0  0  0  0  0  0  0  0  0  0  0  0
   47.5560   35.5390   40.7100 H   0  0  0  0  0  0  0  0  0  0  0  0
   48.0940   35.7140   42.4150 H   0  0  0  0  0  0  0  0  0  0  0  0
   48.2280   34.0700   41.6000 H   0  0  0  0  0  0  0  0  0  0  0  0
  1  6  1  0  0  0  0
  2  3  1  0  0  0  0
  2  1  2  0  0  0  0
  3  4  2  0  0  0  0
  4  5  1  0  0  0  0
  6  5  2  0  0  0  0
  7  1  1  0  0  0  0
  8  3  1  0  0  0  0
  9 13  1  0  0  0  0
  9 14  1  1  0  0  0
 10  5  1  6  0  0  0
 10  9  1  0  0  0  0
 10 11  1  0  0  0  0
 11 12  1  0  0  0  0
 13 12  1  0  0  0  0
 13 16  1  1  0  0  0
 14 15  1  0  0  0  0
 16 17  1  0  0  0  0
 18  2  1  0  0  0  0
 19 18  1  0  0  0  0
 20 18  1  0  0  0  0
 21 18  1  0  0  0  0
 21 23  1  0  0  0  0
 22 21  1  0  0  0  0
 24 21  1  0  0  0  0
M  END
>  <minimizedAffinity>
-4.98913527

>  <minimizedRMSD>
2.01602125

$$$$
