
 OpenBabel03242510103D

 28 30  0  0  1  0  0  0  0  0999 V2000
   37.6450   27.0610   38.7700 Br  0  0  0  0  0  0  0  0  0  0  0  0
   37.2570   27.2260   40.6410 C   0  0  0  0  0  0  0  0  0  0  0  0
   37.1250   26.0910   41.4220 C   0  0  0  0  0  0  0  0  0  0  0  0
   36.8430   26.1980   42.7780 C   0  0  0  0  0  0  0  0  0  0  0  0
   36.7030   27.4480   43.3140 C   0  0  0  0  0  0  0  0  0  0  0  0
   36.8400   28.5520   42.5140 C   0  0  0  0  0  0  0  0  0  0  0  0
   37.1150   28.4820   41.1820 C   0  0  0  0  0  0  0  0  0  0  0  0
   36.7380   25.3300   43.3950 H   0  0  0  0  0  0  0  0  0  0  0  0
   36.4830   27.5580   44.3700 H   0  0  0  0  0  0  0  0  0  0  0  0
   36.7240   29.5260   42.9630 H   0  0  0  0  0  0  0  0  0  0  0  0
   36.3220   23.0290   39.6020 C   0  0  0  0  0  0  0  0  0  0  0  0
   37.5490   22.3230   39.5900 C   0  0  0  0  0  0  0  0  0  0  0  0
   38.6460   22.9250   40.2210 C   0  0  0  0  0  0  0  0  0  0  0  0
   38.4640   24.1370   40.7950 N   0  0  0  0  0  0  0  0  0  0  0  0
   37.2840   24.7910   40.7950 C   0  0  0  0  0  0  0  0  0  0  0  0
   36.2090   24.2240   40.1900 N   0  0  0  0  0  0  0  0  0  0  0  0
   35.5290   22.4960   39.0970 H   0  0  0  0  0  0  0  0  0  0  0  0
   37.6940   21.3600   39.1330 H   0  0  0  0  0  0  0  0  0  0  0  0
   39.6300   22.4910   40.2790 H   0  0  0  0  0  0  0  0  0  0  0  0
   36.9450   30.9700   40.9930 C   0  0  1  0  0  3  0  0  0  0  0  0
   37.2650   29.6490   40.3180 C   0  0  2  0  0  3  0  0  0  0  0  0
   36.4150   29.7060   39.2270 O   0  0  0  0  0  0  0  0  0  0  0  0
   36.8160   30.9290   38.6470 C   0  0  0  0  0  2  0  0  0  0  0  0
   37.0350   31.8890   39.7760 C   0  0  2  0  0  3  0  0  0  0  0  0
   35.6090   31.0230   41.3980 O   0  0  0  0  0  0  0  0  0  0  0  0
   34.9990   31.1850   40.6350 H   0  0  0  0  0  0  0  0  0  0  0  0
   38.3360   32.4070   39.7580 O   0  0  0  0  0  0  0  0  0  0  0  0
   38.9440   31.7540   39.3630 H   0  0  0  0  0  0  0  0  0  0  0  0
  1  2  1  0  0  0  0
  2  7  2  0  0  0  0
  2  3  1  0  0  0  0
  3  4  2  0  0  0  0
  4  5  1  0  0  0  0
  4  8  1  0  0  0  0
  5  9  1  0  0  0  0
  6 10  1  0  0  0  0
  6  5  2  0  0  0  0
  7  6  1  0  0  0  0
 11 16  1  0  0  0  0
 12 11  2  0  0  0  0
 12 13  1  0  0  0  0
 13 19  1  0  0  0  0
 13 14  2  0  0  0  0
 15 14  1  0  0  0  0
 15  3  1  0  0  0  0
 16 15  2  0  0  0  0
 17 11  1  0  0  0  0
 18 12  1  0  0  0  0
 20 25  1  6  0  0  0
 21 20  1  0  0  0  0
 21  7  1  1  0  0  0
 22 21  1  0  0  0  0
 23 22  1  0  0  0  0
 23 24  1  0  0  0  0
 24 27  1  6  0  0  0
 24 20  1  0  0  0  0
 26 25  1  0  0  0  0
 28 27  1  0  0  0  0
M  END
>  <minimizedAffinity>
-5.69412374

$$$$

 OpenBabel03242510103D

 28 30  0  0  1  0  0  0  0  0999 V2000
   40.5040   28.8060   40.4830 Br  0  0  0  0  0  0  0  0  0  0  0  0
   39.0720   28.4460   41.7070 C   0  0  0  0  0  0  0  0  0  0  0  0
   39.2800   27.6060   42.7870 C   0  0  0  0  0  0  0  0  0  0  0  0
   38.2510   27.3380   43.6790 C   0  0  0  0  0  0  0  0  0  0  0  0
   37.0350   27.9260   43.4630 C   0  0  0  0  0  0  0  0  0  0  0  0
   36.8610   28.7530   42.3850 C   0  0  0  0  0  0  0  0  0  0  0  0
   37.8490   29.0370   41.4910 C   0  0  0  0  0  0  0  0  0  0  0  0
   38.3960   26.6890   44.5190 H   0  0  0  0  0  0  0  0  0  0  0  0
   36.2160   27.7320   44.1460 H   0  0  0  0  0  0  0  0  0  0  0  0
   35.8920   29.2040   42.2380 H   0  0  0  0  0  0  0  0  0  0  0  0
   41.9780   25.1460   42.7230 C   0  0  0  0  0  0  0  0  0  0  0  0
   43.0750   25.8470   43.2810 C   0  0  0  0  0  0  0  0  0  0  0  0
   42.8580   27.1740   43.6760 C   0  0  0  0  0  0  0  0  0  0  0  0
   41.6240   27.6980   43.4970 N   0  0  0  0  0  0  0  0  0  0  0  0
   40.5930   27.0110   42.9630 C   0  0  0  0  0  0  0  0  0  0  0  0
   40.7820   25.7240   42.5760 N   0  0  0  0  0  0  0  0  0  0  0  0
   42.2280   24.1320   42.4470 H   0  0  0  0  0  0  0  0  0  0  0  0
   44.0560   25.4310   43.4230 H   0  0  0  0  0  0  0  0  0  0  0  0
   43.6100   27.8110   44.1110 H   0  0  0  0  0  0  0  0  0  0  0  0
   37.1290   31.2900   40.6780 C   0  0  1  0  0  3  0  0  0  0  0  0
   37.6780   29.9170   40.3390 C   0  0  2  0  0  3  0  0  0  0  0  0
   36.7590   29.5000   39.3910 O   0  0  0  0  0  0  0  0  0  0  0  0
   36.8420   30.5600   38.4630 C   0  0  0  0  0  2  0  0  0  0  0  0
   36.9290   31.8250   39.2620 C   0  0  2  0  0  3  0  0  0  0  0  0
   35.8460   31.2020   41.2250 O   0  0  0  0  0  0  0  0  0  0  0  0
   35.1620   31.0230   40.5320 H   0  0  0  0  0  0  0  0  0  0  0  0
   38.0820   32.5520   38.9390 O   0  0  0  0  0  0  0  0  0  0  0  0
   38.7860   31.9410   38.6540 H   0  0  0  0  0  0  0  0  0  0  0  0
  1  2  1  0  0  0  0
  2  3  1  0  0  0  0
  3 15  1  0  0  0  0
  3  4  2  0  0  0  0
  4  8  1  0  0  0  0
  5  4  1  0  0  0  0
  5  9  1  0  0  0  0
  6  5  2  0  0  0  0
  7  2  2  0  0  0  0
  7  6  1  0  0  0  0
 10  6  1  0  0  0  0
 11 12  1  0  0  0  0
 12 18  1  0  0  0  0
 12 13  2  0  0  0  0
 13 19  1  0  0  0  0
 14 13  1  0  0  0  0
 15 14  2  0  0  0  0
 16 11  2  0  0  0  0
 16 15  1  0  0  0  0
 17 11  1  0  0  0  0
 20 25  1  6  0  0  0
 21 20  1  0  0  0  0
 21  7  1  1  0  0  0
 22 21  1  0  0  0  0
 23 24  1  0  0  0  0
 23 22  1  0  0  0  0
 24 27  1  6  0  0  0
 24 20  1  0  0  0  0
 26 25  1  0  0  0  0
 28 27  1  0  0  0  0
M  END
>  <minimizedAffinity>
-5.4486599

$$$$

 OpenBabel03242510103D

 28 30  0  0  1  0  0  0  0  0999 V2000
   39.4220   28.6040   40.9870 Br  0  0  0  0  0  0  0  0  0  0  0  0
   37.8290   28.8570   39.9500 C   0  0  0  0  0  0  0  0  0  0  0  0
   36.9590   27.7990   39.7490 C   0  0  0  0  0  0  0  0  0  0  0  0
   35.8030   27.9710   39.0000 C   0  0  0  0  0  0  0  0  0  0  0  0
   35.5500   29.2060   38.4710 C   0  0  0  0  0  0  0  0  0  0  0  0
   36.4310   30.2330   38.6880 C   0  0  0  0  0  0  0  0  0  0  0  0
   37.5730   30.0990   39.4170 C   0  0  0  0  0  0  0  0  0  0  0  0
   35.1210   27.1620   38.8350 H   0  0  0  0  0  0  0  0  0  0  0  0
   34.6540   29.3660   37.8820 H   0  0  0  0  0  0  0  0  0  0  0  0
   36.2070   31.1980   38.2590 H   0  0  0  0  0  0  0  0  0  0  0  0
   37.1600   25.0800   42.1770 C   0  0  0  0  0  0  0  0  0  0  0  0
   37.8770   24.0740   41.4860 C   0  0  0  0  0  0  0  0  0  0  0  0
   38.2840   24.3580   40.1750 C   0  0  0  0  0  0  0  0  0  0  0  0
   37.9660   25.5680   39.6580 N   0  0  0  0  0  0  0  0  0  0  0  0
   37.2820   26.5110   40.3360 C   0  0  0  0  0  0  0  0  0  0  0  0
   36.8790   26.2550   41.6070 N   0  0  0  0  0  0  0  0  0  0  0  0
   36.8840   24.7820   43.1790 H   0  0  0  0  0  0  0  0  0  0  0  0
   38.1290   23.1120   41.8960 H   0  0  0  0  0  0  0  0  0  0  0  0
   38.8340   23.6780   39.5460 H   0  0  0  0  0  0  0  0  0  0  0  0
   38.1160   32.1290   40.7740 C   0  0  1  0  0  3  0  0  0  0  0  0
   38.5200   31.1840   39.6570 C   0  0  2  0  0  3  0  0  0  0  0  0
   38.6920   32.0780   38.6150 O   0  0  0  0  0  0  0  0  0  0  0  0
   39.6300   32.9660   39.1830 C   0  0  0  0  0  2  0  0  0  0  0  0
   39.2110   33.1800   40.6060 C   0  0  2  0  0  3  0  0  0  0  0  0
   36.9210   32.7880   40.4740 O   0  0  0  0  0  0  0  0  0  0  0  0
   37.0570   33.5140   39.8150 H   0  0  0  0  0  0  0  0  0  0  0  0
   40.2380   32.8390   41.4950 O   0  0  0  0  0  0  0  0  0  0  0  0
   40.7920   32.1380   41.1040 H   0  0  0  0  0  0  0  0  0  0  0  0
  2  1  1  0  0  0  0
  3  2  1  0  0  0  0
  3 15  1  0  0  0  0
  4  3  2  0  0  0  0
  5  6  2  0  0  0  0
  5  4  1  0  0  0  0
  6  7  1  0  0  0  0
  7  2  2  0  0  0  0
  8  4  1  0  0  0  0
  9  5  1  0  0  0  0
 10  6  1  0  0  0  0
 11 17  1  0  0  0  0
 12 18  1  0  0  0  0
 12 11  2  0  0  0  0
 13 12  1  0  0  0  0
 14 13  2  0  0  0  0
 14 15  1  0  0  0  0
 15 16  2  0  0  0  0
 16 11  1  0  0  0  0
 19 13  1  0  0  0  0
 20 25  1  6  0  0  0
 21  7  1  6  0  0  0
 21 20  1  0  0  0  0
 22 23  1  0  0  0  0
 22 21  1  0  0  0  0
 23 24  1  0  0  0  0
 24 20  1  0  0  0  0
 24 27  1  1  0  0  0
 26 25  1  0  0  0  0
 28 27  1  0  0  0  0
M  END
>  <minimizedAffinity>
-5.32482433

$$$$

 OpenBabel03242510103D

 28 30  0  0  1  0  0  0  0  0999 V2000
   40.7030   30.1140   39.8700 Br  0  0  0  0  0  0  0  0  0  0  0  0
   39.6410   31.7070   39.9660 C   0  0  0  0  0  0  0  0  0  0  0  0
   40.2000   32.9310   39.6420 C   0  0  0  0  0  0  0  0  0  0  0  0
   39.4410   34.0920   39.7080 C   0  0  0  0  0  0  0  0  0  0  0  0
   38.1340   33.9910   40.0990 C   0  0  0  0  0  0  0  0  0  0  0  0
   37.6100   32.7650   40.4130 C   0  0  0  0  0  0  0  0  0  0  0  0
   38.3270   31.6080   40.3590 C   0  0  0  0  0  0  0  0  0  0  0  0
   39.8600   35.0460   39.4610 H   0  0  0  0  0  0  0  0  0  0  0  0
   37.5210   34.8830   40.1580 H   0  0  0  0  0  0  0  0  0  0  0  0
   36.5770   32.7140   40.7180 H   0  0  0  0  0  0  0  0  0  0  0  0
   43.8370   33.1830   39.8480 C   0  0  0  0  0  0  0  0  0  0  0  0
   44.2520   33.0590   38.5000 C   0  0  0  0  0  0  0  0  0  0  0  0
   43.2530   32.8910   37.5310 C   0  0  0  0  0  0  0  0  0  0  0  0
   41.9650   32.8540   37.9440 N   0  0  0  0  0  0  0  0  0  0  0  0
   41.5930   32.9740   39.2350 C   0  0  0  0  0  0  0  0  0  0  0  0
   42.5460   33.1390   40.1880 N   0  0  0  0  0  0  0  0  0  0  0  0
   44.6660   33.3100   40.5290 H   0  0  0  0  0  0  0  0  0  0  0  0
   45.2760   33.0880   38.1710 H   0  0  0  0  0  0  0  0  0  0  0  0
   43.4400   32.7850   36.4750 H   0  0  0  0  0  0  0  0  0  0  0  0
   36.2790   30.1810   40.5140 C   0  0  1  0  0  3  0  0  0  0  0  0
   37.7810   30.2940   40.6900 C   0  0  2  0  0  3  0  0  0  0  0  0
   37.9170   29.8990   42.0090 O   0  0  0  0  0  0  0  0  0  0  0  0
   37.2880   28.6350   41.9690 C   0  0  0  0  0  2  0  0  0  0  0  0
   36.0730   28.7880   41.1060 C   0  0  2  0  0  3  0  0  0  0  0  0
   35.6010   31.0500   41.3720 O   0  0  0  0  0  0  0  0  0  0  0  0
   35.5880   30.7130   42.3040 H   0  0  0  0  0  0  0  0  0  0  0  0
   36.0960   27.8870   40.0330 O   0  0  0  0  0  0  0  0  0  0  0  0
   37.0190   27.6930   39.7870 H   0  0  0  0  0  0  0  0  0  0  0  0
  1  2  1  0  0  0  0
  2  7  1  0  0  0  0
  3  4  1  0  0  0  0
  3  2  2  0  0  0  0
  4  5  2  0  0  0  0
  5  9  1  0  0  0  0
  5  6  1  0  0  0  0
  6 10  1  0  0  0  0
  7  6  2  0  0  0  0
  8  4  1  0  0  0  0
 11 16  1  0  0  0  0
 11 17  1  0  0  0  0
 12 11  2  0  0  0  0
 13 14  2  0  0  0  0
 13 12  1  0  0  0  0
 14 15  1  0  0  0  0
 15  3  1  0  0  0  0
 15 16  2  0  0  0  0
 18 12  1  0  0  0  0
 19 13  1  0  0  0  0
 20 21  1  0  0  0  0
 20 24  1  0  0  0  0
 20 25  1  1  0  0  0
 21  7  1  1  0  0  0
 21 22  1  0  0  0  0
 23 22  1  0  0  0  0
 24 27  1  6  0  0  0
 24 23  1  0  0  0  0
 25 26  1  0  0  0  0
 28 27  1  0  0  0  0
M  END
>  <minimizedAffinity>
-5.28673458

$$$$

 OpenBabel03242510103D

 28 30  0  0  1  0  0  0  0  0999 V2000
   40.6070   29.8040   39.7880 Br  0  0  0  0  0  0  0  0  0  0  0  0
   39.6540   31.4620   39.9350 C   0  0  0  0  0  0  0  0  0  0  0  0
   40.2710   32.6480   39.5800 C   0  0  0  0  0  0  0  0  0  0  0  0
   39.5910   33.8540   39.6830 C   0  0  0  0  0  0  0  0  0  0  0  0
   38.3020   33.8350   40.1410 C   0  0  0  0  0  0  0  0  0  0  0  0
   37.7190   32.6440   40.4840 C   0  0  0  0  0  0  0  0  0  0  0  0
   38.3580   31.4440   40.3960 C   0  0  0  0  0  0  0  0  0  0  0  0
   40.0550   34.7800   39.4130 H   0  0  0  0  0  0  0  0  0  0  0  0
   37.7500   34.7640   40.2310 H   0  0  0  0  0  0  0  0  0  0  0  0
   36.7010   32.6570   40.8430 H   0  0  0  0  0  0  0  0  0  0  0  0
   43.1090   32.4100   37.2960 C   0  0  0  0  0  0  0  0  0  0  0  0
   44.2310   32.5170   38.1530 C   0  0  0  0  0  0  0  0  0  0  0  0
   43.9820   32.6710   39.5230 C   0  0  0  0  0  0  0  0  0  0  0  0
   42.6950   32.7090   39.9370 N   0  0  0  0  0  0  0  0  0  0  0  0
   41.6410   32.6040   39.1010 C   0  0  0  0  0  0  0  0  0  0  0  0
   41.8610   32.4540   37.7700 N   0  0  0  0  0  0  0  0  0  0  0  0
   43.3870   32.2940   36.2580 H   0  0  0  0  0  0  0  0  0  0  0  0
   45.2550   32.4880   37.8240 H   0  0  0  0  0  0  0  0  0  0  0  0
   44.7480   32.7640   40.2750 H   0  0  0  0  0  0  0  0  0  0  0  0
   36.2480   30.1100   40.5460 C   0  0  1  0  0  3  0  0  0  0  0  0
   37.7490   30.1670   40.7570 C   0  0  2  0  0  3  0  0  0  0  0  0
   37.8340   29.8140   42.0920 O   0  0  0  0  0  0  0  0  0  0  0  0
   37.1540   28.5770   42.0790 C   0  0  0  0  0  2  0  0  0  0  0  0
   35.9680   28.7490   41.1790 C   0  0  2  0  0  3  0  0  0  0  0  0
   35.5860   31.0370   41.3550 O   0  0  0  0  0  0  0  0  0  0  0  0
   35.5350   30.7340   42.2970 H   0  0  0  0  0  0  0  0  0  0  0  0
   35.9790   27.8110   40.1390 O   0  0  0  0  0  0  0  0  0  0  0  0
   36.9000   27.5690   39.9240 H   0  0  0  0  0  0  0  0  0  0  0  0
  1  2  1  0  0  0  0
  2  7  1  0  0  0  0
  3  4  1  0  0  0  0
  3  2  2  0  0  0  0
  4  5  2  0  0  0  0
  5  9  1  0  0  0  0
  5  6  1  0  0  0  0
  6 10  1  0  0  0  0
  7  6  2  0  0  0  0
  8  4  1  0  0  0  0
 11 16  2  0  0  0  0
 11 12  1  0  0  0  0
 12 13  2  0  0  0  0
 13 14  1  0  0  0  0
 13 19  1  0  0  0  0
 15  3  1  0  0  0  0
 15 14  2  0  0  0  0
 16 15  1  0  0  0  0
 17 11  1  0  0  0  0
 18 12  1  0  0  0  0
 20 21  1  0  0  0  0
 20 24  1  0  0  0  0
 20 25  1  1  0  0  0
 21  7  1  1  0  0  0
 21 22  1  0  0  0  0
 23 22  1  0  0  0  0
 24 27  1  6  0  0  0
 24 23  1  0  0  0  0
 25 26  1  0  0  0  0
 28 27  1  0  0  0  0
M  END
>  <minimizedAffinity>
-5.27354574

$$$$

 OpenBabel03242510103D

 28 30  0  0  1  0  0  0  0  0999 V2000
   37.2830   27.4850   39.2150 Br  0  0  0  0  0  0  0  0  0  0  0  0
   37.3650   29.3570   39.6200 C   0  0  0  0  0  0  0  0  0  0  0  0
   36.8020   30.2770   38.7530 C   0  0  0  0  0  0  0  0  0  0  0  0
   36.8560   31.6350   39.0350 C   0  0  0  0  0  0  0  0  0  0  0  0
   37.4760   32.0350   40.1880 C   0  0  0  0  0  0  0  0  0  0  0  0
   38.0230   31.0990   41.0250 C   0  0  0  0  0  0  0  0  0  0  0  0
   37.9880   29.7600   40.7780 C   0  0  0  0  0  0  0  0  0  0  0  0
   36.4250   32.3590   38.3740 H   0  0  0  0  0  0  0  0  0  0  0  0
   37.5300   33.0900   40.4300 H   0  0  0  0  0  0  0  0  0  0  0  0
   38.5060   31.4410   41.9280 H   0  0  0  0  0  0  0  0  0  0  0  0
   36.3000   29.3580   35.2550 C   0  0  0  0  0  0  0  0  0  0  0  0
   34.9690   28.8770   35.2300 C   0  0  0  0  0  0  0  0  0  0  0  0
   34.2590   28.8800   36.4380 C   0  0  0  0  0  0  0  0  0  0  0  0
   34.8890   29.3370   37.5450 N   0  0  0  0  0  0  0  0  0  0  0  0
   36.1580   29.7920   37.5460 C   0  0  0  0  0  0  0  0  0  0  0  0
   36.8630   29.7980   36.3850 N   0  0  0  0  0  0  0  0  0  0  0  0
   36.7750   29.3230   34.2850 H   0  0  0  0  0  0  0  0  0  0  0  0
   34.4690   28.5120   34.3500 H   0  0  0  0  0  0  0  0  0  0  0  0
   33.2430   28.5390   36.5490 H   0  0  0  0  0  0  0  0  0  0  0  0
   37.6060   28.2100   42.7040 C   0  0  1  0  0  3  0  0  0  0  0  0
   38.5670   28.7520   41.6620 C   0  0  2  0  0  3  0  0  0  0  0  0
   39.6050   29.1810   42.4700 O   0  0  0  0  0  0  0  0  0  0  0  0
   39.8980   27.9930   43.1730 C   0  0  0  0  0  2  0  0  0  0  0  0
   38.5830   27.3600   43.5120 C   0  0  2  0  0  3  0  0  0  0  0  0
   37.1820   29.2170   43.5760 O   0  0  0  0  0  0  0  0  0  0  0  0
   37.8810   29.4470   44.2390 H   0  0  0  0  0  0  0  0  0  0  0  0
   38.4990   26.0570   43.0030 O   0  0  0  0  0  0  0  0  0  0  0  0
   39.0400   25.9850   42.1950 H   0  0  0  0  0  0  0  0  0  0  0  0
  1  2  1  0  0  0  0
  2  7  1  0  0  0  0
  3  4  1  0  0  0  0
  3  2  2  0  0  0  0
  4  5  2  0  0  0  0
  5  9  1  0  0  0  0
  5  6  1  0  0  0  0
  6 10  1  0  0  0  0
  7  6  2  0  0  0  0
  8  4  1  0  0  0  0
 11 16  1  0  0  0  0
 12 11  2  0  0  0  0
 12 13  1  0  0  0  0
 13 19  1  0  0  0  0
 13 14  2  0  0  0  0
 14 15  1  0  0  0  0
 15  3  1  0  0  0  0
 16 15  2  0  0  0  0
 17 11  1  0  0  0  0
 18 12  1  0  0  0  0
 20 24  1  0  0  0  0
 20 25  1  1  0  0  0
 21  7  1  1  0  0  0
 21 22  1  0  0  0  0
 21 20  1  0  0  0  0
 22 23  1  0  0  0  0
 23 24  1  0  0  0  0
 24 27  1  6  0  0  0
 25 26  1  0  0  0  0
 28 27  1  0  0  0  0
M  END
>  <minimizedAffinity>
-5.19470119

$$$$

 OpenBabel03242510103D

 28 30  0  0  1  0  0  0  0  0999 V2000
   40.5460   29.6090   41.0450 Br  0  0  0  0  0  0  0  0  0  0  0  0
   39.1520   30.8400   40.5770 C   0  0  0  0  0  0  0  0  0  0  0  0
   37.8350   30.5420   40.8820 C   0  0  0  0  0  0  0  0  0  0  0  0
   36.8170   31.4250   40.5470 C   0  0  0  0  0  0  0  0  0  0  0  0
   37.1520   32.5900   39.9140 C   0  0  0  0  0  0  0  0  0  0  0  0
   38.4640   32.8570   39.6260 C   0  0  0  0  0  0  0  0  0  0  0  0
   39.4860   32.0130   39.9400 C   0  0  0  0  0  0  0  0  0  0  0  0
   35.7940   31.2080   40.7760 H   0  0  0  0  0  0  0  0  0  0  0  0
   36.3750   33.2960   39.6420 H   0  0  0  0  0  0  0  0  0  0  0  0
   38.7000   33.7830   39.1260 H   0  0  0  0  0  0  0  0  0  0  0  0
   37.2710   28.1290   43.5630 C   0  0  0  0  0  0  0  0  0  0  0  0
   36.9900   26.9270   42.8700 C   0  0  0  0  0  0  0  0  0  0  0  0
   37.0030   26.9730   41.4690 C   0  0  0  0  0  0  0  0  0  0  0  0
   37.2780   28.1560   40.8730 N   0  0  0  0  0  0  0  0  0  0  0  0
   37.5430   29.2890   41.5550 C   0  0  0  0  0  0  0  0  0  0  0  0
   37.5360   29.2650   42.9120 N   0  0  0  0  0  0  0  0  0  0  0  0
   37.2420   28.0080   44.6370 H   0  0  0  0  0  0  0  0  0  0  0  0
   36.7710   25.9860   43.3430 H   0  0  0  0  0  0  0  0  0  0  0  0
   36.8050   26.1290   40.8300 H   0  0  0  0  0  0  0  0  0  0  0  0
   41.6630   32.9080   40.7860 C   0  0  1  0  0  3  0  0  0  0  0  0
   40.8890   32.2830   39.6400 C   0  0  2  0  0  3  0  0  0  0  0  0
   41.1260   33.2070   38.6380 O   0  0  0  0  0  0  0  0  0  0  0  0
   42.5370   33.2280   38.6290 C   0  0  0  0  0  2  0  0  0  0  0  0
   42.9760   33.1950   40.0610 C   0  0  2  0  0  3  0  0  0  0  0  0
   41.1450   34.1610   41.1250 O   0  0  0  0  0  0  0  0  0  0  0  0
   41.4120   34.8580   40.4730 H   0  0  0  0  0  0  0  0  0  0  0  0
   43.8200   32.1050   40.3100 O   0  0  0  0  0  0  0  0  0  0  0  0
   43.5970   31.3730   39.7050 H   0  0  0  0  0  0  0  0  0  0  0  0
  2  3  1  0  0  0  0
  2  1  1  0  0  0  0
  3 15  1  0  0  0  0
  4  8  1  0  0  0  0
  4  3  2  0  0  0  0
  5  4  1  0  0  0  0
  6  5  2  0  0  0  0
  6  7  1  0  0  0  0
  7  2  2  0  0  0  0
  9  5  1  0  0  0  0
 10  6  1  0  0  0  0
 11 17  1  0  0  0  0
 12 18  1  0  0  0  0
 12 11  2  0  0  0  0
 13 12  1  0  0  0  0
 14 13  2  0  0  0  0
 14 15  1  0  0  0  0
 15 16  2  0  0  0  0
 16 11  1  0  0  0  0
 19 13  1  0  0  0  0
 20 25  1  6  0  0  0
 21  7  1  1  0  0  0
 21 20  1  0  0  0  0
 22 21  1  0  0  0  0
 23 22  1  0  0  0  0
 23 24  1  0  0  0  0
 24 27  1  6  0  0  0
 24 20  1  0  0  0  0
 26 25  1  0  0  0  0
 28 27  1  0  0  0  0
M  END
>  <minimizedAffinity>
-5.1022644

$$$$

 OpenBabel03242510103D

 28 30  0  0  1  0  0  0  0  0999 V2000
   36.5280   26.9560   38.2670 Br  0  0  0  0  0  0  0  0  0  0  0  0
   36.7170   26.2580   40.0430 C   0  0  0  0  0  0  0  0  0  0  0  0
   36.7090   24.8900   40.2530 C   0  0  0  0  0  0  0  0  0  0  0  0
   36.8450   24.3730   41.5340 C   0  0  0  0  0  0  0  0  0  0  0  0
   36.9870   25.2490   42.5760 C   0  0  0  0  0  0  0  0  0  0  0  0
   36.9910   26.5970   42.3350 C   0  0  0  0  0  0  0  0  0  0  0  0
   36.8600   27.1370   41.0910 C   0  0  0  0  0  0  0  0  0  0  0  0
   36.8390   23.3180   41.7130 H   0  0  0  0  0  0  0  0  0  0  0  0
   37.0950   24.8700   43.5850 H   0  0  0  0  0  0  0  0  0  0  0  0
   37.1050   27.2660   43.1740 H   0  0  0  0  0  0  0  0  0  0  0  0
   37.5620   22.7430   37.4260 C   0  0  0  0  0  0  0  0  0  0  0  0
   36.3000   22.3370   36.9280 C   0  0  0  0  0  0  0  0  0  0  0  0
   35.1620   22.8210   37.5880 C   0  0  0  0  0  0  0  0  0  0  0  0
   35.3410   23.6370   38.6520 N   0  0  0  0  0  0  0  0  0  0  0  0
   36.5540   24.0110   39.1080 C   0  0  0  0  0  0  0  0  0  0  0  0
   37.6690   23.5540   38.4820 N   0  0  0  0  0  0  0  0  0  0  0  0
   38.3850   22.3280   36.8620 H   0  0  0  0  0  0  0  0  0  0  0  0
   36.1570   21.6880   36.0830 H   0  0  0  0  0  0  0  0  0  0  0  0
   34.1490   22.5860   37.3070 H   0  0  0  0  0  0  0  0  0  0  0  0
   37.6120   29.3990   41.8490 C   0  0  1  0  0  3  0  0  0  0  0  0
   36.8640   28.5720   40.8200 C   0  0  2  0  0  3  0  0  0  0  0  0
   35.6280   29.1940   40.8400 O   0  0  0  0  0  0  0  0  0  0  0  0
   36.0010   30.5260   40.5610 C   0  0  0  0  0  2  0  0  0  0  0  0
   37.2510   30.7940   41.3420 C   0  0  2  0  0  3  0  0  0  0  0  0
   37.0190   29.2990   43.1100 O   0  0  0  0  0  0  0  0  0  0  0  0
   36.1920   29.8410   43.1720 H   0  0  0  0  0  0  0  0  0  0  0  0
   38.2970   31.2010   40.5040 O   0  0  0  0  0  0  0  0  0  0  0  0
   38.1820   30.8050   39.6200 H   0  0  0  0  0  0  0  0  0  0  0  0
  1  2  1  0  0  0  0
  2  3  2  0  0  0  0
  2  7  1  0  0  0  0
  3  4  1  0  0  0  0
  4  8  1  0  0  0  0
  4  5  2  0  0  0  0
  5  9  1  0  0  0  0
  6  5  1  0  0  0  0
  6 10  1  0  0  0  0
  7  6  2  0  0  0  0
 11 16  1  0  0  0  0
 12 11  2  0  0  0  0
 12 13  1  0  0  0  0
 13 14  2  0  0  0  0
 14 15  1  0  0  0  0
 15  3  1  0  0  0  0
 16 15  2  0  0  0  0
 17 11  1  0  0  0  0
 18 12  1  0  0  0  0
 19 13  1  0  0  0  0
 20 25  1  1  0  0  0
 21 22  1  0  0  0  0
 21  7  1  1  0  0  0
 21 20  1  0  0  0  0
 23 22  1  0  0  0  0
 23 24  1  0  0  0  0
 24 27  1  6  0  0  0
 24 20  1  0  0  0  0
 25 26  1  0  0  0  0
 28 27  1  0  0  0  0
M  END
>  <minimizedAffinity>
-5.01226521

$$$$

 OpenBabel03242510103D

 28 30  0  0  1  0  0  0  0  0999 V2000
   37.7510   27.6040   39.0750 Br  0  0  0  0  0  0  0  0  0  0  0  0
   37.6100   27.8710   40.9690 C   0  0  0  0  0  0  0  0  0  0  0  0
   37.5630   26.7800   41.8200 C   0  0  0  0  0  0  0  0  0  0  0  0
   37.4610   26.9610   43.1920 C   0  0  0  0  0  0  0  0  0  0  0  0
   37.4080   28.2400   43.6760 C   0  0  0  0  0  0  0  0  0  0  0  0
   37.4560   29.2990   42.8080 C   0  0  0  0  0  0  0  0  0  0  0  0
   37.5570   29.1560   41.4570 C   0  0  0  0  0  0  0  0  0  0  0  0
   37.4230   26.1280   43.8630 H   0  0  0  0  0  0  0  0  0  0  0  0
   37.3280   28.4080   44.7440 H   0  0  0  0  0  0  0  0  0  0  0  0
   37.4130   30.2970   43.2160 H   0  0  0  0  0  0  0  0  0  0  0  0
   38.9250   23.6270   40.5810 C   0  0  0  0  0  0  0  0  0  0  0  0
   37.7760   22.9150   40.1620 C   0  0  0  0  0  0  0  0  0  0  0  0
   36.5350   23.5460   40.3160 C   0  0  0  0  0  0  0  0  0  0  0  0
   36.5140   24.7880   40.8540 N   0  0  0  0  0  0  0  0  0  0  0  0
   37.6230   25.4480   41.2460 C   0  0  0  0  0  0  0  0  0  0  0  0
   38.8350   24.8530   41.1050 N   0  0  0  0  0  0  0  0  0  0  0  0
   39.8400   23.0720   40.4270 H   0  0  0  0  0  0  0  0  0  0  0  0
   37.7920   21.9280   39.7350 H   0  0  0  0  0  0  0  0  0  0  0  0
   35.5900   23.1100   40.0380 H   0  0  0  0  0  0  0  0  0  0  0  0
   38.9860   30.8960   40.3680 C   0  0  1  0  0  3  0  0  0  0  0  0
   37.6100   30.2750   40.5210 C   0  0  2  0  0  3  0  0  0  0  0  0
   36.8630   31.3880   40.8650 O   0  0  0  0  0  0  0  0  0  0  0  0
   37.1520   32.2430   39.7800 C   0  0  0  0  0  2  0  0  0  0  0  0
   38.6140   32.0900   39.4910 C   0  0  2  0  0  3  0  0  0  0  0  0
   39.4300   31.4470   41.5730 O   0  0  0  0  0  0  0  0  0  0  0  0
   38.9850   32.3100   41.7690 H   0  0  0  0  0  0  0  0  0  0  0  0
   38.8310   31.6970   38.1640 O   0  0  0  0  0  0  0  0  0  0  0  0
   38.0710   31.1740   37.8480 H   0  0  0  0  0  0  0  0  0  0  0  0
  1  2  1  0  0  0  0
  2  7  2  0  0  0  0
  2  3  1  0  0  0  0
  3  4  2  0  0  0  0
  4  5  1  0  0  0  0
  4  8  1  0  0  0  0
  5  9  1  0  0  0  0
  6 10  1  0  0  0  0
  6  5  2  0  0  0  0
  7  6  1  0  0  0  0
 11 16  1  0  0  0  0
 12 13  1  0  0  0  0
 12 11  2  0  0  0  0
 13 14  2  0  0  0  0
 14 15  1  0  0  0  0
 15  3  1  0  0  0  0
 16 15  2  0  0  0  0
 17 11  1  0  0  0  0
 18 12  1  0  0  0  0
 19 13  1  0  0  0  0
 20 21  1  0  0  0  0
 20 25  1  1  0  0  0
 21 22  1  0  0  0  0
 21  7  1  1  0  0  0
 23 22  1  0  0  0  0
 24 27  1  6  0  0  0
 24 23  1  0  0  0  0
 24 20  1  0  0  0  0
 25 26  1  0  0  0  0
 28 27  1  0  0  0  0
M  END
>  <minimizedAffinity>
-5.00869703

$$$$
