
 OpenBabel03252502393D

 46 49  0  0  1  0  0  0  0  0999 V2000
   46.3880   32.6550   40.6440 C   0  0  1  0  0  0  0  0  0  0  0  0
   45.4000   32.1940   40.3470 H   0  0  0  0  0  0  0  0  0  0  0  0
   46.0780   33.5420   41.7340 N   0  0  0  0  0  0  0  0  0  0  0  0
   45.0820   34.4940   41.4080 C   0  0  0  0  0  0  0  0  0  0  0  0
   45.1800   35.5710   42.5020 C   0  0  0  0  0  0  0  0  0  0  0  0
   44.6360   34.9150   43.6620 N   0  0  0  0  0  0  0  0  0  0  0  0
   45.3520   33.7670   44.0460 C   0  0  0  0  0  0  0  0  0  0  0  0
   45.7950   32.8460   42.9190 C   0  0  0  0  0  0  0  0  0  0  0  0
   44.0550   34.0510   41.4980 H   0  0  0  0  0  0  0  0  0  0  0  0
   45.1880   34.9530   40.4200 H   0  0  0  0  0  0  0  0  0  0  0  0
   46.2390   35.7930   42.6710 H   0  0  0  0  0  0  0  0  0  0  0  0
   44.5540   36.4430   42.2590 H   0  0  0  0  0  0  0  0  0  0  0  0
   43.6170   34.9100   43.7390 H   0  0  0  0  0  0  0  0  0  0  0  0
   44.7740   33.2190   44.8250 H   0  0  0  0  0  0  0  0  0  0  0  0
   46.2860   34.1130   44.5750 H   0  0  0  0  0  0  0  0  0  0  0  0
   44.7840   32.3650   42.7150 H   0  0  0  0  0  0  0  0  0  0  0  0
   46.4880   32.1930   43.3940 H   0  0  0  0  0  0  0  0  0  0  0  0
   46.7420   32.8570   38.1830 C   0  0  0  0  0  0  0  0  0  0  0  0
   46.9920   33.2380   39.4890 C   0  0  0  0  0  0  0  0  0  0  0  0
   47.9190   34.2870   39.6520 C   0  0  0  0  0  0  0  0  0  0  0  0
   48.5050   34.8560   38.5530 N   0  0  0  0  0  0  0  0  0  0  0  0
   48.2080   34.4240   37.3000 C   0  0  0  0  0  0  0  0  0  0  0  0
   47.3290   33.4280   37.1210 N   0  0  0  0  0  0  0  0  0  0  0  0
   46.0330   32.0540   38.0650 H   0  0  0  0  0  0  0  0  0  0  0  0
   48.1570   34.6340   40.6510 H   0  0  0  0  0  0  0  0  0  0  0  0
   48.7300   34.9420   36.4930 H   0  0  0  0  0  0  0  0  0  0  0  0
   47.3150   31.5440   41.1570 C   0  0  0  0  0  0  0  0  0  0  0  0
   46.9260   30.9430   41.9750 H   0  0  0  0  0  0  0  0  0  0  0  0
   47.1570   30.8200   40.2940 H   0  0  0  0  0  0  0  0  0  0  0  0
   48.6840   31.8960   41.3410 C   0  0  0  0  0  0  0  0  0  0  0  0
   49.4280   32.6310   42.1990 C   0  0  0  0  0  0  0  0  0  0  0  0
   50.7930   32.8490   42.1770 C   0  0  0  0  0  0  0  0  0  0  0  0
   51.4450   32.2600   41.1880 N   0  0  0  0  0  0  0  0  0  0  0  0
   50.8040   31.5260   40.3070 C   0  0  0  0  0  0  0  0  0  0  0  0
   49.4960   31.3660   40.3980 N   0  0  0  0  0  0  0  0  0  0  0  0
   48.7950   33.0900   42.9860 H   0  0  0  0  0  0  0  0  0  0  0  0
   51.1730   33.4740   42.9670 H   0  0  0  0  0  0  0  0  0  0  0  0
   50.9650   31.2570   37.8620 C   0  0  2  0  0  0  0  0  0  0  0  0
   51.6130   30.8820   39.2020 C   0  0  1  0  0  0  0  0  0  0  0  0
   52.8540   31.4400   39.0470 O   0  0  0  0  0  0  0  0  0  0  0  0
   53.2690   30.8840   37.8430 C   0  0  0  0  0  0  0  0  0  0  0  0
   52.0830   30.8600   36.9190 C   0  0  1  0  0  0  0  0  0  0  0  0
   50.8570   32.6400   37.8170 O   0  0  0  0  0  0  0  0  0  0  0  0
   50.2930   32.9600   37.0870 H   0  0  0  0  0  0  0  0  0  0  0  0
   51.7880   29.5480   36.4830 O   0  0  0  0  0  0  0  0  0  0  0  0
   51.4880   28.9970   37.2480 H   0  0  0  0  0  0  0  0  0  0  0  0
  1  2  1  6  0  0  0
  1 27  1  0  0  0  0
  1  3  1  0  0  0  0
  3  8  1  0  0  0  0
  4  9  1  0  0  0  0
  4  3  1  0  0  0  0
  4  5  1  0  0  0  0
  5 11  1  0  0  0  0
  5  6  1  0  0  0  0
  6 13  1  0  0  0  0
  6  7  1  0  0  0  0
  7 15  1  0  0  0  0
  7 14  1  0  0  0  0
  8 17  1  0  0  0  0
  8  7  1  0  0  0  0
 10  4  1  0  0  0  0
 12  5  1  0  0  0  0
 16  8  1  0  0  0  0
 18 19  1  0  0  0  0
 19 20  2  0  0  0  0
 19  1  1  0  0  0  0
 20 25  1  0  0  0  0
 21 20  1  0  0  0  0
 22 21  2  0  0  0  0
 23 22  1  0  0  0  0
 23 18  2  0  0  0  0
 24 18  1  0  0  0  0
 26 22  1  0  0  0  0
 27 30  1  0  0  0  0
 27 28  1  0  0  0  0
 29 27  1  0  0  0  0
 30 31  1  0  0  0  0
 31 36  1  0  0  0  0
 32 31  2  0  0  0  0
 32 37  1  0  0  0  0
 33 32  1  0  0  0  0
 34 35  1  0  0  0  0
 34 33  2  0  0  0  0
 35 30  2  0  0  0  0
 38 43  1  1  0  0  0
 38 39  1  0  0  0  0
 39 34  1  1  0  0  0
 40 39  1  0  0  0  0
 41 40  1  0  0  0  0
 42 45  1  1  0  0  0
 42 41  1  0  0  0  0
 42 38  1  0  0  0  0
 44 43  1  0  0  0  0
 45 46  1  0  0  0  0
M  END
>  <minimizedAffinity>
-5.06021118

>  <minimizedRMSD>
4.14176369

$$$$
