
 OpenBabel03242518413D

 39 42  0  0  1  0  0  0  0  0999 V2000
   36.9330   32.0620   40.6250 O   0  0  0  0  0  0  0  0  0  0  0  0
   36.5510   30.7120   40.8180 C   0  0  0  0  0  0  0  0  0  0  0  0
   35.6470   29.8950   40.1230 C   0  0  0  0  0  0  0  0  0  0  0  0
   35.6330   28.6430   40.7140 C   0  0  0  0  0  0  0  0  0  0  0  0
   36.5210   28.7600   41.7330 C   0  0  0  0  0  0  0  0  0  0  0  0
   37.0570   29.9670   41.7940 O   0  0  0  0  0  0  0  0  0  0  0  0
   35.1050   30.2880   39.2720 H   0  0  0  0  0  0  0  0  0  0  0  0
   35.0210   27.8260   40.3720 H   0  0  0  0  0  0  0  0  0  0  0  0
   36.8520   27.6630   42.6720 C   0  0  2  0  0  0  0  0  0  0  0  0
   37.6980   27.9060   43.8390 C   0  0  0  0  0  0  0  0  0  0  0  0
   38.3590   27.2820   42.6630 C   0  0  1  0  0  0  0  0  0  0  0  0
   36.1510   26.8050   42.6260 H   0  0  0  0  0  0  0  0  0  0  0  0
   37.9990   28.9620   44.0570 H   0  0  0  0  0  0  0  0  0  0  0  0
   37.5660   27.2930   44.7720 H   0  0  0  0  0  0  0  0  0  0  0  0
   38.9990   27.8430   41.9770 H   0  0  0  0  0  0  0  0  0  0  0  0
   39.7220   25.3450   43.4190 C   0  0  0  0  0  0  0  0  0  0  0  0
   40.6180   26.0920   43.9080 O   0  0  0  0  0  0  0  0  0  0  0  0
   38.5720   25.8400   42.7530 N   0  0  0  0  0  0  0  0  0  0  0  0
   39.8040   24.2590   43.4960 H   0  0  0  0  0  0  0  0  0  0  0  0
   37.8760   25.1900   42.3260 H   0  0  0  0  0  0  0  0  0  0  0  0
   37.5830   32.4190   39.4250 C   0  0  0  0  0  0  0  0  0  0  0  0
   37.1020   31.9360   38.3580 O   0  0  0  0  0  0  0  0  0  0  0  0
   38.7070   33.2780   39.5370 C   0  0  0  0  0  0  0  0  0  0  0  0
   38.4790   34.4990   40.0860 C   0  0  0  0  0  0  0  0  0  0  0  0
   39.5430   35.3860   40.2230 C   0  0  0  0  0  0  0  0  0  0  0  0
   40.7510   34.9980   39.8050 N   0  0  0  0  0  0  0  0  0  0  0  0
   40.9570   33.7890   39.2660 C   0  0  0  0  0  0  0  0  0  0  0  0
   39.9240   32.9610   39.1480 N   0  0  0  0  0  0  0  0  0  0  0  0
   37.5240   34.8620   40.4390 H   0  0  0  0  0  0  0  0  0  0  0  0
   39.4020   36.3640   40.6520 H   0  0  0  0  0  0  0  0  0  0  0  0
   43.0100   34.3860   38.0630 C   0  0  1  0  0  3  0  0  0  0  0  0
   42.2640   33.2520   38.7680 C   0  0  1  0  0  3  0  0  0  0  0  0
   43.0980   32.9590   39.8230 O   0  0  0  0  0  0  0  0  0  0  0  0
   44.3960   33.0220   39.3810 C   0  0  0  0  0  2  0  0  0  0  0  0
   44.4430   33.9140   38.1790 C   0  0  2  0  0  3  0  0  0  0  0  0
   42.6110   34.5450   36.7470 O   0  0  0  0  0  0  0  0  0  0  0  0
   41.6690   34.3220   36.5770 H   0  0  0  0  0  0  0  0  0  0  0  0
   45.2610   35.0320   38.3730 O   0  0  0  0  0  0  0  0  0  0  0  0
   44.8220   35.7760   37.8840 H   0  0  0  0  0  0  0  0  0  0  0  0
  1  2  1  0  0  0  0
  2  6  1  0  0  0  0
  3  4  1  0  0  0  0
  3  2  2  0  0  0  0
  4  5  2  0  0  0  0
  5  6  1  0  0  0  0
  5  9  1  0  0  0  0
  7  3  1  0  0  0  0
  8  4  1  0  0  0  0
  9 12  1  1  0  0  0
  9 10  1  0  0  0  0
 10 13  1  0  0  0  0
 10 14  1  0  0  0  0
 11 15  1  6  0  0  0
 11  9  1  0  0  0  0
 11 18  1  0  0  0  0
 11 10  1  0  0  0  0
 16 19  1  0  0  0  0
 16 17  2  0  0  0  0
 18 16  1  0  0  0  0
 20 18  1  0  0  0  0
 21 23  1  0  0  0  0
 21  1  1  0  0  0  0
 22 21  2  0  0  0  0
 23 24  1  0  0  0  0
 24 25  2  0  0  0  0
 24 29  1  0  0  0  0
 25 30  1  0  0  0  0
 26 25  1  0  0  0  0
 27 26  2  0  0  0  0
 28 27  1  0  0  0  0
 28 23  2  0  0  0  0
 31 36  1  6  0  0  0
 31 35  1  0  0  0  0
 31 32  1  0  0  0  0
 32 27  1  1  0  0  0
 32 33  1  0  0  0  0
 34 33  1  0  0  0  0
 35 38  1  1  0  0  0
 35 34  1  0  0  0  0
 37 36  1  0  0  0  0
 39 38  1  0  0  0  0
M  END
>  <minimizedAffinity>
-7.46096182

$$$$

 OpenBabel03242518413D

 39 42  0  0  1  0  0  0  0  0999 V2000
   36.4630   31.2520   40.9940 O   0  0  0  0  0  0  0  0  0  0  0  0
   36.7430   29.9530   41.4830 C   0  0  0  0  0  0  0  0  0  0  0  0
   36.0630   28.7360   41.3260 C   0  0  0  0  0  0  0  0  0  0  0  0
   36.7520   27.7480   42.0100 C   0  0  0  0  0  0  0  0  0  0  0  0
   37.8080   28.4090   42.5470 C   0  0  0  0  0  0  0  0  0  0  0  0
   37.8040   29.6950   42.2400 O   0  0  0  0  0  0  0  0  0  0  0  0
   35.1540   28.6940   40.7390 H   0  0  0  0  0  0  0  0  0  0  0  0
   36.4410   26.7190   42.0500 H   0  0  0  0  0  0  0  0  0  0  0  0
   38.8480   27.7660   43.3840 C   0  0  2  0  0  0  0  0  0  0  0  0
   40.2650   28.0490   43.1650 C   0  0  0  0  0  0  0  0  0  0  0  0
   39.7490   26.7790   42.5900 C   0  0  1  0  0  0  0  0  0  0  0  0
   38.4700   27.3820   44.3530 H   0  0  0  0  0  0  0  0  0  0  0  0
   40.5330   28.8410   42.4210 H   0  0  0  0  0  0  0  0  0  0  0  0
   40.9920   27.9970   44.0210 H   0  0  0  0  0  0  0  0  0  0  0  0
   39.5230   26.6600   41.5280 H   0  0  0  0  0  0  0  0  0  0  0  0
   39.4860   24.3350   42.9630 C   0  0  0  0  0  0  0  0  0  0  0  0
   38.6630   24.2180   42.0100 O   0  0  0  0  0  0  0  0  0  0  0  0
   40.0610   25.5720   43.3500 N   0  0  0  0  0  0  0  0  0  0  0  0
   39.7930   23.4590   43.5400 H   0  0  0  0  0  0  0  0  0  0  0  0
   40.7040   25.6330   44.1700 H   0  0  0  0  0  0  0  0  0  0  0  0
   37.1410   31.7050   39.8430 C   0  0  0  0  0  0  0  0  0  0  0  0
   36.7910   31.1850   38.7420 O   0  0  0  0  0  0  0  0  0  0  0  0
   38.1410   32.6920   40.0370 C   0  0  0  0  0  0  0  0  0  0  0  0
   37.7430   33.9850   39.9150 C   0  0  0  0  0  0  0  0  0  0  0  0
   38.6800   34.9990   40.0950 C   0  0  0  0  0  0  0  0  0  0  0  0
   39.9390   34.6560   40.3790 N   0  0  0  0  0  0  0  0  0  0  0  0
   40.3130   33.3750   40.4950 C   0  0  0  0  0  0  0  0  0  0  0  0
   39.3990   32.4270   40.3200 N   0  0  0  0  0  0  0  0  0  0  0  0
   36.7390   34.3150   39.6870 H   0  0  0  0  0  0  0  0  0  0  0  0
   38.4040   36.0360   40.0060 H   0  0  0  0  0  0  0  0  0  0  0  0
   42.5280   34.0670   41.2930 C   0  0  1  0  0  3  0  0  0  0  0  0
   41.6920   32.8800   40.8110 C   0  0  1  0  0  3  0  0  0  0  0  0
   41.6680   32.0630   41.9180 O   0  0  0  0  0  0  0  0  0  0  0  0
   42.9100   32.0900   42.5040 C   0  0  0  0  0  2  0  0  0  0  0  0
   43.5890   33.3660   42.1130 C   0  0  2  0  0  3  0  0  0  0  0  0
   43.0660   34.7960   40.2470 O   0  0  0  0  0  0  0  0  0  0  0  0
   42.5130   34.8120   39.4350 H   0  0  0  0  0  0  0  0  0  0  0  0
   43.8950   34.1690   43.2170 O   0  0  0  0  0  0  0  0  0  0  0  0
   43.7730   35.1060   42.9110 H   0  0  0  0  0  0  0  0  0  0  0  0
  1  2  1  0  0  0  0
  2  6  1  0  0  0  0
  3  2  2  0  0  0  0
  3  4  1  0  0  0  0
  4  8  1  0  0  0  0
  4  5  2  0  0  0  0
  5  9  1  0  0  0  0
  6  5  1  0  0  0  0
  7  3  1  0  0  0  0
  9 12  1  1  0  0  0
 10  9  1  0  0  0  0
 10 14  1  0  0  0  0
 11 15  1  6  0  0  0
 11 10  1  0  0  0  0
 11 18  1  0  0  0  0
 11  9  1  0  0  0  0
 13 10  1  0  0  0  0
 16 18  1  0  0  0  0
 16 19  1  0  0  0  0
 17 16  2  0  0  0  0
 18 20  1  0  0  0  0
 21 23  1  0  0  0  0
 21  1  1  0  0  0  0
 22 21  2  0  0  0  0
 23 28  1  0  0  0  0
 24 23  2  0  0  0  0
 24 25  1  0  0  0  0
 25 26  2  0  0  0  0
 26 27  1  0  0  0  0
 28 27  2  0  0  0  0
 29 24  1  0  0  0  0
 30 25  1  0  0  0  0
 31 36  1  6  0  0  0
 31 35  1  0  0  0  0
 32 27  1  1  0  0  0
 32 31  1  0  0  0  0
 32 33  1  0  0  0  0
 33 34  1  0  0  0  0
 35 34  1  0  0  0  0
 35 38  1  1  0  0  0
 37 36  1  0  0  0  0
 39 38  1  0  0  0  0
M  END
>  <minimizedAffinity>
-6.61106586

$$$$

 OpenBabel03242518413D

 39 42  0  0  1  0  0  0  0  0999 V2000
   36.4950   27.7320   42.3090 O   0  0  0  0  0  0  0  0  0  0  0  0
   36.7660   28.6930   41.3040 C   0  0  0  0  0  0  0  0  0  0  0  0
   37.2330   28.5530   39.9880 C   0  0  0  0  0  0  0  0  0  0  0  0
   37.3310   29.8090   39.4140 C   0  0  0  0  0  0  0  0  0  0  0  0
   36.9230   30.6450   40.4030 C   0  0  0  0  0  0  0  0  0  0  0  0
   36.5930   29.9940   41.5050 O   0  0  0  0  0  0  0  0  0  0  0  0
   37.4470   27.5690   39.5910 H   0  0  0  0  0  0  0  0  0  0  0  0
   37.6670   29.9820   38.4060 H   0  0  0  0  0  0  0  0  0  0  0  0
   36.8570   32.1190   40.2650 C   0  0  2  0  0  0  0  0  0  0  0  0
   37.3340   32.7790   39.0510 C   0  0  0  0  0  0  0  0  0  0  0  0
   38.2570   32.7930   40.2170 C   0  0  1  0  0  0  0  0  0  0  0  0
   36.1270   32.6010   40.9450 H   0  0  0  0  0  0  0  0  0  0  0  0
   37.6510   32.1330   38.1940 H   0  0  0  0  0  0  0  0  0  0  0  0
   36.8750   33.7480   38.7160 H   0  0  0  0  0  0  0  0  0  0  0  0
   39.1200   32.1280   40.2950 H   0  0  0  0  0  0  0  0  0  0  0  0
   39.2510   35.0370   40.6160 C   0  0  0  0  0  0  0  0  0  0  0  0
   40.1120   34.8820   39.7030 O   0  0  0  0  0  0  0  0  0  0  0  0
   38.3010   34.0440   40.9680 N   0  0  0  0  0  0  0  0  0  0  0  0
   39.2050   35.9700   41.1820 H   0  0  0  0  0  0  0  0  0  0  0  0
   37.6330   34.1940   41.7560 H   0  0  0  0  0  0  0  0  0  0  0  0
   37.3830   27.6220   43.3990 C   0  0  0  0  0  0  0  0  0  0  0  0
   37.1310   28.3460   44.4070 O   0  0  0  0  0  0  0  0  0  0  0  0
   38.4650   26.7140   43.2550 C   0  0  0  0  0  0  0  0  0  0  0  0
   38.2170   25.5930   42.5290 C   0  0  0  0  0  0  0  0  0  0  0  0
   39.2390   24.6650   42.3520 C   0  0  0  0  0  0  0  0  0  0  0  0
   40.4280   24.9160   42.9080 N   0  0  0  0  0  0  0  0  0  0  0  0
   40.6530   26.0280   43.6210 C   0  0  0  0  0  0  0  0  0  0  0  0
   39.6600   26.8980   43.7740 N   0  0  0  0  0  0  0  0  0  0  0  0
   37.2760   25.3430   42.0600 H   0  0  0  0  0  0  0  0  0  0  0  0
   39.0820   23.7640   41.7840 H   0  0  0  0  0  0  0  0  0  0  0  0
   43.0950   25.9140   43.4090 C   0  0  1  0  0  3  0  0  0  0  0  0
   41.9420   26.4080   44.2840 C   0  0  1  0  0  3  0  0  0  0  0  0
   42.1120   27.7740   44.2570 O   0  0  0  0  0  0  0  0  0  0  0  0
   43.4560   28.0450   44.3300 C   0  0  0  0  0  2  0  0  0  0  0  0
   44.2070   26.8500   43.8310 C   0  0  2  0  0  3  0  0  0  0  0  0
   43.4060   24.5860   43.6420 O   0  0  0  0  0  0  0  0  0  0  0  0
   42.6400   24.0280   43.9020 H   0  0  0  0  0  0  0  0  0  0  0  0
   44.9890   27.1400   42.7070 O   0  0  0  0  0  0  0  0  0  0  0  0
   44.9560   26.3270   42.1390 H   0  0  0  0  0  0  0  0  0  0  0  0
  1 21  1  0  0  0  0
  2  6  1  0  0  0  0
  2  1  1  0  0  0  0
  3  2  2  0  0  0  0
  4  3  1  0  0  0  0
  4  5  2  0  0  0  0
  5  6  1  0  0  0  0
  7  3  1  0  0  0  0
  8  4  1  0  0  0  0
  9  5  1  0  0  0  0
  9 12  1  1  0  0  0
 10 11  1  0  0  0  0
 10  9  1  0  0  0  0
 11  9  1  0  0  0  0
 11 15  1  6  0  0  0
 11 18  1  0  0  0  0
 13 10  1  0  0  0  0
 14 10  1  0  0  0  0
 16 18  1  0  0  0  0
 16 19  1  0  0  0  0
 17 16  2  0  0  0  0
 18 20  1  0  0  0  0
 21 22  2  0  0  0  0
 23 21  1  0  0  0  0
 23 28  1  0  0  0  0
 24 23  2  0  0  0  0
 25 24  1  0  0  0  0
 25 26  2  0  0  0  0
 26 27  1  0  0  0  0
 27 28  2  0  0  0  0
 29 24  1  0  0  0  0
 30 25  1  0  0  0  0
 31 36  1  1  0  0  0
 31 35  1  0  0  0  0
 31 32  1  0  0  0  0
 32 27  1  6  0  0  0
 33 32  1  0  0  0  0
 33 34  1  0  0  0  0
 35 38  1  6  0  0  0
 35 34  1  0  0  0  0
 36 37  1  0  0  0  0
 39 38  1  0  0  0  0
M  END
>  <minimizedAffinity>
-6.60994339

$$$$

 OpenBabel03242518413D

 39 42  0  0  1  0  0  0  0  0999 V2000
   36.1980   29.1000   38.7920 O   0  0  0  0  0  0  0  0  0  0  0  0
   36.5280   28.0230   39.6500 C   0  0  0  0  0  0  0  0  0  0  0  0
   36.6340   26.6440   39.4100 C   0  0  0  0  0  0  0  0  0  0  0  0
   36.9860   26.0130   40.5910 C   0  0  0  0  0  0  0  0  0  0  0  0
   37.0750   27.0300   41.4850 C   0  0  0  0  0  0  0  0  0  0  0  0
   36.8080   28.2030   40.9360 O   0  0  0  0  0  0  0  0  0  0  0  0
   36.4490   26.2510   38.4190 H   0  0  0  0  0  0  0  0  0  0  0  0
   37.1330   24.9500   40.6820 H   0  0  0  0  0  0  0  0  0  0  0  0
   37.4280   26.8500   42.9120 C   0  0  2  0  0  0  0  0  0  0  0  0
   37.4970   27.9960   43.8160 C   0  0  0  0  0  0  0  0  0  0  0  0
   38.7930   27.4900   43.2910 C   0  0  1  0  0  0  0  0  0  0  0  0
   37.2740   25.8170   43.2860 H   0  0  0  0  0  0  0  0  0  0  0  0
   37.1750   28.9930   43.4240 H   0  0  0  0  0  0  0  0  0  0  0  0
   37.2730   27.8680   44.9100 H   0  0  0  0  0  0  0  0  0  0  0  0
   39.3380   27.9860   42.4840 H   0  0  0  0  0  0  0  0  0  0  0  0
   40.9740   26.5950   44.0800 C   0  0  0  0  0  0  0  0  0  0  0  0
   41.6150   27.1870   43.1650 O   0  0  0  0  0  0  0  0  0  0  0  0
   39.5640   26.6590   44.2120 N   0  0  0  0  0  0  0  0  0  0  0  0
   41.5010   25.9960   44.8260 H   0  0  0  0  0  0  0  0  0  0  0  0
   39.0680   26.1220   44.9570 H   0  0  0  0  0  0  0  0  0  0  0  0
   37.2300   29.7310   38.0670 C   0  0  0  0  0  0  0  0  0  0  0  0
   37.5410   29.2060   36.9560 O   0  0  0  0  0  0  0  0  0  0  0  0
   37.8130   30.8840   38.6540 C   0  0  0  0  0  0  0  0  0  0  0  0
   36.9690   31.7090   39.3250 C   0  0  0  0  0  0  0  0  0  0  0  0
   37.4820   32.8570   39.9230 C   0  0  0  0  0  0  0  0  0  0  0  0
   38.7900   33.1000   39.8100 N   0  0  0  0  0  0  0  0  0  0  0  0
   39.6070   32.2730   39.1450 C   0  0  0  0  0  0  0  0  0  0  0  0
   39.0920   31.1850   38.5840 N   0  0  0  0  0  0  0  0  0  0  0  0
   35.9050   31.5590   39.4440 H   0  0  0  0  0  0  0  0  0  0  0  0
   36.8450   33.5370   40.4630 H   0  0  0  0  0  0  0  0  0  0  0  0
   41.3520   32.7190   37.4780 C   0  0  1  0  0  3  0  0  0  0  0  0
   41.0840   32.4480   38.9590 C   0  0  1  0  0  3  0  0  0  0  0  0
   41.5100   33.6130   39.5560 O   0  0  0  0  0  0  0  0  0  0  0  0
   42.6570   34.0290   38.9270 C   0  0  0  0  0  2  0  0  0  0  0  0
   42.6750   33.4500   37.5460 C   0  0  2  0  0  3  0  0  0  0  0  0
   41.4290   31.5560   36.7320 O   0  0  0  0  0  0  0  0  0  0  0  0
   40.8620   30.8240   37.0590 H   0  0  0  0  0  0  0  0  0  0  0  0
   42.6860   34.4350   36.5530 O   0  0  0  0  0  0  0  0  0  0  0  0
   42.1410   34.0720   35.8060 H   0  0  0  0  0  0  0  0  0  0  0  0
  1  2  1  0  0  0  0
  2  6  1  0  0  0  0
  3  2  2  0  0  0  0
  3  4  1  0  0  0  0
  4  8  1  0  0  0  0
  4  5  2  0  0  0  0
  5  9  1  0  0  0  0
  6  5  1  0  0  0  0
  7  3  1  0  0  0  0
  9 12  1  1  0  0  0
  9 11  1  0  0  0  0
  9 10  1  0  0  0  0
 10 14  1  0  0  0  0
 11 15  1  6  0  0  0
 11 10  1  0  0  0  0
 11 18  1  0  0  0  0
 13 10  1  0  0  0  0
 16 18  1  0  0  0  0
 16 19  1  0  0  0  0
 17 16  2  0  0  0  0
 18 20  1  0  0  0  0
 21 23  1  0  0  0  0
 21  1  1  0  0  0  0
 22 21  2  0  0  0  0
 23 24  1  0  0  0  0
 24 29  1  0  0  0  0
 24 25  2  0  0  0  0
 25 30  1  0  0  0  0
 26 25  1  0  0  0  0
 27 26  2  0  0  0  0
 28 23  2  0  0  0  0
 28 27  1  0  0  0  0
 31 36  1  6  0  0  0
 31 35  1  0  0  0  0
 31 32  1  0  0  0  0
 32 27  1  6  0  0  0
 32 33  1  0  0  0  0
 34 33  1  0  0  0  0
 35 38  1  6  0  0  0
 35 34  1  0  0  0  0
 36 37  1  0  0  0  0
 39 38  1  0  0  0  0
M  END
>  <minimizedAffinity>
-6.56812

$$$$

 OpenBabel03242518413D

 39 42  0  0  1  0  0  0  0  0999 V2000
   38.0480   29.5730   38.2680 O   0  0  0  0  0  0  0  0  0  0  0  0
   37.3240   29.1440   39.4070 C   0  0  0  0  0  0  0  0  0  0  0  0
   36.0120   29.4130   39.8270 C   0  0  0  0  0  0  0  0  0  0  0  0
   35.7820   28.7500   41.0200 C   0  0  0  0  0  0  0  0  0  0  0  0
   36.9570   28.1170   41.2670 C   0  0  0  0  0  0  0  0  0  0  0  0
   37.8570   28.3470   40.3250 O   0  0  0  0  0  0  0  0  0  0  0  0
   35.3720   30.0500   39.2300 H   0  0  0  0  0  0  0  0  0  0  0  0
   34.8510   28.7890   41.5580 H   0  0  0  0  0  0  0  0  0  0  0  0
   37.2060   27.2670   42.4540 C   0  0  2  0  0  0  0  0  0  0  0  0
   36.9190   27.7580   43.8000 C   0  0  0  0  0  0  0  0  0  0  0  0
   38.3400   27.8080   43.3680 C   0  0  1  0  0  0  0  0  0  0  0  0
   37.2640   26.1830   42.2260 H   0  0  0  0  0  0  0  0  0  0  0  0
   36.4100   28.7500   43.8980 H   0  0  0  0  0  0  0  0  0  0  0  0
   36.6280   27.0410   44.6150 H   0  0  0  0  0  0  0  0  0  0  0  0
   38.8280   28.7310   43.0440 H   0  0  0  0  0  0  0  0  0  0  0  0
   40.6010   26.9240   43.9090 C   0  0  0  0  0  0  0  0  0  0  0  0
   41.1770   27.9500   43.4450 O   0  0  0  0  0  0  0  0  0  0  0  0
   39.1940   26.7450   43.8910 N   0  0  0  0  0  0  0  0  0  0  0  0
   41.1840   26.1150   44.3540 H   0  0  0  0  0  0  0  0  0  0  0  0
   38.7590   25.8650   44.2450 H   0  0  0  0  0  0  0  0  0  0  0  0
   37.8540   30.8870   37.7940 C   0  0  0  0  0  0  0  0  0  0  0  0
   37.3120   31.0020   36.6550 O   0  0  0  0  0  0  0  0  0  0  0  0
   38.2860   31.9420   38.6400 C   0  0  0  0  0  0  0  0  0  0  0  0
   37.3260   32.8030   39.0650 C   0  0  0  0  0  0  0  0  0  0  0  0
   37.6880   33.8590   39.8980 C   0  0  0  0  0  0  0  0  0  0  0  0
   38.9720   33.9820   40.2440 N   0  0  0  0  0  0  0  0  0  0  0  0
   39.9050   33.1220   39.8150 C   0  0  0  0  0  0  0  0  0  0  0  0
   39.5320   32.1230   39.0220 N   0  0  0  0  0  0  0  0  0  0  0  0
   36.2750   32.7490   38.8140 H   0  0  0  0  0  0  0  0  0  0  0  0
   36.9560   34.5640   40.2550 H   0  0  0  0  0  0  0  0  0  0  0  0
   41.6990   34.5630   40.6660 C   0  0  1  0  0  3  0  0  0  0  0  0
   41.3670   33.1650   40.1420 C   0  0  1  0  0  3  0  0  0  0  0  0
   41.6410   32.3660   41.2280 O   0  0  0  0  0  0  0  0  0  0  0  0
   42.7800   32.8350   41.8350 C   0  0  0  0  0  2  0  0  0  0  0  0
   42.9390   34.2820   41.4870 C   0  0  2  0  0  3  0  0  0  0  0  0
   41.9340   35.4690   39.6480 O   0  0  0  0  0  0  0  0  0  0  0  0
   41.4200   35.3030   38.8270 H   0  0  0  0  0  0  0  0  0  0  0  0
   42.9180   35.1090   42.6150 O   0  0  0  0  0  0  0  0  0  0  0  0
   42.4580   35.9420   42.3300 H   0  0  0  0  0  0  0  0  0  0  0  0
  1  2  1  0  0  0  0
  2  3  2  0  0  0  0
  2  6  1  0  0  0  0
  3  4  1  0  0  0  0
  4  5  2  0  0  0  0
  4  8  1  0  0  0  0
  5  9  1  0  0  0  0
  6  5  1  0  0  0  0
  7  3  1  0  0  0  0
  9 12  1  6  0  0  0
  9 11  1  0  0  0  0
  9 10  1  0  0  0  0
 10 13  1  0  0  0  0
 10 14  1  0  0  0  0
 11 15  1  6  0  0  0
 11 10  1  0  0  0  0
 11 18  1  0  0  0  0
 16 19  1  0  0  0  0
 17 16  2  0  0  0  0
 18 16  1  0  0  0  0
 18 20  1  0  0  0  0
 21  1  1  0  0  0  0
 21 23  1  0  0  0  0
 22 21  2  0  0  0  0
 23 28  2  0  0  0  0
 23 24  1  0  0  0  0
 24 25  2  0  0  0  0
 25 26  1  0  0  0  0
 25 30  1  0  0  0  0
 27 26  2  0  0  0  0
 28 27  1  0  0  0  0
 29 24  1  0  0  0  0
 31 36  1  6  0  0  0
 31 35  1  0  0  0  0
 32 27  1  1  0  0  0
 32 31  1  0  0  0  0
 32 33  1  0  0  0  0
 33 34  1  0  0  0  0
 35 34  1  0  0  0  0
 35 38  1  1  0  0  0
 37 36  1  0  0  0  0
 39 38  1  0  0  0  0
M  END
>  <minimizedAffinity>
-6.48223877

$$$$

 OpenBabel03242518413D

 39 42  0  0  1  0  0  0  0  0999 V2000
   38.5710   30.2360   40.0590 O   0  0  0  0  0  0  0  0  0  0  0  0
   39.0820   29.4770   41.1400 C   0  0  0  0  0  0  0  0  0  0  0  0
   40.1670   29.7020   42.0010 C   0  0  0  0  0  0  0  0  0  0  0  0
   40.2490   28.6520   42.8980 C   0  0  0  0  0  0  0  0  0  0  0  0
   39.2180   27.8440   42.5410 C   0  0  0  0  0  0  0  0  0  0  0  0
   38.5370   28.3260   41.5150 O   0  0  0  0  0  0  0  0  0  0  0  0
   40.7730   30.5930   41.8880 H   0  0  0  0  0  0  0  0  0  0  0  0
   40.9970   28.5790   43.6690 H   0  0  0  0  0  0  0  0  0  0  0  0
   38.8930   26.5680   43.2200 C   0  0  2  0  0  0  0  0  0  0  0  0
   39.9520   25.6540   43.6410 C   0  0  0  0  0  0  0  0  0  0  0  0
   39.2530   25.3150   42.3740 C   0  0  1  0  0  0  0  0  0  0  0  0
   37.8860   26.5500   43.6820 H   0  0  0  0  0  0  0  0  0  0  0  0
   41.0130   25.9930   43.5300 H   0  0  0  0  0  0  0  0  0  0  0  0
   39.8030   24.9870   44.5340 H   0  0  0  0  0  0  0  0  0  0  0  0
   39.6890   25.5010   41.3900 H   0  0  0  0  0  0  0  0  0  0  0  0
   37.3540   24.0450   41.3920 C   0  0  0  0  0  0  0  0  0  0  0  0
   37.3480   24.7510   40.3430 O   0  0  0  0  0  0  0  0  0  0  0  0
   38.2440   24.2640   42.4740 N   0  0  0  0  0  0  0  0  0  0  0  0
   36.6520   23.2150   41.5050 H   0  0  0  0  0  0  0  0  0  0  0  0
   38.1890   23.6860   43.3410 H   0  0  0  0  0  0  0  0  0  0  0  0
   38.1270   31.5520   40.3030 C   0  0  0  0  0  0  0  0  0  0  0  0
   36.9500   31.6750   40.7560 O   0  0  0  0  0  0  0  0  0  0  0  0
   39.0400   32.6000   40.0180 C   0  0  0  0  0  0  0  0  0  0  0  0
   38.6270   33.8580   40.3180 C   0  0  0  0  0  0  0  0  0  0  0  0
   39.4790   34.9280   40.0600 C   0  0  0  0  0  0  0  0  0  0  0  0
   40.6760   34.6710   39.5250 N   0  0  0  0  0  0  0  0  0  0  0  0
   41.0670   33.4220   39.2370 C   0  0  0  0  0  0  0  0  0  0  0  0
   40.2340   32.4190   39.4920 N   0  0  0  0  0  0  0  0  0  0  0  0
   37.6710   34.1200   40.7500 H   0  0  0  0  0  0  0  0  0  0  0  0
   39.1870   35.9400   40.2830 H   0  0  0  0  0  0  0  0  0  0  0  0
   43.0360   34.2690   38.0410 C   0  0  1  0  0  3  0  0  0  0  0  0
   42.3810   33.0220   38.6380 C   0  0  1  0  0  3  0  0  0  0  0  0
   43.2700   32.6630   39.6260 O   0  0  0  0  0  0  0  0  0  0  0  0
   44.5450   32.8520   39.1520 C   0  0  0  0  0  2  0  0  0  0  0  0
   44.4960   33.8720   38.0570 C   0  0  2  0  0  3  0  0  0  0  0  0
   42.5780   34.5480   36.7650 O   0  0  0  0  0  0  0  0  0  0  0  0
   41.6440   34.2910   36.6020 H   0  0  0  0  0  0  0  0  0  0  0  0
   45.2580   35.0070   38.3490 O   0  0  0  0  0  0  0  0  0  0  0  0
   44.7610   35.7740   37.9600 H   0  0  0  0  0  0  0  0  0  0  0  0
  1 21  1  0  0  0  0
  1  2  1  0  0  0  0
  2  6  1  0  0  0  0
  2  3  2  0  0  0  0
  3  4  1  0  0  0  0
  4  8  1  0  0  0  0
  5  4  2  0  0  0  0
  5  9  1  0  0  0  0
  6  5  1  0  0  0  0
  7  3  1  0  0  0  0
  9 10  1  0  0  0  0
  9 12  1  1  0  0  0
 10 14  1  0  0  0  0
 11 15  1  6  0  0  0
 11 18  1  0  0  0  0
 11  9  1  0  0  0  0
 11 10  1  0  0  0  0
 13 10  1  0  0  0  0
 16 19  1  0  0  0  0
 16 18  1  0  0  0  0
 17 16  2  0  0  0  0
 18 20  1  0  0  0  0
 21 22  2  0  0  0  0
 23 21  1  0  0  0  0
 23 24  1  0  0  0  0
 24 29  1  0  0  0  0
 25 30  1  0  0  0  0
 25 24  2  0  0  0  0
 26 25  1  0  0  0  0
 27 28  1  0  0  0  0
 27 26  2  0  0  0  0
 28 23  2  0  0  0  0
 31 36  1  6  0  0  0
 31 35  1  0  0  0  0
 31 32  1  0  0  0  0
 32 27  1  1  0  0  0
 32 33  1  0  0  0  0
 34 33  1  0  0  0  0
 35 38  1  1  0  0  0
 35 34  1  0  0  0  0
 37 36  1  0  0  0  0
 39 38  1  0  0  0  0
M  END
>  <minimizedAffinity>
-6.45638561

$$$$

 OpenBabel03242518413D

 39 42  0  0  1  0  0  0  0  0999 V2000
   36.4130   28.5640   39.3350 O   0  0  0  0  0  0  0  0  0  0  0  0
   36.6430   27.8420   40.5320 C   0  0  0  0  0  0  0  0  0  0  0  0
   36.6660   28.2520   41.8730 C   0  0  0  0  0  0  0  0  0  0  0  0
   36.9390   27.1540   42.6710 C   0  0  0  0  0  0  0  0  0  0  0  0
   37.0700   26.1370   41.7820 C   0  0  0  0  0  0  0  0  0  0  0  0
   36.8970   26.5390   40.5330 O   0  0  0  0  0  0  0  0  0  0  0  0
   36.4820   29.2890   42.1260 H   0  0  0  0  0  0  0  0  0  0  0  0
   37.0130   27.1960   43.7440 H   0  0  0  0  0  0  0  0  0  0  0  0
   37.3740   24.7390   42.1630 C   0  0  2  0  0  0  0  0  0  0  0  0
   38.7050   24.3630   42.6330 C   0  0  0  0  0  0  0  0  0  0  0  0
   38.3950   24.0530   41.2130 C   0  0  1  0  0  0  0  0  0  0  0  0
   36.4760   24.1340   42.4030 H   0  0  0  0  0  0  0  0  0  0  0  0
   39.4530   25.1800   42.7950 H   0  0  0  0  0  0  0  0  0  0  0  0
   38.8320   23.5120   43.3560 H   0  0  0  0  0  0  0  0  0  0  0  0
   38.7670   24.6550   40.3810 H   0  0  0  0  0  0  0  0  0  0  0  0
   38.4360   22.0810   39.6980 C   0  0  0  0  0  0  0  0  0  0  0  0
   39.0270   22.7230   38.7830 O   0  0  0  0  0  0  0  0  0  0  0  0
   38.0520   22.6600   40.9350 N   0  0  0  0  0  0  0  0  0  0  0  0
   38.1940   21.0240   39.5660 H   0  0  0  0  0  0  0  0  0  0  0  0
   37.5290   22.1080   41.6480 H   0  0  0  0  0  0  0  0  0  0  0  0
   37.5220   29.0300   38.5990 C   0  0  0  0  0  0  0  0  0  0  0  0
   38.0570   28.2030   37.8020 O   0  0  0  0  0  0  0  0  0  0  0  0
   37.9250   30.3710   38.8270 C   0  0  0  0  0  0  0  0  0  0  0  0
   36.9340   31.2580   39.1050 C   0  0  0  0  0  0  0  0  0  0  0  0
   37.2660   32.5900   39.3380 C   0  0  0  0  0  0  0  0  0  0  0  0
   38.5530   32.9420   39.2780 N   0  0  0  0  0  0  0  0  0  0  0  0
   39.5170   32.0530   39.0030 C   0  0  0  0  0  0  0  0  0  0  0  0
   39.1720   30.7880   38.7850 N   0  0  0  0  0  0  0  0  0  0  0  0
   35.8800   31.0250   39.1640 H   0  0  0  0  0  0  0  0  0  0  0  0
   36.5090   33.3230   39.5600 H   0  0  0  0  0  0  0  0  0  0  0  0
   41.3310   32.6100   37.4480 C   0  0  1  0  0  3  0  0  0  0  0  0
   40.9850   32.3380   38.9120 C   0  0  1  0  0  3  0  0  0  0  0  0
   41.2800   33.5390   39.5160 O   0  0  0  0  0  0  0  0  0  0  0  0
   42.4330   34.0340   38.9570 C   0  0  0  0  0  2  0  0  0  0  0  0
   42.5870   33.4410   37.5910 C   0  0  2  0  0  3  0  0  0  0  0  0
   41.5460   31.4470   36.7290 O   0  0  0  0  0  0  0  0  0  0  0  0
   41.0150   30.6780   37.0310 H   0  0  0  0  0  0  0  0  0  0  0  0
   42.5910   34.4120   36.5830 O   0  0  0  0  0  0  0  0  0  0  0  0
   42.1270   33.9990   35.8090 H   0  0  0  0  0  0  0  0  0  0  0  0
  1  2  1  0  0  0  0
  2  6  1  0  0  0  0
  2  3  2  0  0  0  0
  3  7  1  0  0  0  0
  3  4  1  0  0  0  0
  4  8  1  0  0  0  0
  5  9  1  0  0  0  0
  5  4  2  0  0  0  0
  6  5  1  0  0  0  0
  9 12  1  1  0  0  0
  9 10  1  0  0  0  0
 10 13  1  0  0  0  0
 10 14  1  0  0  0  0
 11 15  1  6  0  0  0
 11  9  1  0  0  0  0
 11 10  1  0  0  0  0
 16 18  1  0  0  0  0
 17 16  2  0  0  0  0
 18 11  1  0  0  0  0
 18 20  1  0  0  0  0
 19 16  1  0  0  0  0
 21 23  1  0  0  0  0
 21  1  1  0  0  0  0
 22 21  2  0  0  0  0
 23 24  1  0  0  0  0
 24 29  1  0  0  0  0
 24 25  2  0  0  0  0
 25 30  1  0  0  0  0
 26 25  1  0  0  0  0
 27 26  2  0  0  0  0
 28 23  2  0  0  0  0
 28 27  1  0  0  0  0
 31 36  1  6  0  0  0
 31 35  1  0  0  0  0
 31 32  1  0  0  0  0
 32 27  1  6  0  0  0
 32 33  1  0  0  0  0
 34 33  1  0  0  0  0
 35 38  1  6  0  0  0
 35 34  1  0  0  0  0
 36 37  1  0  0  0  0
 39 38  1  0  0  0  0
M  END
>  <minimizedAffinity>
-6.36298895

$$$$

 OpenBabel03242518413D

 39 42  0  0  1  0  0  0  0  0999 V2000
   36.9580   27.4960   42.3270 O   0  0  0  0  0  0  0  0  0  0  0  0
   36.5500   28.5510   41.4760 C   0  0  0  0  0  0  0  0  0  0  0  0
   35.6680   28.5750   40.3840 C   0  0  0  0  0  0  0  0  0  0  0  0
   35.6100   29.8650   39.8860 C   0  0  0  0  0  0  0  0  0  0  0  0
   36.4550   30.5580   40.6920 C   0  0  0  0  0  0  0  0  0  0  0  0
   37.0020   29.7910   41.6200 O   0  0  0  0  0  0  0  0  0  0  0  0
   35.1660   27.6670   40.0730 H   0  0  0  0  0  0  0  0  0  0  0  0
   35.0050   30.1560   39.0450 H   0  0  0  0  0  0  0  0  0  0  0  0
   36.7340   32.0050   40.5480 C   0  0  2  0  0  0  0  0  0  0  0  0
   37.2220   32.5520   39.2840 C   0  0  0  0  0  0  0  0  0  0  0  0
   38.2410   32.3210   40.3410 C   0  0  1  0  0  0  0  0  0  0  0  0
   36.2200   32.6380   41.3010 H   0  0  0  0  0  0  0  0  0  0  0  0
   37.2780   31.8650   38.4030 H   0  0  0  0  0  0  0  0  0  0  0  0
   36.9780   33.6100   38.9920 H   0  0  0  0  0  0  0  0  0  0  0  0
   38.9210   31.4660   40.3300 H   0  0  0  0  0  0  0  0  0  0  0  0
   39.6990   34.3260   40.5360 C   0  0  0  0  0  0  0  0  0  0  0  0
   40.3150   34.0550   39.4660 O   0  0  0  0  0  0  0  0  0  0  0  0
   38.6700   33.5110   41.0720 N   0  0  0  0  0  0  0  0  0  0  0  0
   39.9440   35.2270   41.1030 H   0  0  0  0  0  0  0  0  0  0  0  0
   38.2140   33.7470   41.9800 H   0  0  0  0  0  0  0  0  0  0  0  0
   37.6690   27.8090   43.5040 C   0  0  0  0  0  0  0  0  0  0  0  0
   36.9750   28.1230   44.5160 O   0  0  0  0  0  0  0  0  0  0  0  0
   39.0850   27.7410   43.4340 C   0  0  0  0  0  0  0  0  0  0  0  0
   39.6640   26.6480   43.9940 C   0  0  0  0  0  0  0  0  0  0  0  0
   41.0500   26.5250   43.9560 C   0  0  0  0  0  0  0  0  0  0  0  0
   41.7570   27.4940   43.3680 N   0  0  0  0  0  0  0  0  0  0  0  0
   41.1680   28.5650   42.8200 C   0  0  0  0  0  0  0  0  0  0  0  0
   39.8430   28.6570   42.8690 N   0  0  0  0  0  0  0  0  0  0  0  0
   39.1390   25.8380   44.4810 H   0  0  0  0  0  0  0  0  0  0  0  0
   41.5470   25.6740   44.3900 H   0  0  0  0  0  0  0  0  0  0  0  0
   41.7280   30.9460   43.0200 C   0  0  1  0  0  3  0  0  0  0  0  0
   41.8610   29.7040   42.1370 C   0  0  1  0  0  3  0  0  0  0  0  0
   43.2220   29.4980   42.1170 O   0  0  0  0  0  0  0  0  0  0  0  0
   43.8450   30.7180   42.0270 C   0  0  0  0  0  2  0  0  0  0  0  0
   42.9150   31.7630   42.5610 C   0  0  2  0  0  3  0  0  0  0  0  0
   40.5260   31.6050   42.8290 O   0  0  0  0  0  0  0  0  0  0  0  0
   39.7730   31.0210   42.5930 H   0  0  0  0  0  0  0  0  0  0  0  0
   43.4440   32.4340   43.6700 O   0  0  0  0  0  0  0  0  0  0  0  0
   42.6720   32.6210   44.2650 H   0  0  0  0  0  0  0  0  0  0  0  0
  1 21  1  0  0  0  0
  2  6  1  0  0  0  0
  2  1  1  0  0  0  0
  3  2  2  0  0  0  0
  4  3  1  0  0  0  0
  4  5  2  0  0  0  0
  5  6  1  0  0  0  0
  7  3  1  0  0  0  0
  8  4  1  0  0  0  0
  9  5  1  0  0  0  0
  9 12  1  1  0  0  0
 10 11  1  0  0  0  0
 10  9  1  0  0  0  0
 11 15  1  6  0  0  0
 11  9  1  0  0  0  0
 11 18  1  0  0  0  0
 13 10  1  0  0  0  0
 14 10  1  0  0  0  0
 16 18  1  0  0  0  0
 16 19  1  0  0  0  0
 17 16  2  0  0  0  0
 18 20  1  0  0  0  0
 21 22  2  0  0  0  0
 23 21  1  0  0  0  0
 23 24  1  0  0  0  0
 24 29  1  0  0  0  0
 25 24  2  0  0  0  0
 25 30  1  0  0  0  0
 26 25  1  0  0  0  0
 27 28  1  0  0  0  0
 27 26  2  0  0  0  0
 28 23  2  0  0  0  0
 31 36  1  6  0  0  0
 32 27  1  1  0  0  0
 32 31  1  0  0  0  0
 33 32  1  0  0  0  0
 34 33  1  0  0  0  0
 34 35  1  0  0  0  0
 35 31  1  0  0  0  0
 35 38  1  1  0  0  0
 37 36  1  0  0  0  0
 38 39  1  0  0  0  0
M  END
>  <minimizedAffinity>
-6.32262421

$$$$

 OpenBabel03242518413D

 39 42  0  0  1  0  0  0  0  0999 V2000
   36.1770   29.4780   41.7390 O   0  0  0  0  0  0  0  0  0  0  0  0
   36.9210   28.3700   42.2130 C   0  0  0  0  0  0  0  0  0  0  0  0
   37.9990   28.2910   43.1070 C   0  0  0  0  0  0  0  0  0  0  0  0
   38.3720   26.9640   43.2390 C   0  0  0  0  0  0  0  0  0  0  0  0
   37.5100   26.3060   42.4240 C   0  0  0  0  0  0  0  0  0  0  0  0
   36.6620   27.1260   41.8250 O   0  0  0  0  0  0  0  0  0  0  0  0
   38.3920   29.1900   43.5630 H   0  0  0  0  0  0  0  0  0  0  0  0
   39.1780   26.6280   43.8690 H   0  0  0  0  0  0  0  0  0  0  0  0
   37.5160   24.8380   42.2240 C   0  0  2  0  0  0  0  0  0  0  0  0
   38.7700   24.1180   42.0110 C   0  0  0  0  0  0  0  0  0  0  0  0
   37.9650   24.4160   40.7970 C   0  0  1  0  0  0  0  0  0  0  0  0
   36.6050   24.3300   42.5990 H   0  0  0  0  0  0  0  0  0  0  0  0
   39.7260   24.6900   42.1080 H   0  0  0  0  0  0  0  0  0  0  0  0
   38.8710   23.0480   42.3410 H   0  0  0  0  0  0  0  0  0  0  0  0
   38.2160   25.2250   40.1060 H   0  0  0  0  0  0  0  0  0  0  0  0
   36.1500   23.5540   39.3330 C   0  0  0  0  0  0  0  0  0  0  0  0
   35.8250   24.7150   38.9520 O   0  0  0  0  0  0  0  0  0  0  0  0
   37.1830   23.3010   40.2710 N   0  0  0  0  0  0  0  0  0  0  0  0
   35.6310   22.6770   38.9390 H   0  0  0  0  0  0  0  0  0  0  0  0
   37.3930   22.3300   40.5920 H   0  0  0  0  0  0  0  0  0  0  0  0
   35.7230   29.4690   40.4040 C   0  0  0  0  0  0  0  0  0  0  0  0
   34.5400   29.0560   40.2130 O   0  0  0  0  0  0  0  0  0  0  0  0
   36.6340   29.9220   39.4150 C   0  0  0  0  0  0  0  0  0  0  0  0
   36.8030   29.1140   38.3360 C   0  0  0  0  0  0  0  0  0  0  0  0
   37.6840   29.5050   37.3320 C   0  0  0  0  0  0  0  0  0  0  0  0
   38.3320   30.6640   37.4730 N   0  0  0  0  0  0  0  0  0  0  0  0
   38.1520   31.4490   38.5440 C   0  0  0  0  0  0  0  0  0  0  0  0
   37.3050   31.0520   39.4880 N   0  0  0  0  0  0  0  0  0  0  0  0
   36.3050   28.1680   38.1750 H   0  0  0  0  0  0  0  0  0  0  0  0
   37.8460   28.8910   36.4620 H   0  0  0  0  0  0  0  0  0  0  0  0
   37.9870   33.5370   39.8220 C   0  0  1  0  0  3  0  0  0  0  0  0
   38.8230   32.7640   38.8010 C   0  0  1  0  0  3  0  0  0  0  0  0
   40.0110   32.5750   39.4710 O   0  0  0  0  0  0  0  0  0  0  0  0
   40.3030   33.7220   40.1670 C   0  0  0  0  0  2  0  0  0  0  0  0
   39.0260   34.4640   40.4130 C   0  0  2  0  0  3  0  0  0  0  0  0
   36.9380   34.2240   39.2350 O   0  0  0  0  0  0  0  0  0  0  0  0
   36.5630   33.7910   38.4380 H   0  0  0  0  0  0  0  0  0  0  0  0
   38.7520   34.6200   41.7760 O   0  0  0  0  0  0  0  0  0  0  0  0
   37.7660   34.5530   41.8630 H   0  0  0  0  0  0  0  0  0  0  0  0
  1  2  1  0  0  0  0
  2  3  2  0  0  0  0
  3  4  1  0  0  0  0
  3  7  1  0  0  0  0
  4  8  1  0  0  0  0
  5  4  2  0  0  0  0
  6  2  1  0  0  0  0
  6  5  1  0  0  0  0
  9  5  1  0  0  0  0
  9 12  1  1  0  0  0
 10 13  1  0  0  0  0
 10  9  1  0  0  0  0
 10 14  1  0  0  0  0
 11 15  1  6  0  0  0
 11 10  1  0  0  0  0
 11  9  1  0  0  0  0
 16 18  1  0  0  0  0
 17 16  2  0  0  0  0
 18 20  1  0  0  0  0
 18 11  1  0  0  0  0
 19 16  1  0  0  0  0
 21  1  1  0  0  0  0
 22 21  2  0  0  0  0
 23 28  1  0  0  0  0
 23 21  1  0  0  0  0
 24 23  2  0  0  0  0
 25 26  2  0  0  0  0
 25 24  1  0  0  0  0
 26 27  1  0  0  0  0
 27 28  2  0  0  0  0
 29 24  1  0  0  0  0
 30 25  1  0  0  0  0
 31 36  1  6  0  0  0
 31 35  1  0  0  0  0
 32 27  1  1  0  0  0
 32 33  1  0  0  0  0
 32 31  1  0  0  0  0
 33 34  1  0  0  0  0
 34 35  1  0  0  0  0
 35 38  1  1  0  0  0
 37 36  1  0  0  0  0
 38 39  1  0  0  0  0
M  END
>  <minimizedAffinity>
-6.21488047

$$$$
