
 OpenBabel03252506553D

 38 42  0  0  1  0  0  0  0  0999 V2000
   47.1660   31.3540   45.0880 C   0  0  0  0  0  0  0  0  0  0  0  0
   46.8830   32.7050   45.0890 C   0  0  0  0  0  0  0  0  0  0  0  0
   46.3160   33.3540   46.1690 C   0  0  0  0  0  0  0  0  0  0  0  0
   46.0040   32.6470   47.3190 C   0  0  0  0  0  0  0  0  0  0  0  0
   45.4590   32.9310   48.5380 N   0  0  0  0  0  0  0  0  0  0  0  0
   45.4090   31.7880   49.2630 C   0  0  0  0  0  0  0  0  0  0  0  0
   45.9250   30.8040   48.4840 N   0  0  0  0  0  0  0  0  0  0  0  0
   46.2960   31.2980   47.2970 C   0  0  0  0  0  0  0  0  0  0  0  0
   46.8560   30.6290   46.2400 C   0  0  0  0  0  0  0  0  0  0  0  0
   47.6050   30.8570   44.2450 H   0  0  0  0  0  0  0  0  0  0  0  0
   46.0920   34.4220   46.1730 H   0  0  0  0  0  0  0  0  0  0  0  0
   45.1530   33.8960   48.8000 H   0  0  0  0  0  0  0  0  0  0  0  0
   45.0140   31.7210   50.2870 H   0  0  0  0  0  0  0  0  0  0  0  0
   46.6110   35.1640   42.3580 C   0  0  0  0  0  0  0  0  0  0  0  0
   47.7950   34.9610   41.6550 C   0  0  0  0  0  0  0  0  0  0  0  0
   48.6800   33.9920   42.1080 C   0  0  0  0  0  0  0  0  0  0  0  0
   48.3460   33.2770   43.2340 N   0  0  0  0  0  0  0  0  0  0  0  0
   47.1940   33.4910   43.8980 C   0  0  0  0  0  0  0  0  0  0  0  0
   46.3390   34.4250   43.4630 N   0  0  0  0  0  0  0  0  0  0  0  0
   45.8980   35.9080   42.0360 H   0  0  0  0  0  0  0  0  0  0  0  0
   48.0110   35.5450   40.7820 H   0  0  0  0  0  0  0  0  0  0  0  0
   49.6150   33.7870   41.6060 H   0  0  0  0  0  0  0  0  0  0  0  0
   47.1270   29.1870   46.3180 C   0  0  0  0  0  0  0  0  0  0  0  0
   48.3890   28.6230   46.2280 C   0  0  0  0  0  0  0  0  0  0  0  0
   48.1430   27.2540   46.3560 C   0  0  0  0  0  0  0  0  0  0  0  0
   46.7710   27.0680   46.5140 C   0  0  0  0  0  0  0  0  0  0  0  0
   46.2150   28.2620   46.4840 O   0  0  0  0  0  0  0  0  0  0  0  0
   49.3550   29.0900   46.0910 H   0  0  0  0  0  0  0  0  0  0  0  0
   48.8610   26.4550   46.3400 H   0  0  0  0  0  0  0  0  0  0  0  0
   44.5690   26.0650   47.1450 C   0  0  2  0  0  3  0  0  0  0  0  0
   46.0090   25.8270   46.6870 C   0  0  1  0  0  3  0  0  0  0  0  0
   45.7700   25.1310   45.5050 O   0  0  0  0  0  0  0  0  0  0  0  0
   44.9820   24.0710   45.9590 C   0  0  0  0  0  2  0  0  0  0  0  0
   44.0170   24.6580   46.9630 C   0  0  2  0  0  3  0  0  0  0  0  0
   43.9080   26.8770   46.2020 O   0  0  0  0  0  0  0  0  0  0  0  0
   43.6090   26.3280   45.4240 H   0  0  0  0  0  0  0  0  0  0  0  0
   42.7060   24.6520   46.5030 O   0  0  0  0  0  0  0  0  0  0  0  0
   42.2000   25.3080   47.0470 H   0  0  0  0  0  0  0  0  0  0  0  0
  1  2  2  0  0  0  0
  1  9  1  0  0  0  0
  2  3  1  0  0  0  0
  3 11  1  0  0  0  0
  3  4  2  0  0  0  0
  4  5  1  0  0  0  0
  5 12  1  0  0  0  0
  5  6  1  0  0  0  0
  6 13  1  0  0  0  0
  7  6  2  0  0  0  0
  8  4  1  0  0  0  0
  8  7  1  0  0  0  0
  9 23  1  0  0  0  0
  9  8  2  0  0  0  0
 10  1  1  0  0  0  0
 14 19  1  0  0  0  0
 15 16  1  0  0  0  0
 15 14  2  0  0  0  0
 16 17  2  0  0  0  0
 17 18  1  0  0  0  0
 18  2  1  0  0  0  0
 19 18  2  0  0  0  0
 20 14  1  0  0  0  0
 21 15  1  0  0  0  0
 22 16  1  0  0  0  0
 23 27  1  0  0  0  0
 24 23  2  0  0  0  0
 24 25  1  0  0  0  0
 25 26  2  0  0  0  0
 27 26  1  0  0  0  0
 28 24  1  0  0  0  0
 29 25  1  0  0  0  0
 30 35  1  6  0  0  0
 31 26  1  6  0  0  0
 31 30  1  0  0  0  0
 32 33  1  0  0  0  0
 32 31  1  0  0  0  0
 33 34  1  0  0  0  0
 34 37  1  6  0  0  0
 34 30  1  0  0  0  0
 36 35  1  0  0  0  0
 37 38  1  0  0  0  0
M  END
>  <minimizedAffinity>
-5.67576742

>  <minimizedRMSD>
1.16039169

$$$$
