
 OpenBabel03252504133D

 35 37  0  0  1  0  0  0  0  0999 V2000
   47.5650   30.0000   44.9080 F   0  0  0  0  0  0  0  0  0  0  0  0
   47.4790   30.7660   46.0430 C   0  0  0  0  0  0  0  0  0  0  0  0
   46.9390   32.0440   45.9830 C   0  0  0  0  0  0  0  0  0  0  0  0
   46.8840   32.7620   47.1650 C   0  0  0  0  0  0  0  0  0  0  0  0
   47.3550   32.2050   48.3440 C   0  0  0  0  0  0  0  0  0  0  0  0
   47.8860   30.9260   48.3510 C   0  0  0  0  0  0  0  0  0  0  0  0
   47.9620   30.1700   47.1940 C   0  0  0  0  0  0  0  0  0  0  0  0
   46.4700   33.7610   47.1650 H   0  0  0  0  0  0  0  0  0  0  0  0
   47.2910   32.8080   49.2500 H   0  0  0  0  0  0  0  0  0  0  0  0
   48.2310   30.5640   49.3090 H   0  0  0  0  0  0  0  0  0  0  0  0
   46.7640   34.1390   42.9980 C   0  0  0  0  0  0  0  0  0  0  0  0
   45.6120   33.7170   42.3540 C   0  0  0  0  0  0  0  0  0  0  0  0
   44.8770   32.6760   42.9710 C   0  0  0  0  0  0  0  0  0  0  0  0
   45.3230   32.1530   44.1380 N   0  0  0  0  0  0  0  0  0  0  0  0
   46.4490   32.6030   44.7210 C   0  0  0  0  0  0  0  0  0  0  0  0
   47.1720   33.5960   44.1540 N   0  0  0  0  0  0  0  0  0  0  0  0
   43.9840   32.3300   42.4960 H   0  0  0  0  0  0  0  0  0  0  0  0
   45.2080   34.3440   41.0890 C   0  0  0  0  0  0  0  0  0  0  0  0
   44.9370   35.6840   41.2870 F   0  0  0  0  0  0  0  0  0  0  0  0
   46.2910   34.2920   40.2170 F   0  0  0  0  0  0  0  0  0  0  0  0
   44.1300   33.7790   40.4840 F   0  0  0  0  0  0  0  0  0  0  0  0
   47.4790   35.1420   42.4080 O   0  0  0  0  0  0  0  0  0  0  0  0
   48.7880   35.0600   41.9050 C   0  0  0  0  0  0  0  0  0  0  0  0
   49.6480   35.3300   42.9670 F   0  0  0  0  0  0  0  0  0  0  0  0
   48.9980   33.8390   41.3380 F   0  0  0  0  0  0  0  0  0  0  0  0
   49.0000   36.0960   41.0230 F   0  0  0  0  0  0  0  0  0  0  0  0
   49.9810   28.6830   46.9690 C   0  0  1  0  0  3  0  0  0  0  0  0
   48.5200   28.8260   47.2090 C   0  0  2  0  0  3  0  0  0  0  0  0
   47.9900   28.0260   46.1980 O   0  0  0  0  0  0  0  0  0  0  0  0
   48.7340   26.8590   46.2000 C   0  0  0  0  0  2  0  0  0  0  0  0
   50.0700   27.1730   46.8200 C   0  0  1  0  0  3  0  0  0  0  0  0
   50.4140   29.2160   45.7610 O   0  0  0  0  0  0  0  0  0  0  0  0
   50.1320   28.7070   44.9820 H   0  0  0  0  0  0  0  0  0  0  0  0
   51.1230   26.7910   45.9800 O   0  0  0  0  0  0  0  0  0  0  0  0
   51.6620   27.6090   45.8360 H   0  0  0  0  0  0  0  0  0  0  0  0
  1  2  1  0  0  0  0
  2  7  1  0  0  0  0
  3  2  2  0  0  0  0
  3  4  1  0  0  0  0
  4  5  2  0  0  0  0
  5  6  1  0  0  0  0
  5  9  1  0  0  0  0
  6 10  1  0  0  0  0
  7  6  2  0  0  0  0
  8  4  1  0  0  0  0
 11 16  1  0  0  0  0
 12 13  1  0  0  0  0
 12 11  2  0  0  0  0
 13 14  2  0  0  0  0
 14 15  1  0  0  0  0
 15  3  1  0  0  0  0
 16 15  2  0  0  0  0
 17 13  1  0  0  0  0
 18 19  1  0  0  0  0
 18 12  1  0  0  0  0
 20 18  1  0  0  0  0
 21 18  1  0  0  0  0
 22 11  1  0  0  0  0
 23 22  1  0  0  0  0
 23 24  1  0  0  0  0
 25 23  1  0  0  0  0
 26 23  1  0  0  0  0
 27 32  1  6  0  0  0
 27 28  1  0  0  0  0
 28  7  1  6  0  0  0
 29 30  1  0  0  0  0
 29 28  1  0  0  0  0
 30 31  1  0  0  0  0
 31 34  1  6  0  0  0
 31 27  1  0  0  0  0
 33 32  1  0  0  0  0
 35 34  1  0  0  0  0
M  END
>  <minimizedAffinity>
-5.53071022

>  <minimizedRMSD>
0.738667965

$$$$
