
 OpenBabel03252500413D

 28 30  0  0  1  0  0  0  0  0999 V2000
   47.3870   34.5580   41.2670 C   0  0  1  0  0  0  0  0  0  0  0  0
   48.5570   35.3080   40.6950 C   0  0  0  0  0  0  0  0  0  0  0  0
   48.2350   33.9160   40.2220 C   0  0  2  0  0  0  0  0  0  0  0  0
   46.4260   34.9200   40.8500 H   0  0  0  0  0  0  0  0  0  0  0  0
   49.4620   35.4820   41.3160 H   0  0  0  0  0  0  0  0  0  0  0  0
   48.4060   36.1470   39.9780 H   0  0  0  0  0  0  0  0  0  0  0  0
   48.9800   33.1640   40.5540 H   0  0  0  0  0  0  0  0  0  0  0  0
   48.5260   32.7290   38.0100 C   0  0  2  0  0  0  0  0  0  0  0  0
   47.7740   33.7410   38.8220 C   0  0  1  0  0  0  0  0  0  0  0  0
   46.4750   33.2690   38.7020 O   0  0  0  0  0  0  0  0  0  0  0  0
   46.3410   33.2580   37.3040 C   0  0  0  0  0  0  0  0  0  0  0  0
   47.6650   32.7670   36.7400 C   0  0  1  0  0  0  0  0  0  0  0  0
   48.4950   31.4770   38.5830 O   0  0  0  0  0  0  0  0  0  0  0  0
   47.7110   30.9650   38.2640 H   0  0  0  0  0  0  0  0  0  0  0  0
   48.2020   33.7430   35.9180 O   0  0  0  0  0  0  0  0  0  0  0  0
   47.6340   34.5560   35.8840 H   0  0  0  0  0  0  0  0  0  0  0  0
   47.5300   33.9930   42.6370 C   0  0  0  0  0  0  0  0  0  0  0  0
   47.3440   32.8820   42.5330 H   0  0  0  0  0  0  0  0  0  0  0  0
   48.5520   34.1830   43.0110 H   0  0  0  0  0  0  0  0  0  0  0  0
   46.4810   34.4480   43.5640 C   0  0  0  0  0  0  0  0  0  0  0  0
   45.7640   35.5410   43.1270 C   0  0  0  0  0  0  0  0  0  0  0  0
   44.7330   36.0810   43.9150 C   0  0  0  0  0  0  0  0  0  0  0  0
   44.5040   35.4620   45.1100 N   0  0  0  0  0  0  0  0  0  0  0  0
   45.2290   34.3850   45.5130 C   0  0  0  0  0  0  0  0  0  0  0  0
   46.2080   33.8740   44.7620 N   0  0  0  0  0  0  0  0  0  0  0  0
   45.7630   36.1690   42.2510 H   0  0  0  0  0  0  0  0  0  0  0  0
   44.0700   36.9100   43.7600 H   0  0  0  0  0  0  0  0  0  0  0  0
   44.9850   33.9480   46.4770 H   0  0  0  0  0  0  0  0  0  0  0  0
  1  4  1  6  0  0  0
  1 17  1  0  0  0  0
  2  1  1  0  0  0  0
  2  5  1  0  0  0  0
  3  7  1  1  0  0  0
  3  2  1  0  0  0  0
  3  1  1  0  0  0  0
  6  2  1  0  0  0  0
  8 13  1  1  0  0  0
  8  9  1  0  0  0  0
  9 10  1  1  0  0  0
  9  3  1  0  0  0  0
 11 10  1  0  0  0  0
 12 15  1  6  0  0  0
 12 11  1  0  0  0  0
 12  8  1  0  0  0  0
 14 13  1  0  0  0  0
 16 15  1  0  0  0  0
 17 19  1  0  0  0  0
 17 20  1  0  0  0  0
 18 17  1  0  0  0  0
 20 25  1  0  0  0  0
 21 20  2  0  0  0  0
 21 22  1  0  0  0  0
 22 23  2  0  0  0  0
 23 24  1  0  0  0  0
 24 28  1  0  0  0  0
 25 24  2  0  0  0  0
 26 21  1  0  0  0  0
 27 22  1  0  0  0  0
M  END
>  <minimizedAffinity>
-4.9753046

>  <minimizedRMSD>
1.85021544

$$$$
