
 OpenBabel03252506553D

 38 42  0  0  1  0  0  0  0  0999 V2000
   47.2650   31.2580   45.1760 C   0  0  0  0  0  0  0  0  0  0  0  0
   46.9200   32.5950   45.1390 C   0  0  0  0  0  0  0  0  0  0  0  0
   46.3170   33.2460   46.1970 C   0  0  0  0  0  0  0  0  0  0  0  0
   46.0300   32.5580   47.3650 C   0  0  0  0  0  0  0  0  0  0  0  0
   45.4640   32.8500   48.5710 N   0  0  0  0  0  0  0  0  0  0  0  0
   45.4620   31.7260   49.3280 C   0  0  0  0  0  0  0  0  0  0  0  0
   46.0280   30.7460   48.5790 N   0  0  0  0  0  0  0  0  0  0  0  0
   46.3840   31.2240   47.3810 C   0  0  0  0  0  0  0  0  0  0  0  0
   46.9820   30.5520   46.3460 C   0  0  0  0  0  0  0  0  0  0  0  0
   47.7330   30.7590   44.3500 H   0  0  0  0  0  0  0  0  0  0  0  0
   46.0440   34.3030   46.1690 H   0  0  0  0  0  0  0  0  0  0  0  0
   45.1130   33.8060   48.8060 H   0  0  0  0  0  0  0  0  0  0  0  0
   45.0640   31.6700   50.3520 H   0  0  0  0  0  0  0  0  0  0  0  0
   46.6450   35.0880   42.4380 C   0  0  0  0  0  0  0  0  0  0  0  0
   47.7500   34.7930   41.6460 C   0  0  0  0  0  0  0  0  0  0  0  0
   48.5840   33.7510   42.0290 C   0  0  0  0  0  0  0  0  0  0  0  0
   48.2790   33.0580   43.1760 N   0  0  0  0  0  0  0  0  0  0  0  0
   47.2030   33.3620   43.9270 C   0  0  0  0  0  0  0  0  0  0  0  0
   46.3970   34.3660   43.5600 N   0  0  0  0  0  0  0  0  0  0  0  0
   45.9730   35.8900   42.1730 H   0  0  0  0  0  0  0  0  0  0  0  0
   47.9450   35.3630   40.7600 H   0  0  0  0  0  0  0  0  0  0  0  0
   49.4570   33.4740   41.4560 H   0  0  0  0  0  0  0  0  0  0  0  0
   47.3180   29.1270   46.4660 C   0  0  0  0  0  0  0  0  0  0  0  0
   48.6090   28.6270   46.4720 C   0  0  0  0  0  0  0  0  0  0  0  0
   48.4240   27.2490   46.6050 C   0  0  0  0  0  0  0  0  0  0  0  0
   47.0550   26.9960   46.6710 C   0  0  0  0  0  0  0  0  0  0  0  0
   46.4430   28.1590   46.5830 O   0  0  0  0  0  0  0  0  0  0  0  0
   49.5580   29.1410   46.3960 H   0  0  0  0  0  0  0  0  0  0  0  0
   49.1800   26.4870   46.6510 H   0  0  0  0  0  0  0  0  0  0  0  0
   46.8710   24.8620   47.9630 C   0  0  2  0  0  3  0  0  0  0  0  0
   46.3450   25.7200   46.8110 C   0  0  1  0  0  3  0  0  0  0  0  0
   45.0120   25.8430   47.1950 O   0  0  0  0  0  0  0  0  0  0  0  0
   44.6330   24.5050   47.3200 C   0  0  0  0  0  2  0  0  0  0  0  0
   45.7860   23.7950   47.9920 C   0  0  2  0  0  3  0  0  0  0  0  0
   46.7570   25.5800   49.1680 O   0  0  0  0  0  0  0  0  0  0  0  0
   45.8200   25.5320   49.5110 H   0  0  0  0  0  0  0  0  0  0  0  0
   45.4750   23.3820   49.2810 O   0  0  0  0  0  0  0  0  0  0  0  0
   46.3310   23.2200   49.7530 H   0  0  0  0  0  0  0  0  0  0  0  0
  1  9  1  0  0  0  0
  2  1  2  0  0  0  0
  2  3  1  0  0  0  0
  3  4  2  0  0  0  0
  4  8  1  0  0  0  0
  4  5  1  0  0  0  0
  5 12  1  0  0  0  0
  5  6  1  0  0  0  0
  6 13  1  0  0  0  0
  7  6  2  0  0  0  0
  8  7  1  0  0  0  0
  9 23  1  0  0  0  0
  9  8  2  0  0  0  0
 10  1  1  0  0  0  0
 11  3  1  0  0  0  0
 14 19  1  0  0  0  0
 15 16  1  0  0  0  0
 15 14  2  0  0  0  0
 16 17  2  0  0  0  0
 17 18  1  0  0  0  0
 18  2  1  0  0  0  0
 19 18  2  0  0  0  0
 20 14  1  0  0  0  0
 21 15  1  0  0  0  0
 22 16  1  0  0  0  0
 23 24  2  0  0  0  0
 23 27  1  0  0  0  0
 24 25  1  0  0  0  0
 25 29  1  0  0  0  0
 25 26  2  0  0  0  0
 27 26  1  0  0  0  0
 28 24  1  0  0  0  0
 30 34  1  0  0  0  0
 30 35  1  1  0  0  0
 31 26  1  1  0  0  0
 31 32  1  0  0  0  0
 31 30  1  0  0  0  0
 32 33  1  0  0  0  0
 33 34  1  0  0  0  0
 34 37  1  1  0  0  0
 35 36  1  0  0  0  0
 37 38  1  0  0  0  0
M  END
>  <minimizedAffinity>
-6.40535879

>  <minimizedRMSD>
1.09515309

$$$$
