
 OpenBabel03252501013D

 25 27  0  0  1  0  0  0  0  0999 V2000
   47.0330   34.7620   41.7420 C   0  0  1  0  0  0  0  0  0  0  0  0
   48.3770   35.4560   41.8100 C   0  0  0  0  0  0  0  0  0  0  0  0
   48.2210   33.9160   41.7610 C   0  0  2  0  0  0  0  0  0  0  0  0
   46.4390   34.9510   40.8150 H   0  0  0  0  0  0  0  0  0  0  0  0
   48.6710   35.9600   40.8890 H   0  0  0  0  0  0  0  0  0  0  0  0
   48.6700   35.9210   42.7480 H   0  0  0  0  0  0  0  0  0  0  0  0
   48.4810   33.4460   42.7370 H   0  0  0  0  0  0  0  0  0  0  0  0
   44.6130   35.9710   44.3670 C   0  0  0  0  0  0  0  0  0  0  0  0
   45.3330   35.9390   43.1540 C   0  0  0  0  0  0  0  0  0  0  0  0
   46.2370   34.9000   43.0080 C   0  0  0  0  0  0  0  0  0  0  0  0
   46.4040   33.9690   44.0050 N   0  0  0  0  0  0  0  0  0  0  0  0
   45.6880   34.0370   45.1640 C   0  0  0  0  0  0  0  0  0  0  0  0
   44.8010   35.0400   45.3280 N   0  0  0  0  0  0  0  0  0  0  0  0
   43.9070   36.7620   44.5120 H   0  0  0  0  0  0  0  0  0  0  0  0
   45.1810   36.6840   42.3870 H   0  0  0  0  0  0  0  0  0  0  0  0
   45.9170   33.2430   45.8600 H   0  0  0  0  0  0  0  0  0  0  0  0
   49.6360   32.0770   40.9010 C   0  0  1  0  0  3  0  0  0  0  0  0
   48.7760   33.2610   40.5340 C   0  0  1  0  0  3  0  0  0  0  0  0
   47.7500   32.7850   39.7510 O   0  0  0  0  0  0  0  0  0  0  0  0
   48.1560   31.6520   39.0900 C   0  0  0  0  0  2  0  0  0  0  0  0
   49.3850   31.1090   39.7620 C   0  0  2  0  0  3  0  0  0  0  0  0
   51.0010   32.4310   40.8540 O   0  0  0  0  0  0  0  0  0  0  0  0
   51.1510   33.2930   40.3830 H   0  0  0  0  0  0  0  0  0  0  0  0
   49.1080   29.8320   40.2510 O   0  0  0  0  0  0  0  0  0  0  0  0
   48.6870   29.2940   39.5360 H   0  0  0  0  0  0  0  0  0  0  0  0
  1  4  1  6  0  0  0
  1  3  1  0  0  0  0
  1  2  1  0  0  0  0
  1 10  1  0  0  0  0
  2  6  1  0  0  0  0
  3  2  1  0  0  0  0
  3  7  1  1  0  0  0
  5  2  1  0  0  0  0
  8 14  1  0  0  0  0
  8 13  1  0  0  0  0
  9  8  2  0  0  0  0
 10  9  1  0  0  0  0
 10 11  2  0  0  0  0
 11 12  1  0  0  0  0
 12 13  2  0  0  0  0
 12 16  1  0  0  0  0
 15  9  1  0  0  0  0
 17 22  1  6  0  0  0
 18 19  1  6  0  0  0
 18 17  1  0  0  0  0
 18  3  1  0  0  0  0
 20 19  1  0  0  0  0
 20 21  1  0  0  0  0
 21 24  1  1  0  0  0
 21 17  1  0  0  0  0
 23 22  1  0  0  0  0
 25 24  1  0  0  0  0
M  END
>  <minimizedAffinity>
-4.69842672

>  <minimizedRMSD>
0.951241851

$$$$
