
 OpenBabel03252507573D

 27 29  0  0  1  0  0  0  0  0999 V2000
   45.7140   32.7270   44.2290 C   0  0  1  0  0  0  0  0  0  0  0  0
   47.1770   32.6460   44.5310 C   0  0  0  0  0  0  0  0  0  0  0  0
   46.2150   33.0010   45.6110 C   0  0  2  0  0  0  0  0  0  0  0  0
   45.1600   31.8160   44.0110 H   0  0  0  0  0  0  0  0  0  0  0  0
   47.7910   33.4130   44.0090 H   0  0  0  0  0  0  0  0  0  0  0  0
   47.6050   31.6210   44.4960 H   0  0  0  0  0  0  0  0  0  0  0  0
   46.3280   34.0710   45.9440 H   0  0  0  0  0  0  0  0  0  0  0  0
   44.0600   34.8790   41.7570 C   0  0  0  0  0  0  0  0  0  0  0  0
   44.1780   36.1790   42.3130 C   0  0  0  0  0  0  0  0  0  0  0  0
   44.8330   36.2810   43.5530 C   0  0  0  0  0  0  0  0  0  0  0  0
   45.3090   35.1430   44.1370 N   0  0  0  0  0  0  0  0  0  0  0  0
   45.1550   33.9300   43.5370 C   0  0  0  0  0  0  0  0  0  0  0  0
   44.5450   33.7710   42.3670 N   0  0  0  0  0  0  0  0  0  0  0  0
   43.7920   37.0450   41.8230 H   0  0  0  0  0  0  0  0  0  0  0  0
   44.9520   37.2320   44.0210 H   0  0  0  0  0  0  0  0  0  0  0  0
   43.3920   34.8420   40.4890 C   0  0  0  0  0  0  0  0  0  0  0  0
   43.6240   34.0020   39.5650 O   0  0  0  0  0  0  0  0  0  0  0  0
   42.6060   35.5620   40.2160 H   0  0  0  0  0  0  0  0  0  0  0  0
   47.2660   31.7020   47.5070 C   0  0  2  0  0  0  0  0  0  0  0  0
   46.0350   32.0250   46.7170 C   0  0  1  0  0  0  0  0  0  0  0  0
   45.1760   32.4740   47.7150 O   0  0  0  0  0  0  0  0  0  0  0  0
   45.2930   31.5780   48.7490 C   0  0  0  0  0  0  0  0  0  0  0  0
   46.6330   30.8880   48.6430 C   0  0  2  0  0  0  0  0  0  0  0  0
   47.8020   32.8640   48.0090 O   0  0  0  0  0  0  0  0  0  0  0  0
   47.5020   33.0320   48.9390 H   0  0  0  0  0  0  0  0  0  0  0  0
   47.4130   31.0330   49.7750 O   0  0  0  0  0  0  0  0  0  0  0  0
   47.4380   30.1470   50.2160 H   0  0  0  0  0  0  0  0  0  0  0  0
  1  4  1  6  0  0  0
  1  2  1  0  0  0  0
  1  3  1  0  0  0  0
  2  3  1  0  0  0  0
  3  7  1  1  0  0  0
  3 20  1  0  0  0  0
  5  2  1  0  0  0  0
  6  2  1  0  0  0  0
  8  9  2  0  0  0  0
  8 13  1  0  0  0  0
  9 10  1  0  0  0  0
 10 15  1  0  0  0  0
 10 11  2  0  0  0  0
 12 11  1  0  0  0  0
 12  1  1  0  0  0  0
 13 12  2  0  0  0  0
 14  9  1  0  0  0  0
 16  8  1  0  0  0  0
 17 16  2  0  0  0  0
 18 16  1  0  0  0  0
 19 24  1  1  0  0  0
 19 23  1  0  0  0  0
 20 19  1  0  0  0  0
 20 21  1  1  0  0  0
 21 22  1  0  0  0  0
 23 22  1  0  0  0  0
 23 26  1  1  0  0  0
 24 25  1  0  0  0  0
 26 27  1  0  0  0  0
M  END
>  <minimizedAffinity>
-5.19236088

>  <minimizedRMSD>
2.65718961

$$$$
