
 OpenBabel03242518573D

 25 27  0  0  1  0  0  0  0  0999 V2000
   44.8120   34.3560   43.2890 C   0  0  1  0  0  0  0  0  0  0  0  0
   45.4210   35.7800   43.3250 C   0  0  0  0  0  0  0  0  0  0  0  0
   45.6330   34.8200   42.1950 C   0  0  1  0  0  0  0  0  0  0  0  0
   43.7070   34.4560   43.2150 H   0  0  0  0  0  0  0  0  0  0  0  0
   44.8080   36.6410   43.0770 H   0  0  0  0  0  0  0  0  0  0  0  0
   46.2220   35.9760   44.0440 H   0  0  0  0  0  0  0  0  0  0  0  0
   45.1010   35.0080   41.2260 H   0  0  0  0  0  0  0  0  0  0  0  0
   45.3000   33.5180   44.4190 C   0  0  0  0  0  0  0  0  0  0  0  0
   45.6150   32.1760   44.0900 C   0  0  0  0  0  0  0  0  0  0  0  0
   46.0950   31.3390   45.0860 C   0  0  0  0  0  0  0  0  0  0  0  0
   46.2370   31.8590   46.3370 N   0  0  0  0  0  0  0  0  0  0  0  0
   45.9270   33.1410   46.6150 C   0  0  0  0  0  0  0  0  0  0  0  0
   45.4670   33.9520   45.6660 N   0  0  0  0  0  0  0  0  0  0  0  0
   45.5270   31.6760   43.1380 H   0  0  0  0  0  0  0  0  0  0  0  0
   46.3610   30.3010   44.9230 H   0  0  0  0  0  0  0  0  0  0  0  0
   46.0570   33.5210   47.6410 H   0  0  0  0  0  0  0  0  0  0  0  0
   47.2030   33.7690   40.6550 C   0  0  2  0  0  0  0  0  0  0  0  0
   47.0900   34.5000   41.9780 C   0  0  1  0  0  0  0  0  0  0  0  0
   47.8790   35.6250   41.8840 O   0  0  0  0  0  0  0  0  0  0  0  0
   48.7580   35.4970   40.8530 C   0  0  0  0  0  0  0  0  0  0  0  0
   48.5480   34.1820   40.1630 C   0  0  2  0  0  0  0  0  0  0  0  0
   46.2450   34.3000   39.7830 O   0  0  0  0  0  0  0  0  0  0  0  0
   45.4970   33.6760   39.6270 H   0  0  0  0  0  0  0  0  0  0  0  0
   48.5270   34.3550   38.7730 O   0  0  0  0  0  0  0  0  0  0  0  0
   47.8220   33.7810   38.3440 H   0  0  0  0  0  0  0  0  0  0  0  0
  1  4  1  6  0  0  0
  1  2  1  0  0  0  0
  1  8  1  0  0  0  0
  2  6  1  0  0  0  0
  3  7  1  6  0  0  0
  3  1  1  0  0  0  0
  3  2  1  0  0  0  0
  5  2  1  0  0  0  0
  8 13  1  0  0  0  0
  9  8  2  0  0  0  0
  9 10  1  0  0  0  0
 10 11  2  0  0  0  0
 11 12  1  0  0  0  0
 12 16  1  0  0  0  0
 13 12  2  0  0  0  0
 14  9  1  0  0  0  0
 15 10  1  0  0  0  0
 17 22  1  6  0  0  0
 17 18  1  0  0  0  0
 18 19  1  6  0  0  0
 18  3  1  0  0  0  0
 20 19  1  0  0  0  0
 21 24  1  6  0  0  0
 21 17  1  0  0  0  0
 21 20  1  0  0  0  0
 23 22  1  0  0  0  0
 25 24  1  0  0  0  0
M  END
>  <minimizedAffinity>
-4.52018404

>  <minimizedRMSD>
1.47177017

$$$$
