
 OpenBabel03252507063D

 24 25  0  0  1  0  0  0  0  0999 V2000
   44.6220   36.0480   44.5360 C   0  0  0  0  0  0  0  0  0  0  0  0
   45.2560   36.0640   43.2820 C   0  0  0  0  0  0  0  0  0  0  0  0
   46.0580   34.9780   42.9620 C   0  0  0  0  0  0  0  0  0  0  0  0
   46.2010   33.9500   43.8590 N   0  0  0  0  0  0  0  0  0  0  0  0
   45.5740   33.9720   45.0570 C   0  0  0  0  0  0  0  0  0  0  0  0
   44.7920   35.0150   45.3860 N   0  0  0  0  0  0  0  0  0  0  0  0
   43.9930   36.8930   44.7940 H   0  0  0  0  0  0  0  0  0  0  0  0
   45.0790   36.9160   42.6500 H   0  0  0  0  0  0  0  0  0  0  0  0
   46.4890   31.6740   45.2220 C   0  0  2  0  0  3  0  0  0  0  0  0
   45.7860   32.8160   45.9660 C   0  0  1  0  0  3  0  0  0  0  0  0
   46.6400   33.1220   47.0160 O   0  0  0  0  0  0  0  0  0  0  0  0
   47.3100   31.9870   47.3770 C   0  0  0  0  0  2  0  0  0  0  0  0
   47.0090   30.8860   46.4030 C   0  0  2  0  0  3  0  0  0  0  0  0
   47.5460   32.2710   44.5280 O   0  0  0  0  0  0  0  0  0  0  0  0
   47.7820   33.1750   44.9020 H   0  0  0  0  0  0  0  0  0  0  0  0
   48.1480   30.1860   46.0190 O   0  0  0  0  0  0  0  0  0  0  0  0
   48.6480   30.6610   45.3020 H   0  0  0  0  0  0  0  0  0  0  0  0
   46.6850   34.9990   41.7150 O   0  0  0  0  0  0  0  0  0  0  0  0
   48.5720   33.3140   40.9360 O   0  0  0  0  0  0  0  0  0  0  0  0
   48.3670   34.6640   41.6140 P   0  0  0  0  0  0  0  0  0  0  0  0
   49.1040   35.9030   40.7730 O   0  0  0  0  0  0  0  0  0  0  0  0
   48.7480   35.9240   39.8690 H   0  0  0  0  0  0  0  0  0  0  0  0
   48.9500   34.5460   43.2020 O   0  0  0  0  0  0  0  0  0  0  0  0
   48.6520   33.6750   43.5660 H   0  0  0  0  0  0  0  0  0  0  0  0
  1  7  1  0  0  0  0
  1  6  1  0  0  0  0
  2  1  2  0  0  0  0
  3  2  1  0  0  0  0
  3  4  2  0  0  0  0
  4  5  1  0  0  0  0
  5  6  2  0  0  0  0
  8  2  1  0  0  0  0
  9 14  1  6  0  0  0
  9 10  1  0  0  0  0
  9 13  1  0  0  0  0
 10  5  1  6  0  0  0
 10 11  1  0  0  0  0
 11 12  1  0  0  0  0
 13 16  1  6  0  0  0
 13 12  1  0  0  0  0
 14 15  1  0  0  0  0
 17 16  1  0  0  0  0
 18  3  1  0  0  0  0
 19 20  2  0  0  0  0
 20 18  1  0  0  0  0
 20 23  1  0  0  0  0
 21 20  1  0  0  0  0
 22 21  1  0  0  0  0
 23 24  1  0  0  0  0
M  END
>  <minimizedAffinity>
-5.44923878

>  <minimizedRMSD>
0.197900206

$$$$
