
 OpenBabel03252502463D

 45 48  0  0  1  0  0  0  0  0999 V2000
   47.7480   35.5370   41.8960 C   0  0  0  0  0  0  0  0  0  0  0  0
   47.4920   36.3670   41.1730 H   0  0  0  0  0  0  0  0  0  0  0  0
   47.8430   36.0610   42.8700 H   0  0  0  0  0  0  0  0  0  0  0  0
   49.0120   34.8370   41.5210 C   0  0  1  0  0  0  0  0  0  0  0  0
   50.1050   34.7730   42.5490 C   0  0  0  0  0  0  0  0  0  0  0  0
   49.3060   33.5740   42.1760 C   0  0  2  0  0  0  0  0  0  0  0  0
   49.3610   35.0550   40.5170 H   0  0  0  0  0  0  0  0  0  0  0  0
   49.9240   35.2800   43.5250 H   0  0  0  0  0  0  0  0  0  0  0  0
   51.1650   34.8880   42.2340 H   0  0  0  0  0  0  0  0  0  0  0  0
   48.7450   33.1460   43.0100 H   0  0  0  0  0  0  0  0  0  0  0  0
   50.0400   32.6350   41.3440 N   0  0  0  0  0  0  0  0  0  0  0  0
   49.3140   32.1550   40.2260 C   0  0  0  0  0  0  0  0  0  0  0  0
   50.2460   31.2020   39.5030 C   0  0  0  0  0  0  0  0  0  0  0  0
   50.5970   30.0840   40.3030 N   0  0  0  0  0  0  0  0  0  0  0  0
   50.5610   30.3440   41.7320 C   0  0  0  0  0  0  0  0  0  0  0  0
   50.9530   31.7990   41.9970 C   0  0  0  0  0  0  0  0  0  0  0  0
   48.4070   31.5940   40.5090 H   0  0  0  0  0  0  0  0  0  0  0  0
   49.0220   32.9590   39.5460 H   0  0  0  0  0  0  0  0  0  0  0  0
   51.1600   31.7850   39.2680 H   0  0  0  0  0  0  0  0  0  0  0  0
   49.8210   30.8970   38.5250 H   0  0  0  0  0  0  0  0  0  0  0  0
   51.5660   29.7830   40.0240 H   0  0  0  0  0  0  0  0  0  0  0  0
   51.2130   29.6740   42.3010 H   0  0  0  0  0  0  0  0  0  0  0  0
   49.5010   30.2550   42.0640 H   0  0  0  0  0  0  0  0  0  0  0  0
   52.0330   31.9740   41.7650 H   0  0  0  0  0  0  0  0  0  0  0  0
   50.8600   31.9400   43.1100 H   0  0  0  0  0  0  0  0  0  0  0  0
   46.6730   34.4890   41.9660 C   0  0  0  0  0  0  0  0  0  0  0  0
   45.8510   34.8310   41.2770 H   0  0  0  0  0  0  0  0  0  0  0  0
   46.9300   33.4970   41.6320 H   0  0  0  0  0  0  0  0  0  0  0  0
   44.5960   35.6280   44.8840 C   0  0  0  0  0  0  0  0  0  0  0  0
   45.1790   35.5870   43.5850 C   0  0  0  0  0  0  0  0  0  0  0  0
   46.0360   34.5620   43.3200 C   0  0  0  0  0  0  0  0  0  0  0  0
   46.2940   33.6410   44.2810 N   0  0  0  0  0  0  0  0  0  0  0  0
   45.7520   33.6870   45.4770 C   0  0  0  0  0  0  0  0  0  0  0  0
   44.9020   34.6680   45.8000 N   0  0  0  0  0  0  0  0  0  0  0  0
   43.9110   36.4680   45.0600 H   0  0  0  0  0  0  0  0  0  0  0  0
   44.9520   36.3330   42.8450 H   0  0  0  0  0  0  0  0  0  0  0  0
   45.0930   32.5180   47.5680 C   0  0  1  0  0  0  0  0  0  0  0  0
   46.1070   32.6300   46.4420 C   0  0  2  0  0  0  0  0  0  0  0  0
   47.2540   32.9430   47.1750 O   0  0  0  0  0  0  0  0  0  0  0  0
   47.3020   31.9580   48.1510 C   0  0  0  0  0  0  0  0  0  0  0  0
   45.8760   31.6990   48.5760 C   0  0  1  0  0  0  0  0  0  0  0  0
   44.8470   33.7560   48.1250 O   0  0  0  0  0  0  0  0  0  0  0  0
   45.3530   33.8880   48.9700 H   0  0  0  0  0  0  0  0  0  0  0  0
   45.6260   32.1260   49.8720 O   0  0  0  0  0  0  0  0  0  0  0  0
   46.5210   32.1630   50.3180 H   0  0  0  0  0  0  0  0  0  0  0  0
  1 26  1  0  0  0  0
  1  3  1  0  0  0  0
  2  1  1  0  0  0  0
  4  7  1  6  0  0  0
  4  1  1  0  0  0  0
  4  6  1  0  0  0  0
  4  5  1  0  0  0  0
  5  8  1  0  0  0  0
  6  5  1  0  0  0  0
  6 10  1  1  0  0  0
  9  5  1  0  0  0  0
 11 16  1  0  0  0  0
 11  6  1  0  0  0  0
 12 17  1  0  0  0  0
 12 11  1  0  0  0  0
 13 12  1  0  0  0  0
 13 14  1  0  0  0  0
 14 15  1  0  0  0  0
 15 16  1  0  0  0  0
 15 23  1  0  0  0  0
 15 22  1  0  0  0  0
 16 25  1  0  0  0  0
 18 12  1  0  0  0  0
 19 13  1  0  0  0  0
 20 13  1  0  0  0  0
 21 14  1  0  0  0  0
 24 16  1  0  0  0  0
 26 31  1  0  0  0  0
 27 26  1  0  0  0  0
 28 26  1  0  0  0  0
 29 35  1  0  0  0  0
 29 34  1  0  0  0  0
 30 29  2  0  0  0  0
 31 30  1  0  0  0  0
 31 32  2  0  0  0  0
 32 33  1  0  0  0  0
 33 34  2  0  0  0  0
 36 30  1  0  0  0  0
 37 42  1  1  0  0  0
 37 41  1  0  0  0  0
 38 33  1  6  0  0  0
 38 39  1  0  0  0  0
 38 37  1  0  0  0  0
 39 40  1  0  0  0  0
 40 41  1  0  0  0  0
 41 44  1  1  0  0  0
 42 43  1  0  0  0  0
 44 45  1  0  0  0  0
M  END
>  <minimizedAffinity>
-6.70887947

>  <minimizedRMSD>
0.598577142

$$$$
