
 OpenBabel03252509143D

 45 49  0  0  1  0  0  0  0  0999 V2000
   44.6640   35.1940   43.1900 S   0  0  0  0  0  0  0  0  0  0  0  0
   47.4080   32.3780   44.3130 C   0  0  0  0  0  0  0  0  0  0  0  0
   46.6470   33.2910   43.5840 C   0  0  0  0  0  0  0  0  0  0  0  0
   45.6200   34.0410   44.1360 C   0  0  0  0  0  0  0  0  0  0  0  0
   45.3210   33.8800   45.4990 C   0  0  0  0  0  0  0  0  0  0  0  0
   44.4280   34.4120   46.3570 N   0  0  0  0  0  0  0  0  0  0  0  0
   44.5970   33.8770   47.5790 C   0  0  0  0  0  0  0  0  0  0  0  0
   45.6120   33.0030   47.4580 N   0  0  0  0  0  0  0  0  0  0  0  0
   46.0820   32.9770   46.1970 C   0  0  0  0  0  0  0  0  0  0  0  0
   47.1160   32.2150   45.6680 C   0  0  0  0  0  0  0  0  0  0  0  0
   48.1810   31.8430   43.8090 H   0  0  0  0  0  0  0  0  0  0  0  0
   43.7090   35.1430   46.0840 H   0  0  0  0  0  0  0  0  0  0  0  0
   44.0380   34.0950   48.4840 H   0  0  0  0  0  0  0  0  0  0  0  0
   47.6860   31.5200   46.2520 H   0  0  0  0  0  0  0  0  0  0  0  0
   46.7650   32.7220   39.9650 C   0  0  0  0  0  0  0  0  0  0  0  0
   47.5060   33.8180   39.5050 C   0  0  0  0  0  0  0  0  0  0  0  0
   47.9600   34.7440   40.4440 C   0  0  0  0  0  0  0  0  0  0  0  0
   47.6660   34.5480   41.7620 N   0  0  0  0  0  0  0  0  0  0  0  0
   46.9440   33.4710   42.1600 C   0  0  0  0  0  0  0  0  0  0  0  0
   46.4800   32.5440   41.2910 N   0  0  0  0  0  0  0  0  0  0  0  0
   46.4420   32.0440   39.1940 H   0  0  0  0  0  0  0  0  0  0  0  0
   47.7370   33.9720   38.4760 H   0  0  0  0  0  0  0  0  0  0  0  0
   48.5380   35.6230   40.2030 H   0  0  0  0  0  0  0  0  0  0  0  0
   42.4710   34.4440   41.9300 N   0  0  0  0  0  0  0  0  0  0  0  0
   43.9080   34.4680   41.7170 C   0  0  1  0  0  0  0  0  0  0  0  0
   44.2840   35.4030   40.5600 C   0  0  0  0  0  0  0  0  0  0  0  0
   43.4430   35.2910   39.4710 O   0  0  0  0  0  0  0  0  0  0  0  0
   42.5700   34.2270   39.5030 C   0  0  0  0  0  0  0  0  0  0  0  0
   41.7130   34.3510   40.7350 C   0  0  1  0  0  0  0  0  0  0  0  0
   42.2910   33.7480   42.6600 H   0  0  0  0  0  0  0  0  0  0  0  0
   44.2880   33.4700   41.4880 H   0  0  0  0  0  0  0  0  0  0  0  0
   44.3350   36.4420   40.9480 H   0  0  0  0  0  0  0  0  0  0  0  0
   45.2620   35.1220   40.1820 H   0  0  0  0  0  0  0  0  0  0  0  0
   43.1640   33.2950   39.5570 H   0  0  0  0  0  0  0  0  0  0  0  0
   41.9560   34.2610   38.6060 H   0  0  0  0  0  0  0  0  0  0  0  0
   41.1250   35.2890   40.6370 H   0  0  0  0  0  0  0  0  0  0  0  0
   40.3170   32.7890   42.1140 C   0  0  2  0  0  3  0  0  0  0  0  0
   40.7210   33.2270   40.7090 C   0  0  2  0  0  3  0  0  0  0  0  0
   41.1630   32.0440   40.1850 O   0  0  0  0  0  0  0  0  0  0  0  0
   40.0850   31.1920   40.4170 C   0  0  0  0  0  2  0  0  0  0  0  0
   39.4440   31.5890   41.7170 C   0  0  2  0  0  3  0  0  0  0  0  0
   39.5830   33.7340   42.7890 O   0  0  0  0  0  0  0  0  0  0  0  0
   40.2060   34.3000   43.3310 H   0  0  0  0  0  0  0  0  0  0  0  0
   38.1760   32.1530   41.4510 O   0  0  0  0  0  0  0  0  0  0  0  0
   38.0300   32.1880   40.4700 H   0  0  0  0  0  0  0  0  0  0  0  0
  1  4  1  0  0  0  0
  2 10  1  0  0  0  0
  3  4  1  0  0  0  0
  3  2  2  0  0  0  0
  4  5  2  0  0  0  0
  5  9  1  0  0  0  0
  5  6  1  0  0  0  0
  6  7  1  0  0  0  0
  7 13  1  0  0  0  0
  8  7  2  0  0  0  0
  9  8  1  0  0  0  0
 10  9  2  0  0  0  0
 10 14  1  0  0  0  0
 11  2  1  0  0  0  0
 12  6  1  0  0  0  0
 15 20  1  0  0  0  0
 16 15  2  0  0  0  0
 16 17  1  0  0  0  0
 17 18  2  0  0  0  0
 18 19  1  0  0  0  0
 19  3  1  0  0  0  0
 20 19  2  0  0  0  0
 21 15  1  0  0  0  0
 22 16  1  0  0  0  0
 23 17  1  0  0  0  0
 24 30  1  0  0  0  0
 25 31  1  6  0  0  0
 25 24  1  0  0  0  0
 25  1  1  0  0  0  0
 26 32  1  0  0  0  0
 26 25  1  0  0  0  0
 27 28  1  0  0  0  0
 27 26  1  0  0  0  0
 28 34  1  0  0  0  0
 28 29  1  0  0  0  0
 29 36  1  6  0  0  0
 29 24  1  0  0  0  0
 33 26  1  0  0  0  0
 35 28  1  0  0  0  0
 37 42  1  6  0  0  0
 38 39  1  1  0  0  0
 38 29  1  0  0  0  0
 38 37  1  0  0  0  0
 39 40  1  0  0  0  0
 40 41  1  0  0  0  0
 41 44  1  6  0  0  0
 41 37  1  0  0  0  0
 42 43  1  0  0  0  0
 45 44  1  0  0  0  0
M  END
>  <minimizedAffinity>
-5.74561167

>  <minimizedRMSD>
1.70501363

$$$$
