
 OpenBabel03252509143D

 45 49  0  0  1  0  0  0  0  0999 V2000
   44.8110   35.4440   42.5520 S   0  0  0  0  0  0  0  0  0  0  0  0
   47.4940   32.6560   43.8760 C   0  0  0  0  0  0  0  0  0  0  0  0
   46.7690   33.5500   43.0870 C   0  0  0  0  0  0  0  0  0  0  0  0
   45.7200   34.3150   43.5720 C   0  0  0  0  0  0  0  0  0  0  0  0
   45.3590   34.1920   44.9230 C   0  0  0  0  0  0  0  0  0  0  0  0
   44.4290   34.7490   45.7250 N   0  0  0  0  0  0  0  0  0  0  0  0
   44.5400   34.2480   46.9670 C   0  0  0  0  0  0  0  0  0  0  0  0
   45.5580   33.3690   46.9170 N   0  0  0  0  0  0  0  0  0  0  0  0
   46.0850   33.3080   45.6800 C   0  0  0  0  0  0  0  0  0  0  0  0
   47.1400   32.5310   45.2200 C   0  0  0  0  0  0  0  0  0  0  0  0
   48.2880   32.1060   43.4230 H   0  0  0  0  0  0  0  0  0  0  0  0
   43.7250   35.4740   45.3980 H   0  0  0  0  0  0  0  0  0  0  0  0
   43.9410   34.4910   47.8390 H   0  0  0  0  0  0  0  0  0  0  0  0
   47.6810   31.8510   45.8480 H   0  0  0  0  0  0  0  0  0  0  0  0
   46.9730   32.9340   39.4800 C   0  0  0  0  0  0  0  0  0  0  0  0
   47.8170   33.9620   39.0400 C   0  0  0  0  0  0  0  0  0  0  0  0
   48.3080   34.8590   39.9870 C   0  0  0  0  0  0  0  0  0  0  0  0
   47.9520   34.7010   41.2950 N   0  0  0  0  0  0  0  0  0  0  0  0
   47.1320   33.6900   41.6750 C   0  0  0  0  0  0  0  0  0  0  0  0
   46.6270   32.7930   40.7960 N   0  0  0  0  0  0  0  0  0  0  0  0
   46.6260   32.2750   38.7030 H   0  0  0  0  0  0  0  0  0  0  0  0
   48.0960   34.0860   38.0190 H   0  0  0  0  0  0  0  0  0  0  0  0
   48.9640   35.6860   39.7610 H   0  0  0  0  0  0  0  0  0  0  0  0
   42.6840   33.9560   42.0840 N   0  0  0  0  0  0  0  0  0  0  0  0
   43.7410   34.6250   41.3450 C   0  0  1  0  0  0  0  0  0  0  0  0
   43.1800   35.7490   40.4650 C   0  0  0  0  0  0  0  0  0  0  0  0
   42.0160   35.4010   39.8090 O   0  0  0  0  0  0  0  0  0  0  0  0
   41.6820   34.0670   39.8630 C   0  0  0  0  0  0  0  0  0  0  0  0
   41.5310   33.6720   41.3080 C   0  0  1  0  0  0  0  0  0  0  0  0
   43.1200   33.1760   42.5850 H   0  0  0  0  0  0  0  0  0  0  0  0
   44.2770   33.9230   40.7040 H   0  0  0  0  0  0  0  0  0  0  0  0
   43.0560   36.6590   41.0910 H   0  0  0  0  0  0  0  0  0  0  0  0
   43.8890   35.9640   39.6720 H   0  0  0  0  0  0  0  0  0  0  0  0
   42.5040   33.4860   39.4040 H   0  0  0  0  0  0  0  0  0  0  0  0
   40.7450   33.9270   39.3290 H   0  0  0  0  0  0  0  0  0  0  0  0
   40.6900   34.2650   41.7280 H   0  0  0  0  0  0  0  0  0  0  0  0
   39.7570   32.0660   42.0610 C   0  0  2  0  0  3  0  0  0  0  0  0
   41.0920   32.2380   41.3400 C   0  0  2  0  0  3  0  0  0  0  0  0
   41.8840   31.3800   42.0500 O   0  0  0  0  0  0  0  0  0  0  0  0
   41.1590   30.1910   42.0000 C   0  0  0  0  0  2  0  0  0  0  0  0
   39.6950   30.5330   42.0250 C   0  0  2  0  0  3  0  0  0  0  0  0
   38.6980   32.6210   41.3860 O   0  0  0  0  0  0  0  0  0  0  0  0
   38.5590   33.5560   41.7150 H   0  0  0  0  0  0  0  0  0  0  0  0
   39.1330   30.2360   40.7620 O   0  0  0  0  0  0  0  0  0  0  0  0
   39.8440   29.9100   40.1530 H   0  0  0  0  0  0  0  0  0  0  0  0
  1  4  1  0  0  0  0
  2 10  1  0  0  0  0
  3  4  1  0  0  0  0
  3  2  2  0  0  0  0
  4  5  2  0  0  0  0
  5  9  1  0  0  0  0
  5  6  1  0  0  0  0
  6  7  1  0  0  0  0
  7 13  1  0  0  0  0
  8  7  2  0  0  0  0
  9  8  1  0  0  0  0
 10  9  2  0  0  0  0
 10 14  1  0  0  0  0
 11  2  1  0  0  0  0
 12  6  1  0  0  0  0
 15 20  1  0  0  0  0
 16 15  2  0  0  0  0
 16 17  1  0  0  0  0
 17 18  2  0  0  0  0
 18 19  1  0  0  0  0
 19  3  1  0  0  0  0
 20 19  2  0  0  0  0
 21 15  1  0  0  0  0
 22 16  1  0  0  0  0
 23 17  1  0  0  0  0
 24 30  1  0  0  0  0
 25 31  1  6  0  0  0
 25 24  1  0  0  0  0
 25  1  1  0  0  0  0
 26 32  1  0  0  0  0
 26 25  1  0  0  0  0
 27 28  1  0  0  0  0
 27 26  1  0  0  0  0
 28 29  1  0  0  0  0
 29 38  1  0  0  0  0
 29 36  1  1  0  0  0
 29 24  1  0  0  0  0
 33 26  1  0  0  0  0
 34 28  1  0  0  0  0
 35 28  1  0  0  0  0
 37 42  1  6  0  0  0
 38 39  1  1  0  0  0
 38 37  1  0  0  0  0
 40 41  1  0  0  0  0
 40 39  1  0  0  0  0
 41 44  1  6  0  0  0
 41 37  1  0  0  0  0
 42 43  1  0  0  0  0
 45 44  1  0  0  0  0
M  END
>  <minimizedAffinity>
-6.27368975

>  <minimizedRMSD>
2.13302875

$$$$
