
 OpenBabel03252506583D

 38 42  0  0  1  0  0  0  0  0999 V2000
   36.9500   26.2580   40.4710 C   0  0  0  0  0  0  0  0  0  0  0  0
   36.7500   24.9050   40.2800 C   0  0  0  0  0  0  0  0  0  0  0  0
   37.4440   23.9370   40.9790 C   0  0  0  0  0  0  0  0  0  0  0  0
   38.3920   24.3030   41.9200 C   0  0  0  0  0  0  0  0  0  0  0  0
   39.2410   23.6580   42.7710 N   0  0  0  0  0  0  0  0  0  0  0  0
   39.9420   24.5870   43.4650 C   0  0  0  0  0  0  0  0  0  0  0  0
   39.5190   25.8030   43.0340 N   0  0  0  0  0  0  0  0  0  0  0  0
   38.5760   25.6600   42.0950 C   0  0  0  0  0  0  0  0  0  0  0  0
   37.9030   26.6420   41.4160 C   0  0  0  0  0  0  0  0  0  0  0  0
   36.4080   27.0050   39.9240 H   0  0  0  0  0  0  0  0  0  0  0  0
   37.2860   22.8670   40.8300 H   0  0  0  0  0  0  0  0  0  0  0  0
   39.2890   22.6150   42.8280 H   0  0  0  0  0  0  0  0  0  0  0  0
   40.7020   24.3510   44.2240 H   0  0  0  0  0  0  0  0  0  0  0  0
   34.1940   22.8890   38.5520 C   0  0  0  0  0  0  0  0  0  0  0  0
   33.9010   23.6700   37.4390 C   0  0  0  0  0  0  0  0  0  0  0  0
   34.5690   24.8770   37.2770 C   0  0  0  0  0  0  0  0  0  0  0  0
   35.4920   25.2440   38.2270 N   0  0  0  0  0  0  0  0  0  0  0  0
   35.7600   24.4720   39.2970 C   0  0  0  0  0  0  0  0  0  0  0  0
   35.1170   23.3080   39.4550 N   0  0  0  0  0  0  0  0  0  0  0  0
   33.6960   21.9450   38.7120 H   0  0  0  0  0  0  0  0  0  0  0  0
   33.1720   23.3400   36.7250 H   0  0  0  0  0  0  0  0  0  0  0  0
   34.3850   25.5270   36.4340 H   0  0  0  0  0  0  0  0  0  0  0  0
   38.1740   28.0620   41.6780 C   0  0  0  0  0  0  0  0  0  0  0  0
   38.3470   28.6040   42.9410 C   0  0  0  0  0  0  0  0  0  0  0  0
   38.5770   29.9580   42.6840 C   0  0  0  0  0  0  0  0  0  0  0  0
   38.5310   30.1570   41.3050 C   0  0  0  0  0  0  0  0  0  0  0  0
   38.2870   28.9850   40.7560 O   0  0  0  0  0  0  0  0  0  0  0  0
   38.3190   28.1330   43.9140 H   0  0  0  0  0  0  0  0  0  0  0  0
   38.7600   30.7390   43.4000 H   0  0  0  0  0  0  0  0  0  0  0  0
   37.4470   31.8140   39.7770 C   0  0  2  0  0  3  0  0  0  0  0  0
   38.7090   31.3900   40.5320 C   0  0  1  0  0  3  0  0  0  0  0  0
   38.9150   32.5300   41.3060 O   0  0  0  0  0  0  0  0  0  0  0  0
   38.9700   33.5240   40.3290 C   0  0  0  0  0  2  0  0  0  0  0  0
   37.8820   33.2030   39.3310 C   0  0  2  0  0  3  0  0  0  0  0  0
   36.3960   32.0000   40.6940 O   0  0  0  0  0  0  0  0  0  0  0  0
   36.4760   32.8920   41.1350 H   0  0  0  0  0  0  0  0  0  0  0  0
   36.8430   34.1250   39.3630 O   0  0  0  0  0  0  0  0  0  0  0  0
   36.0570   33.6980   38.9360 H   0  0  0  0  0  0  0  0  0  0  0  0
  1  9  1  0  0  0  0
  2  1  2  0  0  0  0
  2  3  1  0  0  0  0
  3  4  2  0  0  0  0
  4  8  1  0  0  0  0
  4  5  1  0  0  0  0
  5 12  1  0  0  0  0
  5  6  1  0  0  0  0
  6 13  1  0  0  0  0
  7  6  2  0  0  0  0
  8  7  1  0  0  0  0
  9 23  1  0  0  0  0
  9  8  2  0  0  0  0
 10  1  1  0  0  0  0
 11  3  1  0  0  0  0
 14 20  1  0  0  0  0
 14 19  1  0  0  0  0
 15 14  2  0  0  0  0
 16 15  1  0  0  0  0
 16 17  2  0  0  0  0
 17 18  1  0  0  0  0
 18 19  2  0  0  0  0
 18  2  1  0  0  0  0
 21 15  1  0  0  0  0
 22 16  1  0  0  0  0
 23 24  2  0  0  0  0
 24 28  1  0  0  0  0
 25 24  1  0  0  0  0
 25 29  1  0  0  0  0
 26 25  2  0  0  0  0
 27 26  1  0  0  0  0
 27 23  1  0  0  0  0
 30 31  1  0  0  0  0
 30 35  1  1  0  0  0
 31 26  1  1  0  0  0
 31 32  1  0  0  0  0
 33 32  1  0  0  0  0
 34 37  1  1  0  0  0
 34 30  1  0  0  0  0
 34 33  1  0  0  0  0
 35 36  1  0  0  0  0
 38 37  1  0  0  0  0
M  END
>  <minimizedAffinity>
-6.83532095

$$$$

 OpenBabel03252506583D

 38 42  0  0  1  0  0  0  0  0999 V2000
   36.5770   30.4520   38.7550 C   0  0  0  0  0  0  0  0  0  0  0  0
   35.6580   29.4220   38.8140 C   0  0  0  0  0  0  0  0  0  0  0  0
   35.4970   28.6200   39.9270 C   0  0  0  0  0  0  0  0  0  0  0  0
   36.2760   28.8300   41.0530 C   0  0  0  0  0  0  0  0  0  0  0  0
   36.3980   28.2660   42.2900 N   0  0  0  0  0  0  0  0  0  0  0  0
   37.3630   28.9300   42.9710 C   0  0  0  0  0  0  0  0  0  0  0  0
   37.8310   29.9010   42.1460 N   0  0  0  0  0  0  0  0  0  0  0  0
   37.1870   29.8640   40.9740 C   0  0  0  0  0  0  0  0  0  0  0  0
   37.3690   30.6740   39.8830 C   0  0  0  0  0  0  0  0  0  0  0  0
   36.6970   31.0700   37.8870 H   0  0  0  0  0  0  0  0  0  0  0  0
   34.7720   27.8060   39.9750 H   0  0  0  0  0  0  0  0  0  0  0  0
   35.8100   27.4580   42.5950 H   0  0  0  0  0  0  0  0  0  0  0  0
   37.6740   28.6890   43.9980 H   0  0  0  0  0  0  0  0  0  0  0  0
   34.5850   28.8780   35.3300 C   0  0  0  0  0  0  0  0  0  0  0  0
   33.2150   28.6770   35.4680 C   0  0  0  0  0  0  0  0  0  0  0  0
   32.6590   28.7270   36.7400 C   0  0  0  0  0  0  0  0  0  0  0  0
   33.4910   28.9730   37.8060 N   0  0  0  0  0  0  0  0  0  0  0  0
   34.8150   29.1640   37.6490 C   0  0  0  0  0  0  0  0  0  0  0  0
   35.3530   29.1160   36.4240 N   0  0  0  0  0  0  0  0  0  0  0  0
   35.0530   28.8470   34.3580 H   0  0  0  0  0  0  0  0  0  0  0  0
   32.6080   28.4890   34.6050 H   0  0  0  0  0  0  0  0  0  0  0  0
   31.6030   28.5800   36.9110 H   0  0  0  0  0  0  0  0  0  0  0  0
   38.3690   31.7500   39.9010 C   0  0  0  0  0  0  0  0  0  0  0  0
   38.0930   33.0670   40.2270 C   0  0  0  0  0  0  0  0  0  0  0  0
   39.3330   33.6990   40.1060 C   0  0  0  0  0  0  0  0  0  0  0  0
   40.2740   32.7450   39.7190 C   0  0  0  0  0  0  0  0  0  0  0  0
   39.6380   31.5980   39.6130 O   0  0  0  0  0  0  0  0  0  0  0  0
   37.1610   33.5370   40.5120 H   0  0  0  0  0  0  0  0  0  0  0  0
   39.5600   34.7360   40.2730 H   0  0  0  0  0  0  0  0  0  0  0  0
   42.0830   32.6840   37.9930 C   0  0  2  0  0  3  0  0  0  0  0  0
   41.7090   32.8990   39.4610 C   0  0  1  0  0  3  0  0  0  0  0  0
   42.1900   34.1950   39.6400 O   0  0  0  0  0  0  0  0  0  0  0  0
   43.5240   34.0520   39.2570 C   0  0  0  0  0  2  0  0  0  0  0  0
   43.5250   33.1680   38.0320 C   0  0  2  0  0  3  0  0  0  0  0  0
   41.3760   33.6010   37.1930 O   0  0  0  0  0  0  0  0  0  0  0  0
   41.8230   34.4930   37.2130 H   0  0  0  0  0  0  0  0  0  0  0  0
   43.8910   33.8560   36.8820 O   0  0  0  0  0  0  0  0  0  0  0  0
   43.5750   33.3240   36.1070 H   0  0  0  0  0  0  0  0  0  0  0  0
  1  2  2  0  0  0  0
  1  9  1  0  0  0  0
  2  3  1  0  0  0  0
  3 11  1  0  0  0  0
  3  4  2  0  0  0  0
  4  5  1  0  0  0  0
  5 12  1  0  0  0  0
  5  6  1  0  0  0  0
  6 13  1  0  0  0  0
  7  6  2  0  0  0  0
  8  4  1  0  0  0  0
  8  7  1  0  0  0  0
  9 23  1  0  0  0  0
  9  8  2  0  0  0  0
 10  1  1  0  0  0  0
 14 15  2  0  0  0  0
 14 19  1  0  0  0  0
 15 16  1  0  0  0  0
 16 22  1  0  0  0  0
 16 17  2  0  0  0  0
 18 17  1  0  0  0  0
 18  2  1  0  0  0  0
 19 18  2  0  0  0  0
 20 14  1  0  0  0  0
 21 15  1  0  0  0  0
 23 24  2  0  0  0  0
 24 28  1  0  0  0  0
 25 24  1  0  0  0  0
 25 29  1  0  0  0  0
 26 25  2  0  0  0  0
 27 26  1  0  0  0  0
 27 23  1  0  0  0  0
 30 35  1  6  0  0  0
 30 34  1  0  0  0  0
 30 31  1  0  0  0  0
 31 32  1  0  0  0  0
 31 26  1  6  0  0  0
 33 32  1  0  0  0  0
 34 37  1  6  0  0  0
 34 33  1  0  0  0  0
 35 36  1  0  0  0  0
 38 37  1  0  0  0  0
M  END
>  <minimizedAffinity>
-6.80442381

$$$$

 OpenBabel03252506583D

 38 42  0  0  1  0  0  0  0  0999 V2000
   37.4780   27.1910   39.5450 C   0  0  0  0  0  0  0  0  0  0  0  0
   37.1380   26.0160   40.1860 C   0  0  0  0  0  0  0  0  0  0  0  0
   36.9960   25.9200   41.5560 C   0  0  0  0  0  0  0  0  0  0  0  0
   37.1960   27.0340   42.3560 C   0  0  0  0  0  0  0  0  0  0  0  0
   37.1490   27.3160   43.6900 N   0  0  0  0  0  0  0  0  0  0  0  0
   37.4500   28.6250   43.8640 C   0  0  0  0  0  0  0  0  0  0  0  0
   37.6830   29.1430   42.6310 N   0  0  0  0  0  0  0  0  0  0  0  0
   37.5350   28.1980   41.6950 C   0  0  0  0  0  0  0  0  0  0  0  0
   37.6840   28.3210   40.3380 C   0  0  0  0  0  0  0  0  0  0  0  0
   37.5870   27.2580   38.4800 H   0  0  0  0  0  0  0  0  0  0  0  0
   36.7260   24.9930   42.0640 H   0  0  0  0  0  0  0  0  0  0  0  0
   36.9100   26.5910   44.4040 H   0  0  0  0  0  0  0  0  0  0  0  0
   37.4870   29.1280   44.8410 H   0  0  0  0  0  0  0  0  0  0  0  0
   36.5370   23.8070   37.2970 C   0  0  0  0  0  0  0  0  0  0  0  0
   36.5000   22.5480   37.8880 C   0  0  0  0  0  0  0  0  0  0  0  0
   36.6780   22.4510   39.2620 C   0  0  0  0  0  0  0  0  0  0  0  0
   36.8840   23.6070   39.9760 N   0  0  0  0  0  0  0  0  0  0  0  0
   36.9160   24.8150   39.3830 C   0  0  0  0  0  0  0  0  0  0  0  0
   36.7450   24.9110   38.0590 N   0  0  0  0  0  0  0  0  0  0  0  0
   36.4030   23.9220   36.2330 H   0  0  0  0  0  0  0  0  0  0  0  0
   36.3360   21.6750   37.2870 H   0  0  0  0  0  0  0  0  0  0  0  0
   36.6590   21.5020   39.7780 H   0  0  0  0  0  0  0  0  0  0  0  0
   38.0480   29.6100   39.7330 C   0  0  0  0  0  0  0  0  0  0  0  0
   37.1750   30.4090   39.0150 C   0  0  0  0  0  0  0  0  0  0  0  0
   37.9620   31.5050   38.6510 C   0  0  0  0  0  0  0  0  0  0  0  0
   39.2460   31.3100   39.1600 C   0  0  0  0  0  0  0  0  0  0  0  0
   39.2350   30.1590   39.7990 O   0  0  0  0  0  0  0  0  0  0  0  0
   36.1320   30.2620   38.7700 H   0  0  0  0  0  0  0  0  0  0  0  0
   37.6650   32.3640   38.0780 H   0  0  0  0  0  0  0  0  0  0  0  0
   41.0910   32.1140   37.6760 C   0  0  2  0  0  3  0  0  0  0  0  0
   40.4320   32.1650   39.0560 C   0  0  1  0  0  3  0  0  0  0  0  0
   40.1670   33.5310   39.1410 O   0  0  0  0  0  0  0  0  0  0  0  0
   41.4360   34.0740   38.9360 C   0  0  0  0  0  2  0  0  0  0  0  0
   42.0720   33.2680   37.8280 C   0  0  2  0  0  3  0  0  0  0  0  0
   40.1590   32.5100   36.6990 O   0  0  0  0  0  0  0  0  0  0  0  0
   40.0910   33.5050   36.6700 H   0  0  0  0  0  0  0  0  0  0  0  0
   42.2230   34.0010   36.6580 O   0  0  0  0  0  0  0  0  0  0  0  0
   42.3420   33.3520   35.9180 H   0  0  0  0  0  0  0  0  0  0  0  0
  1  2  2  0  0  0  0
  1  9  1  0  0  0  0
  2  3  1  0  0  0  0
  3 11  1  0  0  0  0
  3  4  2  0  0  0  0
  4  5  1  0  0  0  0
  5  6  1  0  0  0  0
  5 12  1  0  0  0  0
  6 13  1  0  0  0  0
  7  6  2  0  0  0  0
  8  4  1  0  0  0  0
  8  7  1  0  0  0  0
  9  8  2  0  0  0  0
 10  1  1  0  0  0  0
 14 15  2  0  0  0  0
 14 19  1  0  0  0  0
 15 16  1  0  0  0  0
 16 22  1  0  0  0  0
 16 17  2  0  0  0  0
 18 17  1  0  0  0  0
 18  2  1  0  0  0  0
 19 18  2  0  0  0  0
 20 14  1  0  0  0  0
 21 15  1  0  0  0  0
 23 27  1  0  0  0  0
 23  9  1  0  0  0  0
 24 23  2  0  0  0  0
 25 24  1  0  0  0  0
 25 26  2  0  0  0  0
 26 27  1  0  0  0  0
 28 24  1  0  0  0  0
 29 25  1  0  0  0  0
 30 35  1  6  0  0  0
 30 34  1  0  0  0  0
 30 31  1  0  0  0  0
 31 32  1  0  0  0  0
 31 26  1  6  0  0  0
 33 32  1  0  0  0  0
 34 37  1  6  0  0  0
 34 33  1  0  0  0  0
 36 35  1  0  0  0  0
 38 37  1  0  0  0  0
M  END
>  <minimizedAffinity>
-6.78773403

$$$$

 OpenBabel03252506583D

 38 42  0  0  1  0  0  0  0  0999 V2000
   37.0530   28.6500   39.2190 C   0  0  0  0  0  0  0  0  0  0  0  0
   36.5930   27.3740   39.4810 C   0  0  0  0  0  0  0  0  0  0  0  0
   36.5680   26.8300   40.7500 C   0  0  0  0  0  0  0  0  0  0  0  0
   37.0190   27.5680   41.8320 C   0  0  0  0  0  0  0  0  0  0  0  0
   37.1440   27.3760   43.1770 N   0  0  0  0  0  0  0  0  0  0  0  0
   37.6650   28.5000   43.7250 C   0  0  0  0  0  0  0  0  0  0  0  0
   37.8590   29.3800   42.7100 N   0  0  0  0  0  0  0  0  0  0  0  0
   37.4740   28.8400   41.5480 C   0  0  0  0  0  0  0  0  0  0  0  0
   37.5110   29.4050   40.3000 C   0  0  0  0  0  0  0  0  0  0  0  0
   37.0690   29.0660   38.2300 H   0  0  0  0  0  0  0  0  0  0  0  0
   36.2050   25.8220   40.9590 H   0  0  0  0  0  0  0  0  0  0  0  0
   36.8620   26.4820   43.6420 H   0  0  0  0  0  0  0  0  0  0  0  0
   37.8740   28.6270   44.7970 H   0  0  0  0  0  0  0  0  0  0  0  0
   35.5440   24.4580   37.4860 C   0  0  0  0  0  0  0  0  0  0  0  0
   35.1940   25.0380   36.2710 C   0  0  0  0  0  0  0  0  0  0  0  0
   35.3140   26.4140   36.1310 C   0  0  0  0  0  0  0  0  0  0  0  0
   35.7750   27.1420   37.2030 N   0  0  0  0  0  0  0  0  0  0  0  0
   36.1070   26.5580   38.3700 C   0  0  0  0  0  0  0  0  0  0  0  0
   35.9920   25.2320   38.5070 N   0  0  0  0  0  0  0  0  0  0  0  0
   35.4640   23.3920   37.6330 H   0  0  0  0  0  0  0  0  0  0  0  0
   34.8400   24.4280   35.4640 H   0  0  0  0  0  0  0  0  0  0  0  0
   35.0590   26.9230   35.2120 H   0  0  0  0  0  0  0  0  0  0  0  0
   38.0150   30.7710   40.1040 C   0  0  0  0  0  0  0  0  0  0  0  0
   37.2370   31.9120   40.2010 C   0  0  0  0  0  0  0  0  0  0  0  0
   38.1410   32.9450   39.9410 C   0  0  0  0  0  0  0  0  0  0  0  0
   39.3950   32.3810   39.7060 C   0  0  0  0  0  0  0  0  0  0  0  0
   39.2570   31.0760   39.8180 O   0  0  0  0  0  0  0  0  0  0  0  0
   36.1840   32.0240   40.4210 H   0  0  0  0  0  0  0  0  0  0  0  0
   37.9420   34.0010   39.9170 H   0  0  0  0  0  0  0  0  0  0  0  0
   41.2580   32.5880   38.0510 C   0  0  2  0  0  3  0  0  0  0  0  0
   40.6690   33.0340   39.3900 C   0  0  1  0  0  3  0  0  0  0  0  0
   40.5720   34.4050   39.1610 O   0  0  0  0  0  0  0  0  0  0  0  0
   41.8870   34.7240   38.8190 C   0  0  0  0  0  2  0  0  0  0  0  0
   42.3750   33.6130   37.9180 C   0  0  2  0  0  3  0  0  0  0  0  0
   40.3390   32.8650   37.0210 O   0  0  0  0  0  0  0  0  0  0  0  0
   40.3890   33.8280   36.7640 H   0  0  0  0  0  0  0  0  0  0  0  0
   42.5620   34.0350   36.6090 O   0  0  0  0  0  0  0  0  0  0  0  0
   42.5720   33.2260   36.0360 H   0  0  0  0  0  0  0  0  0  0  0  0
  1  2  2  0  0  0  0
  1  9  1  0  0  0  0
  2  3  1  0  0  0  0
  3 11  1  0  0  0  0
  3  4  2  0  0  0  0
  4  5  1  0  0  0  0
  5 12  1  0  0  0  0
  5  6  1  0  0  0  0
  6 13  1  0  0  0  0
  7  6  2  0  0  0  0
  8  4  1  0  0  0  0
  8  7  1  0  0  0  0
  9  8  2  0  0  0  0
 10  1  1  0  0  0  0
 14 20  1  0  0  0  0
 14 19  1  0  0  0  0
 15 14  2  0  0  0  0
 16 15  1  0  0  0  0
 16 17  2  0  0  0  0
 17 18  1  0  0  0  0
 18 19  2  0  0  0  0
 18  2  1  0  0  0  0
 21 15  1  0  0  0  0
 22 16  1  0  0  0  0
 23 24  2  0  0  0  0
 23  9  1  0  0  0  0
 24 28  1  0  0  0  0
 25 24  1  0  0  0  0
 26 27  1  0  0  0  0
 26 25  2  0  0  0  0
 27 23  1  0  0  0  0
 29 25  1  0  0  0  0
 30 35  1  6  0  0  0
 30 31  1  0  0  0  0
 31 26  1  6  0  0  0
 32 31  1  0  0  0  0
 33 32  1  0  0  0  0
 34 37  1  6  0  0  0
 34 30  1  0  0  0  0
 34 33  1  0  0  0  0
 36 35  1  0  0  0  0
 38 37  1  0  0  0  0
M  END
>  <minimizedAffinity>
-6.68754625

$$$$

 OpenBabel03252506583D

 38 42  0  0  1  0  0  0  0  0999 V2000
   37.0090   25.8380   40.7040 C   0  0  0  0  0  0  0  0  0  0  0  0
   37.4560   24.5570   40.9660 C   0  0  0  0  0  0  0  0  0  0  0  0
   38.4250   24.2770   41.9100 C   0  0  0  0  0  0  0  0  0  0  0  0
   38.9980   25.3030   42.6440 C   0  0  0  0  0  0  0  0  0  0  0  0
   39.9430   25.4110   43.6220 N   0  0  0  0  0  0  0  0  0  0  0  0
   40.0740   26.7190   43.9510 C   0  0  0  0  0  0  0  0  0  0  0  0
   39.2050   27.4100   43.1700 N   0  0  0  0  0  0  0  0  0  0  0  0
   38.5370   26.5740   42.3670 C   0  0  0  0  0  0  0  0  0  0  0  0
   37.5780   26.8810   41.4360 C   0  0  0  0  0  0  0  0  0  0  0  0
   36.2570   26.0470   39.9700 H   0  0  0  0  0  0  0  0  0  0  0  0
   38.7790   23.2660   42.1190 H   0  0  0  0  0  0  0  0  0  0  0  0
   40.4440   24.5780   44.0080 H   0  0  0  0  0  0  0  0  0  0  0  0
   40.7680   27.0990   44.7140 H   0  0  0  0  0  0  0  0  0  0  0  0
   35.0980   22.5180   39.0000 C   0  0  0  0  0  0  0  0  0  0  0  0
   35.8130   21.3390   38.8070 C   0  0  0  0  0  0  0  0  0  0  0  0
   37.0890   21.2390   39.3440 C   0  0  0  0  0  0  0  0  0  0  0  0
   37.5900   22.3120   40.0430 N   0  0  0  0  0  0  0  0  0  0  0  0
   36.8800   23.4430   40.2160 C   0  0  0  0  0  0  0  0  0  0  0  0
   35.6490   23.5420   39.6990 N   0  0  0  0  0  0  0  0  0  0  0  0
   34.1030   22.6330   38.5980 H   0  0  0  0  0  0  0  0  0  0  0  0
   35.3780   20.5300   38.2550 H   0  0  0  0  0  0  0  0  0  0  0  0
   37.6930   20.3500   39.2290 H   0  0  0  0  0  0  0  0  0  0  0  0
   37.1570   28.2710   41.2170 C   0  0  0  0  0  0  0  0  0  0  0  0
   35.8390   28.6780   41.0910 C   0  0  0  0  0  0  0  0  0  0  0  0
   35.9410   30.0580   40.9020 C   0  0  0  0  0  0  0  0  0  0  0  0
   37.2920   30.4040   40.9240 C   0  0  0  0  0  0  0  0  0  0  0  0
   37.9710   29.2930   41.1160 O   0  0  0  0  0  0  0  0  0  0  0  0
   34.9240   28.1020   41.1240 H   0  0  0  0  0  0  0  0  0  0  0  0
   35.1410   30.7620   40.7600 H   0  0  0  0  0  0  0  0  0  0  0  0
   39.2780   31.6590   40.0660 C   0  0  2  0  0  3  0  0  0  0  0  0
   37.9220   31.7200   40.7720 C   0  0  1  0  0  3  0  0  0  0  0  0
   37.2470   32.5850   39.9130 O   0  0  0  0  0  0  0  0  0  0  0  0
   38.0980   33.6910   39.9070 C   0  0  0  0  0  2  0  0  0  0  0  0
   39.5070   33.1470   39.8410 C   0  0  2  0  0  3  0  0  0  0  0  0
   39.1160   31.0830   38.7920 O   0  0  0  0  0  0  0  0  0  0  0  0
   38.7700   31.7620   38.1480 H   0  0  0  0  0  0  0  0  0  0  0  0
   40.1220   33.4160   38.6250 O   0  0  0  0  0  0  0  0  0  0  0  0
   40.8820   32.7860   38.5340 H   0  0  0  0  0  0  0  0  0  0  0  0
  1  2  2  0  0  0  0
  1  9  1  0  0  0  0
  2  3  1  0  0  0  0
  3 11  1  0  0  0  0
  3  4  2  0  0  0  0
  4  5  1  0  0  0  0
  5  6  1  0  0  0  0
  5 12  1  0  0  0  0
  6 13  1  0  0  0  0
  7  6  2  0  0  0  0
  8  4  1  0  0  0  0
  8  7  1  0  0  0  0
  9  8  2  0  0  0  0
 10  1  1  0  0  0  0
 14 19  1  0  0  0  0
 15 14  2  0  0  0  0
 15 16  1  0  0  0  0
 16 17  2  0  0  0  0
 17 18  1  0  0  0  0
 18  2  1  0  0  0  0
 19 18  2  0  0  0  0
 20 14  1  0  0  0  0
 21 15  1  0  0  0  0
 22 16  1  0  0  0  0
 23  9  1  0  0  0  0
 24 28  1  0  0  0  0
 24 23  2  0  0  0  0
 25 26  2  0  0  0  0
 25 24  1  0  0  0  0
 26 27  1  0  0  0  0
 27 23  1  0  0  0  0
 29 25  1  0  0  0  0
 30 35  1  6  0  0  0
 30 31  1  0  0  0  0
 31 26  1  6  0  0  0
 32 31  1  0  0  0  0
 33 32  1  0  0  0  0
 34 37  1  6  0  0  0
 34 33  1  0  0  0  0
 34 30  1  0  0  0  0
 36 35  1  0  0  0  0
 38 37  1  0  0  0  0
M  END
>  <minimizedAffinity>
-6.57991219

$$$$

 OpenBabel03252506583D

 38 42  0  0  1  0  0  0  0  0999 V2000
   39.7770   30.3750   41.5880 C   0  0  0  0  0  0  0  0  0  0  0  0
   38.4240   30.1250   41.4700 C   0  0  0  0  0  0  0  0  0  0  0  0
   37.5210   31.0720   41.0270 C   0  0  0  0  0  0  0  0  0  0  0  0
   37.9570   32.3400   40.6770 C   0  0  0  0  0  0  0  0  0  0  0  0
   37.3870   33.4900   40.2160 N   0  0  0  0  0  0  0  0  0  0  0  0
   38.3600   34.4190   40.0560 C   0  0  0  0  0  0  0  0  0  0  0  0
   39.5290   33.8320   40.4210 N   0  0  0  0  0  0  0  0  0  0  0  0
   39.3130   32.5670   40.8020 C   0  0  0  0  0  0  0  0  0  0  0  0
   40.2310   31.6480   41.2400 C   0  0  0  0  0  0  0  0  0  0  0  0
   40.4720   29.6350   41.9340 H   0  0  0  0  0  0  0  0  0  0  0  0
   36.4510   30.8770   40.9320 H   0  0  0  0  0  0  0  0  0  0  0  0
   36.3600   33.5700   40.0370 H   0  0  0  0  0  0  0  0  0  0  0  0
   38.1860   35.4430   39.6950 H   0  0  0  0  0  0  0  0  0  0  0  0
   37.5680   26.5450   41.2830 C   0  0  0  0  0  0  0  0  0  0  0  0
   36.9600   26.3200   42.5140 C   0  0  0  0  0  0  0  0  0  0  0  0
   36.8420   27.3800   43.4030 C   0  0  0  0  0  0  0  0  0  0  0  0
   37.3320   28.6070   43.0240 N   0  0  0  0  0  0  0  0  0  0  0  0
   37.9180   28.8020   41.8270 C   0  0  0  0  0  0  0  0  0  0  0  0
   38.0330   27.7810   40.9680 N   0  0  0  0  0  0  0  0  0  0  0  0
   37.6780   25.7460   40.5660 H   0  0  0  0  0  0  0  0  0  0  0  0
   36.5930   25.3440   42.7630 H   0  0  0  0  0  0  0  0  0  0  0  0
   36.3790   27.2680   44.3730 H   0  0  0  0  0  0  0  0  0  0  0  0
   41.6560   31.9920   41.3370 C   0  0  0  0  0  0  0  0  0  0  0  0
   42.3700   32.0360   42.5230 C   0  0  0  0  0  0  0  0  0  0  0  0
   43.6550   32.4010   42.1160 C   0  0  0  0  0  0  0  0  0  0  0  0
   43.6480   32.5560   40.7300 C   0  0  0  0  0  0  0  0  0  0  0  0
   42.4240   32.2970   40.3210 O   0  0  0  0  0  0  0  0  0  0  0  0
   42.0510   31.8430   43.5390 H   0  0  0  0  0  0  0  0  0  0  0  0
   44.5220   32.5480   42.7340 H   0  0  0  0  0  0  0  0  0  0  0  0
   44.4680   32.5540   38.3680 C   0  0  2  0  0  3  0  0  0  0  0  0
   44.7400   32.9290   39.8250 C   0  0  1  0  0  3  0  0  0  0  0  0
   44.9270   34.3030   39.6850 O   0  0  0  0  0  0  0  0  0  0  0  0
   45.9470   34.3490   38.7350 C   0  0  0  0  0  2  0  0  0  0  0  0
   45.6190   33.2950   37.7030 C   0  0  2  0  0  3  0  0  0  0  0  0
   43.2850   33.1830   37.9360 O   0  0  0  0  0  0  0  0  0  0  0  0
   43.4690   34.1340   37.6950 H   0  0  0  0  0  0  0  0  0  0  0  0
   45.2650   33.8450   36.4770 O   0  0  0  0  0  0  0  0  0  0  0  0
   44.7770   33.1470   35.9710 H   0  0  0  0  0  0  0  0  0  0  0  0
  1 10  1  0  0  0  0
  2  1  1  0  0  0  0
  2 18  1  0  0  0  0
  3  2  2  0  0  0  0
  4  8  2  0  0  0  0
  4  3  1  0  0  0  0
  5  4  1  0  0  0  0
  6  5  1  0  0  0  0
  6  7  2  0  0  0  0
  7  8  1  0  0  0  0
  8  9  1  0  0  0  0
  9 23  1  0  0  0  0
  9  1  2  0  0  0  0
 11  3  1  0  0  0  0
 12  5  1  0  0  0  0
 13  6  1  0  0  0  0
 14 15  1  0  0  0  0
 15 21  1  0  0  0  0
 15 16  2  0  0  0  0
 16 22  1  0  0  0  0
 17 16  1  0  0  0  0
 18 17  2  0  0  0  0
 19 14  2  0  0  0  0
 19 18  1  0  0  0  0
 20 14  1  0  0  0  0
 23 24  2  0  0  0  0
 24 28  1  0  0  0  0
 25 24  1  0  0  0  0
 25 29  1  0  0  0  0
 26 25  2  0  0  0  0
 27 26  1  0  0  0  0
 27 23  1  0  0  0  0
 30 35  1  6  0  0  0
 30 31  1  0  0  0  0
 31 26  1  1  0  0  0
 32 31  1  0  0  0  0
 33 32  1  0  0  0  0
 34 37  1  6  0  0  0
 34 30  1  0  0  0  0
 34 33  1  0  0  0  0
 36 35  1  0  0  0  0
 38 37  1  0  0  0  0
M  END
>  <minimizedAffinity>
-6.55610418

$$$$

 OpenBabel03252506583D

 38 42  0  0  1  0  0  0  0  0999 V2000
   37.3960   28.6950   40.0210 C   0  0  0  0  0  0  0  0  0  0  0  0
   38.1450   28.9780   41.1470 C   0  0  0  0  0  0  0  0  0  0  0  0
   38.4530   30.2650   41.5420 C   0  0  0  0  0  0  0  0  0  0  0  0
   38.0060   31.3460   40.7990 C   0  0  0  0  0  0  0  0  0  0  0  0
   38.1050   32.7050   40.8720 N   0  0  0  0  0  0  0  0  0  0  0  0
   37.4350   33.2410   39.8230 C   0  0  0  0  0  0  0  0  0  0  0  0
   36.9280   32.2050   39.1080 N   0  0  0  0  0  0  0  0  0  0  0  0
   37.2580   31.0410   39.6790 C   0  0  0  0  0  0  0  0  0  0  0  0
   36.9390   29.7750   39.2630 C   0  0  0  0  0  0  0  0  0  0  0  0
   37.1610   27.6930   39.7200 H   0  0  0  0  0  0  0  0  0  0  0  0
   39.0450   30.4900   42.4300 H   0  0  0  0  0  0  0  0  0  0  0  0
   38.6260   33.1850   41.6400 H   0  0  0  0  0  0  0  0  0  0  0  0
   37.3490   34.3200   39.6310 H   0  0  0  0  0  0  0  0  0  0  0  0
   39.9100   27.0880   43.7730 C   0  0  0  0  0  0  0  0  0  0  0  0
   39.5570   25.7730   43.4820 C   0  0  0  0  0  0  0  0  0  0  0  0
   38.7230   25.5320   42.3980 C   0  0  0  0  0  0  0  0  0  0  0  0
   38.2840   26.6050   41.6610 N   0  0  0  0  0  0  0  0  0  0  0  0
   38.6380   27.8690   41.9610 C   0  0  0  0  0  0  0  0  0  0  0  0
   39.4420   28.1050   43.0050 N   0  0  0  0  0  0  0  0  0  0  0  0
   40.5560   27.3150   44.6070 H   0  0  0  0  0  0  0  0  0  0  0  0
   39.9260   24.9700   44.0880 H   0  0  0  0  0  0  0  0  0  0  0  0
   38.4140   24.5340   42.1220 H   0  0  0  0  0  0  0  0  0  0  0  0
   36.1350   29.5580   38.0530 C   0  0  0  0  0  0  0  0  0  0  0  0
   34.8470   29.0500   38.0510 C   0  0  0  0  0  0  0  0  0  0  0  0
   34.5070   29.0300   36.6960 C   0  0  0  0  0  0  0  0  0  0  0  0
   35.5900   29.5180   35.9660 C   0  0  0  0  0  0  0  0  0  0  0  0
   36.5350   29.8190   36.8330 O   0  0  0  0  0  0  0  0  0  0  0  0
   34.2190   28.7330   38.8730 H   0  0  0  0  0  0  0  0  0  0  0  0
   33.5830   28.7020   36.2570 H   0  0  0  0  0  0  0  0  0  0  0  0
   36.0210   31.1470   34.1170 C   0  0  2  0  0  3  0  0  0  0  0  0
   35.7360   29.6980   34.5180 C   0  0  1  0  0  3  0  0  0  0  0  0
   36.8570   29.0770   33.9720 O   0  0  0  0  0  0  0  0  0  0  0  0
   36.7740   29.4760   32.6370 C   0  0  0  0  0  2  0  0  0  0  0  0
   36.3720   30.9330   32.6520 C   0  0  2  0  0  3  0  0  0  0  0  0
   37.2000   31.5830   34.7510 O   0  0  0  0  0  0  0  0  0  0  0  0
   38.0000   31.2500   34.2560 H   0  0  0  0  0  0  0  0  0  0  0  0
   37.3920   31.7700   32.2180 O   0  0  0  0  0  0  0  0  0  0  0  0
   37.1830   32.6830   32.5420 H   0  0  0  0  0  0  0  0  0  0  0  0
  1  2  1  0  0  0  0
  2  3  2  0  0  0  0
  2 18  1  0  0  0  0
  3 11  1  0  0  0  0
  4  5  1  0  0  0  0
  4  3  1  0  0  0  0
  5 12  1  0  0  0  0
  6  5  1  0  0  0  0
  7  8  1  0  0  0  0
  7  6  2  0  0  0  0
  8  4  2  0  0  0  0
  9  8  1  0  0  0  0
  9  1  2  0  0  0  0
 10  1  1  0  0  0  0
 13  6  1  0  0  0  0
 14 20  1  0  0  0  0
 15 14  1  0  0  0  0
 15 21  1  0  0  0  0
 16 15  2  0  0  0  0
 17 18  2  0  0  0  0
 17 16  1  0  0  0  0
 18 19  1  0  0  0  0
 19 14  2  0  0  0  0
 22 16  1  0  0  0  0
 23  9  1  0  0  0  0
 24 23  2  0  0  0  0
 24 28  1  0  0  0  0
 25 24  1  0  0  0  0
 26 25  2  0  0  0  0
 26 27  1  0  0  0  0
 27 23  1  0  0  0  0
 29 25  1  0  0  0  0
 30 31  1  0  0  0  0
 30 35  1  1  0  0  0
 31 26  1  1  0  0  0
 32 31  1  0  0  0  0
 33 34  1  0  0  0  0
 33 32  1  0  0  0  0
 34 37  1  1  0  0  0
 34 30  1  0  0  0  0
 36 35  1  0  0  0  0
 37 38  1  0  0  0  0
M  END
>  <minimizedAffinity>
-6.45082664

$$$$

 OpenBabel03252506583D

 38 42  0  0  1  0  0  0  0  0999 V2000
   37.0090   29.4470   39.2650 C   0  0  0  0  0  0  0  0  0  0  0  0
   36.8420   30.2280   38.1380 C   0  0  0  0  0  0  0  0  0  0  0  0
   37.3340   31.5150   38.0350 C   0  0  0  0  0  0  0  0  0  0  0  0
   38.0320   32.0790   39.0900 C   0  0  0  0  0  0  0  0  0  0  0  0
   38.6440   33.2710   39.3470 N   0  0  0  0  0  0  0  0  0  0  0  0
   39.1720   33.2240   40.5940 C   0  0  0  0  0  0  0  0  0  0  0  0
   38.8800   31.9980   41.0990 N   0  0  0  0  0  0  0  0  0  0  0  0
   38.1890   31.2810   40.2060 C   0  0  0  0  0  0  0  0  0  0  0  0
   37.7100   30.0030   40.3360 C   0  0  0  0  0  0  0  0  0  0  0  0
   36.6230   28.4490   39.3380 H   0  0  0  0  0  0  0  0  0  0  0  0
   37.2030   32.1330   37.1460 H   0  0  0  0  0  0  0  0  0  0  0  0
   38.6640   34.0490   38.6490 H   0  0  0  0  0  0  0  0  0  0  0  0
   39.7240   34.0500   41.0640 H   0  0  0  0  0  0  0  0  0  0  0  0
   34.2400   28.5480   36.1400 C   0  0  0  0  0  0  0  0  0  0  0  0
   34.7510   28.6400   34.8490 C   0  0  0  0  0  0  0  0  0  0  0  0
   35.9730   29.2700   34.6590 C   0  0  0  0  0  0  0  0  0  0  0  0
   36.6250   29.7760   35.7590 N   0  0  0  0  0  0  0  0  0  0  0  0
   36.1110   29.6750   37.0000 C   0  0  0  0  0  0  0  0  0  0  0  0
   34.9330   29.0680   37.1850 N   0  0  0  0  0  0  0  0  0  0  0  0
   33.2930   28.0650   36.3270 H   0  0  0  0  0  0  0  0  0  0  0  0
   34.2040   28.2290   34.0230 H   0  0  0  0  0  0  0  0  0  0  0  0
   36.4220   29.3720   33.6810 H   0  0  0  0  0  0  0  0  0  0  0  0
   37.9320   29.2360   41.5700 C   0  0  0  0  0  0  0  0  0  0  0  0
   36.9860   29.0710   42.5670 C   0  0  0  0  0  0  0  0  0  0  0  0
   37.6460   28.2830   43.5140 C   0  0  0  0  0  0  0  0  0  0  0  0
   38.9320   28.0210   43.0450 C   0  0  0  0  0  0  0  0  0  0  0  0
   39.0450   28.6170   41.8770 O   0  0  0  0  0  0  0  0  0  0  0  0
   35.9720   29.4420   42.6380 H   0  0  0  0  0  0  0  0  0  0  0  0
   37.2610   27.9250   44.4510 H   0  0  0  0  0  0  0  0  0  0  0  0
   40.1720   25.8490   43.0580 C   0  0  2  0  0  3  0  0  0  0  0  0
   40.0120   27.2450   43.6630 C   0  0  1  0  0  3  0  0  0  0  0  0
   41.2900   27.7510   43.4310 O   0  0  0  0  0  0  0  0  0  0  0  0
   42.0870   26.7900   44.0550 C   0  0  0  0  0  2  0  0  0  0  0  0
   41.4880   25.4470   43.7080 C   0  0  2  0  0  3  0  0  0  0  0  0
   40.4270   25.9650   41.6780 O   0  0  0  0  0  0  0  0  0  0  0  0
   41.3890   26.1830   41.5230 H   0  0  0  0  0  0  0  0  0  0  0  0
   42.3010   24.7070   42.8580 O   0  0  0  0  0  0  0  0  0  0  0  0
   41.7320   24.0130   42.4370 H   0  0  0  0  0  0  0  0  0  0  0  0
  1 10  1  0  0  0  0
  1  9  1  0  0  0  0
  2  1  2  0  0  0  0
  3  2  1  0  0  0  0
  3  4  2  0  0  0  0
  4  5  1  0  0  0  0
  4  8  1  0  0  0  0
  5  6  1  0  0  0  0
  6 13  1  0  0  0  0
  6  7  2  0  0  0  0
  8  9  2  0  0  0  0
  8  7  1  0  0  0  0
  9 23  1  0  0  0  0
 11  3  1  0  0  0  0
 12  5  1  0  0  0  0
 14 20  1  0  0  0  0
 14 19  1  0  0  0  0
 15 14  2  0  0  0  0
 16 15  1  0  0  0  0
 16 17  2  0  0  0  0
 17 18  1  0  0  0  0
 18 19  2  0  0  0  0
 18  2  1  0  0  0  0
 21 15  1  0  0  0  0
 22 16  1  0  0  0  0
 23 27  1  0  0  0  0
 23 24  2  0  0  0  0
 24 28  1  0  0  0  0
 24 25  1  0  0  0  0
 25 29  1  0  0  0  0
 26 25  2  0  0  0  0
 27 26  1  0  0  0  0
 30 35  1  6  0  0  0
 30 31  1  0  0  0  0
 30 34  1  0  0  0  0
 31 26  1  6  0  0  0
 32 31  1  0  0  0  0
 32 33  1  0  0  0  0
 34 37  1  6  0  0  0
 34 33  1  0  0  0  0
 36 35  1  0  0  0  0
 38 37  1  0  0  0  0
M  END
>  <minimizedAffinity>
-6.33313417

$$$$

 OpenBabel03252506583D

 38 42  0  0  1  0  0  0  0  0999 V2000
   36.7400   25.5430   40.2550 C   0  0  0  0  0  0  0  0  0  0  0  0
   36.8220   24.1670   40.3400 C   0  0  0  0  0  0  0  0  0  0  0  0
   37.6810   23.5170   41.2040 C   0  0  0  0  0  0  0  0  0  0  0  0
   38.5130   24.2460   42.0380 C   0  0  0  0  0  0  0  0  0  0  0  0
   39.4550   23.9690   42.9850 N   0  0  0  0  0  0  0  0  0  0  0  0
   39.9370   25.1390   43.4680 C   0  0  0  0  0  0  0  0  0  0  0  0
   39.2860   26.1340   42.8120 N   0  0  0  0  0  0  0  0  0  0  0  0
   38.4140   25.6200   41.9370 C   0  0  0  0  0  0  0  0  0  0  0  0
   37.5720   26.2910   41.0890 C   0  0  0  0  0  0  0  0  0  0  0  0
   36.0710   26.0410   39.5810 H   0  0  0  0  0  0  0  0  0  0  0  0
   37.7470   22.4300   41.2730 H   0  0  0  0  0  0  0  0  0  0  0  0
   39.7110   22.9890   43.2460 H   0  0  0  0  0  0  0  0  0  0  0  0
   40.7100   25.2170   44.2460 H   0  0  0  0  0  0  0  0  0  0  0  0
   35.6790   22.0300   37.5630 C   0  0  0  0  0  0  0  0  0  0  0  0
   34.3360   21.8340   37.8710 C   0  0  0  0  0  0  0  0  0  0  0  0
   33.8230   22.4250   39.0180 C   0  0  0  0  0  0  0  0  0  0  0  0
   34.6670   23.1800   39.7970 N   0  0  0  0  0  0  0  0  0  0  0  0
   35.9640   23.3560   39.4790 C   0  0  0  0  0  0  0  0  0  0  0  0
   36.4610   22.7870   38.3740 N   0  0  0  0  0  0  0  0  0  0  0  0
   36.1140   21.5870   36.6800 H   0  0  0  0  0  0  0  0  0  0  0  0
   33.7180   21.2370   37.2310 H   0  0  0  0  0  0  0  0  0  0  0  0
   32.7890   22.3100   39.3100 H   0  0  0  0  0  0  0  0  0  0  0  0
   37.5450   27.7600   41.0590 C   0  0  0  0  0  0  0  0  0  0  0  0
   36.5980   28.5360   41.7070 C   0  0  0  0  0  0  0  0  0  0  0  0
   36.9800   29.8430   41.3930 C   0  0  0  0  0  0  0  0  0  0  0  0
   38.1160   29.7860   40.5870 C   0  0  0  0  0  0  0  0  0  0  0  0
   38.4070   28.5120   40.4220 O   0  0  0  0  0  0  0  0  0  0  0  0
   35.7540   28.2450   42.3170 H   0  0  0  0  0  0  0  0  0  0  0  0
   36.5050   30.7560   41.7010 H   0  0  0  0  0  0  0  0  0  0  0  0
   39.3700   30.5740   38.5720 C   0  0  2  0  0  3  0  0  0  0  0  0
   38.8990   30.8760   39.9950 C   0  0  1  0  0  3  0  0  0  0  0  0
   38.1740   32.0430   39.7620 O   0  0  0  0  0  0  0  0  0  0  0  0
   39.1320   32.8470   39.1430 C   0  0  0  0  0  2  0  0  0  0  0  0
   39.8850   31.9530   38.1840 C   0  0  2  0  0  3  0  0  0  0  0  0
   38.2530   30.3210   37.7540 O   0  0  0  0  0  0  0  0  0  0  0  0
   37.8310   31.1800   37.4710 H   0  0  0  0  0  0  0  0  0  0  0  0
   39.6290   32.2670   36.8560 O   0  0  0  0  0  0  0  0  0  0  0  0
   39.8870   31.4790   36.3120 H   0  0  0  0  0  0  0  0  0  0  0  0
  1  2  2  0  0  0  0
  1  9  1  0  0  0  0
  2  3  1  0  0  0  0
  3 11  1  0  0  0  0
  3  4  2  0  0  0  0
  4  5  1  0  0  0  0
  5 12  1  0  0  0  0
  5  6  1  0  0  0  0
  6 13  1  0  0  0  0
  7  6  2  0  0  0  0
  8  4  1  0  0  0  0
  8  7  1  0  0  0  0
  9  8  2  0  0  0  0
 10  1  1  0  0  0  0
 14 15  2  0  0  0  0
 14 19  1  0  0  0  0
 15 16  1  0  0  0  0
 16 22  1  0  0  0  0
 16 17  2  0  0  0  0
 18 17  1  0  0  0  0
 18  2  1  0  0  0  0
 19 18  2  0  0  0  0
 20 14  1  0  0  0  0
 21 15  1  0  0  0  0
 23  9  1  0  0  0  0
 23 24  2  0  0  0  0
 24 28  1  0  0  0  0
 25 29  1  0  0  0  0
 25 24  1  0  0  0  0
 26 25  2  0  0  0  0
 27 26  1  0  0  0  0
 27 23  1  0  0  0  0
 30 35  1  6  0  0  0
 30 31  1  0  0  0  0
 31 26  1  6  0  0  0
 32 31  1  0  0  0  0
 33 32  1  0  0  0  0
 34 37  1  6  0  0  0
 34 30  1  0  0  0  0
 34 33  1  0  0  0  0
 36 35  1  0  0  0  0
 38 37  1  0  0  0  0
M  END
>  <minimizedAffinity>
-6.31810999

$$$$
