
 OpenBabel03252501293D

 38 40  0  0  1  0  0  0  0  0999 V2000
   46.8530   31.3990   46.2730 C   0  0  0  0  0  0  0  0  0  0  0  0
   46.5090   32.6500   45.8200 C   0  0  0  0  0  0  0  0  0  0  0  0
   46.8880   33.1580   44.6100 C   0  0  0  0  0  0  0  0  0  0  0  0
   47.6480   32.3970   43.8010 C   0  0  0  0  0  0  0  0  0  0  0  0
   48.0200   31.1100   44.2260 C   0  0  0  0  0  0  0  0  0  0  0  0
   47.6210   30.6240   45.4520 C   0  0  0  0  0  0  0  0  0  0  0  0
   45.8890   33.2210   46.5290 H   0  0  0  0  0  0  0  0  0  0  0  0
   46.5320   34.1590   44.4060 H   0  0  0  0  0  0  0  0  0  0  0  0
   48.6280   30.6520   43.4400 H   0  0  0  0  0  0  0  0  0  0  0  0
   47.4440   28.3140   44.7620 C   0  0  0  0  0  0  0  0  0  0  0  0
   46.3910   28.1910   44.0320 O   0  0  0  0  0  0  0  0  0  0  0  0
   48.1590   29.2990   45.5250 N   0  0  0  0  0  0  0  0  0  0  0  0
   47.7030   27.2540   44.6200 H   0  0  0  0  0  0  0  0  0  0  0  0
   48.9700   28.8620   46.0130 H   0  0  0  0  0  0  0  0  0  0  0  0
   47.7960   34.5100   42.5020 C   0  0  1  0  0  0  0  0  0  0  0  0
   48.0280   33.0240   42.4870 C   0  0  1  0  0  0  0  0  0  0  0  0
   49.3320   32.7830   42.1530 O   0  0  0  0  0  0  0  0  0  0  0  0
   50.0690   33.9310   42.2070 C   0  0  0  0  0  0  0  0  0  0  0  0
   49.1620   35.0970   42.3870 C   0  0  1  0  0  0  0  0  0  0  0  0
   47.0760   34.8540   41.3670 O   0  0  0  0  0  0  0  0  0  0  0  0
   47.5160   34.4540   40.5810 H   0  0  0  0  0  0  0  0  0  0  0  0
   49.2920   35.9320   41.2640 O   0  0  0  0  0  0  0  0  0  0  0  0
   48.4800   36.4570   41.1330 H   0  0  0  0  0  0  0  0  0  0  0  0
   46.5340   30.7500   47.5430 C   0  0  0  0  0  0  0  0  0  0  0  0
   46.8890   31.3960   48.4000 H   0  0  0  0  0  0  0  0  0  0  0  0
   47.1500   29.8380   47.6230 H   0  0  0  0  0  0  0  0  0  0  0  0
   45.0590   30.4830   47.6750 C   0  0  0  0  0  0  0  0  0  0  0  0
   44.7540   30.6730   48.7430 H   0  0  0  0  0  0  0  0  0  0  0  0
   44.4800   31.2280   47.0530 H   0  0  0  0  0  0  0  0  0  0  0  0
   43.6240   27.5910   45.9540 C   0  0  0  0  0  0  0  0  0  0  0  0
   44.3170   26.5060   46.5300 C   0  0  0  0  0  0  0  0  0  0  0  0
   45.2740   26.8280   47.5060 C   0  0  0  0  0  0  0  0  0  0  0  0
   45.4880   28.1130   47.8460 N   0  0  0  0  0  0  0  0  0  0  0  0
   44.7850   29.1010   47.2490 C   0  0  0  0  0  0  0  0  0  0  0  0
   43.8810   28.8640   46.3340 N   0  0  0  0  0  0  0  0  0  0  0  0
   42.8660   27.4680   45.1920 H   0  0  0  0  0  0  0  0  0  0  0  0
   44.0700   25.5100   46.1880 H   0  0  0  0  0  0  0  0  0  0  0  0
   45.8040   25.9970   47.9490 H   0  0  0  0  0  0  0  0  0  0  0  0
  1 24  1  0  0  0  0
  2  1  1  0  0  0  0
  2  7  1  0  0  0  0
  3  2  2  0  0  0  0
  4  5  2  0  0  0  0
  4  3  1  0  0  0  0
  5  6  1  0  0  0  0
  6 12  1  0  0  0  0
  6  1  2  0  0  0  0
  8  3  1  0  0  0  0
  9  5  1  0  0  0  0
 10 12  1  0  0  0  0
 11 10  2  0  0  0  0
 12 14  1  0  0  0  0
 13 10  1  0  0  0  0
 15 20  1  6  0  0  0
 16 15  1  0  0  0  0
 16  4  1  1  0  0  0
 17 18  1  0  0  0  0
 17 16  1  0  0  0  0
 18 19  1  0  0  0  0
 19 22  1  6  0  0  0
 19 15  1  0  0  0  0
 21 20  1  0  0  0  0
 23 22  1  0  0  0  0
 24 26  1  0  0  0  0
 24 27  1  0  0  0  0
 24 25  1  0  0  0  0
 27 28  1  0  0  0  0
 29 27  1  0  0  0  0
 30 35  2  0  0  0  0
 30 31  1  0  0  0  0
 31 32  2  0  0  0  0
 32 33  1  0  0  0  0
 32 38  1  0  0  0  0
 34 27  1  0  0  0  0
 34 33  2  0  0  0  0
 35 34  1  0  0  0  0
 36 30  1  0  0  0  0
 37 31  1  0  0  0  0
M  END
>  <minimizedAffinity>
-4.48854589

>  <minimizedRMSD>
7.91498041

$$$$
