
 OpenBabel03242517233D

 43 46  0  0  1  0  0  0  0  0999 V2000
   44.6410   35.3470   45.4880 C   0  0  0  0  0  0  0  0  0  0  0  0
   44.3790   35.9110   44.2220 C   0  0  0  0  0  0  0  0  0  0  0  0
   44.8550   35.2420   43.0750 C   0  0  0  0  0  0  0  0  0  0  0  0
   45.5440   34.0860   43.2630 N   0  0  0  0  0  0  0  0  0  0  0  0
   45.7770   33.5740   44.4930 C   0  0  0  0  0  0  0  0  0  0  0  0
   45.3250   34.2060   45.6100 N   0  0  0  0  0  0  0  0  0  0  0  0
   46.5110   32.3510   44.5830 N   0  0  0  0  0  0  0  0  0  0  0  0
   46.4810   31.6840   45.8830 C   0  0  0  0  0  0  0  0  0  0  0  0
   47.5270   30.6500   46.0780 C   0  0  0  0  0  0  0  0  0  0  0  0
   47.8090   29.9380   44.7960 C   0  0  0  0  0  0  0  0  0  0  0  0
   48.3540   30.9620   43.8470 C   0  0  0  0  0  0  0  0  0  0  0  0
   47.2250   31.8400   43.4400 C   0  0  2  0  0  0  0  0  0  0  0  0
   44.2430   35.9190   46.3160 H   0  0  0  0  0  0  0  0  0  0  0  0
   43.8420   36.8130   44.0620 H   0  0  0  0  0  0  0  0  0  0  0  0
   44.6790   35.6340   42.0820 H   0  0  0  0  0  0  0  0  0  0  0  0
   46.6210   32.4900   46.6490 H   0  0  0  0  0  0  0  0  0  0  0  0
   45.4790   31.2530   46.0750 H   0  0  0  0  0  0  0  0  0  0  0  0
   48.4600   31.1800   46.3900 H   0  0  0  0  0  0  0  0  0  0  0  0
   47.1900   29.9710   46.8830 H   0  0  0  0  0  0  0  0  0  0  0  0
   48.6180   29.1930   44.9720 H   0  0  0  0  0  0  0  0  0  0  0  0
   46.8710   29.4740   44.4520 H   0  0  0  0  0  0  0  0  0  0  0  0
   48.7530   30.4300   42.9620 H   0  0  0  0  0  0  0  0  0  0  0  0
   49.1160   31.5650   44.3660 H   0  0  0  0  0  0  0  0  0  0  0  0
   46.4760   31.2020   42.8900 H   0  0  0  0  0  0  0  0  0  0  0  0
   46.4850   31.8660   40.6640 F   0  0  0  0  0  0  0  0  0  0  0  0
   47.2680   32.8880   41.1060 C   0  0  0  0  0  0  0  0  0  0  0  0
   47.6310   32.8830   42.4570 C   0  0  0  0  0  0  0  0  0  0  0  0
   48.4290   33.9410   42.8670 C   0  0  0  0  0  0  0  0  0  0  0  0
   48.8530   34.9460   42.0260 C   0  0  0  0  0  0  0  0  0  0  0  0
   48.4730   34.9180   40.6940 C   0  0  0  0  0  0  0  0  0  0  0  0
   47.6880   33.8870   40.2640 C   0  0  0  0  0  0  0  0  0  0  0  0
   48.7250   33.9570   43.9190 H   0  0  0  0  0  0  0  0  0  0  0  0
   49.4710   35.7210   42.4540 H   0  0  0  0  0  0  0  0  0  0  0  0
   48.8080   35.7120   40.0320 H   0  0  0  0  0  0  0  0  0  0  0  0
   48.5430   34.0030   37.9360 C   0  0  1  0  0  0  0  0  0  0  0  0
   47.3080   33.8970   38.8390 C   0  0  1  0  0  0  0  0  0  0  0  0
   46.7730   32.6990   38.4110 O   0  0  0  0  0  0  0  0  0  0  0  0
   46.8410   32.6940   37.0400 C   0  0  0  0  0  0  0  0  0  0  0  0
   47.8380   33.7420   36.5990 C   0  0  2  0  0  0  0  0  0  0  0  0
   49.1180   35.2610   37.9720 O   0  0  0  0  0  0  0  0  0  0  0  0
   49.7220   35.2690   38.7550 H   0  0  0  0  0  0  0  0  0  0  0  0
   48.6880   33.3440   35.6030 O   0  0  0  0  0  0  0  0  0  0  0  0
   49.4960   32.8740   35.8630 H   0  0  0  0  0  0  0  0  0  0  0  0
  1  6  1  0  0  0  0
  1 13  1  0  0  0  0
  2  1  2  0  0  0  0
  3  4  2  0  0  0  0
  3  2  1  0  0  0  0
  4  5  1  0  0  0  0
  5  7  1  0  0  0  0
  5  6  2  0  0  0  0
  7  8  1  0  0  0  0
  8 17  1  0  0  0  0
  8  9  1  0  0  0  0
  8 16  1  0  0  0  0
  9 18  1  0  0  0  0
  9 19  1  0  0  0  0
 10 20  1  0  0  0  0
 10  9  1  0  0  0  0
 11 23  1  0  0  0  0
 11 10  1  0  0  0  0
 12 24  1  6  0  0  0
 12 11  1  0  0  0  0
 12  7  1  0  0  0  0
 14  2  1  0  0  0  0
 15  3  1  0  0  0  0
 21 10  1  0  0  0  0
 22 11  1  0  0  0  0
 25 26  1  0  0  0  0
 26 27  1  0  0  0  0
 27 28  2  0  0  0  0
 27 12  1  0  0  0  0
 28 32  1  0  0  0  0
 29 33  1  0  0  0  0
 29 28  1  0  0  0  0
 30 29  2  0  0  0  0
 31 30  1  0  0  0  0
 31 26  2  0  0  0  0
 34 30  1  0  0  0  0
 35 40  1  6  0  0  0
 35 36  1  0  0  0  0
 36 31  1  1  0  0  0
 37 36  1  0  0  0  0
 38 37  1  0  0  0  0
 39 42  1  6  0  0  0
 39 38  1  0  0  0  0
 39 35  1  0  0  0  0
 40 41  1  0  0  0  0
 42 43  1  0  0  0  0
M  END
>  <minimizedAffinity>
-6.93052483

>  <minimizedRMSD>
1.09477985

$$$$
