
 OpenBabel03252505253D

 43 46  0  0  1  0  0  0  0  0999 V2000
   46.7520   33.3690   44.6610 F   0  0  0  0  0  0  0  0  0  0  0  0
   47.3990   32.1920   44.4580 C   0  0  0  0  0  0  0  0  0  0  0  0
   48.2150   32.0820   43.3620 C   0  0  0  0  0  0  0  0  0  0  0  0
   48.8620   30.8860   43.1720 C   0  0  0  0  0  0  0  0  0  0  0  0
   48.6790   29.8520   44.0630 C   0  0  0  0  0  0  0  0  0  0  0  0
   47.8620   29.9620   45.1620 C   0  0  0  0  0  0  0  0  0  0  0  0
   47.2070   31.1750   45.3530 C   0  0  0  0  0  0  0  0  0  0  0  0
   49.5030   30.8330   42.2910 H   0  0  0  0  0  0  0  0  0  0  0  0
   49.2390   28.9480   43.8190 H   0  0  0  0  0  0  0  0  0  0  0  0
   47.7490   29.1220   45.8340 H   0  0  0  0  0  0  0  0  0  0  0  0
   46.3670   31.2510   46.5030 N   0  0  0  0  0  0  0  0  0  0  0  0
   45.2740   30.4200   46.9270 C   0  0  0  0  0  0  0  0  0  0  0  0
   45.6400   30.1110   48.3860 C   0  0  0  0  0  0  0  0  0  0  0  0
   46.5290   31.2610   48.7840 C   0  0  0  0  0  0  0  0  0  0  0  0
   46.3620   32.1990   47.6030 C   0  0  2  0  0  0  0  0  0  0  0  0
   45.2280   29.4570   46.3650 H   0  0  0  0  0  0  0  0  0  0  0  0
   44.2950   30.8970   46.9030 H   0  0  0  0  0  0  0  0  0  0  0  0
   44.7390   30.0060   49.0220 H   0  0  0  0  0  0  0  0  0  0  0  0
   46.2230   29.1800   48.4220 H   0  0  0  0  0  0  0  0  0  0  0  0
   46.2700   31.7190   49.7510 H   0  0  0  0  0  0  0  0  0  0  0  0
   47.6170   30.9630   48.8060 H   0  0  0  0  0  0  0  0  0  0  0  0
   47.2980   32.8220   47.5680 H   0  0  0  0  0  0  0  0  0  0  0  0
   45.1490   33.0580   47.6600 C   0  0  0  0  0  0  0  0  0  0  0  0
   45.4630   34.1370   47.6980 H   0  0  0  0  0  0  0  0  0  0  0  0
   44.4870   32.9920   46.7690 H   0  0  0  0  0  0  0  0  0  0  0  0
   44.5870   32.8860   48.6170 H   0  0  0  0  0  0  0  0  0  0  0  0
   49.1210   35.3780   42.0480 C   0  0  0  0  0  0  0  0  0  0  0  0
   48.6900   35.3170   40.7200 C   0  0  0  0  0  0  0  0  0  0  0  0
   48.0940   34.1290   40.3080 C   0  0  0  0  0  0  0  0  0  0  0  0
   47.9600   33.1060   41.1990 N   0  0  0  0  0  0  0  0  0  0  0  0
   48.3790   33.2020   42.4450 C   0  0  0  0  0  0  0  0  0  0  0  0
   48.9580   34.3310   42.8720 N   0  0  0  0  0  0  0  0  0  0  0  0
   49.5900   36.2880   42.3960 H   0  0  0  0  0  0  0  0  0  0  0  0
   48.8430   36.1720   40.1120 H   0  0  0  0  0  0  0  0  0  0  0  0
   46.5030   33.0560   38.8040 C   0  0  2  0  0  3  0  0  0  0  0  0
   47.6230   34.0310   38.9010 C   0  0  2  0  0  3  0  0  0  0  0  0
   48.6300   33.6800   38.0330 O   0  0  0  0  0  0  0  0  0  0  0  0
   48.2790   32.5360   37.3760 C   0  0  0  0  0  2  0  0  0  0  0  0
   47.0850   31.9170   38.0230 C   0  0  1  0  0  3  0  0  0  0  0  0
   45.3770   33.5900   38.1800 O   0  0  0  0  0  0  0  0  0  0  0  0
   44.6400   33.6110   38.8420 H   0  0  0  0  0  0  0  0  0  0  0  0
   47.4220   30.8110   38.7960 O   0  0  0  0  0  0  0  0  0  0  0  0
   48.3670   30.5220   38.6900 H   0  0  0  0  0  0  0  0  0  0  0  0
  2  1  1  0  0  0  0
  2  7  1  0  0  0  0
  3  2  2  0  0  0  0
  4  3  1  0  0  0  0
  4  5  2  0  0  0  0
  5  6  1  0  0  0  0
  6  7  2  0  0  0  0
  6 10  1  0  0  0  0
  7 11  1  0  0  0  0
  8  4  1  0  0  0  0
  9  5  1  0  0  0  0
 11 12  1  0  0  0  0
 11 15  1  0  0  0  0
 12 13  1  0  0  0  0
 13 19  1  0  0  0  0
 13 14  1  0  0  0  0
 13 18  1  0  0  0  0
 14 21  1  0  0  0  0
 14 20  1  0  0  0  0
 15 22  1  6  0  0  0
 15 23  1  0  0  0  0
 15 14  1  0  0  0  0
 16 12  1  0  0  0  0
 17 12  1  0  0  0  0
 23 24  1  0  0  0  0
 23 26  1  0  0  0  0
 25 23  1  0  0  0  0
 27 33  1  0  0  0  0
 27 32  1  0  0  0  0
 28 27  2  0  0  0  0
 29 28  1  0  0  0  0
 29 30  2  0  0  0  0
 30 31  1  0  0  0  0
 31 32  2  0  0  0  0
 31  3  1  0  0  0  0
 34 28  1  0  0  0  0
 35 40  1  6  0  0  0
 35 36  1  0  0  0  0
 36 29  1  1  0  0  0
 37 36  1  0  0  0  0
 38 39  1  0  0  0  0
 38 37  1  0  0  0  0
 39 42  1  1  0  0  0
 39 35  1  0  0  0  0
 40 41  1  0  0  0  0
 43 42  1  0  0  0  0
M  END
>  <minimizedAffinity>
-5.64144564

>  <minimizedRMSD>
0.908177257

$$$$
