
 OpenBabel03252505193D

 34 37  0  0  1  0  0  0  0  0999 V2000
   46.0840   32.5810   46.9350 C   0  0  0  0  0  0  0  0  0  0  0  0
   45.0440   32.6580   47.8380 C   0  0  0  0  0  0  0  0  0  0  0  0
   45.0690   31.8700   48.9800 C   0  0  0  0  0  0  0  0  0  0  0  0
   46.1540   31.0310   49.1620 C   0  0  0  0  0  0  0  0  0  0  0  0
   47.1700   30.9960   48.2180 C   0  0  0  0  0  0  0  0  0  0  0  0
   47.1470   31.7660   47.1020 N   0  0  0  0  0  0  0  0  0  0  0  0
   44.1900   33.3140   47.7020 H   0  0  0  0  0  0  0  0  0  0  0  0
   44.2490   31.9350   49.6870 H   0  0  0  0  0  0  0  0  0  0  0  0
   46.1900   30.4180   50.0330 H   0  0  0  0  0  0  0  0  0  0  0  0
   45.0750   35.1340   44.4730 C   0  0  0  0  0  0  0  0  0  0  0  0
   45.9950   34.9570   43.4130 C   0  0  0  0  0  0  0  0  0  0  0  0
   46.9290   33.9640   43.5960 C   0  0  0  0  0  0  0  0  0  0  0  0
   46.9490   33.2070   44.7420 N   0  0  0  0  0  0  0  0  0  0  0  0
   46.0320   33.4190   45.7410 C   0  0  0  0  0  0  0  0  0  0  0  0
   45.1060   34.3810   45.5920 N   0  0  0  0  0  0  0  0  0  0  0  0
   44.3150   35.9180   44.3610 H   0  0  0  0  0  0  0  0  0  0  0  0
   45.9510   35.5720   42.5240 H   0  0  0  0  0  0  0  0  0  0  0  0
   47.9320   33.6700   42.5210 C   0  0  0  0  0  0  0  0  0  0  0  0
   49.1460   34.5960   42.5930 C   0  0  0  0  0  0  0  0  0  0  0  0
   49.1860   33.0610   42.8780 C   0  0  0  0  0  0  0  0  0  0  0  0
   47.5000   33.5470   41.5010 H   0  0  0  0  0  0  0  0  0  0  0  0
   49.2660   35.2210   43.5010 H   0  0  0  0  0  0  0  0  0  0  0  0
   49.5260   34.9290   41.6300 H   0  0  0  0  0  0  0  0  0  0  0  0
   49.4290   32.7700   43.9250 H   0  0  0  0  0  0  0  0  0  0  0  0
   49.7580   32.5050   42.1130 H   0  0  0  0  0  0  0  0  0  0  0  0
   49.0480   30.3270   49.7350 C   0  0  1  0  0  3  0  0  0  0  0  0
   48.3050   30.0840   48.4590 C   0  0  2  0  0  3  0  0  0  0  0  0
   49.3100   30.1850   47.5040 O   0  0  0  0  0  0  0  0  0  0  0  0
   50.3090   29.3790   47.9980 C   0  0  0  0  0  2  0  0  0  0  0  0
   50.2720   29.4310   49.5030 C   0  0  2  0  0  3  0  0  0  0  0  0
   49.4720   31.6180   49.9320 O   0  0  0  0  0  0  0  0  0  0  0  0
   48.8610   32.1830   50.4670 H   0  0  0  0  0  0  0  0  0  0  0  0
   50.0190   28.1200   49.9510 O   0  0  0  0  0  0  0  0  0  0  0  0
   49.0630   27.8940   49.8230 H   0  0  0  0  0  0  0  0  0  0  0  0
  1  6  2  0  0  0  0
  1  2  1  0  0  0  0
  2  3  2  0  0  0  0
  3  4  1  0  0  0  0
  3  8  1  0  0  0  0
  4  9  1  0  0  0  0
  5  4  2  0  0  0  0
  6  5  1  0  0  0  0
  7  2  1  0  0  0  0
 10 15  1  0  0  0  0
 11 12  1  0  0  0  0
 11 10  2  0  0  0  0
 12 13  2  0  0  0  0
 13 14  1  0  0  0  0
 14  1  1  0  0  0  0
 15 14  2  0  0  0  0
 16 10  1  0  0  0  0
 17 11  1  0  0  0  0
 18 19  1  0  0  0  0
 18 20  1  0  0  0  0
 18 12  1  0  0  0  0
 19 20  1  0  0  0  0
 19 22  1  0  0  0  0
 20 24  1  0  0  0  0
 21 18  1  0  0  0  0
 23 19  1  0  0  0  0
 25 20  1  0  0  0  0
 26 31  1  6  0  0  0
 27  5  1  6  0  0  0
 27 26  1  0  0  0  0
 28 29  1  0  0  0  0
 28 27  1  0  0  0  0
 29 30  1  0  0  0  0
 30 26  1  0  0  0  0
 30 33  1  1  0  0  0
 31 32  1  0  0  0  0
 34 33  1  0  0  0  0
M  END
>  <minimizedAffinity>
-6.02605343

>  <minimizedRMSD>
1.24239707

$$$$
