
 OpenBabel03242518353D

 35 38  0  0  1  0  0  0  0  0999 V2000
   46.3820   33.3720   40.2910 C   0  0  0  0  0  0  0  0  0  0  0  0
   46.5240   32.0570   40.7060 C   0  0  0  0  0  0  0  0  0  0  0  0
   46.9340   31.2840   39.6320 C   0  0  0  0  0  0  0  0  0  0  0  0
   47.0220   32.1800   38.5960 C   0  0  0  0  0  0  0  0  0  0  0  0
   46.6970   33.3920   38.9970 O   0  0  0  0  0  0  0  0  0  0  0  0
   46.3220   31.7650   41.7450 H   0  0  0  0  0  0  0  0  0  0  0  0
   47.1210   30.2140   39.6800 H   0  0  0  0  0  0  0  0  0  0  0  0
   47.4290   31.8350   37.2270 C   0  0  2  0  0  0  0  0  0  0  0  0
   47.6280   32.9070   36.2320 C   0  0  0  0  0  0  0  0  0  0  0  0
   46.3490   32.1300   36.1630 C   0  0  1  0  0  0  0  0  0  0  0  0
   47.9220   30.8440   37.1120 H   0  0  0  0  0  0  0  0  0  0  0  0
   47.4950   33.9470   36.6050 H   0  0  0  0  0  0  0  0  0  0  0  0
   48.4100   32.7560   35.4600 H   0  0  0  0  0  0  0  0  0  0  0  0
   45.4030   32.5790   36.4950 H   0  0  0  0  0  0  0  0  0  0  0  0
   45.1200   31.5520   34.0970 C   0  0  1  0  0  0  0  0  0  0  0  0
   46.2750   31.1800   34.9860 C   0  0  2  0  0  0  0  0  0  0  0  0
   45.9100   29.8960   35.3850 O   0  0  0  0  0  0  0  0  0  0  0  0
   44.5720   29.9390   35.6950 C   0  0  0  0  0  0  0  0  0  0  0  0
   43.9340   31.0240   34.8620 C   0  0  2  0  0  0  0  0  0  0  0  0
   45.0600   32.9110   33.8310 O   0  0  0  0  0  0  0  0  0  0  0  0
   45.1950   33.0910   32.8500 H   0  0  0  0  0  0  0  0  0  0  0  0
   42.9660   30.5110   33.9960 O   0  0  0  0  0  0  0  0  0  0  0  0
   43.0670   31.0310   33.1470 H   0  0  0  0  0  0  0  0  0  0  0  0
   45.9960   34.5390   40.9800 O   0  0  0  0  0  0  0  0  0  0  0  0
   46.7530   34.9610   42.0990 C   0  0  0  0  0  0  0  0  0  0  0  0
   47.9180   35.3350   41.8690 O   0  0  0  0  0  0  0  0  0  0  0  0
   46.0780   34.9040   43.3590 C   0  0  0  0  0  0  0  0  0  0  0  0
   45.1810   35.9150   43.5730 C   0  0  0  0  0  0  0  0  0  0  0  0
   44.4840   35.9260   44.7830 C   0  0  0  0  0  0  0  0  0  0  0  0
   44.7310   34.9370   45.6790 N   0  0  0  0  0  0  0  0  0  0  0  0
   45.6160   33.9700   45.4260 C   0  0  0  0  0  0  0  0  0  0  0  0
   46.2770   33.9690   44.2680 N   0  0  0  0  0  0  0  0  0  0  0  0
   44.9080   36.7470   42.9330 H   0  0  0  0  0  0  0  0  0  0  0  0
   43.7650   36.6700   45.0420 H   0  0  0  0  0  0  0  0  0  0  0  0
   45.8620   33.1520   46.0950 H   0  0  0  0  0  0  0  0  0  0  0  0
  1  2  2  0  0  0  0
  1 24  1  0  0  0  0
  2  6  1  0  0  0  0
  3  7  1  0  0  0  0
  3  2  1  0  0  0  0
  4  5  1  0  0  0  0
  4  3  2  0  0  0  0
  5  1  1  0  0  0  0
  8 11  1  6  0  0  0
  8  4  1  0  0  0  0
  9 12  1  0  0  0  0
  9  8  1  0  0  0  0
 10  9  1  0  0  0  0
 10 14  1  1  0  0  0
 10  8  1  0  0  0  0
 13  9  1  0  0  0  0
 15 20  1  1  0  0  0
 15 19  1  0  0  0  0
 15 16  1  0  0  0  0
 16 17  1  1  0  0  0
 16 10  1  0  0  0  0
 17 18  1  0  0  0  0
 19 22  1  6  0  0  0
 19 18  1  0  0  0  0
 21 20  1  0  0  0  0
 23 22  1  0  0  0  0
 24 25  1  0  0  0  0
 25 27  1  0  0  0  0
 26 25  2  0  0  0  0
 27 28  2  0  0  0  0
 27 32  1  0  0  0  0
 28 29  1  0  0  0  0
 29 34  1  0  0  0  0
 29 30  2  0  0  0  0
 31 30  1  0  0  0  0
 31 35  1  0  0  0  0
 32 31  2  0  0  0  0
 33 28  1  0  0  0  0
M  END
>  <minimizedAffinity>
-5.92181444

>  <minimizedRMSD>
1.46431065

$$$$
