
 OpenBabel03252502403D

 46 49  0  0  1  0  0  0  0  0999 V2000
   36.9930   29.5730   40.1360 C   0  0  1  0  0  0  0  0  0  0  0  0
   38.0390   29.5660   39.7100 H   0  0  0  0  0  0  0  0  0  0  0  0
   37.0100   28.5990   41.1950 N   0  0  0  0  0  0  0  0  0  0  0  0
   37.7880   27.4580   40.8860 C   0  0  0  0  0  0  0  0  0  0  0  0
   37.3670   26.3920   41.9120 C   0  0  0  0  0  0  0  0  0  0  0  0
   37.9530   26.8630   43.1390 N   0  0  0  0  0  0  0  0  0  0  0  0
   37.4860   28.1290   43.5350 C   0  0  0  0  0  0  0  0  0  0  0  0
   37.3500   29.1680   42.4320 C   0  0  0  0  0  0  0  0  0  0  0  0
   38.8790   27.6510   41.0690 H   0  0  0  0  0  0  0  0  0  0  0  0
   37.6590   27.0720   39.8700 H   0  0  0  0  0  0  0  0  0  0  0  0
   36.2760   26.4110   41.9980 H   0  0  0  0  0  0  0  0  0  0  0  0
   37.7980   25.4100   41.6660 H   0  0  0  0  0  0  0  0  0  0  0  0
   38.9380   26.6330   43.2850 H   0  0  0  0  0  0  0  0  0  0  0  0
   38.1100   28.5030   44.3800 H   0  0  0  0  0  0  0  0  0  0  0  0
   36.4600   27.9870   43.9810 H   0  0  0  0  0  0  0  0  0  0  0  0
   38.4550   29.4130   42.3220 H   0  0  0  0  0  0  0  0  0  0  0  0
   36.7860   29.9440   42.8940 H   0  0  0  0  0  0  0  0  0  0  0  0
   34.7320   29.0130   39.2440 C   0  0  0  0  0  0  0  0  0  0  0  0
   36.0610   29.3570   39.0760 C   0  0  0  0  0  0  0  0  0  0  0  0
   36.4910   29.4960   37.7410 C   0  0  0  0  0  0  0  0  0  0  0  0
   35.6070   29.2920   36.7160 N   0  0  0  0  0  0  0  0  0  0  0  0
   34.3140   28.9550   36.9620 C   0  0  0  0  0  0  0  0  0  0  0  0
   33.8830   28.8180   38.2240 N   0  0  0  0  0  0  0  0  0  0  0  0
   34.4080   28.9080   40.2680 H   0  0  0  0  0  0  0  0  0  0  0  0
   37.5220   29.7650   37.5420 H   0  0  0  0  0  0  0  0  0  0  0  0
   33.6930   28.8140   36.0770 H   0  0  0  0  0  0  0  0  0  0  0  0
   36.7160   30.9570   40.7400 C   0  0  0  0  0  0  0  0  0  0  0  0
   35.6850   31.2950   40.6960 H   0  0  0  0  0  0  0  0  0  0  0  0
   36.7710   30.6460   41.8330 H   0  0  0  0  0  0  0  0  0  0  0  0
   37.6440   31.9890   40.4110 C   0  0  0  0  0  0  0  0  0  0  0  0
   37.7150   33.3380   40.4790 C   0  0  0  0  0  0  0  0  0  0  0  0
   38.7490   34.1610   40.0760 C   0  0  0  0  0  0  0  0  0  0  0  0
   39.7970   33.5420   39.5580 N   0  0  0  0  0  0  0  0  0  0  0  0
   39.8170   32.2330   39.4530 C   0  0  0  0  0  0  0  0  0  0  0  0
   38.7860   31.5160   39.8630 N   0  0  0  0  0  0  0  0  0  0  0  0
   36.7900   33.7650   40.9180 H   0  0  0  0  0  0  0  0  0  0  0  0
   38.5860   35.2150   40.2270 H   0  0  0  0  0  0  0  0  0  0  0  0
   40.7410   31.2600   37.3850 C   0  0  2  0  0  3  0  0  0  0  0  0
   41.0490   31.5910   38.8520 C   0  0  1  0  0  3  0  0  0  0  0  0
   42.0920   32.4650   38.7000 O   0  0  0  0  0  0  0  0  0  0  0  0
   42.9660   31.7320   37.9070 C   0  0  0  0  0  2  0  0  0  0  0  0
   42.1470   30.9970   36.8840 C   0  0  1  0  0  3  0  0  0  0  0  0
   40.2950   32.4240   36.7740 O   0  0  0  0  0  0  0  0  0  0  0  0
   39.9030   32.2720   35.8930 H   0  0  0  0  0  0  0  0  0  0  0  0
   42.3420   29.6000   36.9640 O   0  0  0  0  0  0  0  0  0  0  0  0
   41.9870   29.2580   37.8220 H   0  0  0  0  0  0  0  0  0  0  0  0
  1  2  1  6  0  0  0
  1 27  1  0  0  0  0
  1  3  1  0  0  0  0
  3  8  1  0  0  0  0
  4  9  1  0  0  0  0
  4  3  1  0  0  0  0
  4  5  1  0  0  0  0
  5 11  1  0  0  0  0
  5  6  1  0  0  0  0
  6 13  1  0  0  0  0
  6  7  1  0  0  0  0
  7 15  1  0  0  0  0
  7 14  1  0  0  0  0
  8 17  1  0  0  0  0
  8  7  1  0  0  0  0
 10  4  1  0  0  0  0
 12  5  1  0  0  0  0
 16  8  1  0  0  0  0
 18 24  1  0  0  0  0
 19 18  1  0  0  0  0
 19  1  1  0  0  0  0
 20 19  2  0  0  0  0
 21 22  2  0  0  0  0
 21 20  1  0  0  0  0
 22 23  1  0  0  0  0
 23 18  2  0  0  0  0
 25 20  1  0  0  0  0
 26 22  1  0  0  0  0
 27 29  1  0  0  0  0
 28 27  1  0  0  0  0
 30 31  1  0  0  0  0
 30 27  1  0  0  0  0
 31 36  1  0  0  0  0
 32 37  1  0  0  0  0
 32 31  2  0  0  0  0
 33 32  1  0  0  0  0
 34 33  2  0  0  0  0
 34 35  1  0  0  0  0
 35 30  2  0  0  0  0
 38 43  1  6  0  0  0
 38 39  1  0  0  0  0
 39 34  1  6  0  0  0
 40 39  1  0  0  0  0
 41 40  1  0  0  0  0
 42 45  1  1  0  0  0
 42 38  1  0  0  0  0
 42 41  1  0  0  0  0
 44 43  1  0  0  0  0
 45 46  1  0  0  0  0
M  END
>  <minimizedAffinity>
-5.81403208

$$$$

 OpenBabel03252502403D

 46 49  0  0  1  0  0  0  0  0999 V2000
   37.2260   30.1070   39.9840 C   0  0  1  0  0  0  0  0  0  0  0  0
   38.1140   29.4620   39.7160 H   0  0  0  0  0  0  0  0  0  0  0  0
   36.2420   29.8340   38.9700 N   0  0  0  0  0  0  0  0  0  0  0  0
   36.7490   29.0560   37.9010 C   0  0  0  0  0  0  0  0  0  0  0  0
   35.7230   29.2130   36.7660 C   0  0  0  0  0  0  0  0  0  0  0  0
   34.5990   28.4410   37.2260 N   0  0  0  0  0  0  0  0  0  0  0  0
   34.0560   28.9050   38.4380 C   0  0  0  0  0  0  0  0  0  0  0  0
   35.0580   29.3070   39.5090 C   0  0  0  0  0  0  0  0  0  0  0  0
   36.7570   27.9650   38.1640 H   0  0  0  0  0  0  0  0  0  0  0  0
   37.7440   29.3470   37.5500 H   0  0  0  0  0  0  0  0  0  0  0  0
   35.4390   30.2690   36.7040 H   0  0  0  0  0  0  0  0  0  0  0  0
   36.0960   28.7750   35.8290 H   0  0  0  0  0  0  0  0  0  0  0  0
   34.6470   27.4330   37.0610 H   0  0  0  0  0  0  0  0  0  0  0  0
   33.3200   28.1590   38.8190 H   0  0  0  0  0  0  0  0  0  0  0  0
   33.4390   29.8190   38.2040 H   0  0  0  0  0  0  0  0  0  0  0  0
   35.3530   28.2580   39.8370 H   0  0  0  0  0  0  0  0  0  0  0  0
   34.4600   29.8220   40.2230 H   0  0  0  0  0  0  0  0  0  0  0  0
   38.7450   31.8800   40.8610 C   0  0  0  0  0  0  0  0  0  0  0  0
   37.6590   31.4610   40.1130 C   0  0  0  0  0  0  0  0  0  0  0  0
   36.9530   32.4780   39.4410 C   0  0  0  0  0  0  0  0  0  0  0  0
   37.3580   33.7800   39.5560 N   0  0  0  0  0  0  0  0  0  0  0  0
   38.4360   34.1130   40.3120 C   0  0  0  0  0  0  0  0  0  0  0  0
   39.1240   33.1620   40.9610 N   0  0  0  0  0  0  0  0  0  0  0  0
   39.2810   31.0980   41.3740 H   0  0  0  0  0  0  0  0  0  0  0  0
   36.0920   32.2150   38.8360 H   0  0  0  0  0  0  0  0  0  0  0  0
   38.6750   35.1780   40.3400 H   0  0  0  0  0  0  0  0  0  0  0  0
   36.6770   29.6500   41.3430 C   0  0  0  0  0  0  0  0  0  0  0  0
   36.3180   30.4390   41.9980 H   0  0  0  0  0  0  0  0  0  0  0  0
   35.6830   29.2460   40.9640 H   0  0  0  0  0  0  0  0  0  0  0  0
   37.4430   28.6690   42.0380 C   0  0  0  0  0  0  0  0  0  0  0  0
   38.1350   28.5660   43.1960 C   0  0  0  0  0  0  0  0  0  0  0  0
   38.8370   27.4780   43.6800 C   0  0  0  0  0  0  0  0  0  0  0  0
   38.8250   26.4060   42.9040 N   0  0  0  0  0  0  0  0  0  0  0  0
   38.1780   26.4140   41.7610 C   0  0  0  0  0  0  0  0  0  0  0  0
   37.5300   27.4960   41.3700 N   0  0  0  0  0  0  0  0  0  0  0  0
   38.0940   29.5130   43.7720 H   0  0  0  0  0  0  0  0  0  0  0  0
   39.3160   27.6240   44.6330 H   0  0  0  0  0  0  0  0  0  0  0  0
   37.5850   24.0220   41.7580 C   0  0  2  0  0  3  0  0  0  0  0  0
   38.2060   25.1520   40.9260 C   0  0  1  0  0  3  0  0  0  0  0  0
   37.3420   25.1880   39.8650 O   0  0  0  0  0  0  0  0  0  0  0  0
   37.3530   23.8650   39.4410 C   0  0  0  0  0  2  0  0  0  0  0  0
   37.3640   22.9940   40.6660 C   0  0  1  0  0  3  0  0  0  0  0  0
   36.3340   24.4480   42.1840 O   0  0  0  0  0  0  0  0  0  0  0  0
   35.9420   23.8730   42.8680 H   0  0  0  0  0  0  0  0  0  0  0  0
   38.4910   22.1410   40.6900 O   0  0  0  0  0  0  0  0  0  0  0  0
   39.3180   22.6760   40.7880 H   0  0  0  0  0  0  0  0  0  0  0  0
  1  2  1  6  0  0  0
  1 19  1  0  0  0  0
  1 27  1  0  0  0  0
  3  8  1  0  0  0  0
  3  1  1  0  0  0  0
  4  9  1  0  0  0  0
  4  3  1  0  0  0  0
  5  6  1  0  0  0  0
  5  4  1  0  0  0  0
  6  7  1  0  0  0  0
  7 14  1  0  0  0  0
  7  8  1  0  0  0  0
  8 16  1  0  0  0  0
  8 17  1  0  0  0  0
 10  4  1  0  0  0  0
 11  5  1  0  0  0  0
 12  5  1  0  0  0  0
 13  6  1  0  0  0  0
 15  7  1  0  0  0  0
 18 23  1  0  0  0  0
 18 24  1  0  0  0  0
 19 18  2  0  0  0  0
 20 21  2  0  0  0  0
 20 19  1  0  0  0  0
 21 22  1  0  0  0  0
 22 26  1  0  0  0  0
 22 23  2  0  0  0  0
 25 20  1  0  0  0  0
 27 28  1  0  0  0  0
 27 30  1  0  0  0  0
 29 27  1  0  0  0  0
 30 31  1  0  0  0  0
 31 32  2  0  0  0  0
 31 36  1  0  0  0  0
 32 37  1  0  0  0  0
 33 32  1  0  0  0  0
 34 33  2  0  0  0  0
 35 34  1  0  0  0  0
 35 30  2  0  0  0  0
 38 43  1  6  0  0  0
 39 38  1  0  0  0  0
 39 34  1  1  0  0  0
 40 39  1  0  0  0  0
 41 40  1  0  0  0  0
 41 42  1  0  0  0  0
 42 45  1  6  0  0  0
 42 38  1  0  0  0  0
 43 44  1  0  0  0  0
 45 46  1  0  0  0  0
M  END
>  <minimizedAffinity>
-5.72689104

$$$$

 OpenBabel03252502403D

 46 49  0  0  1  0  0  0  0  0999 V2000
   38.3810   30.7040   40.4070 C   0  0  1  0  0  0  0  0  0  0  0  0
   37.5420   31.0470   41.0820 H   0  0  0  0  0  0  0  0  0  0  0  0
   39.2680   31.8320   40.3040 N   0  0  0  0  0  0  0  0  0  0  0  0
   38.6910   33.0360   40.7730 C   0  0  0  0  0  0  0  0  0  0  0  0
   39.5880   34.1570   40.2210 C   0  0  0  0  0  0  0  0  0  0  0  0
   40.7860   34.0410   41.0100 N   0  0  0  0  0  0  0  0  0  0  0  0
   41.4280   32.7960   40.8790 C   0  0  0  0  0  0  0  0  0  0  0  0
   40.5220   31.5730   40.8770 C   0  0  0  0  0  0  0  0  0  0  0  0
   38.7570   33.1070   41.8910 H   0  0  0  0  0  0  0  0  0  0  0  0
   37.6530   33.2010   40.4660 H   0  0  0  0  0  0  0  0  0  0  0  0
   39.8170   33.9280   39.1750 H   0  0  0  0  0  0  0  0  0  0  0  0
   39.1420   35.1470   40.3960 H   0  0  0  0  0  0  0  0  0  0  0  0
   40.7660   34.4910   41.9280 H   0  0  0  0  0  0  0  0  0  0  0  0
   42.2310   32.7150   41.6480 H   0  0  0  0  0  0  0  0  0  0  0  0
   41.9770   32.8010   39.8940 H   0  0  0  0  0  0  0  0  0  0  0  0
   40.3090   31.5450   41.9940 H   0  0  0  0  0  0  0  0  0  0  0  0
   41.1660   30.7920   40.5480 H   0  0  0  0  0  0  0  0  0  0  0  0
   38.5480   29.6990   38.1300 C   0  0  0  0  0  0  0  0  0  0  0  0
   37.8210   30.2110   39.1890 C   0  0  0  0  0  0  0  0  0  0  0  0
   36.4220   30.2290   39.0170 C   0  0  0  0  0  0  0  0  0  0  0  0
   35.8720   29.7590   37.8550 N   0  0  0  0  0  0  0  0  0  0  0  0
   36.6550   29.2710   36.8570 C   0  0  0  0  0  0  0  0  0  0  0  0
   37.9880   29.2440   37.0000 N   0  0  0  0  0  0  0  0  0  0  0  0
   39.6180   29.6880   38.2670 H   0  0  0  0  0  0  0  0  0  0  0  0
   35.7950   30.6170   39.8120 H   0  0  0  0  0  0  0  0  0  0  0  0
   36.1200   28.9230   35.9730 H   0  0  0  0  0  0  0  0  0  0  0  0
   39.1250   29.5490   41.0920 C   0  0  0  0  0  0  0  0  0  0  0  0
   39.9270   29.0960   40.5170 H   0  0  0  0  0  0  0  0  0  0  0  0
   39.7370   30.1840   41.8110 H   0  0  0  0  0  0  0  0  0  0  0  0
   38.3170   28.5820   41.7590 C   0  0  0  0  0  0  0  0  0  0  0  0
   37.5850   28.4920   42.8930 C   0  0  0  0  0  0  0  0  0  0  0  0
   36.8650   27.4100   43.3620 C   0  0  0  0  0  0  0  0  0  0  0  0
   36.9020   26.3300   42.5980 N   0  0  0  0  0  0  0  0  0  0  0  0
   37.5880   26.3270   41.4770 C   0  0  0  0  0  0  0  0  0  0  0  0
   38.2500   27.4040   41.0980 N   0  0  0  0  0  0  0  0  0  0  0  0
   37.6200   29.4390   43.4690 H   0  0  0  0  0  0  0  0  0  0  0  0
   36.3540   27.5650   44.2970 H   0  0  0  0  0  0  0  0  0  0  0  0
   38.6650   24.1250   41.2200 C   0  0  2  0  0  3  0  0  0  0  0  0
   37.5860   25.0570   40.6530 C   0  0  1  0  0  3  0  0  0  0  0  0
   36.4660   24.2920   40.8430 O   0  0  0  0  0  0  0  0  0  0  0  0
   36.8220   23.1050   40.2160 C   0  0  0  0  0  2  0  0  0  0  0  0
   38.2620   22.8290   40.5440 C   0  0  1  0  0  3  0  0  0  0  0  0
   38.4230   23.9740   42.5780 O   0  0  0  0  0  0  0  0  0  0  0  0
   39.1590   23.5490   43.0580 H   0  0  0  0  0  0  0  0  0  0  0  0
   39.0530   22.7290   39.3760 O   0  0  0  0  0  0  0  0  0  0  0  0
   39.0900   23.6050   38.9170 H   0  0  0  0  0  0  0  0  0  0  0  0
  1  2  1  1  0  0  0
  1 27  1  0  0  0  0
  3  1  1  0  0  0  0
  3  4  1  0  0  0  0
  3  8  1  0  0  0  0
  4  9  1  0  0  0  0
  5 12  1  0  0  0  0
  5  4  1  0  0  0  0
  5  6  1  0  0  0  0
  6 13  1  0  0  0  0
  7  6  1  0  0  0  0
  7 14  1  0  0  0  0
  8  7  1  0  0  0  0
  8 16  1  0  0  0  0
 10  4  1  0  0  0  0
 11  5  1  0  0  0  0
 15  7  1  0  0  0  0
 17  8  1  0  0  0  0
 18 24  1  0  0  0  0
 18 19  1  0  0  0  0
 19  1  1  0  0  0  0
 20 19  2  0  0  0  0
 20 25  1  0  0  0  0
 21 20  1  0  0  0  0
 22 23  1  0  0  0  0
 22 21  2  0  0  0  0
 23 18  2  0  0  0  0
 26 22  1  0  0  0  0
 27 30  1  0  0  0  0
 27 29  1  0  0  0  0
 28 27  1  0  0  0  0
 30 31  1  0  0  0  0
 31 32  2  0  0  0  0
 31 36  1  0  0  0  0
 32 37  1  0  0  0  0
 33 32  1  0  0  0  0
 34 33  2  0  0  0  0
 35 34  1  0  0  0  0
 35 30  2  0  0  0  0
 38 43  1  1  0  0  0
 39 40  1  0  0  0  0
 39 38  1  0  0  0  0
 39 34  1  1  0  0  0
 41 42  1  0  0  0  0
 41 40  1  0  0  0  0
 42 45  1  6  0  0  0
 42 38  1  0  0  0  0
 43 44  1  0  0  0  0
 46 45  1  0  0  0  0
M  END
>  <minimizedAffinity>
-5.60535526

$$$$

 OpenBabel03252502403D

 46 49  0  0  1  0  0  0  0  0999 V2000
   37.7810   30.2840   39.9610 C   0  0  1  0  0  0  0  0  0  0  0  0
   38.4200   29.6780   39.2530 H   0  0  0  0  0  0  0  0  0  0  0  0
   38.4470   31.5530   40.0810 N   0  0  0  0  0  0  0  0  0  0  0  0
   39.4840   31.7260   39.1320 C   0  0  0  0  0  0  0  0  0  0  0  0
   40.3190   32.9060   39.6580 C   0  0  0  0  0  0  0  0  0  0  0  0
   39.4700   34.0440   39.4250 N   0  0  0  0  0  0  0  0  0  0  0  0
   38.2410   33.9780   40.1060 C   0  0  0  0  0  0  0  0  0  0  0  0
   37.5440   32.6260   40.0980 C   0  0  0  0  0  0  0  0  0  0  0  0
   39.0730   32.0540   38.1410 H   0  0  0  0  0  0  0  0  0  0  0  0
   40.1240   30.8510   38.9830 H   0  0  0  0  0  0  0  0  0  0  0  0
   40.4610   32.7720   40.7360 H   0  0  0  0  0  0  0  0  0  0  0  0
   41.2460   33.0280   39.0780 H   0  0  0  0  0  0  0  0  0  0  0  0
   39.4900   34.4340   38.4800 H   0  0  0  0  0  0  0  0  0  0  0  0
   37.5730   34.7900   39.7360 H   0  0  0  0  0  0  0  0  0  0  0  0
   38.4380   34.2410   41.1840 H   0  0  0  0  0  0  0  0  0  0  0  0
   37.1520   32.6670   39.0300 H   0  0  0  0  0  0  0  0  0  0  0  0
   36.7830   32.7390   40.8330 H   0  0  0  0  0  0  0  0  0  0  0  0
   36.6380   28.5540   41.3480 C   0  0  0  0  0  0  0  0  0  0  0  0
   37.5920   29.5390   41.1640 C   0  0  0  0  0  0  0  0  0  0  0  0
   38.4230   29.7970   42.2730 C   0  0  0  0  0  0  0  0  0  0  0  0
   38.2530   29.0890   43.4320 N   0  0  0  0  0  0  0  0  0  0  0  0
   37.2900   28.1360   43.5350 C   0  0  0  0  0  0  0  0  0  0  0  0
   36.4880   27.8740   42.4940 N   0  0  0  0  0  0  0  0  0  0  0  0
   36.0040   28.3610   40.4970 H   0  0  0  0  0  0  0  0  0  0  0  0
   39.1930   30.5560   42.1930 H   0  0  0  0  0  0  0  0  0  0  0  0
   37.2360   27.6310   44.5010 H   0  0  0  0  0  0  0  0  0  0  0  0
   36.4050   30.5050   39.3160 C   0  0  0  0  0  0  0  0  0  0  0  0
   35.5470   30.3240   39.9580 H   0  0  0  0  0  0  0  0  0  0  0  0
   36.4230   31.6430   39.3350 H   0  0  0  0  0  0  0  0  0  0  0  0
   36.2280   29.9760   38.0040 C   0  0  0  0  0  0  0  0  0  0  0  0
   36.9230   29.9030   36.8460 C   0  0  0  0  0  0  0  0  0  0  0  0
   36.5350   29.3290   35.6500 C   0  0  0  0  0  0  0  0  0  0  0  0
   35.3290   28.7840   35.6490 N   0  0  0  0  0  0  0  0  0  0  0  0
   34.5820   28.8070   36.7300 C   0  0  0  0  0  0  0  0  0  0  0  0
   35.0280   29.3770   37.8350 N   0  0  0  0  0  0  0  0  0  0  0  0
   37.9140   30.3920   36.9420 H   0  0  0  0  0  0  0  0  0  0  0  0
   37.2560   29.3890   34.8530 H   0  0  0  0  0  0  0  0  0  0  0  0
   32.2110   29.2400   36.2170 C   0  0  2  0  0  3  0  0  0  0  0  0
   33.2140   28.1640   36.6560 C   0  0  1  0  0  3  0  0  0  0  0  0
   33.0920   27.2710   35.6260 O   0  0  0  0  0  0  0  0  0  0  0  0
   31.7230   27.0410   35.6060 C   0  0  0  0  0  2  0  0  0  0  0  0
   31.0360   28.3560   35.8480 C   0  0  1  0  0  3  0  0  0  0  0  0
   32.6860   29.8080   35.0420 O   0  0  0  0  0  0  0  0  0  0  0  0
   32.2120   30.6220   34.7870 H   0  0  0  0  0  0  0  0  0  0  0  0
   30.2020   28.3080   36.9880 O   0  0  0  0  0  0  0  0  0  0  0  0
   30.7500   28.1880   37.8030 H   0  0  0  0  0  0  0  0  0  0  0  0
  1  2  1  6  0  0  0
  1  3  1  0  0  0  0
  1 19  1  0  0  0  0
  3  8  1  0  0  0  0
  4  5  1  0  0  0  0
  4  3  1  0  0  0  0
  5 11  1  0  0  0  0
  6  5  1  0  0  0  0
  6  7  1  0  0  0  0
  7 15  1  0  0  0  0
  8  7  1  0  0  0  0
  8 17  1  0  0  0  0
  9  4  1  0  0  0  0
 10  4  1  0  0  0  0
 12  5  1  0  0  0  0
 13  6  1  0  0  0  0
 14  7  1  0  0  0  0
 16  8  1  0  0  0  0
 18 23  1  0  0  0  0
 19 18  2  0  0  0  0
 19 20  1  0  0  0  0
 20 21  2  0  0  0  0
 21 22  1  0  0  0  0
 22 26  1  0  0  0  0
 23 22  2  0  0  0  0
 24 18  1  0  0  0  0
 25 20  1  0  0  0  0
 27 29  1  0  0  0  0
 27 28  1  0  0  0  0
 27  1  1  0  0  0  0
 30 27  1  0  0  0  0
 31 36  1  0  0  0  0
 31 30  2  0  0  0  0
 32 31  1  0  0  0  0
 33 32  2  0  0  0  0
 33 34  1  0  0  0  0
 34 35  2  0  0  0  0
 35 30  1  0  0  0  0
 37 32  1  0  0  0  0
 38 43  1  6  0  0  0
 38 39  1  0  0  0  0
 39 34  1  6  0  0  0
 40 39  1  0  0  0  0
 41 40  1  0  0  0  0
 41 42  1  0  0  0  0
 42 38  1  0  0  0  0
 42 45  1  1  0  0  0
 44 43  1  0  0  0  0
 45 46  1  0  0  0  0
M  END
>  <minimizedAffinity>
-5.51796865

$$$$

 OpenBabel03252502403D

 46 49  0  0  1  0  0  0  0  0999 V2000
   38.7120   28.3850   39.8300 C   0  0  1  0  0  0  0  0  0  0  0  0
   39.6170   28.9500   40.1990 H   0  0  0  0  0  0  0  0  0  0  0  0
   37.6060   29.2890   39.9980 N   0  0  0  0  0  0  0  0  0  0  0  0
   36.6140   28.7940   40.8780 C   0  0  0  0  0  0  0  0  0  0  0  0
   35.3730   29.6660   40.6200 C   0  0  0  0  0  0  0  0  0  0  0  0
   35.7280   30.9300   41.2080 N   0  0  0  0  0  0  0  0  0  0  0  0
   36.8660   31.5210   40.6280 C   0  0  0  0  0  0  0  0  0  0  0  0
   38.0280   30.5850   40.3330 C   0  0  0  0  0  0  0  0  0  0  0  0
   36.9000   28.9700   41.9490 H   0  0  0  0  0  0  0  0  0  0  0  0
   36.3640   27.7370   40.7440 H   0  0  0  0  0  0  0  0  0  0  0  0
   35.2590   29.7870   39.5380 H   0  0  0  0  0  0  0  0  0  0  0  0
   34.4900   29.2660   41.1400 H   0  0  0  0  0  0  0  0  0  0  0  0
   35.5910   31.0110   42.2180 H   0  0  0  0  0  0  0  0  0  0  0  0
   37.1830   32.3910   41.2490 H   0  0  0  0  0  0  0  0  0  0  0  0
   36.5480   31.9720   39.6450 H   0  0  0  0  0  0  0  0  0  0  0  0
   38.4090   30.4790   41.4000 H   0  0  0  0  0  0  0  0  0  0  0  0
   38.6630   31.1720   39.7120 H   0  0  0  0  0  0  0  0  0  0  0  0
   38.2070   25.9450   39.9580 C   0  0  0  0  0  0  0  0  0  0  0  0
   38.6340   27.1360   40.5180 C   0  0  0  0  0  0  0  0  0  0  0  0
   39.0140   27.0710   41.8730 C   0  0  0  0  0  0  0  0  0  0  0  0
   38.9460   25.8800   42.5450 N   0  0  0  0  0  0  0  0  0  0  0  0
   38.5130   24.7510   41.9240 C   0  0  0  0  0  0  0  0  0  0  0  0
   38.1470   24.7890   40.6350 N   0  0  0  0  0  0  0  0  0  0  0  0
   37.9170   26.0010   38.9210 H   0  0  0  0  0  0  0  0  0  0  0  0
   39.3610   27.9710   42.3700 H   0  0  0  0  0  0  0  0  0  0  0  0
   38.4940   23.8560   42.5480 H   0  0  0  0  0  0  0  0  0  0  0  0
   38.8900   28.0940   38.3330 C   0  0  0  0  0  0  0  0  0  0  0  0
   38.4040   27.1950   37.9640 H   0  0  0  0  0  0  0  0  0  0  0  0
   38.1600   28.8780   37.9500 H   0  0  0  0  0  0  0  0  0  0  0  0
   40.2050   28.2590   37.8080 C   0  0  0  0  0  0  0  0  0  0  0  0
   41.1210   27.5230   37.1370 C   0  0  0  0  0  0  0  0  0  0  0  0
   42.3850   27.9000   36.7240 C   0  0  0  0  0  0  0  0  0  0  0  0
   42.7340   29.1400   37.0280 N   0  0  0  0  0  0  0  0  0  0  0  0
   41.9080   29.9280   37.6780 C   0  0  0  0  0  0  0  0  0  0  0  0
   40.7140   29.4900   38.0370 N   0  0  0  0  0  0  0  0  0  0  0  0
   40.7430   26.5000   36.9350 H   0  0  0  0  0  0  0  0  0  0  0  0
   42.9450   27.1440   36.2020 H   0  0  0  0  0  0  0  0  0  0  0  0
   41.8620   32.2580   36.8760 C   0  0  2  0  0  3  0  0  0  0  0  0
   42.3720   31.3340   37.9910 C   0  0  1  0  0  3  0  0  0  0  0  0
   41.7450   31.8800   39.0780 O   0  0  0  0  0  0  0  0  0  0  0  0
   42.1270   33.2130   38.9900 C   0  0  0  0  0  2  0  0  0  0  0  0
   42.0880   33.6030   37.5390 C   0  0  1  0  0  3  0  0  0  0  0  0
   40.4900   32.0750   36.7700 O   0  0  0  0  0  0  0  0  0  0  0  0
   40.1070   32.4820   35.9700 H   0  0  0  0  0  0  0  0  0  0  0  0
   43.3460   34.0620   37.0880 O   0  0  0  0  0  0  0  0  0  0  0  0
   44.0010   33.3200   37.1030 H   0  0  0  0  0  0  0  0  0  0  0  0
  1  3  1  0  0  0  0
  1  2  1  1  0  0  0
  1 19  1  0  0  0  0
  3  8  1  0  0  0  0
  3  4  1  0  0  0  0
  4  9  1  0  0  0  0
  5  4  1  0  0  0  0
  5 12  1  0  0  0  0
  5  6  1  0  0  0  0
  6 13  1  0  0  0  0
  7  6  1  0  0  0  0
  7 14  1  0  0  0  0
  8  7  1  0  0  0  0
  8 16  1  0  0  0  0
 10  4  1  0  0  0  0
 11  5  1  0  0  0  0
 15  7  1  0  0  0  0
 17  8  1  0  0  0  0
 18 19  2  0  0  0  0
 18 23  1  0  0  0  0
 19 20  1  0  0  0  0
 20 25  1  0  0  0  0
 20 21  2  0  0  0  0
 22 21  1  0  0  0  0
 22 26  1  0  0  0  0
 23 22  2  0  0  0  0
 24 18  1  0  0  0  0
 27  1  1  0  0  0  0
 28 27  1  0  0  0  0
 29 27  1  0  0  0  0
 30 35  1  0  0  0  0
 30 27  1  0  0  0  0
 31 30  2  0  0  0  0
 32 33  2  0  0  0  0
 32 31  1  0  0  0  0
 33 34  1  0  0  0  0
 34 35  2  0  0  0  0
 36 31  1  0  0  0  0
 37 32  1  0  0  0  0
 38 43  1  1  0  0  0
 38 42  1  0  0  0  0
 38 39  1  0  0  0  0
 39 34  1  6  0  0  0
 39 40  1  0  0  0  0
 41 40  1  0  0  0  0
 42 45  1  6  0  0  0
 42 41  1  0  0  0  0
 44 43  1  0  0  0  0
 45 46  1  0  0  0  0
M  END
>  <minimizedAffinity>
-5.50240517

$$$$

 OpenBabel03252502403D

 46 49  0  0  1  0  0  0  0  0999 V2000
   37.1540   26.2110   38.9760 C   0  0  1  0  0  0  0  0  0  0  0  0
   37.5700   27.2610   38.9210 H   0  0  0  0  0  0  0  0  0  0  0  0
   38.2160   25.3590   38.5130 N   0  0  0  0  0  0  0  0  0  0  0  0
   39.4000   26.0690   38.1980 C   0  0  0  0  0  0  0  0  0  0  0  0
   40.2450   25.0940   37.3610 C   0  0  0  0  0  0  0  0  0  0  0  0
   40.6930   24.1290   38.3290 N   0  0  0  0  0  0  0  0  0  0  0  0
   39.6430   23.4390   38.9630 C   0  0  0  0  0  0  0  0  0  0  0  0
   38.4470   24.2810   39.3810 C   0  0  0  0  0  0  0  0  0  0  0  0
   39.9990   26.2860   39.1220 H   0  0  0  0  0  0  0  0  0  0  0  0
   39.2450   27.0010   37.6450 H   0  0  0  0  0  0  0  0  0  0  0  0
   39.5870   24.6050   36.6360 H   0  0  0  0  0  0  0  0  0  0  0  0
   41.1220   25.5980   36.9280 H   0  0  0  0  0  0  0  0  0  0  0  0
   41.5150   24.3890   38.8790 H   0  0  0  0  0  0  0  0  0  0  0  0
   40.0540   22.8520   39.8170 H   0  0  0  0  0  0  0  0  0  0  0  0
   39.2640   22.6620   38.2400 H   0  0  0  0  0  0  0  0  0  0  0  0
   38.9180   24.7650   40.2960 H   0  0  0  0  0  0  0  0  0  0  0  0
   37.7070   23.5530   39.6190 H   0  0  0  0  0  0  0  0  0  0  0  0
   35.3010   25.0060   37.8210 C   0  0  0  0  0  0  0  0  0  0  0  0
   35.9250   26.1630   38.2510 C   0  0  0  0  0  0  0  0  0  0  0  0
   35.2660   27.3660   37.9300 C   0  0  0  0  0  0  0  0  0  0  0  0
   34.0870   27.3340   37.2360 N   0  0  0  0  0  0  0  0  0  0  0  0
   33.5360   26.1540   36.8460 C   0  0  0  0  0  0  0  0  0  0  0  0
   34.1460   24.9970   37.1410 N   0  0  0  0  0  0  0  0  0  0  0  0
   35.8100   24.0880   38.0690 H   0  0  0  0  0  0  0  0  0  0  0  0
   35.7030   28.3090   38.2400 H   0  0  0  0  0  0  0  0  0  0  0  0
   32.5970   26.2380   36.2970 H   0  0  0  0  0  0  0  0  0  0  0  0
   36.8550   25.8770   40.4440 C   0  0  0  0  0  0  0  0  0  0  0  0
   35.9340   25.3300   40.6270 H   0  0  0  0  0  0  0  0  0  0  0  0
   37.6070   25.0300   40.5510 H   0  0  0  0  0  0  0  0  0  0  0  0
   37.0640   26.9250   41.3880 C   0  0  0  0  0  0  0  0  0  0  0  0
   37.0360   27.0910   42.7310 C   0  0  0  0  0  0  0  0  0  0  0  0
   37.2710   28.2450   43.4540 C   0  0  0  0  0  0  0  0  0  0  0  0
   37.5600   29.3170   42.7340 N   0  0  0  0  0  0  0  0  0  0  0  0
   37.6110   29.2490   41.4230 C   0  0  0  0  0  0  0  0  0  0  0  0
   37.3730   28.1060   40.8060 N   0  0  0  0  0  0  0  0  0  0  0  0
   36.7780   26.1440   43.2460 H   0  0  0  0  0  0  0  0  0  0  0  0
   37.1920   28.1440   44.5230 H   0  0  0  0  0  0  0  0  0  0  0  0
   36.6320   31.1360   40.1750 C   0  0  2  0  0  3  0  0  0  0  0  0
   37.9480   30.5140   40.6630 C   0  0  1  0  0  3  0  0  0  0  0  0
   38.4180   31.5170   41.4670 O   0  0  0  0  0  0  0  0  0  0  0  0
   38.3890   32.6090   40.6090 C   0  0  0  0  0  2  0  0  0  0  0  0
   37.1290   32.5160   39.7950 C   0  0  1  0  0  3  0  0  0  0  0  0
   35.8000   31.2850   41.2770 O   0  0  0  0  0  0  0  0  0  0  0  0
   34.8790   31.5010   41.0390 H   0  0  0  0  0  0  0  0  0  0  0  0
   37.4050   32.4710   38.4090 O   0  0  0  0  0  0  0  0  0  0  0  0
   37.8790   31.6310   38.1870 H   0  0  0  0  0  0  0  0  0  0  0  0
  1  2  1  6  0  0  0
  1 27  1  0  0  0  0
  3  1  1  0  0  0  0
  3  8  1  0  0  0  0
  4  3  1  0  0  0  0
  4  9  1  0  0  0  0
  5  4  1  0  0  0  0
  5  6  1  0  0  0  0
  6 13  1  0  0  0  0
  6  7  1  0  0  0  0
  7  8  1  0  0  0  0
  7 14  1  0  0  0  0
  8 17  1  0  0  0  0
  8 16  1  0  0  0  0
 10  4  1  0  0  0  0
 11  5  1  0  0  0  0
 12  5  1  0  0  0  0
 15  7  1  0  0  0  0
 18 24  1  0  0  0  0
 18 19  1  0  0  0  0
 19  1  1  0  0  0  0
 20 25  1  0  0  0  0
 20 19  2  0  0  0  0
 21 20  1  0  0  0  0
 22 23  1  0  0  0  0
 22 21  2  0  0  0  0
 23 18  2  0  0  0  0
 26 22  1  0  0  0  0
 27 29  1  0  0  0  0
 27 28  1  0  0  0  0
 27 30  1  0  0  0  0
 30 31  1  0  0  0  0
 31 36  1  0  0  0  0
 31 32  2  0  0  0  0
 32 37  1  0  0  0  0
 33 32  1  0  0  0  0
 34 33  2  0  0  0  0
 35 30  2  0  0  0  0
 35 34  1  0  0  0  0
 38 39  1  0  0  0  0
 38 43  1  1  0  0  0
 39 34  1  1  0  0  0
 39 40  1  0  0  0  0
 41 40  1  0  0  0  0
 42 45  1  6  0  0  0
 42 38  1  0  0  0  0
 42 41  1  0  0  0  0
 44 43  1  0  0  0  0
 46 45  1  0  0  0  0
M  END
>  <minimizedAffinity>
-5.45160151

$$$$

 OpenBabel03252502403D

 46 49  0  0  1  0  0  0  0  0999 V2000
   37.2770   27.2410   40.0350 C   0  0  1  0  0  0  0  0  0  0  0  0
   38.2110   27.6220   39.5260 H   0  0  0  0  0  0  0  0  0  0  0  0
   37.5780   25.8870   40.4150 N   0  0  0  0  0  0  0  0  0  0  0  0
   38.9480   25.5630   40.2710 C   0  0  0  0  0  0  0  0  0  0  0  0
   39.0070   24.0270   40.3200 C   0  0  0  0  0  0  0  0  0  0  0  0
   38.7450   23.7280   41.7030 N   0  0  0  0  0  0  0  0  0  0  0  0
   37.4890   24.1800   42.1480 C   0  0  0  0  0  0  0  0  0  0  0  0
   37.0770   25.5700   41.6870 C   0  0  0  0  0  0  0  0  0  0  0  0
   39.5430   25.9240   41.1510 H   0  0  0  0  0  0  0  0  0  0  0  0
   39.4140   25.9270   39.3500 H   0  0  0  0  0  0  0  0  0  0  0  0
   38.1930   23.6330   39.7020 H   0  0  0  0  0  0  0  0  0  0  0  0
   40.0100   23.6580   40.0600 H   0  0  0  0  0  0  0  0  0  0  0  0
   39.5450   23.7920   42.3370 H   0  0  0  0  0  0  0  0  0  0  0  0
   37.4360   24.0800   43.2570 H   0  0  0  0  0  0  0  0  0  0  0  0
   36.7140   23.4600   41.7590 H   0  0  0  0  0  0  0  0  0  0  0  0
   37.7400   26.1640   42.3950 H   0  0  0  0  0  0  0  0  0  0  0  0
   36.0430   25.6140   41.9360 H   0  0  0  0  0  0  0  0  0  0  0  0
   35.3360   28.5420   39.1600 C   0  0  0  0  0  0  0  0  0  0  0  0
   36.1640   27.4340   39.1610 C   0  0  0  0  0  0  0  0  0  0  0  0
   35.8550   26.4410   38.2110 C   0  0  0  0  0  0  0  0  0  0  0  0
   34.7910   26.6130   37.3660 N   0  0  0  0  0  0  0  0  0  0  0  0
   34.0220   27.7310   37.4280 C   0  0  0  0  0  0  0  0  0  0  0  0
   34.2980   28.6900   38.3240 N   0  0  0  0  0  0  0  0  0  0  0  0
   35.5770   29.2980   39.8900 H   0  0  0  0  0  0  0  0  0  0  0  0
   36.4670   25.5470   38.1580 H   0  0  0  0  0  0  0  0  0  0  0  0
   33.1990   27.7710   36.7130 H   0  0  0  0  0  0  0  0  0  0  0  0
   37.0340   28.0700   41.3040 C   0  0  0  0  0  0  0  0  0  0  0  0
   36.0370   28.4870   41.4140 H   0  0  0  0  0  0  0  0  0  0  0  0
   36.9600   27.1970   42.0300 H   0  0  0  0  0  0  0  0  0  0  0  0
   38.0570   28.9980   41.6600 C   0  0  0  0  0  0  0  0  0  0  0  0
   38.5830   29.5340   42.7850 C   0  0  0  0  0  0  0  0  0  0  0  0
   39.6030   30.4600   42.8940 C   0  0  0  0  0  0  0  0  0  0  0  0
   40.1240   30.8680   41.7480 N   0  0  0  0  0  0  0  0  0  0  0  0
   39.6760   30.4010   40.6050 C   0  0  0  0  0  0  0  0  0  0  0  0
   38.6970   29.5150   40.5860 N   0  0  0  0  0  0  0  0  0  0  0  0
   38.0790   29.1400   43.6900 H   0  0  0  0  0  0  0  0  0  0  0  0
   39.8600   30.7480   43.9000 H   0  0  0  0  0  0  0  0  0  0  0  0
   39.6470   32.2400   38.9650 C   0  0  2  0  0  3  0  0  0  0  0  0
   40.3200   30.9100   39.3340 C   0  0  1  0  0  3  0  0  0  0  0  0
   41.6130   31.3230   39.5110 O   0  0  0  0  0  0  0  0  0  0  0  0
   41.8720   31.9760   38.3130 C   0  0  0  0  0  2  0  0  0  0  0  0
   40.6400   32.7510   37.9400 C   0  0  1  0  0  3  0  0  0  0  0  0
   39.7270   33.0760   40.0710 O   0  0  0  0  0  0  0  0  0  0  0  0
   39.1680   33.8720   39.9950 H   0  0  0  0  0  0  0  0  0  0  0  0
   40.1410   32.3630   36.6760 O   0  0  0  0  0  0  0  0  0  0  0  0
   39.8160   31.4290   36.7140 H   0  0  0  0  0  0  0  0  0  0  0  0
  1  2  1  6  0  0  0
  1  3  1  0  0  0  0
  1 27  1  0  0  0  0
  3  8  1  0  0  0  0
  4  5  1  0  0  0  0
  4  3  1  0  0  0  0
  4  9  1  0  0  0  0
  5  6  1  0  0  0  0
  6  7  1  0  0  0  0
  6 13  1  0  0  0  0
  7 14  1  0  0  0  0
  8 17  1  0  0  0  0
  8  7  1  0  0  0  0
  8 16  1  0  0  0  0
 10  4  1  0  0  0  0
 11  5  1  0  0  0  0
 12  5  1  0  0  0  0
 15  7  1  0  0  0  0
 18 19  1  0  0  0  0
 18 24  1  0  0  0  0
 19  1  1  0  0  0  0
 20 19  2  0  0  0  0
 21 22  2  0  0  0  0
 21 20  1  0  0  0  0
 22 23  1  0  0  0  0
 23 18  2  0  0  0  0
 25 20  1  0  0  0  0
 26 22  1  0  0  0  0
 27 28  1  0  0  0  0
 27 30  1  0  0  0  0
 27 29  1  0  0  0  0
 30 31  1  0  0  0  0
 31 32  2  0  0  0  0
 31 36  1  0  0  0  0
 32 37  1  0  0  0  0
 33 32  1  0  0  0  0
 34 33  2  0  0  0  0
 35 34  1  0  0  0  0
 35 30  2  0  0  0  0
 38 39  1  0  0  0  0
 38 43  1  1  0  0  0
 39 40  1  0  0  0  0
 39 34  1  1  0  0  0
 41 40  1  0  0  0  0
 42 45  1  6  0  0  0
 42 41  1  0  0  0  0
 42 38  1  0  0  0  0
 44 43  1  0  0  0  0
 45 46  1  0  0  0  0
M  END
>  <minimizedAffinity>
-5.41027784

$$$$

 OpenBabel03252502403D

 46 49  0  0  1  0  0  0  0  0999 V2000
   37.4890   28.8570   40.2480 C   0  0  1  0  0  0  0  0  0  0  0  0
   38.0740   28.0720   39.6850 H   0  0  0  0  0  0  0  0  0  0  0  0
   36.2870   29.0550   39.4820 N   0  0  0  0  0  0  0  0  0  0  0  0
   36.1330   28.1090   38.4410 C   0  0  0  0  0  0  0  0  0  0  0  0
   35.0610   28.7040   37.5110 C   0  0  0  0  0  0  0  0  0  0  0  0
   33.8460   28.5560   38.2680 N   0  0  0  0  0  0  0  0  0  0  0  0
   33.8610   29.2450   39.4950 C   0  0  0  0  0  0  0  0  0  0  0  0
   35.1490   29.1530   40.2980 C   0  0  0  0  0  0  0  0  0  0  0  0
   35.7070   27.1460   38.8290 H   0  0  0  0  0  0  0  0  0  0  0  0
   37.0440   27.8940   37.8730 H   0  0  0  0  0  0  0  0  0  0  0  0
   35.2790   29.7690   37.3750 H   0  0  0  0  0  0  0  0  0  0  0  0
   34.9740   28.1230   36.5810 H   0  0  0  0  0  0  0  0  0  0  0  0
   33.3960   27.6400   38.2220 H   0  0  0  0  0  0  0  0  0  0  0  0
   32.9750   28.9370   40.0980 H   0  0  0  0  0  0  0  0  0  0  0  0
   33.6880   30.3360   39.2720 H   0  0  0  0  0  0  0  0  0  0  0  0
   35.0050   28.0950   40.6900 H   0  0  0  0  0  0  0  0  0  0  0  0
   35.0270   29.9030   41.0430 H   0  0  0  0  0  0  0  0  0  0  0  0
   38.8690   30.7710   39.4380 C   0  0  0  0  0  0  0  0  0  0  0  0
   38.3220   30.0000   40.4480 C   0  0  0  0  0  0  0  0  0  0  0  0
   38.6320   30.4050   41.7610 C   0  0  0  0  0  0  0  0  0  0  0  0
   39.4290   31.4990   41.9670 N   0  0  0  0  0  0  0  0  0  0  0  0
   39.9310   32.2060   40.9210 C   0  0  0  0  0  0  0  0  0  0  0  0
   39.6480   31.8390   39.6620 N   0  0  0  0  0  0  0  0  0  0  0  0
   38.6280   30.4560   38.4350 H   0  0  0  0  0  0  0  0  0  0  0  0
   38.2330   29.8430   42.5980 H   0  0  0  0  0  0  0  0  0  0  0  0
   40.5560   33.0590   41.1910 H   0  0  0  0  0  0  0  0  0  0  0  0
   37.1110   28.2960   41.6270 C   0  0  0  0  0  0  0  0  0  0  0  0
   37.2720   28.9630   42.4690 H   0  0  0  0  0  0  0  0  0  0  0  0
   35.9830   28.3950   41.5140 H   0  0  0  0  0  0  0  0  0  0  0  0
   37.5240   26.9590   41.9010 C   0  0  0  0  0  0  0  0  0  0  0  0
   37.0160   25.7090   41.8050 C   0  0  0  0  0  0  0  0  0  0  0  0
   37.6160   24.5140   42.1540 C   0  0  0  0  0  0  0  0  0  0  0  0
   38.8420   24.6150   42.6420 N   0  0  0  0  0  0  0  0  0  0  0  0
   39.4150   25.7900   42.7710 C   0  0  0  0  0  0  0  0  0  0  0  0
   38.7740   26.8870   42.4130 N   0  0  0  0  0  0  0  0  0  0  0  0
   35.9860   25.7260   41.3950 H   0  0  0  0  0  0  0  0  0  0  0  0
   37.0190   23.6330   41.9900 H   0  0  0  0  0  0  0  0  0  0  0  0
   41.7610   25.1960   42.3040 C   0  0  2  0  0  3  0  0  0  0  0  0
   40.8190   25.8310   43.3360 C   0  0  1  0  0  3  0  0  0  0  0  0
   41.3360   27.0970   43.4030 O   0  0  0  0  0  0  0  0  0  0  0  0
   42.6740   26.8450   43.6800 C   0  0  0  0  0  2  0  0  0  0  0  0
   43.0940   25.6590   42.8580 C   0  0  1  0  0  3  0  0  0  0  0  0
   41.5670   25.8490   41.0950 O   0  0  0  0  0  0  0  0  0  0  0  0
   41.9870   25.3960   40.3390 H   0  0  0  0  0  0  0  0  0  0  0  0
   43.5740   24.6050   43.6700 O   0  0  0  0  0  0  0  0  0  0  0  0
   42.8380   24.2450   44.2250 H   0  0  0  0  0  0  0  0  0  0  0  0
  1  2  1  6  0  0  0
  1 19  1  0  0  0  0
  1 27  1  0  0  0  0
  3  1  1  0  0  0  0
  3  8  1  0  0  0  0
  4  9  1  0  0  0  0
  4  3  1  0  0  0  0
  5  6  1  0  0  0  0
  5  4  1  0  0  0  0
  6  7  1  0  0  0  0
  7 14  1  0  0  0  0
  7  8  1  0  0  0  0
  8 16  1  0  0  0  0
  8 17  1  0  0  0  0
 10  4  1  0  0  0  0
 11  5  1  0  0  0  0
 12  5  1  0  0  0  0
 13  6  1  0  0  0  0
 15  7  1  0  0  0  0
 18 23  2  0  0  0  0
 18 19  1  0  0  0  0
 19 20  2  0  0  0  0
 20 21  1  0  0  0  0
 20 25  1  0  0  0  0
 22 26  1  0  0  0  0
 22 21  2  0  0  0  0
 23 22  1  0  0  0  0
 24 18  1  0  0  0  0
 27 30  1  0  0  0  0
 27 28  1  0  0  0  0
 29 27  1  0  0  0  0
 30 35  1  0  0  0  0
 31 30  2  0  0  0  0
 31 32  1  0  0  0  0
 32 33  2  0  0  0  0
 33 34  1  0  0  0  0
 35 34  2  0  0  0  0
 36 31  1  0  0  0  0
 37 32  1  0  0  0  0
 38 43  1  6  0  0  0
 38 42  1  0  0  0  0
 38 39  1  0  0  0  0
 39 34  1  6  0  0  0
 39 40  1  0  0  0  0
 40 41  1  0  0  0  0
 42 45  1  1  0  0  0
 42 41  1  0  0  0  0
 44 43  1  0  0  0  0
 45 46  1  0  0  0  0
M  END
>  <minimizedAffinity>
-5.40420675

$$$$

 OpenBabel03252502403D

 46 49  0  0  1  0  0  0  0  0999 V2000
   37.3650   27.3660   40.1220 C   0  0  1  0  0  0  0  0  0  0  0  0
   36.3680   27.8290   40.3820 H   0  0  0  0  0  0  0  0  0  0  0  0
   37.0470   26.1310   39.4570 N   0  0  0  0  0  0  0  0  0  0  0  0
   36.5880   25.1260   40.3430 C   0  0  0  0  0  0  0  0  0  0  0  0
   36.6940   23.8120   39.5510 C   0  0  0  0  0  0  0  0  0  0  0  0
   35.6240   23.9140   38.5940 N   0  0  0  0  0  0  0  0  0  0  0  0
   35.7500   25.0140   37.7260 C   0  0  0  0  0  0  0  0  0  0  0  0
   36.1860   26.3240   38.3650 C   0  0  0  0  0  0  0  0  0  0  0  0
   35.4990   25.2610   40.5780 H   0  0  0  0  0  0  0  0  0  0  0  0
   37.1490   25.0460   41.2790 H   0  0  0  0  0  0  0  0  0  0  0  0
   37.6540   23.8040   39.0250 H   0  0  0  0  0  0  0  0  0  0  0  0
   36.5100   22.9410   40.1990 H   0  0  0  0  0  0  0  0  0  0  0  0
   34.6940   23.6530   38.9280 H   0  0  0  0  0  0  0  0  0  0  0  0
   34.8050   25.1320   37.1450 H   0  0  0  0  0  0  0  0  0  0  0  0
   36.5270   24.7480   36.9540 H   0  0  0  0  0  0  0  0  0  0  0  0
   35.1920   26.5920   38.8480 H   0  0  0  0  0  0  0  0  0  0  0  0
   36.4300   26.9350   37.5290 H   0  0  0  0  0  0  0  0  0  0  0  0
   37.7130   27.5800   42.5830 C   0  0  0  0  0  0  0  0  0  0  0  0
   38.1550   27.2740   41.3080 C   0  0  0  0  0  0  0  0  0  0  0  0
   39.4930   26.8430   41.2140 C   0  0  0  0  0  0  0  0  0  0  0  0
   40.2610   26.7500   42.3430 N   0  0  0  0  0  0  0  0  0  0  0  0
   39.7530   27.0700   43.5630 C   0  0  0  0  0  0  0  0  0  0  0  0
   38.4830   27.4820   43.6760 N   0  0  0  0  0  0  0  0  0  0  0  0
   36.6880   27.9100   42.6490 H   0  0  0  0  0  0  0  0  0  0  0  0
   39.9000   26.5860   40.2420 H   0  0  0  0  0  0  0  0  0  0  0  0
   40.4470   26.9630   44.3980 H   0  0  0  0  0  0  0  0  0  0  0  0
   38.0940   28.2880   39.1340 C   0  0  0  0  0  0  0  0  0  0  0  0
   39.1070   27.9940   38.8720 H   0  0  0  0  0  0  0  0  0  0  0  0
   37.5460   27.9490   38.1960 H   0  0  0  0  0  0  0  0  0  0  0  0
   37.9740   29.6890   39.3690 C   0  0  0  0  0  0  0  0  0  0  0  0
   37.0260   30.5650   39.7730 C   0  0  0  0  0  0  0  0  0  0  0  0
   37.1350   31.9340   39.9240 C   0  0  0  0  0  0  0  0  0  0  0  0
   38.3210   32.4430   39.6330 N   0  0  0  0  0  0  0  0  0  0  0  0
   39.3030   31.6680   39.2330 C   0  0  0  0  0  0  0  0  0  0  0  0
   39.1170   30.3660   39.1150 N   0  0  0  0  0  0  0  0  0  0  0  0
   36.0680   30.0470   39.9850 H   0  0  0  0  0  0  0  0  0  0  0  0
   36.2430   32.4340   40.2600 H   0  0  0  0  0  0  0  0  0  0  0  0
   40.9520   32.0490   37.4420 C   0  0  2  0  0  3  0  0  0  0  0  0
   40.6330   32.3190   38.9190 C   0  0  1  0  0  3  0  0  0  0  0  0
   40.5780   33.6860   38.9190 O   0  0  0  0  0  0  0  0  0  0  0  0
   41.8010   34.0220   38.3540 C   0  0  0  0  0  2  0  0  0  0  0  0
   42.0680   33.0540   37.2360 C   0  0  1  0  0  3  0  0  0  0  0  0
   39.8670   32.4770   36.6890 O   0  0  0  0  0  0  0  0  0  0  0  0
   39.9000   32.1810   35.7600 H   0  0  0  0  0  0  0  0  0  0  0  0
   43.2780   32.3500   37.4330 O   0  0  0  0  0  0  0  0  0  0  0  0
   43.2010   31.7620   38.2260 H   0  0  0  0  0  0  0  0  0  0  0  0
  1  2  1  1  0  0  0
  1 19  1  0  0  0  0
  3  1  1  0  0  0  0
  3  4  1  0  0  0  0
  4  9  1  0  0  0  0
  4 10  1  0  0  0  0
  5 12  1  0  0  0  0
  5  4  1  0  0  0  0
  6 13  1  0  0  0  0
  6  5  1  0  0  0  0
  7  8  1  0  0  0  0
  7  6  1  0  0  0  0
  8 16  1  0  0  0  0
  8  3  1  0  0  0  0
 11  5  1  0  0  0  0
 14  7  1  0  0  0  0
 15  7  1  0  0  0  0
 17  8  1  0  0  0  0
 18 24  1  0  0  0  0
 18 23  1  0  0  0  0
 19 18  2  0  0  0  0
 20 19  1  0  0  0  0
 20 21  2  0  0  0  0
 21 22  1  0  0  0  0
 22 23  2  0  0  0  0
 22 26  1  0  0  0  0
 25 20  1  0  0  0  0
 27 30  1  0  0  0  0
 27  1  1  0  0  0  0
 28 27  1  0  0  0  0
 29 27  1  0  0  0  0
 30 31  1  0  0  0  0
 31 32  2  0  0  0  0
 31 36  1  0  0  0  0
 32 37  1  0  0  0  0
 33 32  1  0  0  0  0
 34 33  2  0  0  0  0
 35 34  1  0  0  0  0
 35 30  2  0  0  0  0
 38 43  1  6  0  0  0
 38 39  1  0  0  0  0
 39 34  1  6  0  0  0
 40 39  1  0  0  0  0
 41 40  1  0  0  0  0
 42 45  1  1  0  0  0
 42 38  1  0  0  0  0
 42 41  1  0  0  0  0
 44 43  1  0  0  0  0
 45 46  1  0  0  0  0
M  END
>  <minimizedAffinity>
-5.38763571

$$$$
