
 OpenBabel03252507573D

 27 29  0  0  1  0  0  0  0  0999 V2000
   46.4260   32.6490   45.7730 C   0  0  1  0  0  0  0  0  0  0  0  0
   47.1090   32.9700   47.0650 C   0  0  0  0  0  0  0  0  0  0  0  0
   45.6350   32.7630   47.0370 C   0  0  2  0  0  0  0  0  0  0  0  0
   46.5890   31.6790   45.3070 H   0  0  0  0  0  0  0  0  0  0  0  0
   47.5640   33.9850   47.0970 H   0  0  0  0  0  0  0  0  0  0  0  0
   47.7660   32.1660   47.4580 H   0  0  0  0  0  0  0  0  0  0  0  0
   45.0690   33.7170   47.2370 H   0  0  0  0  0  0  0  0  0  0  0  0
   46.6700   34.8560   42.8490 C   0  0  0  0  0  0  0  0  0  0  0  0
   45.5880   35.7560   43.0190 C   0  0  0  0  0  0  0  0  0  0  0  0
   44.7830   35.5730   44.1560 C   0  0  0  0  0  0  0  0  0  0  0  0
   45.0860   34.5570   45.0150 N   0  0  0  0  0  0  0  0  0  0  0  0
   46.1450   33.7330   44.7810 C   0  0  0  0  0  0  0  0  0  0  0  0
   46.9410   33.8570   43.7240 N   0  0  0  0  0  0  0  0  0  0  0  0
   45.3850   36.5400   42.3220 H   0  0  0  0  0  0  0  0  0  0  0  0
   43.9540   36.2190   44.3380 H   0  0  0  0  0  0  0  0  0  0  0  0
   47.4590   35.1000   41.6770 C   0  0  0  0  0  0  0  0  0  0  0  0
   48.5590   35.7340   41.6560 O   0  0  0  0  0  0  0  0  0  0  0  0
   47.1580   34.7450   40.6800 H   0  0  0  0  0  0  0  0  0  0  0  0
   45.4800   30.2430   47.1490 C   0  0  2  0  0  3  0  0  0  0  0  0
   45.0970   31.5670   47.7350 C   0  0  1  0  0  3  0  0  0  0  0  0
   45.5590   31.4360   49.0410 O   0  0  0  0  0  0  0  0  0  0  0  0
   45.1610   30.1900   49.4620 C   0  0  0  0  0  2  0  0  0  0  0  0
   44.9480   29.3140   48.2490 C   0  0  2  0  0  3  0  0  0  0  0  0
   46.8500   30.1530   47.0860 O   0  0  0  0  0  0  0  0  0  0  0  0
   47.2210   29.6770   47.8730 H   0  0  0  0  0  0  0  0  0  0  0  0
   45.7160   28.1650   48.2620 O   0  0  0  0  0  0  0  0  0  0  0  0
   45.0930   27.4110   48.4220 H   0  0  0  0  0  0  0  0  0  0  0  0
  1  4  1  6  0  0  0
  1  3  1  0  0  0  0
  1  2  1  0  0  0  0
  2  5  1  0  0  0  0
  2  6  1  0  0  0  0
  3  2  1  0  0  0  0
  3  7  1  1  0  0  0
  3 20  1  0  0  0  0
  8  9  2  0  0  0  0
  8 13  1  0  0  0  0
  9 10  1  0  0  0  0
 10 15  1  0  0  0  0
 10 11  2  0  0  0  0
 12 11  1  0  0  0  0
 12  1  1  0  0  0  0
 13 12  2  0  0  0  0
 14  9  1  0  0  0  0
 16  8  1  0  0  0  0
 17 16  2  0  0  0  0
 18 16  1  0  0  0  0
 19 24  1  1  0  0  0
 19 20  1  0  0  0  0
 19 23  1  0  0  0  0
 20 21  1  1  0  0  0
 21 22  1  0  0  0  0
 23 26  1  1  0  0  0
 23 22  1  0  0  0  0
 24 25  1  0  0  0  0
 26 27  1  0  0  0  0
M  END
>  <minimizedAffinity>
-4.68568611

>  <minimizedRMSD>
0.805613697

$$$$
