
 OpenBabel03242510083D

 28 30  0  0  1  0  0  0  0  0999 V2000
   44.6960   33.0650   41.2230 Br  0  0  0  0  0  0  0  0  0  0  0  0
   46.3600   33.9910   40.9960 C   0  0  0  0  0  0  0  0  0  0  0  0
   46.8750   34.7510   42.0310 C   0  0  0  0  0  0  0  0  0  0  0  0
   48.0780   35.4260   41.8780 C   0  0  0  0  0  0  0  0  0  0  0  0
   48.7360   35.3170   40.6830 C   0  0  0  0  0  0  0  0  0  0  0  0
   48.2000   34.5560   39.6780 C   0  0  0  0  0  0  0  0  0  0  0  0
   47.0230   33.8820   39.7950 C   0  0  0  0  0  0  0  0  0  0  0  0
   48.4890   36.0190   42.6690 H   0  0  0  0  0  0  0  0  0  0  0  0
   49.6780   35.8340   40.5390 H   0  0  0  0  0  0  0  0  0  0  0  0
   48.7400   34.4870   38.7460 H   0  0  0  0  0  0  0  0  0  0  0  0
   45.6830   33.9280   45.3820 C   0  0  0  0  0  0  0  0  0  0  0  0
   44.7350   34.9440   45.6530 C   0  0  0  0  0  0  0  0  0  0  0  0
   44.5220   35.9080   44.6580 C   0  0  0  0  0  0  0  0  0  0  0  0
   45.2320   35.8070   43.5110 N   0  0  0  0  0  0  0  0  0  0  0  0
   46.1300   34.8290   43.2750 C   0  0  0  0  0  0  0  0  0  0  0  0
   46.3510   33.8860   44.2260 N   0  0  0  0  0  0  0  0  0  0  0  0
   45.7870   33.2270   46.1980 H   0  0  0  0  0  0  0  0  0  0  0  0
   44.1710   35.0250   46.5650 H   0  0  0  0  0  0  0  0  0  0  0  0
   43.8300   36.7290   44.7430 H   0  0  0  0  0  0  0  0  0  0  0  0
   47.1760   33.1490   37.4090 C   0  0  1  0  0  0  0  0  0  0  0  0
   46.4400   33.0670   38.7330 C   0  0  2  0  0  0  0  0  0  0  0  0
   45.1610   33.4150   38.3380 O   0  0  0  0  0  0  0  0  0  0  0  0
   44.9310   32.4590   37.3240 C   0  0  0  0  0  0  0  0  0  0  0  0
   46.2060   32.3450   36.5450 C   0  0  2  0  0  0  0  0  0  0  0  0
   47.1450   34.4460   36.8910 O   0  0  0  0  0  0  0  0  0  0  0  0
   46.2630   34.6630   36.4940 H   0  0  0  0  0  0  0  0  0  0  0  0
   46.6780   31.0260   36.5320 O   0  0  0  0  0  0  0  0  0  0  0  0
   46.3980   30.5690   37.3460 H   0  0  0  0  0  0  0  0  0  0  0  0
  2  1  1  0  0  0  0
  2  3  1  0  0  0  0
  3 15  1  0  0  0  0
  4  3  2  0  0  0  0
  4  8  1  0  0  0  0
  5  4  1  0  0  0  0
  6  7  1  0  0  0  0
  6  5  2  0  0  0  0
  7  2  2  0  0  0  0
  9  5  1  0  0  0  0
 10  6  1  0  0  0  0
 11 12  1  0  0  0  0
 11 17  1  0  0  0  0
 12 18  1  0  0  0  0
 13 19  1  0  0  0  0
 13 12  2  0  0  0  0
 14 13  1  0  0  0  0
 15 14  2  0  0  0  0
 15 16  1  0  0  0  0
 16 11  2  0  0  0  0
 20 25  1  6  0  0  0
 20 21  1  0  0  0  0
 21  7  1  1  0  0  0
 22 21  1  0  0  0  0
 23 22  1  0  0  0  0
 24 27  1  1  0  0  0
 24 23  1  0  0  0  0
 24 20  1  0  0  0  0
 26 25  1  0  0  0  0
 27 28  1  0  0  0  0
M  END
>  <minimizedAffinity>
-6.29619646

>  <minimizedRMSD>
0.552249789

$$$$
