
 OpenBabel03242521303D

 47 50  0  0  1  0  0  0  0  0999 V2000
   48.0320   33.3470   42.3720 C   0  0  1  0  0  0  0  0  0  0  0  0
   46.5650   33.6880   42.1350 C   0  0  2  0  0  0  0  0  0  0  0  0
   46.4130   34.6340   41.1640 O   0  0  0  0  0  0  0  0  0  0  0  0
   46.7380   34.0570   39.9730 C   0  0  0  0  0  0  0  0  0  0  0  0
   48.2200   33.8310   39.9150 C   0  0  2  0  0  0  0  0  0  0  0  0
   48.8310   33.1990   41.1510 C   0  0  2  0  0  0  0  0  0  0  0  0
   48.0080   32.3390   42.8850 H   0  0  0  0  0  0  0  0  0  0  0  0
   46.0650   32.7370   41.8250 H   0  0  0  0  0  0  0  0  0  0  0  0
   46.2560   33.0360   39.9650 H   0  0  0  0  0  0  0  0  0  0  0  0
   46.4590   34.6480   39.0990 H   0  0  0  0  0  0  0  0  0  0  0  0
   48.3210   33.2080   39.0030 H   0  0  0  0  0  0  0  0  0  0  0  0
   49.7980   33.7290   41.2720 H   0  0  0  0  0  0  0  0  0  0  0  0
   44.5920   35.7580   44.6230 C   0  0  0  0  0  0  0  0  0  0  0  0
   45.1610   35.3490   43.4120 C   0  0  0  0  0  0  0  0  0  0  0  0
   45.9420   34.1460   43.3840 C   0  0  0  0  0  0  0  0  0  0  0  0
   46.1020   33.4500   44.5310 N   0  0  0  0  0  0  0  0  0  0  0  0
   45.5250   33.8900   45.6970 C   0  0  0  0  0  0  0  0  0  0  0  0
   44.7790   35.0310   45.7390 N   0  0  0  0  0  0  0  0  0  0  0  0
   44.0220   36.6710   44.5480 H   0  0  0  0  0  0  0  0  0  0  0  0
   45.0300   35.9020   42.5100 H   0  0  0  0  0  0  0  0  0  0  0  0
   45.6530   33.3320   46.6140 H   0  0  0  0  0  0  0  0  0  0  0  0
   48.6190   34.1930   43.3020 O   0  0  0  0  0  0  0  0  0  0  0  0
   49.1710   33.7390   43.9790 H   0  0  0  0  0  0  0  0  0  0  0  0
   48.7720   35.1050   39.7030 O   0  0  0  0  0  0  0  0  0  0  0  0
   49.5080   35.3030   40.3190 H   0  0  0  0  0  0  0  0  0  0  0  0
   49.1870   31.8830   40.8410 O   0  0  0  0  0  0  0  0  0  0  0  0
   51.4060   32.4150   41.4300 N   0  0  0  0  0  0  0  0  0  0  0  0
   51.2390   31.6160   42.6600 C   0  0  0  0  0  0  0  0  0  0  0  0
   51.6670   30.2720   42.1410 C   0  0  0  0  0  0  0  0  0  0  0  0
   50.9370   30.2350   40.8130 C   0  0  0  0  0  0  0  0  0  0  0  0
   50.5050   31.6930   40.5570 C   0  0  1  0  0  0  0  0  0  0  0  0
   52.3840   32.2230   41.1140 H   0  0  0  0  0  0  0  0  0  0  0  0
   51.8760   32.0120   43.4690 H   0  0  0  0  0  0  0  0  0  0  0  0
   50.1810   31.5850   42.9520 H   0  0  0  0  0  0  0  0  0  0  0  0
   51.2090   29.5170   42.8200 H   0  0  0  0  0  0  0  0  0  0  0  0
   52.7560   30.1710   42.0630 H   0  0  0  0  0  0  0  0  0  0  0  0
   51.6930   29.8770   40.0920 H   0  0  0  0  0  0  0  0  0  0  0  0
   50.0420   29.5780   40.8840 H   0  0  0  0  0  0  0  0  0  0  0  0
   50.1340   31.4900   38.0380 C   0  0  1  0  0  0  0  0  0  0  0  0
   51.0010   31.9310   39.1640 C   0  0  2  0  0  0  0  0  0  0  0  0
   52.0420   30.9520   39.0380 O   0  0  0  0  0  0  0  0  0  0  0  0
   52.3930   31.1580   37.6840 C   0  0  0  0  0  0  0  0  0  0  0  0
   51.0590   30.8220   37.0500 C   0  0  2  0  0  0  0  0  0  0  0  0
   49.0260   30.7590   38.3440 O   0  0  0  0  0  0  0  0  0  0  0  0
   48.1680   31.0810   38.0120 H   0  0  0  0  0  0  0  0  0  0  0  0
   50.9750   31.3650   35.7690 O   0  0  0  0  0  0  0  0  0  0  0  0
   50.0730   31.7470   35.6520 H   0  0  0  0  0  0  0  0  0  0  0  0
  1  7  1  1  0  0  0
  1 22  1  0  0  0  0
  2  8  1  6  0  0  0
  2  1  1  0  0  0  0
  2 15  1  0  0  0  0
  3  2  1  0  0  0  0
  4  3  1  0  0  0  0
  5 11  1  6  0  0  0
  5  4  1  0  0  0  0
  5  6  1  0  0  0  0
  6 12  1  1  0  0  0
  6  1  1  0  0  0  0
  9  4  1  0  0  0  0
 10  4  1  0  0  0  0
 13 18  1  0  0  0  0
 14 13  2  0  0  0  0
 15 14  1  0  0  0  0
 15 16  2  0  0  0  0
 16 17  1  0  0  0  0
 17 18  2  0  0  0  0
 17 21  1  0  0  0  0
 19 13  1  0  0  0  0
 20 14  1  0  0  0  0
 22 23  1  0  0  0  0
 24  5  1  0  0  0  0
 24 25  1  0  0  0  0
 26  6  1  0  0  0  0
 27 28  1  0  0  0  0
 28 34  1  0  0  0  0
 28 33  1  0  0  0  0
 29 28  1  0  0  0  0
 29 35  1  0  0  0  0
 30 38  1  0  0  0  0
 30 29  1  0  0  0  0
 31 30  1  0  0  0  0
 31 26  1  1  0  0  0
 31 27  1  0  0  0  0
 32 27  1  0  0  0  0
 36 29  1  0  0  0  0
 37 30  1  0  0  0  0
 39 44  1  1  0  0  0
 39 40  1  0  0  0  0
 40 41  1  1  0  0  0
 40 31  1  0  0  0  0
 42 41  1  0  0  0  0
 43 46  1  6  0  0  0
 43 42  1  0  0  0  0
 43 39  1  0  0  0  0
 45 44  1  0  0  0  0
 47 46  1  0  0  0  0
M  END
>  <minimizedAffinity>
-5.97570944

>  <minimizedRMSD>
1.049263

$$$$
