
 OpenBabel03242523463D

 19 20  0  0  1  0  0  0  0  0999 V2000
   45.2350   35.8090   43.4800 C   0  0  0  0  0  0  0  0  0  0  0  0
   46.2390   35.2700   42.6570 C   0  0  0  0  0  0  0  0  0  0  0  0
   46.9080   34.1290   43.1220 C   0  0  0  0  0  0  0  0  0  0  0  0
   46.5600   33.6030   44.3320 N   0  0  0  0  0  0  0  0  0  0  0  0
   45.5880   34.1580   45.0850 C   0  0  0  0  0  0  0  0  0  0  0  0
   44.9360   35.2420   44.6670 N   0  0  0  0  0  0  0  0  0  0  0  0
   46.5310   35.6680   41.7020 H   0  0  0  0  0  0  0  0  0  0  0  0
   45.3640   33.6820   46.0400 H   0  0  0  0  0  0  0  0  0  0  0  0
   49.2680   34.2160   42.2890 C   0  0  1  0  0  3  0  0  0  0  0  0
   47.9720   33.4400   42.4050 C   0  0  1  0  0  3  0  0  0  0  0  0
   48.4210   32.3110   43.0830 O   0  0  0  0  0  0  0  0  0  0  0  0
   49.5730   31.8970   42.4460 C   0  0  0  0  0  2  0  0  0  0  0  0
   50.1740   33.0970   41.7640 C   0  0  2  0  0  3  0  0  0  0  0  0
   49.2030   35.2680   41.3900 O   0  0  0  0  0  0  0  0  0  0  0  0
   49.7340   36.0690   41.6940 H   0  0  0  0  0  0  0  0  0  0  0  0
   51.4960   33.3130   42.1000 O   0  0  0  0  0  0  0  0  0  0  0  0
   52.0570   33.5000   41.2990 H   0  0  0  0  0  0  0  0  0  0  0  0
   44.5850   36.9190   43.0270 O   0  0  0  0  0  0  0  0  0  0  0  0
   45.1230   37.6210   42.5320 H   0  0  0  0  0  0  0  0  0  0  0  0
  1  6  1  0  0  0  0
  2  3  1  0  0  0  0
  2  1  2  0  0  0  0
  3  4  2  0  0  0  0
  4  5  1  0  0  0  0
  5  8  1  0  0  0  0
  6  5  2  0  0  0  0
  7  2  1  0  0  0  0
  9 14  1  6  0  0  0
  9 10  1  0  0  0  0
 10 11  1  0  0  0  0
 10  3  1  1  0  0  0
 12 11  1  0  0  0  0
 13 16  1  1  0  0  0
 13  9  1  0  0  0  0
 13 12  1  0  0  0  0
 14 15  1  0  0  0  0
 17 16  1  0  0  0  0
 18  1  1  0  0  0  0
 19 18  1  0  0  0  0
M  END
>  <minimizedAffinity>
-4.85893679

>  <minimizedRMSD>
1.0294801

$$$$
