
 OpenBabel03252500383D

 46 49  0  0  1  0  0  0  0  0999 V2000
   35.9810   30.3310   40.2640 C   0  0  1  0  0  0  0  0  0  0  0  0
   35.0360   29.4290   39.7730 C   0  0  0  0  0  0  0  0  0  0  0  0
   35.7270   28.9800   40.9950 C   0  0  1  0  0  0  0  0  0  0  0  0
   35.6640   31.2450   40.8430 H   0  0  0  0  0  0  0  0  0  0  0  0
   35.2390   28.7860   38.8670 H   0  0  0  0  0  0  0  0  0  0  0  0
   33.9470   29.6620   39.8210 H   0  0  0  0  0  0  0  0  0  0  0  0
   35.3490   29.1680   42.0100 H   0  0  0  0  0  0  0  0  0  0  0  0
   38.2670   31.2800   40.5870 C   0  0  0  0  0  0  0  0  0  0  0  0
   37.3650   30.5510   39.7460 C   0  0  0  0  0  0  0  0  0  0  0  0
   37.7850   30.0970   38.5370 C   0  0  0  0  0  0  0  0  0  0  0  0
   39.0820   30.3710   38.1840 N   0  0  0  0  0  0  0  0  0  0  0  0
   39.9290   31.0640   38.9920 C   0  0  0  0  0  0  0  0  0  0  0  0
   39.5410   31.5380   40.2170 N   0  0  0  0  0  0  0  0  0  0  0  0
   37.8790   31.6200   41.5420 H   0  0  0  0  0  0  0  0  0  0  0  0
   37.1270   29.5500   37.8940 H   0  0  0  0  0  0  0  0  0  0  0  0
   41.4010   31.7960   37.1140 C   0  0  2  0  0  3  0  0  0  0  0  0
   41.3170   31.3160   38.5310 C   0  0  1  0  0  3  0  0  0  0  0  0
   41.8540   32.3150   39.3170 O   0  0  0  0  0  0  0  0  0  0  0  0
   43.0030   32.6760   38.6150 C   0  0  0  0  0  2  0  0  0  0  0  0
   42.5630   32.7490   37.1720 C   0  0  2  0  0  3  0  0  0  0  0  0
   40.2360   32.4450   36.6990 O   0  0  0  0  0  0  0  0  0  0  0  0
   40.4440   32.8170   35.7910 H   0  0  0  0  0  0  0  0  0  0  0  0
   42.1300   34.0390   36.8960 O   0  0  0  0  0  0  0  0  0  0  0  0
   41.4010   34.2440   37.5410 H   0  0  0  0  0  0  0  0  0  0  0  0
   36.7580   27.9150   40.9260 C   0  0  0  0  0  0  0  0  0  0  0  0
   37.6970   28.2090   40.4210 H   0  0  0  0  0  0  0  0  0  0  0  0
   36.3160   27.0540   40.3560 H   0  0  0  0  0  0  0  0  0  0  0  0
   37.0320   27.5100   42.2600 N   0  0  0  0  0  0  0  0  0  0  0  0
   37.6160   28.4430   43.1250 C   0  0  0  0  0  0  0  0  0  0  0  0
   39.1550   28.3690   43.0770 C   0  0  0  0  0  0  0  0  0  0  0  0
   39.5370   27.0470   43.6800 C   0  0  0  0  0  0  0  0  0  0  0  0
   38.9090   25.9850   42.8040 C   0  0  0  0  0  0  0  0  0  0  0  0
   37.4510   26.1970   42.5060 C   0  0  2  0  0  0  0  0  0  0  0  0
   37.3960   28.0620   44.1710 H   0  0  0  0  0  0  0  0  0  0  0  0
   37.2370   29.4620   43.1570 H   0  0  0  0  0  0  0  0  0  0  0  0
   39.6280   29.2150   43.5740 H   0  0  0  0  0  0  0  0  0  0  0  0
   39.4400   28.3030   41.9930 H   0  0  0  0  0  0  0  0  0  0  0  0
   39.2490   26.9530   44.7320 H   0  0  0  0  0  0  0  0  0  0  0  0
   40.6390   26.8950   43.5780 H   0  0  0  0  0  0  0  0  0  0  0  0
   39.4650   25.9250   41.8470 H   0  0  0  0  0  0  0  0  0  0  0  0
   39.0220   24.9820   43.2750 H   0  0  0  0  0  0  0  0  0  0  0  0
   36.8980   25.8020   43.3920 H   0  0  0  0  0  0  0  0  0  0  0  0
   37.0980   25.2620   41.3580 C   0  0  0  0  0  0  0  0  0  0  0  0
   37.1510   24.1940   41.6960 H   0  0  0  0  0  0  0  0  0  0  0  0
   37.6910   25.4600   40.4640 H   0  0  0  0  0  0  0  0  0  0  0  0
   35.9970   25.4280   41.1960 H   0  0  0  0  0  0  0  0  0  0  0  0
  1  4  1  1  0  0  0
  1  3  1  0  0  0  0
  2  6  1  0  0  0  0
  2  1  1  0  0  0  0
  2  3  1  0  0  0  0
  3  7  1  1  0  0  0
  5  2  1  0  0  0  0
  8 14  1  0  0  0  0
  9  1  1  0  0  0  0
  9  8  2  0  0  0  0
 10  9  1  0  0  0  0
 11 10  2  0  0  0  0
 11 12  1  0  0  0  0
 12 13  2  0  0  0  0
 13  8  1  0  0  0  0
 15 10  1  0  0  0  0
 16 21  1  1  0  0  0
 16 20  1  0  0  0  0
 16 17  1  0  0  0  0
 17 12  1  1  0  0  0
 17 18  1  0  0  0  0
 19 18  1  0  0  0  0
 20 23  1  1  0  0  0
 20 19  1  0  0  0  0
 22 21  1  0  0  0  0
 23 24  1  0  0  0  0
 25  3  1  0  0  0  0
 25 28  1  0  0  0  0
 26 25  1  0  0  0  0
 27 25  1  0  0  0  0
 28 33  1  0  0  0  0
 28 29  1  0  0  0  0
 29 35  1  0  0  0  0
 29 34  1  0  0  0  0
 30 29  1  0  0  0  0
 30 36  1  0  0  0  0
 30 31  1  0  0  0  0
 31 38  1  0  0  0  0
 32 41  1  0  0  0  0
 32 31  1  0  0  0  0
 33 32  1  0  0  0  0
 33 42  1  1  0  0  0
 37 30  1  0  0  0  0
 39 31  1  0  0  0  0
 40 32  1  0  0  0  0
 43 44  1  0  0  0  0
 43 33  1  0  0  0  0
 45 43  1  0  0  0  0
 46 43  1  0  0  0  0
M  END
>  <minimizedAffinity>
-6.70579958

$$$$

 OpenBabel03252500383D

 46 49  0  0  1  0  0  0  0  0999 V2000
   36.9940   25.2160   41.8430 C   0  0  1  0  0  0  0  0  0  0  0  0
   37.1500   23.9600   41.2530 C   0  0  0  0  0  0  0  0  0  0  0  0
   38.3030   24.4000   42.0600 C   0  0  1  0  0  0  0  0  0  0  0  0
   36.3650   25.3470   42.7690 H   0  0  0  0  0  0  0  0  0  0  0  0
   37.3760   23.8420   40.1530 H   0  0  0  0  0  0  0  0  0  0  0  0
   36.5480   23.0890   41.6010 H   0  0  0  0  0  0  0  0  0  0  0  0
   38.4250   24.1610   43.1250 H   0  0  0  0  0  0  0  0  0  0  0  0
   36.9720   26.5860   39.7570 C   0  0  0  0  0  0  0  0  0  0  0  0
   37.1470   26.5440   41.1780 C   0  0  0  0  0  0  0  0  0  0  0  0
   37.4390   27.6840   41.8580 C   0  0  0  0  0  0  0  0  0  0  0  0
   37.5540   28.8370   41.1220 N   0  0  0  0  0  0  0  0  0  0  0  0
   37.3850   28.8630   39.7720 C   0  0  0  0  0  0  0  0  0  0  0  0
   37.0900   27.7350   39.0540 N   0  0  0  0  0  0  0  0  0  0  0  0
   36.7400   25.6470   39.2640 H   0  0  0  0  0  0  0  0  0  0  0  0
   37.5740   27.6740   42.9200 H   0  0  0  0  0  0  0  0  0  0  0  0
   36.4220   31.1250   39.3430 C   0  0  2  0  0  3  0  0  0  0  0  0
   37.5270   30.1540   39.0560 C   0  0  1  0  0  3  0  0  0  0  0  0
   38.6960   30.7520   39.4800 O   0  0  0  0  0  0  0  0  0  0  0  0
   38.5700   32.0540   38.9980 C   0  0  0  0  0  2  0  0  0  0  0  0
   37.1450   32.4440   39.3140 C   0  0  2  0  0  3  0  0  0  0  0  0
   35.8240   30.9030   40.5850 O   0  0  0  0  0  0  0  0  0  0  0  0
   35.1880   31.6660   40.7170 H   0  0  0  0  0  0  0  0  0  0  0  0
   37.1050   33.0300   40.5720 O   0  0  0  0  0  0  0  0  0  0  0  0
   37.4850   32.3700   41.2120 H   0  0  0  0  0  0  0  0  0  0  0  0
   39.5530   24.8500   41.3980 C   0  0  0  0  0  0  0  0  0  0  0  0
   39.4600   25.7840   40.8130 H   0  0  0  0  0  0  0  0  0  0  0  0
   39.8750   24.0350   40.6950 H   0  0  0  0  0  0  0  0  0  0  0  0
   40.5310   25.0130   42.4150 N   0  0  0  0  0  0  0  0  0  0  0  0
   40.1180   25.5310   43.6490 C   0  0  0  0  0  0  0  0  0  0  0  0
   40.2280   27.0680   43.6790 C   0  0  0  0  0  0  0  0  0  0  0  0
   41.6940   27.3910   43.6380 C   0  0  0  0  0  0  0  0  0  0  0  0
   42.2150   26.8300   42.3320 C   0  0  0  0  0  0  0  0  0  0  0  0
   41.8290   25.4030   42.0640 C   0  0  2  0  0  0  0  0  0  0  0  0
   40.9230   25.2240   44.3880 H   0  0  0  0  0  0  0  0  0  0  0  0
   39.2100   25.1560   44.1160 H   0  0  0  0  0  0  0  0  0  0  0  0
   39.7200   27.5040   44.5400 H   0  0  0  0  0  0  0  0  0  0  0  0
   39.8060   27.4400   42.7080 H   0  0  0  0  0  0  0  0  0  0  0  0
   42.2430   27.0190   44.5080 H   0  0  0  0  0  0  0  0  0  0  0  0
   41.8300   28.4970   43.5550 H   0  0  0  0  0  0  0  0  0  0  0  0
   41.8570   27.4610   41.4950 H   0  0  0  0  0  0  0  0  0  0  0  0
   43.3260   26.8980   42.3010 H   0  0  0  0  0  0  0  0  0  0  0  0
   42.5600   24.7770   42.6310 H   0  0  0  0  0  0  0  0  0  0  0  0
   42.1240   25.1380   40.5940 C   0  0  0  0  0  0  0  0  0  0  0  0
   43.2300   25.1570   40.4100 H   0  0  0  0  0  0  0  0  0  0  0  0
   41.5670   25.8020   39.9330 H   0  0  0  0  0  0  0  0  0  0  0  0
   41.8560   24.0550   40.4490 H   0  0  0  0  0  0  0  0  0  0  0  0
  1  3  1  0  0  0  0
  1  4  1  1  0  0  0
  2  6  1  0  0  0  0
  2  1  1  0  0  0  0
  2  3  1  0  0  0  0
  3  7  1  1  0  0  0
  5  2  1  0  0  0  0
  8  9  1  0  0  0  0
  9  1  1  0  0  0  0
  9 10  2  0  0  0  0
 10 15  1  0  0  0  0
 11 10  1  0  0  0  0
 12 11  2  0  0  0  0
 13  8  2  0  0  0  0
 13 12  1  0  0  0  0
 14  8  1  0  0  0  0
 16 21  1  1  0  0  0
 17 16  1  0  0  0  0
 17 18  1  0  0  0  0
 17 12  1  1  0  0  0
 19 20  1  0  0  0  0
 19 18  1  0  0  0  0
 20 16  1  0  0  0  0
 20 23  1  1  0  0  0
 21 22  1  0  0  0  0
 23 24  1  0  0  0  0
 25  3  1  0  0  0  0
 25 28  1  0  0  0  0
 26 25  1  0  0  0  0
 27 25  1  0  0  0  0
 28 29  1  0  0  0  0
 29 30  1  0  0  0  0
 29 35  1  0  0  0  0
 29 34  1  0  0  0  0
 30 36  1  0  0  0  0
 31 30  1  0  0  0  0
 31 38  1  0  0  0  0
 32 31  1  0  0  0  0
 33 32  1  0  0  0  0
 33 28  1  0  0  0  0
 33 42  1  1  0  0  0
 37 30  1  0  0  0  0
 39 31  1  0  0  0  0
 40 32  1  0  0  0  0
 41 32  1  0  0  0  0
 43 33  1  0  0  0  0
 44 43  1  0  0  0  0
 45 43  1  0  0  0  0
 46 43  1  0  0  0  0
M  END
>  <minimizedAffinity>
-5.89055252

$$$$

 OpenBabel03252500383D

 46 49  0  0  1  0  0  0  0  0999 V2000
   37.6950   28.4390   43.6280 C   0  0  1  0  0  0  0  0  0  0  0  0
   36.5630   27.6250   43.5600 C   0  0  0  0  0  0  0  0  0  0  0  0
   37.8330   26.9220   43.3050 C   0  0  1  0  0  0  0  0  0  0  0  0
   38.1270   28.7480   44.6220 H   0  0  0  0  0  0  0  0  0  0  0  0
   35.8640   27.6480   42.6730 H   0  0  0  0  0  0  0  0  0  0  0  0
   35.9830   27.3770   44.4790 H   0  0  0  0  0  0  0  0  0  0  0  0
   38.4190   26.4220   44.0890 H   0  0  0  0  0  0  0  0  0  0  0  0
   37.1980   29.9920   41.7380 C   0  0  0  0  0  0  0  0  0  0  0  0
   38.1850   29.3840   42.5810 C   0  0  0  0  0  0  0  0  0  0  0  0
   39.4990   29.6780   42.4040 C   0  0  0  0  0  0  0  0  0  0  0  0
   39.8110   30.5610   41.4020 N   0  0  0  0  0  0  0  0  0  0  0  0
   38.8640   31.1320   40.6090 C   0  0  0  0  0  0  0  0  0  0  0  0
   37.5310   30.8600   40.7570 N   0  0  0  0  0  0  0  0  0  0  0  0
   36.1630   29.7210   41.9230 H   0  0  0  0  0  0  0  0  0  0  0  0
   40.2520   29.2340   43.0230 H   0  0  0  0  0  0  0  0  0  0  0  0
   39.5190   33.4730   40.0450 C   0  0  2  0  0  3  0  0  0  0  0  0
   39.2910   32.0780   39.5480 C   0  0  1  0  0  3  0  0  0  0  0  0
   40.4980   31.6380   39.0430 O   0  0  0  0  0  0  0  0  0  0  0  0
   40.9420   32.7350   38.3060 C   0  0  0  0  0  2  0  0  0  0  0  0
   40.6720   33.9280   39.1910 C   0  0  2  0  0  3  0  0  0  0  0  0
   39.8490   33.5120   41.4010 O   0  0  0  0  0  0  0  0  0  0  0  0
   40.0860   34.4670   41.5930 H   0  0  0  0  0  0  0  0  0  0  0  0
   41.7850   34.1600   39.9880 O   0  0  0  0  0  0  0  0  0  0  0  0
   41.9580   33.3230   40.4960 H   0  0  0  0  0  0  0  0  0  0  0  0
   38.1970   26.5060   41.9280 C   0  0  0  0  0  0  0  0  0  0  0  0
   39.1350   25.9250   41.8490 H   0  0  0  0  0  0  0  0  0  0  0  0
   38.3190   27.4390   41.3140 H   0  0  0  0  0  0  0  0  0  0  0  0
   37.1120   25.7440   41.4200 N   0  0  0  0  0  0  0  0  0  0  0  0
   36.9500   24.4340   41.8880 C   0  0  0  0  0  0  0  0  0  0  0  0
   37.7130   23.4240   41.0100 C   0  0  0  0  0  0  0  0  0  0  0  0
   37.0180   23.4070   39.6780 C   0  0  0  0  0  0  0  0  0  0  0  0
   37.1300   24.8110   39.1240 C   0  0  0  0  0  0  0  0  0  0  0  0
   36.7320   25.8980   40.0810 C   0  0  2  0  0  0  0  0  0  0  0  0
   35.8690   24.1670   41.6670 H   0  0  0  0  0  0  0  0  0  0  0  0
   37.0340   24.2260   42.9520 H   0  0  0  0  0  0  0  0  0  0  0  0
   37.7760   22.4380   41.4690 H   0  0  0  0  0  0  0  0  0  0  0  0
   38.7270   23.8660   40.8170 H   0  0  0  0  0  0  0  0  0  0  0  0
   35.9820   23.0550   39.7360 H   0  0  0  0  0  0  0  0  0  0  0  0
   37.5910   22.7650   38.9660 H   0  0  0  0  0  0  0  0  0  0  0  0
   38.1720   24.9900   38.7920 H   0  0  0  0  0  0  0  0  0  0  0  0
   36.5050   24.9130   38.2070 H   0  0  0  0  0  0  0  0  0  0  0  0
   35.6180   25.9590   40.0270 H   0  0  0  0  0  0  0  0  0  0  0  0
   37.2380   27.2070   39.4930 C   0  0  0  0  0  0  0  0  0  0  0  0
   36.6760   27.4550   38.5540 H   0  0  0  0  0  0  0  0  0  0  0  0
   38.3200   27.2100   39.3590 H   0  0  0  0  0  0  0  0  0  0  0  0
   36.8870   27.9910   40.2200 H   0  0  0  0  0  0  0  0  0  0  0  0
  1  4  1  1  0  0  0
  2  1  1  0  0  0  0
  2  6  1  0  0  0  0
  3  2  1  0  0  0  0
  3  1  1  0  0  0  0
  3  7  1  1  0  0  0
  5  2  1  0  0  0  0
  8 14  1  0  0  0  0
  8  9  1  0  0  0  0
  9  1  1  0  0  0  0
 10  9  2  0  0  0  0
 10 15  1  0  0  0  0
 11 10  1  0  0  0  0
 12 13  1  0  0  0  0
 12 11  2  0  0  0  0
 13  8  2  0  0  0  0
 16 21  1  1  0  0  0
 17 16  1  0  0  0  0
 17 12  1  1  0  0  0
 18 17  1  0  0  0  0
 19 18  1  0  0  0  0
 19 20  1  0  0  0  0
 20 23  1  1  0  0  0
 20 16  1  0  0  0  0
 21 22  1  0  0  0  0
 23 24  1  0  0  0  0
 25  3  1  0  0  0  0
 26 25  1  0  0  0  0
 27 25  1  0  0  0  0
 28 29  1  0  0  0  0
 28 25  1  0  0  0  0
 29 35  1  0  0  0  0
 30 36  1  0  0  0  0
 30 29  1  0  0  0  0
 31 38  1  0  0  0  0
 31 30  1  0  0  0  0
 32 31  1  0  0  0  0
 32 33  1  0  0  0  0
 33 42  1  6  0  0  0
 33 28  1  0  0  0  0
 34 29  1  0  0  0  0
 37 30  1  0  0  0  0
 39 31  1  0  0  0  0
 40 32  1  0  0  0  0
 41 32  1  0  0  0  0
 43 33  1  0  0  0  0
 43 46  1  0  0  0  0
 44 43  1  0  0  0  0
 45 43  1  0  0  0  0
M  END
>  <minimizedAffinity>
-5.87464952

$$$$

 OpenBabel03252500383D

 46 49  0  0  1  0  0  0  0  0999 V2000
   36.5760   31.3060   39.1680 C   0  0  1  0  0  0  0  0  0  0  0  0
   36.4750   29.9200   39.0310 C   0  0  0  0  0  0  0  0  0  0  0  0
   36.2070   30.4180   40.3930 C   0  0  1  0  0  0  0  0  0  0  0  0
   35.7490   31.9850   38.8150 H   0  0  0  0  0  0  0  0  0  0  0  0
   37.3880   29.2610   38.9540 H   0  0  0  0  0  0  0  0  0  0  0  0
   35.6420   29.4650   38.4480 H   0  0  0  0  0  0  0  0  0  0  0  0
   35.2030   30.6790   40.7570 H   0  0  0  0  0  0  0  0  0  0  0  0
   38.9910   31.6060   38.6120 C   0  0  0  0  0  0  0  0  0  0  0  0
   37.8310   32.1070   39.2880 C   0  0  0  0  0  0  0  0  0  0  0  0
   37.9090   33.2610   40.0000 C   0  0  0  0  0  0  0  0  0  0  0  0
   39.1250   33.8960   40.0290 N   0  0  0  0  0  0  0  0  0  0  0  0
   40.2190   33.4100   39.3820 C   0  0  0  0  0  0  0  0  0  0  0  0
   40.1790   32.2500   38.6560 N   0  0  0  0  0  0  0  0  0  0  0  0
   38.8730   30.6800   38.0590 H   0  0  0  0  0  0  0  0  0  0  0  0
   37.0540   33.6520   40.5120 H   0  0  0  0  0  0  0  0  0  0  0  0
   42.1290   34.1170   40.8240 C   0  0  2  0  0  3  0  0  0  0  0  0
   41.4950   34.1610   39.4670 C   0  0  1  0  0  3  0  0  0  0  0  0
   42.3930   33.5780   38.5950 O   0  0  0  0  0  0  0  0  0  0  0  0
   43.6080   34.1440   38.9790 C   0  0  0  0  0  2  0  0  0  0  0  0
   43.5950   34.0950   40.4880 C   0  0  2  0  0  3  0  0  0  0  0  0
   41.7590   32.9830   41.5510 O   0  0  0  0  0  0  0  0  0  0  0  0
   42.3210   33.0020   42.3810 H   0  0  0  0  0  0  0  0  0  0  0  0
   44.1550   32.8950   40.9060 O   0  0  0  0  0  0  0  0  0  0  0  0
   43.6280   32.1660   40.4820 H   0  0  0  0  0  0  0  0  0  0  0  0
   37.2060   30.2240   41.4730 C   0  0  0  0  0  0  0  0  0  0  0  0
   36.8750   30.5480   42.4770 H   0  0  0  0  0  0  0  0  0  0  0  0
   38.1180   30.8210   41.2020 H   0  0  0  0  0  0  0  0  0  0  0  0
   37.5350   28.8420   41.4960 N   0  0  0  0  0  0  0  0  0  0  0  0
   36.6290   27.9590   42.0960 C   0  0  0  0  0  0  0  0  0  0  0  0
   36.9320   27.7740   43.5950 C   0  0  0  0  0  0  0  0  0  0  0  0
   38.2410   27.0420   43.6790 C   0  0  0  0  0  0  0  0  0  0  0  0
   39.2680   27.9350   43.0170 C   0  0  0  0  0  0  0  0  0  0  0  0
   38.8700   28.4570   41.6660 C   0  0  2  0  0  0  0  0  0  0  0  0
   36.8850   26.9350   41.6770 H   0  0  0  0  0  0  0  0  0  0  0  0
   35.5670   28.0450   41.8800 H   0  0  0  0  0  0  0  0  0  0  0  0
   36.1260   27.2660   44.1230 H   0  0  0  0  0  0  0  0  0  0  0  0
   37.1290   28.7980   44.0120 H   0  0  0  0  0  0  0  0  0  0  0  0
   38.2040   26.0400   43.2390 H   0  0  0  0  0  0  0  0  0  0  0  0
   38.5610   26.9700   44.7470 H   0  0  0  0  0  0  0  0  0  0  0  0
   39.4880   28.7930   43.6820 H   0  0  0  0  0  0  0  0  0  0  0  0
   40.2340   27.3910   42.9060 H   0  0  0  0  0  0  0  0  0  0  0  0
   39.1050   27.6390   40.9410 H   0  0  0  0  0  0  0  0  0  0  0  0
   39.8350   29.5850   41.3300 C   0  0  0  0  0  0  0  0  0  0  0  0
   40.8680   29.1780   41.1680 H   0  0  0  0  0  0  0  0  0  0  0  0
   39.8010   30.3920   42.0630 H   0  0  0  0  0  0  0  0  0  0  0  0
   39.5230   29.9180   40.3010 H   0  0  0  0  0  0  0  0  0  0  0  0
  1  4  1  6  0  0  0
  1  9  1  0  0  0  0
  1  3  1  0  0  0  0
  2  1  1  0  0  0  0
  2  3  1  0  0  0  0
  3  7  1  1  0  0  0
  3 25  1  0  0  0  0
  5  2  1  0  0  0  0
  6  2  1  0  0  0  0
  8 13  2  0  0  0  0
  8  9  1  0  0  0  0
  9 10  2  0  0  0  0
 10 11  1  0  0  0  0
 10 15  1  0  0  0  0
 12 11  2  0  0  0  0
 13 12  1  0  0  0  0
 14  8  1  0  0  0  0
 16 21  1  6  0  0  0
 17 12  1  1  0  0  0
 17 16  1  0  0  0  0
 18 19  1  0  0  0  0
 18 17  1  0  0  0  0
 19 20  1  0  0  0  0
 20 16  1  0  0  0  0
 20 23  1  6  0  0  0
 21 22  1  0  0  0  0
 24 23  1  0  0  0  0
 25 28  1  0  0  0  0
 25 26  1  0  0  0  0
 27 25  1  0  0  0  0
 28 33  1  0  0  0  0
 28 29  1  0  0  0  0
 29 30  1  0  0  0  0
 30 31  1  0  0  0  0
 30 37  1  0  0  0  0
 30 36  1  0  0  0  0
 31 39  1  0  0  0  0
 32 31  1  0  0  0  0
 32 40  1  0  0  0  0
 33 42  1  6  0  0  0
 33 32  1  0  0  0  0
 34 29  1  0  0  0  0
 35 29  1  0  0  0  0
 38 31  1  0  0  0  0
 41 32  1  0  0  0  0
 43 33  1  0  0  0  0
 43 45  1  0  0  0  0
 44 43  1  0  0  0  0
 46 43  1  0  0  0  0
M  END
>  <minimizedAffinity>
-5.84285736

$$$$

 OpenBabel03252500383D

 46 49  0  0  1  0  0  0  0  0999 V2000
   37.8820   28.4930   43.5150 C   0  0  1  0  0  0  0  0  0  0  0  0
   36.6440   27.8680   43.3590 C   0  0  0  0  0  0  0  0  0  0  0  0
   37.8030   26.9690   43.2090 C   0  0  1  0  0  0  0  0  0  0  0  0
   38.2790   28.7460   44.5390 H   0  0  0  0  0  0  0  0  0  0  0  0
   36.0300   27.9870   42.4190 H   0  0  0  0  0  0  0  0  0  0  0  0
   35.9620   27.7300   44.2290 H   0  0  0  0  0  0  0  0  0  0  0  0
   38.2380   26.3960   44.0400 H   0  0  0  0  0  0  0  0  0  0  0  0
   40.0290   29.2970   42.5260 C   0  0  0  0  0  0  0  0  0  0  0  0
   38.5970   29.3320   42.5060 C   0  0  0  0  0  0  0  0  0  0  0  0
   37.9520   30.1080   41.5960 C   0  0  0  0  0  0  0  0  0  0  0  0
   38.7310   30.8300   40.7290 N   0  0  0  0  0  0  0  0  0  0  0  0
   40.0910   30.7880   40.7580 C   0  0  0  0  0  0  0  0  0  0  0  0
   40.7750   30.0180   41.6600 N   0  0  0  0  0  0  0  0  0  0  0  0
   40.4920   28.6610   43.2740 H   0  0  0  0  0  0  0  0  0  0  0  0
   36.8830   30.1480   41.5650 H   0  0  0  0  0  0  0  0  0  0  0  0
   40.8800   31.0190   38.4020 C   0  0  2  0  0  3  0  0  0  0  0  0
   40.8560   31.6020   39.7820 C   0  0  1  0  0  3  0  0  0  0  0  0
   40.2420   32.8340   39.6780 O   0  0  0  0  0  0  0  0  0  0  0  0
   40.8350   33.3790   38.5410 C   0  0  0  0  0  2  0  0  0  0  0  0
   40.8550   32.2500   37.5380 C   0  0  2  0  0  3  0  0  0  0  0  0
   39.7780   30.2000   38.1470 O   0  0  0  0  0  0  0  0  0  0  0  0
   39.8390   29.9610   37.1750 H   0  0  0  0  0  0  0  0  0  0  0  0
   39.6800   32.2830   36.7980 O   0  0  0  0  0  0  0  0  0  0  0  0
   38.9280   32.2220   37.4460 H   0  0  0  0  0  0  0  0  0  0  0  0
   38.2030   26.4780   41.8670 C   0  0  0  0  0  0  0  0  0  0  0  0
   39.1170   25.8550   41.8520 H   0  0  0  0  0  0  0  0  0  0  0  0
   38.3900   27.3770   41.2200 H   0  0  0  0  0  0  0  0  0  0  0  0
   37.1060   25.7400   41.3460 N   0  0  0  0  0  0  0  0  0  0  0  0
   36.9110   24.4340   41.8120 C   0  0  0  0  0  0  0  0  0  0  0  0
   37.6610   23.4080   40.9410 C   0  0  0  0  0  0  0  0  0  0  0  0
   36.9800   23.4070   39.6020 C   0  0  0  0  0  0  0  0  0  0  0  0
   37.1290   24.8090   39.0500 C   0  0  0  0  0  0  0  0  0  0  0  0
   36.7440   25.9040   40.0040 C   0  0  2  0  0  0  0  0  0  0  0  0
   35.8270   24.1920   41.5790 H   0  0  0  0  0  0  0  0  0  0  0  0
   36.9790   24.2240   42.8760 H   0  0  0  0  0  0  0  0  0  0  0  0
   37.6970   22.4200   41.4000 H   0  0  0  0  0  0  0  0  0  0  0  0
   38.6860   23.8270   40.7600 H   0  0  0  0  0  0  0  0  0  0  0  0
   35.9360   23.0790   39.6480 H   0  0  0  0  0  0  0  0  0  0  0  0
   37.5460   22.7530   38.8950 H   0  0  0  0  0  0  0  0  0  0  0  0
   38.1780   24.9650   38.7290 H   0  0  0  0  0  0  0  0  0  0  0  0
   36.5160   24.9250   38.1270 H   0  0  0  0  0  0  0  0  0  0  0  0
   35.6320   25.9900   39.9380 H   0  0  0  0  0  0  0  0  0  0  0  0
   37.2860   27.2020   39.4220 C   0  0  0  0  0  0  0  0  0  0  0  0
   36.7400   27.4630   38.4780 H   0  0  0  0  0  0  0  0  0  0  0  0
   38.3690   27.1810   39.3000 H   0  0  0  0  0  0  0  0  0  0  0  0
   36.9440   27.9930   40.1460 H   0  0  0  0  0  0  0  0  0  0  0  0
  1  4  1  1  0  0  0
  2  1  1  0  0  0  0
  2  6  1  0  0  0  0
  3  2  1  0  0  0  0
  3  1  1  0  0  0  0
  3  7  1  1  0  0  0
  5  2  1  0  0  0  0
  8 14  1  0  0  0  0
  9  8  1  0  0  0  0
  9  1  1  0  0  0  0
 10  9  2  0  0  0  0
 11 12  2  0  0  0  0
 11 10  1  0  0  0  0
 12 13  1  0  0  0  0
 13  8  2  0  0  0  0
 15 10  1  0  0  0  0
 16 21  1  6  0  0  0
 16 17  1  0  0  0  0
 17 12  1  1  0  0  0
 18 17  1  0  0  0  0
 19 18  1  0  0  0  0
 20 23  1  1  0  0  0
 20 16  1  0  0  0  0
 20 19  1  0  0  0  0
 22 21  1  0  0  0  0
 23 24  1  0  0  0  0
 25  3  1  0  0  0  0
 26 25  1  0  0  0  0
 27 25  1  0  0  0  0
 28 29  1  0  0  0  0
 28 25  1  0  0  0  0
 29 35  1  0  0  0  0
 30 36  1  0  0  0  0
 30 29  1  0  0  0  0
 31 38  1  0  0  0  0
 31 30  1  0  0  0  0
 32 31  1  0  0  0  0
 32 33  1  0  0  0  0
 33 42  1  6  0  0  0
 33 28  1  0  0  0  0
 34 29  1  0  0  0  0
 37 30  1  0  0  0  0
 39 31  1  0  0  0  0
 40 32  1  0  0  0  0
 41 32  1  0  0  0  0
 43 33  1  0  0  0  0
 43 46  1  0  0  0  0
 44 43  1  0  0  0  0
 45 43  1  0  0  0  0
M  END
>  <minimizedAffinity>
-5.78832579

$$$$

 OpenBabel03252500383D

 46 49  0  0  1  0  0  0  0  0999 V2000
   36.1000   29.6490   37.8600 C   0  0  1  0  0  0  0  0  0  0  0  0
   36.2700   28.3970   37.2670 C   0  0  0  0  0  0  0  0  0  0  0  0
   36.0270   28.3540   38.7200 C   0  0  1  0  0  0  0  0  0  0  0  0
   35.1240   30.2070   37.7690 H   0  0  0  0  0  0  0  0  0  0  0  0
   37.2870   28.0170   36.9580 H   0  0  0  0  0  0  0  0  0  0  0  0
   35.4980   27.9850   36.5770 H   0  0  0  0  0  0  0  0  0  0  0  0
   35.0280   28.2540   39.1660 H   0  0  0  0  0  0  0  0  0  0  0  0
   38.4960   30.3410   37.7530 C   0  0  0  0  0  0  0  0  0  0  0  0
   37.1730   30.6230   38.2240 C   0  0  0  0  0  0  0  0  0  0  0  0
   36.9420   31.7370   38.9670 C   0  0  0  0  0  0  0  0  0  0  0  0
   38.0190   32.5450   39.2300 N   0  0  0  0  0  0  0  0  0  0  0  0
   39.2710   32.2660   38.7770 C   0  0  0  0  0  0  0  0  0  0  0  0
   39.5410   31.1540   38.0260 N   0  0  0  0  0  0  0  0  0  0  0  0
   38.6240   29.4380   37.1650 H   0  0  0  0  0  0  0  0  0  0  0  0
   35.9600   31.9660   39.3280 H   0  0  0  0  0  0  0  0  0  0  0  0
   40.3680   33.6590   40.5330 C   0  0  2  0  0  3  0  0  0  0  0  0
   40.3780   33.1960   39.1080 C   0  0  1  0  0  3  0  0  0  0  0  0
   41.5700   32.5250   38.9220 O   0  0  0  0  0  0  0  0  0  0  0  0
   42.4950   33.3610   39.5450 C   0  0  0  0  0  2  0  0  0  0  0  0
   41.8360   33.7640   40.8420 C   0  0  2  0  0  3  0  0  0  0  0  0
   39.7350   32.7520   41.3860 O   0  0  0  0  0  0  0  0  0  0  0  0
   39.8850   33.1050   42.3120 H   0  0  0  0  0  0  0  0  0  0  0  0
   42.1760   32.8460   41.8270 O   0  0  0  0  0  0  0  0  0  0  0  0
   41.8910   31.9510   41.5010 H   0  0  0  0  0  0  0  0  0  0  0  0
   37.1360   28.0440   39.6560 C   0  0  0  0  0  0  0  0  0  0  0  0
   38.0150   28.7100   39.5730 H   0  0  0  0  0  0  0  0  0  0  0  0
   37.4780   26.9960   39.4410 H   0  0  0  0  0  0  0  0  0  0  0  0
   36.6040   28.1080   40.9720 N   0  0  0  0  0  0  0  0  0  0  0  0
   36.5390   29.3590   41.5970 C   0  0  0  0  0  0  0  0  0  0  0  0
   37.8220   29.6570   42.3960 C   0  0  0  0  0  0  0  0  0  0  0  0
   37.8390   28.6930   43.5480 C   0  0  0  0  0  0  0  0  0  0  0  0
   37.8800   27.3070   42.9400 C   0  0  0  0  0  0  0  0  0  0  0  0
   36.8580   27.0620   41.8670 C   0  0  2  0  0  0  0  0  0  0  0  0
   35.7690   29.2440   42.4220 H   0  0  0  0  0  0  0  0  0  0  0  0
   36.1680   30.2200   41.0450 H   0  0  0  0  0  0  0  0  0  0  0  0
   37.8830   30.6980   42.7130 H   0  0  0  0  0  0  0  0  0  0  0  0
   38.6850   29.3630   41.7410 H   0  0  0  0  0  0  0  0  0  0  0  0
   36.9990   28.8280   44.2380 H   0  0  0  0  0  0  0  0  0  0  0  0
   38.8010   28.7950   44.1060 H   0  0  0  0  0  0  0  0  0  0  0  0
   38.8900   27.1220   42.5220 H   0  0  0  0  0  0  0  0  0  0  0  0
   37.7410   26.5360   43.7320 H   0  0  0  0  0  0  0  0  0  0  0  0
   35.9100   26.8060   42.4010 H   0  0  0  0  0  0  0  0  0  0  0  0
   37.2750   25.7860   41.1480 C   0  0  0  0  0  0  0  0  0  0  0  0
   37.1670   24.9020   41.8300 H   0  0  0  0  0  0  0  0  0  0  0  0
   38.2670   25.8670   40.7020 H   0  0  0  0  0  0  0  0  0  0  0  0
   36.4650   25.6230   40.3830 H   0  0  0  0  0  0  0  0  0  0  0  0
  1  4  1  6  0  0  0
  1  9  1  0  0  0  0
  1  3  1  0  0  0  0
  2  1  1  0  0  0  0
  2  3  1  0  0  0  0
  3  7  1  1  0  0  0
  3 25  1  0  0  0  0
  5  2  1  0  0  0  0
  6  2  1  0  0  0  0
  8 13  2  0  0  0  0
  8  9  1  0  0  0  0
  9 10  2  0  0  0  0
 10 11  1  0  0  0  0
 10 15  1  0  0  0  0
 12 11  2  0  0  0  0
 13 12  1  0  0  0  0
 14  8  1  0  0  0  0
 16 20  1  0  0  0  0
 16 21  1  1  0  0  0
 17 12  1  1  0  0  0
 17 16  1  0  0  0  0
 18 17  1  0  0  0  0
 18 19  1  0  0  0  0
 19 20  1  0  0  0  0
 20 23  1  1  0  0  0
 21 22  1  0  0  0  0
 24 23  1  0  0  0  0
 25 28  1  0  0  0  0
 26 25  1  0  0  0  0
 27 25  1  0  0  0  0
 28 29  1  0  0  0  0
 28 33  1  0  0  0  0
 29 30  1  0  0  0  0
 29 34  1  0  0  0  0
 30 36  1  0  0  0  0
 30 31  1  0  0  0  0
 31 39  1  0  0  0  0
 31 38  1  0  0  0  0
 32 31  1  0  0  0  0
 32 41  1  0  0  0  0
 33 42  1  1  0  0  0
 33 32  1  0  0  0  0
 35 29  1  0  0  0  0
 37 30  1  0  0  0  0
 40 32  1  0  0  0  0
 43 44  1  0  0  0  0
 43 33  1  0  0  0  0
 45 43  1  0  0  0  0
 46 43  1  0  0  0  0
M  END
>  <minimizedAffinity>
-5.69208574

$$$$

 OpenBabel03252500383D

 46 49  0  0  1  0  0  0  0  0999 V2000
   33.9800   27.6630   35.7730 C   0  0  1  0  0  0  0  0  0  0  0  0
   32.8020   26.9560   36.0200 C   0  0  0  0  0  0  0  0  0  0  0  0
   32.5970   28.3690   35.6520 C   0  0  1  0  0  0  0  0  0  0  0  0
   34.5330   27.5460   34.7980 H   0  0  0  0  0  0  0  0  0  0  0  0
   32.4680   26.7000   37.0680 H   0  0  0  0  0  0  0  0  0  0  0  0
   32.4590   26.1600   35.3200 H   0  0  0  0  0  0  0  0  0  0  0  0
   32.4380   28.7110   34.6200 H   0  0  0  0  0  0  0  0  0  0  0  0
   34.9980   27.5450   38.0490 C   0  0  0  0  0  0  0  0  0  0  0  0
   34.9200   28.2230   36.7890 C   0  0  0  0  0  0  0  0  0  0  0  0
   35.6810   29.3260   36.5670 C   0  0  0  0  0  0  0  0  0  0  0  0
   36.5010   29.7350   37.5890 N   0  0  0  0  0  0  0  0  0  0  0  0
   36.5670   29.0810   38.7800 C   0  0  0  0  0  0  0  0  0  0  0  0
   35.8140   27.9670   39.0400 N   0  0  0  0  0  0  0  0  0  0  0  0
   34.3680   26.6700   38.1730 H   0  0  0  0  0  0  0  0  0  0  0  0
   35.6370   29.8470   35.6330 H   0  0  0  0  0  0  0  0  0  0  0  0
   36.7900   30.3960   40.8890 C   0  0  2  0  0  3  0  0  0  0  0  0
   37.4810   29.5920   39.8300 C   0  0  1  0  0  3  0  0  0  0  0  0
   38.0480   28.5070   40.4680 O   0  0  0  0  0  0  0  0  0  0  0  0
   38.6220   29.0810   41.6020 C   0  0  0  0  0  2  0  0  0  0  0  0
   37.5730   30.0360   42.1210 C   0  0  2  0  0  3  0  0  0  0  0  0
   35.4430   30.0540   41.0270 O   0  0  0  0  0  0  0  0  0  0  0  0
   35.1160   30.5660   41.8250 H   0  0  0  0  0  0  0  0  0  0  0  0
   36.7550   29.3630   43.0190 O   0  0  0  0  0  0  0  0  0  0  0  0
   36.3730   28.5820   42.5340 H   0  0  0  0  0  0  0  0  0  0  0  0
   32.2000   29.3620   36.6810 C   0  0  0  0  0  0  0  0  0  0  0  0
   32.9030   30.2050   36.8110 H   0  0  0  0  0  0  0  0  0  0  0  0
   32.1270   28.8200   37.6630 H   0  0  0  0  0  0  0  0  0  0  0  0
   30.9180   29.8540   36.3160 N   0  0  0  0  0  0  0  0  0  0  0  0
   30.7710   30.4330   35.0500 C   0  0  0  0  0  0  0  0  0  0  0  0
   31.0390   31.9500   35.0890 C   0  0  0  0  0  0  0  0  0  0  0  0
   29.9200   32.5600   35.8840 C   0  0  0  0  0  0  0  0  0  0  0  0
   30.0020   31.9510   37.2680 C   0  0  0  0  0  0  0  0  0  0  0  0
   30.1090   30.4530   37.2890 C   0  0  2  0  0  0  0  0  0  0  0  0
   29.6580   30.3970   34.8300 H   0  0  0  0  0  0  0  0  0  0  0  0
   31.2010   29.9440   34.1780 H   0  0  0  0  0  0  0  0  0  0  0  0
   31.1370   32.3810   34.0940 H   0  0  0  0  0  0  0  0  0  0  0  0
   31.9650   32.0970   35.7070 H   0  0  0  0  0  0  0  0  0  0  0  0
   28.9370   32.4250   35.4200 H   0  0  0  0  0  0  0  0  0  0  0  0
   30.1170   33.6490   36.0330 H   0  0  0  0  0  0  0  0  0  0  0  0
   30.8720   32.3800   37.8040 H   0  0  0  0  0  0  0  0  0  0  0  0
   29.1100   32.2410   37.8690 H   0  0  0  0  0  0  0  0  0  0  0  0
   29.0660   30.0700   37.1770 H   0  0  0  0  0  0  0  0  0  0  0  0
   30.5330   30.0640   38.6990 C   0  0  0  0  0  0  0  0  0  0  0  0
   29.7100   30.2850   39.4280 H   0  0  0  0  0  0  0  0  0  0  0  0
   31.4880   30.5070   38.9820 H   0  0  0  0  0  0  0  0  0  0  0  0
   30.5640   28.9390   38.6770 H   0  0  0  0  0  0  0  0  0  0  0  0
  1  4  1  6  0  0  0
  1  2  1  0  0  0  0
  1  9  1  0  0  0  0
  2  5  1  0  0  0  0
  3  7  1  6  0  0  0
  3  1  1  0  0  0  0
  3  2  1  0  0  0  0
  3 25  1  0  0  0  0
  6  2  1  0  0  0  0
  8 14  1  0  0  0  0
  8 13  1  0  0  0  0
  9  8  2  0  0  0  0
 10  9  1  0  0  0  0
 10 11  2  0  0  0  0
 11 12  1  0  0  0  0
 12 13  2  0  0  0  0
 15 10  1  0  0  0  0
 16 21  1  1  0  0  0
 16 20  1  0  0  0  0
 17 12  1  6  0  0  0
 17 18  1  0  0  0  0
 17 16  1  0  0  0  0
 18 19  1  0  0  0  0
 19 20  1  0  0  0  0
 20 23  1  1  0  0  0
 21 22  1  0  0  0  0
 24 23  1  0  0  0  0
 25 26  1  0  0  0  0
 25 27  1  0  0  0  0
 28 25  1  0  0  0  0
 28 33  1  0  0  0  0
 29 30  1  0  0  0  0
 29 28  1  0  0  0  0
 30 37  1  0  0  0  0
 30 31  1  0  0  0  0
 31 39  1  0  0  0  0
 31 32  1  0  0  0  0
 32 33  1  0  0  0  0
 32 40  1  0  0  0  0
 32 41  1  0  0  0  0
 33 42  1  6  0  0  0
 33 43  1  0  0  0  0
 34 29  1  0  0  0  0
 35 29  1  0  0  0  0
 36 30  1  0  0  0  0
 38 31  1  0  0  0  0
 43 45  1  0  0  0  0
 43 44  1  0  0  0  0
 46 43  1  0  0  0  0
M  END
>  <minimizedAffinity>
-5.62407732

$$$$

 OpenBabel03252500383D

 46 49  0  0  1  0  0  0  0  0999 V2000
   37.9230   28.1570   43.4370 C   0  0  1  0  0  0  0  0  0  0  0  0
   36.6070   27.7480   43.2180 C   0  0  0  0  0  0  0  0  0  0  0  0
   37.6240   26.7440   42.8580 C   0  0  1  0  0  0  0  0  0  0  0  0
   38.3660   28.1550   44.4730 H   0  0  0  0  0  0  0  0  0  0  0  0
   36.0030   28.1260   42.3420 H   0  0  0  0  0  0  0  0  0  0  0  0
   35.9240   27.5440   44.0740 H   0  0  0  0  0  0  0  0  0  0  0  0
   37.9840   25.9700   43.5490 H   0  0  0  0  0  0  0  0  0  0  0  0
   38.0230   30.0170   41.7740 C   0  0  0  0  0  0  0  0  0  0  0  0
   38.7360   29.0660   42.5730 C   0  0  0  0  0  0  0  0  0  0  0  0
   40.0930   29.0200   42.5200 C   0  0  0  0  0  0  0  0  0  0  0  0
   40.7150   29.9100   41.6820 N   0  0  0  0  0  0  0  0  0  0  0  0
   40.0250   30.8090   40.9280 C   0  0  0  0  0  0  0  0  0  0  0  0
   38.6590   30.8840   40.9550 N   0  0  0  0  0  0  0  0  0  0  0  0
   36.9400   30.0090   41.8540 H   0  0  0  0  0  0  0  0  0  0  0  0
   40.6450   28.3160   43.1090 H   0  0  0  0  0  0  0  0  0  0  0  0
   41.0380   31.1870   38.6790 C   0  0  2  0  0  3  0  0  0  0  0  0
   40.7780   31.7360   40.0490 C   0  0  1  0  0  3  0  0  0  0  0  0
   40.0190   32.8760   39.8770 O   0  0  0  0  0  0  0  0  0  0  0  0
   40.6580   33.5170   38.8180 C   0  0  0  0  0  2  0  0  0  0  0  0
   40.9440   32.4190   37.8210 C   0  0  2  0  0  3  0  0  0  0  0  0
   40.0930   30.2320   38.2970 O   0  0  0  0  0  0  0  0  0  0  0  0
   40.2960   30.0210   37.3380 H   0  0  0  0  0  0  0  0  0  0  0  0
   39.8680   32.3070   36.9510 O   0  0  0  0  0  0  0  0  0  0  0  0
   39.0620   32.1340   37.5080 H   0  0  0  0  0  0  0  0  0  0  0  0
   37.9310   26.4660   41.4330 C   0  0  0  0  0  0  0  0  0  0  0  0
   38.3230   27.3300   40.8640 H   0  0  0  0  0  0  0  0  0  0  0  0
   36.9790   26.1330   40.9390 H   0  0  0  0  0  0  0  0  0  0  0  0
   38.8750   25.4030   41.4070 N   0  0  0  0  0  0  0  0  0  0  0  0
   39.0640   24.6610   42.5790 C   0  0  0  0  0  0  0  0  0  0  0  0
   40.1800   25.2650   43.4530 C   0  0  0  0  0  0  0  0  0  0  0  0
   41.4650   25.0650   42.7020 C   0  0  0  0  0  0  0  0  0  0  0  0
   41.3170   25.8230   41.4000 C   0  0  0  0  0  0  0  0  0  0  0  0
   40.0450   25.5430   40.6520 C   0  0  2  0  0  0  0  0  0  0  0  0
   39.5320   23.6840   42.2430 H   0  0  0  0  0  0  0  0  0  0  0  0
   38.2020   24.3280   43.1530 H   0  0  0  0  0  0  0  0  0  0  0  0
   40.2010   24.8360   44.4550 H   0  0  0  0  0  0  0  0  0  0  0  0
   40.0090   26.3740   43.4730 H   0  0  0  0  0  0  0  0  0  0  0  0
   41.7180   24.0100   42.5520 H   0  0  0  0  0  0  0  0  0  0  0  0
   42.2980   25.5750   43.2440 H   0  0  0  0  0  0  0  0  0  0  0  0
   41.3830   26.9100   41.6020 H   0  0  0  0  0  0  0  0  0  0  0  0
   42.1730   25.5940   40.7240 H   0  0  0  0  0  0  0  0  0  0  0  0
   40.2250   24.5960   40.0870 H   0  0  0  0  0  0  0  0  0  0  0  0
   39.9130   26.6280   39.5920 C   0  0  0  0  0  0  0  0  0  0  0  0
   40.7140   26.5120   38.8150 H   0  0  0  0  0  0  0  0  0  0  0  0
   39.8750   27.6280   40.0240 H   0  0  0  0  0  0  0  0  0  0  0  0
   38.9720   26.3580   39.0360 H   0  0  0  0  0  0  0  0  0  0  0  0
  1  4  1  1  0  0  0
  2  1  1  0  0  0  0
  2  6  1  0  0  0  0
  3  2  1  0  0  0  0
  3  1  1  0  0  0  0
  3  7  1  1  0  0  0
  5  2  1  0  0  0  0
  8 14  1  0  0  0  0
  8  9  1  0  0  0  0
  9  1  1  0  0  0  0
 10  9  2  0  0  0  0
 10 15  1  0  0  0  0
 11 10  1  0  0  0  0
 12 13  1  0  0  0  0
 12 11  2  0  0  0  0
 13  8  2  0  0  0  0
 16 21  1  6  0  0  0
 16 17  1  0  0  0  0
 17 12  1  1  0  0  0
 18 17  1  0  0  0  0
 19 18  1  0  0  0  0
 20 23  1  6  0  0  0
 20 16  1  0  0  0  0
 20 19  1  0  0  0  0
 22 21  1  0  0  0  0
 23 24  1  0  0  0  0
 25  3  1  0  0  0  0
 26 25  1  0  0  0  0
 27 25  1  0  0  0  0
 28 25  1  0  0  0  0
 28 29  1  0  0  0  0
 29 35  1  0  0  0  0
 29 30  1  0  0  0  0
 30 37  1  0  0  0  0
 30 36  1  0  0  0  0
 31 39  1  0  0  0  0
 31 30  1  0  0  0  0
 32 40  1  0  0  0  0
 32 31  1  0  0  0  0
 33 42  1  6  0  0  0
 33 32  1  0  0  0  0
 33 28  1  0  0  0  0
 34 29  1  0  0  0  0
 38 31  1  0  0  0  0
 41 32  1  0  0  0  0
 43 45  1  0  0  0  0
 43 33  1  0  0  0  0
 44 43  1  0  0  0  0
 46 43  1  0  0  0  0
M  END
>  <minimizedAffinity>
-5.62363338

$$$$

 OpenBabel03252500383D

 46 49  0  0  1  0  0  0  0  0999 V2000
   38.7680   29.4410   42.9290 C   0  0  1  0  0  0  0  0  0  0  0  0
   39.8010   30.2770   42.5010 C   0  0  0  0  0  0  0  0  0  0  0  0
   38.5120   30.5070   41.8230 C   0  0  1  0  0  0  0  0  0  0  0  0
   38.2290   29.6360   43.9000 H   0  0  0  0  0  0  0  0  0  0  0  0
   40.6210   29.9100   41.8190 H   0  0  0  0  0  0  0  0  0  0  0  0
   40.2070   31.0690   43.1720 H   0  0  0  0  0  0  0  0  0  0  0  0
   37.7660   31.2350   42.1670 H   0  0  0  0  0  0  0  0  0  0  0  0
   37.2690   27.4470   42.8490 C   0  0  0  0  0  0  0  0  0  0  0  0
   38.5460   28.0170   42.5380 C   0  0  0  0  0  0  0  0  0  0  0  0
   39.4890   27.2640   41.9150 C   0  0  0  0  0  0  0  0  0  0  0  0
   39.1540   25.9680   41.6140 N   0  0  0  0  0  0  0  0  0  0  0  0
   37.9370   25.4380   41.9150 C   0  0  0  0  0  0  0  0  0  0  0  0
   36.9620   26.1670   42.5420 N   0  0  0  0  0  0  0  0  0  0  0  0
   36.5530   28.0930   43.3470 H   0  0  0  0  0  0  0  0  0  0  0  0
   40.4490   27.6710   41.6740 H   0  0  0  0  0  0  0  0  0  0  0  0
   36.4970   23.8640   40.6210 C   0  0  2  0  0  3  0  0  0  0  0  0
   37.6590   24.0270   41.5530 C   0  0  1  0  0  3  0  0  0  0  0  0
   38.7640   23.5290   40.8930 O   0  0  0  0  0  0  0  0  0  0  0  0
   38.2850   22.3420   40.3410 C   0  0  0  0  0  2  0  0  0  0  0  0
   36.9330   22.7020   39.7710 C   0  0  2  0  0  3  0  0  0  0  0  0
   36.2700   25.0010   39.8430 O   0  0  0  0  0  0  0  0  0  0  0  0
   35.5550   24.7420   39.1900 H   0  0  0  0  0  0  0  0  0  0  0  0
   37.0930   23.1140   38.4550 O   0  0  0  0  0  0  0  0  0  0  0  0
   37.7320   23.8760   38.4650 H   0  0  0  0  0  0  0  0  0  0  0  0
   38.3130   30.0600   40.4210 C   0  0  0  0  0  0  0  0  0  0  0  0
   38.3480   28.9650   40.2720 H   0  0  0  0  0  0  0  0  0  0  0  0
   39.1300   30.5170   39.8010 H   0  0  0  0  0  0  0  0  0  0  0  0
   37.0560   30.5660   39.9950 N   0  0  0  0  0  0  0  0  0  0  0  0
   35.9450   30.3520   40.8200 C   0  0  0  0  0  0  0  0  0  0  0  0
   35.2260   29.0360   40.4670 C   0  0  0  0  0  0  0  0  0  0  0  0
   34.6180   29.2340   39.1070 C   0  0  0  0  0  0  0  0  0  0  0  0
   35.7700   29.5010   38.1630 C   0  0  0  0  0  0  0  0  0  0  0  0
   36.7360   30.5510   38.6310 C   0  0  2  0  0  0  0  0  0  0  0  0
   35.1810   31.1290   40.5030 H   0  0  0  0  0  0  0  0  0  0  0  0
   36.0270   30.5220   41.8910 H   0  0  0  0  0  0  0  0  0  0  0  0
   34.4950   28.7460   41.2210 H   0  0  0  0  0  0  0  0  0  0  0  0
   36.0250   28.2590   40.3320 H   0  0  0  0  0  0  0  0  0  0  0  0
   33.8600   30.0230   39.0840 H   0  0  0  0  0  0  0  0  0  0  0  0
   34.1690   28.2740   38.7560 H   0  0  0  0  0  0  0  0  0  0  0  0
   36.3240   28.5570   37.9870 H   0  0  0  0  0  0  0  0  0  0  0  0
   35.3850   29.8080   37.1640 H   0  0  0  0  0  0  0  0  0  0  0  0
   36.2770   31.5320   38.3580 H   0  0  0  0  0  0  0  0  0  0  0  0
   37.9770   30.4270   37.7580 C   0  0  0  0  0  0  0  0  0  0  0  0
   37.7420   30.7290   36.7030 H   0  0  0  0  0  0  0  0  0  0  0  0
   38.4380   29.4420   37.8300 H   0  0  0  0  0  0  0  0  0  0  0  0
   38.6520   31.2520   38.1180 H   0  0  0  0  0  0  0  0  0  0  0  0
  1  4  1  1  0  0  0
  2  1  1  0  0  0  0
  2  6  1  0  0  0  0
  3  7  1  1  0  0  0
  3  2  1  0  0  0  0
  3  1  1  0  0  0  0
  5  2  1  0  0  0  0
  8 14  1  0  0  0  0
  9  8  2  0  0  0  0
  9  1  1  0  0  0  0
 10  9  1  0  0  0  0
 11 12  1  0  0  0  0
 11 10  2  0  0  0  0
 12 13  2  0  0  0  0
 13  8  1  0  0  0  0
 15 10  1  0  0  0  0
 16 21  1  6  0  0  0
 16 17  1  0  0  0  0
 17 12  1  6  0  0  0
 18 17  1  0  0  0  0
 19 18  1  0  0  0  0
 20 23  1  6  0  0  0
 20 19  1  0  0  0  0
 20 16  1  0  0  0  0
 22 21  1  0  0  0  0
 23 24  1  0  0  0  0
 25  3  1  0  0  0  0
 26 25  1  0  0  0  0
 27 25  1  0  0  0  0
 28 25  1  0  0  0  0
 28 29  1  0  0  0  0
 29 35  1  0  0  0  0
 30 29  1  0  0  0  0
 30 36  1  0  0  0  0
 31 30  1  0  0  0  0
 32 33  1  0  0  0  0
 32 31  1  0  0  0  0
 33 42  1  6  0  0  0
 33 28  1  0  0  0  0
 34 29  1  0  0  0  0
 37 30  1  0  0  0  0
 38 31  1  0  0  0  0
 39 31  1  0  0  0  0
 40 32  1  0  0  0  0
 41 32  1  0  0  0  0
 43 45  1  0  0  0  0
 43 46  1  0  0  0  0
 43 33  1  0  0  0  0
 44 43  1  0  0  0  0
M  END
>  <minimizedAffinity>
-5.58145905

$$$$
