
 OpenBabel03252506033D

 28 30  0  0  1  0  0  0  0  0999 V2000
   36.2660   27.7460   43.2870 Cl  0  0  0  0  0  0  0  0  0  0  0  0
   37.1250   28.4390   41.9450 C   0  0  0  0  0  0  0  0  0  0  0  0
   38.2660   27.8540   41.4910 C   0  0  0  0  0  0  0  0  0  0  0  0
   38.8840   28.4710   40.4200 C   0  0  0  0  0  0  0  0  0  0  0  0
   38.4260   29.6170   39.7980 C   0  0  0  0  0  0  0  0  0  0  0  0
   37.2720   30.1750   40.2850 C   0  0  0  0  0  0  0  0  0  0  0  0
   36.7280   31.6260   39.4680 Cl  0  0  0  0  0  0  0  0  0  0  0  0
   36.6270   29.5950   41.3470 C   0  0  0  0  0  0  0  0  0  0  0  0
   39.8030   28.0110   40.0460 H   0  0  0  0  0  0  0  0  0  0  0  0
   35.7220   30.0890   41.6820 H   0  0  0  0  0  0  0  0  0  0  0  0
   40.2210   25.6600   43.6670 C   0  0  0  0  0  0  0  0  0  0  0  0
   39.8810   24.3820   43.2320 C   0  0  0  0  0  0  0  0  0  0  0  0
   38.9650   24.2670   42.1720 C   0  0  0  0  0  0  0  0  0  0  0  0
   38.4700   25.4140   41.6420 N   0  0  0  0  0  0  0  0  0  0  0  0
   38.8200   26.6450   42.0880 C   0  0  0  0  0  0  0  0  0  0  0  0
   39.6970   26.7670   43.1010 N   0  0  0  0  0  0  0  0  0  0  0  0
   40.9370   25.7010   44.4930 H   0  0  0  0  0  0  0  0  0  0  0  0
   40.2370   23.4550   43.6100 H   0  0  0  0  0  0  0  0  0  0  0  0
   38.5870   23.3750   41.7070 H   0  0  0  0  0  0  0  0  0  0  0  0
   39.8090   31.5190   38.9680 C   0  0  2  0  0  3  0  0  0  0  0  0
   39.1780   30.1730   38.6680 C   0  0  1  0  0  3  0  0  0  0  0  0
   40.2930   29.4310   38.3220 O   0  0  0  0  0  0  0  0  0  0  0  0
   40.9020   30.2090   37.3450 C   0  0  0  0  0  2  0  0  0  0  0  0
   40.7540   31.6490   37.7930 C   0  0  1  0  0  3  0  0  0  0  0  0
   40.6080   31.4640   40.1110 O   0  0  0  0  0  0  0  0  0  0  0  0
   40.1230   31.1300   40.9140 H   0  0  0  0  0  0  0  0  0  0  0  0
   40.0430   32.3920   36.8220 O   0  0  0  0  0  0  0  0  0  0  0  0
   39.3730   31.8130   36.3720 H   0  0  0  0  0  0  0  0  0  0  0  0
  2  1  1  0  0  0  0
  3  2  1  0  0  0  0
  3 15  1  0  0  0  0
  4  3  2  0  0  0  0
  5  6  2  0  0  0  0
  5  4  1  0  0  0  0
  6  8  1  0  0  0  0
  7  6  1  0  0  0  0
  8 10  1  0  0  0  0
  8  2  2  0  0  0  0
  9  4  1  0  0  0  0
 11 17  1  0  0  0  0
 12 18  1  0  0  0  0
 12 11  1  0  0  0  0
 13 12  2  0  0  0  0
 14 15  2  0  0  0  0
 14 13  1  0  0  0  0
 15 16  1  0  0  0  0
 16 11  2  0  0  0  0
 19 13  1  0  0  0  0
 20 25  1  1  0  0  0
 21 20  1  0  0  0  0
 21  5  1  1  0  0  0
 22 21  1  0  0  0  0
 23 24  1  0  0  0  0
 23 22  1  0  0  0  0
 24 27  1  6  0  0  0
 24 20  1  0  0  0  0
 25 26  1  0  0  0  0
 28 27  1  0  0  0  0
M  END
>  <minimizedAffinity>
-5.46245193

$$$$

 OpenBabel03252506033D

 28 30  0  0  1  0  0  0  0  0999 V2000
   37.6930   32.0780   36.4130 Cl  0  0  0  0  0  0  0  0  0  0  0  0
   37.5080   31.3180   37.9650 C   0  0  0  0  0  0  0  0  0  0  0  0
   38.4640   31.4760   38.9190 C   0  0  0  0  0  0  0  0  0  0  0  0
   38.2360   30.8370   40.1230 C   0  0  0  0  0  0  0  0  0  0  0  0
   37.1250   30.0670   40.4100 C   0  0  0  0  0  0  0  0  0  0  0  0
   36.1840   29.9330   39.4210 C   0  0  0  0  0  0  0  0  0  0  0  0
   34.7920   28.9500   39.8270 Cl  0  0  0  0  0  0  0  0  0  0  0  0
   36.3710   30.5510   38.2110 C   0  0  0  0  0  0  0  0  0  0  0  0
   38.9980   30.9560   40.8990 H   0  0  0  0  0  0  0  0  0  0  0  0
   35.5890   30.4020   37.4750 H   0  0  0  0  0  0  0  0  0  0  0  0
   41.6640   32.5930   37.5460 C   0  0  0  0  0  0  0  0  0  0  0  0
   41.9440   33.7480   38.2710 C   0  0  0  0  0  0  0  0  0  0  0  0
   41.0200   34.1530   39.2500 C   0  0  0  0  0  0  0  0  0  0  0  0
   39.9130   33.3890   39.4240 N   0  0  0  0  0  0  0  0  0  0  0  0
   39.6670   32.2700   38.7020 C   0  0  0  0  0  0  0  0  0  0  0  0
   40.5440   31.8710   37.7620 N   0  0  0  0  0  0  0  0  0  0  0  0
   42.4100   32.3150   36.7960 H   0  0  0  0  0  0  0  0  0  0  0  0
   42.7920   34.3800   38.1760 H   0  0  0  0  0  0  0  0  0  0  0  0
   41.0660   35.0080   39.9010 H   0  0  0  0  0  0  0  0  0  0  0  0
   37.0290   27.9250   41.6840 C   0  0  2  0  0  3  0  0  0  0  0  0
   37.0030   29.4410   41.7310 C   0  0  1  0  0  3  0  0  0  0  0  0
   38.0740   29.6970   42.5680 O   0  0  0  0  0  0  0  0  0  0  0  0
   37.8030   28.9070   43.6790 C   0  0  0  0  0  2  0  0  0  0  0  0
   37.2310   27.6070   43.1500 C   0  0  1  0  0  3  0  0  0  0  0  0
   38.1620   27.4550   41.0200 O   0  0  0  0  0  0  0  0  0  0  0  0
   38.2600   27.8240   40.1000 H   0  0  0  0  0  0  0  0  0  0  0  0
   35.9320   27.3990   43.6700 O   0  0  0  0  0  0  0  0  0  0  0  0
   35.4720   28.2680   43.8000 H   0  0  0  0  0  0  0  0  0  0  0  0
  1  2  1  0  0  0  0
  2  8  2  0  0  0  0
  2  3  1  0  0  0  0
  3  4  2  0  0  0  0
  4  5  1  0  0  0  0
  4  9  1  0  0  0  0
  6  7  1  0  0  0  0
  6  5  2  0  0  0  0
  8  6  1  0  0  0  0
 10  8  1  0  0  0  0
 11 16  2  0  0  0  0
 11 12  1  0  0  0  0
 12 13  2  0  0  0  0
 13 14  1  0  0  0  0
 13 19  1  0  0  0  0
 15  3  1  0  0  0  0
 15 14  2  0  0  0  0
 16 15  1  0  0  0  0
 17 11  1  0  0  0  0
 18 12  1  0  0  0  0
 20 25  1  6  0  0  0
 20 21  1  0  0  0  0
 20 24  1  0  0  0  0
 21  5  1  6  0  0  0
 21 22  1  0  0  0  0
 22 23  1  0  0  0  0
 24 27  1  1  0  0  0
 24 23  1  0  0  0  0
 26 25  1  0  0  0  0
 27 28  1  0  0  0  0
M  END
>  <minimizedAffinity>
-5.43108511

$$$$

 OpenBabel03252506033D

 28 30  0  0  1  0  0  0  0  0999 V2000
   36.9990   31.7640   40.6270 Cl  0  0  0  0  0  0  0  0  0  0  0  0
   37.7190   30.3450   41.3250 C   0  0  0  0  0  0  0  0  0  0  0  0
   39.0610   30.1470   41.2350 C   0  0  0  0  0  0  0  0  0  0  0  0
   39.5480   28.9920   41.8180 C   0  0  0  0  0  0  0  0  0  0  0  0
   38.7760   28.0510   42.4720 C   0  0  0  0  0  0  0  0  0  0  0  0
   37.4270   28.2890   42.5420 C   0  0  0  0  0  0  0  0  0  0  0  0
   36.4850   27.0710   43.3790 Cl  0  0  0  0  0  0  0  0  0  0  0  0
   36.9010   29.4220   41.9760 C   0  0  0  0  0  0  0  0  0  0  0  0
   40.6270   28.8210   41.7520 H   0  0  0  0  0  0  0  0  0  0  0  0
   35.8280   29.5470   42.0680 H   0  0  0  0  0  0  0  0  0  0  0  0
   41.3710   32.9290   40.6910 C   0  0  0  0  0  0  0  0  0  0  0  0
   41.6350   32.8710   39.3250 C   0  0  0  0  0  0  0  0  0  0  0  0
   41.0090   31.8610   38.5740 C   0  0  0  0  0  0  0  0  0  0  0  0
   40.1880   31.0050   39.2330 N   0  0  0  0  0  0  0  0  0  0  0  0
   39.9510   31.0860   40.5640 C   0  0  0  0  0  0  0  0  0  0  0  0
   40.5430   32.0500   41.2930 N   0  0  0  0  0  0  0  0  0  0  0  0
   41.8780   33.7310   41.2360 H   0  0  0  0  0  0  0  0  0  0  0  0
   42.2660   33.5130   38.7620 H   0  0  0  0  0  0  0  0  0  0  0  0
   41.0910   31.6620   37.5210 H   0  0  0  0  0  0  0  0  0  0  0  0
   39.4100   25.6650   42.1240 C   0  0  2  0  0  3  0  0  0  0  0  0
   39.4180   26.8660   43.0500 C   0  0  1  0  0  3  0  0  0  0  0  0
   40.7750   27.0210   43.2700 O   0  0  0  0  0  0  0  0  0  0  0  0
   41.1760   25.7540   43.6800 C   0  0  0  0  0  2  0  0  0  0  0  0
   40.4030   24.7660   42.8290 C   0  0  1  0  0  3  0  0  0  0  0  0
   39.9720   25.9740   40.8840 O   0  0  0  0  0  0  0  0  0  0  0  0
   39.5360   26.7490   40.4370 H   0  0  0  0  0  0  0  0  0  0  0  0
   39.6220   23.9210   43.6520 O   0  0  0  0  0  0  0  0  0  0  0  0
   39.3160   24.4150   44.4570 H   0  0  0  0  0  0  0  0  0  0  0  0
  1  2  1  0  0  0  0
  2  8  1  0  0  0  0
  3  2  2  0  0  0  0
  3  4  1  0  0  0  0
  4  5  2  0  0  0  0
  5  6  1  0  0  0  0
  6  7  1  0  0  0  0
  8 10  1  0  0  0  0
  8  6  2  0  0  0  0
  9  4  1  0  0  0  0
 11 17  1  0  0  0  0
 11 16  1  0  0  0  0
 12 11  2  0  0  0  0
 13 14  2  0  0  0  0
 13 12  1  0  0  0  0
 14 15  1  0  0  0  0
 15  3  1  0  0  0  0
 15 16  2  0  0  0  0
 18 12  1  0  0  0  0
 19 13  1  0  0  0  0
 20 25  1  6  0  0  0
 20 24  1  0  0  0  0
 20 21  1  0  0  0  0
 21  5  1  6  0  0  0
 21 22  1  0  0  0  0
 22 23  1  0  0  0  0
 24 27  1  1  0  0  0
 24 23  1  0  0  0  0
 26 25  1  0  0  0  0
 27 28  1  0  0  0  0
M  END
>  <minimizedAffinity>
-5.25649786

$$$$

 OpenBabel03252506033D

 28 30  0  0  1  0  0  0  0  0999 V2000
   35.8580   29.3710   37.7430 Cl  0  0  0  0  0  0  0  0  0  0  0  0
   36.6160   28.4330   38.9930 C   0  0  0  0  0  0  0  0  0  0  0  0
   37.5090   29.0180   39.8370 C   0  0  0  0  0  0  0  0  0  0  0  0
   38.0640   28.1980   40.8010 C   0  0  0  0  0  0  0  0  0  0  0  0
   37.7750   26.8560   40.9580 C   0  0  0  0  0  0  0  0  0  0  0  0
   36.8690   26.3050   40.0880 C   0  0  0  0  0  0  0  0  0  0  0  0
   36.5320   24.6010   40.3220 Cl  0  0  0  0  0  0  0  0  0  0  0  0
   36.2950   27.0830   39.1150 C   0  0  0  0  0  0  0  0  0  0  0  0
   38.7840   28.6560   41.4860 H   0  0  0  0  0  0  0  0  0  0  0  0
   35.5890   26.5830   38.4610 H   0  0  0  0  0  0  0  0  0  0  0  0
   39.3150   32.0660   38.9320 C   0  0  0  0  0  0  0  0  0  0  0  0
   38.5810   33.0750   39.5500 C   0  0  0  0  0  0  0  0  0  0  0  0
   37.4450   32.7060   40.2930 C   0  0  0  0  0  0  0  0  0  0  0  0
   37.1390   31.3850   40.3570 N   0  0  0  0  0  0  0  0  0  0  0  0
   37.8720   30.4260   39.7440 C   0  0  0  0  0  0  0  0  0  0  0  0
   38.9620   30.7680   39.0310 N   0  0  0  0  0  0  0  0  0  0  0  0
   40.1890   32.3990   38.3660 H   0  0  0  0  0  0  0  0  0  0  0  0
   38.7760   34.1190   39.5320 H   0  0  0  0  0  0  0  0  0  0  0  0
   36.7640   33.3380   40.8330 H   0  0  0  0  0  0  0  0  0  0  0  0
   39.4540   25.0970   41.5120 C   0  0  2  0  0  3  0  0  0  0  0  0
   38.4350   26.0960   42.0250 C   0  0  1  0  0  3  0  0  0  0  0  0
   39.2210   26.8730   42.8560 O   0  0  0  0  0  0  0  0  0  0  0  0
   39.8350   25.9350   43.6790 C   0  0  0  0  0  2  0  0  0  0  0  0
   40.1710   24.7490   42.7980 C   0  0  1  0  0  3  0  0  0  0  0  0
   40.3990   25.7120   40.6890 O   0  0  0  0  0  0  0  0  0  0  0  0
   39.9940   26.2050   39.9250 H   0  0  0  0  0  0  0  0  0  0  0  0
   39.5290   23.5860   43.2810 O   0  0  0  0  0  0  0  0  0  0  0  0
   38.6560   23.8220   43.6920 H   0  0  0  0  0  0  0  0  0  0  0  0
  1  2  1  0  0  0  0
  2  8  2  0  0  0  0
  2  3  1  0  0  0  0
  3  4  2  0  0  0  0
  4  5  1  0  0  0  0
  4  9  1  0  0  0  0
  6  7  1  0  0  0  0
  6  5  2  0  0  0  0
  8  6  1  0  0  0  0
 10  8  1  0  0  0  0
 11 16  2  0  0  0  0
 11 12  1  0  0  0  0
 12 13  2  0  0  0  0
 13 14  1  0  0  0  0
 13 19  1  0  0  0  0
 15  3  1  0  0  0  0
 15 14  2  0  0  0  0
 16 15  1  0  0  0  0
 17 11  1  0  0  0  0
 18 12  1  0  0  0  0
 20 25  1  6  0  0  0
 20 21  1  0  0  0  0
 20 24  1  0  0  0  0
 21  5  1  6  0  0  0
 21 22  1  0  0  0  0
 22 23  1  0  0  0  0
 24 27  1  1  0  0  0
 24 23  1  0  0  0  0
 26 25  1  0  0  0  0
 27 28  1  0  0  0  0
M  END
>  <minimizedAffinity>
-5.14417267

$$$$

 OpenBabel03252506033D

 28 30  0  0  1  0  0  0  0  0999 V2000
   43.9510   29.1050   43.1590 Cl  0  0  0  0  0  0  0  0  0  0  0  0
   42.2490   29.2240   42.8340 C   0  0  0  0  0  0  0  0  0  0  0  0
   41.7550   30.3050   42.1730 C   0  0  0  0  0  0  0  0  0  0  0  0
   40.3900   30.3160   41.9570 C   0  0  0  0  0  0  0  0  0  0  0  0
   39.5180   29.3230   42.3610 C   0  0  0  0  0  0  0  0  0  0  0  0
   40.0560   28.2500   43.0240 C   0  0  0  0  0  0  0  0  0  0  0  0
   38.9160   27.0150   43.5180 Cl  0  0  0  0  0  0  0  0  0  0  0  0
   41.4060   28.1980   43.2600 C   0  0  0  0  0  0  0  0  0  0  0  0
   39.9800   31.1810   41.4260 H   0  0  0  0  0  0  0  0  0  0  0  0
   41.7630   27.3230   43.7900 H   0  0  0  0  0  0  0  0  0  0  0  0
   43.8710   32.3570   40.0100 C   0  0  0  0  0  0  0  0  0  0  0  0
   44.2000   33.4460   40.8130 C   0  0  0  0  0  0  0  0  0  0  0  0
   43.6880   33.4780   42.1220 C   0  0  0  0  0  0  0  0  0  0  0  0
   42.9040   32.4430   42.5170 N   0  0  0  0  0  0  0  0  0  0  0  0
   42.6010   31.3970   41.7110 C   0  0  0  0  0  0  0  0  0  0  0  0
   43.0860   31.3550   40.4560 N   0  0  0  0  0  0  0  0  0  0  0  0
   44.2910   32.3730   39.0000 H   0  0  0  0  0  0  0  0  0  0  0  0
   44.8060   34.2780   40.5550 H   0  0  0  0  0  0  0  0  0  0  0  0
   43.8320   34.2290   42.8790 H   0  0  0  0  0  0  0  0  0  0  0  0
   37.7860   30.4720   40.9820 C   0  0  2  0  0  3  0  0  0  0  0  0
   38.0870   29.4580   42.0690 C   0  0  1  0  0  3  0  0  0  0  0  0
   37.5200   28.3170   41.5300 O   0  0  0  0  0  0  0  0  0  0  0  0
   36.2270   28.7220   41.2180 C   0  0  0  0  0  2  0  0  0  0  0  0
   36.3410   30.1360   40.6840 C   0  0  1  0  0  3  0  0  0  0  0  0
   38.5020   30.1960   39.8170 O   0  0  0  0  0  0  0  0  0  0  0  0
   39.4850   30.1390   39.9630 H   0  0  0  0  0  0  0  0  0  0  0  0
   35.5790   31.0210   41.4820 O   0  0  0  0  0  0  0  0  0  0  0  0
   35.5790   30.7160   42.4270 H   0  0  0  0  0  0  0  0  0  0  0  0
  2  1  1  0  0  0  0
  2  8  1  0  0  0  0
  3  2  2  0  0  0  0
  4  3  1  0  0  0  0
  4  5  2  0  0  0  0
  5  6  1  0  0  0  0
  6  8  2  0  0  0  0
  6  7  1  0  0  0  0
  8 10  1  0  0  0  0
  9  4  1  0  0  0  0
 11 16  2  0  0  0  0
 11 12  1  0  0  0  0
 12 13  2  0  0  0  0
 13 14  1  0  0  0  0
 13 19  1  0  0  0  0
 15  3  1  0  0  0  0
 15 14  2  0  0  0  0
 16 15  1  0  0  0  0
 17 11  1  0  0  0  0
 18 12  1  0  0  0  0
 20 25  1  6  0  0  0
 20 21  1  0  0  0  0
 21  5  1  6  0  0  0
 22 21  1  0  0  0  0
 23 22  1  0  0  0  0
 24 20  1  0  0  0  0
 24 23  1  0  0  0  0
 24 27  1  1  0  0  0
 25 26  1  0  0  0  0
 27 28  1  0  0  0  0
M  END
>  <minimizedAffinity>
-5.13516617

$$$$

 OpenBabel03252506033D

 28 30  0  0  1  0  0  0  0  0999 V2000
   39.7910   24.0820   43.1350 Cl  0  0  0  0  0  0  0  0  0  0  0  0
   38.8410   25.3990   42.5160 C   0  0  0  0  0  0  0  0  0  0  0  0
   38.2060   25.2780   41.3200 C   0  0  0  0  0  0  0  0  0  0  0  0
   37.4730   26.3740   40.9050 C   0  0  0  0  0  0  0  0  0  0  0  0
   37.3480   27.5550   41.6130 C   0  0  0  0  0  0  0  0  0  0  0  0
   38.0030   27.6360   42.8150 C   0  0  0  0  0  0  0  0  0  0  0  0
   37.8190   29.1490   43.6790 Cl  0  0  0  0  0  0  0  0  0  0  0  0
   38.7430   26.5710   43.2640 C   0  0  0  0  0  0  0  0  0  0  0  0
   36.9570   26.2900   39.9450 H   0  0  0  0  0  0  0  0  0  0  0  0
   39.2350   26.7040   44.2210 H   0  0  0  0  0  0  0  0  0  0  0  0
   39.3490   22.8610   38.8260 C   0  0  0  0  0  0  0  0  0  0  0  0
   38.4530   21.8040   38.9620 C   0  0  0  0  0  0  0  0  0  0  0  0
   37.4350   21.9210   39.9260 C   0  0  0  0  0  0  0  0  0  0  0  0
   37.3950   23.0600   40.6630 N   0  0  0  0  0  0  0  0  0  0  0  0
   38.2830   24.0710   40.5080 C   0  0  0  0  0  0  0  0  0  0  0  0
   39.2600   23.9710   39.5880 N   0  0  0  0  0  0  0  0  0  0  0  0
   40.1230   22.7270   38.0660 H   0  0  0  0  0  0  0  0  0  0  0  0
   38.4380   20.8950   38.4140 H   0  0  0  0  0  0  0  0  0  0  0  0
   36.6610   21.2160   40.1700 H   0  0  0  0  0  0  0  0  0  0  0  0
   37.3600   29.7200   40.3770 C   0  0  2  0  0  3  0  0  0  0  0  0
   36.5380   28.6450   41.0600 C   0  0  1  0  0  3  0  0  0  0  0  0
   35.7070   28.2510   40.0270 O   0  0  0  0  0  0  0  0  0  0  0  0
   35.1580   29.4500   39.5870 C   0  0  0  0  0  2  0  0  0  0  0  0
   36.2720   30.4760   39.6440 C   0  0  1  0  0  3  0  0  0  0  0  0
   38.1910   29.1780   39.3950 O   0  0  0  0  0  0  0  0  0  0  0  0
   38.7900   28.4610   39.7390 H   0  0  0  0  0  0  0  0  0  0  0  0
   35.9120   31.5390   40.5050 O   0  0  0  0  0  0  0  0  0  0  0  0
   35.3440   31.2030   41.2460 H   0  0  0  0  0  0  0  0  0  0  0  0
  2  1  1  0  0  0  0
  2  8  1  0  0  0  0
  3  2  2  0  0  0  0
  4  3  1  0  0  0  0
  4  5  2  0  0  0  0
  5  6  1  0  0  0  0
  6  8  2  0  0  0  0
  6  7  1  0  0  0  0
  8 10  1  0  0  0  0
  9  4  1  0  0  0  0
 11 12  2  0  0  0  0
 11 16  1  0  0  0  0
 12 13  1  0  0  0  0
 13 19  1  0  0  0  0
 13 14  2  0  0  0  0
 15 14  1  0  0  0  0
 15  3  1  0  0  0  0
 16 15  2  0  0  0  0
 17 11  1  0  0  0  0
 18 12  1  0  0  0  0
 20 25  1  6  0  0  0
 20 21  1  0  0  0  0
 21  5  1  6  0  0  0
 22 21  1  0  0  0  0
 23 24  1  0  0  0  0
 23 22  1  0  0  0  0
 24 20  1  0  0  0  0
 24 27  1  1  0  0  0
 25 26  1  0  0  0  0
 27 28  1  0  0  0  0
M  END
>  <minimizedAffinity>
-5.08176613

$$$$

 OpenBabel03252506033D

 28 30  0  0  1  0  0  0  0  0999 V2000
   37.7000   31.7310   36.7850 Cl  0  0  0  0  0  0  0  0  0  0  0  0
   37.4190   30.5570   38.0350 C   0  0  0  0  0  0  0  0  0  0  0  0
   37.9130   30.7610   39.2850 C   0  0  0  0  0  0  0  0  0  0  0  0
   37.6420   29.7760   40.2170 C   0  0  0  0  0  0  0  0  0  0  0  0
   36.9170   28.6270   39.9630 C   0  0  0  0  0  0  0  0  0  0  0  0
   36.4350   28.4600   38.6900 C   0  0  0  0  0  0  0  0  0  0  0  0
   35.5230   26.9900   38.4110 Cl  0  0  0  0  0  0  0  0  0  0  0  0
   36.6820   29.4130   37.7340 C   0  0  0  0  0  0  0  0  0  0  0  0
   38.0340   29.9280   41.2260 H   0  0  0  0  0  0  0  0  0  0  0  0
   36.2730   29.2160   36.7500 H   0  0  0  0  0  0  0  0  0  0  0  0
   40.7480   33.0270   39.7320 C   0  0  0  0  0  0  0  0  0  0  0  0
   40.1730   34.1600   40.3000 C   0  0  0  0  0  0  0  0  0  0  0  0
   38.7870   34.1490   40.5380 C   0  0  0  0  0  0  0  0  0  0  0  0
   38.0990   33.0310   40.1940 N   0  0  0  0  0  0  0  0  0  0  0  0
   38.6880   31.9430   39.6410 C   0  0  0  0  0  0  0  0  0  0  0  0
   40.0130   31.9420   39.4100 N   0  0  0  0  0  0  0  0  0  0  0  0
   41.8280   33.0800   39.5650 H   0  0  0  0  0  0  0  0  0  0  0  0
   40.6620   35.0580   40.5880 H   0  0  0  0  0  0  0  0  0  0  0  0
   38.1740   34.9230   40.9640 H   0  0  0  0  0  0  0  0  0  0  0  0
   37.7940   26.6130   41.1430 C   0  0  2  0  0  3  0  0  0  0  0  0
   36.7000   27.6590   41.0430 C   0  0  1  0  0  3  0  0  0  0  0  0
   36.7500   28.2160   42.3080 O   0  0  0  0  0  0  0  0  0  0  0  0
   36.6570   27.1100   43.1450 C   0  0  0  0  0  2  0  0  0  0  0  0
   37.4790   26.0140   42.4970 C   0  0  1  0  0  3  0  0  0  0  0  0
   39.0530   27.2030   41.2580 O   0  0  0  0  0  0  0  0  0  0  0  0
   39.2590   27.8370   40.5190 H   0  0  0  0  0  0  0  0  0  0  0  0
   36.6640   24.8890   42.2270 O   0  0  0  0  0  0  0  0  0  0  0  0
   35.7410   25.1800   42.0090 H   0  0  0  0  0  0  0  0  0  0  0  0
  1  2  1  0  0  0  0
  2  3  1  0  0  0  0
  3 15  1  0  0  0  0
  3  4  2  0  0  0  0
  4  9  1  0  0  0  0
  5  4  1  0  0  0  0
  6  5  2  0  0  0  0
  7  6  1  0  0  0  0
  8  2  2  0  0  0  0
  8  6  1  0  0  0  0
 10  8  1  0  0  0  0
 11 12  1  0  0  0  0
 12 13  2  0  0  0  0
 12 18  1  0  0  0  0
 13 19  1  0  0  0  0
 14 13  1  0  0  0  0
 15 14  2  0  0  0  0
 16 15  1  0  0  0  0
 16 11  2  0  0  0  0
 17 11  1  0  0  0  0
 20 25  1  1  0  0  0
 20 24  1  0  0  0  0
 21  5  1  6  0  0  0
 21 20  1  0  0  0  0
 21 22  1  0  0  0  0
 22 23  1  0  0  0  0
 24 27  1  6  0  0  0
 24 23  1  0  0  0  0
 26 25  1  0  0  0  0
 28 27  1  0  0  0  0
M  END
>  <minimizedAffinity>
-5.07111025

$$$$

 OpenBabel03252506033D

 28 30  0  0  1  0  0  0  0  0999 V2000
   43.1520   33.6450   37.6340 Cl  0  0  0  0  0  0  0  0  0  0  0  0
   41.7810   32.9230   38.4210 C   0  0  0  0  0  0  0  0  0  0  0  0
   41.5920   31.5780   38.3620 C   0  0  0  0  0  0  0  0  0  0  0  0
   40.4760   31.0890   39.0150 C   0  0  0  0  0  0  0  0  0  0  0  0
   39.5650   31.8630   39.7080 C   0  0  0  0  0  0  0  0  0  0  0  0
   39.7920   33.2150   39.7450 C   0  0  0  0  0  0  0  0  0  0  0  0
   38.6130   34.1590   40.6330 Cl  0  0  0  0  0  0  0  0  0  0  0  0
   40.8880   33.7420   39.1090 C   0  0  0  0  0  0  0  0  0  0  0  0
   40.3130   30.0090   38.9750 H   0  0  0  0  0  0  0  0  0  0  0  0
   41.0060   34.8180   39.1770 H   0  0  0  0  0  0  0  0  0  0  0  0
   43.2050   29.7350   35.6470 C   0  0  0  0  0  0  0  0  0  0  0  0
   44.2060   29.0130   36.2920 C   0  0  0  0  0  0  0  0  0  0  0  0
   44.3310   29.1590   37.6850 C   0  0  0  0  0  0  0  0  0  0  0  0
   43.4660   29.9970   38.3100 N   0  0  0  0  0  0  0  0  0  0  0  0
   42.5020   30.6870   37.6540 C   0  0  0  0  0  0  0  0  0  0  0  0
   42.3720   30.5550   36.3210 N   0  0  0  0  0  0  0  0  0  0  0  0
   43.1450   29.5910   34.5640 H   0  0  0  0  0  0  0  0  0  0  0  0
   44.9060   28.3470   35.8540 H   0  0  0  0  0  0  0  0  0  0  0  0
   45.0350   28.6880   38.3470 H   0  0  0  0  0  0  0  0  0  0  0  0
   37.1030   31.4700   39.6500 C   0  0  2  0  0  3  0  0  0  0  0  0
   38.4200   31.2190   40.3600 C   0  0  1  0  0  3  0  0  0  0  0  0
   38.4720   29.8370   40.3380 O   0  0  0  0  0  0  0  0  0  0  0  0
   37.2470   29.4640   40.8760 C   0  0  0  0  0  2  0  0  0  0  0  0
   36.2250   30.4390   40.3260 C   0  0  1  0  0  3  0  0  0  0  0  0
   37.1720   31.1060   38.3050 O   0  0  0  0  0  0  0  0  0  0  0  0
   37.9120   31.5550   37.8140 H   0  0  0  0  0  0  0  0  0  0  0  0
   35.5890   31.1270   41.3860 O   0  0  0  0  0  0  0  0  0  0  0  0
   36.2220   31.2560   42.1400 H   0  0  0  0  0  0  0  0  0  0  0  0
  1  2  1  0  0  0  0
  2  8  1  0  0  0  0
  3  2  2  0  0  0  0
  3  4  1  0  0  0  0
  4  5  2  0  0  0  0
  5  6  1  0  0  0  0
  6  7  1  0  0  0  0
  8 10  1  0  0  0  0
  8  6  2  0  0  0  0
  9  4  1  0  0  0  0
 11 12  2  0  0  0  0
 11 16  1  0  0  0  0
 12 13  1  0  0  0  0
 13 14  2  0  0  0  0
 13 19  1  0  0  0  0
 15 14  1  0  0  0  0
 15  3  1  0  0  0  0
 16 15  2  0  0  0  0
 17 11  1  0  0  0  0
 18 12  1  0  0  0  0
 20 25  1  6  0  0  0
 20 24  1  0  0  0  0
 20 21  1  0  0  0  0
 21  5  1  6  0  0  0
 22 21  1  0  0  0  0
 22 23  1  0  0  0  0
 24 23  1  0  0  0  0
 24 27  1  1  0  0  0
 26 25  1  0  0  0  0
 27 28  1  0  0  0  0
M  END
>  <minimizedAffinity>
-5.05053234

$$$$

 OpenBabel03252506033D

 28 30  0  0  1  0  0  0  0  0999 V2000
   39.4510   26.5690   38.9480 Cl  0  0  0  0  0  0  0  0  0  0  0  0
   40.2460   28.1040   38.7690 C   0  0  0  0  0  0  0  0  0  0  0  0
   40.1160   29.0540   39.7330 C   0  0  0  0  0  0  0  0  0  0  0  0
   40.7820   30.2450   39.5090 C   0  0  0  0  0  0  0  0  0  0  0  0
   41.5520   30.5210   38.3950 C   0  0  0  0  0  0  0  0  0  0  0  0
   41.6580   29.5360   37.4470 C   0  0  0  0  0  0  0  0  0  0  0  0
   42.6420   29.9280   36.0520 Cl  0  0  0  0  0  0  0  0  0  0  0  0
   41.0120   28.3390   37.6290 C   0  0  0  0  0  0  0  0  0  0  0  0
   40.6860   31.0180   40.2760 H   0  0  0  0  0  0  0  0  0  0  0  0
   41.1380   27.6060   36.8400 H   0  0  0  0  0  0  0  0  0  0  0  0
   37.2960   29.0850   42.0600 C   0  0  0  0  0  0  0  0  0  0  0  0
   37.8080   28.4710   43.2000 C   0  0  0  0  0  0  0  0  0  0  0  0
   39.1450   28.0380   43.1730 C   0  0  0  0  0  0  0  0  0  0  0  0
   39.8510   28.2480   42.0330 N   0  0  0  0  0  0  0  0  0  0  0  0
   39.3250   28.8480   40.9390 C   0  0  0  0  0  0  0  0  0  0  0  0
   38.0460   29.2670   40.9530 N   0  0  0  0  0  0  0  0  0  0  0  0
   36.2520   29.4060   42.1260 H   0  0  0  0  0  0  0  0  0  0  0  0
   37.3020   28.2840   44.1140 H   0  0  0  0  0  0  0  0  0  0  0  0
   39.7070   27.5500   43.9490 H   0  0  0  0  0  0  0  0  0  0  0  0
   41.5960   32.7170   37.2140 C   0  0  2  0  0  3  0  0  0  0  0  0
   42.2080   31.8280   38.2780 C   0  0  1  0  0  3  0  0  0  0  0  0
   42.0660   32.6230   39.4010 O   0  0  0  0  0  0  0  0  0  0  0  0
   42.6380   33.8290   39.0090 C   0  0  0  0  0  2  0  0  0  0  0  0
   42.2290   34.0460   37.5660 C   0  0  1  0  0  3  0  0  0  0  0  0
   40.2230   32.8720   37.4080 O   0  0  0  0  0  0  0  0  0  0  0  0
   39.7310   32.0070   37.4510 H   0  0  0  0  0  0  0  0  0  0  0  0
   43.3760   34.1430   36.7440 O   0  0  0  0  0  0  0  0  0  0  0  0
   44.1020   33.5680   37.1000 H   0  0  0  0  0  0  0  0  0  0  0  0
  2  1  1  0  0  0  0
  2  3  1  0  0  0  0
  3 15  1  0  0  0  0
  4  3  2  0  0  0  0
  4  9  1  0  0  0  0
  5  4  1  0  0  0  0
  6  8  1  0  0  0  0
  6  5  2  0  0  0  0
  7  6  1  0  0  0  0
  8  2  2  0  0  0  0
 10  8  1  0  0  0  0
 11 17  1  0  0  0  0
 11 12  1  0  0  0  0
 12 18  1  0  0  0  0
 13 12  2  0  0  0  0
 13 19  1  0  0  0  0
 14 13  1  0  0  0  0
 15 16  1  0  0  0  0
 15 14  2  0  0  0  0
 16 11  2  0  0  0  0
 20 25  1  1  0  0  0
 20 24  1  0  0  0  0
 20 21  1  0  0  0  0
 21  5  1  1  0  0  0
 21 22  1  0  0  0  0
 23 22  1  0  0  0  0
 24 27  1  6  0  0  0
 24 23  1  0  0  0  0
 25 26  1  0  0  0  0
 27 28  1  0  0  0  0
M  END
>  <minimizedAffinity>
-5.03536034

$$$$
