
 OpenBabel03242517243D

 43 46  0  0  1  0  0  0  0  0999 V2000
   42.4570   25.9200   40.2380 C   0  0  0  0  0  0  0  0  0  0  0  0
   42.5620   26.8360   41.3060 C   0  0  0  0  0  0  0  0  0  0  0  0
   41.4540   27.0010   42.1630 C   0  0  0  0  0  0  0  0  0  0  0  0
   40.3440   26.2620   41.9050 N   0  0  0  0  0  0  0  0  0  0  0  0
   40.2780   25.3920   40.8700 C   0  0  0  0  0  0  0  0  0  0  0  0
   41.3380   25.2200   40.0340 N   0  0  0  0  0  0  0  0  0  0  0  0
   39.0650   24.6600   40.6840 N   0  0  0  0  0  0  0  0  0  0  0  0
   39.1380   23.5310   39.7590 C   0  0  0  0  0  0  0  0  0  0  0  0
   37.8250   23.0280   39.2860 C   0  0  0  0  0  0  0  0  0  0  0  0
   36.7970   23.1420   40.3640 C   0  0  0  0  0  0  0  0  0  0  0  0
   36.6430   24.6030   40.6580 C   0  0  0  0  0  0  0  0  0  0  0  0
   37.8650   25.0440   41.3830 C   0  0  2  0  0  0  0  0  0  0  0  0
   43.3480   25.8520   39.6280 H   0  0  0  0  0  0  0  0  0  0  0  0
   43.4230   27.4200   41.5190 H   0  0  0  0  0  0  0  0  0  0  0  0
   41.4850   27.6910   42.9950 H   0  0  0  0  0  0  0  0  0  0  0  0
   39.7280   23.8900   38.8770 H   0  0  0  0  0  0  0  0  0  0  0  0
   39.7250   22.7040   40.2020 H   0  0  0  0  0  0  0  0  0  0  0  0
   37.5070   23.6810   38.4370 H   0  0  0  0  0  0  0  0  0  0  0  0
   37.9640   21.9890   38.9320 H   0  0  0  0  0  0  0  0  0  0  0  0
   35.8200   22.7850   39.9650 H   0  0  0  0  0  0  0  0  0  0  0  0
   37.1440   22.5530   41.2280 H   0  0  0  0  0  0  0  0  0  0  0  0
   35.7550   24.7300   41.3060 H   0  0  0  0  0  0  0  0  0  0  0  0
   36.5650   25.1550   39.7070 H   0  0  0  0  0  0  0  0  0  0  0  0
   37.9040   24.4830   42.3600 H   0  0  0  0  0  0  0  0  0  0  0  0
   37.6950   27.2450   39.5440 F   0  0  0  0  0  0  0  0  0  0  0  0
   37.7350   27.5490   40.8700 C   0  0  0  0  0  0  0  0  0  0  0  0
   37.8160   26.4820   41.7720 C   0  0  0  0  0  0  0  0  0  0  0  0
   37.8540   26.8330   43.1130 C   0  0  0  0  0  0  0  0  0  0  0  0
   37.8160   28.1340   43.5610 C   0  0  0  0  0  0  0  0  0  0  0  0
   37.7360   29.1640   42.6380 C   0  0  0  0  0  0  0  0  0  0  0  0
   37.6980   28.8470   41.3110 C   0  0  0  0  0  0  0  0  0  0  0  0
   37.9170   26.0150   43.8360 H   0  0  0  0  0  0  0  0  0  0  0  0
   37.8510   28.2910   44.6290 H   0  0  0  0  0  0  0  0  0  0  0  0
   37.7060   30.1910   42.9940 H   0  0  0  0  0  0  0  0  0  0  0  0
   36.9020   31.1780   40.9980 C   0  0  1  0  0  3  0  0  0  0  0  0
   37.6120   29.9750   40.3650 C   0  0  1  0  0  3  0  0  0  0  0  0
   38.8410   30.5250   40.0640 O   0  0  0  0  0  0  0  0  0  0  0  0
   38.6060   31.7670   39.5290 C   0  0  0  0  0  2  0  0  0  0  0  0
   37.2020   32.1940   39.8900 C   0  0  2  0  0  3  0  0  0  0  0  0
   35.5420   30.9710   41.1450 O   0  0  0  0  0  0  0  0  0  0  0  0
   35.4240   30.4850   41.9990 H   0  0  0  0  0  0  0  0  0  0  0  0
   37.0830   33.4950   40.2970 O   0  0  0  0  0  0  0  0  0  0  0  0
   37.2420   33.6890   41.2340 H   0  0  0  0  0  0  0  0  0  0  0  0
  1  2  1  0  0  0  0
  2 14  1  0  0  0  0
  2  3  2  0  0  0  0
  3 15  1  0  0  0  0
  4  3  1  0  0  0  0
  5  4  2  0  0  0  0
  6  1  2  0  0  0  0
  6  5  1  0  0  0  0
  7  5  1  0  0  0  0
  7 12  1  0  0  0  0
  8 17  1  0  0  0  0
  8  7  1  0  0  0  0
  9  8  1  0  0  0  0
  9 10  1  0  0  0  0
 10 11  1  0  0  0  0
 10 21  1  0  0  0  0
 11 22  1  0  0  0  0
 11 12  1  0  0  0  0
 12 27  1  0  0  0  0
 12 24  1  1  0  0  0
 13  1  1  0  0  0  0
 16  8  1  0  0  0  0
 18  9  1  0  0  0  0
 19  9  1  0  0  0  0
 20 10  1  0  0  0  0
 23 11  1  0  0  0  0
 25 26  1  0  0  0  0
 26 31  2  0  0  0  0
 26 27  1  0  0  0  0
 27 28  2  0  0  0  0
 28 29  1  0  0  0  0
 28 32  1  0  0  0  0
 29 33  1  0  0  0  0
 30 34  1  0  0  0  0
 30 29  2  0  0  0  0
 31 30  1  0  0  0  0
 35 40  1  6  0  0  0
 36 35  1  0  0  0  0
 36 31  1  1  0  0  0
 37 36  1  0  0  0  0
 38 39  1  0  0  0  0
 38 37  1  0  0  0  0
 39 42  1  1  0  0  0
 39 35  1  0  0  0  0
 40 41  1  0  0  0  0
 42 43  1  0  0  0  0
M  END
>  <minimizedAffinity>
-6.85436392

$$$$

 OpenBabel03242517243D

 43 46  0  0  1  0  0  0  0  0999 V2000
   39.2800   26.8300   42.5320 C   0  0  0  0  0  0  0  0  0  0  0  0
   39.4460   28.0480   43.2250 C   0  0  0  0  0  0  0  0  0  0  0  0
   38.6980   29.1680   42.8070 C   0  0  0  0  0  0  0  0  0  0  0  0
   37.8570   29.0040   41.7530 N   0  0  0  0  0  0  0  0  0  0  0  0
   37.7230   27.8210   41.1110 C   0  0  0  0  0  0  0  0  0  0  0  0
   38.4370   26.7300   41.5020 N   0  0  0  0  0  0  0  0  0  0  0  0
   36.8110   27.7510   40.0130 N   0  0  0  0  0  0  0  0  0  0  0  0
   36.4750   26.4060   39.5490 C   0  0  0  0  0  0  0  0  0  0  0  0
   35.8500   26.3500   38.2050 C   0  0  0  0  0  0  0  0  0  0  0  0
   34.9760   27.5400   37.9790 C   0  0  0  0  0  0  0  0  0  0  0  0
   35.8690   28.7420   38.0130 C   0  0  0  0  0  0  0  0  0  0  0  0
   36.2780   28.9540   39.4280 C   0  0  2  0  0  0  0  0  0  0  0  0
   39.8890   26.0210   42.9140 H   0  0  0  0  0  0  0  0  0  0  0  0
   40.1000   28.1900   44.0500 H   0  0  0  0  0  0  0  0  0  0  0  0
   38.7900   30.1240   43.3060 H   0  0  0  0  0  0  0  0  0  0  0  0
   37.4380   25.8360   39.5250 H   0  0  0  0  0  0  0  0  0  0  0  0
   35.8320   25.8890   40.2890 H   0  0  0  0  0  0  0  0  0  0  0  0
   36.6770   26.3840   37.4550 H   0  0  0  0  0  0  0  0  0  0  0  0
   35.3030   25.3920   38.1220 H   0  0  0  0  0  0  0  0  0  0  0  0
   34.5490   27.4800   36.9510 H   0  0  0  0  0  0  0  0  0  0  0  0
   34.2000   27.5450   38.7610 H   0  0  0  0  0  0  0  0  0  0  0  0
   35.2860   29.6130   37.6560 H   0  0  0  0  0  0  0  0  0  0  0  0
   36.7640   28.5430   37.4020 H   0  0  0  0  0  0  0  0  0  0  0  0
   35.3470   29.1810   40.0220 H   0  0  0  0  0  0  0  0  0  0  0  0
   38.8870   29.2900   38.2740 F   0  0  0  0  0  0  0  0  0  0  0  0
   38.4130   30.3110   39.0400 C   0  0  0  0  0  0  0  0  0  0  0  0
   37.1430   30.1550   39.6040 C   0  0  0  0  0  0  0  0  0  0  0  0
   36.6960   31.2170   40.3760 C   0  0  0  0  0  0  0  0  0  0  0  0
   37.4290   32.3620   40.5930 C   0  0  0  0  0  0  0  0  0  0  0  0
   38.6830   32.4810   40.0180 C   0  0  0  0  0  0  0  0  0  0  0  0
   39.1480   31.4500   39.2530 C   0  0  0  0  0  0  0  0  0  0  0  0
   35.7050   31.1170   40.8270 H   0  0  0  0  0  0  0  0  0  0  0  0
   36.9820   33.1260   41.2120 H   0  0  0  0  0  0  0  0  0  0  0  0
   39.2610   33.3860   40.1900 H   0  0  0  0  0  0  0  0  0  0  0  0
   40.4890   32.7240   37.5970 C   0  0  1  0  0  3  0  0  0  0  0  0
   40.4880   31.6190   38.6610 C   0  0  1  0  0  3  0  0  0  0  0  0
   41.4170   32.1130   39.5530 O   0  0  0  0  0  0  0  0  0  0  0  0
   42.4680   32.5960   38.8130 C   0  0  0  0  0  2  0  0  0  0  0  0
   42.0060   32.8010   37.3880 C   0  0  2  0  0  3  0  0  0  0  0  0
   39.8340   32.3450   36.4400 O   0  0  0  0  0  0  0  0  0  0  0  0
   38.8730   32.5270   36.5900 H   0  0  0  0  0  0  0  0  0  0  0  0
   42.4190   33.9710   36.8130 O   0  0  0  0  0  0  0  0  0  0  0  0
   41.8760   34.7610   36.9620 H   0  0  0  0  0  0  0  0  0  0  0  0
  1 13  1  0  0  0  0
  1  2  1  0  0  0  0
  2 14  1  0  0  0  0
  3  2  2  0  0  0  0
  3 15  1  0  0  0  0
  4  3  1  0  0  0  0
  5  6  1  0  0  0  0
  5  4  2  0  0  0  0
  6  1  2  0  0  0  0
  7  5  1  0  0  0  0
  8  7  1  0  0  0  0
  8 17  1  0  0  0  0
  9  8  1  0  0  0  0
 10 11  1  0  0  0  0
 10  9  1  0  0  0  0
 10 21  1  0  0  0  0
 11 12  1  0  0  0  0
 12 27  1  0  0  0  0
 12  7  1  0  0  0  0
 12 24  1  1  0  0  0
 16  8  1  0  0  0  0
 18  9  1  0  0  0  0
 19  9  1  0  0  0  0
 20 10  1  0  0  0  0
 22 11  1  0  0  0  0
 23 11  1  0  0  0  0
 25 26  1  0  0  0  0
 26 31  2  0  0  0  0
 26 27  1  0  0  0  0
 27 28  2  0  0  0  0
 28 29  1  0  0  0  0
 28 32  1  0  0  0  0
 29 33  1  0  0  0  0
 30 34  1  0  0  0  0
 30 29  2  0  0  0  0
 31 30  1  0  0  0  0
 35 40  1  6  0  0  0
 35 36  1  0  0  0  0
 36 31  1  1  0  0  0
 36 37  1  0  0  0  0
 38 37  1  0  0  0  0
 39 42  1  1  0  0  0
 39 35  1  0  0  0  0
 39 38  1  0  0  0  0
 40 41  1  0  0  0  0
 42 43  1  0  0  0  0
M  END
>  <minimizedAffinity>
-6.81659508

$$$$

 OpenBabel03242517243D

 43 46  0  0  1  0  0  0  0  0999 V2000
   37.4000   32.5180   39.9310 C   0  0  0  0  0  0  0  0  0  0  0  0
   38.3970   32.3840   40.9200 C   0  0  0  0  0  0  0  0  0  0  0  0
   38.8820   31.0920   41.2170 C   0  0  0  0  0  0  0  0  0  0  0  0
   38.3530   30.0490   40.5270 N   0  0  0  0  0  0  0  0  0  0  0  0
   37.3960   30.2140   39.5850 C   0  0  0  0  0  0  0  0  0  0  0  0
   36.9180   31.4530   39.2850 N   0  0  0  0  0  0  0  0  0  0  0  0
   36.9050   29.0520   38.9140 N   0  0  0  0  0  0  0  0  0  0  0  0
   36.1090   29.2980   37.7140 C   0  0  0  0  0  0  0  0  0  0  0  0
   35.3020   28.1400   37.2530 C   0  0  0  0  0  0  0  0  0  0  0  0
   36.0240   26.8590   37.5120 C   0  0  0  0  0  0  0  0  0  0  0  0
   36.1750   26.7430   38.9990 C   0  0  0  0  0  0  0  0  0  0  0  0
   37.1990   27.7360   39.4210 C   0  0  2  0  0  0  0  0  0  0  0  0
   37.0820   33.5390   39.7630 H   0  0  0  0  0  0  0  0  0  0  0  0
   38.8190   33.1900   41.4670 H   0  0  0  0  0  0  0  0  0  0  0  0
   39.6460   30.9380   41.9670 H   0  0  0  0  0  0  0  0  0  0  0  0
   35.4180   30.1430   37.9670 H   0  0  0  0  0  0  0  0  0  0  0  0
   36.7510   29.6660   36.8900 H   0  0  0  0  0  0  0  0  0  0  0  0
   34.3620   28.1340   37.8560 H   0  0  0  0  0  0  0  0  0  0  0  0
   35.0650   28.2930   36.1840 H   0  0  0  0  0  0  0  0  0  0  0  0
   35.3780   26.0130   37.1840 H   0  0  0  0  0  0  0  0  0  0  0  0
   36.9840   26.8950   36.9730 H   0  0  0  0  0  0  0  0  0  0  0  0
   36.5270   25.7200   39.2280 H   0  0  0  0  0  0  0  0  0  0  0  0
   35.2130   26.9860   39.4780 H   0  0  0  0  0  0  0  0  0  0  0  0
   38.1760   27.4480   38.9370 H   0  0  0  0  0  0  0  0  0  0  0  0
   39.7210   27.0360   40.6060 F   0  0  0  0  0  0  0  0  0  0  0  0
   38.7040   27.3490   41.4550 C   0  0  0  0  0  0  0  0  0  0  0  0
   37.4740   27.6920   40.8850 C   0  0  0  0  0  0  0  0  0  0  0  0
   36.4640   28.0040   41.7830 C   0  0  0  0  0  0  0  0  0  0  0  0
   36.6280   27.9880   43.1500 C   0  0  0  0  0  0  0  0  0  0  0  0
   37.8620   27.6430   43.6780 C   0  0  0  0  0  0  0  0  0  0  0  0
   38.8740   27.3300   42.8160 C   0  0  0  0  0  0  0  0  0  0  0  0
   35.4940   28.2760   41.3600 H   0  0  0  0  0  0  0  0  0  0  0  0
   35.7730   28.2490   43.7550 H   0  0  0  0  0  0  0  0  0  0  0  0
   37.9900   27.6300   44.7580 H   0  0  0  0  0  0  0  0  0  0  0  0
   40.6070   25.5620   42.9960 C   0  0  1  0  0  3  0  0  0  0  0  0
   40.1690   26.9690   43.4220 C   0  0  1  0  0  3  0  0  0  0  0  0
   41.2200   27.7260   42.9470 O   0  0  0  0  0  0  0  0  0  0  0  0
   42.3740   27.0520   43.2590 C   0  0  0  0  0  2  0  0  0  0  0  0
   42.0300   25.6140   43.5690 C   0  0  2  0  0  3  0  0  0  0  0  0
   39.8530   24.5690   43.5950 O   0  0  0  0  0  0  0  0  0  0  0  0
   39.0440   24.4580   43.0360 H   0  0  0  0  0  0  0  0  0  0  0  0
   42.8730   24.6880   43.0170 O   0  0  0  0  0  0  0  0  0  0  0  0
   42.6900   24.3980   42.1100 H   0  0  0  0  0  0  0  0  0  0  0  0
  1  2  1  0  0  0  0
  2  3  2  0  0  0  0
  2 14  1  0  0  0  0
  3 15  1  0  0  0  0
  4  3  1  0  0  0  0
  5  4  2  0  0  0  0
  6  5  1  0  0  0  0
  6  1  2  0  0  0  0
  7 12  1  0  0  0  0
  7  5  1  0  0  0  0
  8 16  1  0  0  0  0
  8  7  1  0  0  0  0
  9 10  1  0  0  0  0
  9  8  1  0  0  0  0
  9 18  1  0  0  0  0
 10 11  1  0  0  0  0
 11 22  1  0  0  0  0
 11 12  1  0  0  0  0
 11 23  1  0  0  0  0
 12 24  1  6  0  0  0
 12 27  1  0  0  0  0
 13  1  1  0  0  0  0
 17  8  1  0  0  0  0
 19  9  1  0  0  0  0
 20 10  1  0  0  0  0
 21 10  1  0  0  0  0
 25 26  1  0  0  0  0
 26 31  1  0  0  0  0
 27 26  2  0  0  0  0
 27 28  1  0  0  0  0
 28 29  2  0  0  0  0
 29 30  1  0  0  0  0
 29 33  1  0  0  0  0
 30 34  1  0  0  0  0
 31 30  2  0  0  0  0
 32 28  1  0  0  0  0
 35 36  1  0  0  0  0
 35 39  1  0  0  0  0
 35 40  1  1  0  0  0
 36 31  1  6  0  0  0
 37 38  1  0  0  0  0
 37 36  1  0  0  0  0
 38 39  1  0  0  0  0
 39 42  1  6  0  0  0
 41 40  1  0  0  0  0
 43 42  1  0  0  0  0
M  END
>  <minimizedAffinity>
-6.5999651

$$$$

 OpenBabel03242517243D

 43 46  0  0  1  0  0  0  0  0999 V2000
   37.3760   31.0010   38.3640 C   0  0  0  0  0  0  0  0  0  0  0  0
   36.1960   30.3930   38.8430 C   0  0  0  0  0  0  0  0  0  0  0  0
   36.1730   29.9190   40.1710 C   0  0  0  0  0  0  0  0  0  0  0  0
   37.2990   30.0790   40.9150 N   0  0  0  0  0  0  0  0  0  0  0  0
   38.4140   30.6670   40.4230 C   0  0  0  0  0  0  0  0  0  0  0  0
   38.4530   31.1300   39.1430 N   0  0  0  0  0  0  0  0  0  0  0  0
   39.5460   30.7880   41.2860 N   0  0  0  0  0  0  0  0  0  0  0  0
   40.6060   31.6840   40.8250 C   0  0  0  0  0  0  0  0  0  0  0  0
   41.9080   31.5140   41.5150 C   0  0  0  0  0  0  0  0  0  0  0  0
   41.7020   31.1550   42.9500 C   0  0  0  0  0  0  0  0  0  0  0  0
   41.0060   29.8280   42.9650 C   0  0  0  0  0  0  0  0  0  0  0  0
   39.6030   30.0560   42.5250 C   0  0  2  0  0  0  0  0  0  0  0  0
   37.3120   31.3370   37.3370 H   0  0  0  0  0  0  0  0  0  0  0  0
   35.3100   30.2620   38.2730 H   0  0  0  0  0  0  0  0  0  0  0  0
   35.2930   29.4460   40.5840 H   0  0  0  0  0  0  0  0  0  0  0  0
   40.7420   31.4680   39.7340 H   0  0  0  0  0  0  0  0  0  0  0  0
   40.2770   32.7400   40.8880 H   0  0  0  0  0  0  0  0  0  0  0  0
   42.4350   30.6630   41.0190 H   0  0  0  0  0  0  0  0  0  0  0  0
   42.4880   32.4460   41.3830 H   0  0  0  0  0  0  0  0  0  0  0  0
   42.6980   31.0050   43.4270 H   0  0  0  0  0  0  0  0  0  0  0  0
   41.1220   31.9630   43.4220 H   0  0  0  0  0  0  0  0  0  0  0  0
   41.0160   29.4480   44.0040 H   0  0  0  0  0  0  0  0  0  0  0  0
   41.5040   29.1510   42.2520 H   0  0  0  0  0  0  0  0  0  0  0  0
   39.1120   30.7290   43.2850 H   0  0  0  0  0  0  0  0  0  0  0  0
   40.0900   27.7500   40.8830 F   0  0  0  0  0  0  0  0  0  0  0  0
   39.0280   27.6910   41.7340 C   0  0  0  0  0  0  0  0  0  0  0  0
   38.7860   28.8100   42.5370 C   0  0  0  0  0  0  0  0  0  0  0  0
   37.6960   28.7110   43.3890 C   0  0  0  0  0  0  0  0  0  0  0  0
   36.8870   27.5990   43.4650 C   0  0  0  0  0  0  0  0  0  0  0  0
   37.1590   26.5090   42.6530 C   0  0  0  0  0  0  0  0  0  0  0  0
   38.2250   26.5810   41.8040 C   0  0  0  0  0  0  0  0  0  0  0  0
   37.4880   29.5730   44.0270 H   0  0  0  0  0  0  0  0  0  0  0  0
   36.0660   27.6310   44.1650 H   0  0  0  0  0  0  0  0  0  0  0  0
   36.5190   25.6330   42.7130 H   0  0  0  0  0  0  0  0  0  0  0  0
   38.3840   24.1040   41.7750 C   0  0  1  0  0  3  0  0  0  0  0  0
   38.4770   25.3990   40.9590 C   0  0  1  0  0  3  0  0  0  0  0  0
   37.4910   25.1860   40.0170 O   0  0  0  0  0  0  0  0  0  0  0  0
   37.6170   23.8870   39.5900 C   0  0  0  0  0  2  0  0  0  0  0  0
   38.4400   23.1210   40.5990 C   0  0  2  0  0  3  0  0  0  0  0  0
   39.4590   23.9390   42.6290 O   0  0  0  0  0  0  0  0  0  0  0  0
   39.2420   24.4420   43.4520 H   0  0  0  0  0  0  0  0  0  0  0  0
   37.9610   21.8760   40.9050 O   0  0  0  0  0  0  0  0  0  0  0  0
   37.2890   21.8120   41.6020 H   0  0  0  0  0  0  0  0  0  0  0  0
  1  2  2  0  0  0  0
  1  6  1  0  0  0  0
  2  3  1  0  0  0  0
  3 15  1  0  0  0  0
  3  4  2  0  0  0  0
  5  4  1  0  0  0  0
  5  7  1  0  0  0  0
  6  5  2  0  0  0  0
  7 12  1  0  0  0  0
  8 17  1  0  0  0  0
  8  7  1  0  0  0  0
  8  9  1  0  0  0  0
  9 10  1  0  0  0  0
 10 11  1  0  0  0  0
 10 21  1  0  0  0  0
 10 20  1  0  0  0  0
 11 22  1  0  0  0  0
 12 27  1  0  0  0  0
 12 11  1  0  0  0  0
 12 24  1  1  0  0  0
 13  1  1  0  0  0  0
 14  2  1  0  0  0  0
 16  8  1  0  0  0  0
 18  9  1  0  0  0  0
 19  9  1  0  0  0  0
 23 11  1  0  0  0  0
 25 26  1  0  0  0  0
 26 31  2  0  0  0  0
 26 27  1  0  0  0  0
 27 28  2  0  0  0  0
 28 29  1  0  0  0  0
 28 32  1  0  0  0  0
 29 33  1  0  0  0  0
 30 34  1  0  0  0  0
 30 29  2  0  0  0  0
 31 30  1  0  0  0  0
 35 40  1  1  0  0  0
 36 35  1  0  0  0  0
 36 31  1  1  0  0  0
 37 36  1  0  0  0  0
 38 37  1  0  0  0  0
 38 39  1  0  0  0  0
 39 42  1  1  0  0  0
 39 35  1  0  0  0  0
 40 41  1  0  0  0  0
 42 43  1  0  0  0  0
M  END
>  <minimizedAffinity>
-6.51035976

$$$$

 OpenBabel03242517243D

 43 46  0  0  1  0  0  0  0  0999 V2000
   40.1220   25.4840   43.0260 C   0  0  0  0  0  0  0  0  0  0  0  0
   39.7960   26.6910   43.6800 C   0  0  0  0  0  0  0  0  0  0  0  0
   38.6510   27.3990   43.2560 C   0  0  0  0  0  0  0  0  0  0  0  0
   37.9280   26.8690   42.2350 N   0  0  0  0  0  0  0  0  0  0  0  0
   38.2710   25.7090   41.6300 C   0  0  0  0  0  0  0  0  0  0  0  0
   39.3720   25.0140   42.0270 N   0  0  0  0  0  0  0  0  0  0  0  0
   37.4430   25.2360   40.5650 N   0  0  0  0  0  0  0  0  0  0  0  0
   37.6690   23.8530   40.1490 C   0  0  0  0  0  0  0  0  0  0  0  0
   37.0940   23.4990   38.8280 C   0  0  0  0  0  0  0  0  0  0  0  0
   35.8100   24.2270   38.5990 C   0  0  0  0  0  0  0  0  0  0  0  0
   36.1440   25.6880   38.5710 C   0  0  0  0  0  0  0  0  0  0  0  0
   36.4590   26.1000   39.9650 C   0  0  2  0  0  0  0  0  0  0  0  0
   41.0130   25.0030   43.4090 H   0  0  0  0  0  0  0  0  0  0  0  0
   40.3520   27.1150   44.4780 H   0  0  0  0  0  0  0  0  0  0  0  0
   38.3600   28.3280   43.7260 H   0  0  0  0  0  0  0  0  0  0  0  0
   38.7800   23.7180   40.1090 H   0  0  0  0  0  0  0  0  0  0  0  0
   37.3050   23.1500   40.9230 H   0  0  0  0  0  0  0  0  0  0  0  0
   37.8230   23.8350   38.0510 H   0  0  0  0  0  0  0  0  0  0  0  0
   36.9790   22.4000   38.7890 H   0  0  0  0  0  0  0  0  0  0  0  0
   35.4250   23.9620   37.5880 H   0  0  0  0  0  0  0  0  0  0  0  0
   35.1140   23.9490   39.4060 H   0  0  0  0  0  0  0  0  0  0  0  0
   35.2520   26.2350   38.2100 H   0  0  0  0  0  0  0  0  0  0  0  0
   37.0310   25.8420   37.9370 H   0  0  0  0  0  0  0  0  0  0  0  0
   35.5270   25.9550   40.5840 H   0  0  0  0  0  0  0  0  0  0  0  0
   38.7900   27.3790   38.8770 F   0  0  0  0  0  0  0  0  0  0  0  0
   37.9070   28.1690   39.5490 C   0  0  0  0  0  0  0  0  0  0  0  0
   36.7690   27.5530   40.0800 C   0  0  0  0  0  0  0  0  0  0  0  0
   35.8950   28.3910   40.7560 C   0  0  0  0  0  0  0  0  0  0  0  0
   36.1030   29.7440   40.9110 C   0  0  0  0  0  0  0  0  0  0  0  0
   37.2420   30.3180   40.3700 C   0  0  0  0  0  0  0  0  0  0  0  0
   38.1200   29.5150   39.7010 C   0  0  0  0  0  0  0  0  0  0  0  0
   34.9980   27.9320   41.1790 H   0  0  0  0  0  0  0  0  0  0  0  0
   35.3550   30.3000   41.4560 H   0  0  0  0  0  0  0  0  0  0  0  0
   37.4050   31.3860   40.4940 H   0  0  0  0  0  0  0  0  0  0  0  0
   39.0130   30.8240   37.7890 C   0  0  1  0  0  3  0  0  0  0  0  0
   39.3180   30.1690   39.1420 C   0  0  1  0  0  3  0  0  0  0  0  0
   39.7310   31.2630   39.8750 O   0  0  0  0  0  0  0  0  0  0  0  0
   40.5610   31.9990   39.0680 C   0  0  0  0  0  2  0  0  0  0  0  0
   40.3360   31.5840   37.6320 C   0  0  2  0  0  3  0  0  0  0  0  0
   38.8370   29.8940   36.7800 O   0  0  0  0  0  0  0  0  0  0  0  0
   37.8900   29.6090   36.8260 H   0  0  0  0  0  0  0  0  0  0  0  0
   40.2670   32.6190   36.7380 O   0  0  0  0  0  0  0  0  0  0  0  0
   39.4050   33.0460   36.6120 H   0  0  0  0  0  0  0  0  0  0  0  0
  1 13  1  0  0  0  0
  1  2  1  0  0  0  0
  2 14  1  0  0  0  0
  3  2  2  0  0  0  0
  3 15  1  0  0  0  0
  4  3  1  0  0  0  0
  5  6  1  0  0  0  0
  5  4  2  0  0  0  0
  6  1  2  0  0  0  0
  7  5  1  0  0  0  0
  8  7  1  0  0  0  0
  8 17  1  0  0  0  0
  9  8  1  0  0  0  0
 10  9  1  0  0  0  0
 10 21  1  0  0  0  0
 11 10  1  0  0  0  0
 11 12  1  0  0  0  0
 12 27  1  0  0  0  0
 12  7  1  0  0  0  0
 12 24  1  1  0  0  0
 16  8  1  0  0  0  0
 18  9  1  0  0  0  0
 19  9  1  0  0  0  0
 20 10  1  0  0  0  0
 22 11  1  0  0  0  0
 23 11  1  0  0  0  0
 25 26  1  0  0  0  0
 26 31  2  0  0  0  0
 26 27  1  0  0  0  0
 27 28  2  0  0  0  0
 28 29  1  0  0  0  0
 28 32  1  0  0  0  0
 29 33  1  0  0  0  0
 30 34  1  0  0  0  0
 30 29  2  0  0  0  0
 31 30  1  0  0  0  0
 35 40  1  6  0  0  0
 35 36  1  0  0  0  0
 36 31  1  1  0  0  0
 36 37  1  0  0  0  0
 38 37  1  0  0  0  0
 39 42  1  6  0  0  0
 39 35  1  0  0  0  0
 39 38  1  0  0  0  0
 40 41  1  0  0  0  0
 43 42  1  0  0  0  0
M  END
>  <minimizedAffinity>
-6.29892254

$$$$

 OpenBabel03242517243D

 43 46  0  0  1  0  0  0  0  0999 V2000
   38.3630   25.8450   37.2920 C   0  0  0  0  0  0  0  0  0  0  0  0
   39.2480   26.7520   36.6730 C   0  0  0  0  0  0  0  0  0  0  0  0
   39.7410   27.8360   37.4300 C   0  0  0  0  0  0  0  0  0  0  0  0
   39.3270   27.9400   38.7200 N   0  0  0  0  0  0  0  0  0  0  0  0
   38.4760   27.0510   39.2810 C   0  0  0  0  0  0  0  0  0  0  0  0
   37.9920   26.0000   38.5650 N   0  0  0  0  0  0  0  0  0  0  0  0
   38.1020   27.2480   40.6460 N   0  0  0  0  0  0  0  0  0  0  0  0
   37.4360   26.1200   41.2940 C   0  0  0  0  0  0  0  0  0  0  0  0
   36.7260   26.4550   42.5530 C   0  0  0  0  0  0  0  0  0  0  0  0
   37.4580   27.5190   43.3040 C   0  0  0  0  0  0  0  0  0  0  0  0
   37.4470   28.7420   42.4380 C   0  0  0  0  0  0  0  0  0  0  0  0
   38.3830   28.4970   41.3080 C   0  0  2  0  0  0  0  0  0  0  0  0
   38.0310   25.0430   36.6440 H   0  0  0  0  0  0  0  0  0  0  0  0
   39.5790   26.6830   35.6660 H   0  0  0  0  0  0  0  0  0  0  0  0
   40.4220   28.5580   37.0000 H   0  0  0  0  0  0  0  0  0  0  0  0
   36.6930   25.7300   40.5510 H   0  0  0  0  0  0  0  0  0  0  0  0
   38.1530   25.2940   41.4700 H   0  0  0  0  0  0  0  0  0  0  0  0
   35.7250   26.8620   42.2680 H   0  0  0  0  0  0  0  0  0  0  0  0
   36.6030   25.5230   43.1350 H   0  0  0  0  0  0  0  0  0  0  0  0
   36.8810   27.7660   44.2250 H   0  0  0  0  0  0  0  0  0  0  0  0
   38.4690   27.1440   43.5240 H   0  0  0  0  0  0  0  0  0  0  0  0
   37.8060   29.5940   43.0450 H   0  0  0  0  0  0  0  0  0  0  0  0
   36.4300   28.8930   42.0410 H   0  0  0  0  0  0  0  0  0  0  0  0
   39.4160   28.3720   41.7420 H   0  0  0  0  0  0  0  0  0  0  0  0
   40.8050   29.9460   40.7710 F   0  0  0  0  0  0  0  0  0  0  0  0
   39.6770   30.3670   40.1340 C   0  0  0  0  0  0  0  0  0  0  0  0
   38.4950   29.6650   40.3890 C   0  0  0  0  0  0  0  0  0  0  0  0
   37.3690   30.1230   39.7210 C   0  0  0  0  0  0  0  0  0  0  0  0
   37.3810   31.1950   38.8570 C   0  0  0  0  0  0  0  0  0  0  0  0
   38.5710   31.8660   38.6280 C   0  0  0  0  0  0  0  0  0  0  0  0
   39.6950   31.4360   39.2740 C   0  0  0  0  0  0  0  0  0  0  0  0
   36.4340   29.5890   39.9050 H   0  0  0  0  0  0  0  0  0  0  0  0
   36.4450   31.4650   38.3900 H   0  0  0  0  0  0  0  0  0  0  0  0
   38.5790   32.7120   37.9450 H   0  0  0  0  0  0  0  0  0  0  0  0
   41.1160   32.4300   37.4980 C   0  0  1  0  0  3  0  0  0  0  0  0
   40.9380   32.1790   39.0010 C   0  0  1  0  0  3  0  0  0  0  0  0
   40.9140   33.4720   39.4820 O   0  0  0  0  0  0  0  0  0  0  0  0
   41.9100   34.1610   38.8350 C   0  0  0  0  0  2  0  0  0  0  0  0
   42.3070   33.3920   37.5950 C   0  0  2  0  0  3  0  0  0  0  0  0
   41.4460   31.2790   36.8050 O   0  0  0  0  0  0  0  0  0  0  0  0
   40.5930   30.8220   36.6010 H   0  0  0  0  0  0  0  0  0  0  0  0
   42.4810   34.1580   36.4750 O   0  0  0  0  0  0  0  0  0  0  0  0
   41.6970   34.3580   35.9400 H   0  0  0  0  0  0  0  0  0  0  0  0
  1  6  1  0  0  0  0
  2  1  2  0  0  0  0
  2  3  1  0  0  0  0
  3  4  2  0  0  0  0
  4  5  1  0  0  0  0
  5  7  1  0  0  0  0
  6  5  2  0  0  0  0
  7  8  1  0  0  0  0
  7 12  1  0  0  0  0
  8 17  1  0  0  0  0
  8  9  1  0  0  0  0
  9 19  1  0  0  0  0
  9 10  1  0  0  0  0
 10 21  1  0  0  0  0
 10 20  1  0  0  0  0
 11 22  1  0  0  0  0
 11 10  1  0  0  0  0
 12 24  1  1  0  0  0
 12 11  1  0  0  0  0
 13  1  1  0  0  0  0
 14  2  1  0  0  0  0
 15  3  1  0  0  0  0
 16  8  1  0  0  0  0
 18  9  1  0  0  0  0
 23 11  1  0  0  0  0
 26 27  1  0  0  0  0
 26 25  1  0  0  0  0
 27 12  1  0  0  0  0
 28 32  1  0  0  0  0
 28 27  2  0  0  0  0
 29 28  1  0  0  0  0
 30 29  2  0  0  0  0
 30 31  1  0  0  0  0
 31 26  2  0  0  0  0
 33 29  1  0  0  0  0
 34 30  1  0  0  0  0
 35 40  1  6  0  0  0
 35 39  1  0  0  0  0
 35 36  1  0  0  0  0
 36 31  1  6  0  0  0
 36 37  1  0  0  0  0
 38 37  1  0  0  0  0
 39 42  1  6  0  0  0
 39 38  1  0  0  0  0
 41 40  1  0  0  0  0
 43 42  1  0  0  0  0
M  END
>  <minimizedAffinity>
-6.29198933

$$$$

 OpenBabel03242517243D

 43 46  0  0  1  0  0  0  0  0999 V2000
   38.6530   24.3310   38.9000 C   0  0  0  0  0  0  0  0  0  0  0  0
   38.9210   24.0890   40.2640 C   0  0  0  0  0  0  0  0  0  0  0  0
   38.2690   24.8840   41.2300 C   0  0  0  0  0  0  0  0  0  0  0  0
   37.4160   25.8420   40.7830 N   0  0  0  0  0  0  0  0  0  0  0  0
   37.1830   26.0470   39.4660 C   0  0  0  0  0  0  0  0  0  0  0  0
   37.8030   25.2890   38.5210 N   0  0  0  0  0  0  0  0  0  0  0  0
   36.2660   27.0800   39.0980 N   0  0  0  0  0  0  0  0  0  0  0  0
   35.8180   27.0680   37.7070 C   0  0  0  0  0  0  0  0  0  0  0  0
   35.1880   28.3300   37.2450 C   0  0  0  0  0  0  0  0  0  0  0  0
   34.4170   28.9700   38.3520 C   0  0  0  0  0  0  0  0  0  0  0  0
   35.4080   29.3230   39.4190 C   0  0  0  0  0  0  0  0  0  0  0  0
   35.8350   28.0540   40.0680 C   0  0  2  0  0  0  0  0  0  0  0  0
   39.1920   23.6800   38.2240 H   0  0  0  0  0  0  0  0  0  0  0  0
   39.5860   23.3450   40.6260 H   0  0  0  0  0  0  0  0  0  0  0  0
   38.4420   24.7370   42.2870 H   0  0  0  0  0  0  0  0  0  0  0  0
   36.7300   26.8700   37.0880 H   0  0  0  0  0  0  0  0  0  0  0  0
   35.1350   26.2140   37.5260 H   0  0  0  0  0  0  0  0  0  0  0  0
   36.0150   29.0230   36.9550 H   0  0  0  0  0  0  0  0  0  0  0  0
   34.5630   28.0960   36.3630 H   0  0  0  0  0  0  0  0  0  0  0  0
   33.9850   29.9270   37.9790 H   0  0  0  0  0  0  0  0  0  0  0  0
   33.6460   28.2580   38.6850 H   0  0  0  0  0  0  0  0  0  0  0  0
   34.9000   29.9700   40.1580 H   0  0  0  0  0  0  0  0  0  0  0  0
   36.2830   29.8050   38.9530 H   0  0  0  0  0  0  0  0  0  0  0  0
   34.9270   27.5980   40.5570 H   0  0  0  0  0  0  0  0  0  0  0  0
   38.4670   29.1680   39.7800 F   0  0  0  0  0  0  0  0  0  0  0  0
   38.0790   28.8150   41.0360 C   0  0  0  0  0  0  0  0  0  0  0  0
   36.7980   28.2740   41.1840 C   0  0  0  0  0  0  0  0  0  0  0  0
   36.4400   27.9280   42.4780 C   0  0  0  0  0  0  0  0  0  0  0  0
   37.2660   28.0940   43.5670 C   0  0  0  0  0  0  0  0  0  0  0  0
   38.5280   28.6340   43.3810 C   0  0  0  0  0  0  0  0  0  0  0  0
   38.9070   28.9830   42.1170 C   0  0  0  0  0  0  0  0  0  0  0  0
   35.4430   27.5030   42.6180 H   0  0  0  0  0  0  0  0  0  0  0  0
   36.8830   27.7900   44.5300 H   0  0  0  0  0  0  0  0  0  0  0  0
   39.1790   28.7640   44.2420 H   0  0  0  0  0  0  0  0  0  0  0  0
   40.3740   30.9030   42.6860 C   0  0  1  0  0  3  0  0  0  0  0  0
   40.2580   29.5530   41.9660 C   0  0  1  0  0  3  0  0  0  0  0  0
   41.2310   28.8240   42.6180 O   0  0  0  0  0  0  0  0  0  0  0  0
   42.3270   29.6410   42.7480 C   0  0  0  0  0  2  0  0  0  0  0  0
   41.8920   31.0740   42.5470 C   0  0  2  0  0  3  0  0  0  0  0  0
   39.6860   31.9100   42.0330 O   0  0  0  0  0  0  0  0  0  0  0  0
   38.7480   31.8550   42.3440 H   0  0  0  0  0  0  0  0  0  0  0  0
   42.4220   31.9660   43.4390 O   0  0  0  0  0  0  0  0  0  0  0  0
   41.9630   32.0840   44.2850 H   0  0  0  0  0  0  0  0  0  0  0  0
  1  2  1  0  0  0  0
  2 14  1  0  0  0  0
  2  3  2  0  0  0  0
  3 15  1  0  0  0  0
  4  3  1  0  0  0  0
  5  4  2  0  0  0  0
  6  1  2  0  0  0  0
  6  5  1  0  0  0  0
  7  5  1  0  0  0  0
  7 12  1  0  0  0  0
  8  7  1  0  0  0  0
  9  8  1  0  0  0  0
  9 10  1  0  0  0  0
 10 21  1  0  0  0  0
 10 11  1  0  0  0  0
 11 12  1  0  0  0  0
 11 22  1  0  0  0  0
 12 24  1  1  0  0  0
 12 27  1  0  0  0  0
 13  1  1  0  0  0  0
 16  8  1  0  0  0  0
 17  8  1  0  0  0  0
 18  9  1  0  0  0  0
 19  9  1  0  0  0  0
 20 10  1  0  0  0  0
 23 11  1  0  0  0  0
 25 26  1  0  0  0  0
 26 27  2  0  0  0  0
 26 31  1  0  0  0  0
 27 28  1  0  0  0  0
 28 32  1  0  0  0  0
 28 29  2  0  0  0  0
 29 33  1  0  0  0  0
 30 29  1  0  0  0  0
 30 34  1  0  0  0  0
 31 30  2  0  0  0  0
 35 40  1  6  0  0  0
 36 31  1  1  0  0  0
 36 37  1  0  0  0  0
 36 35  1  0  0  0  0
 37 38  1  0  0  0  0
 39 35  1  0  0  0  0
 39 38  1  0  0  0  0
 39 42  1  1  0  0  0
 40 41  1  0  0  0  0
 42 43  1  0  0  0  0
M  END
>  <minimizedAffinity>
-6.21348429

$$$$

 OpenBabel03242517243D

 43 46  0  0  1  0  0  0  0  0999 V2000
   35.3550   26.5040   36.9950 C   0  0  0  0  0  0  0  0  0  0  0  0
   35.7570   27.7300   36.4250 C   0  0  0  0  0  0  0  0  0  0  0  0
   36.6670   28.5390   37.1380 C   0  0  0  0  0  0  0  0  0  0  0  0
   37.1040   28.0810   38.3410 N   0  0  0  0  0  0  0  0  0  0  0  0
   36.6970   26.8990   38.8570 C   0  0  0  0  0  0  0  0  0  0  0  0
   35.8190   26.1070   38.1830 N   0  0  0  0  0  0  0  0  0  0  0  0
   37.2160   26.5080   40.1300 N   0  0  0  0  0  0  0  0  0  0  0  0
   36.9940   25.1130   40.5070 C   0  0  0  0  0  0  0  0  0  0  0  0
   37.1880   24.8190   41.9480 C   0  0  0  0  0  0  0  0  0  0  0  0
   38.2860   25.6580   42.5140 C   0  0  0  0  0  0  0  0  0  0  0  0
   37.8400   27.0840   42.3990 C   0  0  0  0  0  0  0  0  0  0  0  0
   37.9100   27.4580   40.9610 C   0  0  2  0  0  0  0  0  0  0  0  0
   34.6570   25.9440   36.3870 H   0  0  0  0  0  0  0  0  0  0  0  0
   35.4230   28.0990   35.4870 H   0  0  0  0  0  0  0  0  0  0  0  0
   37.0050   29.4870   36.7440 H   0  0  0  0  0  0  0  0  0  0  0  0
   35.9340   24.8820   40.2290 H   0  0  0  0  0  0  0  0  0  0  0  0
   37.6240   24.4400   39.8930 H   0  0  0  0  0  0  0  0  0  0  0  0
   36.2400   25.0940   42.4710 H   0  0  0  0  0  0  0  0  0  0  0  0
   37.3770   23.7350   42.0530 H   0  0  0  0  0  0  0  0  0  0  0  0
   38.3830   25.4340   43.6010 H   0  0  0  0  0  0  0  0  0  0  0  0
   39.2070   25.4380   41.9520 H   0  0  0  0  0  0  0  0  0  0  0  0
   38.5410   27.7100   42.9840 H   0  0  0  0  0  0  0  0  0  0  0  0
   36.7980   27.1650   42.7450 H   0  0  0  0  0  0  0  0  0  0  0  0
   38.9900   27.3920   40.6420 H   0  0  0  0  0  0  0  0  0  0  0  0
   39.6860   29.5010   39.9960 F   0  0  0  0  0  0  0  0  0  0  0  0
   38.3990   29.8680   40.2480 C   0  0  0  0  0  0  0  0  0  0  0  0
   37.5280   28.8780   40.7160 C   0  0  0  0  0  0  0  0  0  0  0  0
   36.2270   29.2910   40.9590 C   0  0  0  0  0  0  0  0  0  0  0  0
   35.7890   30.5820   40.7630 C   0  0  0  0  0  0  0  0  0  0  0  0
   36.6800   31.5350   40.2970 C   0  0  0  0  0  0  0  0  0  0  0  0
   37.9680   31.1550   40.0510 C   0  0  0  0  0  0  0  0  0  0  0  0
   35.5290   28.5340   41.3250 H   0  0  0  0  0  0  0  0  0  0  0  0
   34.7530   30.7920   40.9850 H   0  0  0  0  0  0  0  0  0  0  0  0
   36.3320   32.5530   40.1430 H   0  0  0  0  0  0  0  0  0  0  0  0
   39.7070   32.8030   40.7020 C   0  0  1  0  0  3  0  0  0  0  0  0
   38.8820   32.2020   39.5570 C   0  0  1  0  0  3  0  0  0  0  0  0
   39.8820   31.7100   38.7450 O   0  0  0  0  0  0  0  0  0  0  0  0
   40.8630   32.6680   38.6890 C   0  0  0  0  0  2  0  0  0  0  0  0
   40.6740   33.6260   39.8420 C   0  0  2  0  0  3  0  0  0  0  0  0
   38.9490   33.6110   41.5320 O   0  0  0  0  0  0  0  0  0  0  0  0
   38.5210   33.0100   42.1910 H   0  0  0  0  0  0  0  0  0  0  0  0
   41.8240   33.9740   40.4960 O   0  0  0  0  0  0  0  0  0  0  0  0
   42.1320   33.3890   41.2060 H   0  0  0  0  0  0  0  0  0  0  0  0
  1  6  1  0  0  0  0
  2  1  2  0  0  0  0
  2  3  1  0  0  0  0
  3  4  2  0  0  0  0
  4  5  1  0  0  0  0
  5  7  1  0  0  0  0
  6  5  2  0  0  0  0
  7  8  1  0  0  0  0
  7 12  1  0  0  0  0
  8  9  1  0  0  0  0
  9 19  1  0  0  0  0
  9 18  1  0  0  0  0
  9 10  1  0  0  0  0
 10 20  1  0  0  0  0
 11 10  1  0  0  0  0
 11 23  1  0  0  0  0
 11 22  1  0  0  0  0
 12 24  1  6  0  0  0
 12 11  1  0  0  0  0
 13  1  1  0  0  0  0
 14  2  1  0  0  0  0
 15  3  1  0  0  0  0
 16  8  1  0  0  0  0
 17  8  1  0  0  0  0
 21 10  1  0  0  0  0
 25 26  1  0  0  0  0
 26 27  1  0  0  0  0
 27 28  2  0  0  0  0
 27 12  1  0  0  0  0
 28 32  1  0  0  0  0
 29 28  1  0  0  0  0
 29 33  1  0  0  0  0
 30 29  2  0  0  0  0
 31 26  2  0  0  0  0
 31 30  1  0  0  0  0
 34 30  1  0  0  0  0
 35 40  1  1  0  0  0
 36 31  1  1  0  0  0
 36 35  1  0  0  0  0
 37 36  1  0  0  0  0
 38 37  1  0  0  0  0
 38 39  1  0  0  0  0
 39 42  1  1  0  0  0
 39 35  1  0  0  0  0
 40 41  1  0  0  0  0
 42 43  1  0  0  0  0
M  END
>  <minimizedAffinity>
-6.07136059

$$$$

 OpenBabel03242517243D

 43 46  0  0  1  0  0  0  0  0999 V2000
   41.3030   25.5670   37.8640 C   0  0  0  0  0  0  0  0  0  0  0  0
   42.1820   26.5510   38.3640 C   0  0  0  0  0  0  0  0  0  0  0  0
   41.9320   27.0900   39.6440 C   0  0  0  0  0  0  0  0  0  0  0  0
   40.8510   26.6240   40.3220 N   0  0  0  0  0  0  0  0  0  0  0  0
   40.0280   25.6790   39.8110 C   0  0  0  0  0  0  0  0  0  0  0  0
   40.2540   25.1490   38.5780 N   0  0  0  0  0  0  0  0  0  0  0  0
   38.9170   25.2550   40.6030 N   0  0  0  0  0  0  0  0  0  0  0  0
   38.2410   24.0400   40.1550 C   0  0  0  0  0  0  0  0  0  0  0  0
   36.8940   23.8250   40.7380 C   0  0  0  0  0  0  0  0  0  0  0  0
   36.8430   24.3220   42.1450 C   0  0  0  0  0  0  0  0  0  0  0  0
   37.0820   25.8000   42.0890 C   0  0  0  0  0  0  0  0  0  0  0  0
   38.5190   26.0070   41.7660 C   0  0  2  0  0  0  0  0  0  0  0  0
   41.5630   25.2050   36.8780 H   0  0  0  0  0  0  0  0  0  0  0  0
   43.0300   26.9230   37.8460 H   0  0  0  0  0  0  0  0  0  0  0  0
   42.5770   27.8460   40.0710 H   0  0  0  0  0  0  0  0  0  0  0  0
   38.1450   24.1310   39.0420 H   0  0  0  0  0  0  0  0  0  0  0  0
   38.8780   23.1520   40.3340 H   0  0  0  0  0  0  0  0  0  0  0  0
   36.1730   24.4290   40.1340 H   0  0  0  0  0  0  0  0  0  0  0  0
   36.6510   22.7500   40.6510 H   0  0  0  0  0  0  0  0  0  0  0  0
   35.8110   24.1730   42.5390 H   0  0  0  0  0  0  0  0  0  0  0  0
   37.6020   23.7750   42.7260 H   0  0  0  0  0  0  0  0  0  0  0  0
   36.8570   26.2220   43.0860 H   0  0  0  0  0  0  0  0  0  0  0  0
   36.4630   26.2340   41.2870 H   0  0  0  0  0  0  0  0  0  0  0  0
   39.1260   25.5770   42.6140 H   0  0  0  0  0  0  0  0  0  0  0  0
   37.5030   27.9210   39.8800 F   0  0  0  0  0  0  0  0  0  0  0  0
   38.3990   28.3740   40.7990 C   0  0  0  0  0  0  0  0  0  0  0  0
   38.8970   27.4480   41.7220 C   0  0  0  0  0  0  0  0  0  0  0  0
   39.8070   27.9490   42.6410 C   0  0  0  0  0  0  0  0  0  0  0  0
   40.2140   29.2640   42.6710 C   0  0  0  0  0  0  0  0  0  0  0  0
   39.6980   30.1520   41.7410 C   0  0  0  0  0  0  0  0  0  0  0  0
   38.8010   29.6850   40.8240 C   0  0  0  0  0  0  0  0  0  0  0  0
   40.2090   27.2430   43.3720 H   0  0  0  0  0  0  0  0  0  0  0  0
   40.9270   29.5440   43.4320 H   0  0  0  0  0  0  0  0  0  0  0  0
   40.0210   31.1900   41.7660 H   0  0  0  0  0  0  0  0  0  0  0  0
   37.3900   31.7080   40.5420 C   0  0  1  0  0  3  0  0  0  0  0  0
   38.2790   30.6650   39.8530 C   0  0  1  0  0  3  0  0  0  0  0  0
   39.2610   31.4720   39.3160 O   0  0  0  0  0  0  0  0  0  0  0  0
   38.6310   32.5630   38.7700 C   0  0  0  0  0  2  0  0  0  0  0  0
   37.2390   32.6610   39.3500 C   0  0  2  0  0  3  0  0  0  0  0  0
   36.1700   31.1860   40.9350 O   0  0  0  0  0  0  0  0  0  0  0  0
   36.3180   30.7670   41.8180 H   0  0  0  0  0  0  0  0  0  0  0  0
   36.8520   33.9240   39.7080 O   0  0  0  0  0  0  0  0  0  0  0  0
   37.1000   34.2360   40.5920 H   0  0  0  0  0  0  0  0  0  0  0  0
  1  2  2  0  0  0  0
  1  6  1  0  0  0  0
  2  3  1  0  0  0  0
  3 15  1  0  0  0  0
  3  4  2  0  0  0  0
  5  4  1  0  0  0  0
  5  7  1  0  0  0  0
  6  5  2  0  0  0  0
  7 12  1  0  0  0  0
  8 17  1  0  0  0  0
  8  7  1  0  0  0  0
  8  9  1  0  0  0  0
  9 10  1  0  0  0  0
 10 20  1  0  0  0  0
 10 21  1  0  0  0  0
 11 10  1  0  0  0  0
 11 22  1  0  0  0  0
 12 11  1  0  0  0  0
 12 24  1  1  0  0  0
 13  1  1  0  0  0  0
 14  2  1  0  0  0  0
 16  8  1  0  0  0  0
 18  9  1  0  0  0  0
 19  9  1  0  0  0  0
 23 11  1  0  0  0  0
 25 26  1  0  0  0  0
 26 31  2  0  0  0  0
 26 27  1  0  0  0  0
 27 12  1  0  0  0  0
 27 28  2  0  0  0  0
 28 29  1  0  0  0  0
 28 32  1  0  0  0  0
 29 33  1  0  0  0  0
 30 34  1  0  0  0  0
 30 29  2  0  0  0  0
 31 30  1  0  0  0  0
 35 40  1  6  0  0  0
 36 35  1  0  0  0  0
 36 31  1  1  0  0  0
 37 36  1  0  0  0  0
 38 37  1  0  0  0  0
 38 39  1  0  0  0  0
 39 42  1  1  0  0  0
 39 35  1  0  0  0  0
 40 41  1  0  0  0  0
 42 43  1  0  0  0  0
M  END
>  <minimizedAffinity>
-6.02119589

$$$$
