
 OpenBabel03252506043D

 43 47  0  0  1  0  0  0  0  0999 V2000
   44.8850   36.0580   43.1570 Cl  0  0  0  0  0  0  0  0  0  0  0  0
   45.6140   34.8060   44.1100 C   0  0  0  0  0  0  0  0  0  0  0  0
   46.7300   34.1470   43.6620 C   0  0  0  0  0  0  0  0  0  0  0  0
   47.2340   33.1650   44.4990 C   0  0  0  0  0  0  0  0  0  0  0  0
   46.6870   32.8260   45.7200 C   0  0  0  0  0  0  0  0  0  0  0  0
   45.5780   33.5040   46.1310 C   0  0  0  0  0  0  0  0  0  0  0  0
   44.9170   33.0350   47.6940 Cl  0  0  0  0  0  0  0  0  0  0  0  0
   45.0410   34.4820   45.3430 C   0  0  0  0  0  0  0  0  0  0  0  0
   48.1230   32.6470   44.1300 H   0  0  0  0  0  0  0  0  0  0  0  0
   44.1530   35.0000   45.7080 H   0  0  0  0  0  0  0  0  0  0  0  0
   47.3650   31.7570   46.4620 C   0  0  0  0  0  0  0  0  0  0  0  0
   47.4960   30.4720   45.9720 C   0  0  0  0  0  0  0  0  0  0  0  0
   48.1300   29.4520   46.6540 C   0  0  0  0  0  0  0  0  0  0  0  0
   48.6680   29.7110   47.8940 C   0  0  0  0  0  0  0  0  0  0  0  0
   49.2820   28.7030   48.5430 N   0  0  0  0  0  0  0  0  0  0  0  0
   49.8390   28.8690   49.7670 C   0  0  0  0  0  0  0  0  0  0  0  0
   49.7460   30.1300   50.3190 C   0  0  0  0  0  0  0  0  0  0  0  0
   49.1190   31.1580   49.6560 C   0  0  0  0  0  0  0  0  0  0  0  0
   48.5590   30.9740   48.4170 C   0  0  0  0  0  0  0  0  0  0  0  0
   47.9230   31.9750   47.7180 C   0  0  0  0  0  0  0  0  0  0  0  0
   47.0720   30.2720   44.9980 H   0  0  0  0  0  0  0  0  0  0  0  0
   48.2110   28.4580   46.2330 H   0  0  0  0  0  0  0  0  0  0  0  0
   50.3240   28.0680   50.2750 H   0  0  0  0  0  0  0  0  0  0  0  0
   50.1560   30.3640   51.2860 H   0  0  0  0  0  0  0  0  0  0  0  0
   49.0480   32.1520   50.0980 H   0  0  0  0  0  0  0  0  0  0  0  0
   47.8550   32.9720   48.1680 H   0  0  0  0  0  0  0  0  0  0  0  0
   48.9060   35.6850   41.1800 C   0  0  0  0  0  0  0  0  0  0  0  0
   48.5560   35.0690   39.9910 C   0  0  0  0  0  0  0  0  0  0  0  0
   47.5400   34.0930   40.0430 C   0  0  0  0  0  0  0  0  0  0  0  0
   46.9890   33.8370   41.2450 N   0  0  0  0  0  0  0  0  0  0  0  0
   47.3540   34.4560   42.3860 C   0  0  0  0  0  0  0  0  0  0  0  0
   48.3210   35.3880   42.3520 N   0  0  0  0  0  0  0  0  0  0  0  0
   49.6890   36.4400   41.1570 H   0  0  0  0  0  0  0  0  0  0  0  0
   49.0310   35.3150   39.0670 H   0  0  0  0  0  0  0  0  0  0  0  0
   47.7060   34.1040   37.5460 C   0  0  2  0  0  0  0  0  0  0  0  0
   47.1450   33.4200   38.7900 C   0  0  1  0  0  0  0  0  0  0  0  0
   47.6050   32.1140   38.7030 O   0  0  0  0  0  0  0  0  0  0  0  0
   47.6680   31.7740   37.3700 C   0  0  0  0  0  0  0  0  0  0  0  0
   47.4160   33.0010   36.5410 C   0  0  2  0  0  0  0  0  0  0  0  0
   49.0880   34.2410   37.6650 O   0  0  0  0  0  0  0  0  0  0  0  0
   49.4500   34.4400   36.7510 H   0  0  0  0  0  0  0  0  0  0  0  0
   48.2110   33.0960   35.4090 O   0  0  0  0  0  0  0  0  0  0  0  0
   47.9590   32.3210   34.8450 H   0  0  0  0  0  0  0  0  0  0  0  0
  1  2  1  0  0  0  0
  2  8  1  0  0  0  0
  3  2  2  0  0  0  0
  3  4  1  0  0  0  0
  4  5  2  0  0  0  0
  5  6  1  0  0  0  0
  5 11  1  0  0  0  0
  6  7  1  0  0  0  0
  8 10  1  0  0  0  0
  8  6  2  0  0  0  0
  9  4  1  0  0  0  0
 11 20  1  0  0  0  0
 12 11  2  0  0  0  0
 12 13  1  0  0  0  0
 13 14  2  0  0  0  0
 14 19  1  0  0  0  0
 14 15  1  0  0  0  0
 15 16  2  0  0  0  0
 16 23  1  0  0  0  0
 16 17  1  0  0  0  0
 17 24  1  0  0  0  0
 18 25  1  0  0  0  0
 18 17  2  0  0  0  0
 19 18  1  0  0  0  0
 20 26  1  0  0  0  0
 20 19  2  0  0  0  0
 21 12  1  0  0  0  0
 22 13  1  0  0  0  0
 27 32  1  0  0  0  0
 28 29  1  0  0  0  0
 28 27  2  0  0  0  0
 29 30  2  0  0  0  0
 30 31  1  0  0  0  0
 31  3  1  0  0  0  0
 32 31  2  0  0  0  0
 33 27  1  0  0  0  0
 34 28  1  0  0  0  0
 35 40  1  1  0  0  0
 35 36  1  0  0  0  0
 36 29  1  1  0  0  0
 37 36  1  0  0  0  0
 38 37  1  0  0  0  0
 39 42  1  6  0  0  0
 39 38  1  0  0  0  0
 39 35  1  0  0  0  0
 41 40  1  0  0  0  0
 43 42  1  0  0  0  0
M  END
>  <minimizedAffinity>
-7.78825712

>  <minimizedRMSD>
0.408839673

$$$$
