
 OpenBabel03252505153D

 25 27  0  0  1  0  0  0  0  0999 V2000
   44.5950   35.1720   45.8900 C   0  0  0  0  0  0  0  0  0  0  0  0
   45.2450   35.0780   44.6500 C   0  0  0  0  0  0  0  0  0  0  0  0
   45.9570   33.8980   44.4560 C   0  0  0  0  0  0  0  0  0  0  0  0
   45.9850   32.9360   45.4400 N   0  0  0  0  0  0  0  0  0  0  0  0
   45.3350   33.0880   46.6160 C   0  0  0  0  0  0  0  0  0  0  0  0
   44.6430   34.2200   46.8190 N   0  0  0  0  0  0  0  0  0  0  0  0
   44.0350   36.0580   46.0880 H   0  0  0  0  0  0  0  0  0  0  0  0
   45.2280   35.8210   43.8800 H   0  0  0  0  0  0  0  0  0  0  0  0
   46.6940   33.6500   43.1680 C   0  0  0  0  0  0  0  0  0  0  0  0
   46.7430   34.8730   42.2810 C   0  0  0  0  0  0  0  0  0  0  0  0
   47.9940   34.2820   42.9850 C   0  0  0  0  0  0  0  0  0  0  0  0
   46.4880   32.6730   42.6680 H   0  0  0  0  0  0  0  0  0  0  0  0
   46.6430   34.6520   41.2050 H   0  0  0  0  0  0  0  0  0  0  0  0
   46.3430   35.8090   42.6730 H   0  0  0  0  0  0  0  0  0  0  0  0
   48.7400   33.8350   42.2750 H   0  0  0  0  0  0  0  0  0  0  0  0
   48.4110   34.9580   43.7500 H   0  0  0  0  0  0  0  0  0  0  0  0
   45.9830   32.3410   48.8880 C   0  0  2  0  0  3  0  0  0  0  0  0
   45.5170   31.9140   47.5090 C   0  0  2  0  0  3  0  0  0  0  0  0
   46.4820   31.0580   46.9930 O   0  0  0  0  0  0  0  0  0  0  0  0
   47.1290   30.4810   48.0840 C   0  0  0  0  0  2  0  0  0  0  0  0
   47.3740   31.7370   48.9270 C   0  0  1  0  0  3  0  0  0  0  0  0
   45.2400   31.7280   49.8940 O   0  0  0  0  0  0  0  0  0  0  0  0
   44.3040   32.0640   49.9250 H   0  0  0  0  0  0  0  0  0  0  0  0
   48.2120   32.5870   48.2110 O   0  0  0  0  0  0  0  0  0  0  0  0
   48.8110   32.0030   47.6490 H   0  0  0  0  0  0  0  0  0  0  0  0
  1  7  1  0  0  0  0
  1  6  1  0  0  0  0
  2  1  2  0  0  0  0
  3  2  1  0  0  0  0
  3  4  2  0  0  0  0
  4  5  1  0  0  0  0
  5  6  2  0  0  0  0
  8  2  1  0  0  0  0
  9  3  1  0  0  0  0
 10 14  1  0  0  0  0
 10 11  1  0  0  0  0
 10  9  1  0  0  0  0
 11  9  1  0  0  0  0
 11 16  1  0  0  0  0
 12  9  1  0  0  0  0
 13 10  1  0  0  0  0
 15 11  1  0  0  0  0
 17 21  1  0  0  0  0
 17 22  1  1  0  0  0
 18  5  1  6  0  0  0
 18 17  1  0  0  0  0
 19 18  1  0  0  0  0
 19 20  1  0  0  0  0
 20 21  1  0  0  0  0
 21 24  1  6  0  0  0
 22 23  1  0  0  0  0
 25 24  1  0  0  0  0
M  END
>  <minimizedAffinity>
-4.68028069

>  <minimizedRMSD>
1.92944455

$$$$
