
 OpenBabel03252503393D

 41 44  0  0  1  0  0  0  0  0999 V2000
   36.6060   28.0930   39.1640 C   0  0  1  0  0  0  0  0  0  0  0  0
   35.5220   27.4720   38.1840 C   0  0  0  0  0  0  0  0  0  0  0  0
   34.6430   28.5850   37.6770 C   0  0  0  0  0  0  0  0  0  0  0  0
   33.7570   29.1370   38.7690 C   0  0  0  0  0  0  0  0  0  0  0  0
   34.4850   29.0590   40.0770 C   0  0  0  0  0  0  0  0  0  0  0  0
   35.9720   29.1820   39.9330 C   0  0  2  0  0  0  0  0  0  0  0  0
   37.3800   28.3710   38.4210 H   0  0  0  0  0  0  0  0  0  0  0  0
   36.0090   26.9200   37.3900 H   0  0  0  0  0  0  0  0  0  0  0  0
   34.9070   26.8480   38.8650 H   0  0  0  0  0  0  0  0  0  0  0  0
   33.9570   28.1000   36.9510 H   0  0  0  0  0  0  0  0  0  0  0  0
   35.1820   29.3480   37.0950 H   0  0  0  0  0  0  0  0  0  0  0  0
   32.8100   28.5650   38.8700 H   0  0  0  0  0  0  0  0  0  0  0  0
   33.4770   30.1600   38.4690 H   0  0  0  0  0  0  0  0  0  0  0  0
   34.1400   29.8050   40.8280 H   0  0  0  0  0  0  0  0  0  0  0  0
   34.3030   28.0620   40.5540 H   0  0  0  0  0  0  0  0  0  0  0  0
   36.3370   29.0300   40.9960 H   0  0  0  0  0  0  0  0  0  0  0  0
   37.0760   26.9360   39.9890 C   0  0  0  0  0  0  0  0  0  0  0  0
   37.0870   26.8120   41.3540 C   0  0  0  0  0  0  0  0  0  0  0  0
   37.5390   25.5830   41.8450 C   0  0  0  0  0  0  0  0  0  0  0  0
   37.9330   24.5970   40.9780 N   0  0  0  0  0  0  0  0  0  0  0  0
   37.8950   24.7780   39.6520 C   0  0  0  0  0  0  0  0  0  0  0  0
   37.4590   25.9700   39.1720 N   0  0  0  0  0  0  0  0  0  0  0  0
   37.5530   25.4790   42.9220 H   0  0  0  0  0  0  0  0  0  0  0  0
   38.2310   23.9220   39.0800 H   0  0  0  0  0  0  0  0  0  0  0  0
   36.7490   27.9120   42.3110 C   0  0  0  0  0  0  0  0  0  0  0  0
   36.3780   27.4430   43.6760 C   0  0  0  0  0  0  0  0  0  0  0  0
   37.6960   28.1680   43.4610 C   0  0  0  0  0  0  0  0  0  0  0  0
   35.9050   28.5240   41.9740 H   0  0  0  0  0  0  0  0  0  0  0  0
   35.6700   28.0450   44.2620 H   0  0  0  0  0  0  0  0  0  0  0  0
   36.3540   26.3720   43.8540 H   0  0  0  0  0  0  0  0  0  0  0  0
   38.5750   27.4830   43.4970 H   0  0  0  0  0  0  0  0  0  0  0  0
   37.8210   29.2050   43.8320 H   0  0  0  0  0  0  0  0  0  0  0  0
   36.7780   31.4550   40.7010 C   0  0  1  0  0  3  0  0  0  0  0  0
   36.4640   30.5500   39.5720 C   0  0  1  0  0  3  0  0  0  0  0  0
   37.7500   30.3860   39.0030 O   0  0  0  0  0  0  0  0  0  0  0  0
   38.6390   30.2250   40.0390 C   0  0  0  0  0  2  0  0  0  0  0  0
   38.1390   31.0620   41.2000 C   0  0  1  0  0  3  0  0  0  0  0  0
   36.8840   32.7570   40.1620 O   0  0  0  0  0  0  0  0  0  0  0  0
   36.1340   32.9570   39.5480 H   0  0  0  0  0  0  0  0  0  0  0  0
   38.9720   32.1730   41.3500 O   0  0  0  0  0  0  0  0  0  0  0  0
   38.9510   32.6540   40.4840 H   0  0  0  0  0  0  0  0  0  0  0  0
  1  7  1  6  0  0  0
  1  6  1  0  0  0  0
  1 17  1  0  0  0  0
  2  9  1  0  0  0  0
  2  1  1  0  0  0  0
  3  2  1  0  0  0  0
  3  4  1  0  0  0  0
  4 12  1  0  0  0  0
  4  5  1  0  0  0  0
  5 15  1  0  0  0  0
  5 14  1  0  0  0  0
  6  5  1  0  0  0  0
  6 16  1  1  0  0  0
  8  2  1  0  0  0  0
 10  3  1  0  0  0  0
 11  3  1  0  0  0  0
 13  4  1  0  0  0  0
 17 18  1  0  0  0  0
 18 19  2  0  0  0  0
 18 25  1  0  0  0  0
 19 23  1  0  0  0  0
 20 19  1  0  0  0  0
 21 20  2  0  0  0  0
 22 21  1  0  0  0  0
 22 17  2  0  0  0  0
 24 21  1  0  0  0  0
 25 27  1  0  0  0  0
 25 26  1  0  0  0  0
 26 30  1  0  0  0  0
 26 29  1  0  0  0  0
 27 31  1  0  0  0  0
 27 26  1  0  0  0  0
 27 32  1  0  0  0  0
 28 25  1  0  0  0  0
 33 38  1  6  0  0  0
 33 37  1  0  0  0  0
 34 35  1  1  0  0  0
 34  6  1  0  0  0  0
 34 33  1  0  0  0  0
 35 36  1  0  0  0  0
 36 37  1  0  0  0  0
 37 40  1  6  0  0  0
 39 38  1  0  0  0  0
 41 40  1  0  0  0  0
M  END
>  <minimizedAffinity>
-6.08247709

$$$$

 OpenBabel03252503393D

 41 44  0  0  1  0  0  0  0  0999 V2000
   36.6000   27.9570   41.2150 C   0  0  1  0  0  0  0  0  0  0  0  0
   36.9350   27.4810   42.6920 C   0  0  0  0  0  0  0  0  0  0  0  0
   37.2700   28.6930   43.5200 C   0  0  0  0  0  0  0  0  0  0  0  0
   38.5920   29.2990   43.1100 C   0  0  0  0  0  0  0  0  0  0  0  0
   38.7830   29.1080   41.6370 C   0  0  0  0  0  0  0  0  0  0  0  0
   37.4930   29.0810   40.8730 C   0  0  2  0  0  0  0  0  0  0  0  0
   35.5200   28.1760   41.3380 H   0  0  0  0  0  0  0  0  0  0  0  0
   36.1090   26.9060   43.0940 H   0  0  0  0  0  0  0  0  0  0  0  0
   37.8720   26.9020   42.5560 H   0  0  0  0  0  0  0  0  0  0  0  0
   37.4250   28.3030   44.5490 H   0  0  0  0  0  0  0  0  0  0  0  0
   36.4430   29.4140   43.6090 H   0  0  0  0  0  0  0  0  0  0  0  0
   39.4500   28.8250   43.6320 H   0  0  0  0  0  0  0  0  0  0  0  0
   38.5730   30.3540   43.4290 H   0  0  0  0  0  0  0  0  0  0  0  0
   39.4550   29.8610   41.1690 H   0  0  0  0  0  0  0  0  0  0  0  0
   39.2760   28.1200   41.4430 H   0  0  0  0  0  0  0  0  0  0  0  0
   37.8370   28.8600   39.8150 H   0  0  0  0  0  0  0  0  0  0  0  0
   36.7840   26.7330   40.3730 C   0  0  0  0  0  0  0  0  0  0  0  0
   37.5100   25.6050   40.6570 C   0  0  0  0  0  0  0  0  0  0  0  0
   37.4540   24.5930   39.6940 C   0  0  0  0  0  0  0  0  0  0  0  0
   36.7070   24.7630   38.5580 N   0  0  0  0  0  0  0  0  0  0  0  0
   36.0160   25.8880   38.3390 C   0  0  0  0  0  0  0  0  0  0  0  0
   36.0690   26.8740   39.2700 N   0  0  0  0  0  0  0  0  0  0  0  0
   38.0270   23.7000   39.9110 H   0  0  0  0  0  0  0  0  0  0  0  0
   35.4670   25.8950   37.4060 H   0  0  0  0  0  0  0  0  0  0  0  0
   38.4020   25.4450   41.8490 C   0  0  0  0  0  0  0  0  0  0  0  0
   39.1520   24.1580   41.8830 C   0  0  0  0  0  0  0  0  0  0  0  0
   39.8970   25.4570   41.6220 C   0  0  0  0  0  0  0  0  0  0  0  0
   37.8560   25.4890   42.7970 H   0  0  0  0  0  0  0  0  0  0  0  0
   39.4090   23.7280   42.8600 H   0  0  0  0  0  0  0  0  0  0  0  0
   38.9740   23.4470   41.0810 H   0  0  0  0  0  0  0  0  0  0  0  0
   40.2010   25.5710   40.5560 H   0  0  0  0  0  0  0  0  0  0  0  0
   40.5550   25.8810   42.4070 H   0  0  0  0  0  0  0  0  0  0  0  0
   37.6170   31.5420   40.2910 C   0  0  1  0  0  3  0  0  0  0  0  0
   36.7960   30.4010   40.7590 C   0  0  1  0  0  3  0  0  0  0  0  0
   35.8740   30.2870   39.6900 O   0  0  0  0  0  0  0  0  0  0  0  0
   36.5810   30.4420   38.5210 C   0  0  0  0  0  2  0  0  0  0  0  0
   37.7030   31.4220   38.7970 C   0  0  1  0  0  3  0  0  0  0  0  0
   36.8860   32.7160   40.5810 O   0  0  0  0  0  0  0  0  0  0  0  0
   36.5230   32.6990   41.5020 H   0  0  0  0  0  0  0  0  0  0  0  0
   37.4120   32.6350   38.1670 O   0  0  0  0  0  0  0  0  0  0  0  0
   36.5370   32.9300   38.5270 H   0  0  0  0  0  0  0  0  0  0  0  0
  1  7  1  6  0  0  0
  1  2  1  0  0  0  0
  2  8  1  0  0  0  0
  2  3  1  0  0  0  0
  3 11  1  0  0  0  0
  3 10  1  0  0  0  0
  4 13  1  0  0  0  0
  4  3  1  0  0  0  0
  4 12  1  0  0  0  0
  5  4  1  0  0  0  0
  6 16  1  6  0  0  0
  6  1  1  0  0  0  0
  6  5  1  0  0  0  0
  9  2  1  0  0  0  0
 14  5  1  0  0  0  0
 15  5  1  0  0  0  0
 17 18  1  0  0  0  0
 17  1  1  0  0  0  0
 18 25  1  0  0  0  0
 19 23  1  0  0  0  0
 19 18  2  0  0  0  0
 20 19  1  0  0  0  0
 21 20  2  0  0  0  0
 21 22  1  0  0  0  0
 22 17  2  0  0  0  0
 24 21  1  0  0  0  0
 25 26  1  0  0  0  0
 25 28  1  0  0  0  0
 26 29  1  0  0  0  0
 27 25  1  0  0  0  0
 27 26  1  0  0  0  0
 27 32  1  0  0  0  0
 30 26  1  0  0  0  0
 31 27  1  0  0  0  0
 33 38  1  6  0  0  0
 33 34  1  0  0  0  0
 34 35  1  6  0  0  0
 34  6  1  0  0  0  0
 36 37  1  0  0  0  0
 36 35  1  0  0  0  0
 37 40  1  6  0  0  0
 37 33  1  0  0  0  0
 38 39  1  0  0  0  0
 40 41  1  0  0  0  0
M  END
>  <minimizedAffinity>
-5.85086775

$$$$

 OpenBabel03252503393D

 41 44  0  0  1  0  0  0  0  0999 V2000
   37.7570   28.3580   40.3450 C   0  0  1  0  0  0  0  0  0  0  0  0
   36.3860   28.4210   41.1430 C   0  0  0  0  0  0  0  0  0  0  0  0
   35.5020   29.4530   40.4940 C   0  0  0  0  0  0  0  0  0  0  0  0
   36.0260   30.8530   40.7160 C   0  0  0  0  0  0  0  0  0  0  0  0
   37.5230   30.8160   40.7590 C   0  0  0  0  0  0  0  0  0  0  0  0
   38.1100   29.7250   39.9150 C   0  0  2  0  0  0  0  0  0  0  0  0
   37.4740   27.6280   39.5600 H   0  0  0  0  0  0  0  0  0  0  0  0
   35.9320   27.4380   41.1830 H   0  0  0  0  0  0  0  0  0  0  0  0
   36.6960   28.8220   42.1300 H   0  0  0  0  0  0  0  0  0  0  0  0
   34.5420   29.4000   41.0510 H   0  0  0  0  0  0  0  0  0  0  0  0
   35.2400   29.2220   39.4500 H   0  0  0  0  0  0  0  0  0  0  0  0
   35.6670   31.2880   41.6730 H   0  0  0  0  0  0  0  0  0  0  0  0
   35.6130   31.4810   39.9100 H   0  0  0  0  0  0  0  0  0  0  0  0
   38.0050   31.7780   40.4770 H   0  0  0  0  0  0  0  0  0  0  0  0
   37.8680   30.6150   41.8050 H   0  0  0  0  0  0  0  0  0  0  0  0
   39.2200   29.8140   40.1320 H   0  0  0  0  0  0  0  0  0  0  0  0
   38.7230   27.7340   41.3030 C   0  0  0  0  0  0  0  0  0  0  0  0
   38.8830   26.4070   41.6090 C   0  0  0  0  0  0  0  0  0  0  0  0
   39.9110   26.1150   42.5100 C   0  0  0  0  0  0  0  0  0  0  0  0
   40.6820   27.1230   43.0270 N   0  0  0  0  0  0  0  0  0  0  0  0
   40.4780   28.4020   42.6860 C   0  0  0  0  0  0  0  0  0  0  0  0
   39.4810   28.6900   41.8130 N   0  0  0  0  0  0  0  0  0  0  0  0
   40.0420   25.0690   42.7580 H   0  0  0  0  0  0  0  0  0  0  0  0
   41.1570   29.0990   43.1620 H   0  0  0  0  0  0  0  0  0  0  0  0
   37.9890   25.3090   41.1240 C   0  0  0  0  0  0  0  0  0  0  0  0
   38.2070   23.9990   41.8000 C   0  0  0  0  0  0  0  0  0  0  0  0
   36.9340   24.7830   42.0720 C   0  0  0  0  0  0  0  0  0  0  0  0
   38.1050   25.1080   40.0540 H   0  0  0  0  0  0  0  0  0  0  0  0
   38.0090   23.0790   41.2340 H   0  0  0  0  0  0  0  0  0  0  0  0
   38.9950   23.9400   42.5460 H   0  0  0  0  0  0  0  0  0  0  0  0
   36.9330   25.2670   43.0760 H   0  0  0  0  0  0  0  0  0  0  0  0
   35.9700   24.4280   41.6570 H   0  0  0  0  0  0  0  0  0  0  0  0
   38.1290   31.3430   37.9680 C   0  0  1  0  0  3  0  0  0  0  0  0
   38.0110   29.9430   38.4360 C   0  0  1  0  0  3  0  0  0  0  0  0
   39.1730   29.3760   37.8600 O   0  0  0  0  0  0  0  0  0  0  0  0
   40.1970   30.2780   38.0290 C   0  0  0  0  0  2  0  0  0  0  0  0
   39.5950   31.6670   37.9500 C   0  0  1  0  0  3  0  0  0  0  0  0
   37.6730   31.3650   36.6310 O   0  0  0  0  0  0  0  0  0  0  0  0
   36.8240   30.8690   36.5290 H   0  0  0  0  0  0  0  0  0  0  0  0
   39.9760   32.2580   36.7430 O   0  0  0  0  0  0  0  0  0  0  0  0
   39.6580   31.6530   36.0260 H   0  0  0  0  0  0  0  0  0  0  0  0
  1  7  1  6  0  0  0
  1  2  1  0  0  0  0
  1 17  1  0  0  0  0
  2  8  1  0  0  0  0
  2  9  1  0  0  0  0
  3  4  1  0  0  0  0
  3 10  1  0  0  0  0
  3  2  1  0  0  0  0
  4  5  1  0  0  0  0
  4 12  1  0  0  0  0
  5 15  1  0  0  0  0
  6 16  1  1  0  0  0
  6  1  1  0  0  0  0
  6  5  1  0  0  0  0
 11  3  1  0  0  0  0
 13  4  1  0  0  0  0
 14  5  1  0  0  0  0
 17 18  2  0  0  0  0
 17 22  1  0  0  0  0
 18 19  1  0  0  0  0
 19 23  1  0  0  0  0
 19 20  2  0  0  0  0
 21 20  1  0  0  0  0
 21 24  1  0  0  0  0
 22 21  2  0  0  0  0
 25 18  1  0  0  0  0
 25 26  1  0  0  0  0
 25 27  1  0  0  0  0
 26 27  1  0  0  0  0
 26 30  1  0  0  0  0
 27 31  1  0  0  0  0
 28 25  1  0  0  0  0
 29 26  1  0  0  0  0
 32 27  1  0  0  0  0
 33 38  1  6  0  0  0
 33 34  1  0  0  0  0
 34 35  1  6  0  0  0
 34  6  1  0  0  0  0
 35 36  1  0  0  0  0
 37 40  1  6  0  0  0
 37 33  1  0  0  0  0
 37 36  1  0  0  0  0
 39 38  1  0  0  0  0
 41 40  1  0  0  0  0
M  END
>  <minimizedAffinity>
-5.79695463

$$$$

 OpenBabel03252503393D

 41 44  0  0  1  0  0  0  0  0999 V2000
   37.9550   28.4830   39.5330 C   0  0  1  0  0  0  0  0  0  0  0  0
   36.7610   27.6700   38.8740 C   0  0  0  0  0  0  0  0  0  0  0  0
   36.4420   28.2880   37.5390 C   0  0  0  0  0  0  0  0  0  0  0  0
   35.8090   29.6510   37.6920 C   0  0  0  0  0  0  0  0  0  0  0  0
   36.3760   30.3210   38.9060 C   0  0  0  0  0  0  0  0  0  0  0  0
   37.7870   29.9110   39.2010 C   0  0  2  0  0  0  0  0  0  0  0  0
   38.8110   27.9450   39.0760 H   0  0  0  0  0  0  0  0  0  0  0  0
   37.0170   26.6200   38.8070 H   0  0  0  0  0  0  0  0  0  0  0  0
   35.9120   27.8910   39.5530 H   0  0  0  0  0  0  0  0  0  0  0  0
   35.6540   27.6380   37.1030 H   0  0  0  0  0  0  0  0  0  0  0  0
   37.2750   28.2470   36.8200 H   0  0  0  0  0  0  0  0  0  0  0  0
   34.7070   29.5890   37.8170 H   0  0  0  0  0  0  0  0  0  0  0  0
   35.9890   30.1960   36.7510 H   0  0  0  0  0  0  0  0  0  0  0  0
   36.3310   31.4320   38.8680 H   0  0  0  0  0  0  0  0  0  0  0  0
   35.7780   30.0380   39.8100 H   0  0  0  0  0  0  0  0  0  0  0  0
   38.0060   30.4560   40.1720 H   0  0  0  0  0  0  0  0  0  0  0  0
   37.8680   28.1650   40.9930 C   0  0  0  0  0  0  0  0  0  0  0  0
   37.8590   26.9340   41.5980 C   0  0  0  0  0  0  0  0  0  0  0  0
   37.8220   26.9480   42.9950 C   0  0  0  0  0  0  0  0  0  0  0  0
   37.7990   28.1400   43.6720 N   0  0  0  0  0  0  0  0  0  0  0  0
   37.8130   29.3110   43.0240 C   0  0  0  0  0  0  0  0  0  0  0  0
   37.8470   29.3020   41.6670 N   0  0  0  0  0  0  0  0  0  0  0  0
   37.8130   25.9800   43.4790 H   0  0  0  0  0  0  0  0  0  0  0  0
   37.7940   30.1770   43.6750 H   0  0  0  0  0  0  0  0  0  0  0  0
   37.7900   25.6280   40.8690 C   0  0  0  0  0  0  0  0  0  0  0  0
   38.3340   24.4710   41.6330 C   0  0  0  0  0  0  0  0  0  0  0  0
   36.8380   24.5750   41.3890 C   0  0  0  0  0  0  0  0  0  0  0  0
   38.3430   25.6400   39.9240 H   0  0  0  0  0  0  0  0  0  0  0  0
   38.7840   23.6400   41.0740 H   0  0  0  0  0  0  0  0  0  0  0  0
   38.7530   24.6660   42.6160 H   0  0  0  0  0  0  0  0  0  0  0  0
   36.2730   24.8740   42.3020 H   0  0  0  0  0  0  0  0  0  0  0  0
   36.3490   23.8910   40.6670 H   0  0  0  0  0  0  0  0  0  0  0  0
   38.7520   31.8910   37.9530 C   0  0  1  0  0  3  0  0  0  0  0  0
   38.8140   30.4410   38.2490 C   0  0  1  0  0  3  0  0  0  0  0  0
   40.0650   30.3620   38.9100 O   0  0  0  0  0  0  0  0  0  0  0  0
   40.1470   31.4400   39.7600 C   0  0  0  0  0  2  0  0  0  0  0  0
   39.4120   32.5920   39.1050 C   0  0  1  0  0  3  0  0  0  0  0  0
   39.5540   32.1070   36.8100 O   0  0  0  0  0  0  0  0  0  0  0  0
   39.3660   31.4400   36.1040 H   0  0  0  0  0  0  0  0  0  0  0  0
   40.3460   33.5340   38.6670 O   0  0  0  0  0  0  0  0  0  0  0  0
   40.9530   33.0540   38.0480 H   0  0  0  0  0  0  0  0  0  0  0  0
  1  7  1  6  0  0  0
  1 17  1  0  0  0  0
  2  1  1  0  0  0  0
  2  9  1  0  0  0  0
  3  4  1  0  0  0  0
  3  2  1  0  0  0  0
  4 12  1  0  0  0  0
  4  5  1  0  0  0  0
  5  6  1  0  0  0  0
  5 15  1  0  0  0  0
  6  1  1  0  0  0  0
  6 16  1  1  0  0  0
  8  2  1  0  0  0  0
 10  3  1  0  0  0  0
 11  3  1  0  0  0  0
 13  4  1  0  0  0  0
 14  5  1  0  0  0  0
 17 18  2  0  0  0  0
 17 22  1  0  0  0  0
 18 19  1  0  0  0  0
 19 23  1  0  0  0  0
 19 20  2  0  0  0  0
 21 20  1  0  0  0  0
 21 24  1  0  0  0  0
 22 21  2  0  0  0  0
 25 27  1  0  0  0  0
 25 18  1  0  0  0  0
 25 26  1  0  0  0  0
 26 30  1  0  0  0  0
 27 26  1  0  0  0  0
 27 31  1  0  0  0  0
 28 25  1  0  0  0  0
 29 26  1  0  0  0  0
 32 27  1  0  0  0  0
 33 38  1  6  0  0  0
 33 34  1  0  0  0  0
 33 37  1  0  0  0  0
 34 35  1  1  0  0  0
 34  6  1  0  0  0  0
 35 36  1  0  0  0  0
 37 40  1  6  0  0  0
 37 36  1  0  0  0  0
 39 38  1  0  0  0  0
 41 40  1  0  0  0  0
M  END
>  <minimizedAffinity>
-5.74389172

$$$$

 OpenBabel03252503393D

 41 44  0  0  1  0  0  0  0  0999 V2000
   36.5210   28.7460   40.9970 C   0  0  1  0  0  0  0  0  0  0  0  0
   36.7390   27.9670   42.3630 C   0  0  0  0  0  0  0  0  0  0  0  0
   37.4760   28.8700   43.3160 C   0  0  0  0  0  0  0  0  0  0  0  0
   38.9060   29.0890   42.8820 C   0  0  0  0  0  0  0  0  0  0  0  0
   38.9710   29.0780   41.3850 C   0  0  0  0  0  0  0  0  0  0  0  0
   37.7140   29.5740   40.7360 C   0  0  2  0  0  0  0  0  0  0  0  0
   35.5740   29.2700   41.2400 H   0  0  0  0  0  0  0  0  0  0  0  0
   35.7880   27.6240   42.7530 H   0  0  0  0  0  0  0  0  0  0  0  0
   37.4340   27.1530   42.0720 H   0  0  0  0  0  0  0  0  0  0  0  0
   37.5360   28.2980   44.2660 H   0  0  0  0  0  0  0  0  0  0  0  0
   36.9280   29.7910   43.5710 H   0  0  0  0  0  0  0  0  0  0  0  0
   39.5860   28.2970   43.2600 H   0  0  0  0  0  0  0  0  0  0  0  0
   39.2390   30.0350   43.3400 H   0  0  0  0  0  0  0  0  0  0  0  0
   39.8320   29.6470   40.9680 H   0  0  0  0  0  0  0  0  0  0  0  0
   39.1130   28.0290   41.0190 H   0  0  0  0  0  0  0  0  0  0  0  0
   37.9290   29.4230   39.6330 H   0  0  0  0  0  0  0  0  0  0  0  0
   36.2700   27.6720   39.9860 C   0  0  0  0  0  0  0  0  0  0  0  0
   35.6500   27.7770   38.7680 C   0  0  0  0  0  0  0  0  0  0  0  0
   35.6070   26.6030   38.0090 C   0  0  0  0  0  0  0  0  0  0  0  0
   36.1650   25.4480   38.4940 N   0  0  0  0  0  0  0  0  0  0  0  0
   36.7600   25.4110   39.6920 C   0  0  0  0  0  0  0  0  0  0  0  0
   36.8020   26.5470   40.4320 N   0  0  0  0  0  0  0  0  0  0  0  0
   35.1170   26.6780   37.0470 H   0  0  0  0  0  0  0  0  0  0  0  0
   37.1610   24.4390   39.9550 H   0  0  0  0  0  0  0  0  0  0  0  0
   34.9570   29.0060   38.2680 C   0  0  0  0  0  0  0  0  0  0  0  0
   34.5890   28.9580   36.8260 C   0  0  0  0  0  0  0  0  0  0  0  0
   33.4990   28.8920   37.8830 C   0  0  0  0  0  0  0  0  0  0  0  0
   35.5620   29.9110   38.3850 H   0  0  0  0  0  0  0  0  0  0  0  0
   34.5560   29.9000   36.2620 H   0  0  0  0  0  0  0  0  0  0  0  0
   34.8710   28.0740   36.2610 H   0  0  0  0  0  0  0  0  0  0  0  0
   33.0710   27.8690   37.9960 H   0  0  0  0  0  0  0  0  0  0  0  0
   32.8330   29.7630   38.0420 H   0  0  0  0  0  0  0  0  0  0  0  0
   38.6520   31.9240   40.6690 C   0  0  1  0  0  3  0  0  0  0  0  0
   37.4740   31.0470   40.8600 C   0  0  1  0  0  3  0  0  0  0  0  0
   36.6810   31.4280   39.7520 O   0  0  0  0  0  0  0  0  0  0  0  0
   37.5200   31.5510   38.6700 C   0  0  0  0  0  2  0  0  0  0  0  0
   38.8550   32.0500   39.1860 C   0  0  1  0  0  3  0  0  0  0  0  0
   38.2920   33.2010   41.1570 O   0  0  0  0  0  0  0  0  0  0  0  0
   37.8470   33.1390   42.0390 H   0  0  0  0  0  0  0  0  0  0  0  0
   39.0200   33.3830   38.8020 O   0  0  0  0  0  0  0  0  0  0  0  0
   38.2460   33.8770   39.1760 H   0  0  0  0  0  0  0  0  0  0  0  0
  1  7  1  1  0  0  0
  1  2  1  0  0  0  0
  2  8  1  0  0  0  0
  2  3  1  0  0  0  0
  3 11  1  0  0  0  0
  3 10  1  0  0  0  0
  4 12  1  0  0  0  0
  4  3  1  0  0  0  0
  4 13  1  0  0  0  0
  5  4  1  0  0  0  0
  6 16  1  6  0  0  0
  6 34  1  0  0  0  0
  6  1  1  0  0  0  0
  6  5  1  0  0  0  0
  9  2  1  0  0  0  0
 14  5  1  0  0  0  0
 15  5  1  0  0  0  0
 17 22  1  0  0  0  0
 17  1  1  0  0  0  0
 18 17  2  0  0  0  0
 19 20  2  0  0  0  0
 19 18  1  0  0  0  0
 20 21  1  0  0  0  0
 21 24  1  0  0  0  0
 21 22  2  0  0  0  0
 23 19  1  0  0  0  0
 25 28  1  0  0  0  0
 25 18  1  0  0  0  0
 26 27  1  0  0  0  0
 26 25  1  0  0  0  0
 27 31  1  0  0  0  0
 27 32  1  0  0  0  0
 27 25  1  0  0  0  0
 29 26  1  0  0  0  0
 30 26  1  0  0  0  0
 33 34  1  0  0  0  0
 33 38  1  6  0  0  0
 34 35  1  6  0  0  0
 36 37  1  0  0  0  0
 36 35  1  0  0  0  0
 37 40  1  1  0  0  0
 37 33  1  0  0  0  0
 38 39  1  0  0  0  0
 40 41  1  0  0  0  0
M  END
>  <minimizedAffinity>
-5.71372843

$$$$

 OpenBabel03252503393D

 41 44  0  0  1  0  0  0  0  0999 V2000
   38.7570   28.0880   41.3070 C   0  0  1  0  0  0  0  0  0  0  0  0
   38.1810   29.1110   42.3760 C   0  0  0  0  0  0  0  0  0  0  0  0
   37.8900   28.3590   43.6480 C   0  0  0  0  0  0  0  0  0  0  0  0
   36.7140   27.4240   43.4850 C   0  0  0  0  0  0  0  0  0  0  0  0
   36.6920   26.9030   42.0810 C   0  0  0  0  0  0  0  0  0  0  0  0
   38.0570   26.7990   41.4680 C   0  0  2  0  0  0  0  0  0  0  0  0
   39.8310   28.1290   41.5810 H   0  0  0  0  0  0  0  0  0  0  0  0
   38.8730   29.9320   42.5170 H   0  0  0  0  0  0  0  0  0  0  0  0
   37.2070   29.4040   41.9340 H   0  0  0  0  0  0  0  0  0  0  0  0
   37.5580   29.1340   44.3710 H   0  0  0  0  0  0  0  0  0  0  0  0
   38.7790   27.9010   44.1080 H   0  0  0  0  0  0  0  0  0  0  0  0
   35.7460   27.9310   43.6780 H   0  0  0  0  0  0  0  0  0  0  0  0
   36.8190   26.6410   44.2550 H   0  0  0  0  0  0  0  0  0  0  0  0
   36.1810   25.9210   41.9730 H   0  0  0  0  0  0  0  0  0  0  0  0
   36.1140   27.6040   41.4250 H   0  0  0  0  0  0  0  0  0  0  0  0
   37.8290   26.4650   40.4090 H   0  0  0  0  0  0  0  0  0  0  0  0
   38.5380   28.7590   39.9870 C   0  0  0  0  0  0  0  0  0  0  0  0
   37.3510   29.0200   39.3510 C   0  0  0  0  0  0  0  0  0  0  0  0
   37.4540   29.7140   38.1420 C   0  0  0  0  0  0  0  0  0  0  0  0
   38.6840   30.0900   37.6650 N   0  0  0  0  0  0  0  0  0  0  0  0
   39.8070   29.8080   38.3360 C   0  0  0  0  0  0  0  0  0  0  0  0
   39.7120   29.1340   39.5090 N   0  0  0  0  0  0  0  0  0  0  0  0
   36.5220   29.9210   37.6330 H   0  0  0  0  0  0  0  0  0  0  0  0
   40.7100   30.1620   37.8530 H   0  0  0  0  0  0  0  0  0  0  0  0
   36.0130   28.5340   39.8140 C   0  0  0  0  0  0  0  0  0  0  0  0
   35.1080   29.6100   40.3050 C   0  0  0  0  0  0  0  0  0  0  0  0
   34.8000   28.9090   38.9930 C   0  0  0  0  0  0  0  0  0  0  0  0
   36.0840   27.8150   40.6360 H   0  0  0  0  0  0  0  0  0  0  0  0
   34.3750   29.3630   41.0840 H   0  0  0  0  0  0  0  0  0  0  0  0
   35.4900   30.6270   40.3170 H   0  0  0  0  0  0  0  0  0  0  0  0
   35.0220   29.5430   38.1040 H   0  0  0  0  0  0  0  0  0  0  0  0
   33.9510   28.1970   38.9350 H   0  0  0  0  0  0  0  0  0  0  0  0
   38.2360   24.4250   42.3290 C   0  0  1  0  0  3  0  0  0  0  0  0
   38.9170   25.7030   42.0170 C   0  0  1  0  0  3  0  0  0  0  0  0
   39.7750   25.2920   40.9690 O   0  0  0  0  0  0  0  0  0  0  0  0
   39.0520   24.4570   40.1500 C   0  0  0  0  0  2  0  0  0  0  0  0
   38.0790   23.6940   41.0260 C   0  0  1  0  0  3  0  0  0  0  0  0
   39.1240   23.6750   43.1320 O   0  0  0  0  0  0  0  0  0  0  0  0
   39.5150   24.2280   43.8530 H   0  0  0  0  0  0  0  0  0  0  0  0
   38.5030   22.3680   41.1280 O   0  0  0  0  0  0  0  0  0  0  0  0
   39.4220   22.3980   41.4990 H   0  0  0  0  0  0  0  0  0  0  0  0
  1  6  1  0  0  0  0
  1  7  1  1  0  0  0
  1  2  1  0  0  0  0
  2  8  1  0  0  0  0
  2  3  1  0  0  0  0
  3 11  1  0  0  0  0
  3 10  1  0  0  0  0
  4  3  1  0  0  0  0
  4 12  1  0  0  0  0
  4 13  1  0  0  0  0
  5  4  1  0  0  0  0
  6 16  1  6  0  0  0
  6 34  1  0  0  0  0
  6  5  1  0  0  0  0
  9  2  1  0  0  0  0
 14  5  1  0  0  0  0
 15  5  1  0  0  0  0
 17  1  1  0  0  0  0
 18 25  1  0  0  0  0
 18 17  2  0  0  0  0
 19 18  1  0  0  0  0
 20 19  2  0  0  0  0
 20 21  1  0  0  0  0
 21 22  2  0  0  0  0
 22 17  1  0  0  0  0
 23 19  1  0  0  0  0
 24 21  1  0  0  0  0
 25 26  1  0  0  0  0
 25 28  1  0  0  0  0
 26 30  1  0  0  0  0
 26 29  1  0  0  0  0
 27 25  1  0  0  0  0
 27 26  1  0  0  0  0
 31 27  1  0  0  0  0
 32 27  1  0  0  0  0
 33 38  1  1  0  0  0
 34 35  1  6  0  0  0
 34 33  1  0  0  0  0
 36 35  1  0  0  0  0
 36 37  1  0  0  0  0
 37 40  1  1  0  0  0
 37 33  1  0  0  0  0
 38 39  1  0  0  0  0
 40 41  1  0  0  0  0
M  END
>  <minimizedAffinity>
-5.68266535

$$$$

 OpenBabel03252503393D

 41 44  0  0  1  0  0  0  0  0999 V2000
   38.3820   27.1540   40.8720 C   0  0  1  0  0  0  0  0  0  0  0  0
   38.0440   26.0840   41.9950 C   0  0  0  0  0  0  0  0  0  0  0  0
   36.9110   26.6140   42.8330 C   0  0  0  0  0  0  0  0  0  0  0  0
   37.3450   27.7880   43.6800 C   0  0  0  0  0  0  0  0  0  0  0  0
   38.3860   28.5690   42.9370 C   0  0  0  0  0  0  0  0  0  0  0  0
   38.2230   28.5040   41.4490 C   0  0  2  0  0  0  0  0  0  0  0  0
   37.6550   26.8370   40.0970 H   0  0  0  0  0  0  0  0  0  0  0  0
   37.8250   25.1250   41.5420 H   0  0  0  0  0  0  0  0  0  0  0  0
   38.9570   26.0960   42.6260 H   0  0  0  0  0  0  0  0  0  0  0  0
   36.6780   25.7980   43.5500 H   0  0  0  0  0  0  0  0  0  0  0  0
   35.9780   26.7750   42.2710 H   0  0  0  0  0  0  0  0  0  0  0  0
   37.7830   27.4670   44.6480 H   0  0  0  0  0  0  0  0  0  0  0  0
   36.4360   28.3630   43.9200 H   0  0  0  0  0  0  0  0  0  0  0  0
   38.4470   29.6380   43.2400 H   0  0  0  0  0  0  0  0  0  0  0  0
   39.4020   28.1490   43.1540 H   0  0  0  0  0  0  0  0  0  0  0  0
   39.1240   29.0810   41.0750 H   0  0  0  0  0  0  0  0  0  0  0  0
   39.7750   26.8190   40.4390 C   0  0  0  0  0  0  0  0  0  0  0  0
   40.7880   26.2670   41.1810 C   0  0  0  0  0  0  0  0  0  0  0  0
   41.9760   26.0170   40.4880 C   0  0  0  0  0  0  0  0  0  0  0  0
   42.0730   26.3180   39.1540 N   0  0  0  0  0  0  0  0  0  0  0  0
   41.0450   26.8530   38.4830 C   0  0  0  0  0  0  0  0  0  0  0  0
   39.8910   27.0990   39.1520 N   0  0  0  0  0  0  0  0  0  0  0  0
   42.7810   25.5830   41.0670 H   0  0  0  0  0  0  0  0  0  0  0  0
   41.2510   27.0410   37.4360 H   0  0  0  0  0  0  0  0  0  0  0  0
   40.7260   26.0210   42.6560 C   0  0  0  0  0  0  0  0  0  0  0  0
   41.9850   25.4810   43.2400 C   0  0  0  0  0  0  0  0  0  0  0  0
   41.5580   26.9040   43.5580 C   0  0  0  0  0  0  0  0  0  0  0  0
   39.9450   25.3050   42.9340 H   0  0  0  0  0  0  0  0  0  0  0  0
   41.9160   24.8260   44.1180 H   0  0  0  0  0  0  0  0  0  0  0  0
   42.8130   25.2860   42.5640 H   0  0  0  0  0  0  0  0  0  0  0  0
   42.1680   27.6660   43.0220 H   0  0  0  0  0  0  0  0  0  0  0  0
   41.1740   27.1500   44.5690 H   0  0  0  0  0  0  0  0  0  0  0  0
   36.7860   30.5860   41.5170 C   0  0  1  0  0  3  0  0  0  0  0  0
   37.0540   29.2650   40.9050 C   0  0  1  0  0  3  0  0  0  0  0  0
   37.3940   29.6520   39.5860 O   0  0  0  0  0  0  0  0  0  0  0  0
   38.2040   30.7600   39.6800 C   0  0  0  0  0  2  0  0  0  0  0  0
   37.7490   31.5530   40.8880 C   0  0  1  0  0  3  0  0  0  0  0  0
   35.4840   30.9640   41.1170 O   0  0  0  0  0  0  0  0  0  0  0  0
   34.8420   30.2190   41.2240 H   0  0  0  0  0  0  0  0  0  0  0  0
   37.1020   32.7120   40.4530 O   0  0  0  0  0  0  0  0  0  0  0  0
   36.3530   32.4110   39.8770 H   0  0  0  0  0  0  0  0  0  0  0  0
  1  7  1  6  0  0  0
  1  6  1  0  0  0  0
  1  2  1  0  0  0  0
  2  9  1  0  0  0  0
  2  3  1  0  0  0  0
  3 10  1  0  0  0  0
  3  4  1  0  0  0  0
  4 13  1  0  0  0  0
  4 12  1  0  0  0  0
  5 15  1  0  0  0  0
  5 14  1  0  0  0  0
  5  4  1  0  0  0  0
  6 16  1  6  0  0  0
  6  5  1  0  0  0  0
  8  2  1  0  0  0  0
 11  3  1  0  0  0  0
 17  1  1  0  0  0  0
 17 18  1  0  0  0  0
 18 25  1  0  0  0  0
 19 23  1  0  0  0  0
 19 18  2  0  0  0  0
 20 19  1  0  0  0  0
 21 22  1  0  0  0  0
 21 20  2  0  0  0  0
 22 17  2  0  0  0  0
 24 21  1  0  0  0  0
 25 28  1  0  0  0  0
 25 26  1  0  0  0  0
 25 27  1  0  0  0  0
 26 27  1  0  0  0  0
 26 29  1  0  0  0  0
 27 32  1  0  0  0  0
 30 26  1  0  0  0  0
 31 27  1  0  0  0  0
 33 38  1  6  0  0  0
 34 35  1  6  0  0  0
 34  6  1  0  0  0  0
 34 33  1  0  0  0  0
 35 36  1  0  0  0  0
 36 37  1  0  0  0  0
 37 40  1  6  0  0  0
 37 33  1  0  0  0  0
 38 39  1  0  0  0  0
 41 40  1  0  0  0  0
M  END
>  <minimizedAffinity>
-5.6274085

$$$$

 OpenBabel03252503393D

 41 44  0  0  1  0  0  0  0  0999 V2000
   37.0430   26.8480   40.9850 C   0  0  1  0  0  0  0  0  0  0  0  0
   37.0120   26.1370   42.4050 C   0  0  0  0  0  0  0  0  0  0  0  0
   36.5600   27.1410   43.4320 C   0  0  0  0  0  0  0  0  0  0  0  0
   37.6060   28.2050   43.6690 C   0  0  0  0  0  0  0  0  0  0  0  0
   38.3420   28.4620   42.3900 C   0  0  0  0  0  0  0  0  0  0  0  0
   37.5010   28.2390   41.1690 C   0  0  2  0  0  0  0  0  0  0  0  0
   35.9880   26.6890   40.6820 H   0  0  0  0  0  0  0  0  0  0  0  0
   36.3840   25.2560   42.3670 H   0  0  0  0  0  0  0  0  0  0  0  0
   38.0850   25.9270   42.5950 H   0  0  0  0  0  0  0  0  0  0  0  0
   36.4940   26.5690   44.3820 H   0  0  0  0  0  0  0  0  0  0  0  0
   35.5440   27.5280   43.2600 H   0  0  0  0  0  0  0  0  0  0  0  0
   38.3490   27.8990   44.4360 H   0  0  0  0  0  0  0  0  0  0  0  0
   37.0820   29.0860   44.0720 H   0  0  0  0  0  0  0  0  0  0  0  0
   38.7930   29.4780   42.3260 H   0  0  0  0  0  0  0  0  0  0  0  0
   39.2070   27.7560   42.3000 H   0  0  0  0  0  0  0  0  0  0  0  0
   38.2380   28.4100   40.3250 H   0  0  0  0  0  0  0  0  0  0  0  0
   37.9510   25.9950   40.1560 C   0  0  0  0  0  0  0  0  0  0  0  0
   37.6130   25.0340   39.2370 C   0  0  0  0  0  0  0  0  0  0  0  0
   38.6850   24.4320   38.5720 C   0  0  0  0  0  0  0  0  0  0  0  0
   39.9720   24.8130   38.8520 N   0  0  0  0  0  0  0  0  0  0  0  0
   40.2370   25.7610   39.7590 C   0  0  0  0  0  0  0  0  0  0  0  0
   39.2000   26.3470   40.4080 N   0  0  0  0  0  0  0  0  0  0  0  0
   38.4270   23.6720   37.8460 H   0  0  0  0  0  0  0  0  0  0  0  0
   41.2930   25.9690   39.8850 H   0  0  0  0  0  0  0  0  0  0  0  0
   36.2200   24.5460   38.9890 C   0  0  0  0  0  0  0  0  0  0  0  0
   36.1410   23.1320   38.5280 C   0  0  0  0  0  0  0  0  0  0  0  0
   35.6610   23.4960   39.9230 C   0  0  0  0  0  0  0  0  0  0  0  0
   35.6940   25.1310   38.2280 H   0  0  0  0  0  0  0  0  0  0  0  0
   35.3100   22.8410   37.8720 H   0  0  0  0  0  0  0  0  0  0  0  0
   37.0730   22.5940   38.3830 H   0  0  0  0  0  0  0  0  0  0  0  0
   36.3650   23.1650   40.7210 H   0  0  0  0  0  0  0  0  0  0  0  0
   34.5750   23.5030   40.1470 H   0  0  0  0  0  0  0  0  0  0  0  0
   36.8380   30.6820   41.1110 C   0  0  1  0  0  3  0  0  0  0  0  0
   36.4370   29.2670   40.9350 C   0  0  1  0  0  3  0  0  0  0  0  0
   36.1470   29.2480   39.5490 O   0  0  0  0  0  0  0  0  0  0  0  0
   37.1300   29.9700   38.9150 C   0  0  0  0  0  2  0  0  0  0  0  0
   37.5500   31.0840   39.8510 C   0  0  1  0  0  3  0  0  0  0  0  0
   35.6460   31.4370   41.1840 O   0  0  0  0  0  0  0  0  0  0  0  0
   34.9900   31.0190   41.7950 H   0  0  0  0  0  0  0  0  0  0  0  0
   37.0690   32.2990   39.3560 O   0  0  0  0  0  0  0  0  0  0  0  0
   36.0860   32.1980   39.2840 H   0  0  0  0  0  0  0  0  0  0  0  0
  1  7  1  6  0  0  0
  1  6  1  0  0  0  0
  1  2  1  0  0  0  0
  2  9  1  0  0  0  0
  2  3  1  0  0  0  0
  3  4  1  0  0  0  0
  3 10  1  0  0  0  0
  4 13  1  0  0  0  0
  4 12  1  0  0  0  0
  5  4  1  0  0  0  0
  6 16  1  6  0  0  0
  6  5  1  0  0  0  0
  8  2  1  0  0  0  0
 11  3  1  0  0  0  0
 14  5  1  0  0  0  0
 15  5  1  0  0  0  0
 17 22  1  0  0  0  0
 17  1  1  0  0  0  0
 18 17  2  0  0  0  0
 19 20  2  0  0  0  0
 19 18  1  0  0  0  0
 20 21  1  0  0  0  0
 21 24  1  0  0  0  0
 21 22  2  0  0  0  0
 23 19  1  0  0  0  0
 25 18  1  0  0  0  0
 25 27  1  0  0  0  0
 26 25  1  0  0  0  0
 26 27  1  0  0  0  0
 27 32  1  0  0  0  0
 27 31  1  0  0  0  0
 28 25  1  0  0  0  0
 29 26  1  0  0  0  0
 30 26  1  0  0  0  0
 33 38  1  6  0  0  0
 34 35  1  6  0  0  0
 34 33  1  0  0  0  0
 34  6  1  0  0  0  0
 36 35  1  0  0  0  0
 36 37  1  0  0  0  0
 37 40  1  6  0  0  0
 37 33  1  0  0  0  0
 38 39  1  0  0  0  0
 41 40  1  0  0  0  0
M  END
>  <minimizedAffinity>
-5.56389666

$$$$

 OpenBabel03252503393D

 41 44  0  0  1  0  0  0  0  0999 V2000
   37.7080   26.9600   40.7640 C   0  0  1  0  0  0  0  0  0  0  0  0
   37.5400   26.0380   42.0460 C   0  0  0  0  0  0  0  0  0  0  0  0
   36.7690   26.8040   43.0880 C   0  0  0  0  0  0  0  0  0  0  0  0
   37.5840   27.9410   43.6590 C   0  0  0  0  0  0  0  0  0  0  0  0
   38.4820   28.4860   42.5920 C   0  0  0  0  0  0  0  0  0  0  0  0
   37.9090   28.3510   41.2130 C   0  0  2  0  0  0  0  0  0  0  0  0
   36.7590   26.7180   40.2450 H   0  0  0  0  0  0  0  0  0  0  0  0
   37.0700   25.1010   41.7730 H   0  0  0  0  0  0  0  0  0  0  0  0
   38.5830   25.9370   42.4120 H   0  0  0  0  0  0  0  0  0  0  0  0
   36.6270   26.0870   43.9240 H   0  0  0  0  0  0  0  0  0  0  0  0
   35.7510   27.0820   42.7740 H   0  0  0  0  0  0  0  0  0  0  0  0
   38.2200   27.6150   44.5090 H   0  0  0  0  0  0  0  0  0  0  0  0
   36.8680   28.6760   44.0650 H   0  0  0  0  0  0  0  0  0  0  0  0
   38.7770   29.5470   42.7500 H   0  0  0  0  0  0  0  0  0  0  0  0
   39.4470   27.9160   42.5800 H   0  0  0  0  0  0  0  0  0  0  0  0
   38.7470   28.7440   40.5570 H   0  0  0  0  0  0  0  0  0  0  0  0
   38.8650   26.3680   40.0230 C   0  0  0  0  0  0  0  0  0  0  0  0
   39.1650   26.4710   38.6890 C   0  0  0  0  0  0  0  0  0  0  0  0
   40.3510   25.8500   38.2860 C   0  0  0  0  0  0  0  0  0  0  0  0
   41.1310   25.1940   39.2040 N   0  0  0  0  0  0  0  0  0  0  0  0
   40.7860   25.1310   40.4950 C   0  0  0  0  0  0  0  0  0  0  0  0
   39.6350   25.7310   40.8890 N   0  0  0  0  0  0  0  0  0  0  0  0
   40.5940   25.9260   37.2340 H   0  0  0  0  0  0  0  0  0  0  0  0
   41.4880   24.5860   41.1140 H   0  0  0  0  0  0  0  0  0  0  0  0
   38.2770   27.1040   37.6630 C   0  0  0  0  0  0  0  0  0  0  0  0
   38.9830   28.0120   36.7180 C   0  0  0  0  0  0  0  0  0  0  0  0
   38.4450   26.6810   36.2210 C   0  0  0  0  0  0  0  0  0  0  0  0
   37.4790   27.7080   38.1080 H   0  0  0  0  0  0  0  0  0  0  0  0
   38.4300   28.8620   36.2960 H   0  0  0  0  0  0  0  0  0  0  0  0
   40.0500   28.1630   36.8620 H   0  0  0  0  0  0  0  0  0  0  0  0
   39.2490   25.9280   36.0520 H   0  0  0  0  0  0  0  0  0  0  0  0
   37.5540   26.6590   35.5620 H   0  0  0  0  0  0  0  0  0  0  0  0
   36.8000   30.6040   41.5350 C   0  0  1  0  0  3  0  0  0  0  0  0
   36.7580   29.2610   40.9130 C   0  0  1  0  0  3  0  0  0  0  0  0
   36.8540   29.6050   39.5420 O   0  0  0  0  0  0  0  0  0  0  0  0
   37.8000   30.5970   39.4340 C   0  0  0  0  0  2  0  0  0  0  0  0
   37.7210   31.4380   40.6920 C   0  0  1  0  0  3  0  0  0  0  0  0
   35.5030   31.1500   41.4140 O   0  0  0  0  0  0  0  0  0  0  0  0
   34.8080   30.4950   41.6740 H   0  0  0  0  0  0  0  0  0  0  0  0
   37.1500   32.6730   40.3760 O   0  0  0  0  0  0  0  0  0  0  0  0
   36.2630   32.4750   39.9810 H   0  0  0  0  0  0  0  0  0  0  0  0
  1  7  1  6  0  0  0
  1  6  1  0  0  0  0
  1  2  1  0  0  0  0
  2  9  1  0  0  0  0
  2  3  1  0  0  0  0
  3  4  1  0  0  0  0
  3 10  1  0  0  0  0
  4 13  1  0  0  0  0
  4 12  1  0  0  0  0
  5 14  1  0  0  0  0
  5  4  1  0  0  0  0
  6 16  1  6  0  0  0
  6  5  1  0  0  0  0
  8  2  1  0  0  0  0
 11  3  1  0  0  0  0
 15  5  1  0  0  0  0
 17  1  1  0  0  0  0
 17 22  1  0  0  0  0
 18 17  2  0  0  0  0
 19 18  1  0  0  0  0
 19 20  2  0  0  0  0
 20 21  1  0  0  0  0
 21 22  2  0  0  0  0
 21 24  1  0  0  0  0
 23 19  1  0  0  0  0
 25 28  1  0  0  0  0
 25 18  1  0  0  0  0
 26 30  1  0  0  0  0
 26 25  1  0  0  0  0
 27 26  1  0  0  0  0
 27 25  1  0  0  0  0
 29 26  1  0  0  0  0
 31 27  1  0  0  0  0
 32 27  1  0  0  0  0
 33 38  1  6  0  0  0
 34 35  1  6  0  0  0
 34  6  1  0  0  0  0
 34 33  1  0  0  0  0
 36 35  1  0  0  0  0
 36 37  1  0  0  0  0
 37 40  1  6  0  0  0
 37 33  1  0  0  0  0
 38 39  1  0  0  0  0
 41 40  1  0  0  0  0
M  END
>  <minimizedAffinity>
-5.55056572

$$$$
