
 OpenBabel03252505183D

 34 37  0  0  1  0  0  0  0  0999 V2000
   46.2440   32.7110   46.9810 C   0  0  0  0  0  0  0  0  0  0  0  0
   45.1390   32.5310   47.7860 C   0  0  0  0  0  0  0  0  0  0  0  0
   45.2510   31.7690   48.9410 C   0  0  0  0  0  0  0  0  0  0  0  0
   46.4850   31.2170   49.2340 C   0  0  0  0  0  0  0  0  0  0  0  0
   47.5610   31.4330   48.3840 C   0  0  0  0  0  0  0  0  0  0  0  0
   47.4530   32.1780   47.2560 N   0  0  0  0  0  0  0  0  0  0  0  0
   44.1680   32.9610   47.5630 H   0  0  0  0  0  0  0  0  0  0  0  0
   44.3790   31.6300   49.5710 H   0  0  0  0  0  0  0  0  0  0  0  0
   46.5900   30.6280   50.1160 H   0  0  0  0  0  0  0  0  0  0  0  0
   44.9590   35.0920   44.4750 C   0  0  0  0  0  0  0  0  0  0  0  0
   45.8910   34.9950   43.4150 C   0  0  0  0  0  0  0  0  0  0  0  0
   46.9280   34.1140   43.6130 C   0  0  0  0  0  0  0  0  0  0  0  0
   47.0320   33.3850   44.7730 N   0  0  0  0  0  0  0  0  0  0  0  0
   46.0990   33.5160   45.7710 C   0  0  0  0  0  0  0  0  0  0  0  0
   45.0740   34.3680   45.6080 N   0  0  0  0  0  0  0  0  0  0  0  0
   44.1180   35.7860   44.3510 H   0  0  0  0  0  0  0  0  0  0  0  0
   45.7790   35.5840   42.5150 H   0  0  0  0  0  0  0  0  0  0  0  0
   47.9550   33.9100   42.5400 C   0  0  0  0  0  0  0  0  0  0  0  0
   48.1260   35.1470   41.6590 C   0  0  0  0  0  0  0  0  0  0  0  0
   49.2160   34.5990   42.6340 C   0  0  0  0  0  0  0  0  0  0  0  0
   47.8620   32.9500   41.9820 H   0  0  0  0  0  0  0  0  0  0  0  0
   47.6580   36.0930   42.0000 H   0  0  0  0  0  0  0  0  0  0  0  0
   48.2610   34.9400   40.6000 H   0  0  0  0  0  0  0  0  0  0  0  0
   49.4700   35.2580   43.4940 H   0  0  0  0  0  0  0  0  0  0  0  0
   50.0950   34.1970   42.0990 H   0  0  0  0  0  0  0  0  0  0  0  0
   49.1520   29.5270   48.0560 C   0  0  1  0  0  3  0  0  0  0  0  0
   48.8560   30.8220   48.7420 C   0  0  2  0  0  3  0  0  0  0  0  0
   48.9540   30.4790   50.0870 O   0  0  0  0  0  0  0  0  0  0  0  0
   50.1510   29.8040   50.1610 C   0  0  0  0  0  2  0  0  0  0  0  0
   50.3750   29.0720   48.8650 C   0  0  2  0  0  3  0  0  0  0  0  0
   48.1710   28.5700   48.1570 O   0  0  0  0  0  0  0  0  0  0  0  0
   47.5330   28.5420   47.4020 H   0  0  0  0  0  0  0  0  0  0  0  0
   51.5590   29.5900   48.3040 O   0  0  0  0  0  0  0  0  0  0  0  0
   51.3860   30.4790   47.9030 H   0  0  0  0  0  0  0  0  0  0  0  0
  1  6  2  0  0  0  0
  1  2  1  0  0  0  0
  2  3  2  0  0  0  0
  3  4  1  0  0  0  0
  3  8  1  0  0  0  0
  4  9  1  0  0  0  0
  5  4  2  0  0  0  0
  6  5  1  0  0  0  0
  7  2  1  0  0  0  0
 10 15  1  0  0  0  0
 11 12  1  0  0  0  0
 11 10  2  0  0  0  0
 12 13  2  0  0  0  0
 13 14  1  0  0  0  0
 14  1  1  0  0  0  0
 15 14  2  0  0  0  0
 16 10  1  0  0  0  0
 17 11  1  0  0  0  0
 18 20  1  0  0  0  0
 18 12  1  0  0  0  0
 19 22  1  0  0  0  0
 19 18  1  0  0  0  0
 19 20  1  0  0  0  0
 20 24  1  0  0  0  0
 21 18  1  0  0  0  0
 23 19  1  0  0  0  0
 25 20  1  0  0  0  0
 26 31  1  1  0  0  0
 26 27  1  0  0  0  0
 26 30  1  0  0  0  0
 27  5  1  1  0  0  0
 27 28  1  0  0  0  0
 28 29  1  0  0  0  0
 30 33  1  6  0  0  0
 30 29  1  0  0  0  0
 32 31  1  0  0  0  0
 34 33  1  0  0  0  0
M  END
>  <minimizedAffinity>
-6.46474409

>  <minimizedRMSD>
1.39118826

$$$$
