
 OpenBabel03252507133D

 42 44  0  0  1  0  0  0  0  0999 V2000
   46.5430   34.8250   42.0360 C   0  0  2  0  0  0  0  0  0  0  0  0
   45.6520   35.6640   42.8700 C   0  0  0  0  0  0  0  0  0  0  0  0
   44.2660   35.6680   42.3380 C   0  0  0  0  0  0  0  0  0  0  0  0
   43.6400   34.4310   42.3830 O   0  0  0  0  0  0  0  0  0  0  0  0
   44.5600   33.4050   42.4230 C   0  0  0  0  0  0  0  0  0  0  0  0
   45.7100   33.7030   41.4660 C   0  0  1  0  0  0  0  0  0  0  0  0
   46.9260   35.4760   41.2010 H   0  0  0  0  0  0  0  0  0  0  0  0
   45.5980   35.3120   43.9300 H   0  0  0  0  0  0  0  0  0  0  0  0
   45.9910   36.7330   42.9430 H   0  0  0  0  0  0  0  0  0  0  0  0
   44.0770   36.2600   41.4380 H   0  0  0  0  0  0  0  0  0  0  0  0
   43.6810   36.2550   43.1260 H   0  0  0  0  0  0  0  0  0  0  0  0
   45.0120   33.3110   43.4540 H   0  0  0  0  0  0  0  0  0  0  0  0
   44.1560   32.4330   42.1460 H   0  0  0  0  0  0  0  0  0  0  0  0
   46.3490   32.7890   41.7320 H   0  0  0  0  0  0  0  0  0  0  0  0
   46.3480   33.6060   38.9410 C   0  0  2  0  0  3  0  0  0  0  0  0
   45.4650   33.5150   40.0640 C   0  0  1  0  0  3  0  0  0  0  0  0
   44.6950   32.3540   39.7630 O   0  0  0  0  0  0  0  0  0  0  0  0
   44.2530   32.6780   38.4550 C   0  0  0  0  0  2  0  0  0  0  0  0
   45.6180   32.8500   37.8220 C   0  0  2  0  0  3  0  0  0  0  0  0
   47.6080   33.1090   38.9200 O   0  0  0  0  0  0  0  0  0  0  0  0
   47.7230   32.1600   39.0850 H   0  0  0  0  0  0  0  0  0  0  0  0
   46.1680   31.5980   37.7260 O   0  0  0  0  0  0  0  0  0  0  0  0
   46.5070   31.3220   36.8610 H   0  0  0  0  0  0  0  0  0  0  0  0
   47.6670   34.3960   42.6370 O   0  0  0  0  0  0  0  0  0  0  0  0
   50.2530   34.8400   42.5990 O   0  0  0  0  0  0  0  0  0  0  0  0
   49.0800   34.4520   41.7830 P   0  0  2  0  0  0  0  0  0  0  0  0
   48.9200   35.6310   40.5640 O   0  0  0  0  0  0  0  0  0  0  0  0
   49.5490   35.3970   39.8350 H   0  0  0  0  0  0  0  0  0  0  0  0
   49.3690   32.9460   40.9930 O   0  0  0  0  0  0  0  0  0  0  0  0
   49.5910   31.2860   42.6530 C   0  0  0  0  0  0  0  0  0  0  0  0
   50.1320   31.9590   41.5830 C   0  0  0  0  0  0  0  0  0  0  0  0
   51.4340   31.6080   41.1440 C   0  0  0  0  0  0  0  0  0  0  0  0
   52.0650   30.6170   41.8200 N   0  0  0  0  0  0  0  0  0  0  0  0
   51.5170   29.9930   42.8410 C   0  0  0  0  0  0  0  0  0  0  0  0
   50.2700   30.3390   43.2500 N   0  0  0  0  0  0  0  0  0  0  0  0
   47.1620   30.7820   42.8340 C   0  0  0  0  0  0  0  0  0  0  0  0
   47.0680   30.3920   41.6250 O   0  0  0  0  0  0  0  0  0  0  0  0
   48.4060   31.2530   43.4350 N   0  0  0  0  0  0  0  0  0  0  0  0
   51.7920   32.1770   40.3040 H   0  0  0  0  0  0  0  0  0  0  0  0
   52.0900   29.2070   43.3320 H   0  0  0  0  0  0  0  0  0  0  0  0
   46.2360   30.7260   43.3570 H   0  0  0  0  0  0  0  0  0  0  0  0
   48.2840   31.5320   44.4150 H   0  0  0  0  0  0  0  0  0  0  0  0
  1  7  1  6  0  0  0
  1 24  1  0  0  0  0
  1  2  1  0  0  0  0
  2  9  1  0  0  0  0
  2  8  1  0  0  0  0
  3  4  1  0  0  0  0
  3  2  1  0  0  0  0
  3 11  1  0  0  0  0
  4  5  1  0  0  0  0
  5 12  1  0  0  0  0
  6 14  1  1  0  0  0
  6  1  1  0  0  0  0
  6  5  1  0  0  0  0
 10  3  1  0  0  0  0
 13  5  1  0  0  0  0
 15 20  1  1  0  0  0
 15 16  1  0  0  0  0
 16 17  1  1  0  0  0
 16  6  1  0  0  0  0
 18 17  1  0  0  0  0
 19 22  1  1  0  0  0
 19 18  1  0  0  0  0
 19 15  1  0  0  0  0
 20 21  1  0  0  0  0
 23 22  1  0  0  0  0
 26 25  2  1  0  0  0
 26 24  1  0  0  0  0
 27 26  1  0  0  0  0
 28 27  1  0  0  0  0
 29 31  1  0  0  0  0
 29 26  1  0  0  0  0
 30 35  1  0  0  0  0
 30 38  1  0  0  0  0
 31 30  2  0  0  0  0
 32 31  1  0  0  0  0
 32 33  2  0  0  0  0
 33 34  1  0  0  0  0
 34 35  2  0  0  0  0
 34 40  1  0  0  0  0
 36 41  1  0  0  0  0
 36 38  1  0  0  0  0
 37 36  2  0  0  0  0
 38 42  1  0  0  0  0
 39 32  1  0  0  0  0
M  END
>  <minimizedAffinity>
-4.59184933

>  <minimizedRMSD>
0.978054583

$$$$
