
 OpenBabel03242520243D

 24 25  0  0  1  0  0  0  0  0999 V2000
   45.5310   35.3220   43.5140 C   0  0  0  0  0  0  0  0  0  0  0  0
   46.3950   34.2200   43.7320 C   0  0  0  0  0  0  0  0  0  0  0  0
   46.3330   33.5770   44.9580 C   0  0  0  0  0  0  0  0  0  0  0  0
   45.4480   34.0310   45.9010 N   0  0  0  0  0  0  0  0  0  0  0  0
   44.6440   35.0750   45.6670 C   0  0  0  0  0  0  0  0  0  0  0  0
   44.6700   35.7280   44.4900 N   0  0  0  0  0  0  0  0  0  0  0  0
   45.5640   35.8360   42.5640 H   0  0  0  0  0  0  0  0  0  0  0  0
   44.0090   35.2980   46.5180 H   0  0  0  0  0  0  0  0  0  0  0  0
   48.3730   34.8920   42.5320 C   0  0  2  0  0  0  0  0  0  0  0  0
   47.3140   33.8210   42.6290 C   0  0  2  0  0  0  0  0  0  0  0  0
   46.6050   33.9930   41.4490 O   0  0  0  0  0  0  0  0  0  0  0  0
   47.4810   34.3180   40.4430 C   0  0  0  0  0  0  0  0  0  0  0  0
   48.7820   34.7640   41.0620 C   0  0  2  0  0  0  0  0  0  0  0  0
   49.5050   34.6030   43.2900 O   0  0  0  0  0  0  0  0  0  0  0  0
   49.9110   35.4840   43.5310 H   0  0  0  0  0  0  0  0  0  0  0  0
   49.6950   33.7140   40.9450 O   0  0  0  0  0  0  0  0  0  0  0  0
   50.5360   34.0280   40.5200 H   0  0  0  0  0  0  0  0  0  0  0  0
   47.1860   32.4980   45.1590 O   0  0  0  0  0  0  0  0  0  0  0  0
   45.5460   30.6690   46.1300 O   0  0  0  0  0  0  0  0  0  0  0  0
   46.8420   31.4080   46.4520 P   0  0  0  0  0  0  0  0  0  0  0  0
   48.1370   30.3500   46.6120 O   0  0  0  0  0  0  0  0  0  0  0  0
   48.3760   30.0130   45.7100 H   0  0  0  0  0  0  0  0  0  0  0  0
   46.5920   32.3200   47.8470 O   0  0  0  0  0  0  0  0  0  0  0  0
   47.1120   32.0160   48.6300 H   0  0  0  0  0  0  0  0  0  0  0  0
  1  2  2  0  0  0  0
  1  6  1  0  0  0  0
  2  3  1  0  0  0  0
  3 18  1  0  0  0  0
  3  4  2  0  0  0  0
  5  4  1  0  0  0  0
  5  8  1  0  0  0  0
  6  5  2  0  0  0  0
  7  1  1  0  0  0  0
  9 10  1  0  0  0  0
  9 14  1  1  0  0  0
 10  2  1  1  0  0  0
 11 10  1  0  0  0  0
 12 13  1  0  0  0  0
 12 11  1  0  0  0  0
 13 16  1  1  0  0  0
 13  9  1  0  0  0  0
 14 15  1  0  0  0  0
 17 16  1  0  0  0  0
 18 20  1  0  0  0  0
 19 20  2  0  0  0  0
 20 21  1  0  0  0  0
 20 23  1  0  0  0  0
 22 21  1  0  0  0  0
 23 24  1  0  0  0  0
M  END
>  <minimizedAffinity>
-5.11720085

>  <minimizedRMSD>
5.07905579

$$$$
