
 OpenBabel03252507583D

 27 29  0  0  1  0  0  0  0  0999 V2000
   37.1150   27.4520   39.7420 C   0  0  1  0  0  0  0  0  0  0  0  0
   35.8150   28.1790   39.8830 C   0  0  0  0  0  0  0  0  0  0  0  0
   37.0170   28.6570   40.6210 C   0  0  2  0  0  0  0  0  0  0  0  0
   37.6560   27.4970   38.7990 H   0  0  0  0  0  0  0  0  0  0  0  0
   35.0150   27.5850   40.3770 H   0  0  0  0  0  0  0  0  0  0  0  0
   35.4830   28.7210   38.9730 H   0  0  0  0  0  0  0  0  0  0  0  0
   36.9180   28.5100   41.7340 H   0  0  0  0  0  0  0  0  0  0  0  0
   38.4960   24.9650   42.0630 C   0  0  0  0  0  0  0  0  0  0  0  0
   37.7370   23.7970   41.7920 C   0  0  0  0  0  0  0  0  0  0  0  0
   36.7470   23.9010   40.8010 C   0  0  0  0  0  0  0  0  0  0  0  0
   36.5770   25.0980   40.1680 N   0  0  0  0  0  0  0  0  0  0  0  0
   37.3470   26.1750   40.4870 C   0  0  0  0  0  0  0  0  0  0  0  0
   38.2980   26.1380   41.4140 N   0  0  0  0  0  0  0  0  0  0  0  0
   37.9020   22.8780   42.3110 H   0  0  0  0  0  0  0  0  0  0  0  0
   36.1440   23.0570   40.5530 H   0  0  0  0  0  0  0  0  0  0  0  0
   39.4950   24.7930   43.0770 C   0  0  0  0  0  0  0  0  0  0  0  0
   40.0940   25.7370   43.6800 O   0  0  0  0  0  0  0  0  0  0  0  0
   39.8260   23.8000   43.4150 H   0  0  0  0  0  0  0  0  0  0  0  0
   36.6060   31.0780   40.0230 C   0  0  2  0  0  3  0  0  0  0  0  0
   37.5920   29.9680   40.2210 C   0  0  1  0  0  3  0  0  0  0  0  0
   38.4370   30.5160   41.1800 O   0  0  0  0  0  0  0  0  0  0  0  0
   38.6970   31.8000   40.7690 C   0  0  0  0  0  2  0  0  0  0  0  0
   37.5770   32.2550   39.8630 C   0  0  2  0  0  3  0  0  0  0  0  0
   35.8660   31.2380   41.1710 O   0  0  0  0  0  0  0  0  0  0  0  0
   36.2380   31.9520   41.7490 H   0  0  0  0  0  0  0  0  0  0  0  0
   36.9490   33.4060   40.3050 O   0  0  0  0  0  0  0  0  0  0  0  0
   37.2130   34.1280   39.6810 H   0  0  0  0  0  0  0  0  0  0  0  0
  1  4  1  6  0  0  0
  1  2  1  0  0  0  0
  1 12  1  0  0  0  0
  1  3  1  0  0  0  0
  2  5  1  0  0  0  0
  2  3  1  0  0  0  0
  3  7  1  1  0  0  0
  6  2  1  0  0  0  0
  8 16  1  0  0  0  0
  9  8  1  0  0  0  0
  9 14  1  0  0  0  0
 10  9  2  0  0  0  0
 11 12  2  0  0  0  0
 11 10  1  0  0  0  0
 12 13  1  0  0  0  0
 13  8  2  0  0  0  0
 15 10  1  0  0  0  0
 16 18  1  0  0  0  0
 16 17  2  0  0  0  0
 19 20  1  0  0  0  0
 19 24  1  1  0  0  0
 20  3  1  0  0  0  0
 20 21  1  1  0  0  0
 22 21  1  0  0  0  0
 23 19  1  0  0  0  0
 23 26  1  1  0  0  0
 23 22  1  0  0  0  0
 24 25  1  0  0  0  0
 27 26  1  0  0  0  0
M  END
>  <minimizedAffinity>
-5.18656349

$$$$

 OpenBabel03252507583D

 27 29  0  0  1  0  0  0  0  0999 V2000
   40.0500   29.4630   39.7430 C   0  0  1  0  0  0  0  0  0  0  0  0
   40.1300   29.3960   38.2510 C   0  0  0  0  0  0  0  0  0  0  0  0
   39.8690   30.6990   38.9220 C   0  0  2  0  0  0  0  0  0  0  0  0
   40.9520   29.3190   40.3360 H   0  0  0  0  0  0  0  0  0  0  0  0
   39.3190   28.7990   37.7800 H   0  0  0  0  0  0  0  0  0  0  0  0
   41.1430   29.1840   37.8470 H   0  0  0  0  0  0  0  0  0  0  0  0
   38.8230   31.0730   38.7300 H   0  0  0  0  0  0  0  0  0  0  0  0
   37.6290   27.4100   41.5880 C   0  0  0  0  0  0  0  0  0  0  0  0
   36.4970   28.2570   41.7100 C   0  0  0  0  0  0  0  0  0  0  0  0
   36.6030   29.5410   41.1470 C   0  0  0  0  0  0  0  0  0  0  0  0
   37.7660   29.8900   40.5260 N   0  0  0  0  0  0  0  0  0  0  0  0
   38.8100   29.0170   40.4510 C   0  0  0  0  0  0  0  0  0  0  0  0
   38.7700   27.7920   40.9640 N   0  0  0  0  0  0  0  0  0  0  0  0
   35.6030   27.9450   42.2040 H   0  0  0  0  0  0  0  0  0  0  0  0
   35.7850   30.2230   41.2070 H   0  0  0  0  0  0  0  0  0  0  0  0
   37.4570   26.1130   42.1730 C   0  0  0  0  0  0  0  0  0  0  0  0
   36.8350   25.1450   41.6340 O   0  0  0  0  0  0  0  0  0  0  0  0
   37.8630   25.8540   43.1620 H   0  0  0  0  0  0  0  0  0  0  0  0
   41.3740   32.0940   37.4460 C   0  0  2  0  0  3  0  0  0  0  0  0
   40.9240   31.7420   38.8310 C   0  0  1  0  0  3  0  0  0  0  0  0
   40.5170   32.9820   39.3130 O   0  0  0  0  0  0  0  0  0  0  0  0
   41.5020   33.8700   38.9560 C   0  0  0  0  0  2  0  0  0  0  0  0
   42.2470   33.3140   37.7650 C   0  0  2  0  0  3  0  0  0  0  0  0
   40.2870   32.4820   36.7000 O   0  0  0  0  0  0  0  0  0  0  0  0
   40.1820   33.4670   36.6920 H   0  0  0  0  0  0  0  0  0  0  0  0
   42.2380   34.1590   36.6700 O   0  0  0  0  0  0  0  0  0  0  0  0
   43.1580   34.5130   36.5790 H   0  0  0  0  0  0  0  0  0  0  0  0
  1  4  1  1  0  0  0
  1 12  1  0  0  0  0
  2  3  1  0  0  0  0
  2  1  1  0  0  0  0
  3  7  1  6  0  0  0
  3  1  1  0  0  0  0
  5  2  1  0  0  0  0
  6  2  1  0  0  0  0
  8  9  1  0  0  0  0
  8 16  1  0  0  0  0
  9 14  1  0  0  0  0
 10 15  1  0  0  0  0
 10  9  2  0  0  0  0
 11 10  1  0  0  0  0
 12 11  2  0  0  0  0
 12 13  1  0  0  0  0
 13  8  2  0  0  0  0
 16 18  1  0  0  0  0
 17 16  2  0  0  0  0
 19 24  1  6  0  0  0
 19 23  1  0  0  0  0
 19 20  1  0  0  0  0
 20  3  1  0  0  0  0
 20 21  1  6  0  0  0
 22 21  1  0  0  0  0
 23 26  1  6  0  0  0
 23 22  1  0  0  0  0
 25 24  1  0  0  0  0
 27 26  1  0  0  0  0
M  END
>  <minimizedAffinity>
-4.8696599

$$$$

 OpenBabel03252507583D

 27 29  0  0  1  0  0  0  0  0999 V2000
   38.0350   28.3870   42.4740 C   0  0  1  0  0  0  0  0  0  0  0  0
   37.2230   28.0360   43.6800 C   0  0  0  0  0  0  0  0  0  0  0  0
   36.9800   27.3320   42.3910 C   0  0  2  0  0  0  0  0  0  0  0  0
   39.0900   28.1200   42.4410 H   0  0  0  0  0  0  0  0  0  0  0  0
   36.5650   28.8580   44.0380 H   0  0  0  0  0  0  0  0  0  0  0  0
   37.7840   27.5190   44.4870 H   0  0  0  0  0  0  0  0  0  0  0  0
   35.9810   27.5980   41.9430 H   0  0  0  0  0  0  0  0  0  0  0  0
   38.2870   31.7270   40.9710 C   0  0  0  0  0  0  0  0  0  0  0  0
   37.0710   31.8630   40.2530 C   0  0  0  0  0  0  0  0  0  0  0  0
   36.1810   30.7780   40.3030 C   0  0  0  0  0  0  0  0  0  0  0  0
   36.5330   29.6750   41.0260 N   0  0  0  0  0  0  0  0  0  0  0  0
   37.7220   29.6220   41.6890 C   0  0  0  0  0  0  0  0  0  0  0  0
   38.6040   30.6160   41.6790 N   0  0  0  0  0  0  0  0  0  0  0  0
   36.8330   32.7450   39.6990 H   0  0  0  0  0  0  0  0  0  0  0  0
   35.2500   30.8210   39.7840 H   0  0  0  0  0  0  0  0  0  0  0  0
   39.1480   32.8710   40.8890 C   0  0  0  0  0  0  0  0  0  0  0  0
   38.7680   34.0540   40.6290 O   0  0  0  0  0  0  0  0  0  0  0  0
   40.2340   32.8030   41.0500 H   0  0  0  0  0  0  0  0  0  0  0  0
   37.0520   25.2150   41.0110 C   0  0  2  0  0  3  0  0  0  0  0  0
   37.3200   25.8870   42.3230 C   0  0  1  0  0  3  0  0  0  0  0  0
   38.6770   25.6300   42.4930 O   0  0  0  0  0  0  0  0  0  0  0  0
   38.8550   24.3040   42.1830 C   0  0  0  0  0  2  0  0  0  0  0  0
   37.7310   23.8640   41.2740 C   0  0  2  0  0  3  0  0  0  0  0  0
   37.7190   25.8850   40.0130 O   0  0  0  0  0  0  0  0  0  0  0  0
   38.5940   25.4650   39.8130 H   0  0  0  0  0  0  0  0  0  0  0  0
   38.1720   23.3530   40.0670 O   0  0  0  0  0  0  0  0  0  0  0  0
   38.0000   22.3780   40.0940 H   0  0  0  0  0  0  0  0  0  0  0  0
  1  4  1  6  0  0  0
  1  2  1  0  0  0  0
  2  5  1  0  0  0  0
  2  6  1  0  0  0  0
  3  7  1  6  0  0  0
  3  1  1  0  0  0  0
  3  2  1  0  0  0  0
  8 13  1  0  0  0  0
  9 10  1  0  0  0  0
  9  8  2  0  0  0  0
 10 11  2  0  0  0  0
 11 12  1  0  0  0  0
 12  1  1  0  0  0  0
 13 12  2  0  0  0  0
 14  9  1  0  0  0  0
 15 10  1  0  0  0  0
 16  8  1  0  0  0  0
 16 18  1  0  0  0  0
 17 16  2  0  0  0  0
 19 24  1  6  0  0  0
 19 23  1  0  0  0  0
 19 20  1  0  0  0  0
 20  3  1  0  0  0  0
 20 21  1  6  0  0  0
 22 21  1  0  0  0  0
 23 26  1  6  0  0  0
 23 22  1  0  0  0  0
 25 24  1  0  0  0  0
 26 27  1  0  0  0  0
M  END
>  <minimizedAffinity>
-4.84451675

$$$$

 OpenBabel03252507583D

 27 29  0  0  1  0  0  0  0  0999 V2000
   37.8470   29.5920   40.1800 C   0  0  1  0  0  0  0  0  0  0  0  0
   36.7200   30.2830   39.4800 C   0  0  0  0  0  0  0  0  0  0  0  0
   37.5320   31.0210   40.4860 C   0  0  2  0  0  0  0  0  0  0  0  0
   38.7450   29.3300   39.6230 H   0  0  0  0  0  0  0  0  0  0  0  0
   35.7160   29.8680   39.7190 H   0  0  0  0  0  0  0  0  0  0  0  0
   36.8880   30.4710   38.3990 H   0  0  0  0  0  0  0  0  0  0  0  0
   36.9420   31.2590   41.4160 H   0  0  0  0  0  0  0  0  0  0  0  0
   37.1580   26.5350   42.0920 C   0  0  0  0  0  0  0  0  0  0  0  0
   37.0320   26.9970   43.4270 C   0  0  0  0  0  0  0  0  0  0  0  0
   37.1970   28.3760   43.6390 C   0  0  0  0  0  0  0  0  0  0  0  0
   37.4630   29.1750   42.5660 N   0  0  0  0  0  0  0  0  0  0  0  0
   37.5680   28.6540   41.3110 C   0  0  0  0  0  0  0  0  0  0  0  0
   37.4230   27.3590   41.0490 N   0  0  0  0  0  0  0  0  0  0  0  0
   36.8220   26.3360   44.2400 H   0  0  0  0  0  0  0  0  0  0  0  0
   37.1140   28.7830   44.6210 H   0  0  0  0  0  0  0  0  0  0  0  0
   36.9700   25.1220   41.9390 C   0  0  0  0  0  0  0  0  0  0  0  0
   37.8550   24.2390   42.1620 O   0  0  0  0  0  0  0  0  0  0  0  0
   36.0150   24.6870   41.6070 H   0  0  0  0  0  0  0  0  0  0  0  0
   39.0390   32.9690   41.0540 C   0  0  2  0  0  3  0  0  0  0  0  0
   38.3860   32.1350   39.9960 C   0  0  1  0  0  3  0  0  0  0  0  0
   39.4870   31.7040   39.2630 O   0  0  0  0  0  0  0  0  0  0  0  0
   40.2800   32.8110   39.0820 C   0  0  0  0  0  2  0  0  0  0  0  0
   39.9740   33.8100   40.1750 C   0  0  2  0  0  3  0  0  0  0  0  0
   39.7820   32.1570   41.8790 O   0  0  0  0  0  0  0  0  0  0  0  0
   40.7340   32.1320   41.6050 H   0  0  0  0  0  0  0  0  0  0  0  0
   41.0830   34.1600   40.9220 O   0  0  0  0  0  0  0  0  0  0  0  0
   41.3040   35.0940   40.6770 H   0  0  0  0  0  0  0  0  0  0  0  0
  1  4  1  6  0  0  0
  1  3  1  0  0  0  0
  1 12  1  0  0  0  0
  2  5  1  0  0  0  0
  2  1  1  0  0  0  0
  2  3  1  0  0  0  0
  3  7  1  1  0  0  0
  6  2  1  0  0  0  0
  8  9  1  0  0  0  0
  9 10  2  0  0  0  0
  9 14  1  0  0  0  0
 10 15  1  0  0  0  0
 11 10  1  0  0  0  0
 12 11  2  0  0  0  0
 13 12  1  0  0  0  0
 13  8  2  0  0  0  0
 16  8  1  0  0  0  0
 16 17  2  0  0  0  0
 18 16  1  0  0  0  0
 19 24  1  1  0  0  0
 20 21  1  6  0  0  0
 20  3  1  0  0  0  0
 20 19  1  0  0  0  0
 22 21  1  0  0  0  0
 22 23  1  0  0  0  0
 23 26  1  1  0  0  0
 23 19  1  0  0  0  0
 25 24  1  0  0  0  0
 27 26  1  0  0  0  0
M  END
>  <minimizedAffinity>
-4.75642109

$$$$

 OpenBabel03252507583D

 27 29  0  0  1  0  0  0  0  0999 V2000
   37.4080   27.4710   39.3390 C   0  0  1  0  0  0  0  0  0  0  0  0
   36.1060   28.0690   38.9090 C   0  0  0  0  0  0  0  0  0  0  0  0
   36.8990   28.7170   39.9900 C   0  0  2  0  0  0  0  0  0  0  0  0
   38.2640   27.5070   38.6670 H   0  0  0  0  0  0  0  0  0  0  0  0
   35.2210   27.4300   39.1250 H   0  0  0  0  0  0  0  0  0  0  0  0
   36.1090   28.5100   37.8900 H   0  0  0  0  0  0  0  0  0  0  0  0
   36.3930   28.6370   40.9940 H   0  0  0  0  0  0  0  0  0  0  0  0
   37.7400   24.0290   40.5730 C   0  0  0  0  0  0  0  0  0  0  0  0
   37.4140   24.1350   41.9500 C   0  0  0  0  0  0  0  0  0  0  0  0
   37.0870   25.4150   42.4270 C   0  0  0  0  0  0  0  0  0  0  0  0
   37.1020   26.4630   41.5530 N   0  0  0  0  0  0  0  0  0  0  0  0
   37.4270   26.2790   40.2430 C   0  0  0  0  0  0  0  0  0  0  0  0
   37.7450   25.0930   39.7340 N   0  0  0  0  0  0  0  0  0  0  0  0
   37.4140   23.2880   42.6010 H   0  0  0  0  0  0  0  0  0  0  0  0
   36.8330   25.5570   43.4530 H   0  0  0  0  0  0  0  0  0  0  0  0
   38.0550   22.6980   40.1450 C   0  0  0  0  0  0  0  0  0  0  0  0
   38.8930   22.4010   39.2380 O   0  0  0  0  0  0  0  0  0  0  0  0
   37.5780   21.8090   40.5850 H   0  0  0  0  0  0  0  0  0  0  0  0
   36.5380   31.2050   39.7320 C   0  0  2  0  0  3  0  0  0  0  0  0
   37.4900   30.0500   39.7020 C   0  0  1  0  0  3  0  0  0  0  0  0
   38.4370   30.4480   40.6400 O   0  0  0  0  0  0  0  0  0  0  0  0
   38.7140   31.7650   40.3660 C   0  0  0  0  0  2  0  0  0  0  0  0
   37.5380   32.3630   39.6280 C   0  0  2  0  0  3  0  0  0  0  0  0
   35.9070   31.2430   40.9530 O   0  0  0  0  0  0  0  0  0  0  0  0
   36.3570   31.8670   41.5770 H   0  0  0  0  0  0  0  0  0  0  0  0
   37.0000   33.4680   40.2620 O   0  0  0  0  0  0  0  0  0  0  0  0
   37.2380   34.2540   39.7100 H   0  0  0  0  0  0  0  0  0  0  0  0
  1  4  1  6  0  0  0
  1  3  1  0  0  0  0
  1 12  1  0  0  0  0
  2  5  1  0  0  0  0
  2  1  1  0  0  0  0
  2  3  1  0  0  0  0
  3  7  1  1  0  0  0
  6  2  1  0  0  0  0
  8  9  1  0  0  0  0
  9 10  2  0  0  0  0
  9 14  1  0  0  0  0
 10 15  1  0  0  0  0
 11 10  1  0  0  0  0
 12 11  2  0  0  0  0
 13 12  1  0  0  0  0
 13  8  2  0  0  0  0
 16  8  1  0  0  0  0
 16 18  1  0  0  0  0
 17 16  2  0  0  0  0
 19 24  1  1  0  0  0
 20 19  1  0  0  0  0
 20  3  1  0  0  0  0
 20 21  1  1  0  0  0
 22 21  1  0  0  0  0
 23 19  1  0  0  0  0
 23 26  1  1  0  0  0
 23 22  1  0  0  0  0
 24 25  1  0  0  0  0
 27 26  1  0  0  0  0
M  END
>  <minimizedAffinity>
-4.73504925

$$$$

 OpenBabel03252507583D

 27 29  0  0  1  0  0  0  0  0999 V2000
   35.1740   28.7160   37.3680 C   0  0  1  0  0  0  0  0  0  0  0  0
   36.3310   29.6340   37.1300 C   0  0  0  0  0  0  0  0  0  0  0  0
   35.6470   29.6300   38.4530 C   0  0  2  0  0  0  0  0  0  0  0  0
   35.3450   27.6430   37.4330 H   0  0  0  0  0  0  0  0  0  0  0  0
   36.1370   30.4190   36.3660 H   0  0  0  0  0  0  0  0  0  0  0  0
   37.3140   29.1280   37.0220 H   0  0  0  0  0  0  0  0  0  0  0  0
   35.0810   30.5850   38.6410 H   0  0  0  0  0  0  0  0  0  0  0  0
   31.6310   29.6610   37.1780 C   0  0  0  0  0  0  0  0  0  0  0  0
   31.3560   29.6480   35.7870 C   0  0  0  0  0  0  0  0  0  0  0  0
   32.4200   29.3130   34.9330 C   0  0  0  0  0  0  0  0  0  0  0  0
   33.6350   29.0240   35.4840 N   0  0  0  0  0  0  0  0  0  0  0  0
   33.8190   29.0580   36.8330 C   0  0  0  0  0  0  0  0  0  0  0  0
   32.8520   29.3680   37.6900 N   0  0  0  0  0  0  0  0  0  0  0  0
   30.3900   29.8810   35.3960 H   0  0  0  0  0  0  0  0  0  0  0  0
   32.2750   29.2870   33.8770 H   0  0  0  0  0  0  0  0  0  0  0  0
   30.5040   30.0010   37.9970 C   0  0  0  0  0  0  0  0  0  0  0  0
   29.4010   29.3730   38.0180 O   0  0  0  0  0  0  0  0  0  0  0  0
   30.5150   30.8580   38.6870 H   0  0  0  0  0  0  0  0  0  0  0  0
   36.6700   30.1240   40.7100 C   0  0  2  0  0  3  0  0  0  0  0  0
   36.4150   29.1270   39.6210 C   0  0  1  0  0  3  0  0  0  0  0  0
   35.7620   28.1170   40.3190 O   0  0  0  0  0  0  0  0  0  0  0  0
   36.4800   27.9250   41.4730 C   0  0  0  0  0  2  0  0  0  0  0  0
   37.2500   29.1890   41.7800 C   0  0  2  0  0  3  0  0  0  0  0  0
   35.4720   30.6400   41.1430 O   0  0  0  0  0  0  0  0  0  0  0  0
   35.1370   30.1620   41.9440 H   0  0  0  0  0  0  0  0  0  0  0  0
   36.9630   29.7160   43.0260 O   0  0  0  0  0  0  0  0  0  0  0  0
   37.7640   29.5650   43.5870 H   0  0  0  0  0  0  0  0  0  0  0  0
  1  4  1  1  0  0  0
  1  3  1  0  0  0  0
  2  1  1  0  0  0  0
  2  3  1  0  0  0  0
  3  7  1  1  0  0  0
  3 20  1  0  0  0  0
  5  2  1  0  0  0  0
  6  2  1  0  0  0  0
  8 13  1  0  0  0  0
  8 16  1  0  0  0  0
  9  8  2  0  0  0  0
 10 11  2  0  0  0  0
 10  9  1  0  0  0  0
 11 12  1  0  0  0  0
 12  1  1  0  0  0  0
 12 13  2  0  0  0  0
 14  9  1  0  0  0  0
 15 10  1  0  0  0  0
 16 17  2  0  0  0  0
 16 18  1  0  0  0  0
 19 24  1  1  0  0  0
 19 23  1  0  0  0  0
 20 21  1  1  0  0  0
 20 19  1  0  0  0  0
 21 22  1  0  0  0  0
 22 23  1  0  0  0  0
 23 26  1  1  0  0  0
 24 25  1  0  0  0  0
 26 27  1  0  0  0  0
M  END
>  <minimizedAffinity>
-4.67919397

$$$$

 OpenBabel03252507583D

 27 29  0  0  1  0  0  0  0  0999 V2000
   37.7940   32.0250   39.3240 C   0  0  1  0  0  0  0  0  0  0  0  0
   37.3490   33.4260   39.6020 C   0  0  0  0  0  0  0  0  0  0  0  0
   38.6340   32.9300   40.1670 C   0  0  2  0  0  0  0  0  0  0  0  0
   38.1110   31.7520   38.3190 H   0  0  0  0  0  0  0  0  0  0  0  0
   36.4210   33.4940   40.2120 H   0  0  0  0  0  0  0  0  0  0  0  0
   37.3650   34.1040   38.7230 H   0  0  0  0  0  0  0  0  0  0  0  0
   38.5910   32.8210   41.2880 H   0  0  0  0  0  0  0  0  0  0  0  0
   37.1930   29.4520   41.8720 C   0  0  0  0  0  0  0  0  0  0  0  0
   36.0540   28.7600   41.3870 C   0  0  0  0  0  0  0  0  0  0  0  0
   35.5090   29.2110   40.1730 C   0  0  0  0  0  0  0  0  0  0  0  0
   36.0980   30.2690   39.5430 N   0  0  0  0  0  0  0  0  0  0  0  0
   37.1920   30.8810   40.0760 C   0  0  0  0  0  0  0  0  0  0  0  0
   37.7520   30.5000   41.2200 N   0  0  0  0  0  0  0  0  0  0  0  0
   35.6230   27.9350   41.9100 H   0  0  0  0  0  0  0  0  0  0  0  0
   34.6520   28.7310   39.7570 H   0  0  0  0  0  0  0  0  0  0  0  0
   37.7080   28.9400   43.1090 C   0  0  0  0  0  0  0  0  0  0  0  0
   37.3230   27.8690   43.6730 O   0  0  0  0  0  0  0  0  0  0  0  0
   38.4970   29.4540   43.6760 H   0  0  0  0  0  0  0  0  0  0  0  0
   40.9660   33.7650   40.6710 C   0  0  2  0  0  3  0  0  0  0  0  0
   39.8890   33.5390   39.6540 C   0  0  1  0  0  3  0  0  0  0  0  0
   40.5500   32.7410   38.7260 O   0  0  0  0  0  0  0  0  0  0  0  0
   41.7760   33.3260   38.5260 C   0  0  0  0  0  2  0  0  0  0  0  0
   42.1180   34.1610   39.7380 C   0  0  2  0  0  3  0  0  0  0  0  0
   41.2590   32.5760   41.2950 O   0  0  0  0  0  0  0  0  0  0  0  0
   42.0380   32.1270   40.8770 H   0  0  0  0  0  0  0  0  0  0  0  0
   43.3110   33.7970   40.3350 O   0  0  0  0  0  0  0  0  0  0  0  0
   43.9540   34.5260   40.1450 H   0  0  0  0  0  0  0  0  0  0  0  0
  1  4  1  6  0  0  0
  1  2  1  0  0  0  0
  1 12  1  0  0  0  0
  1  3  1  0  0  0  0
  2  3  1  0  0  0  0
  2  5  1  0  0  0  0
  3  7  1  1  0  0  0
  6  2  1  0  0  0  0
  8 16  1  0  0  0  0
  9  8  1  0  0  0  0
  9 14  1  0  0  0  0
 10  9  2  0  0  0  0
 11 12  2  0  0  0  0
 11 10  1  0  0  0  0
 12 13  1  0  0  0  0
 13  8  2  0  0  0  0
 15 10  1  0  0  0  0
 16 17  2  0  0  0  0
 16 18  1  0  0  0  0
 19 24  1  6  0  0  0
 20 21  1  6  0  0  0
 20  3  1  0  0  0  0
 20 19  1  0  0  0  0
 22 21  1  0  0  0  0
 22 23  1  0  0  0  0
 23 26  1  1  0  0  0
 23 19  1  0  0  0  0
 25 24  1  0  0  0  0
 27 26  1  0  0  0  0
M  END
>  <minimizedAffinity>
-4.63652134

$$$$

 OpenBabel03252507583D

 27 29  0  0  1  0  0  0  0  0999 V2000
   37.3940   29.6500   37.6520 C   0  0  1  0  0  0  0  0  0  0  0  0
   37.8360   31.0100   38.0920 C   0  0  0  0  0  0  0  0  0  0  0  0
   37.0060   30.1700   39.0000 C   0  0  2  0  0  0  0  0  0  0  0  0
   38.1280   28.8510   37.5570 H   0  0  0  0  0  0  0  0  0  0  0  0
   37.4030   31.8420   37.4950 H   0  0  0  0  0  0  0  0  0  0  0  0
   38.9260   31.1070   38.2830 H   0  0  0  0  0  0  0  0  0  0  0  0
   35.9710   30.5920   39.1400 H   0  0  0  0  0  0  0  0  0  0  0  0
   34.0260   29.0610   36.3130 C   0  0  0  0  0  0  0  0  0  0  0  0
   34.1920   29.2180   34.9130 C   0  0  0  0  0  0  0  0  0  0  0  0
   35.4830   29.5340   34.4580 C   0  0  0  0  0  0  0  0  0  0  0  0
   36.4850   29.6690   35.3750 N   0  0  0  0  0  0  0  0  0  0  0  0
   36.2450   29.5020   36.7060 C   0  0  0  0  0  0  0  0  0  0  0  0
   35.0460   29.2020   37.1950 N   0  0  0  0  0  0  0  0  0  0  0  0
   33.3800   29.1040   34.2280 H   0  0  0  0  0  0  0  0  0  0  0  0
   35.6690   29.6650   33.4160 H   0  0  0  0  0  0  0  0  0  0  0  0
   32.6900   28.7300   36.7130 C   0  0  0  0  0  0  0  0  0  0  0  0
   31.9190   29.4860   37.3820 O   0  0  0  0  0  0  0  0  0  0  0  0
   32.2210   27.7670   36.4610 H   0  0  0  0  0  0  0  0  0  0  0  0
   37.1490   30.2820   41.5200 C   0  0  2  0  0  3  0  0  0  0  0  0
   37.6440   29.6700   40.2460 C   0  0  1  0  0  3  0  0  0  0  0  0
   37.4140   28.3190   40.4800 O   0  0  0  0  0  0  0  0  0  0  0  0
   37.8630   28.0710   41.7540 C   0  0  0  0  0  2  0  0  0  0  0  0
   37.8520   29.3670   42.5310 C   0  0  2  0  0  3  0  0  0  0  0  0
   35.7870   30.1120   41.6070 O   0  0  0  0  0  0  0  0  0  0  0  0
   35.5530   29.3120   42.1440 H   0  0  0  0  0  0  0  0  0  0  0  0
   37.0840   29.3080   43.6800 O   0  0  0  0  0  0  0  0  0  0  0  0
   37.7150   29.3180   44.4420 H   0  0  0  0  0  0  0  0  0  0  0  0
  1  4  1  6  0  0  0
  1  2  1  0  0  0  0
  1  3  1  0  0  0  0
  2  6  1  0  0  0  0
  2  3  1  0  0  0  0
  3  7  1  1  0  0  0
  3 20  1  0  0  0  0
  5  2  1  0  0  0  0
  8 16  1  0  0  0  0
  8 13  1  0  0  0  0
  9  8  2  0  0  0  0
 10  9  1  0  0  0  0
 10 11  2  0  0  0  0
 11 12  1  0  0  0  0
 12 13  2  0  0  0  0
 12  1  1  0  0  0  0
 14  9  1  0  0  0  0
 15 10  1  0  0  0  0
 16 17  2  0  0  0  0
 18 16  1  0  0  0  0
 19 24  1  6  0  0  0
 19 23  1  0  0  0  0
 20 21  1  1  0  0  0
 20 19  1  0  0  0  0
 21 22  1  0  0  0  0
 22 23  1  0  0  0  0
 23 26  1  1  0  0  0
 24 25  1  0  0  0  0
 26 27  1  0  0  0  0
M  END
>  <minimizedAffinity>
-4.63561583

$$$$

 OpenBabel03252507583D

 27 29  0  0  1  0  0  0  0  0999 V2000
   37.3360   30.1150   37.4210 C   0  0  1  0  0  0  0  0  0  0  0  0
   37.5830   31.4360   36.7640 C   0  0  0  0  0  0  0  0  0  0  0  0
   37.2170   31.3810   38.2060 C   0  0  2  0  0  0  0  0  0  0  0  0
   38.1690   29.4350   37.5890 H   0  0  0  0  0  0  0  0  0  0  0  0
   36.8440   31.6950   35.9750 H   0  0  0  0  0  0  0  0  0  0  0  0
   38.6400   31.6230   36.4760 H   0  0  0  0  0  0  0  0  0  0  0  0
   36.1900   31.8040   38.3990 H   0  0  0  0  0  0  0  0  0  0  0  0
   34.5850   28.2490   35.8620 C   0  0  0  0  0  0  0  0  0  0  0  0
   33.6250   28.1400   36.9000 C   0  0  0  0  0  0  0  0  0  0  0  0
   33.9590   28.7190   38.1360 C   0  0  0  0  0  0  0  0  0  0  0  0
   35.1660   29.3420   38.2620 N   0  0  0  0  0  0  0  0  0  0  0  0
   36.0360   29.4040   37.2150 C   0  0  0  0  0  0  0  0  0  0  0  0
   35.7760   28.8750   36.0230 N   0  0  0  0  0  0  0  0  0  0  0  0
   32.6890   27.6440   36.7600 H   0  0  0  0  0  0  0  0  0  0  0  0
   33.2770   28.6700   38.9550 H   0  0  0  0  0  0  0  0  0  0  0  0
   34.1820   27.6480   34.6240 C   0  0  0  0  0  0  0  0  0  0  0  0
   32.9830   27.3990   34.2890 O   0  0  0  0  0  0  0  0  0  0  0  0
   34.9060   27.3480   33.8520 H   0  0  0  0  0  0  0  0  0  0  0  0
   38.2070   33.2270   39.6200 C   0  0  2  0  0  3  0  0  0  0  0  0
   38.2490   31.7920   39.1930 C   0  0  1  0  0  3  0  0  0  0  0  0
   38.1370   31.1360   40.4140 O   0  0  0  0  0  0  0  0  0  0  0  0
   38.9980   31.7780   41.2710 C   0  0  0  0  0  2  0  0  0  0  0  0
   39.2290   33.1830   40.7630 C   0  0  2  0  0  3  0  0  0  0  0  0
   36.9600   33.5160   40.1210 O   0  0  0  0  0  0  0  0  0  0  0  0
   36.9370   33.4380   41.1090 H   0  0  0  0  0  0  0  0  0  0  0  0
   38.8990   34.1580   41.6860 O   0  0  0  0  0  0  0  0  0  0  0  0
   39.7520   34.5550   41.9940 H   0  0  0  0  0  0  0  0  0  0  0  0
  1  4  1  1  0  0  0
  1  3  1  0  0  0  0
  2  1  1  0  0  0  0
  2  3  1  0  0  0  0
  3  7  1  1  0  0  0
  3 20  1  0  0  0  0
  5  2  1  0  0  0  0
  6  2  1  0  0  0  0
  8 13  2  0  0  0  0
  8  9  1  0  0  0  0
  9 10  2  0  0  0  0
 10 11  1  0  0  0  0
 10 15  1  0  0  0  0
 12  1  1  0  0  0  0
 12 11  2  0  0  0  0
 13 12  1  0  0  0  0
 14  9  1  0  0  0  0
 16  8  1  0  0  0  0
 17 16  2  0  0  0  0
 18 16  1  0  0  0  0
 19 24  1  1  0  0  0
 19 23  1  0  0  0  0
 20 19  1  0  0  0  0
 20 21  1  1  0  0  0
 21 22  1  0  0  0  0
 23 22  1  0  0  0  0
 23 26  1  1  0  0  0
 24 25  1  0  0  0  0
 26 27  1  0  0  0  0
M  END
>  <minimizedAffinity>
-4.6134634

$$$$
