
 OpenBabel03242523463D

 19 20  0  0  1  0  0  0  0  0999 V2000
   44.9800   35.4260   44.1290 C   0  0  0  0  0  0  0  0  0  0  0  0
   45.9680   35.0640   43.1960 C   0  0  0  0  0  0  0  0  0  0  0  0
   46.8480   34.0360   43.5580 C   0  0  0  0  0  0  0  0  0  0  0  0
   46.7090   33.4410   44.7790 N   0  0  0  0  0  0  0  0  0  0  0  0
   45.7440   33.8260   45.6390 C   0  0  0  0  0  0  0  0  0  0  0  0
   44.8940   34.8010   45.3210 N   0  0  0  0  0  0  0  0  0  0  0  0
   46.0960   35.5180   42.2300 H   0  0  0  0  0  0  0  0  0  0  0  0
   45.6940   33.3050   46.5970 H   0  0  0  0  0  0  0  0  0  0  0  0
   49.2210   34.3160   42.8120 C   0  0  1  0  0  3  0  0  0  0  0  0
   47.9270   33.5330   42.7200 C   0  0  1  0  0  3  0  0  0  0  0  0
   48.3700   32.2770   43.1240 O   0  0  0  0  0  0  0  0  0  0  0  0
   49.5350   32.0240   42.4300 C   0  0  0  0  0  2  0  0  0  0  0  0
   50.1430   33.3500   42.0560 C   0  0  2  0  0  3  0  0  0  0  0  0
   49.1660   35.5470   42.1800 O   0  0  0  0  0  0  0  0  0  0  0  0
   49.6890   36.2560   42.6720 H   0  0  0  0  0  0  0  0  0  0  0  0
   51.4560   33.4830   42.4570 O   0  0  0  0  0  0  0  0  0  0  0  0
   52.0310   33.8520   41.7330 H   0  0  0  0  0  0  0  0  0  0  0  0
   44.1240   36.4280   43.7760 O   0  0  0  0  0  0  0  0  0  0  0  0
   44.4950   37.2130   43.2540 H   0  0  0  0  0  0  0  0  0  0  0  0
  1  6  1  0  0  0  0
  2  3  1  0  0  0  0
  2  1  2  0  0  0  0
  3  4  2  0  0  0  0
  4  5  1  0  0  0  0
  5  8  1  0  0  0  0
  6  5  2  0  0  0  0
  7  2  1  0  0  0  0
  9 14  1  6  0  0  0
 10  9  1  0  0  0  0
 10 11  1  0  0  0  0
 10  3  1  1  0  0  0
 12 11  1  0  0  0  0
 13 12  1  0  0  0  0
 13 16  1  1  0  0  0
 13  9  1  0  0  0  0
 14 15  1  0  0  0  0
 17 16  1  0  0  0  0
 18  1  1  0  0  0  0
 19 18  1  0  0  0  0
M  END
>  <minimizedAffinity>
-5.01204538

>  <minimizedRMSD>
0.566094697

$$$$
