
 OpenBabel03252505253D

 43 46  0  0  1  0  0  0  0  0999 V2000
   49.0780   29.9170   44.4810 F   0  0  0  0  0  0  0  0  0  0  0  0
   50.3720   29.5160   44.5850 C   0  0  0  0  0  0  0  0  0  0  0  0
   51.2150   29.7720   43.5350 C   0  0  0  0  0  0  0  0  0  0  0  0
   52.5190   29.3600   43.6560 C   0  0  0  0  0  0  0  0  0  0  0  0
   52.9370   28.7160   44.7990 C   0  0  0  0  0  0  0  0  0  0  0  0
   52.0920   28.4590   45.8510 C   0  0  0  0  0  0  0  0  0  0  0  0
   50.7710   28.8770   45.7270 C   0  0  0  0  0  0  0  0  0  0  0  0
   53.1620   29.5800   42.8030 H   0  0  0  0  0  0  0  0  0  0  0  0
   53.9910   28.4310   44.7920 H   0  0  0  0  0  0  0  0  0  0  0  0
   52.4660   27.9490   46.7290 H   0  0  0  0  0  0  0  0  0  0  0  0
   49.9240   28.5930   46.8380 N   0  0  0  0  0  0  0  0  0  0  0  0
   49.3780   27.3510   47.3130 C   0  0  0  0  0  0  0  0  0  0  0  0
   49.7370   27.3800   48.8050 C   0  0  0  0  0  0  0  0  0  0  0  0
   49.8820   28.8490   49.1100 C   0  0  0  0  0  0  0  0  0  0  0  0
   49.3510   29.4790   47.8360 C   0  0  2  0  0  0  0  0  0  0  0  0
   49.8740   26.4630   46.8500 H   0  0  0  0  0  0  0  0  0  0  0  0
   48.2980   27.2520   47.2120 H   0  0  0  0  0  0  0  0  0  0  0  0
   48.9700   26.8720   49.4230 H   0  0  0  0  0  0  0  0  0  0  0  0
   50.7090   26.8880   48.9520 H   0  0  0  0  0  0  0  0  0  0  0  0
   49.3520   29.1760   50.0180 H   0  0  0  0  0  0  0  0  0  0  0  0
   50.9640   29.1560   49.1940 H   0  0  0  0  0  0  0  0  0  0  0  0
   49.8390   30.4910   47.7660 H   0  0  0  0  0  0  0  0  0  0  0  0
   47.8700   29.5920   47.7710 C   0  0  0  0  0  0  0  0  0  0  0  0
   47.5860   30.6790   47.7080 H   0  0  0  0  0  0  0  0  0  0  0  0
   47.4050   29.1310   46.8720 H   0  0  0  0  0  0  0  0  0  0  0  0
   47.4020   29.2250   48.7230 H   0  0  0  0  0  0  0  0  0  0  0  0
   50.2340   30.4110   40.0650 C   0  0  0  0  0  0  0  0  0  0  0  0
   49.8150   31.7440   40.0970 C   0  0  0  0  0  0  0  0  0  0  0  0
   49.8820   32.3940   41.3260 C   0  0  0  0  0  0  0  0  0  0  0  0
   50.3430   31.7150   42.4150 N   0  0  0  0  0  0  0  0  0  0  0  0
   50.7290   30.4580   42.3440 C   0  0  0  0  0  0  0  0  0  0  0  0
   50.6770   29.8040   41.1770 N   0  0  0  0  0  0  0  0  0  0  0  0
   50.1920   29.8800   39.1240 H   0  0  0  0  0  0  0  0  0  0  0  0
   49.4740   32.1760   39.1890 H   0  0  0  0  0  0  0  0  0  0  0  0
   49.4870   34.2920   42.8020 C   0  0  2  0  0  3  0  0  0  0  0  0
   49.4440   33.8130   41.3930 C   0  0  2  0  0  3  0  0  0  0  0  0
   48.1880   34.0030   40.8700 O   0  0  0  0  0  0  0  0  0  0  0  0
   47.3810   34.5560   41.8220 C   0  0  0  0  0  2  0  0  0  0  0  0
   48.0440   34.4930   43.1570 C   0  0  1  0  0  3  0  0  0  0  0  0
   50.2240   35.4670   42.9480 O   0  0  0  0  0  0  0  0  0  0  0  0
   51.0080   35.2680   43.5180 H   0  0  0  0  0  0  0  0  0  0  0  0
   47.5140   33.4880   43.9600 O   0  0  0  0  0  0  0  0  0  0  0  0
   46.6970   33.0670   43.5840 H   0  0  0  0  0  0  0  0  0  0  0  0
  1  2  1  0  0  0  0
  2  7  1  0  0  0  0
  3  4  1  0  0  0  0
  3  2  2  0  0  0  0
  4  5  2  0  0  0  0
  5  6  1  0  0  0  0
  6 10  1  0  0  0  0
  7  6  2  0  0  0  0
  7 11  1  0  0  0  0
  8  4  1  0  0  0  0
  9  5  1  0  0  0  0
 11 12  1  0  0  0  0
 11 15  1  0  0  0  0
 12 13  1  0  0  0  0
 13 19  1  0  0  0  0
 13 14  1  0  0  0  0
 13 18  1  0  0  0  0
 14 21  1  0  0  0  0
 14 20  1  0  0  0  0
 15 22  1  6  0  0  0
 15 14  1  0  0  0  0
 16 12  1  0  0  0  0
 17 12  1  0  0  0  0
 23 15  1  0  0  0  0
 23 26  1  0  0  0  0
 24 23  1  0  0  0  0
 25 23  1  0  0  0  0
 27 28  2  0  0  0  0
 27 32  1  0  0  0  0
 28 29  1  0  0  0  0
 29 30  2  0  0  0  0
 31 30  1  0  0  0  0
 31  3  1  0  0  0  0
 32 31  2  0  0  0  0
 33 27  1  0  0  0  0
 34 28  1  0  0  0  0
 35 40  1  6  0  0  0
 35 39  1  0  0  0  0
 36 29  1  1  0  0  0
 36 35  1  0  0  0  0
 37 36  1  0  0  0  0
 37 38  1  0  0  0  0
 38 39  1  0  0  0  0
 39 42  1  1  0  0  0
 40 41  1  0  0  0  0
 43 42  1  0  0  0  0
M  END
>  <minimizedAffinity>
-4.44980097

>  <minimizedRMSD>
4.62141228

$$$$
