
 OpenBabel03252506013D

 28 30  0  0  1  0  0  0  0  0999 V2000
   44.9910   36.3630   43.1220 Cl  0  0  0  0  0  0  0  0  0  0  0  0
   45.5500   35.0190   44.0710 C   0  0  0  0  0  0  0  0  0  0  0  0
   46.4950   34.1790   43.5710 C   0  0  0  0  0  0  0  0  0  0  0  0
   46.8810   33.1370   44.3930 C   0  0  0  0  0  0  0  0  0  0  0  0
   46.3790   32.9020   45.6590 C   0  0  0  0  0  0  0  0  0  0  0  0
   45.4280   33.7730   46.1260 C   0  0  0  0  0  0  0  0  0  0  0  0
   44.8190   33.4390   47.7350 Cl  0  0  0  0  0  0  0  0  0  0  0  0
   45.0160   34.8210   45.3430 C   0  0  0  0  0  0  0  0  0  0  0  0
   47.6400   32.4530   44.0020 H   0  0  0  0  0  0  0  0  0  0  0  0
   44.2610   35.4690   45.7740 H   0  0  0  0  0  0  0  0  0  0  0  0
   48.7010   35.3310   40.8920 C   0  0  0  0  0  0  0  0  0  0  0  0
   48.2010   34.6940   39.7600 C   0  0  0  0  0  0  0  0  0  0  0  0
   47.0840   33.8530   39.9160 C   0  0  0  0  0  0  0  0  0  0  0  0
   46.5680   33.7170   41.1630 N   0  0  0  0  0  0  0  0  0  0  0  0
   47.0780   34.3510   42.2460 C   0  0  0  0  0  0  0  0  0  0  0  0
   48.1460   35.1590   42.1100 N   0  0  0  0  0  0  0  0  0  0  0  0
   49.5700   35.9750   40.7250 H   0  0  0  0  0  0  0  0  0  0  0  0
   48.5640   34.7650   38.7650 H   0  0  0  0  0  0  0  0  0  0  0  0
   46.5650   33.2840   39.1660 H   0  0  0  0  0  0  0  0  0  0  0  0
   45.8010   30.7370   46.7490 C   0  0  2  0  0  3  0  0  0  0  0  0
   46.8750   31.7570   46.4300 C   0  0  1  0  0  3  0  0  0  0  0  0
   47.7850   30.9760   45.7420 O   0  0  0  0  0  0  0  0  0  0  0  0
   47.9990   29.9070   46.6040 C   0  0  0  0  0  2  0  0  0  0  0  0
   46.6530   29.5750   47.2160 C   0  0  1  0  0  3  0  0  0  0  0  0
   45.1480   30.3050   45.5940 O   0  0  0  0  0  0  0  0  0  0  0  0
   44.7580   31.0500   45.0610 H   0  0  0  0  0  0  0  0  0  0  0  0
   46.7150   29.6990   48.6240 O   0  0  0  0  0  0  0  0  0  0  0  0
   47.3470   30.4200   48.8780 H   0  0  0  0  0  0  0  0  0  0  0  0
  1  2  1  0  0  0  0
  2  8  1  0  0  0  0
  3  2  2  0  0  0  0
  3  4  1  0  0  0  0
  4  5  2  0  0  0  0
  5  6  1  0  0  0  0
  6  7  1  0  0  0  0
  8 10  1  0  0  0  0
  8  6  2  0  0  0  0
  9  4  1  0  0  0  0
 11 16  1  0  0  0  0
 12 13  1  0  0  0  0
 12 11  2  0  0  0  0
 13 14  2  0  0  0  0
 14 15  1  0  0  0  0
 15  3  1  0  0  0  0
 16 15  2  0  0  0  0
 17 11  1  0  0  0  0
 18 12  1  0  0  0  0
 19 13  1  0  0  0  0
 20 25  1  6  0  0  0
 20 24  1  0  0  0  0
 21  5  1  6  0  0  0
 21 20  1  0  0  0  0
 22 21  1  0  0  0  0
 22 23  1  0  0  0  0
 23 24  1  0  0  0  0
 24 27  1  1  0  0  0
 26 25  1  0  0  0  0
 27 28  1  0  0  0  0
M  END
>  <minimizedAffinity>
-6.0170784

>  <minimizedRMSD>
0.480232328

$$$$
