
 OpenBabel03252507073D

 24 25  0  0  1  0  0  0  0  0999 V2000
   44.7860   35.2050   44.9350 C   0  0  0  0  0  0  0  0  0  0  0  0
   45.3050   35.4970   43.6630 C   0  0  0  0  0  0  0  0  0  0  0  0
   46.3530   34.7090   43.2100 C   0  0  0  0  0  0  0  0  0  0  0  0
   46.8350   33.6970   44.0000 N   0  0  0  0  0  0  0  0  0  0  0  0
   46.3090   33.4480   45.2200 C   0  0  0  0  0  0  0  0  0  0  0  0
   45.2920   34.2000   45.6780 N   0  0  0  0  0  0  0  0  0  0  0  0
   43.9660   35.8170   45.2980 H   0  0  0  0  0  0  0  0  0  0  0  0
   44.8570   36.3100   43.1210 H   0  0  0  0  0  0  0  0  0  0  0  0
   45.8080   31.3100   46.3670 C   0  0  2  0  0  3  0  0  0  0  0  0
   46.8940   32.3320   46.0080 C   0  0  1  0  0  3  0  0  0  0  0  0
   47.8260   31.6070   45.2820 O   0  0  0  0  0  0  0  0  0  0  0  0
   47.8110   30.3140   45.7240 C   0  0  0  0  0  2  0  0  0  0  0  0
   46.6830   30.1200   46.6940 C   0  0  2  0  0  3  0  0  0  0  0  0
   45.0970   31.0850   45.1850 O   0  0  0  0  0  0  0  0  0  0  0  0
   45.6160   31.3670   44.3700 H   0  0  0  0  0  0  0  0  0  0  0  0
   45.9690   28.9500   46.4560 O   0  0  0  0  0  0  0  0  0  0  0  0
   45.3020   29.0670   45.7290 H   0  0  0  0  0  0  0  0  0  0  0  0
   46.8650   35.0030   41.9440 O   0  0  0  0  0  0  0  0  0  0  0  0
   48.6760   33.3030   41.0270 O   0  0  0  0  0  0  0  0  0  0  0  0
   48.5250   34.7010   41.6170 P   0  0  0  0  0  0  0  0  0  0  0  0
   49.0820   35.8820   40.5780 O   0  0  0  0  0  0  0  0  0  0  0  0
   48.5960   35.8170   39.7400 H   0  0  0  0  0  0  0  0  0  0  0  0
   49.3410   34.7330   43.1040 O   0  0  0  0  0  0  0  0  0  0  0  0
   49.1320   33.8890   43.5770 H   0  0  0  0  0  0  0  0  0  0  0  0
  1  7  1  0  0  0  0
  1  6  1  0  0  0  0
  2  1  2  0  0  0  0
  3  2  1  0  0  0  0
  3  4  2  0  0  0  0
  4  5  1  0  0  0  0
  5  6  2  0  0  0  0
  8  2  1  0  0  0  0
  9 14  1  6  0  0  0
  9 13  1  0  0  0  0
 10  5  1  6  0  0  0
 10  9  1  0  0  0  0
 11 12  1  0  0  0  0
 11 10  1  0  0  0  0
 12 13  1  0  0  0  0
 13 16  1  6  0  0  0
 15 14  1  0  0  0  0
 17 16  1  0  0  0  0
 18  3  1  0  0  0  0
 19 20  2  0  0  0  0
 20 18  1  0  0  0  0
 20 23  1  0  0  0  0
 21 20  1  0  0  0  0
 22 21  1  0  0  0  0
 23 24  1  0  0  0  0
M  END
>  <minimizedAffinity>
-5.09295321

>  <minimizedRMSD>
0.841986239

$$$$
