
 OpenBabel03242515343D

 40 43  0  0  1  0  0  0  0  0999 V2000
   36.0800   29.0040   40.2280 N   0  0  0  0  0  0  0  0  0  0  0  0
   34.6750   29.1490   39.9750 C   0  0  0  0  0  0  0  0  0  0  0  0
   34.6660   28.6580   38.5350 C   0  0  0  0  0  0  0  0  0  0  0  0
   35.7260   29.6030   37.9740 C   0  0  0  0  0  0  0  0  0  0  0  0
   36.7600   29.5400   39.0440 C   0  0  1  0  0  0  0  0  0  0  0  0
   34.1350   28.4420   40.6300 H   0  0  0  0  0  0  0  0  0  0  0  0
   34.3010   30.1740   40.0710 H   0  0  0  0  0  0  0  0  0  0  0  0
   35.0810   27.6420   38.5510 H   0  0  0  0  0  0  0  0  0  0  0  0
   33.6950   28.7570   38.0600 H   0  0  0  0  0  0  0  0  0  0  0  0
   35.2810   30.6140   37.8410 H   0  0  0  0  0  0  0  0  0  0  0  0
   36.1330   29.1870   37.0140 H   0  0  0  0  0  0  0  0  0  0  0  0
   37.4940   28.7210   38.7990 H   0  0  0  0  0  0  0  0  0  0  0  0
   39.5360   29.8620   38.5450 F   0  0  0  0  0  0  0  0  0  0  0  0
   38.8490   30.9450   39.0540 C   0  0  0  0  0  0  0  0  0  0  0  0
   37.5130   30.7660   39.3040 C   0  0  0  0  0  0  0  0  0  0  0  0
   36.8630   31.8750   39.8190 C   0  0  0  0  0  0  0  0  0  0  0  0
   37.5350   33.0540   40.0530 C   0  0  0  0  0  0  0  0  0  0  0  0
   38.9070   33.1710   39.7750 C   0  0  0  0  0  0  0  0  0  0  0  0
   39.5880   32.0600   39.2510 C   0  0  0  0  0  0  0  0  0  0  0  0
   35.8110   31.9030   40.0720 H   0  0  0  0  0  0  0  0  0  0  0  0
   37.0730   33.9500   40.4550 H   0  0  0  0  0  0  0  0  0  0  0  0
   39.4370   34.1010   39.9600 H   0  0  0  0  0  0  0  0  0  0  0  0
   41.3280   32.7130   37.5860 C   0  0  1  0  0  3  0  0  0  0  0  0
   41.0390   32.1670   38.9510 C   0  0  2  0  0  3  0  0  0  0  0  0
   41.7180   30.9640   39.0860 O   0  0  0  0  0  0  0  0  0  0  0  0
   42.9610   31.2590   38.5360 C   0  0  0  0  0  2  0  0  0  0  0  0
   42.5760   31.9080   37.2060 C   0  0  2  0  0  3  0  0  0  0  0  0
   40.3410   32.4430   36.6460 O   0  0  0  0  0  0  0  0  0  0  0  0
   40.7030   31.9870   35.8420 H   0  0  0  0  0  0  0  0  0  0  0  0
   43.5700   32.7260   36.7050 O   0  0  0  0  0  0  0  0  0  0  0  0
   44.4180   32.4500   37.1370 H   0  0  0  0  0  0  0  0  0  0  0  0
   37.8000   26.6640   42.5610 C   0  0  0  0  0  0  0  0  0  0  0  0
   37.1060   27.1020   41.4400 C   0  0  0  0  0  0  0  0  0  0  0  0
   36.7880   28.4680   41.3340 C   0  0  0  0  0  0  0  0  0  0  0  0
   37.1760   29.2780   42.3320 N   0  0  0  0  0  0  0  0  0  0  0  0
   37.8500   28.8370   43.4170 C   0  0  0  0  0  0  0  0  0  0  0  0
   38.1610   27.5200   43.5270 N   0  0  0  0  0  0  0  0  0  0  0  0
   37.9930   25.6050   42.5450 H   0  0  0  0  0  0  0  0  0  0  0  0
   36.7970   26.4470   40.6400 H   0  0  0  0  0  0  0  0  0  0  0  0
   38.1630   29.4920   44.2250 H   0  0  0  0  0  0  0  0  0  0  0  0
  1 34  1  0  0  0  0
  2  7  1  0  0  0  0
  2  1  1  0  0  0  0
  2  6  1  0  0  0  0
  3  8  1  0  0  0  0
  3  2  1  0  0  0  0
  4  3  1  0  0  0  0
  4  5  1  0  0  0  0
  5 12  1  6  0  0  0
  5 15  1  0  0  0  0
  5  1  1  0  0  0  0
  9  3  1  0  0  0  0
 10  4  1  0  0  0  0
 11  4  1  0  0  0  0
 13 14  1  0  0  0  0
 14 19  2  0  0  0  0
 14 15  1  0  0  0  0
 15 16  2  0  0  0  0
 16 17  1  0  0  0  0
 16 20  1  0  0  0  0
 17 21  1  0  0  0  0
 18 22  1  0  0  0  0
 18 17  2  0  0  0  0
 19 18  1  0  0  0  0
 23 28  1  6  0  0  0
 23 24  1  0  0  0  0
 24 25  1  0  0  0  0
 24 19  1  6  0  0  0
 26 25  1  0  0  0  0
 27 30  1  1  0  0  0
 27 23  1  0  0  0  0
 27 26  1  0  0  0  0
 29 28  1  0  0  0  0
 30 31  1  0  0  0  0
 32 37  1  0  0  0  0
 33 32  2  0  0  0  0
 34 33  1  0  0  0  0
 34 35  2  0  0  0  0
 35 36  1  0  0  0  0
 36 37  2  0  0  0  0
 36 40  1  0  0  0  0
 38 32  1  0  0  0  0
 39 33  1  0  0  0  0
M  END
>  <minimizedAffinity>
-6.76639938

$$$$

 OpenBabel03242515343D

 40 43  0  0  1  0  0  0  0  0999 V2000
   38.5770   24.4930   40.7660 N   0  0  0  0  0  0  0  0  0  0  0  0
   37.8430   23.2970   41.0670 C   0  0  0  0  0  0  0  0  0  0  0  0
   36.9190   23.3040   39.8580 C   0  0  0  0  0  0  0  0  0  0  0  0
   36.3470   24.7090   40.0260 C   0  0  0  0  0  0  0  0  0  0  0  0
   37.5790   25.4830   40.3470 C   0  0  1  0  0  0  0  0  0  0  0  0
   38.5420   22.4440   41.0170 H   0  0  0  0  0  0  0  0  0  0  0  0
   37.2930   23.3290   42.0140 H   0  0  0  0  0  0  0  0  0  0  0  0
   37.5680   23.2970   38.9730 H   0  0  0  0  0  0  0  0  0  0  0  0
   36.1700   22.5190   39.8920 H   0  0  0  0  0  0  0  0  0  0  0  0
   35.5970   24.7030   40.8470 H   0  0  0  0  0  0  0  0  0  0  0  0
   35.9110   25.0590   39.0520 H   0  0  0  0  0  0  0  0  0  0  0  0
   38.0250   25.8800   39.3910 H   0  0  0  0  0  0  0  0  0  0  0  0
   38.1170   28.1960   39.7100 F   0  0  0  0  0  0  0  0  0  0  0  0
   37.6700   27.9160   40.9840 C   0  0  0  0  0  0  0  0  0  0  0  0
   37.4310   26.5990   41.2790 C   0  0  0  0  0  0  0  0  0  0  0  0
   36.9890   26.3620   42.5690 C   0  0  0  0  0  0  0  0  0  0  0  0
   36.8150   27.3910   43.4680 C   0  0  0  0  0  0  0  0  0  0  0  0
   37.0790   28.7210   43.1010 C   0  0  0  0  0  0  0  0  0  0  0  0
   37.5270   28.9870   41.7970 C   0  0  0  0  0  0  0  0  0  0  0  0
   36.7560   25.3820   42.9640 H   0  0  0  0  0  0  0  0  0  0  0  0
   36.4720   27.2590   44.4880 H   0  0  0  0  0  0  0  0  0  0  0  0
   36.9410   29.5340   43.8090 H   0  0  0  0  0  0  0  0  0  0  0  0
   36.5840   31.1560   41.0000 C   0  0  1  0  0  3  0  0  0  0  0  0
   37.8100   30.3890   41.3930 C   0  0  2  0  0  3  0  0  0  0  0  0
   38.7300   30.4880   40.3580 O   0  0  0  0  0  0  0  0  0  0  0  0
   38.6460   31.8320   40.0110 C   0  0  0  0  0  2  0  0  0  0  0  0
   37.1370   32.0310   39.8670 C   0  0  2  0  0  3  0  0  0  0  0  0
   35.5660   30.3710   40.4760 O   0  0  0  0  0  0  0  0  0  0  0  0
   35.2720   30.6840   39.5810 H   0  0  0  0  0  0  0  0  0  0  0  0
   36.7570   33.3510   40.0210 O   0  0  0  0  0  0  0  0  0  0  0  0
   37.5620   33.9050   39.8550 H   0  0  0  0  0  0  0  0  0  0  0  0
   42.1100   25.1620   39.7990 C   0  0  0  0  0  0  0  0  0  0  0  0
   40.7580   24.8760   39.6580 C   0  0  0  0  0  0  0  0  0  0  0  0
   39.9640   24.7840   40.8140 C   0  0  0  0  0  0  0  0  0  0  0  0
   40.5630   24.9780   42.0000 N   0  0  0  0  0  0  0  0  0  0  0  0
   41.8790   25.2550   42.1210 C   0  0  0  0  0  0  0  0  0  0  0  0
   42.6540   25.3460   41.0100 N   0  0  0  0  0  0  0  0  0  0  0  0
   42.6280   25.2100   38.8560 H   0  0  0  0  0  0  0  0  0  0  0  0
   40.2820   24.7210   38.7020 H   0  0  0  0  0  0  0  0  0  0  0  0
   42.3650   25.4130   43.0800 H   0  0  0  0  0  0  0  0  0  0  0  0
  1 34  1  0  0  0  0
  1  2  1  0  0  0  0
  2  7  1  0  0  0  0
  3  9  1  0  0  0  0
  3  4  1  0  0  0  0
  3  2  1  0  0  0  0
  4  5  1  0  0  0  0
  4 10  1  0  0  0  0
  5 12  1  6  0  0  0
  5  1  1  0  0  0  0
  5 15  1  0  0  0  0
  6  2  1  0  0  0  0
  8  3  1  0  0  0  0
 11  4  1  0  0  0  0
 13 14  1  0  0  0  0
 14 15  2  0  0  0  0
 14 19  1  0  0  0  0
 15 16  1  0  0  0  0
 16 20  1  0  0  0  0
 16 17  2  0  0  0  0
 17 21  1  0  0  0  0
 18 17  1  0  0  0  0
 18 22  1  0  0  0  0
 19 18  2  0  0  0  0
 23 28  1  6  0  0  0
 23 24  1  0  0  0  0
 24 19  1  6  0  0  0
 25 24  1  0  0  0  0
 26 25  1  0  0  0  0
 27 26  1  0  0  0  0
 27 30  1  1  0  0  0
 27 23  1  0  0  0  0
 29 28  1  0  0  0  0
 31 30  1  0  0  0  0
 32 37  1  0  0  0  0
 33 32  2  0  0  0  0
 33 34  1  0  0  0  0
 34 35  2  0  0  0  0
 35 36  1  0  0  0  0
 36 40  1  0  0  0  0
 37 36  2  0  0  0  0
 38 32  1  0  0  0  0
 39 33  1  0  0  0  0
M  END
>  <minimizedAffinity>
-6.38511419

$$$$

 OpenBabel03242515343D

 40 43  0  0  1  0  0  0  0  0999 V2000
   38.6560   26.4390   41.7570 N   0  0  0  0  0  0  0  0  0  0  0  0
   40.0220   26.6840   42.1240 C   0  0  0  0  0  0  0  0  0  0  0  0
   39.8050   26.9120   43.6130 C   0  0  0  0  0  0  0  0  0  0  0  0
   38.7490   28.0100   43.5160 C   0  0  0  0  0  0  0  0  0  0  0  0
   37.8640   27.4620   42.4500 C   0  0  1  0  0  0  0  0  0  0  0  0
   40.5940   25.7550   41.9520 H   0  0  0  0  0  0  0  0  0  0  0  0
   40.4760   27.5490   41.6290 H   0  0  0  0  0  0  0  0  0  0  0  0
   39.3260   26.0030   43.9990 H   0  0  0  0  0  0  0  0  0  0  0  0
   40.7090   27.2170   44.1300 H   0  0  0  0  0  0  0  0  0  0  0  0
   39.2420   28.9670   43.2390 H   0  0  0  0  0  0  0  0  0  0  0  0
   38.1890   28.0830   44.4870 H   0  0  0  0  0  0  0  0  0  0  0  0
   37.0480   26.8480   42.9280 H   0  0  0  0  0  0  0  0  0  0  0  0
   39.2520   29.5460   41.1120 F   0  0  0  0  0  0  0  0  0  0  0  0
   37.8960   29.4330   40.8840 C   0  0  0  0  0  0  0  0  0  0  0  0
   37.2400   28.4310   41.5520 C   0  0  0  0  0  0  0  0  0  0  0  0
   35.8800   28.3560   41.3000 C   0  0  0  0  0  0  0  0  0  0  0  0
   35.2620   29.2370   40.4400 C   0  0  0  0  0  0  0  0  0  0  0  0
   35.9930   30.2430   39.7870 C   0  0  0  0  0  0  0  0  0  0  0  0
   37.3740   30.3380   40.0260 C   0  0  0  0  0  0  0  0  0  0  0  0
   35.2160   27.6270   41.7440 H   0  0  0  0  0  0  0  0  0  0  0  0
   34.2020   29.2220   40.2090 H   0  0  0  0  0  0  0  0  0  0  0  0
   35.5060   30.9380   39.1090 H   0  0  0  0  0  0  0  0  0  0  0  0
   38.5390   31.0460   37.9360 C   0  0  1  0  0  3  0  0  0  0  0  0
   38.1630   31.3960   39.3440 C   0  0  2  0  0  3  0  0  0  0  0  0
   39.3210   31.7440   40.0250 O   0  0  0  0  0  0  0  0  0  0  0  0
   39.9840   32.5440   39.0990 C   0  0  0  0  0  2  0  0  0  0  0  0
   39.9310   31.6840   37.8360 C   0  0  2  0  0  3  0  0  0  0  0  0
   38.6760   29.6830   37.7070 O   0  0  0  0  0  0  0  0  0  0  0  0
   39.5620   29.4520   37.3240 H   0  0  0  0  0  0  0  0  0  0  0  0
   40.0620   32.4270   36.6790 O   0  0  0  0  0  0  0  0  0  0  0  0
   40.4900   33.2840   36.9330 H   0  0  0  0  0  0  0  0  0  0  0  0
   36.4150   23.7800   40.4260 C   0  0  0  0  0  0  0  0  0  0  0  0
   36.9240   24.7270   41.3050 C   0  0  0  0  0  0  0  0  0  0  0  0
   38.0660   25.4560   40.9240 C   0  0  0  0  0  0  0  0  0  0  0  0
   38.6030   25.1900   39.7230 N   0  0  0  0  0  0  0  0  0  0  0  0
   38.0970   24.2650   38.8790 C   0  0  0  0  0  0  0  0  0  0  0  0
   36.9950   23.5570   39.2390 N   0  0  0  0  0  0  0  0  0  0  0  0
   35.5430   23.2790   40.8120 H   0  0  0  0  0  0  0  0  0  0  0  0
   36.4870   24.9370   42.2690 H   0  0  0  0  0  0  0  0  0  0  0  0
   38.5310   24.0490   37.9080 H   0  0  0  0  0  0  0  0  0  0  0  0
  1  2  1  0  0  0  0
  1  5  1  0  0  0  0
  2  3  1  0  0  0  0
  3  8  1  0  0  0  0
  3  9  1  0  0  0  0
  4  3  1  0  0  0  0
  4 11  1  0  0  0  0
  5 12  1  1  0  0  0
  5  4  1  0  0  0  0
  6  2  1  0  0  0  0
  7  2  1  0  0  0  0
 10  4  1  0  0  0  0
 14 13  1  0  0  0  0
 14 15  1  0  0  0  0
 15  5  1  0  0  0  0
 16 15  2  0  0  0  0
 16 20  1  0  0  0  0
 17 16  1  0  0  0  0
 18 19  1  0  0  0  0
 18 17  2  0  0  0  0
 19 14  2  0  0  0  0
 21 17  1  0  0  0  0
 22 18  1  0  0  0  0
 23 28  1  1  0  0  0
 23 24  1  0  0  0  0
 24 25  1  0  0  0  0
 24 19  1  1  0  0  0
 26 25  1  0  0  0  0
 27 30  1  6  0  0  0
 27 23  1  0  0  0  0
 27 26  1  0  0  0  0
 29 28  1  0  0  0  0
 30 31  1  0  0  0  0
 32 38  1  0  0  0  0
 32 33  1  0  0  0  0
 33 39  1  0  0  0  0
 34 33  2  0  0  0  0
 34  1  1  0  0  0  0
 35 34  1  0  0  0  0
 36 37  1  0  0  0  0
 36 35  2  0  0  0  0
 37 32  2  0  0  0  0
 40 36  1  0  0  0  0
M  END
>  <minimizedAffinity>
-6.25359678

$$$$

 OpenBabel03242515343D

 40 43  0  0  1  0  0  0  0  0999 V2000
   38.8500   24.8010   40.5240 N   0  0  0  0  0  0  0  0  0  0  0  0
   38.7050   23.5360   41.1870 C   0  0  0  0  0  0  0  0  0  0  0  0
   37.3540   23.1450   40.6070 C   0  0  0  0  0  0  0  0  0  0  0  0
   36.5750   24.3970   41.0020 C   0  0  0  0  0  0  0  0  0  0  0  0
   37.5470   25.4650   40.6370 C   0  0  1  0  0  0  0  0  0  0  0  0
   39.4970   22.8620   40.8140 H   0  0  0  0  0  0  0  0  0  0  0  0
   38.6900   23.5960   42.2810 H   0  0  0  0  0  0  0  0  0  0  0  0
   37.4740   23.1410   39.5160 H   0  0  0  0  0  0  0  0  0  0  0  0
   36.9580   22.2290   41.0350 H   0  0  0  0  0  0  0  0  0  0  0  0
   36.3430   24.3560   42.0890 H   0  0  0  0  0  0  0  0  0  0  0  0
   35.6490   24.4810   40.3710 H   0  0  0  0  0  0  0  0  0  0  0  0
   37.3540   25.7930   39.5760 H   0  0  0  0  0  0  0  0  0  0  0  0
   37.9970   28.1060   39.7000 F   0  0  0  0  0  0  0  0  0  0  0  0
   37.7640   27.9390   41.0490 C   0  0  0  0  0  0  0  0  0  0  0  0
   37.5650   26.6550   41.4860 C   0  0  0  0  0  0  0  0  0  0  0  0
   37.3420   26.5310   42.8470 C   0  0  0  0  0  0  0  0  0  0  0  0
   37.3280   27.6320   43.6740 C   0  0  0  0  0  0  0  0  0  0  0  0
   37.5400   28.9230   43.1620 C   0  0  0  0  0  0  0  0  0  0  0  0
   37.7680   29.0740   41.7840 C   0  0  0  0  0  0  0  0  0  0  0  0
   37.1670   25.5910   43.3540 H   0  0  0  0  0  0  0  0  0  0  0  0
   37.1570   27.5900   44.7450 H   0  0  0  0  0  0  0  0  0  0  0  0
   37.5280   29.7920   43.8130 H   0  0  0  0  0  0  0  0  0  0  0  0
   36.7400   31.2450   41.1070 C   0  0  1  0  0  3  0  0  0  0  0  0
   37.9930   30.4320   41.2250 C   0  0  2  0  0  3  0  0  0  0  0  0
   38.6170   30.4200   39.9860 O   0  0  0  0  0  0  0  0  0  0  0  0
   38.5000   31.7450   39.5790 C   0  0  0  0  0  2  0  0  0  0  0  0
   37.0150   32.0220   39.8130 C   0  0  2  0  0  3  0  0  0  0  0  0
   35.5890   30.4900   40.9160 O   0  0  0  0  0  0  0  0  0  0  0  0
   35.0860   30.7690   40.1070 H   0  0  0  0  0  0  0  0  0  0  0  0
   36.7410   33.3680   39.9670 O   0  0  0  0  0  0  0  0  0  0  0  0
   37.4970   33.8640   39.5630 H   0  0  0  0  0  0  0  0  0  0  0  0
   42.1600   26.3460   39.8010 C   0  0  0  0  0  0  0  0  0  0  0  0
   41.1310   25.7660   40.5310 C   0  0  0  0  0  0  0  0  0  0  0  0
   39.9520   25.3950   39.8600 C   0  0  0  0  0  0  0  0  0  0  0  0
   39.8880   25.6260   38.5390 N   0  0  0  0  0  0  0  0  0  0  0  0
   40.8970   26.1920   37.8420 C   0  0  0  0  0  0  0  0  0  0  0  0
   42.0390   26.5530   38.4820 N   0  0  0  0  0  0  0  0  0  0  0  0
   43.0150   26.5920   40.4070 H   0  0  0  0  0  0  0  0  0  0  0  0
   41.1880   25.5830   41.5930 H   0  0  0  0  0  0  0  0  0  0  0  0
   40.8450   26.3790   36.7730 H   0  0  0  0  0  0  0  0  0  0  0  0
  1  5  1  0  0  0  0
  1  2  1  0  0  0  0
  2  7  1  0  0  0  0
  3  4  1  0  0  0  0
  3  9  1  0  0  0  0
  3  2  1  0  0  0  0
  4 10  1  0  0  0  0
  5 12  1  6  0  0  0
  5  4  1  0  0  0  0
  5 15  1  0  0  0  0
  6  2  1  0  0  0  0
  8  3  1  0  0  0  0
 11  4  1  0  0  0  0
 13 14  1  0  0  0  0
 14 15  2  0  0  0  0
 14 19  1  0  0  0  0
 15 16  1  0  0  0  0
 16 20  1  0  0  0  0
 16 17  2  0  0  0  0
 17 21  1  0  0  0  0
 18 17  1  0  0  0  0
 18 22  1  0  0  0  0
 19 18  2  0  0  0  0
 23 28  1  6  0  0  0
 23 24  1  0  0  0  0
 24 19  1  6  0  0  0
 25 24  1  0  0  0  0
 26 27  1  0  0  0  0
 26 25  1  0  0  0  0
 27 30  1  1  0  0  0
 27 23  1  0  0  0  0
 29 28  1  0  0  0  0
 31 30  1  0  0  0  0
 32 38  1  0  0  0  0
 32 33  1  0  0  0  0
 33 39  1  0  0  0  0
 34  1  1  0  0  0  0
 34 33  2  0  0  0  0
 35 34  1  0  0  0  0
 36 37  1  0  0  0  0
 36 35  2  0  0  0  0
 37 32  2  0  0  0  0
 40 36  1  0  0  0  0
M  END
>  <minimizedAffinity>
-6.20624733

$$$$

 OpenBabel03242515343D

 40 43  0  0  1  0  0  0  0  0999 V2000
   36.2720   29.1040   40.2550 N   0  0  0  0  0  0  0  0  0  0  0  0
   34.8760   29.2400   39.9520 C   0  0  0  0  0  0  0  0  0  0  0  0
   34.9350   28.8400   38.4850 C   0  0  0  0  0  0  0  0  0  0  0  0
   35.9980   29.8360   38.0280 C   0  0  0  0  0  0  0  0  0  0  0  0
   36.9880   29.7260   39.1350 C   0  0  1  0  0  0  0  0  0  0  0  0
   34.3240   28.4850   40.5390 H   0  0  0  0  0  0  0  0  0  0  0  0
   34.4770   30.2510   40.0950 H   0  0  0  0  0  0  0  0  0  0  0  0
   35.3700   27.8320   38.4570 H   0  0  0  0  0  0  0  0  0  0  0  0
   33.9830   28.9500   37.9770 H   0  0  0  0  0  0  0  0  0  0  0  0
   35.5390   30.8450   37.9390 H   0  0  0  0  0  0  0  0  0  0  0  0
   36.4530   29.4880   37.0620 H   0  0  0  0  0  0  0  0  0  0  0  0
   37.7490   28.9360   38.8720 H   0  0  0  0  0  0  0  0  0  0  0  0
   39.7400   29.8330   39.8250 F   0  0  0  0  0  0  0  0  0  0  0  0
   39.0360   31.0190   39.8200 C   0  0  0  0  0  0  0  0  0  0  0  0
   37.7050   30.9460   39.5010 C   0  0  0  0  0  0  0  0  0  0  0  0
   37.0350   32.1570   39.5140 C   0  0  0  0  0  0  0  0  0  0  0  0
   37.6830   33.3310   39.8300 C   0  0  0  0  0  0  0  0  0  0  0  0
   39.0510   33.3370   40.1490 C   0  0  0  0  0  0  0  0  0  0  0  0
   39.7530   32.1200   40.1410 C   0  0  0  0  0  0  0  0  0  0  0  0
   35.9840   32.2770   39.2870 H   0  0  0  0  0  0  0  0  0  0  0  0
   37.2060   34.3050   39.8550 H   0  0  0  0  0  0  0  0  0  0  0  0
   39.5630   34.2620   40.3980 H   0  0  0  0  0  0  0  0  0  0  0  0
   41.4980   31.5100   41.8170 C   0  0  1  0  0  3  0  0  0  0  0  0
   41.2000   32.1090   40.4760 C   0  0  2  0  0  3  0  0  0  0  0  0
   41.7870   33.3660   40.4250 O   0  0  0  0  0  0  0  0  0  0  0  0
   43.0350   33.1370   40.9940 C   0  0  0  0  0  2  0  0  0  0  0  0
   42.6710   32.3870   42.2760 C   0  0  2  0  0  3  0  0  0  0  0  0
   40.4720   31.6500   42.7420 O   0  0  0  0  0  0  0  0  0  0  0  0
   40.7770   32.0870   43.5800 H   0  0  0  0  0  0  0  0  0  0  0  0
   43.7140   31.6200   42.7590 O   0  0  0  0  0  0  0  0  0  0  0  0
   44.5470   31.9840   42.3660 H   0  0  0  0  0  0  0  0  0  0  0  0
   37.9820   26.6660   42.4900 C   0  0  0  0  0  0  0  0  0  0  0  0
   37.3300   27.1610   41.3690 C   0  0  0  0  0  0  0  0  0  0  0  0
   36.9450   28.5140   41.3540 C   0  0  0  0  0  0  0  0  0  0  0  0
   37.2320   29.2550   42.4360 N   0  0  0  0  0  0  0  0  0  0  0  0
   37.8670   28.7600   43.5200 C   0  0  0  0  0  0  0  0  0  0  0  0
   38.2420   27.4540   43.5430 N   0  0  0  0  0  0  0  0  0  0  0  0
   38.2330   25.6230   42.4010 H   0  0  0  0  0  0  0  0  0  0  0  0
   37.1020   26.5600   40.5010 H   0  0  0  0  0  0  0  0  0  0  0  0
   38.0990   29.3590   44.3950 H   0  0  0  0  0  0  0  0  0  0  0  0
  1 34  1  0  0  0  0
  2  7  1  0  0  0  0
  2  1  1  0  0  0  0
  2  6  1  0  0  0  0
  3  2  1  0  0  0  0
  4  3  1  0  0  0  0
  4  5  1  0  0  0  0
  5 12  1  6  0  0  0
  5 15  1  0  0  0  0
  5  1  1  0  0  0  0
  8  3  1  0  0  0  0
  9  3  1  0  0  0  0
 10  4  1  0  0  0  0
 11  4  1  0  0  0  0
 14 13  1  0  0  0  0
 14 19  1  0  0  0  0
 15 16  1  0  0  0  0
 15 14  2  0  0  0  0
 16 17  2  0  0  0  0
 17 21  1  0  0  0  0
 17 18  1  0  0  0  0
 18 22  1  0  0  0  0
 19 18  2  0  0  0  0
 20 16  1  0  0  0  0
 23 27  1  0  0  0  0
 23 28  1  1  0  0  0
 24 19  1  1  0  0  0
 24 23  1  0  0  0  0
 25 24  1  0  0  0  0
 25 26  1  0  0  0  0
 26 27  1  0  0  0  0
 27 30  1  6  0  0  0
 28 29  1  0  0  0  0
 31 30  1  0  0  0  0
 32 37  1  0  0  0  0
 33 32  2  0  0  0  0
 34 33  1  0  0  0  0
 34 35  2  0  0  0  0
 35 36  1  0  0  0  0
 36 37  2  0  0  0  0
 36 40  1  0  0  0  0
 38 32  1  0  0  0  0
 39 33  1  0  0  0  0
M  END
>  <minimizedAffinity>
-6.11084175

$$$$

 OpenBabel03242515343D

 40 43  0  0  1  0  0  0  0  0999 V2000
   37.2760   29.8500   40.0190 N   0  0  0  0  0  0  0  0  0  0  0  0
   35.8830   29.9650   39.6940 C   0  0  0  0  0  0  0  0  0  0  0  0
   35.9780   29.6130   38.2170 C   0  0  0  0  0  0  0  0  0  0  0  0
   37.0270   30.6460   37.8120 C   0  0  0  0  0  0  0  0  0  0  0  0
   37.9990   30.5210   38.9330 C   0  0  1  0  0  0  0  0  0  0  0  0
   35.3360   29.1800   40.2460 H   0  0  0  0  0  0  0  0  0  0  0  0
   35.4600   30.9620   39.8610 H   0  0  0  0  0  0  0  0  0  0  0  0
   36.4350   28.6160   38.1650 H   0  0  0  0  0  0  0  0  0  0  0  0
   35.0330   29.7200   37.6940 H   0  0  0  0  0  0  0  0  0  0  0  0
   36.5480   31.6470   37.7450 H   0  0  0  0  0  0  0  0  0  0  0  0
   37.5080   30.3380   36.8440 H   0  0  0  0  0  0  0  0  0  0  0  0
   38.7820   29.7570   38.6600 H   0  0  0  0  0  0  0  0  0  0  0  0
   40.7640   31.0340   38.5480 F   0  0  0  0  0  0  0  0  0  0  0  0
   40.0120   32.0160   39.1580 C   0  0  0  0  0  0  0  0  0  0  0  0
   38.6830   31.7440   39.3500 C   0  0  0  0  0  0  0  0  0  0  0  0
   37.9660   32.7530   39.9710 C   0  0  0  0  0  0  0  0  0  0  0  0
   38.5710   33.9290   40.3570 C   0  0  0  0  0  0  0  0  0  0  0  0
   39.9400   34.1440   40.1300 C   0  0  0  0  0  0  0  0  0  0  0  0
   40.6890   33.1350   39.5010 C   0  0  0  0  0  0  0  0  0  0  0  0
   36.9090   32.7010   40.1980 H   0  0  0  0  0  0  0  0  0  0  0  0
   38.0560   34.7490   40.8460 H   0  0  0  0  0  0  0  0  0  0  0  0
   40.4180   35.0710   40.4330 H   0  0  0  0  0  0  0  0  0  0  0  0
   42.4360   33.9050   37.8940 C   0  0  1  0  0  3  0  0  0  0  0  0
   42.1380   33.3470   39.2530 C   0  0  2  0  0  3  0  0  0  0  0  0
   42.8990   32.1990   39.4230 O   0  0  0  0  0  0  0  0  0  0  0  0
   44.1360   32.5810   38.9160 C   0  0  0  0  0  2  0  0  0  0  0  0
   43.7540   33.1910   37.5670 C   0  0  2  0  0  3  0  0  0  0  0  0
   41.5080   33.5580   36.9220 O   0  0  0  0  0  0  0  0  0  0  0  0
   41.9320   33.1240   36.1350 H   0  0  0  0  0  0  0  0  0  0  0  0
   44.7030   34.0780   37.0960 O   0  0  0  0  0  0  0  0  0  0  0  0
   45.5520   33.8680   37.5610 H   0  0  0  0  0  0  0  0  0  0  0  0
   39.8240   28.1510   42.1380 C   0  0  0  0  0  0  0  0  0  0  0  0
   39.2510   28.7370   41.0170 C   0  0  0  0  0  0  0  0  0  0  0  0
   37.9410   29.2390   41.1120 C   0  0  0  0  0  0  0  0  0  0  0  0
   37.3130   29.1220   42.2920 N   0  0  0  0  0  0  0  0  0  0  0  0
   37.8820   28.5490   43.3750 C   0  0  0  0  0  0  0  0  0  0  0  0
   39.1470   28.0610   43.2920 N   0  0  0  0  0  0  0  0  0  0  0  0
   40.8260   27.8000   41.9610 H   0  0  0  0  0  0  0  0  0  0  0  0
   39.7620   28.8290   40.0700 H   0  0  0  0  0  0  0  0  0  0  0  0
   37.3740   28.4530   44.3300 H   0  0  0  0  0  0  0  0  0  0  0  0
  1 34  1  0  0  0  0
  2  7  1  0  0  0  0
  2  1  1  0  0  0  0
  2  6  1  0  0  0  0
  3  2  1  0  0  0  0
  4  3  1  0  0  0  0
  4  5  1  0  0  0  0
  5 12  1  6  0  0  0
  5 15  1  0  0  0  0
  5  1  1  0  0  0  0
  8  3  1  0  0  0  0
  9  3  1  0  0  0  0
 10  4  1  0  0  0  0
 11  4  1  0  0  0  0
 13 14  1  0  0  0  0
 14 15  2  0  0  0  0
 14 19  1  0  0  0  0
 15 16  1  0  0  0  0
 16 20  1  0  0  0  0
 16 17  2  0  0  0  0
 17 21  1  0  0  0  0
 18 17  1  0  0  0  0
 18 22  1  0  0  0  0
 19 18  2  0  0  0  0
 23 28  1  6  0  0  0
 23 24  1  0  0  0  0
 24 25  1  0  0  0  0
 24 19  1  6  0  0  0
 26 25  1  0  0  0  0
 27 30  1  1  0  0  0
 27 23  1  0  0  0  0
 27 26  1  0  0  0  0
 29 28  1  0  0  0  0
 30 31  1  0  0  0  0
 32 37  1  0  0  0  0
 33 34  1  0  0  0  0
 33 32  2  0  0  0  0
 34 35  2  0  0  0  0
 35 36  1  0  0  0  0
 36 40  1  0  0  0  0
 37 36  2  0  0  0  0
 38 32  1  0  0  0  0
 39 33  1  0  0  0  0
M  END
>  <minimizedAffinity>
-6.10593081

$$$$

 OpenBabel03242515343D

 40 43  0  0  1  0  0  0  0  0999 V2000
   37.1480   30.5710   39.7980 N   0  0  0  0  0  0  0  0  0  0  0  0
   37.2490   31.9260   40.2620 C   0  0  0  0  0  0  0  0  0  0  0  0
   38.7530   32.0950   40.1010 C   0  0  0  0  0  0  0  0  0  0  0  0
   39.1990   30.8870   40.9220 C   0  0  0  0  0  0  0  0  0  0  0  0
   38.2530   29.8450   40.4340 C   0  0  1  0  0  0  0  0  0  0  0  0
   36.7070   32.5720   39.5500 H   0  0  0  0  0  0  0  0  0  0  0  0
   36.9190   32.0760   41.2960 H   0  0  0  0  0  0  0  0  0  0  0  0
   38.9750   31.8980   39.0450 H   0  0  0  0  0  0  0  0  0  0  0  0
   39.1160   33.0430   40.4840 H   0  0  0  0  0  0  0  0  0  0  0  0
   39.0890   31.1190   42.0030 H   0  0  0  0  0  0  0  0  0  0  0  0
   40.2540   30.6140   40.6490 H   0  0  0  0  0  0  0  0  0  0  0  0
   38.7170   29.3050   39.5600 H   0  0  0  0  0  0  0  0  0  0  0  0
   37.7710   27.1130   39.8330 F   0  0  0  0  0  0  0  0  0  0  0  0
   37.5950   27.5200   41.1390 C   0  0  0  0  0  0  0  0  0  0  0  0
   37.8170   28.8460   41.4070 C   0  0  0  0  0  0  0  0  0  0  0  0
   37.6230   29.2130   42.7280 C   0  0  0  0  0  0  0  0  0  0  0  0
   37.2360   28.2940   43.6780 C   0  0  0  0  0  0  0  0  0  0  0  0
   37.0250   26.9480   43.3370 C   0  0  0  0  0  0  0  0  0  0  0  0
   37.2150   26.5510   42.0030 C   0  0  0  0  0  0  0  0  0  0  0  0
   37.7550   30.2180   43.1080 H   0  0  0  0  0  0  0  0  0  0  0  0
   37.0710   28.5300   44.7240 H   0  0  0  0  0  0  0  0  0  0  0  0
   36.7190   26.2220   44.0850 H   0  0  0  0  0  0  0  0  0  0  0  0
   38.2220   24.2800   41.7640 C   0  0  1  0  0  3  0  0  0  0  0  0
   36.9970   25.1310   41.6240 C   0  0  2  0  0  3  0  0  0  0  0  0
   36.5090   24.9740   40.3350 O   0  0  0  0  0  0  0  0  0  0  0  0
   36.6150   23.6020   40.1390 C   0  0  0  0  0  2  0  0  0  0  0  0
   38.0550   23.3270   40.5740 C   0  0  2  0  0  3  0  0  0  0  0  0
   39.4150   24.9710   41.5960 O   0  0  0  0  0  0  0  0  0  0  0  0
   39.9900   24.5640   40.8960 H   0  0  0  0  0  0  0  0  0  0  0  0
   38.2570   22.0130   40.9500 O   0  0  0  0  0  0  0  0  0  0  0  0
   37.5290   21.4800   40.5410 H   0  0  0  0  0  0  0  0  0  0  0  0
   35.5410   29.1700   36.7460 C   0  0  0  0  0  0  0  0  0  0  0  0
   36.4940   29.7940   37.5390 C   0  0  0  0  0  0  0  0  0  0  0  0
   36.2350   29.9440   38.9130 C   0  0  0  0  0  0  0  0  0  0  0  0
   35.0700   29.4700   39.3830 N   0  0  0  0  0  0  0  0  0  0  0  0
   34.1520   28.8650   38.5990 C   0  0  0  0  0  0  0  0  0  0  0  0
   34.3940   28.7170   37.2710 N   0  0  0  0  0  0  0  0  0  0  0  0
   35.8350   29.1060   35.7120 H   0  0  0  0  0  0  0  0  0  0  0  0
   37.4290   30.1730   37.1560 H   0  0  0  0  0  0  0  0  0  0  0  0
   33.2100   28.4830   38.9790 H   0  0  0  0  0  0  0  0  0  0  0  0
  1  2  1  0  0  0  0
  1  5  1  0  0  0  0
  2  7  1  0  0  0  0
  3  2  1  0  0  0  0
  3  9  1  0  0  0  0
  3  4  1  0  0  0  0
  4 10  1  0  0  0  0
  5 12  1  6  0  0  0
  5  4  1  0  0  0  0
  5 15  1  0  0  0  0
  6  2  1  0  0  0  0
  8  3  1  0  0  0  0
 11  4  1  0  0  0  0
 13 14  1  0  0  0  0
 14 15  2  0  0  0  0
 14 19  1  0  0  0  0
 15 16  1  0  0  0  0
 16 20  1  0  0  0  0
 16 17  2  0  0  0  0
 17 21  1  0  0  0  0
 18 17  1  0  0  0  0
 18 22  1  0  0  0  0
 19 18  2  0  0  0  0
 23 28  1  6  0  0  0
 24 23  1  0  0  0  0
 24 19  1  6  0  0  0
 25 24  1  0  0  0  0
 26 25  1  0  0  0  0
 26 27  1  0  0  0  0
 27 30  1  1  0  0  0
 27 23  1  0  0  0  0
 29 28  1  0  0  0  0
 31 30  1  0  0  0  0
 32 37  2  0  0  0  0
 32 33  1  0  0  0  0
 33 34  2  0  0  0  0
 34 35  1  0  0  0  0
 34  1  1  0  0  0  0
 36 40  1  0  0  0  0
 36 35  2  0  0  0  0
 37 36  1  0  0  0  0
 38 32  1  0  0  0  0
 39 33  1  0  0  0  0
M  END
>  <minimizedAffinity>
-6.03908968

$$$$

 OpenBabel03242515343D

 40 43  0  0  1  0  0  0  0  0999 V2000
   38.6490   24.8800   41.2370 N   0  0  0  0  0  0  0  0  0  0  0  0
   37.7530   23.8540   41.6910 C   0  0  0  0  0  0  0  0  0  0  0  0
   37.0090   23.6270   40.3830 C   0  0  0  0  0  0  0  0  0  0  0  0
   36.5790   25.0680   40.1210 C   0  0  0  0  0  0  0  0  0  0  0  0
   37.8330   25.8040   40.4430 C   0  0  1  0  0  0  0  0  0  0  0  0
   38.3540   22.9660   41.9550 H   0  0  0  0  0  0  0  0  0  0  0  0
   37.0860   24.1620   42.5040 H   0  0  0  0  0  0  0  0  0  0  0  0
   37.7680   23.3520   39.6390 H   0  0  0  0  0  0  0  0  0  0  0  0
   36.1810   22.9330   40.4810 H   0  0  0  0  0  0  0  0  0  0  0  0
   35.7280   25.3220   40.7910 H   0  0  0  0  0  0  0  0  0  0  0  0
   36.3200   25.1950   39.0350 H   0  0  0  0  0  0  0  0  0  0  0  0
   38.4460   25.9150   39.5030 H   0  0  0  0  0  0  0  0  0  0  0  0
   38.0680   28.2580   39.0360 F   0  0  0  0  0  0  0  0  0  0  0  0
   37.7770   28.3200   40.3830 C   0  0  0  0  0  0  0  0  0  0  0  0
   37.6830   27.1260   41.0490 C   0  0  0  0  0  0  0  0  0  0  0  0
   37.3960   27.2330   42.3990 C   0  0  0  0  0  0  0  0  0  0  0  0
   37.2240   28.4610   43.0000 C   0  0  0  0  0  0  0  0  0  0  0  0
   37.3340   29.6490   42.2590 C   0  0  0  0  0  0  0  0  0  0  0  0
   37.6240   29.5650   40.8870 C   0  0  0  0  0  0  0  0  0  0  0  0
   37.2880   26.3900   43.0700 H   0  0  0  0  0  0  0  0  0  0  0  0
   36.9980   28.5990   44.0520 H   0  0  0  0  0  0  0  0  0  0  0  0
   37.1980   30.6170   42.7320 H   0  0  0  0  0  0  0  0  0  0  0  0
   39.1600   31.2440   39.8630 C   0  0  1  0  0  3  0  0  0  0  0  0
   37.7430   30.8120   40.0880 C   0  0  2  0  0  3  0  0  0  0  0  0
   37.0480   31.8830   40.6320 O   0  0  0  0  0  0  0  0  0  0  0  0
   37.4970   32.9530   39.8660 C   0  0  0  0  0  2  0  0  0  0  0  0
   39.0150   32.7700   39.9200 C   0  0  2  0  0  3  0  0  0  0  0  0
   40.0380   30.8600   40.8690 O   0  0  0  0  0  0  0  0  0  0  0  0
   40.5350   31.6310   41.2490 H   0  0  0  0  0  0  0  0  0  0  0  0
   39.6620   33.3770   38.8610 O   0  0  0  0  0  0  0  0  0  0  0  0
   39.0460   34.0630   38.4990 H   0  0  0  0  0  0  0  0  0  0  0  0
   42.2770   25.4900   40.6610 C   0  0  0  0  0  0  0  0  0  0  0  0
   40.9280   25.3190   40.3750 C   0  0  0  0  0  0  0  0  0  0  0  0
   40.0400   25.0700   41.4360 C   0  0  0  0  0  0  0  0  0  0  0  0
   40.5500   25.0110   42.6760 N   0  0  0  0  0  0  0  0  0  0  0  0
   41.8640   25.1790   42.9390 C   0  0  0  0  0  0  0  0  0  0  0  0
   42.7300   25.4200   41.9200 N   0  0  0  0  0  0  0  0  0  0  0  0
   42.8700   25.6750   39.7820 H   0  0  0  0  0  0  0  0  0  0  0  0
   40.5240   25.3680   39.3750 H   0  0  0  0  0  0  0  0  0  0  0  0
   42.2780   25.1310   43.9420 H   0  0  0  0  0  0  0  0  0  0  0  0
  1 34  1  0  0  0  0
  1  2  1  0  0  0  0
  2  6  1  0  0  0  0
  2  7  1  0  0  0  0
  3  9  1  0  0  0  0
  3  2  1  0  0  0  0
  4  3  1  0  0  0  0
  4  5  1  0  0  0  0
  4 10  1  0  0  0  0
  5 12  1  6  0  0  0
  5 15  1  0  0  0  0
  5  1  1  0  0  0  0
  8  3  1  0  0  0  0
 11  4  1  0  0  0  0
 13 14  1  0  0  0  0
 14 19  2  0  0  0  0
 14 15  1  0  0  0  0
 15 16  2  0  0  0  0
 16 17  1  0  0  0  0
 16 20  1  0  0  0  0
 17 21  1  0  0  0  0
 18 22  1  0  0  0  0
 18 17  2  0  0  0  0
 19 18  1  0  0  0  0
 23 27  1  0  0  0  0
 23 24  1  0  0  0  0
 23 28  1  1  0  0  0
 24 25  1  0  0  0  0
 24 19  1  1  0  0  0
 26 27  1  0  0  0  0
 26 25  1  0  0  0  0
 27 30  1  6  0  0  0
 28 29  1  0  0  0  0
 31 30  1  0  0  0  0
 32 37  1  0  0  0  0
 33 32  2  0  0  0  0
 33 34  1  0  0  0  0
 34 35  2  0  0  0  0
 35 36  1  0  0  0  0
 36 40  1  0  0  0  0
 37 36  2  0  0  0  0
 38 32  1  0  0  0  0
 39 33  1  0  0  0  0
M  END
>  <minimizedAffinity>
-5.71935558

$$$$

 OpenBabel03242515343D

 40 43  0  0  1  0  0  0  0  0999 V2000
   39.1210   31.9420   38.8690 N   0  0  0  0  0  0  0  0  0  0  0  0
   37.7320   31.8650   38.5180 C   0  0  0  0  0  0  0  0  0  0  0  0
   37.2820   33.1830   39.1320 C   0  0  0  0  0  0  0  0  0  0  0  0
   37.8080   32.9560   40.5470 C   0  0  0  0  0  0  0  0  0  0  0  0
   39.1590   32.3950   40.2640 C   0  0  1  0  0  0  0  0  0  0  0  0
   37.6540   31.9030   37.4170 H   0  0  0  0  0  0  0  0  0  0  0  0
   37.2040   31.0030   38.9420 H   0  0  0  0  0  0  0  0  0  0  0  0
   37.8870   33.9670   38.6590 H   0  0  0  0  0  0  0  0  0  0  0  0
   36.2080   33.3300   39.0810 H   0  0  0  0  0  0  0  0  0  0  0  0
   37.1330   32.2500   41.0790 H   0  0  0  0  0  0  0  0  0  0  0  0
   37.9000   33.9420   41.0790 H   0  0  0  0  0  0  0  0  0  0  0  0
   39.9070   33.2370   40.2210 H   0  0  0  0  0  0  0  0  0  0  0  0
   37.6450   30.1940   41.2240 F   0  0  0  0  0  0  0  0  0  0  0  0
   38.9500   30.3090   41.6570 C   0  0  0  0  0  0  0  0  0  0  0  0
   39.6600   31.3860   41.1960 C   0  0  0  0  0  0  0  0  0  0  0  0
   40.9620   31.4670   41.6590 C   0  0  0  0  0  0  0  0  0  0  0  0
   41.4770   30.5220   42.5190 C   0  0  0  0  0  0  0  0  0  0  0  0
   40.6940   29.4400   42.9550 C   0  0  0  0  0  0  0  0  0  0  0  0
   39.3700   29.3360   42.4970 C   0  0  0  0  0  0  0  0  0  0  0  0
   41.6570   32.2530   41.3940 H   0  0  0  0  0  0  0  0  0  0  0  0
   42.4880   30.5390   42.9110 H   0  0  0  0  0  0  0  0  0  0  0  0
   41.0990   28.6940   43.6330 H   0  0  0  0  0  0  0  0  0  0  0  0
   38.5720   27.0200   42.0230 C   0  0  1  0  0  3  0  0  0  0  0  0
   38.5280   28.1980   42.9480 C   0  0  2  0  0  3  0  0  0  0  0  0
   37.1980   28.5410   43.1440 O   0  0  0  0  0  0  0  0  0  0  0  0
   36.5910   27.3010   43.3190 C   0  0  0  0  0  2  0  0  0  0  0  0
   37.1290   26.5110   42.1260 C   0  0  2  0  0  3  0  0  0  0  0  0
   38.8170   27.3480   40.6960 O   0  0  0  0  0  0  0  0  0  0  0  0
   38.1190   26.9930   40.0850 H   0  0  0  0  0  0  0  0  0  0  0  0
   37.0900   25.1450   42.3300 O   0  0  0  0  0  0  0  0  0  0  0  0
   36.4260   24.9790   43.0470 H   0  0  0  0  0  0  0  0  0  0  0  0
   41.8580   30.2050   37.0370 C   0  0  0  0  0  0  0  0  0  0  0  0
   40.6880   30.3730   37.7660 C   0  0  0  0  0  0  0  0  0  0  0  0
   40.2970   31.6760   38.1240 C   0  0  0  0  0  0  0  0  0  0  0  0
   41.0860   32.6920   37.7380 N   0  0  0  0  0  0  0  0  0  0  0  0
   42.2220   32.5130   37.0300 C   0  0  0  0  0  0  0  0  0  0  0  0
   42.6070   31.2580   36.6800 N   0  0  0  0  0  0  0  0  0  0  0  0
   42.0670   29.1720   36.8140 H   0  0  0  0  0  0  0  0  0  0  0  0
   40.0570   29.5530   38.0730 H   0  0  0  0  0  0  0  0  0  0  0  0
   42.8600   33.3340   36.7180 H   0  0  0  0  0  0  0  0  0  0  0  0
  1  5  1  0  0  0  0
  2  1  1  0  0  0  0
  2  7  1  0  0  0  0
  2  3  1  0  0  0  0
  3  4  1  0  0  0  0
  4 10  1  0  0  0  0
  4 11  1  0  0  0  0
  5 12  1  1  0  0  0
  5  4  1  0  0  0  0
  5 15  1  0  0  0  0
  6  2  1  0  0  0  0
  8  3  1  0  0  0  0
  9  3  1  0  0  0  0
 13 14  1  0  0  0  0
 14 19  1  0  0  0  0
 15 14  2  0  0  0  0
 15 16  1  0  0  0  0
 16 17  2  0  0  0  0
 17 21  1  0  0  0  0
 17 18  1  0  0  0  0
 18 22  1  0  0  0  0
 19 18  2  0  0  0  0
 20 16  1  0  0  0  0
 23 28  1  6  0  0  0
 23 27  1  0  0  0  0
 23 24  1  0  0  0  0
 24 19  1  6  0  0  0
 24 25  1  0  0  0  0
 25 26  1  0  0  0  0
 27 30  1  1  0  0  0
 27 26  1  0  0  0  0
 29 28  1  0  0  0  0
 30 31  1  0  0  0  0
 32 33  1  0  0  0  0
 33 39  1  0  0  0  0
 33 34  2  0  0  0  0
 34  1  1  0  0  0  0
 35 34  1  0  0  0  0
 36 35  2  0  0  0  0
 37 36  1  0  0  0  0
 37 32  2  0  0  0  0
 38 32  1  0  0  0  0
 40 36  1  0  0  0  0
M  END
>  <minimizedAffinity>
-5.67131996

$$$$
