
 OpenBabel03252505153D

 25 27  0  0  1  0  0  0  0  0999 V2000
   44.5300   35.7250   44.6140 C   0  0  0  0  0  0  0  0  0  0  0  0
   45.3120   35.4940   43.4720 C   0  0  0  0  0  0  0  0  0  0  0  0
   46.2290   34.4540   43.5960 C   0  0  0  0  0  0  0  0  0  0  0  0
   46.3160   33.7440   44.7720 N   0  0  0  0  0  0  0  0  0  0  0  0
   45.5310   34.0160   45.8380 C   0  0  0  0  0  0  0  0  0  0  0  0
   44.6410   35.0160   45.7360 N   0  0  0  0  0  0  0  0  0  0  0  0
   43.8120   36.5120   44.5700 H   0  0  0  0  0  0  0  0  0  0  0  0
   45.2510   36.0410   42.5540 H   0  0  0  0  0  0  0  0  0  0  0  0
   47.1260   34.0820   42.4470 C   0  0  0  0  0  0  0  0  0  0  0  0
   47.9010   35.2630   41.9070 C   0  0  0  0  0  0  0  0  0  0  0  0
   48.5670   34.0850   42.6690 C   0  0  0  0  0  0  0  0  0  0  0  0
   46.6930   33.3790   41.6970 H   0  0  0  0  0  0  0  0  0  0  0  0
   48.0190   35.2590   40.8110 H   0  0  0  0  0  0  0  0  0  0  0  0
   47.8180   36.2160   42.4320 H   0  0  0  0  0  0  0  0  0  0  0  0
   49.2350   33.4540   42.0240 H   0  0  0  0  0  0  0  0  0  0  0  0
   48.9920   34.3920   43.6390 H   0  0  0  0  0  0  0  0  0  0  0  0
   47.2570   32.6480   46.9740 C   0  0  2  0  0  3  0  0  0  0  0  0
   45.8130   33.1120   46.9840 C   0  0  2  0  0  3  0  0  0  0  0  0
   45.0130   31.9790   46.9150 O   0  0  0  0  0  0  0  0  0  0  0  0
   45.7600   30.9300   47.4470 C   0  0  0  0  0  2  0  0  0  0  0  0
   47.0860   31.1630   46.7140 C   0  0  1  0  0  3  0  0  0  0  0  0
   47.8480   32.7820   48.2280 O   0  0  0  0  0  0  0  0  0  0  0  0
   47.9840   33.7350   48.4780 H   0  0  0  0  0  0  0  0  0  0  0  0
   46.8630   31.0070   45.3490 O   0  0  0  0  0  0  0  0  0  0  0  0
   46.1270   30.3260   45.2480 H   0  0  0  0  0  0  0  0  0  0  0  0
  1  6  1  0  0  0  0
  2  3  1  0  0  0  0
  2  1  2  0  0  0  0
  3  4  2  0  0  0  0
  4  5  1  0  0  0  0
  6  5  2  0  0  0  0
  7  1  1  0  0  0  0
  8  2  1  0  0  0  0
  9 11  1  0  0  0  0
  9  3  1  0  0  0  0
 10 14  1  0  0  0  0
 10  9  1  0  0  0  0
 10 11  1  0  0  0  0
 11 16  1  0  0  0  0
 12  9  1  0  0  0  0
 13 10  1  0  0  0  0
 15 11  1  0  0  0  0
 17 18  1  0  0  0  0
 17 22  1  1  0  0  0
 18  5  1  6  0  0  0
 19 18  1  0  0  0  0
 19 20  1  0  0  0  0
 21 24  1  6  0  0  0
 21 17  1  0  0  0  0
 21 20  1  0  0  0  0
 22 23  1  0  0  0  0
 25 24  1  0  0  0  0
M  END
>  <minimizedAffinity>
-4.63375235

>  <minimizedRMSD>
0.949932933

$$$$
