
 OpenBabel03242523463D

 19 20  0  0  1  0  0  0  0  0999 V2000
   44.9970   35.4700   44.1810 C   0  0  0  0  0  0  0  0  0  0  0  0
   46.0470   34.9750   43.3890 C   0  0  0  0  0  0  0  0  0  0  0  0
   46.8070   33.9210   43.9130 C   0  0  0  0  0  0  0  0  0  0  0  0
   46.4990   33.4320   45.1500 N   0  0  0  0  0  0  0  0  0  0  0  0
   45.4800   33.9430   45.8720 C   0  0  0  0  0  0  0  0  0  0  0  0
   44.7410   34.9440   45.3960 N   0  0  0  0  0  0  0  0  0  0  0  0
   46.3080   35.3450   42.4130 H   0  0  0  0  0  0  0  0  0  0  0  0
   45.2930   33.5000   46.8510 H   0  0  0  0  0  0  0  0  0  0  0  0
   47.5610   32.0910   42.3800 C   0  0  1  0  0  3  0  0  0  0  0  0
   47.9280   33.2870   43.2350 C   0  0  1  0  0  3  0  0  0  0  0  0
   48.4990   34.1130   42.2710 O   0  0  0  0  0  0  0  0  0  0  0  0
   49.3650   33.3280   41.5390 C   0  0  0  0  0  2  0  0  0  0  0  0
   48.8910   31.9030   41.6420 C   0  0  2  0  0  3  0  0  0  0  0  0
   47.2360   30.9660   43.1180 O   0  0  0  0  0  0  0  0  0  0  0  0
   46.4940   30.4280   42.6960 H   0  0  0  0  0  0  0  0  0  0  0  0
   48.7100   31.2950   40.4160 O   0  0  0  0  0  0  0  0  0  0  0  0
   49.1080   30.3820   40.3900 H   0  0  0  0  0  0  0  0  0  0  0  0
   44.2580   36.4960   43.6690 O   0  0  0  0  0  0  0  0  0  0  0  0
   44.7360   37.2140   43.1380 H   0  0  0  0  0  0  0  0  0  0  0  0
  1  6  1  0  0  0  0
  2  3  1  0  0  0  0
  2  1  2  0  0  0  0
  3  4  2  0  0  0  0
  4  5  1  0  0  0  0
  5  8  1  0  0  0  0
  6  5  2  0  0  0  0
  7  2  1  0  0  0  0
  9 14  1  1  0  0  0
  9 10  1  0  0  0  0
 10  3  1  6  0  0  0
 11 10  1  0  0  0  0
 12 13  1  0  0  0  0
 12 11  1  0  0  0  0
 13 16  1  6  0  0  0
 13  9  1  0  0  0  0
 15 14  1  0  0  0  0
 17 16  1  0  0  0  0
 18  1  1  0  0  0  0
 19 18  1  0  0  0  0
M  END
>  <minimizedAffinity>
-3.95869446

>  <minimizedRMSD>
0.276831806

$$$$
