
 OpenBabel03252509213D

 25 27  0  0  1  0  0  0  0  0999 V2000
   39.3290   29.4370   39.2200 C   0  0  0  0  0  0  0  0  0  0  0  0
   38.2840   30.2970   39.6790 C   0  0  0  0  0  0  0  0  0  0  0  0
   38.6250   31.6320   39.7370 C   0  0  0  0  0  0  0  0  0  0  0  0
   39.8910   32.0480   39.3670 N   0  0  0  0  0  0  0  0  0  0  0  0
   40.8460   31.2140   38.9400 C   0  0  0  0  0  0  0  0  0  0  0  0
   40.5550   29.8860   38.8680 N   0  0  0  0  0  0  0  0  0  0  0  0
   39.3720   28.3920   39.0730 H   0  0  0  0  0  0  0  0  0  0  0  0
   41.7530   31.7450   38.7030 H   0  0  0  0  0  0  0  0  0  0  0  0
   37.5640   32.6230   40.1220 C   0  0  0  0  0  0  0  0  0  0  0  0
   38.1420   34.0550   40.1510 C   0  0  0  0  0  0  0  0  0  0  0  0
   37.1040   33.5450   39.1120 C   0  0  0  0  0  0  0  0  0  0  0  0
   37.0040   32.4620   41.0790 H   0  0  0  0  0  0  0  0  0  0  0  0
   37.6950   34.7460   40.8840 H   0  0  0  0  0  0  0  0  0  0  0  0
   39.1580   34.2070   39.8060 H   0  0  0  0  0  0  0  0  0  0  0  0
   36.0690   33.9890   39.1830 H   0  0  0  0  0  0  0  0  0  0  0  0
   37.4930   33.4900   38.0640 H   0  0  0  0  0  0  0  0  0  0  0  0
   36.3910   29.8940   41.2890 C   0  0  1  0  0  3  0  0  0  0  0  0
   37.0590   29.6080   39.9660 C   0  0  2  0  0  3  0  0  0  0  0  0
   37.3750   28.2510   40.2740 O   0  0  0  0  0  0  0  0  0  0  0  0
   38.0030   28.2730   41.5210 C   0  0  0  0  0  2  0  0  0  0  0  0
   37.4650   29.5190   42.2420 C   0  0  2  0  0  3  0  0  0  0  0  0
   35.7580   31.0620   41.4280 O   0  0  0  0  0  0  0  0  0  0  0  0
   35.4200   31.4040   40.5830 H   0  0  0  0  0  0  0  0  0  0  0  0
   36.9410   29.1660   43.5010 O   0  0  0  0  0  0  0  0  0  0  0  0
   37.6750   29.3260   44.1460 H   0  0  0  0  0  0  0  0  0  0  0  0
  1  2  1  0  0  0  0
  2  3  2  0  0  0  0
  3  9  1  0  0  0  0
  4  3  1  0  0  0  0
  5  4  2  0  0  0  0
  6  5  1  0  0  0  0
  6  1  2  0  0  0  0
  7  1  1  0  0  0  0
  8  5  1  0  0  0  0
  9 10  1  0  0  0  0
  9 12  1  0  0  0  0
 10 13  1  0  0  0  0
 11 15  1  0  0  0  0
 11  9  1  0  0  0  0
 11 10  1  0  0  0  0
 14 10  1  0  0  0  0
 16 11  1  0  0  0  0
 17 22  1  6  0  0  0
 17 21  1  0  0  0  0
 18  2  1  1  0  0  0
 18 19  1  0  0  0  0
 18 17  1  0  0  0  0
 19 20  1  0  0  0  0
 20 21  1  0  0  0  0
 21 24  1  1  0  0  0
 23 22  1  0  0  0  0
 24 25  1  0  0  0  0
M  END
>  <minimizedAffinity>
-5.0116725

$$$$

 OpenBabel03252509213D

 25 27  0  0  1  0  0  0  0  0999 V2000
   37.1710   30.2060   39.3060 C   0  0  0  0  0  0  0  0  0  0  0  0
   37.9660   30.1450   40.4910 C   0  0  0  0  0  0  0  0  0  0  0  0
   37.3760   29.4750   41.5430 C   0  0  0  0  0  0  0  0  0  0  0  0
   36.1140   28.9260   41.4030 N   0  0  0  0  0  0  0  0  0  0  0  0
   35.3970   29.0010   40.2760 C   0  0  0  0  0  0  0  0  0  0  0  0
   35.9390   29.6540   39.2120 N   0  0  0  0  0  0  0  0  0  0  0  0
   37.3440   30.6410   38.3590 H   0  0  0  0  0  0  0  0  0  0  0  0
   34.4460   28.5070   40.3830 H   0  0  0  0  0  0  0  0  0  0  0  0
   38.1720   29.2810   42.8010 C   0  0  0  0  0  0  0  0  0  0  0  0
   37.5420   28.1770   43.6790 C   0  0  0  0  0  0  0  0  0  0  0  0
   38.9100   28.0490   42.9500 C   0  0  0  0  0  0  0  0  0  0  0  0
   38.3620   30.1700   43.4560 H   0  0  0  0  0  0  0  0  0  0  0  0
   37.6590   28.2950   44.7680 H   0  0  0  0  0  0  0  0  0  0  0  0
   36.7100   27.6120   43.2760 H   0  0  0  0  0  0  0  0  0  0  0  0
   39.8250   28.0160   43.6100 H   0  0  0  0  0  0  0  0  0  0  0  0
   38.9240   27.2860   42.1320 H   0  0  0  0  0  0  0  0  0  0  0  0
   39.5890   31.8850   41.3110 C   0  0  1  0  0  3  0  0  0  0  0  0
   39.2490   30.7690   40.3540 C   0  0  2  0  0  3  0  0  0  0  0  0
   39.2160   31.6010   39.1950 O   0  0  0  0  0  0  0  0  0  0  0  0
   38.3920   32.6820   39.5170 C   0  0  0  0  0  2  0  0  0  0  0  0
   38.4850   32.8410   41.0430 C   0  0  2  0  0  3  0  0  0  0  0  0
   39.8920   31.5570   42.5700 O   0  0  0  0  0  0  0  0  0  0  0  0
   40.2820   30.6700   42.6380 H   0  0  0  0  0  0  0  0  0  0  0  0
   38.8490   34.1610   41.3750 O   0  0  0  0  0  0  0  0  0  0  0  0
   37.9970   34.6320   41.5530 H   0  0  0  0  0  0  0  0  0  0  0  0
  1  2  1  0  0  0  0
  2  3  2  0  0  0  0
  3  9  1  0  0  0  0
  4  3  1  0  0  0  0
  5  8  1  0  0  0  0
  5  4  2  0  0  0  0
  6  1  2  0  0  0  0
  6  5  1  0  0  0  0
  7  1  1  0  0  0  0
  9 11  1  0  0  0  0
  9 12  1  0  0  0  0
  9 10  1  0  0  0  0
 10 13  1  0  0  0  0
 11 15  1  0  0  0  0
 11 10  1  0  0  0  0
 14 10  1  0  0  0  0
 16 11  1  0  0  0  0
 17 22  1  1  0  0  0
 18  2  1  1  0  0  0
 18 17  1  0  0  0  0
 19 20  1  0  0  0  0
 19 18  1  0  0  0  0
 20 21  1  0  0  0  0
 21 17  1  0  0  0  0
 21 24  1  6  0  0  0
 22 23  1  0  0  0  0
 24 25  1  0  0  0  0
M  END
>  <minimizedAffinity>
-4.8145895

$$$$

 OpenBabel03252509213D

 25 27  0  0  1  0  0  0  0  0999 V2000
   37.6300   28.1020   38.8050 C   0  0  0  0  0  0  0  0  0  0  0  0
   37.6350   27.8540   40.2120 C   0  0  0  0  0  0  0  0  0  0  0  0
   37.1310   26.6240   40.5780 C   0  0  0  0  0  0  0  0  0  0  0  0
   36.6710   25.7410   39.6160 N   0  0  0  0  0  0  0  0  0  0  0  0
   36.6830   26.0070   38.3050 C   0  0  0  0  0  0  0  0  0  0  0  0
   37.1710   27.2100   37.8980 N   0  0  0  0  0  0  0  0  0  0  0  0
   37.9430   28.9330   38.2320 H   0  0  0  0  0  0  0  0  0  0  0  0
   36.2830   25.1850   37.7350 H   0  0  0  0  0  0  0  0  0  0  0  0
   37.1770   26.2360   42.0280 C   0  0  0  0  0  0  0  0  0  0  0  0
   37.0410   24.7050   42.1870 C   0  0  0  0  0  0  0  0  0  0  0  0
   38.3350   25.5110   42.4950 C   0  0  0  0  0  0  0  0  0  0  0  0
   36.4530   26.7180   42.7350 H   0  0  0  0  0  0  0  0  0  0  0  0
   36.5400   24.3540   43.1030 H   0  0  0  0  0  0  0  0  0  0  0  0
   37.0370   24.0940   41.2920 H   0  0  0  0  0  0  0  0  0  0  0  0
   38.6370   25.5710   43.5810 H   0  0  0  0  0  0  0  0  0  0  0  0
   39.1880   25.2880   41.8070 H   0  0  0  0  0  0  0  0  0  0  0  0
   37.2740   29.6720   41.9150 C   0  0  1  0  0  3  0  0  0  0  0  0
   38.1960   28.9260   40.9820 C   0  0  2  0  0  3  0  0  0  0  0  0
   38.4160   30.0320   40.1080 O   0  0  0  0  0  0  0  0  0  0  0  0
   37.1510   30.5280   39.7850 C   0  0  0  0  0  2  0  0  0  0  0  0
   36.2410   30.1620   40.9690 C   0  0  2  0  0  3  0  0  0  0  0  0
   36.9050   29.0630   43.0450 O   0  0  0  0  0  0  0  0  0  0  0  0
   37.5700   28.4290   43.3600 H   0  0  0  0  0  0  0  0  0  0  0  0
   35.5920   31.3120   41.4600 O   0  0  0  0  0  0  0  0  0  0  0  0
   34.7090   31.3270   41.0120 H   0  0  0  0  0  0  0  0  0  0  0  0
  1  2  1  0  0  0  0
  2  3  2  0  0  0  0
  3  9  1  0  0  0  0
  4  3  1  0  0  0  0
  5  4  2  0  0  0  0
  6  5  1  0  0  0  0
  6  1  2  0  0  0  0
  7  1  1  0  0  0  0
  8  5  1  0  0  0  0
  9 10  1  0  0  0  0
  9 11  1  0  0  0  0
  9 12  1  0  0  0  0
 10 11  1  0  0  0  0
 10 13  1  0  0  0  0
 11 15  1  0  0  0  0
 14 10  1  0  0  0  0
 16 11  1  0  0  0  0
 17 22  1  1  0  0  0
 18  2  1  6  0  0  0
 18 17  1  0  0  0  0
 19 18  1  0  0  0  0
 20 19  1  0  0  0  0
 20 21  1  0  0  0  0
 21 24  1  1  0  0  0
 21 17  1  0  0  0  0
 22 23  1  0  0  0  0
 25 24  1  0  0  0  0
M  END
>  <minimizedAffinity>
-4.78216457

$$$$

 OpenBabel03252509213D

 25 27  0  0  1  0  0  0  0  0999 V2000
   38.7960   30.9110   41.4010 C   0  0  0  0  0  0  0  0  0  0  0  0
   37.6060   30.1310   41.5410 C   0  0  0  0  0  0  0  0  0  0  0  0
   37.8010   28.8850   42.0980 C   0  0  0  0  0  0  0  0  0  0  0  0
   39.0690   28.4760   42.4740 N   0  0  0  0  0  0  0  0  0  0  0  0
   40.1610   29.2340   42.3300 C   0  0  0  0  0  0  0  0  0  0  0  0
   40.0170   30.4720   41.7830 N   0  0  0  0  0  0  0  0  0  0  0  0
   38.9650   31.8800   41.0170 H   0  0  0  0  0  0  0  0  0  0  0  0
   41.0410   28.7260   42.6870 H   0  0  0  0  0  0  0  0  0  0  0  0
   36.5970   28.0270   42.3670 C   0  0  0  0  0  0  0  0  0  0  0  0
   37.0090   26.5470   42.5290 C   0  0  0  0  0  0  0  0  0  0  0  0
   36.4660   27.4420   43.6800 C   0  0  0  0  0  0  0  0  0  0  0  0
   35.7410   28.0660   41.6460 H   0  0  0  0  0  0  0  0  0  0  0  0
   36.2720   25.7980   42.1990 H   0  0  0  0  0  0  0  0  0  0  0  0
   38.0660   26.3060   42.5430 H   0  0  0  0  0  0  0  0  0  0  0  0
   35.4450   27.1750   44.0790 H   0  0  0  0  0  0  0  0  0  0  0  0
   37.2150   27.6600   44.4820 H   0  0  0  0  0  0  0  0  0  0  0  0
   35.5370   30.0920   40.1090 C   0  0  1  0  0  3  0  0  0  0  0  0
   36.4220   30.8080   41.1000 C   0  0  2  0  0  3  0  0  0  0  0  0
   36.8120   31.8430   40.1980 O   0  0  0  0  0  0  0  0  0  0  0  0
   37.2390   31.2020   39.0340 C   0  0  0  0  0  2  0  0  0  0  0  0
   36.4840   29.8640   38.9890 C   0  0  2  0  0  3  0  0  0  0  0  0
   34.7850   29.0840   40.5590 O   0  0  0  0  0  0  0  0  0  0  0  0
   34.5480   29.1870   41.4950 H   0  0  0  0  0  0  0  0  0  0  0  0
   35.8100   29.7240   37.7600 O   0  0  0  0  0  0  0  0  0  0  0  0
   36.4190   29.1990   37.1830 H   0  0  0  0  0  0  0  0  0  0  0  0
  1  2  2  0  0  0  0
  1  6  1  0  0  0  0
  2  3  1  0  0  0  0
  3  9  1  0  0  0  0
  3  4  2  0  0  0  0
  5  4  1  0  0  0  0
  5  8  1  0  0  0  0
  6  5  2  0  0  0  0
  7  1  1  0  0  0  0
  9 10  1  0  0  0  0
  9 11  1  0  0  0  0
 10 14  1  0  0  0  0
 10 11  1  0  0  0  0
 11 15  1  0  0  0  0
 11 16  1  0  0  0  0
 12  9  1  0  0  0  0
 13 10  1  0  0  0  0
 17 22  1  1  0  0  0
 17 18  1  0  0  0  0
 18  2  1  6  0  0  0
 19 18  1  0  0  0  0
 20 19  1  0  0  0  0
 21 24  1  6  0  0  0
 21 20  1  0  0  0  0
 21 17  1  0  0  0  0
 22 23  1  0  0  0  0
 25 24  1  0  0  0  0
M  END
>  <minimizedAffinity>
-4.7693553

$$$$

 OpenBabel03252509213D

 25 27  0  0  1  0  0  0  0  0999 V2000
   36.6130   28.0650   40.5850 C   0  0  0  0  0  0  0  0  0  0  0  0
   37.4030   28.3130   41.7500 C   0  0  0  0  0  0  0  0  0  0  0  0
   38.1230   27.2250   42.1960 C   0  0  0  0  0  0  0  0  0  0  0  0
   38.0490   26.0160   41.5280 N   0  0  0  0  0  0  0  0  0  0  0  0
   37.3000   25.8200   40.4370 C   0  0  0  0  0  0  0  0  0  0  0  0
   36.5700   26.8660   39.9620 N   0  0  0  0  0  0  0  0  0  0  0  0
   35.9680   28.6850   40.0230 H   0  0  0  0  0  0  0  0  0  0  0  0
   37.3890   24.8080   40.0770 H   0  0  0  0  0  0  0  0  0  0  0  0
   39.0510   27.4130   43.3610 C   0  0  0  0  0  0  0  0  0  0  0  0
   39.7980   26.0980   43.6800 C   0  0  0  0  0  0  0  0  0  0  0  0
   40.4710   27.3770   43.1050 C   0  0  0  0  0  0  0  0  0  0  0  0
   38.6310   27.8070   44.3220 H   0  0  0  0  0  0  0  0  0  0  0  0
   40.0560   25.9290   44.7370 H   0  0  0  0  0  0  0  0  0  0  0  0
   39.6700   25.2580   43.0070 H   0  0  0  0  0  0  0  0  0  0  0  0
   41.1830   27.9170   43.7940 H   0  0  0  0  0  0  0  0  0  0  0  0
   40.8630   27.2590   42.0640 H   0  0  0  0  0  0  0  0  0  0  0  0
   36.7660   30.7020   41.2770 C   0  0  1  0  0  3  0  0  0  0  0  0
   37.3200   29.6650   42.2230 C   0  0  2  0  0  3  0  0  0  0  0  0
   38.6390   30.2080   42.2490 O   0  0  0  0  0  0  0  0  0  0  0  0
   39.0130   30.3820   40.9140 C   0  0  0  0  0  2  0  0  0  0  0  0
   37.7040   30.5800   40.1330 C   0  0  2  0  0  3  0  0  0  0  0  0
   35.4480   30.7050   41.0570 O   0  0  0  0  0  0  0  0  0  0  0  0
   34.9450   30.3630   41.8140 H   0  0  0  0  0  0  0  0  0  0  0  0
   37.7610   31.7690   39.3800 O   0  0  0  0  0  0  0  0  0  0  0  0
   38.0540   31.4940   38.4760 H   0  0  0  0  0  0  0  0  0  0  0  0
  1  2  1  0  0  0  0
  2  3  2  0  0  0  0
  3  9  1  0  0  0  0
  4  3  1  0  0  0  0
  5  4  2  0  0  0  0
  6  5  1  0  0  0  0
  6  1  2  0  0  0  0
  7  1  1  0  0  0  0
  8  5  1  0  0  0  0
  9 10  1  0  0  0  0
  9 12  1  0  0  0  0
 10 13  1  0  0  0  0
 11  9  1  0  0  0  0
 11 10  1  0  0  0  0
 11 15  1  0  0  0  0
 14 10  1  0  0  0  0
 16 11  1  0  0  0  0
 17 22  1  6  0  0  0
 17 18  1  0  0  0  0
 18  2  1  6  0  0  0
 18 19  1  0  0  0  0
 20 19  1  0  0  0  0
 21 24  1  1  0  0  0
 21 20  1  0  0  0  0
 21 17  1  0  0  0  0
 22 23  1  0  0  0  0
 25 24  1  0  0  0  0
M  END
>  <minimizedAffinity>
-4.75686216

$$$$

 OpenBabel03252509213D

 25 27  0  0  1  0  0  0  0  0999 V2000
   39.5850   29.9300   40.7170 C   0  0  0  0  0  0  0  0  0  0  0  0
   38.3350   29.2410   40.7760 C   0  0  0  0  0  0  0  0  0  0  0  0
   38.2170   28.3570   41.8270 C   0  0  0  0  0  0  0  0  0  0  0  0
   39.2590   28.1920   42.7230 N   0  0  0  0  0  0  0  0  0  0  0  0
   40.4170   28.8560   42.6380 C   0  0  0  0  0  0  0  0  0  0  0  0
   40.5780   29.7380   41.6150 N   0  0  0  0  0  0  0  0  0  0  0  0
   39.9650   30.6500   40.0440 H   0  0  0  0  0  0  0  0  0  0  0  0
   41.0870   28.5790   43.4350 H   0  0  0  0  0  0  0  0  0  0  0  0
   36.9050   27.6520   42.0240 C   0  0  0  0  0  0  0  0  0  0  0  0
   37.1340   26.2000   42.4990 C   0  0  0  0  0  0  0  0  0  0  0  0
   36.5110   27.3250   43.3730 C   0  0  0  0  0  0  0  0  0  0  0  0
   36.1810   27.6210   41.1690 H   0  0  0  0  0  0  0  0  0  0  0  0
   36.3850   25.4590   42.1760 H   0  0  0  0  0  0  0  0  0  0  0  0
   38.1450   25.8890   42.7350 H   0  0  0  0  0  0  0  0  0  0  0  0
   35.4180   27.2100   43.6290 H   0  0  0  0  0  0  0  0  0  0  0  0
   37.1420   27.6300   44.2450 H   0  0  0  0  0  0  0  0  0  0  0  0
   37.5210   31.0310   39.2050 C   0  0  1  0  0  3  0  0  0  0  0  0
   37.4200   29.6240   39.7400 C   0  0  2  0  0  3  0  0  0  0  0  0
   36.1320   29.8030   40.3290 O   0  0  0  0  0  0  0  0  0  0  0  0
   36.2160   30.9670   41.0970 C   0  0  0  0  0  2  0  0  0  0  0  0
   37.3090   31.8250   40.4410 C   0  0  2  0  0  3  0  0  0  0  0  0
   38.5440   31.3190   38.3970 O   0  0  0  0  0  0  0  0  0  0  0  0
   38.8540   30.5440   37.8990 H   0  0  0  0  0  0  0  0  0  0  0  0
   36.8120   33.1120   40.1520 O   0  0  0  0  0  0  0  0  0  0  0  0
   37.0770   33.6750   40.9220 H   0  0  0  0  0  0  0  0  0  0  0  0
  1  2  2  0  0  0  0
  1  6  1  0  0  0  0
  2  3  1  0  0  0  0
  3  9  1  0  0  0  0
  3  4  2  0  0  0  0
  5  4  1  0  0  0  0
  5  8  1  0  0  0  0
  6  5  2  0  0  0  0
  7  1  1  0  0  0  0
  9 10  1  0  0  0  0
  9 11  1  0  0  0  0
 10 14  1  0  0  0  0
 10 11  1  0  0  0  0
 11 15  1  0  0  0  0
 11 16  1  0  0  0  0
 12  9  1  0  0  0  0
 13 10  1  0  0  0  0
 17 22  1  1  0  0  0
 17 18  1  0  0  0  0
 17 21  1  0  0  0  0
 18 19  1  0  0  0  0
 18  2  1  1  0  0  0
 19 20  1  0  0  0  0
 21 24  1  6  0  0  0
 21 20  1  0  0  0  0
 23 22  1  0  0  0  0
 24 25  1  0  0  0  0
M  END
>  <minimizedAffinity>
-4.73942995

$$$$

 OpenBabel03252509213D

 25 27  0  0  1  0  0  0  0  0999 V2000
   40.1160   28.4050   41.1590 C   0  0  0  0  0  0  0  0  0  0  0  0
   39.0970   27.7360   41.9040 C   0  0  0  0  0  0  0  0  0  0  0  0
   38.8190   26.4560   41.4730 C   0  0  0  0  0  0  0  0  0  0  0  0
   39.5050   25.9140   40.4000 N   0  0  0  0  0  0  0  0  0  0  0  0
   40.4550   26.5700   39.7250 C   0  0  0  0  0  0  0  0  0  0  0  0
   40.7620   27.8380   40.1140 N   0  0  0  0  0  0  0  0  0  0  0  0
   40.5380   29.3700   41.2450 H   0  0  0  0  0  0  0  0  0  0  0  0
   40.8590   25.9660   38.9300 H   0  0  0  0  0  0  0  0  0  0  0  0
   37.8260   25.6410   42.2510 C   0  0  0  0  0  0  0  0  0  0  0  0
   36.8760   24.8840   41.2950 C   0  0  0  0  0  0  0  0  0  0  0  0
   37.9440   24.2030   42.1980 C   0  0  0  0  0  0  0  0  0  0  0  0
   37.1950   26.1570   43.0190 H   0  0  0  0  0  0  0  0  0  0  0  0
   35.8510   24.7150   41.6610 H   0  0  0  0  0  0  0  0  0  0  0  0
   37.0780   24.9250   40.2310 H   0  0  0  0  0  0  0  0  0  0  0  0
   37.5500   23.5740   43.0470 H   0  0  0  0  0  0  0  0  0  0  0  0
   38.7780   23.7170   41.6330 H   0  0  0  0  0  0  0  0  0  0  0  0
   37.1040   28.8580   42.9540 C   0  0  1  0  0  3  0  0  0  0  0  0
   38.5730   28.5160   42.9870 C   0  0  2  0  0  3  0  0  0  0  0  0
   39.0210   29.8610   42.8230 O   0  0  0  0  0  0  0  0  0  0  0  0
   38.3240   30.3700   41.7250 C   0  0  0  0  0  2  0  0  0  0  0  0
   37.0050   29.5820   41.6620 C   0  0  2  0  0  3  0  0  0  0  0  0
   36.2310   27.8880   43.2400 O   0  0  0  0  0  0  0  0  0  0  0  0
   36.6010   27.2210   43.8410 H   0  0  0  0  0  0  0  0  0  0  0  0
   35.9080   30.4670   41.6450 O   0  0  0  0  0  0  0  0  0  0  0  0
   35.6810   30.5840   40.6890 H   0  0  0  0  0  0  0  0  0  0  0  0
  1  7  1  0  0  0  0
  1  2  1  0  0  0  0
  3  2  2  0  0  0  0
  3  9  1  0  0  0  0
  4  3  1  0  0  0  0
  5  6  1  0  0  0  0
  5  4  2  0  0  0  0
  6  1  2  0  0  0  0
  8  5  1  0  0  0  0
  9 12  1  0  0  0  0
 10 13  1  0  0  0  0
 10 11  1  0  0  0  0
 10  9  1  0  0  0  0
 11  9  1  0  0  0  0
 11 15  1  0  0  0  0
 14 10  1  0  0  0  0
 16 11  1  0  0  0  0
 17 18  1  0  0  0  0
 17 22  1  6  0  0  0
 18  2  1  6  0  0  0
 19 18  1  0  0  0  0
 20 19  1  0  0  0  0
 21 24  1  1  0  0  0
 21 20  1  0  0  0  0
 21 17  1  0  0  0  0
 22 23  1  0  0  0  0
 25 24  1  0  0  0  0
M  END
>  <minimizedAffinity>
-4.61991215

$$$$

 OpenBabel03252509213D

 25 27  0  0  1  0  0  0  0  0999 V2000
   38.2330   32.0950   40.7210 C   0  0  0  0  0  0  0  0  0  0  0  0
   38.4050   30.9570   39.8750 C   0  0  0  0  0  0  0  0  0  0  0  0
   39.5810   30.9500   39.1560 C   0  0  0  0  0  0  0  0  0  0  0  0
   40.4870   31.9880   39.2860 N   0  0  0  0  0  0  0  0  0  0  0  0
   40.2940   33.0390   40.0900 C   0  0  0  0  0  0  0  0  0  0  0  0
   39.1450   33.0900   40.8180 N   0  0  0  0  0  0  0  0  0  0  0  0
   37.4540   32.3790   41.3760 H   0  0  0  0  0  0  0  0  0  0  0  0
   41.1210   33.7280   40.0400 H   0  0  0  0  0  0  0  0  0  0  0  0
   39.8920   29.7510   38.3070 C   0  0  0  0  0  0  0  0  0  0  0  0
   41.1780   29.9850   37.4840 C   0  0  0  0  0  0  0  0  0  0  0  0
   41.0520   28.9630   38.6500 C   0  0  0  0  0  0  0  0  0  0  0  0
   39.1030   29.3730   37.6070 H   0  0  0  0  0  0  0  0  0  0  0  0
   41.2230   29.4920   36.5000 H   0  0  0  0  0  0  0  0  0  0  0  0
   41.7520   30.8850   37.6720 H   0  0  0  0  0  0  0  0  0  0  0  0
   41.0980   27.8730   38.3640 H   0  0  0  0  0  0  0  0  0  0  0  0
   41.6700   29.2140   39.5480 H   0  0  0  0  0  0  0  0  0  0  0  0
   36.4900   30.0170   41.2110 C   0  0  1  0  0  3  0  0  0  0  0  0
   37.3270   30.0150   39.9560 C   0  0  2  0  0  3  0  0  0  0  0  0
   37.8840   28.7200   40.1760 O   0  0  0  0  0  0  0  0  0  0  0  0
   38.3720   28.7260   41.4840 C   0  0  0  0  0  2  0  0  0  0  0  0
   37.5220   29.7550   42.2460 C   0  0  2  0  0  3  0  0  0  0  0  0
   35.6200   31.0160   41.3790 O   0  0  0  0  0  0  0  0  0  0  0  0
   35.3010   31.3760   40.5350 H   0  0  0  0  0  0  0  0  0  0  0  0
   36.9640   29.1700   43.3990 O   0  0  0  0  0  0  0  0  0  0  0  0
   37.5840   29.3970   44.1360 H   0  0  0  0  0  0  0  0  0  0  0  0
  1  6  1  0  0  0  0
  1  7  1  0  0  0  0
  2  1  2  0  0  0  0
  3  4  2  0  0  0  0
  3  2  1  0  0  0  0
  4  5  1  0  0  0  0
  5  6  2  0  0  0  0
  8  5  1  0  0  0  0
  9 11  1  0  0  0  0
  9  3  1  0  0  0  0
 10 14  1  0  0  0  0
 10  9  1  0  0  0  0
 10 11  1  0  0  0  0
 11 16  1  0  0  0  0
 12  9  1  0  0  0  0
 13 10  1  0  0  0  0
 15 11  1  0  0  0  0
 17 22  1  1  0  0  0
 17 21  1  0  0  0  0
 18  2  1  1  0  0  0
 18 19  1  0  0  0  0
 18 17  1  0  0  0  0
 19 20  1  0  0  0  0
 20 21  1  0  0  0  0
 21 24  1  1  0  0  0
 23 22  1  0  0  0  0
 24 25  1  0  0  0  0
M  END
>  <minimizedAffinity>
-4.60201597

$$$$

 OpenBabel03252509213D

 25 27  0  0  1  0  0  0  0  0999 V2000
   36.0820   28.2660   39.8460 C   0  0  0  0  0  0  0  0  0  0  0  0
   36.6430   27.7920   41.0720 C   0  0  0  0  0  0  0  0  0  0  0  0
   36.9680   26.4520   41.0720 C   0  0  0  0  0  0  0  0  0  0  0  0
   36.7460   25.6770   39.9470 N   0  0  0  0  0  0  0  0  0  0  0  0
   36.2200   26.1560   38.8150 C   0  0  0  0  0  0  0  0  0  0  0  0
   35.8820   27.4730   38.7680 N   0  0  0  0  0  0  0  0  0  0  0  0
   35.7400   29.2200   39.5470 H   0  0  0  0  0  0  0  0  0  0  0  0
   36.1360   25.3860   38.0650 H   0  0  0  0  0  0  0  0  0  0  0  0
   37.6460   25.8820   42.2860 C   0  0  0  0  0  0  0  0  0  0  0  0
   37.7800   24.3480   42.1640 C   0  0  0  0  0  0  0  0  0  0  0  0
   38.9750   25.3420   42.1240 C   0  0  0  0  0  0  0  0  0  0  0  0
   37.2150   26.1080   43.2950 H   0  0  0  0  0  0  0  0  0  0  0  0
   37.7410   23.7800   43.1070 H   0  0  0  0  0  0  0  0  0  0  0  0
   37.4920   23.8790   41.2300 H   0  0  0  0  0  0  0  0  0  0  0  0
   39.6800   25.3090   43.0040 H   0  0  0  0  0  0  0  0  0  0  0  0
   39.4980   25.3910   41.1360 H   0  0  0  0  0  0  0  0  0  0  0  0
   36.7960   30.2480   41.6000 C   0  0  1  0  0  3  0  0  0  0  0  0
   36.7920   28.8130   42.0680 C   0  0  2  0  0  3  0  0  0  0  0  0
   38.1520   28.8160   42.5010 O   0  0  0  0  0  0  0  0  0  0  0  0
   38.8960   29.3280   41.4370 C   0  0  0  0  0  2  0  0  0  0  0  0
   37.9390   30.2390   40.6530 C   0  0  2  0  0  3  0  0  0  0  0  0
   35.6310   30.7870   41.2320 O   0  0  0  0  0  0  0  0  0  0  0  0
   34.8750   30.3870   41.6910 H   0  0  0  0  0  0  0  0  0  0  0  0
   38.4990   31.5230   40.5040 O   0  0  0  0  0  0  0  0  0  0  0  0
   38.9390   31.5170   39.6170 H   0  0  0  0  0  0  0  0  0  0  0  0
  1  2  1  0  0  0  0
  2  3  2  0  0  0  0
  3  9  1  0  0  0  0
  4  3  1  0  0  0  0
  5  4  2  0  0  0  0
  6  5  1  0  0  0  0
  6  1  2  0  0  0  0
  7  1  1  0  0  0  0
  8  5  1  0  0  0  0
  9 12  1  0  0  0  0
 10  9  1  0  0  0  0
 10 13  1  0  0  0  0
 11 10  1  0  0  0  0
 11  9  1  0  0  0  0
 11 15  1  0  0  0  0
 14 10  1  0  0  0  0
 16 11  1  0  0  0  0
 17 22  1  6  0  0  0
 17 18  1  0  0  0  0
 18  2  1  6  0  0  0
 18 19  1  0  0  0  0
 20 19  1  0  0  0  0
 21 24  1  1  0  0  0
 21 20  1  0  0  0  0
 21 17  1  0  0  0  0
 22 23  1  0  0  0  0
 25 24  1  0  0  0  0
M  END
>  <minimizedAffinity>
-4.58756018

$$$$
