
 OpenBabel03252507073D

 24 25  0  0  1  0  0  0  0  0999 V2000
   44.8920   35.3200   45.0810 C   0  0  0  0  0  0  0  0  0  0  0  0
   45.4310   35.2220   43.7870 C   0  0  0  0  0  0  0  0  0  0  0  0
   46.0970   34.0470   43.4650 C   0  0  0  0  0  0  0  0  0  0  0  0
   46.2030   33.0480   44.3980 N   0  0  0  0  0  0  0  0  0  0  0  0
   45.6710   33.1810   45.6330 C   0  0  0  0  0  0  0  0  0  0  0  0
   45.0210   34.3110   45.9650 N   0  0  0  0  0  0  0  0  0  0  0  0
   44.3690   36.2350   45.3410 H   0  0  0  0  0  0  0  0  0  0  0  0
   45.2930   36.0600   43.1290 H   0  0  0  0  0  0  0  0  0  0  0  0
   47.2520   32.0410   47.1630 C   0  0  2  0  0  3  0  0  0  0  0  0
   45.8340   32.0470   46.5810 C   0  0  1  0  0  3  0  0  0  0  0  0
   45.0050   32.1640   47.6870 O   0  0  0  0  0  0  0  0  0  0  0  0
   45.6200   31.5730   48.7550 C   0  0  0  0  0  2  0  0  0  0  0  0
   47.0190   31.1780   48.3820 C   0  0  2  0  0  3  0  0  0  0  0  0
   47.5120   33.3620   47.5410 O   0  0  0  0  0  0  0  0  0  0  0  0
   46.6670   33.9020   47.6400 H   0  0  0  0  0  0  0  0  0  0  0  0
   47.9480   31.5120   49.3630 O   0  0  0  0  0  0  0  0  0  0  0  0
   48.2180   32.4670   49.3040 H   0  0  0  0  0  0  0  0  0  0  0  0
   46.6300   33.9540   42.1780 O   0  0  0  0  0  0  0  0  0  0  0  0
   48.8360   32.6040   41.6110 O   0  0  0  0  0  0  0  0  0  0  0  0
   48.3350   33.9990   41.9690 P   0  0  0  0  0  0  0  0  0  0  0  0
   48.6930   35.1150   40.7810 O   0  0  0  0  0  0  0  0  0  0  0  0
   48.2970   34.8210   39.9450 H   0  0  0  0  0  0  0  0  0  0  0  0
   49.0110   34.4300   43.4640 O   0  0  0  0  0  0  0  0  0  0  0  0
   48.9590   33.6370   44.0550 H   0  0  0  0  0  0  0  0  0  0  0  0
  1  7  1  0  0  0  0
  1  6  1  0  0  0  0
  2  1  2  0  0  0  0
  3  2  1  0  0  0  0
  3  4  2  0  0  0  0
  4  5  1  0  0  0  0
  5  6  2  0  0  0  0
  8  2  1  0  0  0  0
  9 14  1  1  0  0  0
  9 13  1  0  0  0  0
 10  5  1  6  0  0  0
 10  9  1  0  0  0  0
 10 11  1  0  0  0  0
 11 12  1  0  0  0  0
 13 12  1  0  0  0  0
 13 16  1  1  0  0  0
 14 15  1  0  0  0  0
 17 16  1  0  0  0  0
 18  3  1  0  0  0  0
 19 20  2  0  0  0  0
 20 18  1  0  0  0  0
 20 23  1  0  0  0  0
 21 20  1  0  0  0  0
 22 21  1  0  0  0  0
 23 24  1  0  0  0  0
M  END
>  <minimizedAffinity>
-5.39331484

>  <minimizedRMSD>
1.08334577

$$$$
