
 OpenBabel03242510083D

 28 30  0  0  1  0  0  0  0  0999 V2000
   44.6270   33.0150   41.2150 Br  0  0  0  0  0  0  0  0  0  0  0  0
   46.2960   33.9170   40.9310 C   0  0  0  0  0  0  0  0  0  0  0  0
   46.8250   34.7210   41.9250 C   0  0  0  0  0  0  0  0  0  0  0  0
   48.0320   35.3790   41.7310 C   0  0  0  0  0  0  0  0  0  0  0  0
   48.6780   35.2100   40.5370 C   0  0  0  0  0  0  0  0  0  0  0  0
   48.1280   34.4080   39.5730 C   0  0  0  0  0  0  0  0  0  0  0  0
   46.9470   33.7480   39.7310 C   0  0  0  0  0  0  0  0  0  0  0  0
   48.4540   36.0040   42.4900 H   0  0  0  0  0  0  0  0  0  0  0  0
   49.6220   35.7130   40.3610 H   0  0  0  0  0  0  0  0  0  0  0  0
   48.6590   34.2910   38.6410 H   0  0  0  0  0  0  0  0  0  0  0  0
   45.6300   34.0400   45.3070 C   0  0  0  0  0  0  0  0  0  0  0  0
   44.7180   35.0950   45.5530 C   0  0  0  0  0  0  0  0  0  0  0  0
   44.5300   36.0350   44.5300 C   0  0  0  0  0  0  0  0  0  0  0  0
   45.2290   35.8760   43.3820 N   0  0  0  0  0  0  0  0  0  0  0  0
   46.0920   34.8610   43.1710 C   0  0  0  0  0  0  0  0  0  0  0  0
   46.2880   33.9400   44.1490 N   0  0  0  0  0  0  0  0  0  0  0  0
   45.7160   33.3610   46.1440 H   0  0  0  0  0  0  0  0  0  0  0  0
   44.1640   35.2230   46.4650 H   0  0  0  0  0  0  0  0  0  0  0  0
   43.8670   36.8810   44.5940 H   0  0  0  0  0  0  0  0  0  0  0  0
   47.3220   32.4080   37.6530 C   0  0  1  0  0  3  0  0  0  0  0  0
   46.3490   32.8900   38.7130 C   0  0  2  0  0  3  0  0  0  0  0  0
   45.3770   33.4780   37.9210 O   0  0  0  0  0  0  0  0  0  0  0  0
   45.0450   32.4000   37.0720 C   0  0  0  0  0  2  0  0  0  0  0  0
   46.3330   31.7250   36.7120 C   0  0  2  0  0  3  0  0  0  0  0  0
   47.8460   33.4780   36.9220 O   0  0  0  0  0  0  0  0  0  0  0  0
   47.1940   33.8300   36.2650 H   0  0  0  0  0  0  0  0  0  0  0  0
   46.3110   30.3690   37.0660 O   0  0  0  0  0  0  0  0  0  0  0  0
   45.7310   30.2410   37.8380 H   0  0  0  0  0  0  0  0  0  0  0  0
  2  1  1  0  0  0  0
  2  3  1  0  0  0  0
  3 15  1  0  0  0  0
  4  3  2  0  0  0  0
  4  8  1  0  0  0  0
  5  4  1  0  0  0  0
  6  7  1  0  0  0  0
  6  5  2  0  0  0  0
  7  2  2  0  0  0  0
  9  5  1  0  0  0  0
 10  6  1  0  0  0  0
 11 12  1  0  0  0  0
 11 17  1  0  0  0  0
 12 18  1  0  0  0  0
 13 19  1  0  0  0  0
 13 12  2  0  0  0  0
 14 13  1  0  0  0  0
 15 14  2  0  0  0  0
 15 16  1  0  0  0  0
 16 11  2  0  0  0  0
 20 25  1  6  0  0  0
 20 21  1  0  0  0  0
 21  7  1  1  0  0  0
 22 21  1  0  0  0  0
 23 22  1  0  0  0  0
 24 27  1  1  0  0  0
 24 23  1  0  0  0  0
 24 20  1  0  0  0  0
 26 25  1  0  0  0  0
 27 28  1  0  0  0  0
M  END
>  <minimizedAffinity>
-5.64349318

>  <minimizedRMSD>
0.161777645

$$$$
