
 OpenBabel03252506073D

 43 47  0  0  1  0  0  0  0  0999 V2000
   36.9920   34.0180   39.2450 Cl  0  0  0  0  0  0  0  0  0  0  0  0
   37.4140   32.5060   39.9810 C   0  0  0  0  0  0  0  0  0  0  0  0
   38.6980   32.2660   40.3980 C   0  0  0  0  0  0  0  0  0  0  0  0
   38.9290   31.0270   40.9730 C   0  0  0  0  0  0  0  0  0  0  0  0
   37.9650   30.0540   41.1410 C   0  0  0  0  0  0  0  0  0  0  0  0
   36.6990   30.3300   40.7140 C   0  0  0  0  0  0  0  0  0  0  0  0
   35.5060   29.0580   40.9500 Cl  0  0  0  0  0  0  0  0  0  0  0  0
   36.4180   31.5370   40.1400 C   0  0  0  0  0  0  0  0  0  0  0  0
   39.9560   30.8480   41.3000 H   0  0  0  0  0  0  0  0  0  0  0  0
   35.3940   31.7190   39.8110 H   0  0  0  0  0  0  0  0  0  0  0  0
   38.4050   28.8050   41.7720 C   0  0  0  0  0  0  0  0  0  0  0  0
   38.8680   28.7430   43.0720 C   0  0  0  0  0  0  0  0  0  0  0  0
   39.2870   27.5770   43.6830 C   0  0  0  0  0  0  0  0  0  0  0  0
   39.2470   26.3990   42.9730 C   0  0  0  0  0  0  0  0  0  0  0  0
   39.6600   25.2740   43.5870 N   0  0  0  0  0  0  0  0  0  0  0  0
   39.6550   24.0710   42.9630 C   0  0  0  0  0  0  0  0  0  0  0  0
   39.2040   24.0560   41.6600 C   0  0  0  0  0  0  0  0  0  0  0  0
   38.7830   25.2060   41.0340 C   0  0  0  0  0  0  0  0  0  0  0  0
   38.7940   26.4160   41.6790 C   0  0  0  0  0  0  0  0  0  0  0  0
   38.3810   27.5900   41.0900 C   0  0  0  0  0  0  0  0  0  0  0  0
   38.8980   29.6710   43.6260 H   0  0  0  0  0  0  0  0  0  0  0  0
   39.6430   27.5740   44.7050 H   0  0  0  0  0  0  0  0  0  0  0  0
   39.9820   23.1840   43.4540 H   0  0  0  0  0  0  0  0  0  0  0  0
   39.1610   23.1520   41.0790 H   0  0  0  0  0  0  0  0  0  0  0  0
   38.4270   25.1870   40.0030 H   0  0  0  0  0  0  0  0  0  0  0  0
   38.0250   27.5650   40.0540 H   0  0  0  0  0  0  0  0  0  0  0  0
   40.4670   35.4480   40.4280 C   0  0  0  0  0  0  0  0  0  0  0  0
   41.7390   35.1360   39.9780 C   0  0  0  0  0  0  0  0  0  0  0  0
   41.9970   33.7880   39.6540 C   0  0  0  0  0  0  0  0  0  0  0  0
   40.9870   32.9100   39.8080 N   0  0  0  0  0  0  0  0  0  0  0  0
   39.7590   33.2480   40.2490 C   0  0  0  0  0  0  0  0  0  0  0  0
   39.4970   34.5290   40.5610 N   0  0  0  0  0  0  0  0  0  0  0  0
   40.2520   36.4840   40.6820 H   0  0  0  0  0  0  0  0  0  0  0  0
   42.5000   35.8770   39.8780 H   0  0  0  0  0  0  0  0  0  0  0  0
   43.4260   33.3370   37.6500 C   0  0  2  0  0  3  0  0  0  0  0  0
   43.3440   33.4250   39.1720 C   0  0  1  0  0  3  0  0  0  0  0  0
   44.3170   34.3510   39.5170 O   0  0  0  0  0  0  0  0  0  0  0  0
   45.3540   34.2320   38.6200 C   0  0  0  0  0  2  0  0  0  0  0  0
   44.9400   33.3040   37.5150 C   0  0  2  0  0  3  0  0  0  0  0  0
   42.9580   34.5210   37.0820 O   0  0  0  0  0  0  0  0  0  0  0  0
   43.2660   34.5380   36.1280 H   0  0  0  0  0  0  0  0  0  0  0  0
   45.3660   33.6930   36.2540 O   0  0  0  0  0  0  0  0  0  0  0  0
   46.3560   33.6600   36.2890 H   0  0  0  0  0  0  0  0  0  0  0  0
  1  2  1  0  0  0  0
  2  8  2  0  0  0  0
  2  3  1  0  0  0  0
  3  4  2  0  0  0  0
  4  5  1  0  0  0  0
  4  9  1  0  0  0  0
  5 11  1  0  0  0  0
  6  7  1  0  0  0  0
  6  5  2  0  0  0  0
  8  6  1  0  0  0  0
 10  8  1  0  0  0  0
 11 12  1  0  0  0  0
 12 21  1  0  0  0  0
 12 13  2  0  0  0  0
 13 22  1  0  0  0  0
 14 15  1  0  0  0  0
 14 13  1  0  0  0  0
 16 23  1  0  0  0  0
 16 15  2  0  0  0  0
 17 16  1  0  0  0  0
 18 17  2  0  0  0  0
 18 19  1  0  0  0  0
 19 14  2  0  0  0  0
 20 19  1  0  0  0  0
 20 11  2  0  0  0  0
 24 17  1  0  0  0  0
 25 18  1  0  0  0  0
 26 20  1  0  0  0  0
 27 32  1  0  0  0  0
 27 33  1  0  0  0  0
 28 27  2  0  0  0  0
 29 30  2  0  0  0  0
 29 28  1  0  0  0  0
 30 31  1  0  0  0  0
 31  3  1  0  0  0  0
 31 32  2  0  0  0  0
 34 28  1  0  0  0  0
 35 40  1  6  0  0  0
 35 36  1  0  0  0  0
 36 37  1  0  0  0  0
 36 29  1  6  0  0  0
 38 37  1  0  0  0  0
 39 42  1  6  0  0  0
 39 35  1  0  0  0  0
 39 38  1  0  0  0  0
 41 40  1  0  0  0  0
 42 43  1  0  0  0  0
M  END
>  <minimizedAffinity>
-8.24803734

$$$$

 OpenBabel03252506073D

 43 47  0  0  1  0  0  0  0  0999 V2000
   40.6400   31.2580   42.9830 Cl  0  0  0  0  0  0  0  0  0  0  0  0
   39.3490   30.7900   41.9250 C   0  0  0  0  0  0  0  0  0  0  0  0
   39.1380   31.4530   40.7430 C   0  0  0  0  0  0  0  0  0  0  0  0
   38.0810   31.0000   39.9710 C   0  0  0  0  0  0  0  0  0  0  0  0
   37.2560   29.9490   40.3190 C   0  0  0  0  0  0  0  0  0  0  0  0
   37.4980   29.3140   41.5010 C   0  0  0  0  0  0  0  0  0  0  0  0
   36.4190   27.9820   41.9020 Cl  0  0  0  0  0  0  0  0  0  0  0  0
   38.5270   29.7220   42.3000 C   0  0  0  0  0  0  0  0  0  0  0  0
   37.9240   31.5380   39.0330 H   0  0  0  0  0  0  0  0  0  0  0  0
   38.6880   29.1890   43.2380 H   0  0  0  0  0  0  0  0  0  0  0  0
   36.1890   29.6180   39.3690 C   0  0  0  0  0  0  0  0  0  0  0  0
   34.8840   29.3840   39.7580 C   0  0  0  0  0  0  0  0  0  0  0  0
   33.8650   29.0710   38.8790 C   0  0  0  0  0  0  0  0  0  0  0  0
   34.1460   28.9830   37.5350 C   0  0  0  0  0  0  0  0  0  0  0  0
   33.1390   28.6770   36.6950 N   0  0  0  0  0  0  0  0  0  0  0  0
   33.3260   28.5700   35.3570 C   0  0  0  0  0  0  0  0  0  0  0  0
   34.6070   28.7920   34.8950 C   0  0  0  0  0  0  0  0  0  0  0  0
   35.6340   29.1050   35.7540 C   0  0  0  0  0  0  0  0  0  0  0  0
   35.4290   29.2090   37.1060 C   0  0  0  0  0  0  0  0  0  0  0  0
   36.4290   29.5200   38.0000 C   0  0  0  0  0  0  0  0  0  0  0  0
   34.6680   29.4530   40.8150 H   0  0  0  0  0  0  0  0  0  0  0  0
   32.8560   28.8940   39.2270 H   0  0  0  0  0  0  0  0  0  0  0  0
   32.5260   28.3280   34.6970 H   0  0  0  0  0  0  0  0  0  0  0  0
   34.8580   28.7310   33.8510 H   0  0  0  0  0  0  0  0  0  0  0  0
   36.6450   29.2790   35.3820 H   0  0  0  0  0  0  0  0  0  0  0  0
   37.4420   29.6940   37.6210 H   0  0  0  0  0  0  0  0  0  0  0  0
   40.2020   34.8450   39.9550 C   0  0  0  0  0  0  0  0  0  0  0  0
   41.5100   34.7010   39.5230 C   0  0  0  0  0  0  0  0  0  0  0  0
   42.0440   33.3960   39.5030 C   0  0  0  0  0  0  0  0  0  0  0  0
   41.2400   32.3920   39.9040 N   0  0  0  0  0  0  0  0  0  0  0  0
   39.9700   32.5670   40.3190 C   0  0  0  0  0  0  0  0  0  0  0  0
   39.4470   33.8050   40.3440 N   0  0  0  0  0  0  0  0  0  0  0  0
   39.7760   35.8450   39.9770 H   0  0  0  0  0  0  0  0  0  0  0  0
   42.0980   35.5370   39.2170 H   0  0  0  0  0  0  0  0  0  0  0  0
   43.5620   33.1700   37.5260 C   0  0  2  0  0  3  0  0  0  0  0  0
   43.4360   33.2120   39.0470 C   0  0  1  0  0  3  0  0  0  0  0  0
   44.2790   34.2420   39.4350 O   0  0  0  0  0  0  0  0  0  0  0  0
   45.3430   34.2710   38.5620 C   0  0  0  0  0  2  0  0  0  0  0  0
   45.0710   33.3240   37.4290 C   0  0  2  0  0  3  0  0  0  0  0  0
   42.9650   34.3000   36.9710 O   0  0  0  0  0  0  0  0  0  0  0  0
   43.2900   34.3770   36.0250 H   0  0  0  0  0  0  0  0  0  0  0  0
   45.4750   33.7920   36.1870 O   0  0  0  0  0  0  0  0  0  0  0  0
   46.4590   33.8800   36.2460 H   0  0  0  0  0  0  0  0  0  0  0  0
  2  8  1  0  0  0  0
  2  1  1  0  0  0  0
  3  2  2  0  0  0  0
  4  5  2  0  0  0  0
  4  3  1  0  0  0  0
  5  6  1  0  0  0  0
  6  7  1  0  0  0  0
  6  8  2  0  0  0  0
  8 10  1  0  0  0  0
  9  4  1  0  0  0  0
 11 12  1  0  0  0  0
 11  5  1  0  0  0  0
 12 21  1  0  0  0  0
 13 22  1  0  0  0  0
 13 12  2  0  0  0  0
 14 13  1  0  0  0  0
 15 14  2  0  0  0  0
 16 15  1  0  0  0  0
 17 16  2  0  0  0  0
 17 18  1  0  0  0  0
 18 19  2  0  0  0  0
 19 14  1  0  0  0  0
 19 20  1  0  0  0  0
 20 11  2  0  0  0  0
 23 16  1  0  0  0  0
 24 17  1  0  0  0  0
 25 18  1  0  0  0  0
 26 20  1  0  0  0  0
 27 33  1  0  0  0  0
 27 32  1  0  0  0  0
 28 27  2  0  0  0  0
 29 28  1  0  0  0  0
 29 30  2  0  0  0  0
 30 31  1  0  0  0  0
 31 32  2  0  0  0  0
 31  3  1  0  0  0  0
 34 28  1  0  0  0  0
 35 40  1  6  0  0  0
 35 36  1  0  0  0  0
 36 37  1  0  0  0  0
 36 29  1  6  0  0  0
 38 37  1  0  0  0  0
 39 42  1  6  0  0  0
 39 35  1  0  0  0  0
 39 38  1  0  0  0  0
 41 40  1  0  0  0  0
 42 43  1  0  0  0  0
M  END
>  <minimizedAffinity>
-7.85917854

$$$$

 OpenBabel03252506073D

 43 47  0  0  1  0  0  0  0  0999 V2000
   36.6960   26.0740   38.6590 Cl  0  0  0  0  0  0  0  0  0  0  0  0
   35.3800   27.0750   38.1390 C   0  0  0  0  0  0  0  0  0  0  0  0
   35.1820   28.3130   38.6930 C   0  0  0  0  0  0  0  0  0  0  0  0
   34.1020   29.0320   38.2080 C   0  0  0  0  0  0  0  0  0  0  0  0
   33.2420   28.5800   37.2270 C   0  0  0  0  0  0  0  0  0  0  0  0
   33.4720   27.3430   36.6990 C   0  0  0  0  0  0  0  0  0  0  0  0
   32.3490   26.8110   35.4520 Cl  0  0  0  0  0  0  0  0  0  0  0  0
   34.5230   26.5930   37.1430 C   0  0  0  0  0  0  0  0  0  0  0  0
   33.9550   30.0170   38.6590 H   0  0  0  0  0  0  0  0  0  0  0  0
   34.6730   25.6090   36.6970 H   0  0  0  0  0  0  0  0  0  0  0  0
   32.1550   29.4880   36.8460 C   0  0  0  0  0  0  0  0  0  0  0  0
   31.0940   29.7780   37.6810 C   0  0  0  0  0  0  0  0  0  0  0  0
   30.0600   30.6300   37.3410 C   0  0  0  0  0  0  0  0  0  0  0  0
   30.0720   31.2340   36.1050 C   0  0  0  0  0  0  0  0  0  0  0  0
   29.0560   32.0610   35.7930 N   0  0  0  0  0  0  0  0  0  0  0  0
   28.9870   32.6970   34.5980 C   0  0  0  0  0  0  0  0  0  0  0  0
   30.0160   32.4530   33.7120 C   0  0  0  0  0  0  0  0  0  0  0  0
   31.0530   31.6090   34.0310 C   0  0  0  0  0  0  0  0  0  0  0  0
   31.1080   30.9720   35.2450 C   0  0  0  0  0  0  0  0  0  0  0  0
   32.1270   30.1200   35.6050 C   0  0  0  0  0  0  0  0  0  0  0  0
   31.0880   29.3020   38.6510 H   0  0  0  0  0  0  0  0  0  0  0  0
   29.2470   30.8300   38.0260 H   0  0  0  0  0  0  0  0  0  0  0  0
   28.1810   33.3500   34.3570 H   0  0  0  0  0  0  0  0  0  0  0  0
   30.0530   32.9100   32.7380 H   0  0  0  0  0  0  0  0  0  0  0  0
   31.8630   31.4210   33.3260 H   0  0  0  0  0  0  0  0  0  0  0  0
   32.9390   29.9350   34.8920 H   0  0  0  0  0  0  0  0  0  0  0  0
   36.8150   28.7600   41.9170 C   0  0  0  0  0  0  0  0  0  0  0  0
   37.6740   29.8280   41.7190 C   0  0  0  0  0  0  0  0  0  0  0  0
   37.6920   30.4140   40.4370 C   0  0  0  0  0  0  0  0  0  0  0  0
   36.8740   29.8890   39.5050 N   0  0  0  0  0  0  0  0  0  0  0  0
   36.0490   28.8470   39.7300 C   0  0  0  0  0  0  0  0  0  0  0  0
   36.0200   28.2780   40.9480 N   0  0  0  0  0  0  0  0  0  0  0  0
   36.7890   28.2970   42.9010 H   0  0  0  0  0  0  0  0  0  0  0  0
   38.3000   30.2000   42.4990 H   0  0  0  0  0  0  0  0  0  0  0  0
   37.9070   32.7250   39.5010 C   0  0  2  0  0  3  0  0  0  0  0  0
   38.5980   31.5550   40.1970 C   0  0  1  0  0  3  0  0  0  0  0  0
   39.1110   32.1010   41.3640 O   0  0  0  0  0  0  0  0  0  0  0  0
   39.4680   33.4050   41.1010 C   0  0  0  0  0  2  0  0  0  0  0  0
   38.9770   33.7780   39.7320 C   0  0  2  0  0  3  0  0  0  0  0  0
   36.7660   33.0910   40.2130 O   0  0  0  0  0  0  0  0  0  0  0  0
   36.4930   34.0020   39.8950 H   0  0  0  0  0  0  0  0  0  0  0  0
   38.4770   35.0690   39.6390 O   0  0  0  0  0  0  0  0  0  0  0  0
   39.2460   35.6630   39.8320 H   0  0  0  0  0  0  0  0  0  0  0  0
  2  1  1  0  0  0  0
  2  3  1  0  0  0  0
  3 31  1  0  0  0  0
  4  9  1  0  0  0  0
  4  3  2  0  0  0  0
  5  4  1  0  0  0  0
  6  8  1  0  0  0  0
  6  5  2  0  0  0  0
  7  6  1  0  0  0  0
  8  2  2  0  0  0  0
 10  8  1  0  0  0  0
 11  5  1  0  0  0  0
 11 12  1  0  0  0  0
 12 21  1  0  0  0  0
 13 12  2  0  0  0  0
 13 22  1  0  0  0  0
 14 13  1  0  0  0  0
 15 14  1  0  0  0  0
 16 15  2  0  0  0  0
 17 18  2  0  0  0  0
 17 16  1  0  0  0  0
 18 19  1  0  0  0  0
 19 20  1  0  0  0  0
 19 14  2  0  0  0  0
 20 11  2  0  0  0  0
 23 16  1  0  0  0  0
 24 17  1  0  0  0  0
 25 18  1  0  0  0  0
 26 20  1  0  0  0  0
 27 33  1  0  0  0  0
 28 27  1  0  0  0  0
 28 34  1  0  0  0  0
 29 28  2  0  0  0  0
 30 31  2  0  0  0  0
 30 29  1  0  0  0  0
 31 32  1  0  0  0  0
 32 27  2  0  0  0  0
 35 39  1  0  0  0  0
 35 36  1  0  0  0  0
 35 40  1  1  0  0  0
 36 29  1  1  0  0  0
 36 37  1  0  0  0  0
 38 37  1  0  0  0  0
 39 42  1  1  0  0  0
 39 38  1  0  0  0  0
 41 40  1  0  0  0  0
 42 43  1  0  0  0  0
M  END
>  <minimizedAffinity>
-7.70816755

$$$$

 OpenBabel03252506073D

 43 47  0  0  1  0  0  0  0  0999 V2000
   39.5600   35.3020   39.9920 Cl  0  0  0  0  0  0  0  0  0  0  0  0
   39.4000   33.6010   40.2790 C   0  0  0  0  0  0  0  0  0  0  0  0
   40.5010   32.7840   40.2760 C   0  0  0  0  0  0  0  0  0  0  0  0
   40.2640   31.4410   40.5160 C   0  0  0  0  0  0  0  0  0  0  0  0
   39.0160   30.8990   40.7490 C   0  0  0  0  0  0  0  0  0  0  0  0
   37.9450   31.7430   40.7430 C   0  0  0  0  0  0  0  0  0  0  0  0
   36.3750   31.0050   41.0440 Cl  0  0  0  0  0  0  0  0  0  0  0  0
   38.1240   33.0760   40.5120 C   0  0  0  0  0  0  0  0  0  0  0  0
   41.1510   30.8010   40.5100 H   0  0  0  0  0  0  0  0  0  0  0  0
   37.2420   33.7180   40.5150 H   0  0  0  0  0  0  0  0  0  0  0  0
   38.9690   29.4520   40.9820 C   0  0  0  0  0  0  0  0  0  0  0  0
   38.4510   28.5610   40.0610 C   0  0  0  0  0  0  0  0  0  0  0  0
   38.3970   27.1950   40.2610 C   0  0  0  0  0  0  0  0  0  0  0  0
   38.8820   26.6730   41.4380 C   0  0  0  0  0  0  0  0  0  0  0  0
   38.8210   25.3390   41.6140 N   0  0  0  0  0  0  0  0  0  0  0  0
   39.2750   24.7400   42.7420 C   0  0  0  0  0  0  0  0  0  0  0  0
   39.8070   25.5700   43.7070 C   0  0  0  0  0  0  0  0  0  0  0  0
   39.8690   26.9320   43.5260 C   0  0  0  0  0  0  0  0  0  0  0  0
   39.4050   27.5230   42.3790 C   0  0  0  0  0  0  0  0  0  0  0  0
   39.4480   28.8810   42.1580 C   0  0  0  0  0  0  0  0  0  0  0  0
   38.0700   28.9750   39.1380 H   0  0  0  0  0  0  0  0  0  0  0  0
   37.9830   26.5320   39.5130 H   0  0  0  0  0  0  0  0  0  0  0  0
   39.2240   23.6850   42.8750 H   0  0  0  0  0  0  0  0  0  0  0  0
   40.1940   25.1930   44.6370 H   0  0  0  0  0  0  0  0  0  0  0  0
   40.2910   27.5820   44.2940 H   0  0  0  0  0  0  0  0  0  0  0  0
   39.8730   29.5290   42.9320 H   0  0  0  0  0  0  0  0  0  0  0  0
   43.5090   33.8630   38.5300 C   0  0  0  0  0  0  0  0  0  0  0  0
   44.3730   34.2440   39.5420 C   0  0  0  0  0  0  0  0  0  0  0  0
   43.9080   34.1280   40.8670 C   0  0  0  0  0  0  0  0  0  0  0  0
   42.6590   33.6540   41.0450 N   0  0  0  0  0  0  0  0  0  0  0  0
   41.8430   33.2910   40.0370 C   0  0  0  0  0  0  0  0  0  0  0  0
   42.2720   33.3970   38.7670 N   0  0  0  0  0  0  0  0  0  0  0  0
   43.8530   33.9470   37.5010 H   0  0  0  0  0  0  0  0  0  0  0  0
   45.3530   34.6130   39.3370 H   0  0  0  0  0  0  0  0  0  0  0  0
   44.3350   35.7840   42.6940 C   0  0  2  0  0  3  0  0  0  0  0  0
   44.8080   34.5270   41.9670 C   0  0  1  0  0  3  0  0  0  0  0  0
   44.9100   33.5700   42.9650 O   0  0  0  0  0  0  0  0  0  0  0  0
   45.2910   34.2050   44.1260 C   0  0  0  0  0  2  0  0  0  0  0  0
   45.2460   35.6900   43.9070 C   0  0  2  0  0  3  0  0  0  0  0  0
   43.0170   35.6190   43.1160 O   0  0  0  0  0  0  0  0  0  0  0  0
   42.8310   36.3270   43.8010 H   0  0  0  0  0  0  0  0  0  0  0  0
   44.7610   36.4100   44.9880 O   0  0  0  0  0  0  0  0  0  0  0  0
   45.4110   36.2560   45.7200 H   0  0  0  0  0  0  0  0  0  0  0  0
  1  2  1  0  0  0  0
  2  8  1  0  0  0  0
  3  2  2  0  0  0  0
  3  4  1  0  0  0  0
  4  5  2  0  0  0  0
  5 11  1  0  0  0  0
  6  5  1  0  0  0  0
  6  7  1  0  0  0  0
  8 10  1  0  0  0  0
  8  6  2  0  0  0  0
  9  4  1  0  0  0  0
 11 20  1  0  0  0  0
 12 13  1  0  0  0  0
 12 11  2  0  0  0  0
 13 14  2  0  0  0  0
 14 15  1  0  0  0  0
 14 19  1  0  0  0  0
 15 16  2  0  0  0  0
 16 23  1  0  0  0  0
 16 17  1  0  0  0  0
 17 24  1  0  0  0  0
 18 17  2  0  0  0  0
 18 25  1  0  0  0  0
 19 18  1  0  0  0  0
 20 19  2  0  0  0  0
 20 26  1  0  0  0  0
 21 12  1  0  0  0  0
 22 13  1  0  0  0  0
 27 32  2  0  0  0  0
 27 28  1  0  0  0  0
 28 29  2  0  0  0  0
 29 30  1  0  0  0  0
 31  3  1  0  0  0  0
 31 30  2  0  0  0  0
 32 31  1  0  0  0  0
 33 27  1  0  0  0  0
 34 28  1  0  0  0  0
 35 40  1  1  0  0  0
 35 39  1  0  0  0  0
 36 29  1  6  0  0  0
 36 35  1  0  0  0  0
 36 37  1  0  0  0  0
 37 38  1  0  0  0  0
 39 38  1  0  0  0  0
 39 42  1  1  0  0  0
 40 41  1  0  0  0  0
 42 43  1  0  0  0  0
M  END
>  <minimizedAffinity>
-7.55200958

$$$$

 OpenBabel03252506073D

 43 47  0  0  1  0  0  0  0  0999 V2000
   36.4650   25.8760   37.4720 Cl  0  0  0  0  0  0  0  0  0  0  0  0
   35.1530   26.9620   37.1520 C   0  0  0  0  0  0  0  0  0  0  0  0
   35.2730   28.3020   37.4180 C   0  0  0  0  0  0  0  0  0  0  0  0
   34.1670   29.0820   37.1270 C   0  0  0  0  0  0  0  0  0  0  0  0
   32.9880   28.5970   36.5990 C   0  0  0  0  0  0  0  0  0  0  0  0
   32.9060   27.2590   36.3470 C   0  0  0  0  0  0  0  0  0  0  0  0
   31.3820   26.6870   35.6760 Cl  0  0  0  0  0  0  0  0  0  0  0  0
   33.9690   26.4450   36.6170 C   0  0  0  0  0  0  0  0  0  0  0  0
   34.2770   30.1480   37.3440 H   0  0  0  0  0  0  0  0  0  0  0  0
   33.8640   25.3800   36.4020 H   0  0  0  0  0  0  0  0  0  0  0  0
   31.9280   29.5820   36.3590 C   0  0  0  0  0  0  0  0  0  0  0  0
   31.0420   29.9840   37.3400 C   0  0  0  0  0  0  0  0  0  0  0  0
   30.0380   30.9100   37.1350 C   0  0  0  0  0  0  0  0  0  0  0  0
   29.8960   31.4760   35.8880 C   0  0  0  0  0  0  0  0  0  0  0  0
   28.9110   32.3770   35.7090 N   0  0  0  0  0  0  0  0  0  0  0  0
   28.6990   32.9820   34.5150 C   0  0  0  0  0  0  0  0  0  0  0  0
   29.5480   32.6280   33.4870 C   0  0  0  0  0  0  0  0  0  0  0  0
   30.5530   31.7090   33.6710 C   0  0  0  0  0  0  0  0  0  0  0  0
   30.7550   31.1040   34.8860 C   0  0  0  0  0  0  0  0  0  0  0  0
   31.7490   30.1790   35.1140 C   0  0  0  0  0  0  0  0  0  0  0  0
   31.1570   29.5370   38.3180 H   0  0  0  0  0  0  0  0  0  0  0  0
   29.3650   31.1970   37.9320 H   0  0  0  0  0  0  0  0  0  0  0  0
   27.9190   33.6940   34.3790 H   0  0  0  0  0  0  0  0  0  0  0  0
   29.4630   33.0530   32.5020 H   0  0  0  0  0  0  0  0  0  0  0  0
   31.2210   31.4340   32.8540 H   0  0  0  0  0  0  0  0  0  0  0  0
   32.4160   29.9070   34.2890 H   0  0  0  0  0  0  0  0  0  0  0  0
   38.3970   30.1560   37.6730 C   0  0  0  0  0  0  0  0  0  0  0  0
   38.7930   29.9790   38.9880 C   0  0  0  0  0  0  0  0  0  0  0  0
   37.9600   29.1970   39.8140 C   0  0  0  0  0  0  0  0  0  0  0  0
   36.8440   28.6840   39.2600 N   0  0  0  0  0  0  0  0  0  0  0  0
   36.4880   28.8760   37.9740 C   0  0  0  0  0  0  0  0  0  0  0  0
   37.2720   29.6190   37.1740 N   0  0  0  0  0  0  0  0  0  0  0  0
   39.0290   30.7570   37.0230 H   0  0  0  0  0  0  0  0  0  0  0  0
   39.6900   30.4120   39.3700 H   0  0  0  0  0  0  0  0  0  0  0  0
   37.3780   29.6170   42.2120 C   0  0  2  0  0  3  0  0  0  0  0  0
   38.3560   28.9910   41.2210 C   0  0  1  0  0  3  0  0  0  0  0  0
   38.4070   27.6530   41.5840 O   0  0  0  0  0  0  0  0  0  0  0  0
   38.2480   27.5780   42.9500 C   0  0  0  0  0  2  0  0  0  0  0  0
   37.8810   28.9370   43.4740 C   0  0  2  0  0  3  0  0  0  0  0  0
   36.0860   29.1640   41.9500 O   0  0  0  0  0  0  0  0  0  0  0  0
   35.5260   29.3720   42.7560 H   0  0  0  0  0  0  0  0  0  0  0  0
   36.9270   28.9200   44.4810 O   0  0  0  0  0  0  0  0  0  0  0  0
   37.3480   28.4340   45.2340 H   0  0  0  0  0  0  0  0  0  0  0  0
  2  3  1  0  0  0  0
  2  1  1  0  0  0  0
  3 31  1  0  0  0  0
  4  9  1  0  0  0  0
  4  3  2  0  0  0  0
  5  4  1  0  0  0  0
  6  5  2  0  0  0  0
  6  8  1  0  0  0  0
  7  6  1  0  0  0  0
  8  2  2  0  0  0  0
 10  8  1  0  0  0  0
 11  5  1  0  0  0  0
 11 12  1  0  0  0  0
 12 21  1  0  0  0  0
 13 12  2  0  0  0  0
 13 22  1  0  0  0  0
 14 13  1  0  0  0  0
 15 14  1  0  0  0  0
 16 15  2  0  0  0  0
 17 18  2  0  0  0  0
 17 16  1  0  0  0  0
 18 19  1  0  0  0  0
 19 20  1  0  0  0  0
 19 14  2  0  0  0  0
 20 11  2  0  0  0  0
 23 16  1  0  0  0  0
 24 17  1  0  0  0  0
 25 18  1  0  0  0  0
 26 20  1  0  0  0  0
 27 28  1  0  0  0  0
 28 34  1  0  0  0  0
 28 29  2  0  0  0  0
 30 29  1  0  0  0  0
 31 30  2  0  0  0  0
 32 27  2  0  0  0  0
 32 31  1  0  0  0  0
 33 27  1  0  0  0  0
 35 40  1  6  0  0  0
 35 39  1  0  0  0  0
 36 29  1  6  0  0  0
 36 37  1  0  0  0  0
 36 35  1  0  0  0  0
 37 38  1  0  0  0  0
 38 39  1  0  0  0  0
 39 42  1  1  0  0  0
 40 41  1  0  0  0  0
 42 43  1  0  0  0  0
M  END
>  <minimizedAffinity>
-7.37516069

$$$$

 OpenBabel03252506073D

 43 47  0  0  1  0  0  0  0  0999 V2000
   36.7690   26.0020   38.7350 Cl  0  0  0  0  0  0  0  0  0  0  0  0
   35.4590   27.0130   38.2190 C   0  0  0  0  0  0  0  0  0  0  0  0
   35.1750   28.1810   38.8800 C   0  0  0  0  0  0  0  0  0  0  0  0
   34.1090   28.9150   38.3870 C   0  0  0  0  0  0  0  0  0  0  0  0
   33.3420   28.5430   37.3020 C   0  0  0  0  0  0  0  0  0  0  0  0
   33.6550   27.3750   36.6710 C   0  0  0  0  0  0  0  0  0  0  0  0
   32.6480   26.9440   35.2930 Cl  0  0  0  0  0  0  0  0  0  0  0  0
   34.6970   26.6140   37.1170 C   0  0  0  0  0  0  0  0  0  0  0  0
   33.8930   29.8430   38.9230 H   0  0  0  0  0  0  0  0  0  0  0  0
   34.9160   25.6860   36.5850 H   0  0  0  0  0  0  0  0  0  0  0  0
   32.2530   29.4540   36.9320 C   0  0  0  0  0  0  0  0  0  0  0  0
   31.2070   29.7560   37.7820 C   0  0  0  0  0  0  0  0  0  0  0  0
   30.1730   30.6110   37.4520 C   0  0  0  0  0  0  0  0  0  0  0  0
   30.1670   31.2060   36.2110 C   0  0  0  0  0  0  0  0  0  0  0  0
   29.1500   32.0360   35.9100 N   0  0  0  0  0  0  0  0  0  0  0  0
   29.0660   32.6640   34.7120 C   0  0  0  0  0  0  0  0  0  0  0  0
   30.0790   32.4080   33.8110 C   0  0  0  0  0  0  0  0  0  0  0  0
   31.1160   31.5610   34.1200 C   0  0  0  0  0  0  0  0  0  0  0  0
   31.1880   30.9330   35.3370 C   0  0  0  0  0  0  0  0  0  0  0  0
   32.2080   30.0770   35.6870 C   0  0  0  0  0  0  0  0  0  0  0  0
   31.2140   29.2870   38.7550 H   0  0  0  0  0  0  0  0  0  0  0  0
   29.3720   30.8200   38.1490 H   0  0  0  0  0  0  0  0  0  0  0  0
   28.2590   33.3190   34.4790 H   0  0  0  0  0  0  0  0  0  0  0  0
   30.1030   32.8580   32.8330 H   0  0  0  0  0  0  0  0  0  0  0  0
   31.9140   31.3640   33.4030 H   0  0  0  0  0  0  0  0  0  0  0  0
   33.0070   29.8830   34.9630 H   0  0  0  0  0  0  0  0  0  0  0  0
   36.7430   30.3780   41.3230 C   0  0  0  0  0  0  0  0  0  0  0  0
   37.3880   29.5160   42.1940 C   0  0  0  0  0  0  0  0  0  0  0  0
   37.2810   28.1350   41.9330 C   0  0  0  0  0  0  0  0  0  0  0  0
   36.5600   27.7620   40.8580 N   0  0  0  0  0  0  0  0  0  0  0  0
   35.9430   28.6290   40.0300 C   0  0  0  0  0  0  0  0  0  0  0  0
   36.0370   29.9490   40.2660 N   0  0  0  0  0  0  0  0  0  0  0  0
   36.8170   31.4470   41.5110 H   0  0  0  0  0  0  0  0  0  0  0  0
   37.9460   29.8720   43.0310 H   0  0  0  0  0  0  0  0  0  0  0  0
   38.5440   25.9820   42.1180 C   0  0  2  0  0  3  0  0  0  0  0  0
   37.9580   27.1910   42.8440 C   0  0  1  0  0  3  0  0  0  0  0  0
   39.0390   27.7520   43.5080 O   0  0  0  0  0  0  0  0  0  0  0  0
   39.8860   26.7320   43.8770 C   0  0  0  0  0  2  0  0  0  0  0  0
   39.4170   25.4540   43.2440 C   0  0  2  0  0  3  0  0  0  0  0  0
   39.3720   26.4090   41.0810 O   0  0  0  0  0  0  0  0  0  0  0  0
   39.9350   25.6270   40.8050 H   0  0  0  0  0  0  0  0  0  0  0  0
   40.4390   24.6380   42.7820 O   0  0  0  0  0  0  0  0  0  0  0  0
   40.9530   24.3780   43.5880 H   0  0  0  0  0  0  0  0  0  0  0  0
  2  1  1  0  0  0  0
  2  3  1  0  0  0  0
  3 31  1  0  0  0  0
  4  3  2  0  0  0  0
  4  9  1  0  0  0  0
  5  4  1  0  0  0  0
  6  8  1  0  0  0  0
  6  5  2  0  0  0  0
  7  6  1  0  0  0  0
  8  2  2  0  0  0  0
 10  8  1  0  0  0  0
 11  5  1  0  0  0  0
 11 12  1  0  0  0  0
 12 21  1  0  0  0  0
 13 12  2  0  0  0  0
 13 22  1  0  0  0  0
 14 13  1  0  0  0  0
 15 14  1  0  0  0  0
 16 15  2  0  0  0  0
 17 18  2  0  0  0  0
 17 16  1  0  0  0  0
 18 19  1  0  0  0  0
 19 20  1  0  0  0  0
 19 14  2  0  0  0  0
 20 11  2  0  0  0  0
 23 16  1  0  0  0  0
 24 17  1  0  0  0  0
 25 18  1  0  0  0  0
 26 20  1  0  0  0  0
 27 33  1  0  0  0  0
 27 28  1  0  0  0  0
 28 34  1  0  0  0  0
 29 28  2  0  0  0  0
 30 29  1  0  0  0  0
 31 32  1  0  0  0  0
 31 30  2  0  0  0  0
 32 27  2  0  0  0  0
 35 40  1  6  0  0  0
 35 36  1  0  0  0  0
 35 39  1  0  0  0  0
 36 29  1  6  0  0  0
 36 37  1  0  0  0  0
 37 38  1  0  0  0  0
 39 42  1  6  0  0  0
 39 38  1  0  0  0  0
 41 40  1  0  0  0  0
 42 43  1  0  0  0  0
M  END
>  <minimizedAffinity>
-7.37515736

$$$$

 OpenBabel03252506073D

 43 47  0  0  1  0  0  0  0  0999 V2000
   39.8580   31.1430   42.8820 Cl  0  0  0  0  0  0  0  0  0  0  0  0
   38.8830   30.6790   41.5260 C   0  0  0  0  0  0  0  0  0  0  0  0
   38.6780   31.5440   40.4830 C   0  0  0  0  0  0  0  0  0  0  0  0
   37.8840   31.0750   39.4500 C   0  0  0  0  0  0  0  0  0  0  0  0
   37.3060   29.8220   39.4180 C   0  0  0  0  0  0  0  0  0  0  0  0
   37.5330   28.9890   40.4740 C   0  0  0  0  0  0  0  0  0  0  0  0
   36.7750   27.4030   40.3880 Cl  0  0  0  0  0  0  0  0  0  0  0  0
   38.3090   29.4030   41.5190 C   0  0  0  0  0  0  0  0  0  0  0  0
   37.7280   31.7750   38.6250 H   0  0  0  0  0  0  0  0  0  0  0  0
   38.4660   28.7080   42.3440 H   0  0  0  0  0  0  0  0  0  0  0  0
   36.4970   29.5090   38.2360 C   0  0  0  0  0  0  0  0  0  0  0  0
   37.0410   29.3380   36.9770 C   0  0  0  0  0  0  0  0  0  0  0  0
   36.2960   29.0430   35.8520 C   0  0  0  0  0  0  0  0  0  0  0  0
   34.9320   28.9070   35.9710 C   0  0  0  0  0  0  0  0  0  0  0  0
   34.2240   28.6190   34.8620 N   0  0  0  0  0  0  0  0  0  0  0  0
   32.8780   28.4670   34.8880 C   0  0  0  0  0  0  0  0  0  0  0  0
   32.2650   28.6240   36.1140 C   0  0  0  0  0  0  0  0  0  0  0  0
   32.9880   28.9180   37.2450 C   0  0  0  0  0  0  0  0  0  0  0  0
   34.3510   29.0680   37.2020 C   0  0  0  0  0  0  0  0  0  0  0  0
   35.1140   29.3620   38.3100 C   0  0  0  0  0  0  0  0  0  0  0  0
   38.1130   29.4460   36.8880 H   0  0  0  0  0  0  0  0  0  0  0  0
   36.7640   28.9170   34.8840 H   0  0  0  0  0  0  0  0  0  0  0  0
   32.3230   28.2390   34.0070 H   0  0  0  0  0  0  0  0  0  0  0  0
   31.2010   28.5240   36.2390 H   0  0  0  0  0  0  0  0  0  0  0  0
   32.4970   29.0400   38.2110 H   0  0  0  0  0  0  0  0  0  0  0  0
   34.6150   29.4840   39.2780 H   0  0  0  0  0  0  0  0  0  0  0  0
   38.9480   35.1750   40.4390 C   0  0  0  0  0  0  0  0  0  0  0  0
   40.3110   35.4160   40.4030 C   0  0  0  0  0  0  0  0  0  0  0  0
   41.1650   34.2940   40.3940 C   0  0  0  0  0  0  0  0  0  0  0  0
   40.5890   33.0770   40.4210 N   0  0  0  0  0  0  0  0  0  0  0  0
   39.2570   32.8780   40.4560 C   0  0  0  0  0  0  0  0  0  0  0  0
   38.4290   33.9370   40.4650 N   0  0  0  0  0  0  0  0  0  0  0  0
   38.2760   36.0300   40.4460 H   0  0  0  0  0  0  0  0  0  0  0  0
   40.7090   36.4060   40.3830 H   0  0  0  0  0  0  0  0  0  0  0  0
   43.2370   34.6770   41.7450 C   0  0  2  0  0  3  0  0  0  0  0  0
   42.6240   34.5200   40.3550 C   0  0  1  0  0  3  0  0  0  0  0  0
   43.3250   33.4680   39.7860 O   0  0  0  0  0  0  0  0  0  0  0  0
   44.6160   33.5100   40.2630 C   0  0  0  0  0  2  0  0  0  0  0  0
   44.6990   34.5380   41.3550 C   0  0  2  0  0  3  0  0  0  0  0  0
   42.8870   33.5890   42.5420 O   0  0  0  0  0  0  0  0  0  0  0  0
   43.5030   33.5850   43.3330 H   0  0  0  0  0  0  0  0  0  0  0  0
   45.4980   34.1680   42.4260 O   0  0  0  0  0  0  0  0  0  0  0  0
   46.4130   34.0810   42.0540 H   0  0  0  0  0  0  0  0  0  0  0  0
  2  1  1  0  0  0  0
  3  2  2  0  0  0  0
  4  3  1  0  0  0  0
  5  4  2  0  0  0  0
  5  6  1  0  0  0  0
  6  8  2  0  0  0  0
  7  6  1  0  0  0  0
  8  2  1  0  0  0  0
  8 10  1  0  0  0  0
  9  4  1  0  0  0  0
 11 20  1  0  0  0  0
 11  5  1  0  0  0  0
 12 11  2  0  0  0  0
 13 14  2  0  0  0  0
 13 12  1  0  0  0  0
 14 19  1  0  0  0  0
 15 16  2  0  0  0  0
 15 14  1  0  0  0  0
 16 17  1  0  0  0  0
 17 24  1  0  0  0  0
 17 18  2  0  0  0  0
 18 25  1  0  0  0  0
 19 18  1  0  0  0  0
 19 20  2  0  0  0  0
 20 26  1  0  0  0  0
 21 12  1  0  0  0  0
 22 13  1  0  0  0  0
 23 16  1  0  0  0  0
 27 33  1  0  0  0  0
 27 32  1  0  0  0  0
 28 27  2  0  0  0  0
 29 28  1  0  0  0  0
 29 30  2  0  0  0  0
 30 31  1  0  0  0  0
 31 32  2  0  0  0  0
 31  3  1  0  0  0  0
 34 28  1  0  0  0  0
 35 40  1  1  0  0  0
 36 29  1  1  0  0  0
 36 35  1  0  0  0  0
 37 38  1  0  0  0  0
 37 36  1  0  0  0  0
 38 39  1  0  0  0  0
 39 35  1  0  0  0  0
 39 42  1  1  0  0  0
 40 41  1  0  0  0  0
 43 42  1  0  0  0  0
M  END
>  <minimizedAffinity>
-7.30410957

$$$$

 OpenBabel03252506073D

 43 47  0  0  1  0  0  0  0  0999 V2000
   39.2410   35.0560   39.8270 Cl  0  0  0  0  0  0  0  0  0  0  0  0
   39.0320   33.4010   40.2990 C   0  0  0  0  0  0  0  0  0  0  0  0
   40.1180   32.6020   40.5480 C   0  0  0  0  0  0  0  0  0  0  0  0
   39.8420   31.2970   40.9180 C   0  0  0  0  0  0  0  0  0  0  0  0
   38.5700   30.7750   41.0440 C   0  0  0  0  0  0  0  0  0  0  0  0
   37.5150   31.6000   40.7870 C   0  0  0  0  0  0  0  0  0  0  0  0
   35.9130   30.8890   40.9600 Cl  0  0  0  0  0  0  0  0  0  0  0  0
   37.7330   32.8970   40.4190 C   0  0  0  0  0  0  0  0  0  0  0  0
   40.7160   30.6700   41.1130 H   0  0  0  0  0  0  0  0  0  0  0  0
   36.8630   33.5250   40.2220 H   0  0  0  0  0  0  0  0  0  0  0  0
   38.4810   29.3670   41.4460 C   0  0  0  0  0  0  0  0  0  0  0  0
   39.0250   28.8870   42.6210 C   0  0  0  0  0  0  0  0  0  0  0  0
   38.9530   27.5660   43.0180 C   0  0  0  0  0  0  0  0  0  0  0  0
   38.3040   26.6610   42.2090 C   0  0  0  0  0  0  0  0  0  0  0  0
   38.2440   25.3770   42.6140 N   0  0  0  0  0  0  0  0  0  0  0  0
   37.6260   24.4200   41.8800 C   0  0  0  0  0  0  0  0  0  0  0  0
   37.0580   24.8280   40.6910 C   0  0  0  0  0  0  0  0  0  0  0  0
   37.1200   26.1380   40.2790 C   0  0  0  0  0  0  0  0  0  0  0  0
   37.7500   27.0950   41.0330 C   0  0  0  0  0  0  0  0  0  0  0  0
   37.8340   28.4180   40.6580 C   0  0  0  0  0  0  0  0  0  0  0  0
   39.5340   29.6010   43.2540 H   0  0  0  0  0  0  0  0  0  0  0  0
   39.3940   27.2320   43.9480 H   0  0  0  0  0  0  0  0  0  0  0  0
   37.5820   23.4070   42.2050 H   0  0  0  0  0  0  0  0  0  0  0  0
   36.5450   24.1450   40.0370 H   0  0  0  0  0  0  0  0  0  0  0  0
   36.6690   26.4540   39.3380 H   0  0  0  0  0  0  0  0  0  0  0  0
   37.3790   28.7290   39.7110 H   0  0  0  0  0  0  0  0  0  0  0  0
   43.1140   34.5990   41.0940 C   0  0  0  0  0  0  0  0  0  0  0  0
   44.0540   34.0430   40.2430 C   0  0  0  0  0  0  0  0  0  0  0  0
   43.6460   32.9460   39.4570 C   0  0  0  0  0  0  0  0  0  0  0  0
   42.3740   32.5250   39.5940 N   0  0  0  0  0  0  0  0  0  0  0  0
   41.4830   33.0900   40.4330 C   0  0  0  0  0  0  0  0  0  0  0  0
   41.8570   34.1360   41.1890 N   0  0  0  0  0  0  0  0  0  0  0  0
   43.4130   35.4460   41.7070 H   0  0  0  0  0  0  0  0  0  0  0  0
   45.0500   34.4210   40.1780 H   0  0  0  0  0  0  0  0  0  0  0  0
   43.9720   31.6130   37.3640 C   0  0  2  0  0  3  0  0  0  0  0  0
   44.6280   32.3330   38.5400 C   0  0  1  0  0  3  0  0  0  0  0  0
   45.4760   33.2570   37.9490 O   0  0  0  0  0  0  0  0  0  0  0  0
   45.9490   32.7100   36.7770 C   0  0  0  0  0  2  0  0  0  0  0  0
   45.2100   31.4320   36.5020 C   0  0  2  0  0  3  0  0  0  0  0  0
   43.0980   32.4770   36.7080 O   0  0  0  0  0  0  0  0  0  0  0  0
   42.8950   32.0760   35.8120 H   0  0  0  0  0  0  0  0  0  0  0  0
   44.8980   31.2320   35.1650 O   0  0  0  0  0  0  0  0  0  0  0  0
   45.7690   31.1570   34.7000 H   0  0  0  0  0  0  0  0  0  0  0  0
  1  2  1  0  0  0  0
  2  8  2  0  0  0  0
  2  3  1  0  0  0  0
  3  4  2  0  0  0  0
  4  5  1  0  0  0  0
  4  9  1  0  0  0  0
  5 11  1  0  0  0  0
  6  7  1  0  0  0  0
  6  5  2  0  0  0  0
  8  6  1  0  0  0  0
 10  8  1  0  0  0  0
 11 12  1  0  0  0  0
 12 13  2  0  0  0  0
 12 21  1  0  0  0  0
 13 22  1  0  0  0  0
 14 15  1  0  0  0  0
 14 13  1  0  0  0  0
 16 23  1  0  0  0  0
 16 15  2  0  0  0  0
 17 16  1  0  0  0  0
 18 17  2  0  0  0  0
 18 19  1  0  0  0  0
 19 14  2  0  0  0  0
 20 19  1  0  0  0  0
 20 11  2  0  0  0  0
 24 17  1  0  0  0  0
 25 18  1  0  0  0  0
 26 20  1  0  0  0  0
 27 32  1  0  0  0  0
 27 33  1  0  0  0  0
 28 27  2  0  0  0  0
 29 30  2  0  0  0  0
 29 28  1  0  0  0  0
 30 31  1  0  0  0  0
 31  3  1  0  0  0  0
 31 32  2  0  0  0  0
 34 28  1  0  0  0  0
 35 40  1  6  0  0  0
 35 36  1  0  0  0  0
 36 29  1  6  0  0  0
 37 36  1  0  0  0  0
 38 37  1  0  0  0  0
 39 42  1  6  0  0  0
 39 38  1  0  0  0  0
 39 35  1  0  0  0  0
 41 40  1  0  0  0  0
 43 42  1  0  0  0  0
M  END
>  <minimizedAffinity>
-7.2714529

$$$$

 OpenBabel03252506073D

 43 47  0  0  1  0  0  0  0  0999 V2000
   37.1450   26.1670   39.4360 Cl  0  0  0  0  0  0  0  0  0  0  0  0
   35.9080   27.0640   38.6180 C   0  0  0  0  0  0  0  0  0  0  0  0
   35.7830   28.4160   38.8060 C   0  0  0  0  0  0  0  0  0  0  0  0
   34.7630   29.0380   38.1060 C   0  0  0  0  0  0  0  0  0  0  0  0
   33.8930   28.3870   37.2550 C   0  0  0  0  0  0  0  0  0  0  0  0
   34.0480   27.0410   37.0930 C   0  0  0  0  0  0  0  0  0  0  0  0
   32.9140   26.2560   35.9990 Cl  0  0  0  0  0  0  0  0  0  0  0  0
   35.0390   26.3810   37.7610 C   0  0  0  0  0  0  0  0  0  0  0  0
   34.6750   30.1160   38.2660 H   0  0  0  0  0  0  0  0  0  0  0  0
   35.1300   25.3050   37.6050 H   0  0  0  0  0  0  0  0  0  0  0  0
   32.8760   29.2180   36.6030 C   0  0  0  0  0  0  0  0  0  0  0  0
   32.9240   29.5480   35.2620 C   0  0  0  0  0  0  0  0  0  0  0  0
   31.9770   30.3300   34.6300 C   0  0  0  0  0  0  0  0  0  0  0  0
   30.9170   30.8170   35.3600 C   0  0  0  0  0  0  0  0  0  0  0  0
   30.0040   31.5770   34.7250 N   0  0  0  0  0  0  0  0  0  0  0  0
   28.9300   32.0970   35.3660 C   0  0  0  0  0  0  0  0  0  0  0  0
   28.8170   31.8080   36.7110 C   0  0  0  0  0  0  0  0  0  0  0  0
   29.7490   31.0320   37.3580 C   0  0  0  0  0  0  0  0  0  0  0  0
   30.8310   30.5130   36.6950 C   0  0  0  0  0  0  0  0  0  0  0  0
   31.7870   29.7320   37.3040 C   0  0  0  0  0  0  0  0  0  0  0  0
   33.7580   29.1650   34.6920 H   0  0  0  0  0  0  0  0  0  0  0  0
   32.0530   30.5650   33.5760 H   0  0  0  0  0  0  0  0  0  0  0  0
   28.2110   32.6970   34.8580 H   0  0  0  0  0  0  0  0  0  0  0  0
   28.0000   32.1740   37.3080 H   0  0  0  0  0  0  0  0  0  0  0  0
   29.6530   30.8080   38.4210 H   0  0  0  0  0  0  0  0  0  0  0  0
   31.6860   29.5090   38.3720 H   0  0  0  0  0  0  0  0  0  0  0  0
   37.1250   29.9810   41.8090 C   0  0  0  0  0  0  0  0  0  0  0  0
   38.3080   30.5640   41.3900 C   0  0  0  0  0  0  0  0  0  0  0  0
   38.6580   30.4150   40.0320 C   0  0  0  0  0  0  0  0  0  0  0  0
   37.8120   29.7170   39.2490 N   0  0  0  0  0  0  0  0  0  0  0  0
   36.6670   29.1610   39.6890 C   0  0  0  0  0  0  0  0  0  0  0  0
   36.3200   29.2950   40.9810 N   0  0  0  0  0  0  0  0  0  0  0  0
   36.8420   30.0860   42.8540 H   0  0  0  0  0  0  0  0  0  0  0  0
   38.9380   31.1060   42.0600 H   0  0  0  0  0  0  0  0  0  0  0  0
   39.8520   31.4460   38.0900 C   0  0  2  0  0  3  0  0  0  0  0  0
   39.9140   31.0270   39.5570 C   0  0  1  0  0  3  0  0  0  0  0  0
   40.2470   32.1900   40.2350 O   0  0  0  0  0  0  0  0  0  0  0  0
   41.0650   32.9380   39.4180 C   0  0  0  0  0  2  0  0  0  0  0  0
   41.1050   32.3060   38.0560 C   0  0  2  0  0  3  0  0  0  0  0  0
   38.7470   32.2680   37.8800 O   0  0  0  0  0  0  0  0  0  0  0  0
   38.8800   32.7310   37.0000 H   0  0  0  0  0  0  0  0  0  0  0  0
   41.0960   33.2120   37.0070 O   0  0  0  0  0  0  0  0  0  0  0  0
   41.9350   33.7310   37.0990 H   0  0  0  0  0  0  0  0  0  0  0  0
  2  3  1  0  0  0  0
  2  1  1  0  0  0  0
  3 31  1  0  0  0  0
  4  9  1  0  0  0  0
  4  3  2  0  0  0  0
  5  4  1  0  0  0  0
  6  5  2  0  0  0  0
  6  8  1  0  0  0  0
  7  6  1  0  0  0  0
  8  2  2  0  0  0  0
 10  8  1  0  0  0  0
 11  5  1  0  0  0  0
 11 20  1  0  0  0  0
 12 11  2  0  0  0  0
 13 12  1  0  0  0  0
 13 14  2  0  0  0  0
 14 19  1  0  0  0  0
 15 14  1  0  0  0  0
 15 16  2  0  0  0  0
 16 17  1  0  0  0  0
 17 24  1  0  0  0  0
 17 18  2  0  0  0  0
 18 25  1  0  0  0  0
 19 20  2  0  0  0  0
 19 18  1  0  0  0  0
 20 26  1  0  0  0  0
 21 12  1  0  0  0  0
 22 13  1  0  0  0  0
 23 16  1  0  0  0  0
 27 33  1  0  0  0  0
 28 27  1  0  0  0  0
 28 34  1  0  0  0  0
 29 28  2  0  0  0  0
 30 31  2  0  0  0  0
 30 29  1  0  0  0  0
 31 32  1  0  0  0  0
 32 27  2  0  0  0  0
 35 40  1  1  0  0  0
 35 36  1  0  0  0  0
 36 29  1  1  0  0  0
 36 37  1  0  0  0  0
 38 37  1  0  0  0  0
 39 42  1  6  0  0  0
 39 35  1  0  0  0  0
 39 38  1  0  0  0  0
 41 40  1  0  0  0  0
 42 43  1  0  0  0  0
M  END
>  <minimizedAffinity>
-7.08173227

$$$$
