
 OpenBabel03252504553D

 31 33  0  0  1  0  0  0  0  0999 V2000
   47.1190   34.6000   41.6240 N   0  0  0  0  0  0  0  0  0  0  0  0
   47.5350   34.3130   40.2840 C   0  0  0  0  0  0  0  0  0  0  0  0
   48.7450   35.2030   40.1520 C   0  0  0  0  0  0  0  0  0  0  0  0
   48.9850   35.8950   41.4390 C   0  0  0  0  0  0  0  0  0  0  0  0
   48.1440   35.0000   42.4470 C   0  0  2  0  0  0  0  0  0  0  0  0
   47.2420   33.7060   39.4620 H   0  0  0  0  0  0  0  0  0  0  0  0
   49.3740   35.2910   39.2530 H   0  0  0  0  0  0  0  0  0  0  0  0
   48.6340   36.9110   41.4490 H   0  0  0  0  0  0  0  0  0  0  0  0
   50.0360   35.7730   41.6940 H   0  0  0  0  0  0  0  0  0  0  0  0
   48.0190   35.6710   43.2870 H   0  0  0  0  0  0  0  0  0  0  0  0
   50.3240   33.7320   41.9270 C   0  0  2  0  0  3  0  0  0  0  0  0
   49.1890   33.9510   42.8240 C   0  0  2  0  0  3  0  0  0  0  0  0
   48.5970   32.7090   43.0340 O   0  0  0  0  0  0  0  0  0  0  0  0
   49.1430   31.7790   42.1770 C   0  0  0  0  0  2  0  0  0  0  0  0
   49.7790   32.5980   41.0470 C   0  0  2  0  0  3  0  0  0  0  0  0
   51.4300   33.2380   42.6650 O   0  0  0  0  0  0  0  0  0  0  0  0
   51.5990   33.7840   43.4570 H   0  0  0  0  0  0  0  0  0  0  0  0
   50.8380   31.9650   40.4540 O   0  0  0  0  0  0  0  0  0  0  0  0
   50.5510   31.1580   39.9660 H   0  0  0  0  0  0  0  0  0  0  0  0
   45.7690   34.5300   41.8920 C   0  0  0  0  0  0  0  0  0  0  0  0
   45.0720   35.0820   41.2140 H   0  0  0  0  0  0  0  0  0  0  0  0
   45.4200   33.4580   41.7280 H   0  0  0  0  0  0  0  0  0  0  0  0
   44.4160   36.0920   45.0570 C   0  0  0  0  0  0  0  0  0  0  0  0
   44.7740   35.9730   43.7120 C   0  0  0  0  0  0  0  0  0  0  0  0
   45.3780   34.8390   43.2530 C   0  0  0  0  0  0  0  0  0  0  0  0
   45.5850   33.9040   44.1760 N   0  0  0  0  0  0  0  0  0  0  0  0
   45.2480   33.9870   45.5040 C   0  0  0  0  0  0  0  0  0  0  0  0
   44.6600   35.0950   45.9330 N   0  0  0  0  0  0  0  0  0  0  0  0
   43.9430   37.0400   45.2930 H   0  0  0  0  0  0  0  0  0  0  0  0
   44.5880   36.7640   42.9920 H   0  0  0  0  0  0  0  0  0  0  0  0
   45.4760   33.1470   46.1420 H   0  0  0  0  0  0  0  0  0  0  0  0
  1 20  1  0  0  0  0
  1  5  1  0  0  0  0
  2  1  1  0  0  0  0
  3  2  2  0  0  0  0
  3  4  1  0  0  0  0
  4  8  1  0  0  0  0
  4  9  1  0  0  0  0
  4  5  1  0  0  0  0
  5 12  1  0  0  0  0
  5 10  1  1  0  0  0
  6  2  1  0  0  0  0
  7  3  1  0  0  0  0
 11 16  1  1  0  0  0
 11 12  1  0  0  0  0
 12 13  1  6  0  0  0
 14 13  1  0  0  0  0
 15 18  1  1  0  0  0
 15 11  1  0  0  0  0
 15 14  1  0  0  0  0
 16 17  1  0  0  0  0
 19 18  1  0  0  0  0
 20 25  1  0  0  0  0
 21 20  1  0  0  0  0
 22 20  1  0  0  0  0
 23 29  1  0  0  0  0
 23 28  1  0  0  0  0
 24 23  2  0  0  0  0
 25 24  1  0  0  0  0
 25 26  2  0  0  0  0
 26 27  1  0  0  0  0
 27 28  2  0  0  0  0
 27 31  1  0  0  0  0
 30 24  1  0  0  0  0
M  END
>  <minimizedAffinity>
-5.67057371

>  <minimizedRMSD>
0.990920246

$$$$
