
 OpenBabel03252507573D

 27 29  0  0  1  0  0  0  0  0999 V2000
   46.7370   32.1300   45.8210 C   0  0  1  0  0  0  0  0  0  0  0  0
   46.9370   32.0680   47.3020 C   0  0  0  0  0  0  0  0  0  0  0  0
   45.7660   31.3880   46.6830 C   0  0  2  0  0  0  0  0  0  0  0  0
   47.4180   31.5920   45.1640 H   0  0  0  0  0  0  0  0  0  0  0  0
   46.8480   33.0520   47.8130 H   0  0  0  0  0  0  0  0  0  0  0  0
   47.8090   31.4630   47.6310 H   0  0  0  0  0  0  0  0  0  0  0  0
   44.7930   31.8860   46.9550 H   0  0  0  0  0  0  0  0  0  0  0  0
   46.0650   34.8380   43.4350 C   0  0  0  0  0  0  0  0  0  0  0  0
   45.1070   35.6430   44.1040 C   0  0  0  0  0  0  0  0  0  0  0  0
   44.7070   35.2200   45.3830 C   0  0  0  0  0  0  0  0  0  0  0  0
   45.2530   34.0810   45.8970 N   0  0  0  0  0  0  0  0  0  0  0  0
   46.1690   33.3610   45.1890 C   0  0  0  0  0  0  0  0  0  0  0  0
   46.5860   33.7100   43.9770 N   0  0  0  0  0  0  0  0  0  0  0  0
   44.7040   36.5300   43.6660 H   0  0  0  0  0  0  0  0  0  0  0  0
   43.9900   35.7850   45.9350 H   0  0  0  0  0  0  0  0  0  0  0  0
   46.4390   35.3250   42.1400 C   0  0  0  0  0  0  0  0  0  0  0  0
   47.5560   35.1100   41.5730 O   0  0  0  0  0  0  0  0  0  0  0  0
   45.7660   35.9410   41.5250 H   0  0  0  0  0  0  0  0  0  0  0  0
   45.9570   29.2860   48.0730 C   0  0  2  0  0  3  0  0  0  0  0  0
   45.7330   29.9030   46.7270 C   0  0  1  0  0  3  0  0  0  0  0  0
   44.4960   29.3670   46.3800 O   0  0  0  0  0  0  0  0  0  0  0  0
   44.5620   28.0290   46.6850 C   0  0  0  0  0  2  0  0  0  0  0  0
   45.6200   27.8260   47.7440 C   0  0  2  0  0  3  0  0  0  0  0  0
   45.0370   29.7870   48.9620 O   0  0  0  0  0  0  0  0  0  0  0  0
   44.2510   29.1880   49.0500 H   0  0  0  0  0  0  0  0  0  0  0  0
   45.1400   27.2170   48.8880 O   0  0  0  0  0  0  0  0  0  0  0  0
   45.5170   26.3010   48.9000 H   0  0  0  0  0  0  0  0  0  0  0  0
  1  4  1  6  0  0  0
  1  3  1  0  0  0  0
  1  2  1  0  0  0  0
  2  6  1  0  0  0  0
  2  5  1  0  0  0  0
  3 20  1  0  0  0  0
  3  7  1  1  0  0  0
  3  2  1  0  0  0  0
  8 13  2  0  0  0  0
  8  9  1  0  0  0  0
  9 10  2  0  0  0  0
 10 11  1  0  0  0  0
 10 15  1  0  0  0  0
 12  1  1  0  0  0  0
 12 11  2  0  0  0  0
 13 12  1  0  0  0  0
 14  9  1  0  0  0  0
 16  8  1  0  0  0  0
 17 16  2  0  0  0  0
 18 16  1  0  0  0  0
 19 24  1  1  0  0  0
 20 21  1  1  0  0  0
 20 19  1  0  0  0  0
 21 22  1  0  0  0  0
 22 23  1  0  0  0  0
 23 19  1  0  0  0  0
 23 26  1  1  0  0  0
 24 25  1  0  0  0  0
 26 27  1  0  0  0  0
M  END
>  <minimizedAffinity>
-4.70315456

>  <minimizedRMSD>
2.15217543

$$$$
