
 OpenBabel03242510083D

 28 30  0  0  1  0  0  0  0  0999 V2000
   44.8640   33.1450   41.1190 Br  0  0  0  0  0  0  0  0  0  0  0  0
   46.5230   34.0950   40.9630 C   0  0  0  0  0  0  0  0  0  0  0  0
   46.9980   34.8350   42.0320 C   0  0  0  0  0  0  0  0  0  0  0  0
   48.1970   35.5270   41.9310 C   0  0  0  0  0  0  0  0  0  0  0  0
   48.8900   35.4560   40.7530 C   0  0  0  0  0  0  0  0  0  0  0  0
   48.3930   34.7140   39.7140 C   0  0  0  0  0  0  0  0  0  0  0  0
   47.2210   34.0240   39.7800 C   0  0  0  0  0  0  0  0  0  0  0  0
   48.5780   36.1050   42.7480 H   0  0  0  0  0  0  0  0  0  0  0  0
   49.8290   35.9870   40.6500 H   0  0  0  0  0  0  0  0  0  0  0  0
   48.9600   34.6750   38.7970 H   0  0  0  0  0  0  0  0  0  0  0  0
   45.7400   33.9300   45.3370 C   0  0  0  0  0  0  0  0  0  0  0  0
   44.7540   34.9130   45.5940 C   0  0  0  0  0  0  0  0  0  0  0  0
   44.5380   35.8830   44.6060 C   0  0  0  0  0  0  0  0  0  0  0  0
   45.2830   35.8200   43.4780 N   0  0  0  0  0  0  0  0  0  0  0  0
   46.2170   34.8730   43.2550 C   0  0  0  0  0  0  0  0  0  0  0  0
   46.4410   33.9240   44.2000 N   0  0  0  0  0  0  0  0  0  0  0  0
   45.8430   33.2210   46.1470 H   0  0  0  0  0  0  0  0  0  0  0  0
   44.1620   34.9640   46.4910 H   0  0  0  0  0  0  0  0  0  0  0  0
   43.8190   36.6810   44.6820 H   0  0  0  0  0  0  0  0  0  0  0  0
   47.1960   31.8050   38.6270 C   0  0  1  0  0  3  0  0  0  0  0  0
   46.6790   33.2300   38.6820 C   0  0  2  0  0  3  0  0  0  0  0  0
   46.9950   33.6660   37.4070 O   0  0  0  0  0  0  0  0  0  0  0  0
   46.3400   32.6900   36.6260 C   0  0  0  0  0  2  0  0  0  0  0  0
   46.5720   31.3740   37.3020 C   0  0  2  0  0  3  0  0  0  0  0  0
   48.5770   31.7740   38.4120 O   0  0  0  0  0  0  0  0  0  0  0  0
   48.8080   31.9680   37.4690 H   0  0  0  0  0  0  0  0  0  0  0  0
   45.3620   30.7420   37.6130 O   0  0  0  0  0  0  0  0  0  0  0  0
   44.6720   31.4130   37.7690 H   0  0  0  0  0  0  0  0  0  0  0  0
  2  1  1  0  0  0  0
  2  3  1  0  0  0  0
  3 15  1  0  0  0  0
  4  3  2  0  0  0  0
  4  8  1  0  0  0  0
  5  4  1  0  0  0  0
  6  7  1  0  0  0  0
  6  5  2  0  0  0  0
  7  2  2  0  0  0  0
  9  5  1  0  0  0  0
 10  6  1  0  0  0  0
 11 12  1  0  0  0  0
 11 17  1  0  0  0  0
 12 18  1  0  0  0  0
 13 19  1  0  0  0  0
 13 12  2  0  0  0  0
 14 13  1  0  0  0  0
 15 14  2  0  0  0  0
 15 16  1  0  0  0  0
 16 11  2  0  0  0  0
 20 25  1  6  0  0  0
 20 21  1  0  0  0  0
 21  7  1  1  0  0  0
 22 21  1  0  0  0  0
 23 24  1  0  0  0  0
 23 22  1  0  0  0  0
 24 27  1  1  0  0  0
 24 20  1  0  0  0  0
 26 25  1  0  0  0  0
 27 28  1  0  0  0  0
M  END
>  <minimizedAffinity>
-5.65238523

>  <minimizedRMSD>
0.572476685

$$$$
