
 OpenBabel03252504443D

 21 22  0  0  1  0  0  0  0  0999 V2000
   45.5260   34.7670   44.3530 C   0  0  0  0  0  0  0  0  0  0  0  0
   46.5260   34.5590   43.4050 C   0  0  0  0  0  0  0  0  0  0  0  0
   47.3360   33.4070   43.5410 C   0  0  0  0  0  0  0  0  0  0  0  0
   47.0880   32.5780   44.5890 N   0  0  0  0  0  0  0  0  0  0  0  0
   46.0930   32.8310   45.4900 C   0  0  0  0  0  0  0  0  0  0  0  0
   45.3110   33.9260   45.3710 N   0  0  0  0  0  0  0  0  0  0  0  0
   46.7210   35.2270   42.5680 H   0  0  0  0  0  0  0  0  0  0  0  0
   48.1240   33.1910   42.8420 H   0  0  0  0  0  0  0  0  0  0  0  0
   46.5430   32.3060   47.8850 C   0  0  1  0  0  0  0  0  0  0  0  0
   45.9330   31.8460   46.5780 C   0  0  2  0  0  0  0  0  0  0  0  0
   46.6360   30.6710   46.2620 O   0  0  0  0  0  0  0  0  0  0  0  0
   46.5900   29.9910   47.4790 C   0  0  0  0  0  0  0  0  0  0  0  0
   47.1610   31.0230   48.4540 C   0  0  2  0  0  0  0  0  0  0  0  0
   47.5030   33.2880   47.7140 O   0  0  0  0  0  0  0  0  0  0  0  0
   48.2080   33.0970   48.4050 H   0  0  0  0  0  0  0  0  0  0  0  0
   46.6870   30.7110   49.7070 O   0  0  0  0  0  0  0  0  0  0  0  0
   47.3080   30.9080   50.4460 H   0  0  0  0  0  0  0  0  0  0  0  0
   44.6770   36.0010   44.1840 C   0  0  0  0  0  0  0  0  0  0  0  0
   45.2560   36.8440   44.6240 H   0  0  0  0  0  0  0  0  0  0  0  0
   44.5780   36.2270   43.0970 H   0  0  0  0  0  0  0  0  0  0  0  0
   43.6650   35.8740   44.6170 H   0  0  0  0  0  0  0  0  0  0  0  0
  1  6  1  0  0  0  0
  2  3  1  0  0  0  0
  2  1  2  0  0  0  0
  3  4  2  0  0  0  0
  4  5  1  0  0  0  0
  6  5  2  0  0  0  0
  7  2  1  0  0  0  0
  8  3  1  0  0  0  0
  9 14  1  6  0  0  0
  9 13  1  0  0  0  0
 10  5  1  6  0  0  0
 10  9  1  0  0  0  0
 11 10  1  0  0  0  0
 11 12  1  0  0  0  0
 12 13  1  0  0  0  0
 13 16  1  1  0  0  0
 14 15  1  0  0  0  0
 16 17  1  0  0  0  0
 18  1  1  0  0  0  0
 18 21  1  0  0  0  0
 18 19  1  0  0  0  0
 20 18  1  0  0  0  0
M  END
>  <minimizedAffinity>
-4.95356321

>  <minimizedRMSD>
1.90400541

$$$$
