
 OpenBabel03252507033D

 47 50  0  0  1  0  0  0  0  0999 V2000
   42.3580   31.8950   41.8510 C   0  0  0  0  0  0  0  0  0  0  0  0
   41.6590   32.1500   42.6780 H   0  0  0  0  0  0  0  0  0  0  0  0
   42.5330   32.9010   41.3380 H   0  0  0  0  0  0  0  0  0  0  0  0
   41.8820   30.9430   41.0550 N   0  0  0  0  0  0  0  0  0  0  0  0
   42.0100   29.5460   41.1390 C   0  0  0  0  0  0  0  0  0  0  0  0
   40.5770   29.2140   41.6230 C   0  0  0  0  0  0  0  0  0  0  0  0
   39.5560   29.6050   40.6660 C   0  0  0  0  0  0  0  0  0  0  0  0
   39.8170   30.6760   39.7290 C   0  0  0  0  0  0  0  0  0  0  0  0
   41.0840   31.4580   39.9180 C   0  0  0  0  0  0  0  0  0  0  0  0
   42.3170   28.9660   40.2850 H   0  0  0  0  0  0  0  0  0  0  0  0
   42.6900   29.2590   41.9810 H   0  0  0  0  0  0  0  0  0  0  0  0
   40.4460   29.6590   42.6230 H   0  0  0  0  0  0  0  0  0  0  0  0
   40.6110   28.0980   41.7850 H   0  0  0  0  0  0  0  0  0  0  0  0
   38.6070   29.8640   41.2200 H   0  0  0  0  0  0  0  0  0  0  0  0
   39.2540   28.6950   40.0690 H   0  0  0  0  0  0  0  0  0  0  0  0
   39.2090   31.0000   38.9260 H   0  0  0  0  0  0  0  0  0  0  0  0
   41.4750   32.8320   38.8920 S   0  0  0  0  0  0  0  0  0  0  0  0
   42.0310   35.4180   39.3610 C   0  0  2  0  0  3  0  0  0  0  0  0
   40.9270   34.4070   39.5800 C   0  0  1  0  0  3  0  0  0  0  0  0
   39.8490   34.8670   38.8410 O   0  0  0  0  0  0  0  0  0  0  0  0
   40.4650   35.1690   37.6070 C   0  0  0  0  0  2  0  0  0  0  0  0
   41.6770   36.0100   38.0220 C   0  0  2  0  0  3  0  0  0  0  0  0
   43.2530   34.7470   39.2760 O   0  0  0  0  0  0  0  0  0  0  0  0
   43.3580   34.4650   38.3210 H   0  0  0  0  0  0  0  0  0  0  0  0
   42.6900   35.8480   37.0900 O   0  0  0  0  0  0  0  0  0  0  0  0
   42.3100   35.7640   36.1760 H   0  0  0  0  0  0  0  0  0  0  0  0
   43.6780   31.5630   42.4540 C   0  0  0  0  0  0  0  0  0  0  0  0
   44.1840   30.7700   41.8740 H   0  0  0  0  0  0  0  0  0  0  0  0
   43.5110   31.1810   43.4930 H   0  0  0  0  0  0  0  0  0  0  0  0
   44.5000   32.7840   42.4650 C   0  0  0  0  0  0  0  0  0  0  0  0
   43.9070   34.0250   42.5110 C   0  0  0  0  0  0  0  0  0  0  0  0
   44.7190   35.1480   42.5080 C   0  0  0  0  0  0  0  0  0  0  0  0
   46.0770   34.9640   42.4600 N   0  0  0  0  0  0  0  0  0  0  0  0
   46.6120   33.7490   42.4170 C   0  0  0  0  0  0  0  0  0  0  0  0
   45.8090   32.6850   42.4190 N   0  0  0  0  0  0  0  0  0  0  0  0
   42.8860   34.3640   42.5690 H   0  0  0  0  0  0  0  0  0  0  0  0
   44.4300   36.1930   42.5380 H   0  0  0  0  0  0  0  0  0  0  0  0
   48.0700   33.6490   42.3910 C   0  0  0  0  0  0  0  0  0  0  0  0
   48.6940   32.4180   42.2230 C   0  0  0  0  0  0  0  0  0  0  0  0
   50.0630   32.3210   42.2060 C   0  0  0  0  0  0  0  0  0  0  0  0
   50.7170   33.5310   42.3680 C   0  0  0  0  0  0  0  0  0  0  0  0
   50.1430   34.7890   42.5400 C   0  0  0  0  0  0  0  0  0  0  0  0
   48.7870   34.7870   42.5430 N   0  0  0  0  0  0  0  0  0  0  0  0
   48.1150   31.4960   42.1000 H   0  0  0  0  0  0  0  0  0  0  0  0
   50.6300   31.4250   42.0840 H   0  0  0  0  0  0  0  0  0  0  0  0
   51.8090   33.5230   42.3650 H   0  0  0  0  0  0  0  0  0  0  0  0
   50.7420   35.6540   42.6560 H   0  0  0  0  0  0  0  0  0  0  0  0
  1 27  1  0  0  0  0
  1  2  1  0  0  0  0
  3  1  1  0  0  0  0
  4  5  1  0  0  0  0
  4  1  1  0  0  0  0
  5  6  1  0  0  0  0
  5 11  1  0  0  0  0
  6 13  1  0  0  0  0
  6 12  1  0  0  0  0
  7 14  1  0  0  0  0
  7  6  1  0  0  0  0
  8  9  2  0  0  0  0
  8  7  1  0  0  0  0
  9  4  1  0  0  0  0
 10  5  1  0  0  0  0
 15  7  1  0  0  0  0
 16  8  1  0  0  0  0
 17  9  1  0  0  0  0
 18 23  1  6  0  0  0
 18 19  1  0  0  0  0
 19 17  1  6  0  0  0
 20 19  1  0  0  0  0
 21 22  1  0  0  0  0
 21 20  1  0  0  0  0
 22 25  1  6  0  0  0
 22 18  1  0  0  0  0
 24 23  1  0  0  0  0
 26 25  1  0  0  0  0
 27 30  1  0  0  0  0
 27 29  1  0  0  0  0
 28 27  1  0  0  0  0
 30 31  1  0  0  0  0
 31 36  1  0  0  0  0
 32 31  2  0  0  0  0
 32 37  1  0  0  0  0
 33 32  1  0  0  0  0
 34 35  1  0  0  0  0
 34 33  2  0  0  0  0
 35 30  2  0  0  0  0
 38 34  1  0  0  0  0
 38 43  1  0  0  0  0
 39 38  2  0  0  0  0
 40 39  1  0  0  0  0
 40 41  2  0  0  0  0
 41 42  1  0  0  0  0
 42 43  2  0  0  0  0
 42 47  1  0  0  0  0
 44 39  1  0  0  0  0
 45 40  1  0  0  0  0
 46 41  1  0  0  0  0
M  END
>  <minimizedAffinity>
-5.38074636

>  <minimizedRMSD>
2.63023806

$$$$
