
 OpenBabel03252507033D

 47 50  0  0  1  0  0  0  0  0999 V2000
   42.4590   31.4830   42.1650 C   0  0  0  0  0  0  0  0  0  0  0  0
   42.1760   31.4100   43.2380 H   0  0  0  0  0  0  0  0  0  0  0  0
   42.3990   32.6040   41.9550 H   0  0  0  0  0  0  0  0  0  0  0  0
   41.6910   30.7320   41.3820 N   0  0  0  0  0  0  0  0  0  0  0  0
   41.3820   29.3620   41.4620 C   0  0  0  0  0  0  0  0  0  0  0  0
   39.9310   29.4860   41.9860 C   0  0  0  0  0  0  0  0  0  0  0  0
   39.0560   30.1820   41.0580 C   0  0  0  0  0  0  0  0  0  0  0  0
   39.6100   31.1290   40.1140 C   0  0  0  0  0  0  0  0  0  0  0  0
   41.0610   31.4780   40.2680 C   0  0  0  0  0  0  0  0  0  0  0  0
   41.4720   28.7250   40.6000 H   0  0  0  0  0  0  0  0  0  0  0  0
   41.9630   28.8720   42.2850 H   0  0  0  0  0  0  0  0  0  0  0  0
   39.9700   29.9400   42.9890 H   0  0  0  0  0  0  0  0  0  0  0  0
   39.6220   28.4120   42.1470 H   0  0  0  0  0  0  0  0  0  0  0  0
   38.2480   30.7160   41.6380 H   0  0  0  0  0  0  0  0  0  0  0  0
   38.4720   29.4150   40.4700 H   0  0  0  0  0  0  0  0  0  0  0  0
   39.1110   31.6310   39.3290 H   0  0  0  0  0  0  0  0  0  0  0  0
   41.8310   32.6730   39.2320 S   0  0  0  0  0  0  0  0  0  0  0  0
   42.3530   35.2930   38.9410 C   0  0  2  0  0  3  0  0  0  0  0  0
   41.9960   34.2890   40.0180 C   0  0  1  0  0  3  0  0  0  0  0  0
   40.7570   34.6820   40.4970 O   0  0  0  0  0  0  0  0  0  0  0  0
   40.0480   34.8990   39.2960 C   0  0  0  0  0  2  0  0  0  0  0  0
   41.0040   35.7810   38.4850 C   0  0  2  0  0  3  0  0  0  0  0  0
   42.9990   34.6290   37.8970 O   0  0  0  0  0  0  0  0  0  0  0  0
   42.2800   34.2800   37.2930 H   0  0  0  0  0  0  0  0  0  0  0  0
   40.7950   35.5620   37.1320 O   0  0  0  0  0  0  0  0  0  0  0  0
   39.8310   35.4060   36.9500 H   0  0  0  0  0  0  0  0  0  0  0  0
   43.9100   31.1710   42.0530 C   0  0  0  0  0  0  0  0  0  0  0  0
   44.1570   30.8190   41.0340 H   0  0  0  0  0  0  0  0  0  0  0  0
   44.1570   30.3500   42.7720 H   0  0  0  0  0  0  0  0  0  0  0  0
   44.6700   32.3930   42.3630 C   0  0  0  0  0  0  0  0  0  0  0  0
   44.0160   33.5460   42.7320 C   0  0  0  0  0  0  0  0  0  0  0  0
   44.7700   34.6770   43.0050 C   0  0  0  0  0  0  0  0  0  0  0  0
   46.1340   34.5870   42.8930 N   0  0  0  0  0  0  0  0  0  0  0  0
   46.7280   33.4540   42.5350 C   0  0  0  0  0  0  0  0  0  0  0  0
   45.9800   32.3820   42.2770 N   0  0  0  0  0  0  0  0  0  0  0  0
   42.9810   33.8020   42.8890 H   0  0  0  0  0  0  0  0  0  0  0  0
   44.4290   35.6620   43.3050 H   0  0  0  0  0  0  0  0  0  0  0  0
   48.1880   33.4460   42.4650 C   0  0  0  0  0  0  0  0  0  0  0  0
   48.8810   32.2580   42.2610 C   0  0  0  0  0  0  0  0  0  0  0  0
   50.2530   32.2470   42.2020 C   0  0  0  0  0  0  0  0  0  0  0  0
   50.8350   33.4930   42.3620 C   0  0  0  0  0  0  0  0  0  0  0  0
   50.1900   34.7110   42.5680 C   0  0  0  0  0  0  0  0  0  0  0  0
   48.8370   34.6250   42.6110 N   0  0  0  0  0  0  0  0  0  0  0  0
   48.3570   31.3030   42.1430 H   0  0  0  0  0  0  0  0  0  0  0  0
   50.8700   31.3900   42.0510 H   0  0  0  0  0  0  0  0  0  0  0  0
   51.9250   33.5540   42.3260 H   0  0  0  0  0  0  0  0  0  0  0  0
   50.7370   35.6110   42.6780 H   0  0  0  0  0  0  0  0  0  0  0  0
  1  2  1  0  0  0  0
  3  1  1  0  0  0  0
  4  5  1  0  0  0  0
  4  1  1  0  0  0  0
  5  6  1  0  0  0  0
  5 11  1  0  0  0  0
  6 13  1  0  0  0  0
  6 12  1  0  0  0  0
  7 14  1  0  0  0  0
  7  6  1  0  0  0  0
  8  9  2  0  0  0  0
  8  7  1  0  0  0  0
  9  4  1  0  0  0  0
 10  5  1  0  0  0  0
 15  7  1  0  0  0  0
 16  8  1  0  0  0  0
 17  9  1  0  0  0  0
 18 23  1  6  0  0  0
 18 19  1  0  0  0  0
 19 17  1  6  0  0  0
 19 20  1  0  0  0  0
 21 20  1  0  0  0  0
 22 25  1  6  0  0  0
 22 18  1  0  0  0  0
 22 21  1  0  0  0  0
 24 23  1  0  0  0  0
 26 25  1  0  0  0  0
 27  1  1  0  0  0  0
 27 30  1  0  0  0  0
 27 29  1  0  0  0  0
 28 27  1  0  0  0  0
 30 31  1  0  0  0  0
 31 36  1  0  0  0  0
 31 32  2  0  0  0  0
 32 37  1  0  0  0  0
 33 32  1  0  0  0  0
 34 33  2  0  0  0  0
 35 30  2  0  0  0  0
 35 34  1  0  0  0  0
 38 34  1  0  0  0  0
 38 43  1  0  0  0  0
 39 38  2  0  0  0  0
 40 39  1  0  0  0  0
 40 41  2  0  0  0  0
 41 42  1  0  0  0  0
 42 43  2  0  0  0  0
 42 47  1  0  0  0  0
 44 39  1  0  0  0  0
 45 40  1  0  0  0  0
 46 41  1  0  0  0  0
M  END
>  <minimizedAffinity>
-5.19823456

>  <minimizedRMSD>
2.74847841

$$$$
