
 OpenBabel03242514003D

 41 45  0  0  1  0  0  0  0  0999 V2000
   38.5200   27.4900   40.9470 C   0  0  0  0  0  0  0  0  0  0  0  0
   37.8920   27.0140   42.0910 C   0  0  0  0  0  0  0  0  0  0  0  0
   37.2730   27.9640   42.9240 C   0  0  0  0  0  0  0  0  0  0  0  0
   37.3250   29.2520   42.5710 N   0  0  0  0  0  0  0  0  0  0  0  0
   37.9380   29.6920   41.4600 C   0  0  0  0  0  0  0  0  0  0  0  0
   38.5400   28.7810   40.6470 N   0  0  0  0  0  0  0  0  0  0  0  0
   39.0000   26.7450   40.3040 H   0  0  0  0  0  0  0  0  0  0  0  0
   36.7700   27.6730   43.8220 H   0  0  0  0  0  0  0  0  0  0  0  0
   38.0170   31.0790   41.0410 C   0  0  0  0  0  0  0  0  0  0  0  0
   37.1370   31.6030   40.0840 C   0  0  0  0  0  0  0  0  0  0  0  0
   37.4830   32.9440   39.9170 C   0  0  0  0  0  0  0  0  0  0  0  0
   38.5210   33.1980   40.7390 N   0  0  0  0  0  0  0  0  0  0  0  0
   38.8100   32.0710   41.3880 N   0  0  0  0  0  0  0  0  0  0  0  0
   36.3290   31.0860   39.5560 H   0  0  0  0  0  0  0  0  0  0  0  0
   36.9980   33.6490   39.2410 H   0  0  0  0  0  0  0  0  0  0  0  0
   40.6210   34.3340   40.3500 C   0  0  1  0  0  3  0  0  0  0  0  0
   39.2040   34.4690   40.8890 C   0  0  1  0  0  3  0  0  0  0  0  0
   38.6790   35.4310   40.0320 O   0  0  0  0  0  0  0  0  0  0  0  0
   39.6520   36.4060   39.8830 C   0  0  0  0  0  2  0  0  0  0  0  0
   41.0000   35.7440   40.0380 C   0  0  1  0  0  3  0  0  0  0  0  0
   41.4570   33.6760   41.2200 O   0  0  0  0  0  0  0  0  0  0  0  0
   42.1660   33.2360   40.6780 H   0  0  0  0  0  0  0  0  0  0  0  0
   41.7610   36.2380   41.0690 O   0  0  0  0  0  0  0  0  0  0  0  0
   41.2320   36.5030   41.8400 H   0  0  0  0  0  0  0  0  0  0  0  0
   37.8330   25.6830   42.4650 O   0  0  0  0  0  0  0  0  0  0  0  0
   37.7250   24.6150   41.5810 C   0  0  0  0  0  0  0  0  0  0  0  0
   38.7170   23.7380   41.2260 C   0  0  0  0  0  0  0  0  0  0  0  0
   38.4560   22.7250   40.3330 C   0  0  0  0  0  0  0  0  0  0  0  0
   37.2090   22.5430   39.7640 C   0  0  0  0  0  0  0  0  0  0  0  0
   37.0090   21.5440   38.9030 N   0  0  0  0  0  0  0  0  0  0  0  0
   35.8150   21.3370   38.3330 C   0  0  0  0  0  0  0  0  0  0  0  0
   34.7970   22.1960   38.6660 C   0  0  0  0  0  0  0  0  0  0  0  0
   34.9850   23.2510   39.5660 C   0  0  0  0  0  0  0  0  0  0  0  0
   36.2220   23.4330   40.1320 C   0  0  0  0  0  0  0  0  0  0  0  0
   36.4590   24.4710   41.0350 C   0  0  0  0  0  0  0  0  0  0  0  0
   39.6830   23.9020   41.6840 H   0  0  0  0  0  0  0  0  0  0  0  0
   39.2890   22.0800   40.1060 H   0  0  0  0  0  0  0  0  0  0  0  0
   35.7500   20.5100   37.6550 H   0  0  0  0  0  0  0  0  0  0  0  0
   33.8400   22.0450   38.2210 H   0  0  0  0  0  0  0  0  0  0  0  0
   34.1550   23.9140   39.8090 H   0  0  0  0  0  0  0  0  0  0  0  0
   35.6240   25.1140   41.2600 H   0  0  0  0  0  0  0  0  0  0  0  0
  1  2  1  0  0  0  0
  2 25  1  0  0  0  0
  2  3  2  0  0  0  0
  3  8  1  0  0  0  0
  4  3  1  0  0  0  0
  5  4  2  0  0  0  0
  6  1  2  0  0  0  0
  6  5  1  0  0  0  0
  7  1  1  0  0  0  0
  9 13  2  0  0  0  0
  9  5  1  0  0  0  0
 10  9  1  0  0  0  0
 11 10  2  0  0  0  0
 11 12  1  0  0  0  0
 12 13  1  0  0  0  0
 14 10  1  0  0  0  0
 15 11  1  0  0  0  0
 16 17  1  0  0  0  0
 16 21  1  1  0  0  0
 17 12  1  6  0  0  0
 18 17  1  0  0  0  0
 19 18  1  0  0  0  0
 19 20  1  0  0  0  0
 20 16  1  0  0  0  0
 20 23  1  1  0  0  0
 22 21  1  0  0  0  0
 23 24  1  0  0  0  0
 26 25  1  0  0  0  0
 27 26  1  0  0  0  0
 27 36  1  0  0  0  0
 28 27  2  0  0  0  0
 29 34  1  0  0  0  0
 29 28  1  0  0  0  0
 30 29  2  0  0  0  0
 31 32  2  0  0  0  0
 31 30  1  0  0  0  0
 32 33  1  0  0  0  0
 33 40  1  0  0  0  0
 33 34  2  0  0  0  0
 34 35  1  0  0  0  0
 35 41  1  0  0  0  0
 35 26  2  0  0  0  0
 37 28  1  0  0  0  0
 38 31  1  0  0  0  0
 39 32  1  0  0  0  0
M  END
>  <minimizedAffinity>
-7.23658276

$$$$

 OpenBabel03242514003D

 41 45  0  0  1  0  0  0  0  0999 V2000
   38.5360   29.6120   42.1450 C   0  0  0  0  0  0  0  0  0  0  0  0
   37.1970   29.4870   41.7950 C   0  0  0  0  0  0  0  0  0  0  0  0
   36.6230   30.5460   41.0690 C   0  0  0  0  0  0  0  0  0  0  0  0
   37.3900   31.5980   40.7630 N   0  0  0  0  0  0  0  0  0  0  0  0
   38.6830   31.7000   41.1110 C   0  0  0  0  0  0  0  0  0  0  0  0
   39.2480   30.6800   41.8130 N   0  0  0  0  0  0  0  0  0  0  0  0
   38.9760   28.7840   42.7100 H   0  0  0  0  0  0  0  0  0  0  0  0
   35.5990   30.5220   40.7650 H   0  0  0  0  0  0  0  0  0  0  0  0
   39.5480   32.8220   40.7980 C   0  0  0  0  0  0  0  0  0  0  0  0
   39.0250   34.0470   40.3610 C   0  0  0  0  0  0  0  0  0  0  0  0
   40.1140   34.8930   40.1540 C   0  0  0  0  0  0  0  0  0  0  0  0
   41.2290   34.1970   40.4550 N   0  0  0  0  0  0  0  0  0  0  0  0
   40.8560   32.9760   40.8320 N   0  0  0  0  0  0  0  0  0  0  0  0
   37.9750   34.3140   40.2050 H   0  0  0  0  0  0  0  0  0  0  0  0
   40.0640   35.9260   39.8090 H   0  0  0  0  0  0  0  0  0  0  0  0
   43.2820   34.4270   41.7130 C   0  0  1  0  0  3  0  0  0  0  0  0
   42.5920   34.6890   40.3800 C   0  0  1  0  0  3  0  0  0  0  0  0
   43.3640   33.9150   39.5200 O   0  0  0  0  0  0  0  0  0  0  0  0
   44.6880   34.1250   39.8720 C   0  0  0  0  0  2  0  0  0  0  0  0
   44.7300   34.4340   41.3500 C   0  0  1  0  0  3  0  0  0  0  0  0
   42.9120   35.3250   42.6850 O   0  0  0  0  0  0  0  0  0  0  0  0
   43.0080   34.8700   43.5640 H   0  0  0  0  0  0  0  0  0  0  0  0
   45.2600   35.6630   41.6590 O   0  0  0  0  0  0  0  0  0  0  0  0
   45.0460   36.3460   41.0020 H   0  0  0  0  0  0  0  0  0  0  0  0
   36.3970   28.4020   42.1080 O   0  0  0  0  0  0  0  0  0  0  0  0
   36.6720   27.0860   41.7580 C   0  0  0  0  0  0  0  0  0  0  0  0
   36.9430   26.0470   42.6100 C   0  0  0  0  0  0  0  0  0  0  0  0
   37.1970   24.7910   42.1100 C   0  0  0  0  0  0  0  0  0  0  0  0
   37.1930   24.5200   40.7540 C   0  0  0  0  0  0  0  0  0  0  0  0
   37.4460   23.2840   40.3210 N   0  0  0  0  0  0  0  0  0  0  0  0
   37.4500   22.9840   39.0150 C   0  0  0  0  0  0  0  0  0  0  0  0
   37.1820   24.0000   38.1320 C   0  0  0  0  0  0  0  0  0  0  0  0
   36.9140   25.3040   38.5640 C   0  0  0  0  0  0  0  0  0  0  0  0
   36.9180   25.5750   39.9100 C   0  0  0  0  0  0  0  0  0  0  0  0
   36.6570   26.8590   40.3890 C   0  0  0  0  0  0  0  0  0  0  0  0
   36.9410   26.2850   43.6650 H   0  0  0  0  0  0  0  0  0  0  0  0
   37.4010   24.0310   42.8460 H   0  0  0  0  0  0  0  0  0  0  0  0
   37.6630   21.9650   38.7640 H   0  0  0  0  0  0  0  0  0  0  0  0
   37.1810   23.7780   37.0890 H   0  0  0  0  0  0  0  0  0  0  0  0
   36.7050   26.0870   37.8360 H   0  0  0  0  0  0  0  0  0  0  0  0
   36.4530   27.6180   39.6510 H   0  0  0  0  0  0  0  0  0  0  0  0
  1  7  1  0  0  0  0
  2 25  1  0  0  0  0
  2  1  2  0  0  0  0
  3  2  1  0  0  0  0
  4  3  2  0  0  0  0
  4  5  1  0  0  0  0
  5  6  2  0  0  0  0
  6  1  1  0  0  0  0
  8  3  1  0  0  0  0
  9 13  2  0  0  0  0
  9  5  1  0  0  0  0
 10  9  1  0  0  0  0
 11 10  2  0  0  0  0
 11 12  1  0  0  0  0
 12 13  1  0  0  0  0
 14 10  1  0  0  0  0
 15 11  1  0  0  0  0
 16 21  1  1  0  0  0
 17 12  1  1  0  0  0
 17 16  1  0  0  0  0
 18 19  1  0  0  0  0
 18 17  1  0  0  0  0
 19 20  1  0  0  0  0
 20 23  1  6  0  0  0
 20 16  1  0  0  0  0
 21 22  1  0  0  0  0
 24 23  1  0  0  0  0
 26 25  1  0  0  0  0
 26 27  1  0  0  0  0
 27 36  1  0  0  0  0
 28 27  2  0  0  0  0
 28 37  1  0  0  0  0
 29 28  1  0  0  0  0
 30 29  1  0  0  0  0
 31 30  2  0  0  0  0
 32 33  2  0  0  0  0
 32 31  1  0  0  0  0
 33 34  1  0  0  0  0
 34 35  1  0  0  0  0
 34 29  2  0  0  0  0
 35 26  2  0  0  0  0
 38 31  1  0  0  0  0
 39 32  1  0  0  0  0
 40 33  1  0  0  0  0
 41 35  1  0  0  0  0
M  END
>  <minimizedAffinity>
-6.93442965

$$$$

 OpenBabel03242514003D

 41 45  0  0  1  0  0  0  0  0999 V2000
   39.1040   27.6760   41.4340 C   0  0  0  0  0  0  0  0  0  0  0  0
   37.9460   26.9610   41.7170 C   0  0  0  0  0  0  0  0  0  0  0  0
   36.7340   27.6740   41.6970 C   0  0  0  0  0  0  0  0  0  0  0  0
   36.7660   28.9800   41.4100 N   0  0  0  0  0  0  0  0  0  0  0  0
   37.8970   29.6520   41.1400 C   0  0  0  0  0  0  0  0  0  0  0  0
   39.0750   28.9710   41.1560 N   0  0  0  0  0  0  0  0  0  0  0  0
   40.0440   27.1140   41.4520 H   0  0  0  0  0  0  0  0  0  0  0  0
   35.8020   27.1930   41.9050 H   0  0  0  0  0  0  0  0  0  0  0  0
   37.9750   31.0660   40.8240 C   0  0  0  0  0  0  0  0  0  0  0  0
   37.0550   31.6710   39.9570 C   0  0  0  0  0  0  0  0  0  0  0  0
   37.4130   33.0170   39.8740 C   0  0  0  0  0  0  0  0  0  0  0  0
   38.4960   33.1950   40.6570 N   0  0  0  0  0  0  0  0  0  0  0  0
   38.8010   32.0190   41.2030 N   0  0  0  0  0  0  0  0  0  0  0  0
   36.2130   31.2050   39.4350 H   0  0  0  0  0  0  0  0  0  0  0  0
   36.9040   33.7780   39.2810 H   0  0  0  0  0  0  0  0  0  0  0  0
   40.6240   34.2990   40.3350 C   0  0  1  0  0  3  0  0  0  0  0  0
   39.2050   34.4440   40.8680 C   0  0  1  0  0  3  0  0  0  0  0  0
   38.7090   35.4520   40.0480 O   0  0  0  0  0  0  0  0  0  0  0  0
   39.7050   36.4110   39.9480 C   0  0  0  0  0  2  0  0  0  0  0  0
   41.0370   35.7120   40.0860 C   0  0  1  0  0  3  0  0  0  0  0  0
   41.4370   33.5860   41.1830 O   0  0  0  0  0  0  0  0  0  0  0  0
   42.1410   33.1540   40.6280 H   0  0  0  0  0  0  0  0  0  0  0  0
   41.7990   36.1450   41.1430 O   0  0  0  0  0  0  0  0  0  0  0  0
   41.2690   36.3890   41.9200 H   0  0  0  0  0  0  0  0  0  0  0  0
   37.9040   25.6110   42.0150 O   0  0  0  0  0  0  0  0  0  0  0  0
   37.5680   24.6090   41.1120 C   0  0  0  0  0  0  0  0  0  0  0  0
   36.3140   24.1150   40.8600 C   0  0  0  0  0  0  0  0  0  0  0  0
   36.1390   23.1160   39.9310 C   0  0  0  0  0  0  0  0  0  0  0  0
   37.1940   22.5740   39.2200 C   0  0  0  0  0  0  0  0  0  0  0  0
   36.9690   21.6070   38.3290 N   0  0  0  0  0  0  0  0  0  0  0  0
   37.9660   21.0590   37.6220 C   0  0  0  0  0  0  0  0  0  0  0  0
   39.2350   21.5300   37.8470 C   0  0  0  0  0  0  0  0  0  0  0  0
   39.4930   22.5440   38.7760 C   0  0  0  0  0  0  0  0  0  0  0  0
   38.4480   23.0830   39.4840 C   0  0  0  0  0  0  0  0  0  0  0  0
   38.6550   24.0950   40.4210 C   0  0  0  0  0  0  0  0  0  0  0  0
   35.5070   24.5550   41.4300 H   0  0  0  0  0  0  0  0  0  0  0  0
   35.1240   22.7830   39.7940 H   0  0  0  0  0  0  0  0  0  0  0  0
   37.6890   20.2890   36.9300 H   0  0  0  0  0  0  0  0  0  0  0  0
   40.0400   21.1040   37.2910 H   0  0  0  0  0  0  0  0  0  0  0  0
   40.5130   22.8950   38.9300 H   0  0  0  0  0  0  0  0  0  0  0  0
   39.6720   24.4270   40.5570 H   0  0  0  0  0  0  0  0  0  0  0  0
  1  7  1  0  0  0  0
  1  2  1  0  0  0  0
  2 25  1  0  0  0  0
  3  2  2  0  0  0  0
  3  8  1  0  0  0  0
  4  3  1  0  0  0  0
  5  6  1  0  0  0  0
  5  4  2  0  0  0  0
  6  1  2  0  0  0  0
  9  5  1  0  0  0  0
  9 13  2  0  0  0  0
 10  9  1  0  0  0  0
 11 10  2  0  0  0  0
 11 12  1  0  0  0  0
 12 13  1  0  0  0  0
 14 10  1  0  0  0  0
 15 11  1  0  0  0  0
 16 17  1  0  0  0  0
 16 21  1  1  0  0  0
 17 12  1  6  0  0  0
 18 17  1  0  0  0  0
 19 18  1  0  0  0  0
 19 20  1  0  0  0  0
 20 16  1  0  0  0  0
 20 23  1  1  0  0  0
 22 21  1  0  0  0  0
 23 24  1  0  0  0  0
 26 25  1  0  0  0  0
 27 26  1  0  0  0  0
 27 36  1  0  0  0  0
 28 27  2  0  0  0  0
 29 34  1  0  0  0  0
 29 28  1  0  0  0  0
 30 29  2  0  0  0  0
 31 32  2  0  0  0  0
 31 30  1  0  0  0  0
 32 33  1  0  0  0  0
 33 40  1  0  0  0  0
 33 34  2  0  0  0  0
 34 35  1  0  0  0  0
 35 41  1  0  0  0  0
 35 26  2  0  0  0  0
 37 28  1  0  0  0  0
 38 31  1  0  0  0  0
 39 32  1  0  0  0  0
M  END
>  <minimizedAffinity>
-6.65569592

$$$$

 OpenBabel03242514003D

 41 45  0  0  1  0  0  0  0  0999 V2000
   36.9770   32.1560   40.1130 C   0  0  0  0  0  0  0  0  0  0  0  0
   37.1510   31.1340   39.1870 C   0  0  0  0  0  0  0  0  0  0  0  0
   38.4080   31.0420   38.5630 C   0  0  0  0  0  0  0  0  0  0  0  0
   39.3500   31.9320   38.8940 N   0  0  0  0  0  0  0  0  0  0  0  0
   39.1610   32.9130   39.7910 C   0  0  0  0  0  0  0  0  0  0  0  0
   37.9480   33.0100   40.4000 N   0  0  0  0  0  0  0  0  0  0  0  0
   35.9950   32.2210   40.5930 H   0  0  0  0  0  0  0  0  0  0  0  0
   38.6160   30.2830   37.8400 H   0  0  0  0  0  0  0  0  0  0  0  0
   40.1560   33.8960   40.1770 C   0  0  0  0  0  0  0  0  0  0  0  0
   39.8260   35.2510   40.3200 C   0  0  0  0  0  0  0  0  0  0  0  0
   40.9980   35.9090   40.6950 C   0  0  0  0  0  0  0  0  0  0  0  0
   41.9750   34.9820   40.7680 N   0  0  0  0  0  0  0  0  0  0  0  0
   41.4400   33.8030   40.4550 N   0  0  0  0  0  0  0  0  0  0  0  0
   38.8510   35.7270   40.1740 H   0  0  0  0  0  0  0  0  0  0  0  0
   41.0960   36.9770   40.8890 H   0  0  0  0  0  0  0  0  0  0  0  0
   43.5400   34.9570   42.6120 C   0  0  1  0  0  3  0  0  0  0  0  0
   43.3600   35.2240   41.1230 C   0  0  1  0  0  3  0  0  0  0  0  0
   44.2010   34.2620   40.5720 O   0  0  0  0  0  0  0  0  0  0  0  0
   45.3640   34.2700   41.3250 C   0  0  0  0  0  2  0  0  0  0  0  0
   45.0030   34.6860   42.7310 C   0  0  1  0  0  3  0  0  0  0  0  0
   43.0630   35.9810   43.3940 O   0  0  0  0  0  0  0  0  0  0  0  0
   42.7940   35.5880   44.2680 H   0  0  0  0  0  0  0  0  0  0  0  0
   45.6320   35.8260   43.1670 O   0  0  0  0  0  0  0  0  0  0  0  0
   45.7660   36.4800   42.4610 H   0  0  0  0  0  0  0  0  0  0  0  0
   36.1810   30.2100   38.8400 O   0  0  0  0  0  0  0  0  0  0  0  0
   36.2820   28.8390   39.0460 C   0  0  0  0  0  0  0  0  0  0  0  0
   36.1210   27.8510   38.1100 C   0  0  0  0  0  0  0  0  0  0  0  0
   36.2520   26.5300   38.4680 C   0  0  0  0  0  0  0  0  0  0  0  0
   36.5480   26.1410   39.7620 C   0  0  0  0  0  0  0  0  0  0  0  0
   36.6640   24.8450   40.0570 N   0  0  0  0  0  0  0  0  0  0  0  0
   36.9510   24.4310   41.2990 C   0  0  0  0  0  0  0  0  0  0  0  0
   37.1200   25.3930   42.2630 C   0  0  0  0  0  0  0  0  0  0  0  0
   37.0020   26.7570   41.9760 C   0  0  0  0  0  0  0  0  0  0  0  0
   36.7080   27.1460   40.6930 C   0  0  0  0  0  0  0  0  0  0  0  0
   36.5800   28.4940   40.3560 C   0  0  0  0  0  0  0  0  0  0  0  0
   35.8890   28.1820   37.1060 H   0  0  0  0  0  0  0  0  0  0  0  0
   36.1090   25.8170   37.6730 H   0  0  0  0  0  0  0  0  0  0  0  0
   37.0250   23.3720   41.4390 H   0  0  0  0  0  0  0  0  0  0  0  0
   37.3480   25.0790   43.2570 H   0  0  0  0  0  0  0  0  0  0  0  0
   37.1420   27.4940   42.7650 H   0  0  0  0  0  0  0  0  0  0  0  0
   36.7230   29.2050   41.1540 H   0  0  0  0  0  0  0  0  0  0  0  0
  1  6  1  0  0  0  0
  1  7  1  0  0  0  0
  2  1  2  0  0  0  0
  3  4  2  0  0  0  0
  3  2  1  0  0  0  0
  4  5  1  0  0  0  0
  5  9  1  0  0  0  0
  5  6  2  0  0  0  0
  8  3  1  0  0  0  0
  9 10  1  0  0  0  0
  9 13  2  0  0  0  0
 10 11  2  0  0  0  0
 11 12  1  0  0  0  0
 11 15  1  0  0  0  0
 13 12  1  0  0  0  0
 14 10  1  0  0  0  0
 16 20  1  0  0  0  0
 16 21  1  1  0  0  0
 17 12  1  6  0  0  0
 17 16  1  0  0  0  0
 18 17  1  0  0  0  0
 18 19  1  0  0  0  0
 19 20  1  0  0  0  0
 20 23  1  6  0  0  0
 21 22  1  0  0  0  0
 24 23  1  0  0  0  0
 25 26  1  0  0  0  0
 25  2  1  0  0  0  0
 26 35  1  0  0  0  0
 27 28  1  0  0  0  0
 27 26  2  0  0  0  0
 28 29  2  0  0  0  0
 29 30  1  0  0  0  0
 29 34  1  0  0  0  0
 30 31  2  0  0  0  0
 31 38  1  0  0  0  0
 31 32  1  0  0  0  0
 32 39  1  0  0  0  0
 33 32  2  0  0  0  0
 33 40  1  0  0  0  0
 34 33  1  0  0  0  0
 35 34  2  0  0  0  0
 35 41  1  0  0  0  0
 36 27  1  0  0  0  0
 37 28  1  0  0  0  0
M  END
>  <minimizedAffinity>
-6.6506114

$$$$

 OpenBabel03242514003D

 41 45  0  0  1  0  0  0  0  0999 V2000
   40.4370   32.3920   39.3210 C   0  0  0  0  0  0  0  0  0  0  0  0
   40.2820   33.7100   39.7350 C   0  0  0  0  0  0  0  0  0  0  0  0
   39.0110   34.0890   40.2020 C   0  0  0  0  0  0  0  0  0  0  0  0
   38.0380   33.1720   40.2190 N   0  0  0  0  0  0  0  0  0  0  0  0
   38.2080   31.9020   39.8140 C   0  0  0  0  0  0  0  0  0  0  0  0
   39.4350   31.5260   39.3610 N   0  0  0  0  0  0  0  0  0  0  0  0
   41.4290   32.1050   38.9580 H   0  0  0  0  0  0  0  0  0  0  0  0
   38.8150   35.0860   40.5360 H   0  0  0  0  0  0  0  0  0  0  0  0
   37.1810   30.8780   39.8190 C   0  0  0  0  0  0  0  0  0  0  0  0
   36.2570   30.7760   40.8670 C   0  0  0  0  0  0  0  0  0  0  0  0
   35.4230   29.7010   40.5590 C   0  0  0  0  0  0  0  0  0  0  0  0
   35.8390   29.1920   39.3820 N   0  0  0  0  0  0  0  0  0  0  0  0
   36.8810   29.9140   38.9730 N   0  0  0  0  0  0  0  0  0  0  0  0
   36.1800   31.4020   41.7620 H   0  0  0  0  0  0  0  0  0  0  0  0
   34.5910   29.3430   41.1670 H   0  0  0  0  0  0  0  0  0  0  0  0
   34.2200   28.5740   37.6940 C   0  0  1  0  0  3  0  0  0  0  0  0
   35.2570   28.0610   38.6840 C   0  0  1  0  0  3  0  0  0  0  0  0
   36.1770   27.4650   37.8270 O   0  0  0  0  0  0  0  0  0  0  0  0
   35.4470   26.7590   36.8850 C   0  0  0  0  0  2  0  0  0  0  0  0
   34.1250   27.4650   36.6990 C   0  0  1  0  0  3  0  0  0  0  0  0
   33.0390   28.9280   38.3010 O   0  0  0  0  0  0  0  0  0  0  0  0
   32.6140   29.6310   37.7400 H   0  0  0  0  0  0  0  0  0  0  0  0
   33.0240   26.6990   36.9930 O   0  0  0  0  0  0  0  0  0  0  0  0
   33.1750   26.0840   37.7310 H   0  0  0  0  0  0  0  0  0  0  0  0
   41.2830   34.6660   39.7190 O   0  0  0  0  0  0  0  0  0  0  0  0
   42.0260   35.0540   40.8280 C   0  0  0  0  0  0  0  0  0  0  0  0
   41.8150   36.1550   41.6160 C   0  0  0  0  0  0  0  0  0  0  0  0
   42.6410   36.4090   42.6860 C   0  0  0  0  0  0  0  0  0  0  0  0
   43.7020   35.5840   43.0130 C   0  0  0  0  0  0  0  0  0  0  0  0
   44.4730   35.8750   44.0610 N   0  0  0  0  0  0  0  0  0  0  0  0
   45.5090   35.0990   44.4080 C   0  0  0  0  0  0  0  0  0  0  0  0
   45.7510   33.9870   43.6410 C   0  0  0  0  0  0  0  0  0  0  0  0
   44.9540   33.6630   42.5360 C   0  0  0  0  0  0  0  0  0  0  0  0
   43.9010   34.4800   42.2100 C   0  0  0  0  0  0  0  0  0  0  0  0
   43.0790   34.1990   41.1190 C   0  0  0  0  0  0  0  0  0  0  0  0
   40.9790   36.7840   41.3390 H   0  0  0  0  0  0  0  0  0  0  0  0
   42.4070   37.2940   43.2540 H   0  0  0  0  0  0  0  0  0  0  0  0
   46.0700   35.4130   45.2640 H   0  0  0  0  0  0  0  0  0  0  0  0
   46.5720   33.3590   43.9040 H   0  0  0  0  0  0  0  0  0  0  0  0
   45.1740   32.7720   41.9490 H   0  0  0  0  0  0  0  0  0  0  0  0
   43.3150   33.3120   40.5530 H   0  0  0  0  0  0  0  0  0  0  0  0
  1  6  2  0  0  0  0
  1  2  1  0  0  0  0
  2  3  2  0  0  0  0
  3  4  1  0  0  0  0
  3  8  1  0  0  0  0
  5  9  1  0  0  0  0
  5  4  2  0  0  0  0
  6  5  1  0  0  0  0
  7  1  1  0  0  0  0
  9 10  1  0  0  0  0
 10 14  1  0  0  0  0
 11 10  2  0  0  0  0
 11 15  1  0  0  0  0
 12 11  1  0  0  0  0
 13 12  1  0  0  0  0
 13  9  2  0  0  0  0
 16 21  1  1  0  0  0
 16 17  1  0  0  0  0
 17 12  1  6  0  0  0
 18 17  1  0  0  0  0
 19 18  1  0  0  0  0
 20 19  1  0  0  0  0
 20 23  1  1  0  0  0
 20 16  1  0  0  0  0
 22 21  1  0  0  0  0
 23 24  1  0  0  0  0
 25  2  1  0  0  0  0
 25 26  1  0  0  0  0
 26 35  2  0  0  0  0
 26 27  1  0  0  0  0
 27 28  2  0  0  0  0
 28 29  1  0  0  0  0
 28 37  1  0  0  0  0
 29 30  1  0  0  0  0
 30 31  2  0  0  0  0
 31 38  1  0  0  0  0
 32 39  1  0  0  0  0
 32 31  1  0  0  0  0
 33 32  2  0  0  0  0
 34 33  1  0  0  0  0
 34 29  2  0  0  0  0
 35 34  1  0  0  0  0
 36 27  1  0  0  0  0
 40 33  1  0  0  0  0
 41 35  1  0  0  0  0
M  END
>  <minimizedAffinity>
-6.56195879

$$$$

 OpenBabel03242514003D

 41 45  0  0  1  0  0  0  0  0999 V2000
   39.6580   32.0560   38.6380 C   0  0  0  0  0  0  0  0  0  0  0  0
   39.7690   33.0940   39.5560 C   0  0  0  0  0  0  0  0  0  0  0  0
   38.7130   33.2560   40.4710 C   0  0  0  0  0  0  0  0  0  0  0  0
   37.6780   32.4120   40.4050 N   0  0  0  0  0  0  0  0  0  0  0  0
   37.5890   31.4150   39.5090 C   0  0  0  0  0  0  0  0  0  0  0  0
   38.6060   31.2510   38.6200 N   0  0  0  0  0  0  0  0  0  0  0  0
   40.4830   31.9370   37.9290 H   0  0  0  0  0  0  0  0  0  0  0  0
   38.7280   34.0320   41.2060 H   0  0  0  0  0  0  0  0  0  0  0  0
   36.4850   30.4800   39.4050 C   0  0  0  0  0  0  0  0  0  0  0  0
   35.7310   30.1140   40.5280 C   0  0  0  0  0  0  0  0  0  0  0  0
   34.7640   29.2130   40.0820 C   0  0  0  0  0  0  0  0  0  0  0  0
   34.9420   29.0550   38.7540 N   0  0  0  0  0  0  0  0  0  0  0  0
   35.9690   29.8200   38.3890 N   0  0  0  0  0  0  0  0  0  0  0  0
   35.8540   30.4520   41.5630 H   0  0  0  0  0  0  0  0  0  0  0  0
   34.0080   28.7290   40.7010 H   0  0  0  0  0  0  0  0  0  0  0  0
   33.0260   29.0300   37.2780 C   0  0  1  0  0  3  0  0  0  0  0  0
   34.1560   28.2050   37.8800 C   0  0  1  0  0  3  0  0  0  0  0  0
   34.8700   27.8530   36.7390 O   0  0  0  0  0  0  0  0  0  0  0  0
   33.9380   27.4860   35.7820 C   0  0  0  0  0  2  0  0  0  0  0  0
   32.6730   28.2690   36.0430 C   0  0  1  0  0  3  0  0  0  0  0  0
   31.9940   29.2350   38.1610 O   0  0  0  0  0  0  0  0  0  0  0  0
   31.5500   30.0900   37.9080 H   0  0  0  0  0  0  0  0  0  0  0  0
   31.5680   27.4950   36.2990 O   0  0  0  0  0  0  0  0  0  0  0  0
   31.7780   26.6840   36.7930 H   0  0  0  0  0  0  0  0  0  0  0  0
   40.8370   33.9710   39.6300 O   0  0  0  0  0  0  0  0  0  0  0  0
   41.8560   33.9030   40.5730 C   0  0  0  0  0  0  0  0  0  0  0  0
   42.5820   32.7930   40.9200 C   0  0  0  0  0  0  0  0  0  0  0  0
   43.5660   32.8820   41.8770 C   0  0  0  0  0  0  0  0  0  0  0  0
   43.8640   34.0690   42.5230 C   0  0  0  0  0  0  0  0  0  0  0  0
   44.8280   34.1010   43.4450 N   0  0  0  0  0  0  0  0  0  0  0  0
   45.1450   35.2320   44.0900 C   0  0  0  0  0  0  0  0  0  0  0  0
   44.4380   36.3630   43.7670 C   0  0  0  0  0  0  0  0  0  0  0  0
   43.4220   36.3520   42.8040 C   0  0  0  0  0  0  0  0  0  0  0  0
   43.1250   35.1760   42.1630 C   0  0  0  0  0  0  0  0  0  0  0  0
   42.1210   35.1140   41.1950 C   0  0  0  0  0  0  0  0  0  0  0  0
   42.3290   31.8780   40.4010 H   0  0  0  0  0  0  0  0  0  0  0  0
   44.0890   31.9660   42.0920 H   0  0  0  0  0  0  0  0  0  0  0  0
   45.9320   35.1600   44.8120 H   0  0  0  0  0  0  0  0  0  0  0  0
   44.6780   37.2720   44.2720 H   0  0  0  0  0  0  0  0  0  0  0  0
   42.8810   37.2680   42.5730 H   0  0  0  0  0  0  0  0  0  0  0  0
   41.5990   36.0330   40.9820 H   0  0  0  0  0  0  0  0  0  0  0  0
  1  2  1  0  0  0  0
  2 25  1  0  0  0  0
  2  3  2  0  0  0  0
  3  8  1  0  0  0  0
  4  3  1  0  0  0  0
  5  4  2  0  0  0  0
  6  1  2  0  0  0  0
  6  5  1  0  0  0  0
  7  1  1  0  0  0  0
  9  5  1  0  0  0  0
  9 10  1  0  0  0  0
 10 14  1  0  0  0  0
 11 10  2  0  0  0  0
 11 15  1  0  0  0  0
 12 11  1  0  0  0  0
 13 12  1  0  0  0  0
 13  9  2  0  0  0  0
 16 17  1  0  0  0  0
 16 21  1  1  0  0  0
 17 12  1  1  0  0  0
 18 17  1  0  0  0  0
 19 20  1  0  0  0  0
 19 18  1  0  0  0  0
 20 23  1  1  0  0  0
 20 16  1  0  0  0  0
 22 21  1  0  0  0  0
 23 24  1  0  0  0  0
 25 26  1  0  0  0  0
 26 27  2  0  0  0  0
 26 35  1  0  0  0  0
 27 28  1  0  0  0  0
 28 37  1  0  0  0  0
 28 29  2  0  0  0  0
 29 30  1  0  0  0  0
 30 31  2  0  0  0  0
 31 38  1  0  0  0  0
 32 31  1  0  0  0  0
 32 39  1  0  0  0  0
 33 32  2  0  0  0  0
 34 29  1  0  0  0  0
 34 33  1  0  0  0  0
 35 34  2  0  0  0  0
 36 27  1  0  0  0  0
 40 33  1  0  0  0  0
 41 35  1  0  0  0  0
M  END
>  <minimizedAffinity>
-6.54129887

$$$$

 OpenBabel03242514003D

 41 45  0  0  1  0  0  0  0  0999 V2000
   38.8400   32.9010   40.5600 C   0  0  0  0  0  0  0  0  0  0  0  0
   39.8370   33.3910   39.7250 C   0  0  0  0  0  0  0  0  0  0  0  0
   40.3170   32.5270   38.7250 C   0  0  0  0  0  0  0  0  0  0  0  0
   39.7930   31.2990   38.6380 N   0  0  0  0  0  0  0  0  0  0  0  0
   38.8300   30.8450   39.4560 C   0  0  0  0  0  0  0  0  0  0  0  0
   38.3580   31.6740   40.4260 N   0  0  0  0  0  0  0  0  0  0  0  0
   38.4710   33.5800   41.3360 H   0  0  0  0  0  0  0  0  0  0  0  0
   41.0840   32.8330   38.0460 H   0  0  0  0  0  0  0  0  0  0  0  0
   38.2350   29.5230   39.3940 C   0  0  0  0  0  0  0  0  0  0  0  0
   37.1990   29.2300   38.4950 C   0  0  0  0  0  0  0  0  0  0  0  0
   36.8660   27.8910   38.6960 C   0  0  0  0  0  0  0  0  0  0  0  0
   37.6690   27.4160   39.6690 N   0  0  0  0  0  0  0  0  0  0  0  0
   38.4660   28.4090   40.0580 N   0  0  0  0  0  0  0  0  0  0  0  0
   36.7270   29.9000   37.7700 H   0  0  0  0  0  0  0  0  0  0  0  0
   36.0940   27.3380   38.1590 H   0  0  0  0  0  0  0  0  0  0  0  0
   37.6890   26.1340   41.7210 C   0  0  1  0  0  3  0  0  0  0  0  0
   37.6670   26.0650   40.1990 C   0  0  1  0  0  3  0  0  0  0  0  0
   36.4470   25.4350   39.9750 O   0  0  0  0  0  0  0  0  0  0  0  0
   36.3560   24.4030   40.8960 C   0  0  0  0  0  2  0  0  0  0  0  0
   37.1310   24.8110   42.1260 C   0  0  1  0  0  3  0  0  0  0  0  0
   38.9360   26.4280   42.2170 O   0  0  0  0  0  0  0  0  0  0  0  0
   38.8090   26.8870   43.0910 H   0  0  0  0  0  0  0  0  0  0  0  0
   38.1680   23.9710   42.4490 O   0  0  0  0  0  0  0  0  0  0  0  0
   38.6110   23.5950   41.6690 H   0  0  0  0  0  0  0  0  0  0  0  0
   40.3850   34.6590   39.8090 O   0  0  0  0  0  0  0  0  0  0  0  0
   41.3640   35.0420   40.7180 C   0  0  0  0  0  0  0  0  0  0  0  0
   41.3570   36.1580   41.5140 C   0  0  0  0  0  0  0  0  0  0  0  0
   42.4050   36.4030   42.3700 C   0  0  0  0  0  0  0  0  0  0  0  0
   43.4930   35.5560   42.4690 C   0  0  0  0  0  0  0  0  0  0  0  0
   44.4840   35.8400   43.3150 N   0  0  0  0  0  0  0  0  0  0  0  0
   45.5540   35.0430   43.4380 C   0  0  0  0  0  0  0  0  0  0  0  0
   45.5950   33.9150   42.6560 C   0  0  0  0  0  0  0  0  0  0  0  0
   44.5660   33.5980   41.7610 C   0  0  0  0  0  0  0  0  0  0  0  0
   43.4860   34.4370   41.6620 C   0  0  0  0  0  0  0  0  0  0  0  0
   42.4360   34.1640   40.7850 C   0  0  0  0  0  0  0  0  0  0  0  0
   40.4940   36.8050   41.4180 H   0  0  0  0  0  0  0  0  0  0  0  0
   42.3220   37.3010   42.9600 H   0  0  0  0  0  0  0  0  0  0  0  0
   46.2980   35.3530   44.1430 H   0  0  0  0  0  0  0  0  0  0  0  0
   46.4390   33.2690   42.7420 H   0  0  0  0  0  0  0  0  0  0  0  0
   44.6310   32.6940   41.1560 H   0  0  0  0  0  0  0  0  0  0  0  0
   42.5210   33.2650   40.1960 H   0  0  0  0  0  0  0  0  0  0  0  0
  1  7  1  0  0  0  0
  2 25  1  0  0  0  0
  2  1  2  0  0  0  0
  3  2  1  0  0  0  0
  4  3  2  0  0  0  0
  4  5  1  0  0  0  0
  5  6  2  0  0  0  0
  6  1  1  0  0  0  0
  8  3  1  0  0  0  0
  9  5  1  0  0  0  0
  9 13  2  0  0  0  0
 10 11  2  0  0  0  0
 10  9  1  0  0  0  0
 11 12  1  0  0  0  0
 12 13  1  0  0  0  0
 14 10  1  0  0  0  0
 15 11  1  0  0  0  0
 16 20  1  0  0  0  0
 16 21  1  1  0  0  0
 17 12  1  6  0  0  0
 17 16  1  0  0  0  0
 18 17  1  0  0  0  0
 18 19  1  0  0  0  0
 19 20  1  0  0  0  0
 20 23  1  6  0  0  0
 21 22  1  0  0  0  0
 24 23  1  0  0  0  0
 25 26  1  0  0  0  0
 26 35  2  0  0  0  0
 26 27  1  0  0  0  0
 27 28  2  0  0  0  0
 28 29  1  0  0  0  0
 28 37  1  0  0  0  0
 29 30  1  0  0  0  0
 30 31  2  0  0  0  0
 31 38  1  0  0  0  0
 32 39  1  0  0  0  0
 32 31  1  0  0  0  0
 33 32  2  0  0  0  0
 34 33  1  0  0  0  0
 34 29  2  0  0  0  0
 35 34  1  0  0  0  0
 36 27  1  0  0  0  0
 40 33  1  0  0  0  0
 41 35  1  0  0  0  0
M  END
>  <minimizedAffinity>
-6.3014431

$$$$

 OpenBabel03242514003D

 41 45  0  0  1  0  0  0  0  0999 V2000
   39.8650   27.4820   42.0130 C   0  0  0  0  0  0  0  0  0  0  0  0
   38.6270   27.5030   42.6430 C   0  0  0  0  0  0  0  0  0  0  0  0
   38.1580   28.7500   43.0940 C   0  0  0  0  0  0  0  0  0  0  0  0
   38.9230   29.8290   42.8930 N   0  0  0  0  0  0  0  0  0  0  0  0
   40.1180   29.7870   42.2820 C   0  0  0  0  0  0  0  0  0  0  0  0
   40.5800   28.5850   41.8420 N   0  0  0  0  0  0  0  0  0  0  0  0
   40.2230   26.5080   41.6660 H   0  0  0  0  0  0  0  0  0  0  0  0
   37.2150   28.8450   43.5880 H   0  0  0  0  0  0  0  0  0  0  0  0
   40.9760   30.9320   42.0430 C   0  0  0  0  0  0  0  0  0  0  0  0
   42.0890   31.1920   42.8550 C   0  0  0  0  0  0  0  0  0  0  0  0
   42.6840   32.3500   42.3550 C   0  0  0  0  0  0  0  0  0  0  0  0
   41.9530   32.7560   41.2970 N   0  0  0  0  0  0  0  0  0  0  0  0
   40.9510   31.8930   41.1420 N   0  0  0  0  0  0  0  0  0  0  0  0
   42.4450   30.6160   43.7160 H   0  0  0  0  0  0  0  0  0  0  0  0
   43.5760   32.8340   42.7550 H   0  0  0  0  0  0  0  0  0  0  0  0
   42.1320   33.5170   39.0080 C   0  0  1  0  0  3  0  0  0  0  0  0
   42.2110   33.9230   40.4740 C   0  0  1  0  0  3  0  0  0  0  0  0
   41.1690   34.8410   40.5570 O   0  0  0  0  0  0  0  0  0  0  0  0
   41.2490   35.6390   39.4270 C   0  0  0  0  0  2  0  0  0  0  0  0
   41.8480   34.8090   38.3160 C   0  0  1  0  0  3  0  0  0  0  0  0
   43.2570   32.8530   38.5830 O   0  0  0  0  0  0  0  0  0  0  0  0
   42.9840   32.2520   37.8370 H   0  0  0  0  0  0  0  0  0  0  0  0
   43.0220   35.3060   37.8040 O   0  0  0  0  0  0  0  0  0  0  0  0
   43.5780   35.7360   38.4750 H   0  0  0  0  0  0  0  0  0  0  0  0
   37.8300   26.3920   42.8560 O   0  0  0  0  0  0  0  0  0  0  0  0
   37.5850   25.3990   41.9150 C   0  0  0  0  0  0  0  0  0  0  0  0
   37.9480   24.0800   41.9980 C   0  0  0  0  0  0  0  0  0  0  0  0
   37.6330   23.2110   40.9790 C   0  0  0  0  0  0  0  0  0  0  0  0
   36.9510   23.6150   39.8460 C   0  0  0  0  0  0  0  0  0  0  0  0
   36.6700   22.7320   38.8870 N   0  0  0  0  0  0  0  0  0  0  0  0
   36.0100   23.0880   37.7770 C   0  0  0  0  0  0  0  0  0  0  0  0
   35.6310   24.4010   37.6590 C   0  0  0  0  0  0  0  0  0  0  0  0
   35.9150   25.3450   38.6540 C   0  0  0  0  0  0  0  0  0  0  0  0
   36.5920   24.9460   39.7780 C   0  0  0  0  0  0  0  0  0  0  0  0
   36.8990   25.8480   40.7970 C   0  0  0  0  0  0  0  0  0  0  0  0
   38.4810   23.7890   42.8940 H   0  0  0  0  0  0  0  0  0  0  0  0
   37.9540   22.1920   41.1220 H   0  0  0  0  0  0  0  0  0  0  0  0
   35.8310   22.3100   37.0630 H   0  0  0  0  0  0  0  0  0  0  0  0
   35.1040   24.7010   36.7810 H   0  0  0  0  0  0  0  0  0  0  0  0
   35.5990   26.3800   38.5280 H   0  0  0  0  0  0  0  0  0  0  0  0
   36.5760   26.8670   40.6510 H   0  0  0  0  0  0  0  0  0  0  0  0
  1  2  1  0  0  0  0
  2 25  1  0  0  0  0
  2  3  2  0  0  0  0
  3  8  1  0  0  0  0
  4  3  1  0  0  0  0
  5  4  2  0  0  0  0
  6  1  2  0  0  0  0
  6  5  1  0  0  0  0
  7  1  1  0  0  0  0
  9  5  1  0  0  0  0
  9 10  1  0  0  0  0
 10 14  1  0  0  0  0
 11 15  1  0  0  0  0
 11 10  2  0  0  0  0
 12 11  1  0  0  0  0
 13 12  1  0  0  0  0
 13  9  2  0  0  0  0
 16 21  1  6  0  0  0
 16 17  1  0  0  0  0
 17 18  1  0  0  0  0
 17 12  1  1  0  0  0
 19 18  1  0  0  0  0
 20 23  1  1  0  0  0
 20 16  1  0  0  0  0
 20 19  1  0  0  0  0
 22 21  1  0  0  0  0
 23 24  1  0  0  0  0
 26 27  1  0  0  0  0
 26 25  1  0  0  0  0
 27 36  1  0  0  0  0
 28 37  1  0  0  0  0
 28 27  2  0  0  0  0
 29 28  1  0  0  0  0
 30 29  2  0  0  0  0
 31 30  1  0  0  0  0
 32 31  2  0  0  0  0
 32 33  1  0  0  0  0
 33 34  2  0  0  0  0
 34 29  1  0  0  0  0
 34 35  1  0  0  0  0
 35 26  2  0  0  0  0
 38 31  1  0  0  0  0
 39 32  1  0  0  0  0
 40 33  1  0  0  0  0
 41 35  1  0  0  0  0
M  END
>  <minimizedAffinity>
-6.21939802

$$$$

 OpenBabel03242514003D

 41 45  0  0  1  0  0  0  0  0999 V2000
   37.4150   27.3160   40.3740 C   0  0  0  0  0  0  0  0  0  0  0  0
   37.4360   26.7260   41.6320 C   0  0  0  0  0  0  0  0  0  0  0  0
   37.7440   27.5570   42.7240 C   0  0  0  0  0  0  0  0  0  0  0  0
   37.9960   28.8490   42.4900 N   0  0  0  0  0  0  0  0  0  0  0  0
   37.9710   29.4000   41.2650 C   0  0  0  0  0  0  0  0  0  0  0  0
   37.6740   28.6040   40.2020 N   0  0  0  0  0  0  0  0  0  0  0  0
   37.1750   26.6620   39.5290 H   0  0  0  0  0  0  0  0  0  0  0  0
   37.7790   27.1750   43.7220 H   0  0  0  0  0  0  0  0  0  0  0  0
   38.2370   30.7950   40.9700 C   0  0  0  0  0  0  0  0  0  0  0  0
   37.2280   31.6470   40.5010 C   0  0  0  0  0  0  0  0  0  0  0  0
   37.8150   32.9000   40.3230 C   0  0  0  0  0  0  0  0  0  0  0  0
   39.1140   32.7900   40.6700 N   0  0  0  0  0  0  0  0  0  0  0  0
   39.3270   31.5300   41.0480 N   0  0  0  0  0  0  0  0  0  0  0  0
   36.1780   31.4050   40.3050 H   0  0  0  0  0  0  0  0  0  0  0  0
   37.3100   33.7970   39.9650 H   0  0  0  0  0  0  0  0  0  0  0  0
   41.4920   33.2300   40.6680 C   0  0  1  0  0  3  0  0  0  0  0  0
   40.1020   33.8510   40.6380 C   0  0  1  0  0  3  0  0  0  0  0  0
   40.1190   34.4910   39.4030 O   0  0  0  0  0  0  0  0  0  0  0  0
   41.3530   35.1110   39.2910 C   0  0  0  0  0  2  0  0  0  0  0  0
   42.3520   34.2990   40.0810 C   0  0  1  0  0  3  0  0  0  0  0  0
   41.8530   32.8040   41.9240 O   0  0  0  0  0  0  0  0  0  0  0  0
   42.4960   32.0530   41.8100 H   0  0  0  0  0  0  0  0  0  0  0  0
   42.9660   34.9860   41.0990 O   0  0  0  0  0  0  0  0  0  0  0  0
   42.3800   35.6310   41.5290 H   0  0  0  0  0  0  0  0  0  0  0  0
   37.1770   25.3900   41.8820 O   0  0  0  0  0  0  0  0  0  0  0  0
   36.9630   24.4260   40.9040 C   0  0  0  0  0  0  0  0  0  0  0  0
   36.0370   24.4680   39.8950 C   0  0  0  0  0  0  0  0  0  0  0  0
   35.9440   23.4310   38.9960 C   0  0  0  0  0  0  0  0  0  0  0  0
   36.7640   22.3190   39.0640 C   0  0  0  0  0  0  0  0  0  0  0  0
   36.6330   21.3400   38.1670 N   0  0  0  0  0  0  0  0  0  0  0  0
   37.4100   20.2490   38.2010 C   0  0  0  0  0  0  0  0  0  0  0  0
   38.3500   20.1730   39.1980 C   0  0  0  0  0  0  0  0  0  0  0  0
   38.5040   21.1870   40.1490 C   0  0  0  0  0  0  0  0  0  0  0  0
   37.6920   22.2910   40.0840 C   0  0  0  0  0  0  0  0  0  0  0  0
   37.8060   23.3290   41.0090 C   0  0  0  0  0  0  0  0  0  0  0  0
   35.4080   25.3490   39.8650 H   0  0  0  0  0  0  0  0  0  0  0  0
   35.1900   23.5420   38.2350 H   0  0  0  0  0  0  0  0  0  0  0  0
   37.2320   19.5170   37.4390 H   0  0  0  0  0  0  0  0  0  0  0  0
   38.9760   19.3100   39.2380 H   0  0  0  0  0  0  0  0  0  0  0  0
   39.2610   21.0940   40.9270 H   0  0  0  0  0  0  0  0  0  0  0  0
   38.5620   23.2160   41.7700 H   0  0  0  0  0  0  0  0  0  0  0  0
  1  2  1  0  0  0  0
  2 25  1  0  0  0  0
  2  3  2  0  0  0  0
  3  8  1  0  0  0  0
  4  3  1  0  0  0  0
  5  4  2  0  0  0  0
  6  1  2  0  0  0  0
  6  5  1  0  0  0  0
  7  1  1  0  0  0  0
  9 13  2  0  0  0  0
  9  5  1  0  0  0  0
 10  9  1  0  0  0  0
 11 10  2  0  0  0  0
 11 12  1  0  0  0  0
 12 13  1  0  0  0  0
 14 10  1  0  0  0  0
 15 11  1  0  0  0  0
 16 21  1  1  0  0  0
 17 16  1  0  0  0  0
 17 12  1  6  0  0  0
 18 17  1  0  0  0  0
 19 18  1  0  0  0  0
 19 20  1  0  0  0  0
 20 16  1  0  0  0  0
 20 23  1  1  0  0  0
 22 21  1  0  0  0  0
 23 24  1  0  0  0  0
 26 35  1  0  0  0  0
 26 25  1  0  0  0  0
 27 26  2  0  0  0  0
 28 29  2  0  0  0  0
 28 27  1  0  0  0  0
 29 34  1  0  0  0  0
 30 31  2  0  0  0  0
 30 29  1  0  0  0  0
 31 32  1  0  0  0  0
 32 39  1  0  0  0  0
 32 33  2  0  0  0  0
 33 40  1  0  0  0  0
 34 33  1  0  0  0  0
 34 35  2  0  0  0  0
 35 41  1  0  0  0  0
 36 27  1  0  0  0  0
 37 28  1  0  0  0  0
 38 31  1  0  0  0  0
M  END
>  <minimizedAffinity>
-6.18614817

$$$$
