
 OpenBabel03252506363D

 44 47  0  0  1  0  0  0  0  0999 V2000
   44.5620   35.4100   45.2170 C   0  0  0  0  0  0  0  0  0  0  0  0
   45.1790   35.4220   43.9570 C   0  0  0  0  0  0  0  0  0  0  0  0
   46.0730   34.4570   43.6460 C   0  0  0  0  0  0  0  0  0  0  0  0
   46.3210   33.5160   44.5930 N   0  0  0  0  0  0  0  0  0  0  0  0
   45.7350   33.5090   45.7810 C   0  0  0  0  0  0  0  0  0  0  0  0
   44.8520   34.4500   46.1120 N   0  0  0  0  0  0  0  0  0  0  0  0
   46.0770   32.4670   46.7120 N   0  0  0  0  0  0  0  0  0  0  0  0
   45.3670   32.2020   47.9120 C   0  0  0  0  0  0  0  0  0  0  0  0
   46.4670   31.8070   48.8830 C   0  0  0  0  0  0  0  0  0  0  0  0
   47.7210   31.7030   48.0750 C   0  0  0  0  0  0  0  0  0  0  0  0
   47.1790   31.5380   46.6550 C   0  0  1  0  0  0  0  0  0  0  0  0
   43.8370   36.1940   45.4700 H   0  0  0  0  0  0  0  0  0  0  0  0
   46.5480   34.4540   42.6940 H   0  0  0  0  0  0  0  0  0  0  0  0
   45.0420   33.2190   48.3080 H   0  0  0  0  0  0  0  0  0  0  0  0
   44.5210   31.5950   47.9960 H   0  0  0  0  0  0  0  0  0  0  0  0
   46.2080   30.7670   49.2410 H   0  0  0  0  0  0  0  0  0  0  0  0
   46.5200   32.4120   49.7850 H   0  0  0  0  0  0  0  0  0  0  0  0
   48.2950   30.8030   48.3830 H   0  0  0  0  0  0  0  0  0  0  0  0
   48.3040   32.6450   48.1710 H   0  0  0  0  0  0  0  0  0  0  0  0
   47.8920   31.9120   45.8980 H   0  0  0  0  0  0  0  0  0  0  0  0
   44.8050   36.4920   43.0710 N   0  0  0  0  0  0  0  0  0  0  0  0
   43.8030   36.4580   42.7740 H   0  0  0  0  0  0  0  0  0  0  0  0
   45.4370   37.2500   42.7300 H   0  0  0  0  0  0  0  0  0  0  0  0
   46.6290   29.8640   46.4390 S   0  0  0  0  0  0  0  0  0  0  0  0
   45.2170   30.3360   43.4610 O   0  0  0  0  0  0  0  0  0  0  0  0
   44.6970   29.8290   44.4710 C   0  0  0  0  0  0  0  0  0  0  0  0
   44.9840   29.6260   45.9110 C   0  0  1  0  0  0  0  0  0  0  0  0
   44.4200   28.2470   46.1480 C   0  0  0  0  0  0  0  0  0  0  0  0
   43.0230   28.5050   45.5800 C   0  0  0  0  0  0  0  0  0  0  0  0
   43.3980   29.2020   44.3520 N   0  0  0  0  0  0  0  0  0  0  0  0
   44.1790   30.2780   46.3530 H   0  0  0  0  0  0  0  0  0  0  0  0
   44.9040   27.4750   45.5280 H   0  0  0  0  0  0  0  0  0  0  0  0
   44.3640   27.9920   47.2220 H   0  0  0  0  0  0  0  0  0  0  0  0
   42.5880   27.5190   45.4310 H   0  0  0  0  0  0  0  0  0  0  0  0
   42.4380   29.1610   46.2540 H   0  0  0  0  0  0  0  0  0  0  0  0
   41.2710   30.0180   43.3940 C   0  0  2  0  0  0  0  0  0  0  0  0
   42.4960   29.2130   43.1860 C   0  0  2  0  0  0  0  0  0  0  0  0
   42.0900   27.9610   42.8270 O   0  0  0  0  0  0  0  0  0  0  0  0
   40.8000   27.7340   43.2190 C   0  0  0  0  0  0  0  0  0  0  0  0
   40.1320   29.0330   43.5210 C   0  0  1  0  0  0  0  0  0  0  0  0
   41.0040   30.7720   42.2500 O   0  0  0  0  0  0  0  0  0  0  0  0
   41.2490   30.2880   41.4170 H   0  0  0  0  0  0  0  0  0  0  0  0
   39.5850   29.0670   44.8150 O   0  0  0  0  0  0  0  0  0  0  0  0
   40.1760   29.5960   45.4220 H   0  0  0  0  0  0  0  0  0  0  0  0
  1 12  1  0  0  0  0
  1  6  1  0  0  0  0
  2  1  2  0  0  0  0
  3  2  1  0  0  0  0
  3  4  2  0  0  0  0
  4  5  1  0  0  0  0
  5  6  2  0  0  0  0
  5  7  1  0  0  0  0
  7  8  1  0  0  0  0
  8 15  1  0  0  0  0
  8 14  1  0  0  0  0
  8  9  1  0  0  0  0
  9 16  1  0  0  0  0
  9 17  1  0  0  0  0
 10 19  1  0  0  0  0
 10 18  1  0  0  0  0
 10  9  1  0  0  0  0
 11 20  1  6  0  0  0
 11  7  1  0  0  0  0
 11 10  1  0  0  0  0
 13  3  1  0  0  0  0
 21  2  1  0  0  0  0
 22 21  1  0  0  0  0
 23 21  1  0  0  0  0
 24 11  1  0  0  0  0
 25 26  2  0  0  0  0
 26 27  1  0  0  0  0
 27 28  1  0  0  0  0
 27 31  1  1  0  0  0
 27 24  1  0  0  0  0
 28 33  1  0  0  0  0
 29 28  1  0  0  0  0
 29 35  1  0  0  0  0
 30 26  1  0  0  0  0
 30 29  1  0  0  0  0
 32 28  1  0  0  0  0
 34 29  1  0  0  0  0
 36 41  1  6  0  0  0
 36 40  1  0  0  0  0
 37 36  1  0  0  0  0
 37 30  1  1  0  0  0
 38 37  1  0  0  0  0
 38 39  1  0  0  0  0
 39 40  1  0  0  0  0
 40 43  1  1  0  0  0
 42 41  1  0  0  0  0
 43 44  1  0  0  0  0
M  END
>  <minimizedAffinity>
-6.00319576

>  <minimizedRMSD>
0.520985544

$$$$
