
 OpenBabel03252504233D

 32 35  0  0  1  0  0  0  0  0999 V2000
   37.3410   30.5040   39.0410 C   0  0  0  0  0  0  0  0  0  0  0  0
   36.7690   30.0280   37.8480 C   0  0  0  0  0  0  0  0  0  0  0  0
   36.8540   28.6430   37.5660 C   0  0  0  0  0  0  0  0  0  0  0  0
   37.4940   27.8700   38.4930 N   0  0  0  0  0  0  0  0  0  0  0  0
   38.0290   28.3620   39.6260 C   0  0  0  0  0  0  0  0  0  0  0  0
   37.9430   29.6670   39.8810 N   0  0  0  0  0  0  0  0  0  0  0  0
   38.6780   27.4780   40.5380 N   0  0  0  0  0  0  0  0  0  0  0  0
   39.8460   27.6770   41.1690 C   0  0  0  0  0  0  0  0  0  0  0  0
   40.1040   26.5930   41.9460 N   0  0  0  0  0  0  0  0  0  0  0  0
   39.0760   25.7420   41.7710 C   0  0  0  0  0  0  0  0  0  0  0  0
   38.7750   24.4980   42.2810 C   0  0  0  0  0  0  0  0  0  0  0  0
   37.6680   23.8480   41.9430 N   0  0  0  0  0  0  0  0  0  0  0  0
   36.7660   24.3600   41.0780 C   0  0  0  0  0  0  0  0  0  0  0  0
   37.0680   25.5740   40.5860 N   0  0  0  0  0  0  0  0  0  0  0  0
   38.1670   26.2730   40.8920 C   0  0  0  0  0  0  0  0  0  0  0  0
   36.2590   30.6080   37.0970 H   0  0  0  0  0  0  0  0  0  0  0  0
   36.4350   28.2160   36.6660 H   0  0  0  0  0  0  0  0  0  0  0  0
   40.5080   28.5300   41.1100 H   0  0  0  0  0  0  0  0  0  0  0  0
   35.8670   23.8140   40.8140 H   0  0  0  0  0  0  0  0  0  0  0  0
   39.6290   23.8400   43.1970 N   0  0  0  0  0  0  0  0  0  0  0  0
   39.3110   23.1320   43.8830 H   0  0  0  0  0  0  0  0  0  0  0  0
   40.6670   24.0400   43.2340 H   0  0  0  0  0  0  0  0  0  0  0  0
   37.1760   32.2750   39.2660 S   0  0  0  0  0  0  0  0  0  0  0  0
   39.3080   33.0830   40.8240 C   0  0  1  0  0  3  0  0  0  0  0  0
   38.8230   32.9550   39.4020 C   0  0  1  0  0  3  0  0  0  0  0  0
   39.7920   32.1550   38.8130 O   0  0  0  0  0  0  0  0  0  0  0  0
   41.0080   32.5260   39.3080 C   0  0  0  0  0  2  0  0  0  0  0  0
   40.7950   33.2470   40.6060 C   0  0  2  0  0  3  0  0  0  0  0  0
   38.7610   34.1600   41.5060 O   0  0  0  0  0  0  0  0  0  0  0  0
   39.5070   34.8030   41.7200 H   0  0  0  0  0  0  0  0  0  0  0  0
   41.5350   32.6890   41.6490 O   0  0  0  0  0  0  0  0  0  0  0  0
   42.4870   32.9180   41.4870 H   0  0  0  0  0  0  0  0  0  0  0  0
  1 23  1  0  0  0  0
  1  6  1  0  0  0  0
  2  1  2  0  0  0  0
  3  2  1  0  0  0  0
  3  4  2  0  0  0  0
  4  5  1  0  0  0  0
  5  6  2  0  0  0  0
  5  7  1  0  0  0  0
  7 15  1  0  0  0  0
  7  8  1  0  0  0  0
  8  9  2  0  0  0  0
 10  9  1  0  0  0  0
 10 11  1  0  0  0  0
 11 20  1  0  0  0  0
 12 11  2  0  0  0  0
 13 12  1  0  0  0  0
 14 15  1  0  0  0  0
 14 13  2  0  0  0  0
 15 10  2  0  0  0  0
 16  2  1  0  0  0  0
 17  3  1  0  0  0  0
 18  8  1  0  0  0  0
 19 13  1  0  0  0  0
 20 22  1  0  0  0  0
 20 21  1  0  0  0  0
 24 29  1  6  0  0  0
 25 23  1  1  0  0  0
 25 24  1  0  0  0  0
 26 27  1  0  0  0  0
 26 25  1  0  0  0  0
 27 28  1  0  0  0  0
 28 24  1  0  0  0  0
 28 31  1  1  0  0  0
 29 30  1  0  0  0  0
 32 31  1  0  0  0  0
M  END
>  <minimizedAffinity>
-6.17373991

$$$$

 OpenBabel03252504233D

 32 35  0  0  1  0  0  0  0  0999 V2000
   38.2240   30.5970   39.7560 C   0  0  0  0  0  0  0  0  0  0  0  0
   38.1400   31.1770   41.0330 C   0  0  0  0  0  0  0  0  0  0  0  0
   37.9080   30.3300   42.1440 C   0  0  0  0  0  0  0  0  0  0  0  0
   37.7820   28.9950   41.8780 N   0  0  0  0  0  0  0  0  0  0  0  0
   37.8700   28.4760   40.6390 C   0  0  0  0  0  0  0  0  0  0  0  0
   38.0880   29.2830   39.6010 N   0  0  0  0  0  0  0  0  0  0  0  0
   37.7270   27.0690   40.4560 N   0  0  0  0  0  0  0  0  0  0  0  0
   37.0130   26.4420   39.5080 C   0  0  0  0  0  0  0  0  0  0  0  0
   37.1450   25.1010   39.6870 N   0  0  0  0  0  0  0  0  0  0  0  0
   37.9460   24.9350   40.7560 C   0  0  0  0  0  0  0  0  0  0  0  0
   38.4360   23.8260   41.4120 C   0  0  0  0  0  0  0  0  0  0  0  0
   39.2310   23.9300   42.4700 N   0  0  0  0  0  0  0  0  0  0  0  0
   39.6110   25.1250   42.9730 C   0  0  0  0  0  0  0  0  0  0  0  0
   39.1290   26.1990   42.3260 N   0  0  0  0  0  0  0  0  0  0  0  0
   38.3260   26.1540   41.2570 C   0  0  0  0  0  0  0  0  0  0  0  0
   38.2330   32.2220   41.2790 H   0  0  0  0  0  0  0  0  0  0  0  0
   37.8320   30.7140   43.1510 H   0  0  0  0  0  0  0  0  0  0  0  0
   36.4190   26.8730   38.7150 H   0  0  0  0  0  0  0  0  0  0  0  0
   40.2620   25.1890   43.8390 H   0  0  0  0  0  0  0  0  0  0  0  0
   38.1200   22.5120   40.9960 N   0  0  0  0  0  0  0  0  0  0  0  0
   38.7180   21.6860   41.1760 H   0  0  0  0  0  0  0  0  0  0  0  0
   37.2330   22.2940   40.4640 H   0  0  0  0  0  0  0  0  0  0  0  0
   38.5060   31.7820   38.4400 S   0  0  0  0  0  0  0  0  0  0  0  0
   40.9120   32.4620   37.2680 C   0  0  1  0  0  3  0  0  0  0  0  0
   40.1910   32.3590   38.5880 C   0  0  1  0  0  3  0  0  0  0  0  0
   40.2820   33.6480   39.0930 O   0  0  0  0  0  0  0  0  0  0  0  0
   41.5200   34.1360   38.7920 C   0  0  0  0  0  2  0  0  0  0  0  0
   42.0780   33.3460   37.6450 C   0  0  2  0  0  3  0  0  0  0  0  0
   41.3300   31.2380   36.7630 O   0  0  0  0  0  0  0  0  0  0  0  0
   42.3370   31.2380   36.7470 H   0  0  0  0  0  0  0  0  0  0  0  0
   42.4750   34.1610   36.5850 O   0  0  0  0  0  0  0  0  0  0  0  0
   43.2960   34.6370   36.8720 H   0  0  0  0  0  0  0  0  0  0  0  0
  1  2  1  0  0  0  0
  2 16  1  0  0  0  0
  2  3  2  0  0  0  0
  3 17  1  0  0  0  0
  4  3  1  0  0  0  0
  5  4  2  0  0  0  0
  6  1  2  0  0  0  0
  6  5  1  0  0  0  0
  7  5  1  0  0  0  0
  7 15  1  0  0  0  0
  8  9  2  0  0  0  0
  8  7  1  0  0  0  0
  9 10  1  0  0  0  0
 10 15  2  0  0  0  0
 10 11  1  0  0  0  0
 11 12  2  0  0  0  0
 12 13  1  0  0  0  0
 13 19  1  0  0  0  0
 14 13  2  0  0  0  0
 15 14  1  0  0  0  0
 18  8  1  0  0  0  0
 20 21  1  0  0  0  0
 20 11  1  0  0  0  0
 22 20  1  0  0  0  0
 23  1  1  0  0  0  0
 24 29  1  1  0  0  0
 24 28  1  0  0  0  0
 24 25  1  0  0  0  0
 25 23  1  6  0  0  0
 25 26  1  0  0  0  0
 27 26  1  0  0  0  0
 28 31  1  6  0  0  0
 28 27  1  0  0  0  0
 30 29  1  0  0  0  0
 31 32  1  0  0  0  0
M  END
>  <minimizedAffinity>
-6.15915632

$$$$

 OpenBabel03252504233D

 32 35  0  0  1  0  0  0  0  0999 V2000
   39.0920   26.9260   42.7990 C   0  0  0  0  0  0  0  0  0  0  0  0
   38.1450   27.4770   43.6800 C   0  0  0  0  0  0  0  0  0  0  0  0
   37.7050   28.8040   43.4530 C   0  0  0  0  0  0  0  0  0  0  0  0
   38.2460   29.4500   42.3760 N   0  0  0  0  0  0  0  0  0  0  0  0
   39.1510   28.8880   41.5530 C   0  0  0  0  0  0  0  0  0  0  0  0
   39.5570   27.6390   41.7770 N   0  0  0  0  0  0  0  0  0  0  0  0
   39.6600   29.6390   40.4530 N   0  0  0  0  0  0  0  0  0  0  0  0
   40.9380   29.7250   40.0510 C   0  0  0  0  0  0  0  0  0  0  0  0
   40.9920   30.5410   38.9650 N   0  0  0  0  0  0  0  0  0  0  0  0
   39.7300   30.9410   38.7230 C   0  0  0  0  0  0  0  0  0  0  0  0
   39.1590   31.7600   37.7730 C   0  0  0  0  0  0  0  0  0  0  0  0
   37.8550   32.0030   37.7460 N   0  0  0  0  0  0  0  0  0  0  0  0
   37.0020   31.4660   38.6470 C   0  0  0  0  0  0  0  0  0  0  0  0
   37.5680   30.6680   39.5680 N   0  0  0  0  0  0  0  0  0  0  0  0
   38.8740   30.3890   39.6420 C   0  0  0  0  0  0  0  0  0  0  0  0
   37.7000   26.9980   44.5360 H   0  0  0  0  0  0  0  0  0  0  0  0
   36.9810   29.2840   44.0940 H   0  0  0  0  0  0  0  0  0  0  0  0
   41.8120   29.2530   40.4760 H   0  0  0  0  0  0  0  0  0  0  0  0
   35.9390   31.6760   38.6080 H   0  0  0  0  0  0  0  0  0  0  0  0
   39.9320   32.3900   36.7700 N   0  0  0  0  0  0  0  0  0  0  0  0
   39.5600   32.6830   35.8480 H   0  0  0  0  0  0  0  0  0  0  0  0
   40.9580   32.6040   36.9080 H   0  0  0  0  0  0  0  0  0  0  0  0
   39.5720   25.2480   43.2100 S   0  0  0  0  0  0  0  0  0  0  0  0
   37.4390   24.6470   41.5620 C   0  0  1  0  0  3  0  0  0  0  0  0
   38.7880   24.1600   42.0290 C   0  0  1  0  0  3  0  0  0  0  0  0
   39.5010   24.0380   40.8450 O   0  0  0  0  0  0  0  0  0  0  0  0
   38.6590   23.5460   39.8900 C   0  0  0  0  0  2  0  0  0  0  0  0
   37.2460   23.8100   40.3190 C   0  0  2  0  0  3  0  0  0  0  0  0
   36.4230   24.4460   42.4860 O   0  0  0  0  0  0  0  0  0  0  0  0
   35.7690   23.7900   42.0900 H   0  0  0  0  0  0  0  0  0  0  0  0
   36.5160   24.4910   39.3450 O   0  0  0  0  0  0  0  0  0  0  0  0
   36.3480   23.8530   38.6050 H   0  0  0  0  0  0  0  0  0  0  0  0
  1 23  1  0  0  0  0
  1  2  1  0  0  0  0
  2 16  1  0  0  0  0
  3  2  2  0  0  0  0
  3 17  1  0  0  0  0
  4  3  1  0  0  0  0
  5  6  1  0  0  0  0
  5  4  2  0  0  0  0
  6  1  2  0  0  0  0
  7  5  1  0  0  0  0
  8  7  1  0  0  0  0
  8 18  1  0  0  0  0
  9  8  2  0  0  0  0
 10  9  1  0  0  0  0
 10 15  1  0  0  0  0
 11 10  2  0  0  0  0
 12 11  1  0  0  0  0
 12 13  2  0  0  0  0
 13 14  1  0  0  0  0
 14 15  2  0  0  0  0
 15  7  1  0  0  0  0
 19 13  1  0  0  0  0
 20 22  1  0  0  0  0
 20 11  1  0  0  0  0
 21 20  1  0  0  0  0
 24 25  1  0  0  0  0
 24 29  1  1  0  0  0
 25 23  1  1  0  0  0
 26 25  1  0  0  0  0
 27 28  1  0  0  0  0
 27 26  1  0  0  0  0
 28 31  1  6  0  0  0
 28 24  1  0  0  0  0
 30 29  1  0  0  0  0
 32 31  1  0  0  0  0
M  END
>  <minimizedAffinity>
-5.98721647

$$$$

 OpenBabel03252504233D

 32 35  0  0  1  0  0  0  0  0999 V2000
   37.2460   30.4210   39.7770 C   0  0  0  0  0  0  0  0  0  0  0  0
   36.7770   29.8260   38.5930 C   0  0  0  0  0  0  0  0  0  0  0  0
   37.4530   30.1110   37.3820 C   0  0  0  0  0  0  0  0  0  0  0  0
   38.5250   30.9550   37.4660 N   0  0  0  0  0  0  0  0  0  0  0  0
   38.9460   31.5050   38.6210 C   0  0  0  0  0  0  0  0  0  0  0  0
   38.3010   31.2300   39.7540 N   0  0  0  0  0  0  0  0  0  0  0  0
   40.0760   32.3740   38.6130 N   0  0  0  0  0  0  0  0  0  0  0  0
   40.2030   33.5470   39.2540 C   0  0  0  0  0  0  0  0  0  0  0  0
   41.4350   34.0530   38.9840 N   0  0  0  0  0  0  0  0  0  0  0  0
   42.0440   33.1680   38.1730 C   0  0  0  0  0  0  0  0  0  0  0  0
   43.2830   33.1260   37.5720 C   0  0  0  0  0  0  0  0  0  0  0  0
   43.6550   32.1150   36.7970 N   0  0  0  0  0  0  0  0  0  0  0  0
   42.8450   31.0630   36.5440 C   0  0  0  0  0  0  0  0  0  0  0  0
   41.6390   31.1130   37.1350 N   0  0  0  0  0  0  0  0  0  0  0  0
   41.2130   32.1050   37.9250 C   0  0  0  0  0  0  0  0  0  0  0  0
   35.9370   29.1590   38.4910 H   0  0  0  0  0  0  0  0  0  0  0  0
   37.1420   29.6870   36.4390 H   0  0  0  0  0  0  0  0  0  0  0  0
   39.4860   34.0510   39.8870 H   0  0  0  0  0  0  0  0  0  0  0  0
   43.1680   30.2460   35.9080 H   0  0  0  0  0  0  0  0  0  0  0  0
   44.2330   34.1590   37.7480 N   0  0  0  0  0  0  0  0  0  0  0  0
   45.2570   34.0290   37.6610 H   0  0  0  0  0  0  0  0  0  0  0  0
   43.9430   35.1480   37.9840 H   0  0  0  0  0  0  0  0  0  0  0  0
   36.2900   29.9880   41.2310 S   0  0  0  0  0  0  0  0  0  0  0  0
   37.1250   27.8390   42.7520 C   0  0  1  0  0  3  0  0  0  0  0  0
   37.4180   29.2810   42.4240 C   0  0  1  0  0  3  0  0  0  0  0  0
   38.7290   29.2370   41.9740 O   0  0  0  0  0  0  0  0  0  0  0  0
   39.4140   28.3430   42.7440 C   0  0  0  0  0  2  0  0  0  0  0  0
   38.4270   27.4200   43.3940 C   0  0  2  0  0  3  0  0  0  0  0  0
   36.0450   27.6690   43.6080 O   0  0  0  0  0  0  0  0  0  0  0  0
   36.3910   27.2760   44.4690 H   0  0  0  0  0  0  0  0  0  0  0  0
   38.7170   26.0770   43.1480 O   0  0  0  0  0  0  0  0  0  0  0  0
   39.5270   25.8510   43.6750 H   0  0  0  0  0  0  0  0  0  0  0  0
  1 23  1  0  0  0  0
  2  1  2  0  0  0  0
  3  4  2  0  0  0  0
  3  2  1  0  0  0  0
  4  5  1  0  0  0  0
  5  6  2  0  0  0  0
  6  1  1  0  0  0  0
  7  5  1  0  0  0  0
  7  8  1  0  0  0  0
  8 18  1  0  0  0  0
  9  8  2  0  0  0  0
 10  9  1  0  0  0  0
 11 20  1  0  0  0  0
 11 10  2  0  0  0  0
 12 11  1  0  0  0  0
 13 12  2  0  0  0  0
 13 14  1  0  0  0  0
 14 15  2  0  0  0  0
 15 10  1  0  0  0  0
 15  7  1  0  0  0  0
 16  2  1  0  0  0  0
 17  3  1  0  0  0  0
 19 13  1  0  0  0  0
 20 22  1  0  0  0  0
 21 20  1  0  0  0  0
 24 28  1  0  0  0  0
 24 29  1  1  0  0  0
 25 23  1  6  0  0  0
 25 24  1  0  0  0  0
 26 25  1  0  0  0  0
 26 27  1  0  0  0  0
 27 28  1  0  0  0  0
 28 31  1  6  0  0  0
 29 30  1  0  0  0  0
 31 32  1  0  0  0  0
M  END
>  <minimizedAffinity>
-5.96808577

$$$$

 OpenBabel03252504233D

 32 35  0  0  1  0  0  0  0  0999 V2000
   39.0380   31.7750   40.8220 C   0  0  0  0  0  0  0  0  0  0  0  0
   40.3040   32.3500   41.0280 C   0  0  0  0  0  0  0  0  0  0  0  0
   41.2870   31.5910   41.7090 C   0  0  0  0  0  0  0  0  0  0  0  0
   40.9160   30.3390   42.1160 N   0  0  0  0  0  0  0  0  0  0  0  0
   39.6920   29.8220   41.8990 C   0  0  0  0  0  0  0  0  0  0  0  0
   38.7760   30.5460   41.2580 N   0  0  0  0  0  0  0  0  0  0  0  0
   39.3960   28.5050   42.3600 N   0  0  0  0  0  0  0  0  0  0  0  0
   38.2820   28.0970   42.9880 C   0  0  0  0  0  0  0  0  0  0  0  0
   38.4000   26.7690   43.2520 N   0  0  0  0  0  0  0  0  0  0  0  0
   39.6000   26.3890   42.7740 C   0  0  0  0  0  0  0  0  0  0  0  0
   40.2730   25.1860   42.7450 C   0  0  0  0  0  0  0  0  0  0  0  0
   41.4770   25.0680   42.2000 N   0  0  0  0  0  0  0  0  0  0  0  0
   42.1230   26.1150   41.6410 C   0  0  0  0  0  0  0  0  0  0  0  0
   41.4580   27.2830   41.6750 N   0  0  0  0  0  0  0  0  0  0  0  0
   40.2450   27.4590   42.2090 C   0  0  0  0  0  0  0  0  0  0  0  0
   40.6290   33.3300   40.7220 H   0  0  0  0  0  0  0  0  0  0  0  0
   42.2770   31.9760   41.8990 H   0  0  0  0  0  0  0  0  0  0  0  0
   37.4110   28.6760   43.2620 H   0  0  0  0  0  0  0  0  0  0  0  0
   43.1070   25.9980   41.2010 H   0  0  0  0  0  0  0  0  0  0  0  0
   39.7180   24.0070   43.2930 N   0  0  0  0  0  0  0  0  0  0  0  0
   39.9660   23.0490   42.9850 H   0  0  0  0  0  0  0  0  0  0  0  0
   39.0000   24.0370   44.0690 H   0  0  0  0  0  0  0  0  0  0  0  0
   37.8870   32.8480   39.9620 S   0  0  0  0  0  0  0  0  0  0  0  0
   38.3780   31.3680   37.6830 C   0  0  1  0  0  3  0  0  0  0  0  0
   37.2820   31.9560   38.5370 C   0  0  1  0  0  3  0  0  0  0  0  0
   36.5210   30.8460   38.8730 O   0  0  0  0  0  0  0  0  0  0  0  0
   36.4570   30.0280   37.7820 C   0  0  0  0  0  2  0  0  0  0  0  0
   37.5980   30.3620   36.8680 C   0  0  2  0  0  3  0  0  0  0  0  0
   39.0210   32.3000   36.8800 O   0  0  0  0  0  0  0  0  0  0  0  0
   38.8280   32.0660   35.9190 H   0  0  0  0  0  0  0  0  0  0  0  0
   38.3690   29.2420   36.5530 O   0  0  0  0  0  0  0  0  0  0  0  0
   37.8290   28.6770   35.9430 H   0  0  0  0  0  0  0  0  0  0  0  0
  1  2  2  0  0  0  0
  1  6  1  0  0  0  0
  2  3  1  0  0  0  0
  3 17  1  0  0  0  0
  3  4  2  0  0  0  0
  5  4  1  0  0  0  0
  5  7  1  0  0  0  0
  6  5  2  0  0  0  0
  7  8  1  0  0  0  0
  8  9  2  0  0  0  0
  8 18  1  0  0  0  0
 10  9  1  0  0  0  0
 11 10  1  0  0  0  0
 11 20  1  0  0  0  0
 12 11  2  0  0  0  0
 13 14  2  0  0  0  0
 13 12  1  0  0  0  0
 14 15  1  0  0  0  0
 15  7  1  0  0  0  0
 15 10  2  0  0  0  0
 16  2  1  0  0  0  0
 19 13  1  0  0  0  0
 20 22  1  0  0  0  0
 21 20  1  0  0  0  0
 23  1  1  0  0  0  0
 24 29  1  6  0  0  0
 24 25  1  0  0  0  0
 25 26  1  0  0  0  0
 25 23  1  1  0  0  0
 27 26  1  0  0  0  0
 28 31  1  1  0  0  0
 28 24  1  0  0  0  0
 28 27  1  0  0  0  0
 30 29  1  0  0  0  0
 32 31  1  0  0  0  0
M  END
>  <minimizedAffinity>
-5.9207015

$$$$

 OpenBabel03252504233D

 32 35  0  0  1  0  0  0  0  0999 V2000
   39.6490   27.6220   41.3510 C   0  0  0  0  0  0  0  0  0  0  0  0
   40.2690   27.7720   42.6040 C   0  0  0  0  0  0  0  0  0  0  0  0
   41.2560   28.7770   42.7520 C   0  0  0  0  0  0  0  0  0  0  0  0
   41.5280   29.5310   41.6450 N   0  0  0  0  0  0  0  0  0  0  0  0
   40.9120   29.3590   40.4610 C   0  0  0  0  0  0  0  0  0  0  0  0
   39.9850   28.4100   40.3340 N   0  0  0  0  0  0  0  0  0  0  0  0
   41.2600   30.1960   39.3600 N   0  0  0  0  0  0  0  0  0  0  0  0
   41.4730   29.8180   38.0890 C   0  0  0  0  0  0  0  0  0  0  0  0
   41.7800   30.9230   37.3590 N   0  0  0  0  0  0  0  0  0  0  0  0
   41.7470   31.9660   38.2090 C   0  0  0  0  0  0  0  0  0  0  0  0
   41.9660   33.3180   38.0630 C   0  0  0  0  0  0  0  0  0  0  0  0
   41.8700   34.1610   39.0840 N   0  0  0  0  0  0  0  0  0  0  0  0
   41.5520   33.7500   40.3310 C   0  0  0  0  0  0  0  0  0  0  0  0
   41.3400   32.4300   40.4640 N   0  0  0  0  0  0  0  0  0  0  0  0
   41.4230   31.5370   39.4720 C   0  0  0  0  0  0  0  0  0  0  0  0
   40.0800   27.1960   43.4940 H   0  0  0  0  0  0  0  0  0  0  0  0
   41.7700   28.9410   43.6870 H   0  0  0  0  0  0  0  0  0  0  0  0
   41.4240   28.8260   37.6630 H   0  0  0  0  0  0  0  0  0  0  0  0
   41.4780   34.4550   41.1520 H   0  0  0  0  0  0  0  0  0  0  0  0
   42.3070   33.8880   36.8140 N   0  0  0  0  0  0  0  0  0  0  0  0
   42.1150   34.8720   36.5520 H   0  0  0  0  0  0  0  0  0  0  0  0
   42.7890   33.3270   36.0580 H   0  0  0  0  0  0  0  0  0  0  0  0
   38.4330   26.3060   41.2990 S   0  0  0  0  0  0  0  0  0  0  0  0
   36.5510   28.2790   41.7330 C   0  0  1  0  0  3  0  0  0  0  0  0
   36.8540   27.0480   40.9150 C   0  0  1  0  0  3  0  0  0  0  0  0
   36.7740   27.5150   39.6110 O   0  0  0  0  0  0  0  0  0  0  0  0
   35.7370   28.3980   39.5380 C   0  0  0  0  0  2  0  0  0  0  0  0
   35.4360   28.8970   40.9200 C   0  0  2  0  0  3  0  0  0  0  0  0
   36.1530   28.0010   43.0340 O   0  0  0  0  0  0  0  0  0  0  0  0
   35.1970   28.3050   43.1370 H   0  0  0  0  0  0  0  0  0  0  0  0
   35.4520   30.2900   40.9950 O   0  0  0  0  0  0  0  0  0  0  0  0
   34.6440   30.6170   40.5220 H   0  0  0  0  0  0  0  0  0  0  0  0
  1  2  1  0  0  0  0
  2  3  2  0  0  0  0
  2 16  1  0  0  0  0
  3 17  1  0  0  0  0
  4  3  1  0  0  0  0
  5  4  2  0  0  0  0
  6  5  1  0  0  0  0
  6  1  2  0  0  0  0
  7 15  1  0  0  0  0
  7  5  1  0  0  0  0
  8  7  1  0  0  0  0
  9  8  2  0  0  0  0
  9 10  1  0  0  0  0
 10 15  1  0  0  0  0
 11 10  2  0  0  0  0
 11 12  1  0  0  0  0
 12 13  2  0  0  0  0
 13 14  1  0  0  0  0
 13 19  1  0  0  0  0
 15 14  2  0  0  0  0
 18  8  1  0  0  0  0
 20 11  1  0  0  0  0
 21 20  1  0  0  0  0
 22 20  1  0  0  0  0
 23  1  1  0  0  0  0
 24 29  1  1  0  0  0
 25 23  1  1  0  0  0
 25 24  1  0  0  0  0
 26 25  1  0  0  0  0
 27 26  1  0  0  0  0
 27 28  1  0  0  0  0
 28 31  1  6  0  0  0
 28 24  1  0  0  0  0
 29 30  1  0  0  0  0
 32 31  1  0  0  0  0
M  END
>  <minimizedAffinity>
-5.90307331

$$$$

 OpenBabel03252504233D

 32 35  0  0  1  0  0  0  0  0999 V2000
   39.5460   32.8750   40.0920 C   0  0  0  0  0  0  0  0  0  0  0  0
   38.2500   33.4140   40.0290 C   0  0  0  0  0  0  0  0  0  0  0  0
   37.1470   32.5280   40.0920 C   0  0  0  0  0  0  0  0  0  0  0  0
   37.4400   31.1980   40.2110 N   0  0  0  0  0  0  0  0  0  0  0  0
   38.6960   30.7190   40.2690 C   0  0  0  0  0  0  0  0  0  0  0  0
   39.7250   31.5630   40.2090 N   0  0  0  0  0  0  0  0  0  0  0  0
   38.9060   29.3140   40.3950 N   0  0  0  0  0  0  0  0  0  0  0  0
   39.7950   28.5630   39.7260 C   0  0  0  0  0  0  0  0  0  0  0  0
   39.6700   27.2760   40.1440 N   0  0  0  0  0  0  0  0  0  0  0  0
   38.6950   27.2670   41.0720 C   0  0  0  0  0  0  0  0  0  0  0  0
   38.1260   26.2760   41.8420 C   0  0  0  0  0  0  0  0  0  0  0  0
   37.1530   26.5300   42.7090 N   0  0  0  0  0  0  0  0  0  0  0  0
   36.6550   27.7730   42.8900 C   0  0  0  0  0  0  0  0  0  0  0  0
   37.2170   28.7320   42.1350 N   0  0  0  0  0  0  0  0  0  0  0  0
   38.1990   28.5330   41.2490 C   0  0  0  0  0  0  0  0  0  0  0  0
   37.9830   34.4540   39.9350 H   0  0  0  0  0  0  0  0  0  0  0  0
   36.1270   32.8800   40.0480 H   0  0  0  0  0  0  0  0  0  0  0  0
   40.5090   28.8710   38.9760 H   0  0  0  0  0  0  0  0  0  0  0  0
   35.8590   27.9610   43.6030 H   0  0  0  0  0  0  0  0  0  0  0  0
   38.5480   24.9280   41.7560 N   0  0  0  0  0  0  0  0  0  0  0  0
   38.4550   24.2400   42.5250 H   0  0  0  0  0  0  0  0  0  0  0  0
   38.9920   24.5390   40.8800 H   0  0  0  0  0  0  0  0  0  0  0  0
   40.8470   34.1050   39.9860 S   0  0  0  0  0  0  0  0  0  0  0  0
   42.5220   33.6560   37.8370 C   0  0  1  0  0  3  0  0  0  0  0  0
   42.2840   33.3070   39.2850 C   0  0  1  0  0  3  0  0  0  0  0  0
   43.4700   33.6890   39.8950 O   0  0  0  0  0  0  0  0  0  0  0  0
   44.5010   33.3670   39.0610 C   0  0  0  0  0  2  0  0  0  0  0  0
   43.9590   33.2220   37.6690 C   0  0  2  0  0  3  0  0  0  0  0  0
   41.6740   32.9970   36.9570 O   0  0  0  0  0  0  0  0  0  0  0  0
   42.2350   32.3860   36.3860 H   0  0  0  0  0  0  0  0  0  0  0  0
   44.6390   34.0220   36.7510 O   0  0  0  0  0  0  0  0  0  0  0  0
   45.5370   33.6220   36.6210 H   0  0  0  0  0  0  0  0  0  0  0  0
  1  6  1  0  0  0  0
  2  1  2  0  0  0  0
  2  3  1  0  0  0  0
  3  4  2  0  0  0  0
  4  5  1  0  0  0  0
  5  7  1  0  0  0  0
  6  5  2  0  0  0  0
  7 15  1  0  0  0  0
  8  9  2  0  0  0  0
  8  7  1  0  0  0  0
  9 10  1  0  0  0  0
 10 15  2  0  0  0  0
 10 11  1  0  0  0  0
 11 12  2  0  0  0  0
 12 13  1  0  0  0  0
 13 19  1  0  0  0  0
 14 13  2  0  0  0  0
 15 14  1  0  0  0  0
 16  2  1  0  0  0  0
 17  3  1  0  0  0  0
 18  8  1  0  0  0  0
 20 11  1  0  0  0  0
 20 21  1  0  0  0  0
 22 20  1  0  0  0  0
 23  1  1  0  0  0  0
 24 29  1  6  0  0  0
 24 25  1  0  0  0  0
 25 26  1  0  0  0  0
 25 23  1  1  0  0  0
 27 26  1  0  0  0  0
 28 31  1  6  0  0  0
 28 24  1  0  0  0  0
 28 27  1  0  0  0  0
 30 29  1  0  0  0  0
 32 31  1  0  0  0  0
M  END
>  <minimizedAffinity>
-5.83943462

$$$$

 OpenBabel03252504233D

 32 35  0  0  1  0  0  0  0  0999 V2000
   40.3770   32.7150   39.0290 C   0  0  0  0  0  0  0  0  0  0  0  0
   39.7590   33.7380   39.7680 C   0  0  0  0  0  0  0  0  0  0  0  0
   38.6800   33.3990   40.6190 C   0  0  0  0  0  0  0  0  0  0  0  0
   38.3230   32.0800   40.6530 N   0  0  0  0  0  0  0  0  0  0  0  0
   38.9400   31.1260   39.9310 C   0  0  0  0  0  0  0  0  0  0  0  0
   39.9540   31.4580   39.1330 N   0  0  0  0  0  0  0  0  0  0  0  0
   38.4980   29.7740   40.0320 N   0  0  0  0  0  0  0  0  0  0  0  0
   38.3090   28.9050   39.0260 C   0  0  0  0  0  0  0  0  0  0  0  0
   37.8870   27.7250   39.5520 N   0  0  0  0  0  0  0  0  0  0  0  0
   37.8260   27.8990   40.8850 C   0  0  0  0  0  0  0  0  0  0  0  0
   37.4730   27.0800   41.9350 C   0  0  0  0  0  0  0  0  0  0  0  0
   37.4980   27.5000   43.1940 N   0  0  0  0  0  0  0  0  0  0  0  0
   37.8680   28.7550   43.5290 C   0  0  0  0  0  0  0  0  0  0  0  0
   38.2110   29.5470   42.4980 N   0  0  0  0  0  0  0  0  0  0  0  0
   38.2050   29.1760   41.2130 C   0  0  0  0  0  0  0  0  0  0  0  0
   40.0140   34.7850   39.7640 H   0  0  0  0  0  0  0  0  0  0  0  0
   38.1640   34.1390   41.2120 H   0  0  0  0  0  0  0  0  0  0  0  0
   38.4500   29.0590   37.9650 H   0  0  0  0  0  0  0  0  0  0  0  0
   37.8820   29.0800   44.5640 H   0  0  0  0  0  0  0  0  0  0  0  0
   37.0640   25.7410   41.7330 N   0  0  0  0  0  0  0  0  0  0  0  0
   37.1550   24.9920   42.4420 H   0  0  0  0  0  0  0  0  0  0  0  0
   36.6310   25.4220   40.8220 H   0  0  0  0  0  0  0  0  0  0  0  0
   41.7160   33.2850   37.9820 S   0  0  0  0  0  0  0  0  0  0  0  0
   42.3130   31.0370   36.4920 C   0  0  1  0  0  3  0  0  0  0  0  0
   42.7750   31.8830   37.6520 C   0  0  1  0  0  3  0  0  0  0  0  0
   44.0600   32.2480   37.2790 O   0  0  0  0  0  0  0  0  0  0  0  0
   44.6460   31.1760   36.6700 C   0  0  0  0  0  2  0  0  0  0  0  0
   43.5670   30.2500   36.1930 C   0  0  2  0  0  3  0  0  0  0  0  0
   41.2400   30.2110   36.7960 O   0  0  0  0  0  0  0  0  0  0  0  0
   41.5540   29.2560   36.7220 H   0  0  0  0  0  0  0  0  0  0  0  0
   43.6830   29.9570   34.8350 O   0  0  0  0  0  0  0  0  0  0  0  0
   44.4700   29.3620   34.7290 H   0  0  0  0  0  0  0  0  0  0  0  0
  1  6  2  0  0  0  0
  1  2  1  0  0  0  0
  2  3  2  0  0  0  0
  3  4  1  0  0  0  0
  3 17  1  0  0  0  0
  5  7  1  0  0  0  0
  5  4  2  0  0  0  0
  6  5  1  0  0  0  0
  7 15  1  0  0  0  0
  8  9  2  0  0  0  0
  8  7  1  0  0  0  0
  9 10  1  0  0  0  0
 10 15  2  0  0  0  0
 10 11  1  0  0  0  0
 11 12  2  0  0  0  0
 12 13  1  0  0  0  0
 13 19  1  0  0  0  0
 14 13  2  0  0  0  0
 15 14  1  0  0  0  0
 16  2  1  0  0  0  0
 18  8  1  0  0  0  0
 20 11  1  0  0  0  0
 20 21  1  0  0  0  0
 22 20  1  0  0  0  0
 23  1  1  0  0  0  0
 24 29  1  1  0  0  0
 24 25  1  0  0  0  0
 25 23  1  6  0  0  0
 26 25  1  0  0  0  0
 27 26  1  0  0  0  0
 28 31  1  6  0  0  0
 28 24  1  0  0  0  0
 28 27  1  0  0  0  0
 30 29  1  0  0  0  0
 32 31  1  0  0  0  0
M  END
>  <minimizedAffinity>
-5.83681774

$$$$

 OpenBabel03252504233D

 32 35  0  0  1  0  0  0  0  0999 V2000
   38.5860   26.3360   42.4470 C   0  0  0  0  0  0  0  0  0  0  0  0
   37.2360   26.3160   42.8350 C   0  0  0  0  0  0  0  0  0  0  0  0
   36.5630   27.5520   42.9970 C   0  0  0  0  0  0  0  0  0  0  0  0
   37.2950   28.6810   42.7570 N   0  0  0  0  0  0  0  0  0  0  0  0
   38.5880   28.6600   42.3850 C   0  0  0  0  0  0  0  0  0  0  0  0
   39.2110   27.4910   42.2360 N   0  0  0  0  0  0  0  0  0  0  0  0
   39.2720   29.8900   42.1550 N   0  0  0  0  0  0  0  0  0  0  0  0
   40.5070   30.2210   42.5640 C   0  0  0  0  0  0  0  0  0  0  0  0
   40.7790   31.4810   42.1340 N   0  0  0  0  0  0  0  0  0  0  0  0
   39.6900   31.8990   41.4620 C   0  0  0  0  0  0  0  0  0  0  0  0
   39.3700   33.0690   40.8070 C   0  0  0  0  0  0  0  0  0  0  0  0
   38.1990   33.2390   40.2050 N   0  0  0  0  0  0  0  0  0  0  0  0
   37.2450   32.2830   40.1980 C   0  0  0  0  0  0  0  0  0  0  0  0
   37.5670   31.1460   40.8390 N   0  0  0  0  0  0  0  0  0  0  0  0
   38.7300   30.9200   41.4600 C   0  0  0  0  0  0  0  0  0  0  0  0
   36.6310   25.4470   43.0320 H   0  0  0  0  0  0  0  0  0  0  0  0
   35.5260   27.6040   43.2940 H   0  0  0  0  0  0  0  0  0  0  0  0
   41.2090   29.6310   43.1370 H   0  0  0  0  0  0  0  0  0  0  0  0
   36.2940   32.4410   39.7010 H   0  0  0  0  0  0  0  0  0  0  0  0
   40.2720   34.1560   40.7350 N   0  0  0  0  0  0  0  0  0  0  0  0
   40.2660   34.8670   39.9820 H   0  0  0  0  0  0  0  0  0  0  0  0
   41.0210   34.3070   41.4660 H   0  0  0  0  0  0  0  0  0  0  0  0
   39.3190   24.7070   42.2940 S   0  0  0  0  0  0  0  0  0  0  0  0
   37.8900   23.1650   40.5030 C   0  0  1  0  0  3  0  0  0  0  0  0
   39.0320   24.1430   40.6230 C   0  0  1  0  0  3  0  0  0  0  0  0
   38.6590   25.1630   39.7610 O   0  0  0  0  0  0  0  0  0  0  0  0
   38.0820   24.6010   38.6600 C   0  0  0  0  0  2  0  0  0  0  0  0
   37.6200   23.2190   39.0170 C   0  0  2  0  0  3  0  0  0  0  0  0
   38.2060   21.8820   40.9280 O   0  0  0  0  0  0  0  0  0  0  0  0
   38.1580   21.2710   40.1280 H   0  0  0  0  0  0  0  0  0  0  0  0
   36.2700   23.0210   38.7290 O   0  0  0  0  0  0  0  0  0  0  0  0
   36.1850   22.9730   37.7420 H   0  0  0  0  0  0  0  0  0  0  0  0
  1  2  1  0  0  0  0
  2  3  2  0  0  0  0
  2 16  1  0  0  0  0
  3 17  1  0  0  0  0
  4  3  1  0  0  0  0
  5  4  2  0  0  0  0
  6  5  1  0  0  0  0
  6  1  2  0  0  0  0
  7  5  1  0  0  0  0
  7  8  1  0  0  0  0
  8 18  1  0  0  0  0
  9  8  2  0  0  0  0
 10  9  1  0  0  0  0
 11 10  2  0  0  0  0
 12 11  1  0  0  0  0
 13 12  2  0  0  0  0
 13 14  1  0  0  0  0
 14 15  2  0  0  0  0
 15 10  1  0  0  0  0
 15  7  1  0  0  0  0
 19 13  1  0  0  0  0
 20 11  1  0  0  0  0
 20 22  1  0  0  0  0
 21 20  1  0  0  0  0
 23  1  1  0  0  0  0
 24 25  1  0  0  0  0
 24 29  1  6  0  0  0
 25 23  1  1  0  0  0
 26 25  1  0  0  0  0
 27 28  1  0  0  0  0
 27 26  1  0  0  0  0
 28 31  1  1  0  0  0
 28 24  1  0  0  0  0
 30 29  1  0  0  0  0
 32 31  1  0  0  0  0
M  END
>  <minimizedAffinity>
-5.78984642

$$$$
