
 OpenBabel03252506363D

 44 47  0  0  1  0  0  0  0  0999 V2000
   44.5110   35.5260   45.1300 C   0  0  0  0  0  0  0  0  0  0  0  0
   45.1680   35.5130   43.8910 C   0  0  0  0  0  0  0  0  0  0  0  0
   46.0910   34.5580   43.6400 C   0  0  0  0  0  0  0  0  0  0  0  0
   46.3270   33.6520   44.6230 N   0  0  0  0  0  0  0  0  0  0  0  0
   45.7030   33.6690   45.7910 C   0  0  0  0  0  0  0  0  0  0  0  0
   44.7910   34.6000   46.0640 N   0  0  0  0  0  0  0  0  0  0  0  0
   46.0350   32.6630   46.7650 N   0  0  0  0  0  0  0  0  0  0  0  0
   45.2920   32.4200   47.9490 C   0  0  0  0  0  0  0  0  0  0  0  0
   46.3670   32.0790   48.9670 C   0  0  0  0  0  0  0  0  0  0  0  0
   47.6490   31.9760   48.2030 C   0  0  0  0  0  0  0  0  0  0  0  0
   47.1580   31.7560   46.7730 C   0  0  1  0  0  0  0  0  0  0  0  0
   43.7620   36.3010   45.3360 H   0  0  0  0  0  0  0  0  0  0  0  0
   46.5970   34.5360   42.7040 H   0  0  0  0  0  0  0  0  0  0  0  0
   44.9340   33.4410   48.3030 H   0  0  0  0  0  0  0  0  0  0  0  0
   44.4560   31.7980   48.0250 H   0  0  0  0  0  0  0  0  0  0  0  0
   46.1190   31.0450   49.3490 H   0  0  0  0  0  0  0  0  0  0  0  0
   46.3790   32.7120   49.8510 H   0  0  0  0  0  0  0  0  0  0  0  0
   48.2310   31.0990   48.5580 H   0  0  0  0  0  0  0  0  0  0  0  0
   48.2100   32.9330   48.2890 H   0  0  0  0  0  0  0  0  0  0  0  0
   47.8870   32.1230   46.0280 H   0  0  0  0  0  0  0  0  0  0  0  0
   44.8010   36.5470   42.9600 N   0  0  0  0  0  0  0  0  0  0  0  0
   43.8100   36.4820   42.6330 H   0  0  0  0  0  0  0  0  0  0  0  0
   45.4290   37.3070   42.6170 H   0  0  0  0  0  0  0  0  0  0  0  0
   46.6490   30.0650   46.5920 S   0  0  0  0  0  0  0  0  0  0  0  0
   45.6940   30.6030   43.4480 O   0  0  0  0  0  0  0  0  0  0  0  0
   45.0530   30.0250   44.3430 C   0  0  0  0  0  0  0  0  0  0  0  0
   45.1230   29.7710   45.8010 C   0  0  1  0  0  0  0  0  0  0  0  0
   44.6070   28.3570   45.8940 C   0  0  0  0  0  0  0  0  0  0  0  0
   43.3030   28.5710   45.1220 C   0  0  0  0  0  0  0  0  0  0  0  0
   43.8260   29.3410   43.9970 N   0  0  0  0  0  0  0  0  0  0  0  0
   44.2230   30.3610   46.1350 H   0  0  0  0  0  0  0  0  0  0  0  0
   45.2240   27.6390   45.3300 H   0  0  0  0  0  0  0  0  0  0  0  0
   44.3980   28.0490   46.9350 H   0  0  0  0  0  0  0  0  0  0  0  0
   42.9520   27.5730   44.8700 H   0  0  0  0  0  0  0  0  0  0  0  0
   42.5840   29.1650   45.7200 H   0  0  0  0  0  0  0  0  0  0  0  0
   43.5670   30.4460   41.8010 C   0  0  2  0  0  3  0  0  0  0  0  0
   43.1170   29.3610   42.7030 C   0  0  2  0  0  3  0  0  0  0  0  0
   41.7690   29.4980   42.8470 O   0  0  0  0  0  0  0  0  0  0  0  0
   41.3720   30.7710   42.5380 C   0  0  0  0  0  2  0  0  0  0  0  0
   42.4420   31.4550   41.7590 C   0  0  1  0  0  3  0  0  0  0  0  0
   43.6940   29.9550   40.5010 O   0  0  0  0  0  0  0  0  0  0  0  0
   43.0040   29.2700   40.2910 H   0  0  0  0  0  0  0  0  0  0  0  0
   42.8400   32.6690   42.3460 O   0  0  0  0  0  0  0  0  0  0  0  0
   43.7090   32.5490   42.8250 H   0  0  0  0  0  0  0  0  0  0  0  0
  1 12  1  0  0  0  0
  1  6  1  0  0  0  0
  2  1  2  0  0  0  0
  3  2  1  0  0  0  0
  3  4  2  0  0  0  0
  4  5  1  0  0  0  0
  5  6  2  0  0  0  0
  5  7  1  0  0  0  0
  7 11  1  0  0  0  0
  7  8  1  0  0  0  0
  8 15  1  0  0  0  0
  8 14  1  0  0  0  0
  8  9  1  0  0  0  0
  9 16  1  0  0  0  0
  9 17  1  0  0  0  0
 10 19  1  0  0  0  0
 10 18  1  0  0  0  0
 10  9  1  0  0  0  0
 11 20  1  6  0  0  0
 11 10  1  0  0  0  0
 13  3  1  0  0  0  0
 21  2  1  0  0  0  0
 22 21  1  0  0  0  0
 23 21  1  0  0  0  0
 24 11  1  0  0  0  0
 25 26  2  0  0  0  0
 26 27  1  0  0  0  0
 27 28  1  0  0  0  0
 27 31  1  1  0  0  0
 27 24  1  0  0  0  0
 28 33  1  0  0  0  0
 29 35  1  0  0  0  0
 29 28  1  0  0  0  0
 30 26  1  0  0  0  0
 30 29  1  0  0  0  0
 32 28  1  0  0  0  0
 34 29  1  0  0  0  0
 36 41  1  6  0  0  0
 36 37  1  0  0  0  0
 37 38  1  0  0  0  0
 37 30  1  1  0  0  0
 39 38  1  0  0  0  0
 40 36  1  0  0  0  0
 40 43  1  1  0  0  0
 40 39  1  0  0  0  0
 42 41  1  0  0  0  0
 43 44  1  0  0  0  0
M  END
>  <minimizedAffinity>
-5.84725904

>  <minimizedRMSD>
0.120548368

$$$$
