
 OpenBabel03252506363D

 44 47  0  0  1  0  0  0  0  0999 V2000
   44.5280   35.5000   45.1360 C   0  0  0  0  0  0  0  0  0  0  0  0
   45.1730   35.4770   43.8900 C   0  0  0  0  0  0  0  0  0  0  0  0
   46.0830   34.5110   43.6320 C   0  0  0  0  0  0  0  0  0  0  0  0
   46.3200   33.6060   44.6150 N   0  0  0  0  0  0  0  0  0  0  0  0
   45.7080   33.6330   45.7900 C   0  0  0  0  0  0  0  0  0  0  0  0
   44.8080   34.5740   46.0690 N   0  0  0  0  0  0  0  0  0  0  0  0
   46.0400   32.6270   46.7630 N   0  0  0  0  0  0  0  0  0  0  0  0
   45.3060   32.3940   47.9550 C   0  0  0  0  0  0  0  0  0  0  0  0
   46.3880   32.0450   48.9640 C   0  0  0  0  0  0  0  0  0  0  0  0
   47.6610   31.9270   48.1870 C   0  0  0  0  0  0  0  0  0  0  0  0
   47.1530   31.7080   46.7620 C   0  0  1  0  0  0  0  0  0  0  0  0
   43.7890   36.2830   45.3460 H   0  0  0  0  0  0  0  0  0  0  0  0
   46.5800   34.4820   42.6910 H   0  0  0  0  0  0  0  0  0  0  0  0
   44.9620   33.4200   48.3090 H   0  0  0  0  0  0  0  0  0  0  0  0
   44.4650   31.7810   48.0410 H   0  0  0  0  0  0  0  0  0  0  0  0
   46.1330   31.0150   49.3510 H   0  0  0  0  0  0  0  0  0  0  0  0
   46.4150   32.6800   49.8450 H   0  0  0  0  0  0  0  0  0  0  0  0
   48.2370   31.0450   48.5380 H   0  0  0  0  0  0  0  0  0  0  0  0
   48.2320   32.8790   48.2640 H   0  0  0  0  0  0  0  0  0  0  0  0
   47.8780   32.0650   46.0090 H   0  0  0  0  0  0  0  0  0  0  0  0
   44.8070   36.5120   42.9600 N   0  0  0  0  0  0  0  0  0  0  0  0
   43.8120   36.4560   42.6430 H   0  0  0  0  0  0  0  0  0  0  0  0
   45.4390   37.2650   42.6080 H   0  0  0  0  0  0  0  0  0  0  0  0
   46.6260   30.0220   46.5910 S   0  0  0  0  0  0  0  0  0  0  0  0
   45.5740   30.2420   43.4400 O   0  0  0  0  0  0  0  0  0  0  0  0
   44.9340   29.8250   44.4210 C   0  0  0  0  0  0  0  0  0  0  0  0
   45.0500   29.7450   45.8960 C   0  0  1  0  0  0  0  0  0  0  0  0
   44.4440   28.3930   46.1820 C   0  0  0  0  0  0  0  0  0  0  0  0
   43.1260   28.6050   45.4350 C   0  0  0  0  0  0  0  0  0  0  0  0
   43.6500   29.1940   44.2060 N   0  0  0  0  0  0  0  0  0  0  0  0
   44.2080   30.4350   46.1850 H   0  0  0  0  0  0  0  0  0  0  0  0
   44.9870   27.5690   45.6900 H   0  0  0  0  0  0  0  0  0  0  0  0
   44.2610   28.2300   47.2600 H   0  0  0  0  0  0  0  0  0  0  0  0
   42.6980   27.6120   45.3210 H   0  0  0  0  0  0  0  0  0  0  0  0
   42.4750   29.3180   45.9790 H   0  0  0  0  0  0  0  0  0  0  0  0
   41.4210   29.1000   43.1400 C   0  0  2  0  0  3  0  0  0  0  0  0
   42.8900   29.1080   42.9450 C   0  0  2  0  0  3  0  0  0  0  0  0
   43.1980   27.9910   42.2240 O   0  0  0  0  0  0  0  0  0  0  0  0
   42.2070   27.0530   42.3280 C   0  0  0  0  0  2  0  0  0  0  0  0
   40.9590   27.6960   42.8280 C   0  0  1  0  0  3  0  0  0  0  0  0
   40.8160   29.9260   42.1920 O   0  0  0  0  0  0  0  0  0  0  0  0
   41.2890   29.9010   41.3170 H   0  0  0  0  0  0  0  0  0  0  0  0
   40.4560   27.0680   43.9800 O   0  0  0  0  0  0  0  0  0  0  0  0
   40.6780   27.6100   44.7900 H   0  0  0  0  0  0  0  0  0  0  0  0
  1 12  1  0  0  0  0
  1  6  1  0  0  0  0
  2  1  2  0  0  0  0
  3  2  1  0  0  0  0
  3  4  2  0  0  0  0
  4  5  1  0  0  0  0
  5  6  2  0  0  0  0
  5  7  1  0  0  0  0
  7  8  1  0  0  0  0
  8 15  1  0  0  0  0
  8 14  1  0  0  0  0
  8  9  1  0  0  0  0
  9 16  1  0  0  0  0
  9 17  1  0  0  0  0
 10 19  1  0  0  0  0
 10 18  1  0  0  0  0
 10  9  1  0  0  0  0
 11 20  1  6  0  0  0
 11  7  1  0  0  0  0
 11 10  1  0  0  0  0
 13  3  1  0  0  0  0
 21  2  1  0  0  0  0
 22 21  1  0  0  0  0
 23 21  1  0  0  0  0
 24 11  1  0  0  0  0
 25 26  2  0  0  0  0
 26 27  1  0  0  0  0
 27 28  1  0  0  0  0
 27 31  1  1  0  0  0
 27 24  1  0  0  0  0
 28 33  1  0  0  0  0
 29 35  1  0  0  0  0
 29 28  1  0  0  0  0
 30 26  1  0  0  0  0
 30 29  1  0  0  0  0
 32 28  1  0  0  0  0
 34 29  1  0  0  0  0
 36 41  1  6  0  0  0
 37 36  1  0  0  0  0
 37 30  1  1  0  0  0
 38 39  1  0  0  0  0
 38 37  1  0  0  0  0
 39 40  1  0  0  0  0
 40 36  1  0  0  0  0
 40 43  1  1  0  0  0
 42 41  1  0  0  0  0
 43 44  1  0  0  0  0
M  END
>  <minimizedAffinity>
-5.67104292

>  <minimizedRMSD>
0.220991015

$$$$
