
 OpenBabel03252506363D

 44 47  0  0  1  0  0  0  0  0999 V2000
   44.5120   35.5260   45.1310 C   0  0  0  0  0  0  0  0  0  0  0  0
   45.1690   35.5120   43.8910 C   0  0  0  0  0  0  0  0  0  0  0  0
   46.0910   34.5570   43.6390 C   0  0  0  0  0  0  0  0  0  0  0  0
   46.3280   33.6510   44.6230 N   0  0  0  0  0  0  0  0  0  0  0  0
   45.7040   33.6680   45.7910 C   0  0  0  0  0  0  0  0  0  0  0  0
   44.7910   34.5990   46.0650 N   0  0  0  0  0  0  0  0  0  0  0  0
   46.0360   32.6620   46.7650 N   0  0  0  0  0  0  0  0  0  0  0  0
   45.2930   32.4190   47.9490 C   0  0  0  0  0  0  0  0  0  0  0  0
   46.3680   32.0780   48.9670 C   0  0  0  0  0  0  0  0  0  0  0  0
   47.6500   31.9750   48.2030 C   0  0  0  0  0  0  0  0  0  0  0  0
   47.1580   31.7550   46.7720 C   0  0  1  0  0  0  0  0  0  0  0  0
   43.7630   36.3010   45.3360 H   0  0  0  0  0  0  0  0  0  0  0  0
   46.5970   34.5350   42.7030 H   0  0  0  0  0  0  0  0  0  0  0  0
   44.9350   33.4400   48.3030 H   0  0  0  0  0  0  0  0  0  0  0  0
   44.4570   31.7970   48.0250 H   0  0  0  0  0  0  0  0  0  0  0  0
   46.1190   31.0440   49.3490 H   0  0  0  0  0  0  0  0  0  0  0  0
   46.3800   32.7110   49.8500 H   0  0  0  0  0  0  0  0  0  0  0  0
   48.2310   31.0970   48.5570 H   0  0  0  0  0  0  0  0  0  0  0  0
   48.2110   32.9320   48.2880 H   0  0  0  0  0  0  0  0  0  0  0  0
   47.8870   32.1210   46.0270 H   0  0  0  0  0  0  0  0  0  0  0  0
   44.8020   36.5460   42.9610 N   0  0  0  0  0  0  0  0  0  0  0  0
   43.8110   36.4820   42.6330 H   0  0  0  0  0  0  0  0  0  0  0  0
   45.4300   37.3070   42.6170 H   0  0  0  0  0  0  0  0  0  0  0  0
   46.6490   30.0640   46.5910 S   0  0  0  0  0  0  0  0  0  0  0  0
   45.6950   30.6020   43.4470 O   0  0  0  0  0  0  0  0  0  0  0  0
   45.0530   30.0240   44.3420 C   0  0  0  0  0  0  0  0  0  0  0  0
   45.1220   29.7700   45.8000 C   0  0  1  0  0  0  0  0  0  0  0  0
   44.6060   28.3560   45.8940 C   0  0  0  0  0  0  0  0  0  0  0  0
   43.3020   28.5710   45.1220 C   0  0  0  0  0  0  0  0  0  0  0  0
   43.8250   29.3410   43.9960 N   0  0  0  0  0  0  0  0  0  0  0  0
   44.2230   30.3610   46.1340 H   0  0  0  0  0  0  0  0  0  0  0  0
   45.2230   27.6380   45.3300 H   0  0  0  0  0  0  0  0  0  0  0  0
   44.3970   28.0490   46.9350 H   0  0  0  0  0  0  0  0  0  0  0  0
   42.9510   27.5730   44.8700 H   0  0  0  0  0  0  0  0  0  0  0  0
   42.5830   29.1660   45.7190 H   0  0  0  0  0  0  0  0  0  0  0  0
   43.5670   30.4460   41.8010 C   0  0  2  0  0  3  0  0  0  0  0  0
   43.1170   29.3600   42.7030 C   0  0  2  0  0  3  0  0  0  0  0  0
   41.7680   29.4990   42.8450 O   0  0  0  0  0  0  0  0  0  0  0  0
   41.3720   30.7710   42.5370 C   0  0  0  0  0  2  0  0  0  0  0  0
   42.4430   31.4560   41.7590 C   0  0  1  0  0  3  0  0  0  0  0  0
   43.6940   29.9550   40.5000 O   0  0  0  0  0  0  0  0  0  0  0  0
   43.0040   29.2700   40.2900 H   0  0  0  0  0  0  0  0  0  0  0  0
   42.8400   32.6700   42.3460 O   0  0  0  0  0  0  0  0  0  0  0  0
   43.7100   32.5500   42.8250 H   0  0  0  0  0  0  0  0  0  0  0  0
  1 12  1  0  0  0  0
  1  6  1  0  0  0  0
  2  1  2  0  0  0  0
  3  2  1  0  0  0  0
  3  4  2  0  0  0  0
  4  5  1  0  0  0  0
  5  6  2  0  0  0  0
  5  7  1  0  0  0  0
  7 11  1  0  0  0  0
  7  8  1  0  0  0  0
  8 15  1  0  0  0  0
  8 14  1  0  0  0  0
  8  9  1  0  0  0  0
  9 16  1  0  0  0  0
  9 17  1  0  0  0  0
 10 19  1  0  0  0  0
 10 18  1  0  0  0  0
 10  9  1  0  0  0  0
 11 20  1  6  0  0  0
 11 10  1  0  0  0  0
 13  3  1  0  0  0  0
 21  2  1  0  0  0  0
 22 21  1  0  0  0  0
 23 21  1  0  0  0  0
 24 11  1  0  0  0  0
 25 26  2  0  0  0  0
 26 27  1  0  0  0  0
 27 28  1  0  0  0  0
 27 31  1  1  0  0  0
 27 24  1  0  0  0  0
 28 33  1  0  0  0  0
 29 35  1  0  0  0  0
 29 28  1  0  0  0  0
 30 26  1  0  0  0  0
 30 29  1  0  0  0  0
 32 28  1  0  0  0  0
 34 29  1  0  0  0  0
 36 41  1  6  0  0  0
 36 37  1  0  0  0  0
 37 38  1  0  0  0  0
 37 30  1  1  0  0  0
 39 38  1  0  0  0  0
 40 36  1  0  0  0  0
 40 43  1  1  0  0  0
 40 39  1  0  0  0  0
 42 41  1  0  0  0  0
 43 44  1  0  0  0  0
M  END
>  <minimizedAffinity>
-5.84756136

>  <minimizedRMSD>
0.73728466

$$$$
