
 OpenBabel03242515483D

 43 46  0  0  1  0  0  0  0  0999 V2000
   40.5230   33.3370   41.3760 C   0  0  0  0  0  0  0  0  0  0  0  0
   41.8840   33.0770   41.4950 C   0  0  0  0  0  0  0  0  0  0  0  0
   42.3380   31.8250   41.8830 C   0  0  0  0  0  0  0  0  0  0  0  0
   41.4670   30.8190   42.1580 C   0  0  0  0  0  0  0  0  0  0  0  0
   40.1110   31.0650   42.0430 C   0  0  0  0  0  0  0  0  0  0  0  0
   39.6390   32.2820   41.6650 C   0  0  0  0  0  0  0  0  0  0  0  0
   39.4550   29.8630   42.3820 O   0  0  0  0  0  0  0  0  0  0  0  0
   40.3710   28.9970   42.9180 C   0  0  1  0  0  0  0  0  0  0  0  0
   41.6400   29.4890   42.5610 O   0  0  0  0  0  0  0  0  0  0  0  0
   40.0620   34.2520   41.0890 H   0  0  0  0  0  0  0  0  0  0  0  0
   43.4040   31.7240   41.9460 H   0  0  0  0  0  0  0  0  0  0  0  0
   38.5660   32.4350   41.5870 H   0  0  0  0  0  0  0  0  0  0  0  0
   40.2690   27.9880   42.4360 H   0  0  0  0  0  0  0  0  0  0  0  0
   40.2000   28.9140   44.3520 N   0  0  0  0  0  0  0  0  0  0  0  0
   39.1650   28.7510   44.5090 H   0  0  0  0  0  0  0  0  0  0  0  0
   42.3660   27.8960   44.9460 C   0  0  2  0  0  0  0  0  0  0  0  0
   40.8880   27.6970   44.7580 C   0  0  1  0  0  0  0  0  0  0  0  0
   40.4700   27.2490   45.9940 O   0  0  0  0  0  0  0  0  0  0  0  0
   41.3780   26.2800   46.3430 C   0  0  0  0  0  0  0  0  0  0  0  0
   42.7180   26.6410   45.7460 C   0  0  2  0  0  0  0  0  0  0  0  0
   42.7130   29.0590   45.5880 O   0  0  0  0  0  0  0  0  0  0  0  0
   42.6880   28.9280   46.5670 H   0  0  0  0  0  0  0  0  0  0  0  0
   43.7000   26.8940   46.6780 O   0  0  0  0  0  0  0  0  0  0  0  0
   44.3680   26.1710   46.7260 H   0  0  0  0  0  0  0  0  0  0  0  0
   42.9110   34.4960   41.1010 S   0  0  0  0  0  0  0  0  0  0  0  0
   44.5060   33.9100   40.4190 C   0  0  0  0  0  0  0  0  0  0  0  0
   44.4520   33.3230   39.2010 C   0  0  0  0  0  0  0  0  0  0  0  0
   45.6690   32.8810   38.7200 C   0  0  0  0  0  0  0  0  0  0  0  0
   46.8150   33.0200   39.3950 N   0  0  0  0  0  0  0  0  0  0  0  0
   46.8220   33.6150   40.6100 C   0  0  0  0  0  0  0  0  0  0  0  0
   45.6490   34.0450   41.0870 N   0  0  0  0  0  0  0  0  0  0  0  0
   45.7250   32.2260   37.4300 N   0  0  0  0  0  0  0  0  0  0  0  0
   45.9640   31.2110   37.5010 H   0  0  0  0  0  0  0  0  0  0  0  0
   45.5270   32.8200   36.6200 H   0  0  0  0  0  0  0  0  0  0  0  0
   43.3550   33.0410   38.2190 C   0  0  0  0  0  0  0  0  0  0  0  0
   42.4370   33.6410   38.4790 H   0  0  0  0  0  0  0  0  0  0  0  0
   43.1610   31.9610   38.1410 H   0  0  0  0  0  0  0  0  0  0  0  0
   43.6430   33.3870   37.2000 H   0  0  0  0  0  0  0  0  0  0  0  0
   47.9370   33.8140   41.3970 O   0  0  0  0  0  0  0  0  0  0  0  0
   48.5400   35.1030   41.3320 C   0  0  0  0  0  0  0  0  0  0  0  0
   49.7870   35.0910   41.8540 F   0  0  0  0  0  0  0  0  0  0  0  0
   48.5240   35.4830   39.9790 F   0  0  0  0  0  0  0  0  0  0  0  0
   47.7830   35.9840   42.0820 F   0  0  0  0  0  0  0  0  0  0  0  0
  1  2  2  0  0  0  0
  1  6  1  0  0  0  0
  2  3  1  0  0  0  0
  3 11  1  0  0  0  0
  3  4  2  0  0  0  0
  4  9  1  0  0  0  0
  5  4  1  0  0  0  0
  5  7  1  0  0  0  0
  6  5  2  0  0  0  0
  7  8  1  0  0  0  0
  8 13  1  6  0  0  0
  8 14  1  0  0  0  0
  9  8  1  0  0  0  0
 10  1  1  0  0  0  0
 12  6  1  0  0  0  0
 14 15  1  0  0  0  0
 16 21  1  1  0  0  0
 16 20  1  0  0  0  0
 17 14  1  1  0  0  0
 17 16  1  0  0  0  0
 17 18  1  0  0  0  0
 18 19  1  0  0  0  0
 20 19  1  0  0  0  0
 20 23  1  1  0  0  0
 21 22  1  0  0  0  0
 23 24  1  0  0  0  0
 25  2  1  0  0  0  0
 26 31  1  0  0  0  0
 26 25  1  0  0  0  0
 27 26  2  0  0  0  0
 28 27  1  0  0  0  0
 28 29  2  0  0  0  0
 29 30  1  0  0  0  0
 30 31  2  0  0  0  0
 30 39  1  0  0  0  0
 32 33  1  0  0  0  0
 32 28  1  0  0  0  0
 34 32  1  0  0  0  0
 35 36  1  0  0  0  0
 35 27  1  0  0  0  0
 37 35  1  0  0  0  0
 38 35  1  0  0  0  0
 40 39  1  0  0  0  0
 40 41  1  0  0  0  0
 40 43  1  0  0  0  0
 42 40  1  0  0  0  0
M  END
>  <minimizedAffinity>
-5.90290213

>  <minimizedRMSD>
2.58185434

$$$$
