
 OpenBabel03252506363D

 44 47  0  0  1  0  0  0  0  0999 V2000
   44.5110   35.5070   45.1260 C   0  0  0  0  0  0  0  0  0  0  0  0
   45.1780   35.5040   43.8920 C   0  0  0  0  0  0  0  0  0  0  0  0
   46.1120   34.5580   43.6450 C   0  0  0  0  0  0  0  0  0  0  0  0
   46.3480   33.6500   44.6260 N   0  0  0  0  0  0  0  0  0  0  0  0
   45.7130   33.6580   45.7890 C   0  0  0  0  0  0  0  0  0  0  0  0
   44.7900   34.5790   46.0580 N   0  0  0  0  0  0  0  0  0  0  0  0
   46.0460   32.6510   46.7620 N   0  0  0  0  0  0  0  0  0  0  0  0
   45.2950   32.3970   47.9390 C   0  0  0  0  0  0  0  0  0  0  0  0
   46.3650   32.0610   48.9650 C   0  0  0  0  0  0  0  0  0  0  0  0
   47.6540   31.9720   48.2110 C   0  0  0  0  0  0  0  0  0  0  0  0
   47.1760   31.7540   46.7760 C   0  0  1  0  0  0  0  0  0  0  0  0
   43.7530   36.2750   45.3270 H   0  0  0  0  0  0  0  0  0  0  0  0
   46.6260   34.5440   42.7130 H   0  0  0  0  0  0  0  0  0  0  0  0
   44.9250   33.4130   48.2930 H   0  0  0  0  0  0  0  0  0  0  0  0
   44.4640   31.7670   48.0050 H   0  0  0  0  0  0  0  0  0  0  0  0
   46.1220   31.0240   49.3410 H   0  0  0  0  0  0  0  0  0  0  0  0
   46.3630   32.6910   49.8510 H   0  0  0  0  0  0  0  0  0  0  0  0
   48.2400   31.0990   48.5670 H   0  0  0  0  0  0  0  0  0  0  0  0
   48.2050   32.9340   48.3050 H   0  0  0  0  0  0  0  0  0  0  0  0
   47.9080   32.1290   46.0390 H   0  0  0  0  0  0  0  0  0  0  0  0
   44.8100   36.5380   42.9620 N   0  0  0  0  0  0  0  0  0  0  0  0
   43.8230   36.4670   42.6260 H   0  0  0  0  0  0  0  0  0  0  0  0
   45.4350   37.3060   42.6270 H   0  0  0  0  0  0  0  0  0  0  0  0
   46.6840   30.0590   46.5840 S   0  0  0  0  0  0  0  0  0  0  0  0
   45.6130   30.6010   43.4790 O   0  0  0  0  0  0  0  0  0  0  0  0
   45.0080   30.0160   44.3940 C   0  0  0  0  0  0  0  0  0  0  0  0
   45.1320   29.7570   45.8480 C   0  0  1  0  0  0  0  0  0  0  0  0
   44.6290   28.3390   45.9550 C   0  0  0  0  0  0  0  0  0  0  0  0
   43.2970   28.5470   45.2310 C   0  0  0  0  0  0  0  0  0  0  0  0
   43.7740   29.3250   44.0900 N   0  0  0  0  0  0  0  0  0  0  0  0
   44.2410   30.3400   46.2160 H   0  0  0  0  0  0  0  0  0  0  0  0
   45.2310   27.6270   45.3660 H   0  0  0  0  0  0  0  0  0  0  0  0
   44.4610   28.0270   47.0020 H   0  0  0  0  0  0  0  0  0  0  0  0
   42.9450   27.5470   44.9880 H   0  0  0  0  0  0  0  0  0  0  0  0
   42.5960   29.1340   45.8560 H   0  0  0  0  0  0  0  0  0  0  0  0
   43.7910   28.8240   41.6700 C   0  0  2  0  0  3  0  0  0  0  0  0
   43.0190   29.3430   42.8230 C   0  0  2  0  0  3  0  0  0  0  0  0
   42.5960   30.5940   42.4840 O   0  0  0  0  0  0  0  0  0  0  0  0
   43.3640   31.1140   41.4790 C   0  0  0  0  0  2  0  0  0  0  0  0
   44.1200   30.0190   40.8060 C   0  0  1  0  0  3  0  0  0  0  0  0
   42.9780   27.9980   40.8930 O   0  0  0  0  0  0  0  0  0  0  0  0
   42.0350   28.3170   40.8690 H   0  0  0  0  0  0  0  0  0  0  0  0
   45.5050   30.2560   40.7880 O   0  0  0  0  0  0  0  0  0  0  0  0
   45.9560   29.7030   41.4870 H   0  0  0  0  0  0  0  0  0  0  0  0
  1 12  1  0  0  0  0
  1  6  1  0  0  0  0
  2  1  2  0  0  0  0
  3  2  1  0  0  0  0
  3  4  2  0  0  0  0
  4  5  1  0  0  0  0
  5  6  2  0  0  0  0
  5  7  1  0  0  0  0
  7 11  1  0  0  0  0
  7  8  1  0  0  0  0
  8 15  1  0  0  0  0
  8 14  1  0  0  0  0
  8  9  1  0  0  0  0
  9 16  1  0  0  0  0
  9 17  1  0  0  0  0
 10 19  1  0  0  0  0
 10 18  1  0  0  0  0
 10  9  1  0  0  0  0
 11 20  1  6  0  0  0
 11 10  1  0  0  0  0
 13  3  1  0  0  0  0
 21  2  1  0  0  0  0
 22 21  1  0  0  0  0
 23 21  1  0  0  0  0
 24 11  1  0  0  0  0
 25 26  2  0  0  0  0
 26 27  1  0  0  0  0
 27 28  1  0  0  0  0
 27 31  1  1  0  0  0
 27 24  1  0  0  0  0
 28 33  1  0  0  0  0
 29 35  1  0  0  0  0
 29 28  1  0  0  0  0
 30 26  1  0  0  0  0
 30 29  1  0  0  0  0
 32 28  1  0  0  0  0
 34 29  1  0  0  0  0
 36 41  1  6  0  0  0
 36 37  1  0  0  0  0
 37 30  1  1  0  0  0
 38 37  1  0  0  0  0
 39 38  1  0  0  0  0
 40 43  1  1  0  0  0
 40 39  1  0  0  0  0
 40 36  1  0  0  0  0
 42 41  1  0  0  0  0
 43 44  1  0  0  0  0
M  END
>  <minimizedAffinity>
-5.20587969

>  <minimizedRMSD>
0.0723317638

$$$$
