
 OpenBabel03252506363D

 44 47  0  0  1  0  0  0  0  0999 V2000
   44.5050   35.5060   45.1150 C   0  0  0  0  0  0  0  0  0  0  0  0
   45.1770   35.4970   43.8840 C   0  0  0  0  0  0  0  0  0  0  0  0
   46.1120   34.5510   43.6450 C   0  0  0  0  0  0  0  0  0  0  0  0
   46.3460   33.6490   44.6330 N   0  0  0  0  0  0  0  0  0  0  0  0
   45.7080   33.6620   45.7940 C   0  0  0  0  0  0  0  0  0  0  0  0
   44.7830   34.5840   46.0540 N   0  0  0  0  0  0  0  0  0  0  0  0
   46.0380   32.6620   46.7730 N   0  0  0  0  0  0  0  0  0  0  0  0
   45.2840   32.4130   47.9490 C   0  0  0  0  0  0  0  0  0  0  0  0
   46.3510   32.0840   48.9800 C   0  0  0  0  0  0  0  0  0  0  0  0
   47.6430   31.9930   48.2310 C   0  0  0  0  0  0  0  0  0  0  0  0
   47.1700   31.7660   46.7960 C   0  0  1  0  0  0  0  0  0  0  0  0
   43.7460   36.2740   45.3100 H   0  0  0  0  0  0  0  0  0  0  0  0
   46.6290   34.5320   42.7150 H   0  0  0  0  0  0  0  0  0  0  0  0
   44.9120   33.4310   48.2960 H   0  0  0  0  0  0  0  0  0  0  0  0
   44.4540   31.7830   48.0160 H   0  0  0  0  0  0  0  0  0  0  0  0
   46.1080   31.0490   49.3610 H   0  0  0  0  0  0  0  0  0  0  0  0
   46.3460   32.7190   49.8630 H   0  0  0  0  0  0  0  0  0  0  0  0
   48.2280   31.1220   48.5940 H   0  0  0  0  0  0  0  0  0  0  0  0
   48.1930   32.9560   48.3220 H   0  0  0  0  0  0  0  0  0  0  0  0
   47.9040   32.1380   46.0590 H   0  0  0  0  0  0  0  0  0  0  0  0
   44.8110   36.5260   42.9470 N   0  0  0  0  0  0  0  0  0  0  0  0
   43.8240   36.4510   42.6080 H   0  0  0  0  0  0  0  0  0  0  0  0
   45.4350   37.2920   42.6090 H   0  0  0  0  0  0  0  0  0  0  0  0
   46.6800   30.0690   46.6120 S   0  0  0  0  0  0  0  0  0  0  0  0
   45.6830   30.5880   43.4780 O   0  0  0  0  0  0  0  0  0  0  0  0
   45.0570   30.0090   44.3830 C   0  0  0  0  0  0  0  0  0  0  0  0
   45.1470   29.7600   45.8410 C   0  0  1  0  0  0  0  0  0  0  0  0
   44.6430   28.3420   45.9450 C   0  0  0  0  0  0  0  0  0  0  0  0
   43.3280   28.5430   45.1880 C   0  0  0  0  0  0  0  0  0  0  0  0
   43.8310   29.3140   44.0540 N   0  0  0  0  0  0  0  0  0  0  0  0
   44.2470   30.3450   46.1830 H   0  0  0  0  0  0  0  0  0  0  0  0
   45.2600   27.6270   45.3760 H   0  0  0  0  0  0  0  0  0  0  0  0
   44.4500   28.0370   46.9900 H   0  0  0  0  0  0  0  0  0  0  0  0
   42.9830   27.5410   44.9440 H   0  0  0  0  0  0  0  0  0  0  0  0
   42.6120   29.1340   45.7930 H   0  0  0  0  0  0  0  0  0  0  0  0
   43.7660   30.1440   41.7270 C   0  0  2  0  0  3  0  0  0  0  0  0
   43.1070   29.3230   42.7690 C   0  0  2  0  0  3  0  0  0  0  0  0
   41.8310   29.7860   42.8900 O   0  0  0  0  0  0  0  0  0  0  0  0
   41.7270   31.0640   42.4100 C   0  0  0  0  0  2  0  0  0  0  0  0
   42.9020   31.3720   41.5460 C   0  0  1  0  0  3  0  0  0  0  0  0
   43.7370   29.4690   40.5070 O   0  0  0  0  0  0  0  0  0  0  0  0
   42.9030   28.9380   40.3910 H   0  0  0  0  0  0  0  0  0  0  0  0
   43.5850   32.5280   41.9620 O   0  0  0  0  0  0  0  0  0  0  0  0
   44.4170   32.2760   42.4530 H   0  0  0  0  0  0  0  0  0  0  0  0
  1 12  1  0  0  0  0
  1  6  1  0  0  0  0
  2  1  2  0  0  0  0
  3  2  1  0  0  0  0
  3  4  2  0  0  0  0
  4  5  1  0  0  0  0
  5  6  2  0  0  0  0
  5  7  1  0  0  0  0
  7 11  1  0  0  0  0
  7  8  1  0  0  0  0
  8 15  1  0  0  0  0
  8 14  1  0  0  0  0
  8  9  1  0  0  0  0
  9 16  1  0  0  0  0
  9 17  1  0  0  0  0
 10 19  1  0  0  0  0
 10 18  1  0  0  0  0
 10  9  1  0  0  0  0
 11 20  1  6  0  0  0
 11 10  1  0  0  0  0
 13  3  1  0  0  0  0
 21  2  1  0  0  0  0
 22 21  1  0  0  0  0
 23 21  1  0  0  0  0
 24 11  1  0  0  0  0
 25 26  2  0  0  0  0
 26 27  1  0  0  0  0
 27 28  1  0  0  0  0
 27 31  1  1  0  0  0
 27 24  1  0  0  0  0
 28 33  1  0  0  0  0
 29 35  1  0  0  0  0
 29 28  1  0  0  0  0
 30 26  1  0  0  0  0
 30 29  1  0  0  0  0
 32 28  1  0  0  0  0
 34 29  1  0  0  0  0
 36 41  1  6  0  0  0
 36 37  1  0  0  0  0
 37 38  1  0  0  0  0
 37 30  1  1  0  0  0
 39 38  1  0  0  0  0
 40 36  1  0  0  0  0
 40 43  1  1  0  0  0
 40 39  1  0  0  0  0
 42 41  1  0  0  0  0
 43 44  1  0  0  0  0
M  END
>  <minimizedAffinity>
-5.56896067

>  <minimizedRMSD>
0.247485563

$$$$
