
 OpenBabel03252506363D

 44 47  0  0  1  0  0  0  0  0999 V2000
   44.5200   35.5070   45.1230 C   0  0  0  0  0  0  0  0  0  0  0  0
   45.1750   35.4770   43.8830 C   0  0  0  0  0  0  0  0  0  0  0  0
   46.0930   34.5150   43.6410 C   0  0  0  0  0  0  0  0  0  0  0  0
   46.3270   33.6180   44.6330 N   0  0  0  0  0  0  0  0  0  0  0  0
   45.7040   33.6510   45.8020 C   0  0  0  0  0  0  0  0  0  0  0  0
   44.7960   34.5890   46.0670 N   0  0  0  0  0  0  0  0  0  0  0  0
   46.0320   32.6540   46.7860 N   0  0  0  0  0  0  0  0  0  0  0  0
   45.2900   32.4270   47.9740 C   0  0  0  0  0  0  0  0  0  0  0  0
   46.3650   32.0920   48.9940 C   0  0  0  0  0  0  0  0  0  0  0  0
   47.6450   31.9750   48.2300 C   0  0  0  0  0  0  0  0  0  0  0  0
   47.1510   31.7420   46.8020 C   0  0  1  0  0  0  0  0  0  0  0  0
   43.7750   36.2880   45.3210 H   0  0  0  0  0  0  0  0  0  0  0  0
   46.5980   34.4810   42.7040 H   0  0  0  0  0  0  0  0  0  0  0  0
   44.9370   33.4540   48.3170 H   0  0  0  0  0  0  0  0  0  0  0  0
   44.4510   31.8100   48.0570 H   0  0  0  0  0  0  0  0  0  0  0  0
   46.1120   31.0630   49.3870 H   0  0  0  0  0  0  0  0  0  0  0  0
   46.3810   32.7340   49.8710 H   0  0  0  0  0  0  0  0  0  0  0  0
   48.2230   31.0980   48.5930 H   0  0  0  0  0  0  0  0  0  0  0  0
   48.2110   32.9300   48.3040 H   0  0  0  0  0  0  0  0  0  0  0  0
   47.8810   32.0970   46.0520 H   0  0  0  0  0  0  0  0  0  0  0  0
   44.8120   36.5030   42.9420 N   0  0  0  0  0  0  0  0  0  0  0  0
   43.8210   36.4400   42.6170 H   0  0  0  0  0  0  0  0  0  0  0  0
   45.4440   37.2570   42.5900 H   0  0  0  0  0  0  0  0  0  0  0  0
   46.6340   30.0520   46.6400 S   0  0  0  0  0  0  0  0  0  0  0  0
   45.7190   30.3120   43.4490 O   0  0  0  0  0  0  0  0  0  0  0  0
   45.0450   29.8640   44.3930 C   0  0  0  0  0  0  0  0  0  0  0  0
   45.0960   29.7570   45.8700 C   0  0  1  0  0  0  0  0  0  0  0  0
   44.5070   28.3890   46.1030 C   0  0  0  0  0  0  0  0  0  0  0  0
   43.2180   28.5900   45.3020 C   0  0  0  0  0  0  0  0  0  0  0  0
   43.7850   29.2120   44.1090 N   0  0  0  0  0  0  0  0  0  0  0  0
   44.2280   30.4250   46.1340 H   0  0  0  0  0  0  0  0  0  0  0  0
   45.0870   27.5850   45.6210 H   0  0  0  0  0  0  0  0  0  0  0  0
   44.2790   28.2010   47.1690 H   0  0  0  0  0  0  0  0  0  0  0  0
   42.8170   27.5910   45.1510 H   0  0  0  0  0  0  0  0  0  0  0  0
   42.5300   29.2790   45.8300 H   0  0  0  0  0  0  0  0  0  0  0  0
   41.6260   28.8970   42.9460 C   0  0  2  0  0  3  0  0  0  0  0  0
   43.0830   29.1360   42.8140 C   0  0  2  0  0  3  0  0  0  0  0  0
   43.5730   28.1490   42.0100 O   0  0  0  0  0  0  0  0  0  0  0  0
   42.7300   27.0710   41.9890 C   0  0  0  0  0  2  0  0  0  0  0  0
   41.3860   27.4760   42.4900 C   0  0  1  0  0  3  0  0  0  0  0  0
   40.9330   29.7130   42.0500 O   0  0  0  0  0  0  0  0  0  0  0  0
   41.4290   29.8380   41.1970 H   0  0  0  0  0  0  0  0  0  0  0  0
   40.9490   26.6750   43.5610 O   0  0  0  0  0  0  0  0  0  0  0  0
   41.0650   27.1670   44.4240 H   0  0  0  0  0  0  0  0  0  0  0  0
  1 12  1  0  0  0  0
  1  6  1  0  0  0  0
  2  1  2  0  0  0  0
  3  2  1  0  0  0  0
  3  4  2  0  0  0  0
  4  5  1  0  0  0  0
  5  6  2  0  0  0  0
  5  7  1  0  0  0  0
  7 11  1  0  0  0  0
  7  8  1  0  0  0  0
  8 15  1  0  0  0  0
  8 14  1  0  0  0  0
  8  9  1  0  0  0  0
  9 16  1  0  0  0  0
  9 17  1  0  0  0  0
 10 19  1  0  0  0  0
 10 18  1  0  0  0  0
 10  9  1  0  0  0  0
 11 20  1  6  0  0  0
 11 10  1  0  0  0  0
 13  3  1  0  0  0  0
 21  2  1  0  0  0  0
 22 21  1  0  0  0  0
 23 21  1  0  0  0  0
 24 11  1  0  0  0  0
 25 26  2  0  0  0  0
 26 27  1  0  0  0  0
 27 28  1  0  0  0  0
 27 31  1  1  0  0  0
 27 24  1  0  0  0  0
 28 33  1  0  0  0  0
 29 35  1  0  0  0  0
 29 28  1  0  0  0  0
 30 26  1  0  0  0  0
 30 29  1  0  0  0  0
 32 28  1  0  0  0  0
 34 29  1  0  0  0  0
 36 41  1  6  0  0  0
 37 36  1  0  0  0  0
 37 30  1  1  0  0  0
 38 37  1  0  0  0  0
 39 38  1  0  0  0  0
 39 40  1  0  0  0  0
 40 36  1  0  0  0  0
 40 43  1  1  0  0  0
 42 41  1  0  0  0  0
 43 44  1  0  0  0  0
M  END
>  <minimizedAffinity>
-5.41894674

>  <minimizedRMSD>
1.14851463

$$$$
