
 OpenBabel03252505103D

 44 47  0  0  1  0  0  0  0  0999 V2000
   44.5860   35.6150   44.5570 C   0  0  0  0  0  0  0  0  0  0  0  0
   45.1860   35.5300   43.2800 C   0  0  0  0  0  0  0  0  0  0  0  0
   46.2240   34.5610   43.0990 C   0  0  0  0  0  0  0  0  0  0  0  0
   46.5750   33.7820   44.1410 N   0  0  0  0  0  0  0  0  0  0  0  0
   45.9830   33.8900   45.3410 C   0  0  0  0  0  0  0  0  0  0  0  0
   44.9810   34.8090   45.5600 N   0  0  0  0  0  0  0  0  0  0  0  0
   43.7980   36.3320   44.7440 H   0  0  0  0  0  0  0  0  0  0  0  0
   44.8660   36.1780   42.4820 H   0  0  0  0  0  0  0  0  0  0  0  0
   46.4140   33.0100   46.4520 C   0  0  2  0  0  0  0  0  0  0  0  0
   46.9570   31.7660   45.7790 C   0  0  0  0  0  0  0  0  0  0  0  0
   46.0960   30.5730   45.8260 C   0  0  0  0  0  0  0  0  0  0  0  0
   45.8350   30.3400   47.3130 C   0  0  0  0  0  0  0  0  0  0  0  0
   45.0290   31.4090   47.8910 C   0  0  0  0  0  0  0  0  0  0  0  0
   45.3730   32.7670   47.4090 C   0  0  0  0  0  0  0  0  0  0  0  0
   47.2610   33.5570   46.9400 H   0  0  0  0  0  0  0  0  0  0  0  0
   47.9170   31.5140   46.2750 H   0  0  0  0  0  0  0  0  0  0  0  0
   47.2360   31.9360   44.7120 H   0  0  0  0  0  0  0  0  0  0  0  0
   46.6790   29.7100   45.4950 H   0  0  0  0  0  0  0  0  0  0  0  0
   45.1300   30.6750   45.3120 H   0  0  0  0  0  0  0  0  0  0  0  0
   46.7930   30.2380   47.8520 H   0  0  0  0  0  0  0  0  0  0  0  0
   45.2080   29.4320   47.3470 H   0  0  0  0  0  0  0  0  0  0  0  0
   44.2330   31.4860   48.5880 H   0  0  0  0  0  0  0  0  0  0  0  0
   44.6580   33.9080   47.8940 N   0  0  0  0  0  0  0  0  0  0  0  0
   43.7330   33.7640   47.4280 H   0  0  0  0  0  0  0  0  0  0  0  0
   45.2480   34.4890   48.5210 H   0  0  0  0  0  0  0  0  0  0  0  0
   46.8520   34.4510   41.7980 C   0  0  0  0  0  0  0  0  0  0  0  0
   47.9740   35.1970   41.5520 C   0  0  0  0  0  0  0  0  0  0  0  0
   48.5360   35.0450   40.2690 C   0  0  0  0  0  0  0  0  0  0  0  0
   47.9040   34.1700   39.4070 C   0  0  0  0  0  0  0  0  0  0  0  0
   46.7950   33.4310   39.6470 C   0  0  0  0  0  0  0  0  0  0  0  0
   46.2810   33.6060   40.9010 N   0  0  0  0  0  0  0  0  0  0  0  0
   48.3600   35.8440   42.3270 H   0  0  0  0  0  0  0  0  0  0  0  0
   49.4120   35.6280   40.0770 H   0  0  0  0  0  0  0  0  0  0  0  0
   48.4410   34.1550   38.4700 H   0  0  0  0  0  0  0  0  0  0  0  0
   46.2210   32.5830   38.7420 O   0  0  0  0  0  0  0  0  0  0  0  0
   45.3790   33.1710   36.5460 C   0  0  1  0  0  0  0  0  0  0  0  0
   46.4940   32.5360   37.4000 C   0  0  2  0  0  0  0  0  0  0  0  0
   46.4810   31.2400   36.8800 O   0  0  0  0  0  0  0  0  0  0  0  0
   46.2620   31.3010   35.5290 C   0  0  0  0  0  0  0  0  0  0  0  0
   45.9440   32.7440   35.1840 C   0  0  1  0  0  0  0  0  0  0  0  0
   44.1920   32.4830   36.6860 O   0  0  0  0  0  0  0  0  0  0  0  0
   43.6340   32.7510   37.4380 H   0  0  0  0  0  0  0  0  0  0  0  0
   45.0200   32.8520   34.1660 O   0  0  0  0  0  0  0  0  0  0  0  0
   44.5010   33.6720   34.1800 H   0  0  0  0  0  0  0  0  0  0  0  0
  1  7  1  0  0  0  0
  1  6  1  0  0  0  0
  2  1  2  0  0  0  0
  3  2  1  0  0  0  0
  3  4  2  0  0  0  0
  4  5  1  0  0  0  0
  5  6  2  0  0  0  0
  5  9  1  0  0  0  0
  8  2  1  0  0  0  0
  9 15  1  1  0  0  0
  9 14  1  0  0  0  0
 10 11  1  0  0  0  0
 10 16  1  0  0  0  0
 10  9  1  0  0  0  0
 11 12  1  0  0  0  0
 12 21  1  0  0  0  0
 12 20  1  0  0  0  0
 12 13  1  0  0  0  0
 13 22  1  0  0  0  0
 14 13  2  0  0  0  0
 14 23  1  0  0  0  0
 17 10  1  0  0  0  0
 18 11  1  0  0  0  0
 19 11  1  0  0  0  0
 23 25  1  0  0  0  0
 24 23  1  0  0  0  0
 26  3  1  0  0  0  0
 27 26  1  0  0  0  0
 27 32  1  0  0  0  0
 28 27  2  0  0  0  0
 29 30  2  0  0  0  0
 29 28  1  0  0  0  0
 30 31  1  0  0  0  0
 31 26  2  0  0  0  0
 33 28  1  0  0  0  0
 34 29  1  0  0  0  0
 35 30  1  0  0  0  0
 36 41  1  1  0  0  0
 36 37  1  0  0  0  0
 37 35  1  1  0  0  0
 38 37  1  0  0  0  0
 39 38  1  0  0  0  0
 40 43  1  6  0  0  0
 40 39  1  0  0  0  0
 40 36  1  0  0  0  0
 41 42  1  0  0  0  0
 43 44  1  0  0  0  0
M  END
>  <minimizedAffinity>
-7.97853327

>  <minimizedRMSD>
0.56366384

$$$$
