
 OpenBabel03242514183D

 49 51  0  0  1  0  0  0  0  0999 V2000
   46.1910   34.5450   43.5930 C   0  0  0  0  0  0  0  0  0  0  0  0
   46.2070   33.7650   44.7250 C   0  0  0  0  0  0  0  0  0  0  0  0
   45.3770   34.1440   45.7460 C   0  0  0  0  0  0  0  0  0  0  0  0
   44.5940   35.2360   45.6110 N   0  0  0  0  0  0  0  0  0  0  0  0
   44.5790   35.9880   44.5150 C   0  0  0  0  0  0  0  0  0  0  0  0
   45.3800   35.6230   43.5320 N   0  0  0  0  0  0  0  0  0  0  0  0
   45.2440   33.6710   46.7090 H   0  0  0  0  0  0  0  0  0  0  0  0
   43.9400   36.8570   44.4390 H   0  0  0  0  0  0  0  0  0  0  0  0
   47.0300   34.1040   42.4720 C   0  0  0  0  0  0  0  0  0  0  0  0
   48.4100   34.6910   42.5570 C   0  0  0  0  0  0  0  0  0  0  0  0
   48.7100   35.5850   41.4390 C   0  0  0  0  0  0  0  0  0  0  0  0
   48.5120   34.9080   40.1000 C   0  0  0  0  0  0  0  0  0  0  0  0
   47.2700   34.1080   40.0190 C   0  0  0  0  0  0  0  0  0  0  0  0
   46.3470   34.3870   41.1830 C   0  0  0  0  0  0  0  0  0  0  0  0
   47.2280   33.0210   42.5870 H   0  0  0  0  0  0  0  0  0  0  0  0
   49.2060   33.9290   42.6280 H   0  0  0  0  0  0  0  0  0  0  0  0
   48.4750   35.2660   43.5030 H   0  0  0  0  0  0  0  0  0  0  0  0
   49.7670   35.9230   41.4590 H   0  0  0  0  0  0  0  0  0  0  0  0
   48.0240   36.4700   41.4740 H   0  0  0  0  0  0  0  0  0  0  0  0
   49.3980   34.2880   39.8420 H   0  0  0  0  0  0  0  0  0  0  0  0
   48.4640   35.6910   39.3000 H   0  0  0  0  0  0  0  0  0  0  0  0
   47.4880   33.0190   40.0190 H   0  0  0  0  0  0  0  0  0  0  0  0
   46.6850   34.3130   39.0940 H   0  0  0  0  0  0  0  0  0  0  0  0
   45.4140   33.8030   41.0740 H   0  0  0  0  0  0  0  0  0  0  0  0
   46.0550   35.4620   41.1700 H   0  0  0  0  0  0  0  0  0  0  0  0
   46.8970   32.6690   45.0430 O   0  0  0  0  0  0  0  0  0  0  0  0
   47.0110   31.9150   46.1790 C   0  0  0  0  0  0  0  0  0  0  0  0
   47.9580   32.2420   46.7040 H   0  0  0  0  0  0  0  0  0  0  0  0
   46.2350   31.9780   46.9400 H   0  0  0  0  0  0  0  0  0  0  0  0
   47.2180   30.4330   45.9010 C   0  0  0  0  0  0  0  0  0  0  0  0
   47.1930   29.9280   46.8890 H   0  0  0  0  0  0  0  0  0  0  0  0
   48.2430   30.3040   45.5250 H   0  0  0  0  0  0  0  0  0  0  0  0
   46.2050   29.8920   45.0230 N   0  0  0  0  0  0  0  0  0  0  0  0
   46.7100   29.3330   44.2830 H   0  0  0  0  0  0  0  0  0  0  0  0
   45.2550   28.7680   45.9470 S   0  0  0  0  0  0  0  0  0  0  0  0
   44.6560   27.7140   45.0670 O   0  0  0  0  0  0  0  0  0  0  0  0
   44.5680   26.7830   45.4200 H   0  0  0  0  0  0  0  0  0  0  0  0
   44.1770   29.5600   46.6270 O   0  0  0  0  0  0  0  0  0  0  0  0
   43.2080   29.3590   46.4670 H   0  0  0  0  0  0  0  0  0  0  0  0
   46.1880   28.0520   47.1310 O   0  0  0  0  0  0  0  0  0  0  0  0
   45.9290   25.7030   47.5280 C   0  0  1  0  0  0  0  0  0  0  0  0
   45.4800   27.1060   47.8140 C   0  0  2  0  0  0  0  0  0  0  0  0
   44.1140   27.1570   47.6140 O   0  0  0  0  0  0  0  0  0  0  0  0
   43.6030   25.8900   47.8060 C   0  0  0  0  0  0  0  0  0  0  0  0
   44.6690   24.8780   47.5920 C   0  0  1  0  0  0  0  0  0  0  0  0
   46.5400   25.5620   46.2750 O   0  0  0  0  0  0  0  0  0  0  0  0
   46.4890   24.5770   46.0670 H   0  0  0  0  0  0  0  0  0  0  0  0
   44.4980   24.0780   46.4680 O   0  0  0  0  0  0  0  0  0  0  0  0
   44.4060   24.5640   45.6290 H   0  0  0  0  0  0  0  0  0  0  0  0
  1  2  1  0  0  0  0
  2 26  1  0  0  0  0
  2  3  2  0  0  0  0
  3  7  1  0  0  0  0
  4  3  1  0  0  0  0
  5  4  2  0  0  0  0
  6  1  2  0  0  0  0
  6  5  1  0  0  0  0
  8  5  1  0  0  0  0
  9 10  1  0  0  0  0
  9 15  1  0  0  0  0
  9  1  1  0  0  0  0
 10 16  1  0  0  0  0
 10 17  1  0  0  0  0
 11 18  1  0  0  0  0
 11 19  1  0  0  0  0
 11 10  1  0  0  0  0
 12 11  1  0  0  0  0
 13 12  1  0  0  0  0
 13 14  1  0  0  0  0
 14  9  1  0  0  0  0
 20 12  1  0  0  0  0
 21 12  1  0  0  0  0
 22 13  1  0  0  0  0
 23 13  1  0  0  0  0
 24 14  1  0  0  0  0
 25 14  1  0  0  0  0
 26 27  1  0  0  0  0
 27 28  1  0  0  0  0
 27 29  1  0  0  0  0
 30 27  1  0  0  0  0
 30 31  1  0  0  0  0
 32 30  1  0  0  0  0
 33 30  1  0  0  0  0
 33 35  1  0  0  0  0
 34 33  1  0  0  0  0
 35 38  1  0  0  0  0
 35 40  1  0  0  0  0
 36 37  1  0  0  0  0
 36 35  1  0  0  0  0
 39 38  1  0  0  0  0
 41 46  1  6  0  0  0
 41 45  1  0  0  0  0
 41 42  1  0  0  0  0
 42 40  1  6  0  0  0
 43 44  1  0  0  0  0
 43 42  1  0  0  0  0
 45 48  1  6  0  0  0
 45 44  1  0  0  0  0
 47 46  1  0  0  0  0
 49 48  1  0  0  0  0
M  END
>  <minimizedAffinity>
-5.45296478

>  <minimizedRMSD>
2.18715644

$$$$
