
 OpenBabel03252508063D

 44 47  0  0  1  0  0  0  0  0999 V2000
   45.1810   35.5450   43.1380 C   0  0  0  0  0  0  0  0  0  0  0  0
   45.5500   34.2120   43.2150 C   0  0  0  0  0  0  0  0  0  0  0  0
   45.4550   33.5440   44.4100 C   0  0  0  0  0  0  0  0  0  0  0  0
   44.9810   34.2570   45.4920 N   0  0  0  0  0  0  0  0  0  0  0  0
   44.6260   35.5380   45.4100 C   0  0  0  0  0  0  0  0  0  0  0  0
   44.7320   36.1720   44.2230 N   0  0  0  0  0  0  0  0  0  0  0  0
   45.2530   36.0850   42.1970 H   0  0  0  0  0  0  0  0  0  0  0  0
   44.2580   36.0670   46.2810 H   0  0  0  0  0  0  0  0  0  0  0  0
   45.7910   32.1910   44.6540 C   0  0  0  0  0  0  0  0  0  0  0  0
   45.4550   31.1350   43.8020 C   0  0  0  0  0  0  0  0  0  0  0  0
   45.7200   29.8170   44.0680 C   0  0  0  0  0  0  0  0  0  0  0  0
   46.3540   29.4730   45.2380 C   0  0  0  0  0  0  0  0  0  0  0  0
   46.7110   30.5340   46.1260 C   0  0  0  0  0  0  0  0  0  0  0  0
   47.3410   30.2000   47.2890 C   0  0  0  0  0  0  0  0  0  0  0  0
   47.7140   31.1800   48.1870 C   0  0  0  0  0  0  0  0  0  0  0  0
   47.4400   32.5250   47.8920 C   0  0  0  0  0  0  0  0  0  0  0  0
   46.7880   32.8170   46.6810 C   0  0  0  0  0  0  0  0  0  0  0  0
   46.4270   31.8230   45.8120 C   0  0  0  0  0  0  0  0  0  0  0  0
   44.9520   31.3980   42.8760 H   0  0  0  0  0  0  0  0  0  0  0  0
   45.4260   29.0560   43.3550 H   0  0  0  0  0  0  0  0  0  0  0  0
   46.5880   28.4540   45.5030 H   0  0  0  0  0  0  0  0  0  0  0  0
   47.5660   29.1710   47.5430 H   0  0  0  0  0  0  0  0  0  0  0  0
   48.2160   30.8710   49.1090 H   0  0  0  0  0  0  0  0  0  0  0  0
   47.7680   33.2220   48.6480 H   0  0  0  0  0  0  0  0  0  0  0  0
   46.6910   33.8800   46.6280 H   0  0  0  0  0  0  0  0  0  0  0  0
   45.9990   33.6200   42.0680 O   0  0  0  0  0  0  0  0  0  0  0  0
   48.2020   32.4150   41.3290 O   0  0  0  0  0  0  0  0  0  0  0  0
   47.5770   33.7550   41.4670 P   0  0  1  0  0  0  0  0  0  0  0  0
   47.5860   34.4650   39.9320 O   0  0  0  0  0  0  0  0  0  0  0  0
   48.3060   34.2620   37.7080 C   0  0  2  0  0  0  0  0  0  0  0  0
   47.8900   33.5380   38.9450 C   0  0  2  0  0  0  0  0  0  0  0  0
   46.7650   32.7840   38.6270 O   0  0  0  0  0  0  0  0  0  0  0  0
   46.8940   32.4300   37.2860 C   0  0  0  0  0  0  0  0  0  0  0  0
   47.4480   33.6490   36.6130 C   0  0  2  0  0  0  0  0  0  0  0  0
   49.6490   33.9960   37.3940 O   0  0  0  0  0  0  0  0  0  0  0  0
   49.9420   33.2560   37.9810 H   0  0  0  0  0  0  0  0  0  0  0  0
   48.1930   33.2790   35.5080 O   0  0  0  0  0  0  0  0  0  0  0  0
   48.2940   32.2790   35.4330 H   0  0  0  0  0  0  0  0  0  0  0  0
   48.4570   34.7270   42.5160 O   0  0  0  0  0  0  0  0  0  0  0  0
   49.6730   35.3410   42.2560 C   0  0  0  0  0  0  0  0  0  0  0  0
   49.3730   36.4100   41.6970 O   0  0  0  0  0  0  0  0  0  0  0  0
   50.7690   34.5260   42.7210 N   0  0  0  0  0  0  0  0  0  0  0  0
   51.4820   33.9780   42.1670 H   0  0  0  0  0  0  0  0  0  0  0  0
   50.8900   34.4570   43.7590 H   0  0  0  0  0  0  0  0  0  0  0  0
  1  2  2  0  0  0  0
  1  6  1  0  0  0  0
  2  3  1  0  0  0  0
  3  9  1  0  0  0  0
  3  4  2  0  0  0  0
  5  4  1  0  0  0  0
  5  8  1  0  0  0  0
  6  5  2  0  0  0  0
  7  1  1  0  0  0  0
  9 18  1  0  0  0  0
 10 11  1  0  0  0  0
 10  9  2  0  0  0  0
 11 12  2  0  0  0  0
 12 21  1  0  0  0  0
 12 13  1  0  0  0  0
 13 14  1  0  0  0  0
 14 22  1  0  0  0  0
 14 15  2  0  0  0  0
 15 23  1  0  0  0  0
 16 15  1  0  0  0  0
 16 24  1  0  0  0  0
 17 16  2  0  0  0  0
 18 13  2  0  0  0  0
 18 17  1  0  0  0  0
 19 10  1  0  0  0  0
 20 11  1  0  0  0  0
 25 17  1  0  0  0  0
 26  2  1  0  0  0  0
 28 27  2  6  0  0  0
 28 26  1  0  0  0  0
 28 39  1  0  0  0  0
 29 28  1  0  0  0  0
 30 35  1  6  0  0  0
 30 31  1  0  0  0  0
 31 29  1  1  0  0  0
 32 31  1  0  0  0  0
 33 32  1  0  0  0  0
 34 37  1  6  0  0  0
 34 33  1  0  0  0  0
 34 30  1  0  0  0  0
 35 36  1  0  0  0  0
 38 37  1  0  0  0  0
 40 39  1  0  0  0  0
 40 42  1  0  0  0  0
 41 40  2  0  0  0  0
 42 44  1  0  0  0  0
 43 42  1  0  0  0  0
M  END
>  <minimizedAffinity>
-6.96488476

>  <minimizedRMSD>
1.00055492

$$$$
