
 OpenBabel03252508063D

 44 47  0  0  1  0  0  0  0  0999 V2000
   45.1250   35.3080   43.3890 C   0  0  0  0  0  0  0  0  0  0  0  0
   45.5570   33.9950   43.4820 C   0  0  0  0  0  0  0  0  0  0  0  0
   45.5270   33.3480   44.6920 C   0  0  0  0  0  0  0  0  0  0  0  0
   45.0510   34.0620   45.7730 N   0  0  0  0  0  0  0  0  0  0  0  0
   44.6350   35.3240   45.6760 C   0  0  0  0  0  0  0  0  0  0  0  0
   44.6790   35.9370   44.4740 N   0  0  0  0  0  0  0  0  0  0  0  0
   45.1460   35.8310   42.4360 H   0  0  0  0  0  0  0  0  0  0  0  0
   44.2680   35.8540   46.5470 H   0  0  0  0  0  0  0  0  0  0  0  0
   45.9310   32.0180   44.9520 C   0  0  0  0  0  0  0  0  0  0  0  0
   45.6320   30.9320   44.1240 C   0  0  0  0  0  0  0  0  0  0  0  0
   45.9640   29.6340   44.4070 C   0  0  0  0  0  0  0  0  0  0  0  0
   46.6340   29.3410   45.5720 C   0  0  0  0  0  0  0  0  0  0  0  0
   46.9530   30.4320   46.4360 C   0  0  0  0  0  0  0  0  0  0  0  0
   47.6170   30.1490   47.5940 C   0  0  0  0  0  0  0  0  0  0  0  0
   47.9570   31.1610   48.4690 C   0  0  0  0  0  0  0  0  0  0  0  0
   47.6150   32.4860   48.1570 C   0  0  0  0  0  0  0  0  0  0  0  0
   46.9300   32.7250   46.9520 C   0  0  0  0  0  0  0  0  0  0  0  0
   46.6030   31.7010   46.1060 C   0  0  0  0  0  0  0  0  0  0  0  0
   45.1030   31.1550   43.2020 H   0  0  0  0  0  0  0  0  0  0  0  0
   45.6970   28.8470   43.7120 H   0  0  0  0  0  0  0  0  0  0  0  0
   46.9200   28.3380   45.8500 H   0  0  0  0  0  0  0  0  0  0  0  0
   47.8950   29.1360   47.8610 H   0  0  0  0  0  0  0  0  0  0  0  0
   48.4880   30.8920   49.3870 H   0  0  0  0  0  0  0  0  0  0  0  0
   47.9200   33.2120   48.8950 H   0  0  0  0  0  0  0  0  0  0  0  0
   46.7810   33.7820   46.8820 H   0  0  0  0  0  0  0  0  0  0  0  0
   46.0000   33.4010   42.3340 O   0  0  0  0  0  0  0  0  0  0  0  0
   48.3080   32.5850   41.4040 O   0  0  0  0  0  0  0  0  0  0  0  0
   47.4470   33.7880   41.5440 P   0  0  1  0  0  0  0  0  0  0  0  0
   47.1530   34.3690   39.9820 O   0  0  0  0  0  0  0  0  0  0  0  0
   48.6720   33.8150   38.2830 C   0  0  2  0  0  3  0  0  0  0  0  0
   47.4410   33.4110   39.0210 C   0  0  2  0  0  3  0  0  0  0  0  0
   46.4060   33.3310   38.0950 O   0  0  0  0  0  0  0  0  0  0  0  0
   46.9880   32.9540   36.8860 C   0  0  0  0  0  2  0  0  0  0  0  0
   48.2770   33.7170   36.8180 C   0  0  2  0  0  3  0  0  0  0  0  0
   49.7150   32.9010   38.5010 O   0  0  0  0  0  0  0  0  0  0  0  0
   49.3220   32.1170   38.9610 H   0  0  0  0  0  0  0  0  0  0  0  0
   49.2010   33.0120   36.0700 O   0  0  0  0  0  0  0  0  0  0  0  0
   48.8650   32.1000   35.8060 H   0  0  0  0  0  0  0  0  0  0  0  0
   48.2240   34.9860   42.4270 O   0  0  0  0  0  0  0  0  0  0  0  0
   49.5080   35.4670   42.2240 C   0  0  0  0  0  0  0  0  0  0  0  0
   49.3580   36.4760   41.5120 O   0  0  0  0  0  0  0  0  0  0  0  0
   50.4790   34.6380   42.8940 N   0  0  0  0  0  0  0  0  0  0  0  0
   51.1910   33.9710   42.4870 H   0  0  0  0  0  0  0  0  0  0  0  0
   50.4960   34.6930   43.9400 H   0  0  0  0  0  0  0  0  0  0  0  0
  1  2  2  0  0  0  0
  1  6  1  0  0  0  0
  2  3  1  0  0  0  0
  3  9  1  0  0  0  0
  3  4  2  0  0  0  0
  5  4  1  0  0  0  0
  5  8  1  0  0  0  0
  6  5  2  0  0  0  0
  7  1  1  0  0  0  0
  9 18  1  0  0  0  0
 10 11  1  0  0  0  0
 10  9  2  0  0  0  0
 11 12  2  0  0  0  0
 12 21  1  0  0  0  0
 12 13  1  0  0  0  0
 13 14  1  0  0  0  0
 14 22  1  0  0  0  0
 14 15  2  0  0  0  0
 15 23  1  0  0  0  0
 16 15  1  0  0  0  0
 16 24  1  0  0  0  0
 17 16  2  0  0  0  0
 18 13  2  0  0  0  0
 18 17  1  0  0  0  0
 19 10  1  0  0  0  0
 20 11  1  0  0  0  0
 25 17  1  0  0  0  0
 26  2  1  0  0  0  0
 28 27  2  6  0  0  0
 28 26  1  0  0  0  0
 28 39  1  0  0  0  0
 29 28  1  0  0  0  0
 30 35  1  6  0  0  0
 30 31  1  0  0  0  0
 31 29  1  1  0  0  0
 32 31  1  0  0  0  0
 33 32  1  0  0  0  0
 34 37  1  6  0  0  0
 34 33  1  0  0  0  0
 34 30  1  0  0  0  0
 35 36  1  0  0  0  0
 38 37  1  0  0  0  0
 40 39  1  0  0  0  0
 40 42  1  0  0  0  0
 41 40  2  0  0  0  0
 42 44  1  0  0  0  0
 43 42  1  0  0  0  0
M  END
>  <minimizedAffinity>
-6.72311306

>  <minimizedRMSD>
1.20582771

$$$$
