
 OpenBabel03242516323D

 44 47  0  0  1  0  0  0  0  0999 V2000
   48.1500   32.7180   40.1200 O   0  0  0  0  0  0  0  0  0  0  0  0
   48.2710   33.9400   42.1460 C   0  0  2  0  0  0  0  0  0  0  0  0
   46.8500   33.3730   42.4140 C   0  0  1  0  0  0  0  0  0  0  0  0
   47.1950   32.2190   43.0540 O   0  0  0  0  0  0  0  0  0  0  0  0
   48.1430   31.6260   42.1960 C   0  0  0  0  0  0  0  0  0  0  0  0
   48.7570   32.7570   41.3400 C   0  0  1  0  0  0  0  0  0  0  0  0
   48.2150   34.8710   41.5920 H   0  0  0  0  0  0  0  0  0  0  0  0
   46.4210   33.2600   41.4040 H   0  0  0  0  0  0  0  0  0  0  0  0
   47.6070   30.9190   41.5430 H   0  0  0  0  0  0  0  0  0  0  0  0
   48.9180   31.1430   42.8130 H   0  0  0  0  0  0  0  0  0  0  0  0
   49.8570   32.7250   41.3100 H   0  0  0  0  0  0  0  0  0  0  0  0
   44.7410   36.2220   43.7910 C   0  0  0  0  0  0  0  0  0  0  0  0
   45.4830   35.5190   42.8380 C   0  0  0  0  0  0  0  0  0  0  0  0
   46.0520   34.3190   43.2050 C   0  0  0  0  0  0  0  0  0  0  0  0
   45.8480   33.8910   44.4980 N   0  0  0  0  0  0  0  0  0  0  0  0
   45.1270   34.5900   45.3930 C   0  0  0  0  0  0  0  0  0  0  0  0
   44.5730   35.7620   45.0320 N   0  0  0  0  0  0  0  0  0  0  0  0
   44.3300   37.1530   43.4160 H   0  0  0  0  0  0  0  0  0  0  0  0
   45.6850   35.7890   41.8110 H   0  0  0  0  0  0  0  0  0  0  0  0
   44.9930   34.2120   46.4030 H   0  0  0  0  0  0  0  0  0  0  0  0
   49.0090   33.9640   43.2950 O   0  0  0  0  0  0  0  0  0  0  0  0
   48.3950   33.7900   44.0450 H   0  0  0  0  0  0  0  0  0  0  0  0
   48.9870   32.6350   37.9150 C   0  0  1  0  0  0  0  0  0  0  0  0
   48.6720   33.5980   39.1690 C   0  0  1  0  0  0  0  0  0  0  0  0
   47.6670   34.3030   38.6160 O   0  0  0  0  0  0  0  0  0  0  0  0
   46.7640   33.2460   38.3160 C   0  0  0  0  0  0  0  0  0  0  0  0
   47.6010   32.3890   37.3970 C   0  0  1  0  0  0  0  0  0  0  0  0
   49.5470   31.7840   38.2560 H   0  0  0  0  0  0  0  0  0  0  0  0
   49.6740   33.9650   39.3700 H   0  0  0  0  0  0  0  0  0  0  0  0
   45.8870   33.6200   37.7490 H   0  0  0  0  0  0  0  0  0  0  0  0
   46.4790   32.6660   39.1880 H   0  0  0  0  0  0  0  0  0  0  0  0
   47.3730   31.3080   37.5080 H   0  0  0  0  0  0  0  0  0  0  0  0
   49.6360   33.4710   36.9970 O   0  0  0  0  0  0  0  0  0  0  0  0
   49.1560   34.3330   37.0570 H   0  0  0  0  0  0  0  0  0  0  0  0
   47.4390   32.8350   36.1000 O   0  0  0  0  0  0  0  0  0  0  0  0
   45.3140   32.4100   35.0270 C   0  0  2  0  0  0  0  0  0  0  0  0
   46.7060   31.9260   35.3460 C   0  0  2  0  0  0  0  0  0  0  0  0
   46.5550   30.7310   36.0460 O   0  0  0  0  0  0  0  0  0  0  0  0
   45.4170   30.1240   35.5750 C   0  0  0  0  0  0  0  0  0  0  0  0
   44.4370   31.2250   35.2870 C   0  0  1  0  0  0  0  0  0  0  0  0
   45.1890   32.9520   33.7600 O   0  0  0  0  0  0  0  0  0  0  0  0
   44.8590   32.2960   33.0860 H   0  0  0  0  0  0  0  0  0  0  0  0
   43.6260   31.4600   36.4110 O   0  0  0  0  0  0  0  0  0  0  0  0
   43.8140   30.8270   37.1260 H   0  0  0  0  0  0  0  0  0  0  0  0
  1  6  1  0  0  0  0
  2  7  1  6  0  0  0
  2  3  1  0  0  0  0
  2 21  1  0  0  0  0
  3  8  1  6  0  0  0
  3  4  1  0  0  0  0
  3 14  1  0  0  0  0
  5 10  1  0  0  0  0
  5  4  1  0  0  0  0
  6 11  1  6  0  0  0
  6  2  1  0  0  0  0
  6  5  1  0  0  0  0
  9  5  1  0  0  0  0
 12 17  1  0  0  0  0
 13 14  1  0  0  0  0
 13 12  2  0  0  0  0
 14 15  2  0  0  0  0
 15 16  1  0  0  0  0
 16 20  1  0  0  0  0
 17 16  2  0  0  0  0
 18 12  1  0  0  0  0
 19 13  1  0  0  0  0
 21 22  1  0  0  0  0
 23 28  1  1  0  0  0
 23 24  1  0  0  0  0
 24 29  1  1  0  0  0
 24  1  1  0  0  0  0
 25 24  1  0  0  0  0
 26 25  1  0  0  0  0
 26 31  1  0  0  0  0
 27 32  1  1  0  0  0
 27 23  1  0  0  0  0
 27 26  1  0  0  0  0
 30 26  1  0  0  0  0
 33 34  1  0  0  0  0
 33 23  1  0  0  0  0
 35 27  1  0  0  0  0
 36 41  1  6  0  0  0
 36 40  1  0  0  0  0
 36 37  1  0  0  0  0
 37 38  1  0  0  0  0
 37 35  1  1  0  0  0
 39 38  1  0  0  0  0
 40 39  1  0  0  0  0
 40 43  1  1  0  0  0
 42 41  1  0  0  0  0
 43 44  1  0  0  0  0
M  END
>  <minimizedAffinity>
-6.29113436

>  <minimizedRMSD>
1.6629771

$$$$
