
 OpenBabel03252507493D

 45 47  0  0  1  0  0  0  0  0999 V2000
   46.6890   34.8430   41.9800 C   0  0  0  0  0  0  0  0  0  0  0  0
   46.8980   34.1650   42.8340 H   0  0  0  0  0  0  0  0  0  0  0  0
   46.9830   35.8670   42.3390 H   0  0  0  0  0  0  0  0  0  0  0  0
   45.2300   34.7600   41.7120 C   0  0  0  0  0  0  0  0  0  0  0  0
   44.3530   35.7340   42.2540 C   0  0  0  0  0  0  0  0  0  0  0  0
   42.7130   35.2070   41.6550 S   0  0  0  0  0  0  0  0  0  0  0  0
   43.5000   33.7190   40.7500 C   0  0  0  0  0  0  0  0  0  0  0  0
   44.5980   33.8680   41.0110 N   0  0  0  0  0  0  0  0  0  0  0  0
   44.6170   36.5780   42.8690 H   0  0  0  0  0  0  0  0  0  0  0  0
   42.7550   32.8080   40.0190 O   0  0  0  0  0  0  0  0  0  0  0  0
   41.1450   32.9810   37.9190 O   0  0  0  0  0  0  0  0  0  0  0  0
   42.6140   33.0570   38.3570 P   0  0  1  0  0  0  0  0  0  0  0  0
   43.1830   34.6220   38.0110 O   0  0  0  0  0  0  0  0  0  0  0  0
   43.6070   34.5890   37.1250 H   0  0  0  0  0  0  0  0  0  0  0  0
   43.5590   31.9490   37.5150 O   0  0  0  0  0  0  0  0  0  0  0  0
   44.0990   29.8410   38.5360 C   0  0  2  0  0  3  0  0  0  0  0  0
   43.0460   30.6780   37.8110 C   0  0  1  0  0  3  0  0  0  0  0  0
   42.0250   30.7180   38.7260 O   0  0  0  0  0  0  0  0  0  0  0  0
   41.8960   29.4310   39.1900 C   0  0  0  0  0  2  0  0  0  0  0  0
   43.2260   28.7450   39.1150 C   0  0  2  0  0  3  0  0  0  0  0  0
   44.7540   30.5310   39.5250 O   0  0  0  0  0  0  0  0  0  0  0  0
   45.0390   29.9030   40.2320 H   0  0  0  0  0  0  0  0  0  0  0  0
   43.7340   28.3530   40.3450 O   0  0  0  0  0  0  0  0  0  0  0  0
   43.6710   27.3790   40.5050 H   0  0  0  0  0  0  0  0  0  0  0  0
   47.5490   34.5020   40.8050 C   0  0  0  0  0  0  0  0  0  0  0  0
   46.9470   33.9380   40.0820 H   0  0  0  0  0  0  0  0  0  0  0  0
   47.8220   35.4610   40.2850 H   0  0  0  0  0  0  0  0  0  0  0  0
   48.7970   33.8120   41.1700 C   0  0  0  0  0  0  0  0  0  0  0  0
   49.1120   32.6650   40.4440 C   0  0  0  0  0  0  0  0  0  0  0  0
   50.2590   31.9510   40.7130 C   0  0  0  0  0  0  0  0  0  0  0  0
   51.0680   32.4270   41.7240 N   0  0  0  0  0  0  0  0  0  0  0  0
   50.7190   33.5590   42.4100 C   0  0  0  0  0  0  0  0  0  0  0  0
   49.6110   34.2150   42.1230 N   0  0  0  0  0  0  0  0  0  0  0  0
   50.5430   31.0560   40.1760 H   0  0  0  0  0  0  0  0  0  0  0  0
   51.3910   33.8940   43.2000 H   0  0  0  0  0  0  0  0  0  0  0  0
   48.0150   32.1050   39.1450 S   0  0  0  0  0  0  0  0  0  0  0  0
   48.8280   32.2700   37.5290 C   0  0  0  0  0  0  0  0  0  0  0  0
   49.9230   32.1140   37.6840 H   0  0  0  0  0  0  0  0  0  0  0  0
   48.4670   31.4640   36.8800 H   0  0  0  0  0  0  0  0  0  0  0  0
   48.5010   33.6100   36.9470 C   0  0  0  0  0  0  0  0  0  0  0  0
   47.7960   34.1920   37.5740 H   0  0  0  0  0  0  0  0  0  0  0  0
   49.4480   34.1870   36.9090 H   0  0  0  0  0  0  0  0  0  0  0  0
   48.0390   33.4190   35.6050 N   0  0  0  0  0  0  0  0  0  0  0  0
   48.0200   34.3270   35.0950 H   0  0  0  0  0  0  0  0  0  0  0  0
   48.5980   32.6740   35.1760 H   0  0  0  0  0  0  0  0  0  0  0  0
  1  3  1  0  0  0  0
  1  2  1  0  0  0  0
  4  1  1  0  0  0  0
  4  5  2  0  0  0  0
  5  9  1  0  0  0  0
  6  5  1  0  0  0  0
  7  8  2  0  0  0  0
  7  6  1  0  0  0  0
  8  4  1  0  0  0  0
 10  7  1  0  0  0  0
 12 11  2  6  0  0  0
 12 10  1  0  0  0  0
 13 12  1  0  0  0  0
 14 13  1  0  0  0  0
 15 12  1  0  0  0  0
 16 20  1  0  0  0  0
 16 21  1  1  0  0  0
 17 15  1  1  0  0  0
 17 16  1  0  0  0  0
 17 18  1  0  0  0  0
 18 19  1  0  0  0  0
 20 19  1  0  0  0  0
 20 23  1  1  0  0  0
 21 22  1  0  0  0  0
 23 24  1  0  0  0  0
 25 28  1  0  0  0  0
 25  1  1  0  0  0  0
 26 25  1  0  0  0  0
 27 25  1  0  0  0  0
 28 33  1  0  0  0  0
 29 30  1  0  0  0  0
 29 28  2  0  0  0  0
 30 31  2  0  0  0  0
 31 32  1  0  0  0  0
 32 35  1  0  0  0  0
 33 32  2  0  0  0  0
 34 30  1  0  0  0  0
 36 29  1  0  0  0  0
 37 38  1  0  0  0  0
 37 36  1  0  0  0  0
 39 37  1  0  0  0  0
 40 37  1  0  0  0  0
 40 41  1  0  0  0  0
 42 40  1  0  0  0  0
 43 40  1  0  0  0  0
 44 43  1  0  0  0  0
 45 43  1  0  0  0  0
M  END
>  <minimizedAffinity>
-4.24113894

>  <minimizedRMSD>
2.49181771

$$$$
