
 OpenBabel03252507503D

 45 47  0  0  1  0  0  0  0  0999 V2000
   37.8200   27.5910   43.4740 C   0  0  0  0  0  0  0  0  0  0  0  0
   37.2820   28.1200   44.2880 H   0  0  0  0  0  0  0  0  0  0  0  0
   38.2710   26.6840   43.9620 H   0  0  0  0  0  0  0  0  0  0  0  0
   38.8690   28.5180   42.9780 C   0  0  0  0  0  0  0  0  0  0  0  0
   40.2120   28.0730   42.8590 C   0  0  0  0  0  0  0  0  0  0  0  0
   41.0890   29.5410   42.2250 S   0  0  0  0  0  0  0  0  0  0  0  0
   39.4600   30.5410   42.2250 C   0  0  0  0  0  0  0  0  0  0  0  0
   38.7310   29.7570   42.6140 N   0  0  0  0  0  0  0  0  0  0  0  0
   40.5960   27.0950   43.0920 H   0  0  0  0  0  0  0  0  0  0  0  0
   39.3930   31.8640   41.8210 O   0  0  0  0  0  0  0  0  0  0  0  0
   36.9700   31.5340   40.7960 O   0  0  0  0  0  0  0  0  0  0  0  0
   38.3070   32.2600   40.5940 P   0  0  1  0  0  0  0  0  0  0  0  0
   38.0120   33.9330   40.6740 O   0  0  0  0  0  0  0  0  0  0  0  0
   37.8740   34.2500   39.7540 H   0  0  0  0  0  0  0  0  0  0  0  0
   38.9700   31.9090   39.0880 O   0  0  0  0  0  0  0  0  0  0  0  0
   40.9170   32.2450   37.7200 C   0  0  2  0  0  3  0  0  0  0  0  0
   40.2760   32.4170   39.0970 C   0  0  1  0  0  3  0  0  0  0  0  0
   40.3170   33.7770   39.2690 O   0  0  0  0  0  0  0  0  0  0  0  0
   41.5780   34.1600   38.8800 C   0  0  0  0  0  2  0  0  0  0  0  0
   42.0820   33.2070   37.8370 C   0  0  2  0  0  3  0  0  0  0  0  0
   40.0850   32.5930   36.6860 O   0  0  0  0  0  0  0  0  0  0  0  0
   40.6230   32.9180   35.9240 H   0  0  0  0  0  0  0  0  0  0  0  0
   42.3240   33.7920   36.6030 O   0  0  0  0  0  0  0  0  0  0  0  0
   43.2860   33.9140   36.4070 H   0  0  0  0  0  0  0  0  0  0  0  0
   36.8680   27.1220   42.4210 C   0  0  0  0  0  0  0  0  0  0  0  0
   35.8870   26.9600   42.8820 H   0  0  0  0  0  0  0  0  0  0  0  0
   36.7200   27.9620   41.6880 H   0  0  0  0  0  0  0  0  0  0  0  0
   37.3490   25.9470   41.6740 C   0  0  0  0  0  0  0  0  0  0  0  0
   37.6170   26.1350   40.3200 C   0  0  0  0  0  0  0  0  0  0  0  0
   38.0710   25.0960   39.5380 C   0  0  0  0  0  0  0  0  0  0  0  0
   38.2420   23.8760   40.1600 N   0  0  0  0  0  0  0  0  0  0  0  0
   37.9660   23.7380   41.4930 C   0  0  0  0  0  0  0  0  0  0  0  0
   37.5330   24.7580   42.2090 N   0  0  0  0  0  0  0  0  0  0  0  0
   38.2910   25.1950   38.4840 H   0  0  0  0  0  0  0  0  0  0  0  0
   38.1170   22.7540   41.9370 H   0  0  0  0  0  0  0  0  0  0  0  0
   37.3720   27.7460   39.5790 S   0  0  0  0  0  0  0  0  0  0  0  0
   35.7350   27.8280   38.7940 C   0  0  0  0  0  0  0  0  0  0  0  0
   35.8560   27.5130   37.7290 H   0  0  0  0  0  0  0  0  0  0  0  0
   35.0830   27.0970   39.2840 H   0  0  0  0  0  0  0  0  0  0  0  0
   35.1880   29.2130   38.9380 C   0  0  0  0  0  0  0  0  0  0  0  0
   35.9760   29.9930   38.9200 H   0  0  0  0  0  0  0  0  0  0  0  0
   34.5340   29.3970   38.0600 H   0  0  0  0  0  0  0  0  0  0  0  0
   34.3760   29.2580   40.1180 N   0  0  0  0  0  0  0  0  0  0  0  0
   33.8010   30.1250   40.1290 H   0  0  0  0  0  0  0  0  0  0  0  0
   33.8600   28.3740   40.1850 H   0  0  0  0  0  0  0  0  0  0  0  0
  1  3  1  0  0  0  0
  1  2  1  0  0  0  0
  4  1  1  0  0  0  0
  5  4  2  0  0  0  0
  5  9  1  0  0  0  0
  6  5  1  0  0  0  0
  7  6  1  0  0  0  0
  7  8  2  0  0  0  0
  8  4  1  0  0  0  0
 10  7  1  0  0  0  0
 12 13  1  0  0  0  0
 12 11  2  1  0  0  0
 12 10  1  0  0  0  0
 14 13  1  0  0  0  0
 15 12  1  0  0  0  0
 16 21  1  6  0  0  0
 16 20  1  0  0  0  0
 16 17  1  0  0  0  0
 17 15  1  6  0  0  0
 17 18  1  0  0  0  0
 19 18  1  0  0  0  0
 20 23  1  6  0  0  0
 20 19  1  0  0  0  0
 22 21  1  0  0  0  0
 24 23  1  0  0  0  0
 25 26  1  0  0  0  0
 25  1  1  0  0  0  0
 27 25  1  0  0  0  0
 28 33  1  0  0  0  0
 28 25  1  0  0  0  0
 29 28  2  0  0  0  0
 30 31  2  0  0  0  0
 30 29  1  0  0  0  0
 31 32  1  0  0  0  0
 32 35  1  0  0  0  0
 32 33  2  0  0  0  0
 34 30  1  0  0  0  0
 36 29  1  0  0  0  0
 37 40  1  0  0  0  0
 37 39  1  0  0  0  0
 37 36  1  0  0  0  0
 38 37  1  0  0  0  0
 40 43  1  0  0  0  0
 41 40  1  0  0  0  0
 42 40  1  0  0  0  0
 43 44  1  0  0  0  0
 43 45  1  0  0  0  0
M  END
>  <minimizedAffinity>
-6.23553991

$$$$

 OpenBabel03252507503D

 45 47  0  0  1  0  0  0  0  0999 V2000
   35.8750   29.0420   37.9700 C   0  0  0  0  0  0  0  0  0  0  0  0
   36.0290   29.4110   39.0060 H   0  0  0  0  0  0  0  0  0  0  0  0
   34.7910   29.2390   37.7470 H   0  0  0  0  0  0  0  0  0  0  0  0
   36.1710   27.5870   37.9840 C   0  0  0  0  0  0  0  0  0  0  0  0
   35.6600   26.7490   36.9590 C   0  0  0  0  0  0  0  0  0  0  0  0
   36.2860   25.0970   37.4120 S   0  0  0  0  0  0  0  0  0  0  0  0
   37.1560   25.8250   38.9500 C   0  0  0  0  0  0  0  0  0  0  0  0
   36.8740   26.9250   38.8520 N   0  0  0  0  0  0  0  0  0  0  0  0
   35.0500   27.0420   36.1210 H   0  0  0  0  0  0  0  0  0  0  0  0
   37.8910   25.0510   39.8320 O   0  0  0  0  0  0  0  0  0  0  0  0
   35.7210   23.6610   40.4600 O   0  0  0  0  0  0  0  0  0  0  0  0
   37.0510   24.1900   41.0140 P   0  0  1  0  0  0  0  0  0  0  0  0
   38.0000   22.8530   41.4640 O   0  0  0  0  0  0  0  0  0  0  0  0
   37.8410   22.6890   42.4200 H   0  0  0  0  0  0  0  0  0  0  0  0
   36.8050   25.1490   42.3750 O   0  0  0  0  0  0  0  0  0  0  0  0
   37.0200   27.5420   42.4730 C   0  0  2  0  0  3  0  0  0  0  0  0
   37.7300   26.1990   42.2970 C   0  0  1  0  0  3  0  0  0  0  0  0
   38.6200   26.2020   43.3410 O   0  0  0  0  0  0  0  0  0  0  0  0
   39.1860   27.4540   43.3390 C   0  0  0  0  0  2  0  0  0  0  0  0
   38.2020   28.4390   42.7820 C   0  0  2  0  0  3  0  0  0  0  0  0
   36.1090   27.5430   43.5000 O   0  0  0  0  0  0  0  0  0  0  0  0
   36.0390   28.4530   43.8760 H   0  0  0  0  0  0  0  0  0  0  0  0
   37.8120   29.4220   43.6800 O   0  0  0  0  0  0  0  0  0  0  0  0
   38.2170   30.3050   43.4960 H   0  0  0  0  0  0  0  0  0  0  0  0
   36.6950   29.8260   36.9970 C   0  0  0  0  0  0  0  0  0  0  0  0
   36.5060   29.4400   35.9880 H   0  0  0  0  0  0  0  0  0  0  0  0
   36.3100   30.8830   36.9900 H   0  0  0  0  0  0  0  0  0  0  0  0
   38.1280   29.8680   37.3330 C   0  0  0  0  0  0  0  0  0  0  0  0
   38.5770   30.9980   38.0130 C   0  0  0  0  0  0  0  0  0  0  0  0
   39.9010   31.1280   38.3720 C   0  0  0  0  0  0  0  0  0  0  0  0
   40.7450   30.0930   38.0260 N   0  0  0  0  0  0  0  0  0  0  0  0
   40.2600   29.0010   37.3580 C   0  0  0  0  0  0  0  0  0  0  0  0
   38.9840   28.9140   37.0320 N   0  0  0  0  0  0  0  0  0  0  0  0
   40.2930   31.9870   38.8990 H   0  0  0  0  0  0  0  0  0  0  0  0
   40.9660   28.2110   37.1080 H   0  0  0  0  0  0  0  0  0  0  0  0
   37.4250   32.3030   38.4290 S   0  0  0  0  0  0  0  0  0  0  0  0
   37.2360   32.4160   40.2330 C   0  0  0  0  0  0  0  0  0  0  0  0
   38.1350   32.9450   40.6330 H   0  0  0  0  0  0  0  0  0  0  0  0
   36.3620   33.0420   40.4470 H   0  0  0  0  0  0  0  0  0  0  0  0
   37.0620   31.0420   40.7990 C   0  0  0  0  0  0  0  0  0  0  0  0
   37.2580   30.2420   40.0560 H   0  0  0  0  0  0  0  0  0  0  0  0
   37.8160   30.9240   41.6040 H   0  0  0  0  0  0  0  0  0  0  0  0
   35.7590   30.9580   41.3880 N   0  0  0  0  0  0  0  0  0  0  0  0
   35.6850   30.1090   41.9850 H   0  0  0  0  0  0  0  0  0  0  0  0
   35.5580   31.8510   41.8500 H   0  0  0  0  0  0  0  0  0  0  0  0
  1  4  1  0  0  0  0
  1  2  1  0  0  0  0
  3  1  1  0  0  0  0
  4  8  1  0  0  0  0
  5  6  1  0  0  0  0
  5  4  2  0  0  0  0
  6  7  1  0  0  0  0
  7 10  1  0  0  0  0
  8  7  2  0  0  0  0
  9  5  1  0  0  0  0
 10 12  1  0  0  0  0
 12 11  2  6  0  0  0
 12 13  1  0  0  0  0
 12 15  1  0  0  0  0
 13 14  1  0  0  0  0
 16 20  1  0  0  0  0
 16 21  1  1  0  0  0
 17 15  1  1  0  0  0
 17 16  1  0  0  0  0
 17 18  1  0  0  0  0
 19 18  1  0  0  0  0
 20 19  1  0  0  0  0
 20 23  1  1  0  0  0
 21 22  1  0  0  0  0
 24 23  1  0  0  0  0
 25 28  1  0  0  0  0
 25  1  1  0  0  0  0
 26 25  1  0  0  0  0
 27 25  1  0  0  0  0
 28 29  1  0  0  0  0
 29 30  2  0  0  0  0
 29 36  1  0  0  0  0
 30 34  1  0  0  0  0
 31 30  1  0  0  0  0
 32 31  2  0  0  0  0
 33 28  2  0  0  0  0
 33 32  1  0  0  0  0
 35 32  1  0  0  0  0
 36 37  1  0  0  0  0
 37 39  1  0  0  0  0
 37 38  1  0  0  0  0
 37 40  1  0  0  0  0
 40 43  1  0  0  0  0
 40 42  1  0  0  0  0
 41 40  1  0  0  0  0
 43 45  1  0  0  0  0
 43 44  1  0  0  0  0
M  END
>  <minimizedAffinity>
-5.48932695

$$$$

 OpenBabel03252507503D

 45 47  0  0  1  0  0  0  0  0999 V2000
   36.8350   27.7550   42.9140 C   0  0  0  0  0  0  0  0  0  0  0  0
   35.8320   27.4970   43.3130 H   0  0  0  0  0  0  0  0  0  0  0  0
   37.3670   28.2650   43.7630 H   0  0  0  0  0  0  0  0  0  0  0  0
   36.6200   28.6810   41.7720 C   0  0  0  0  0  0  0  0  0  0  0  0
   36.0780   28.1930   40.5550 C   0  0  0  0  0  0  0  0  0  0  0  0
   36.0110   29.6770   39.4970 S   0  0  0  0  0  0  0  0  0  0  0  0
   36.7440   30.7400   40.9060 C   0  0  0  0  0  0  0  0  0  0  0  0
   36.8720   29.9530   41.7200 N   0  0  0  0  0  0  0  0  0  0  0  0
   35.7830   27.1810   40.3330 H   0  0  0  0  0  0  0  0  0  0  0  0
   36.9840   32.0970   40.7720 O   0  0  0  0  0  0  0  0  0  0  0  0
   38.7420   34.0800   40.8550 O   0  0  0  0  0  0  0  0  0  0  0  0
   38.5740   32.5950   40.5110 P   0  0  1  0  0  0  0  0  0  0  0  0
   39.5820   31.6990   41.5480 O   0  0  0  0  0  0  0  0  0  0  0  0
   40.4330   31.5560   41.0770 H   0  0  0  0  0  0  0  0  0  0  0  0
   39.0330   32.2820   38.9230 O   0  0  0  0  0  0  0  0  0  0  0  0
   40.8880   31.6050   37.5520 C   0  0  2  0  0  3  0  0  0  0  0  0
   40.3720   31.8700   38.9670 C   0  0  1  0  0  3  0  0  0  0  0  0
   41.2180   32.8550   39.4060 O   0  0  0  0  0  0  0  0  0  0  0  0
   42.4780   32.4510   39.0380 C   0  0  0  0  0  2  0  0  0  0  0  0
   42.3840   31.6070   37.8010 C   0  0  2  0  0  3  0  0  0  0  0  0
   40.5310   32.5770   36.6530 O   0  0  0  0  0  0  0  0  0  0  0  0
   41.2160   32.6410   35.9460 H   0  0  0  0  0  0  0  0  0  0  0  0
   43.0340   32.1410   36.6990 O   0  0  0  0  0  0  0  0  0  0  0  0
   43.8830   31.6820   36.4830 H   0  0  0  0  0  0  0  0  0  0  0  0
   37.6040   26.5200   42.5650 C   0  0  0  0  0  0  0  0  0  0  0  0
   37.2570   25.6990   43.2040 H   0  0  0  0  0  0  0  0  0  0  0  0
   37.3260   26.2230   41.5170 H   0  0  0  0  0  0  0  0  0  0  0  0
   39.0640   26.7020   42.6140 C   0  0  0  0  0  0  0  0  0  0  0  0
   39.7770   26.3420   41.4720 C   0  0  0  0  0  0  0  0  0  0  0  0
   41.1470   26.4770   41.4220 C   0  0  0  0  0  0  0  0  0  0  0  0
   41.7660   26.9800   42.5480 N   0  0  0  0  0  0  0  0  0  0  0  0
   41.0250   27.3210   43.6470 C   0  0  0  0  0  0  0  0  0  0  0  0
   39.7140   27.1780   43.6560 N   0  0  0  0  0  0  0  0  0  0  0  0
   41.7400   26.2090   40.5580 H   0  0  0  0  0  0  0  0  0  0  0  0
   41.5610   27.7140   44.5100 H   0  0  0  0  0  0  0  0  0  0  0  0
   38.9070   25.6950   40.0480 S   0  0  0  0  0  0  0  0  0  0  0  0
   39.1410   23.8960   39.9390 C   0  0  0  0  0  0  0  0  0  0  0  0
   39.0430   23.6080   38.8640 H   0  0  0  0  0  0  0  0  0  0  0  0
   40.1660   23.6640   40.2520 H   0  0  0  0  0  0  0  0  0  0  0  0
   38.1460   23.2140   40.8240 C   0  0  0  0  0  0  0  0  0  0  0  0
   38.2360   23.5170   41.8870 H   0  0  0  0  0  0  0  0  0  0  0  0
   37.1390   23.5310   40.4850 H   0  0  0  0  0  0  0  0  0  0  0  0
   38.2610   21.8000   40.6280 N   0  0  0  0  0  0  0  0  0  0  0  0
   37.4440   21.3090   41.0460 H   0  0  0  0  0  0  0  0  0  0  0  0
   38.4280   21.6270   39.6320 H   0  0  0  0  0  0  0  0  0  0  0  0
  1  2  1  0  0  0  0
  1  3  1  0  0  0  0
  4  1  1  0  0  0  0
  5  4  2  0  0  0  0
  6  5  1  0  0  0  0
  6  7  1  0  0  0  0
  7  8  2  0  0  0  0
  8  4  1  0  0  0  0
  9  5  1  0  0  0  0
 10  7  1  0  0  0  0
 12 10  1  0  0  0  0
 12 11  2  1  0  0  0
 12 13  1  0  0  0  0
 14 13  1  0  0  0  0
 15 12  1  0  0  0  0
 16 21  1  6  0  0  0
 16 20  1  0  0  0  0
 16 17  1  0  0  0  0
 17 15  1  6  0  0  0
 17 18  1  0  0  0  0
 19 18  1  0  0  0  0
 20 23  1  6  0  0  0
 20 19  1  0  0  0  0
 22 21  1  0  0  0  0
 24 23  1  0  0  0  0
 25 28  1  0  0  0  0
 25  1  1  0  0  0  0
 25 26  1  0  0  0  0
 27 25  1  0  0  0  0
 28 33  1  0  0  0  0
 29 28  2  0  0  0  0
 30 29  1  0  0  0  0
 30 31  2  0  0  0  0
 31 32  1  0  0  0  0
 32 33  2  0  0  0  0
 32 35  1  0  0  0  0
 34 30  1  0  0  0  0
 36 29  1  0  0  0  0
 37 36  1  0  0  0  0
 37 39  1  0  0  0  0
 37 40  1  0  0  0  0
 38 37  1  0  0  0  0
 40 41  1  0  0  0  0
 42 40  1  0  0  0  0
 43 40  1  0  0  0  0
 43 44  1  0  0  0  0
 45 43  1  0  0  0  0
M  END
>  <minimizedAffinity>
-5.40416527

$$$$

 OpenBabel03252507503D

 45 47  0  0  1  0  0  0  0  0999 V2000
   36.9720   26.0260   40.6040 C   0  0  0  0  0  0  0  0  0  0  0  0
   36.0040   25.6150   40.9610 H   0  0  0  0  0  0  0  0  0  0  0  0
   37.7160   25.1970   40.7510 H   0  0  0  0  0  0  0  0  0  0  0  0
   37.2850   27.1960   41.4640 C   0  0  0  0  0  0  0  0  0  0  0  0
   37.3340   27.0470   42.8750 C   0  0  0  0  0  0  0  0  0  0  0  0
   37.7460   28.7230   43.4640 S   0  0  0  0  0  0  0  0  0  0  0  0
   37.7850   29.3680   41.6650 C   0  0  0  0  0  0  0  0  0  0  0  0
   37.5370   28.4140   41.0930 N   0  0  0  0  0  0  0  0  0  0  0  0
   37.1660   26.1460   43.4400 H   0  0  0  0  0  0  0  0  0  0  0  0
   38.0630   30.6870   41.3480 O   0  0  0  0  0  0  0  0  0  0  0  0
   35.8000   30.7420   39.9660 O   0  0  0  0  0  0  0  0  0  0  0  0
   37.1790   31.4020   40.1030 P   0  0  1  0  0  0  0  0  0  0  0  0
   36.9400   33.0380   40.5020 O   0  0  0  0  0  0  0  0  0  0  0  0
   36.9470   33.5480   39.6610 H   0  0  0  0  0  0  0  0  0  0  0  0
   38.0350   31.3270   38.6570 O   0  0  0  0  0  0  0  0  0  0  0  0
   40.1730   31.7870   37.6590 C   0  0  2  0  0  3  0  0  0  0  0  0
   39.3290   31.7910   38.9330 C   0  0  1  0  0  3  0  0  0  0  0  0
   39.3550   33.1130   39.2960 O   0  0  0  0  0  0  0  0  0  0  0  0
   40.6630   33.5080   39.1590 C   0  0  0  0  0  2  0  0  0  0  0  0
   41.3140   32.6910   38.0830 C   0  0  2  0  0  3  0  0  0  0  0  0
   39.5130   32.2960   36.5690 O   0  0  0  0  0  0  0  0  0  0  0  0
   40.1640   32.7050   35.9500 H   0  0  0  0  0  0  0  0  0  0  0  0
   41.7480   33.4300   36.9920 O   0  0  0  0  0  0  0  0  0  0  0  0
   42.7290   33.5490   36.9630 H   0  0  0  0  0  0  0  0  0  0  0  0
   36.9130   26.3380   39.1430 C   0  0  0  0  0  0  0  0  0  0  0  0
   36.2520   27.2010   38.9940 H   0  0  0  0  0  0  0  0  0  0  0  0
   37.9330   26.6830   38.8200 H   0  0  0  0  0  0  0  0  0  0  0  0
   36.5390   25.1830   38.3090 C   0  0  0  0  0  0  0  0  0  0  0  0
   35.8140   25.4570   37.1520 C   0  0  0  0  0  0  0  0  0  0  0  0
   35.4190   24.4420   36.3080 C   0  0  0  0  0  0  0  0  0  0  0  0
   35.7750   23.1590   36.6670 N   0  0  0  0  0  0  0  0  0  0  0  0
   36.4890   22.9360   37.8130 C   0  0  0  0  0  0  0  0  0  0  0  0
   36.8490   23.9360   38.5960 N   0  0  0  0  0  0  0  0  0  0  0  0
   34.8540   24.6080   35.4000 H   0  0  0  0  0  0  0  0  0  0  0  0
   36.7460   21.9050   38.0530 H   0  0  0  0  0  0  0  0  0  0  0  0
   35.3850   27.1480   36.7490 S   0  0  0  0  0  0  0  0  0  0  0  0
   36.4470   27.7570   35.4060 C   0  0  0  0  0  0  0  0  0  0  0  0
   36.4850   26.9640   34.6200 H   0  0  0  0  0  0  0  0  0  0  0  0
   35.9680   28.6380   34.9640 H   0  0  0  0  0  0  0  0  0  0  0  0
   37.7940   28.1020   35.9590 C   0  0  0  0  0  0  0  0  0  0  0  0
   38.0670   27.4900   36.8420 H   0  0  0  0  0  0  0  0  0  0  0  0
   38.5380   27.8750   35.1680 H   0  0  0  0  0  0  0  0  0  0  0  0
   37.8290   29.5110   36.2160 N   0  0  0  0  0  0  0  0  0  0  0  0
   38.8080   29.8250   36.3820 H   0  0  0  0  0  0  0  0  0  0  0  0
   37.3260   29.9870   35.4600 H   0  0  0  0  0  0  0  0  0  0  0  0
  1  3  1  0  0  0  0
  1  2  1  0  0  0  0
  1  4  1  0  0  0  0
  4  5  2  0  0  0  0
  5  9  1  0  0  0  0
  5  6  1  0  0  0  0
  7  6  1  0  0  0  0
  8  4  1  0  0  0  0
  8  7  2  0  0  0  0
 10  7  1  0  0  0  0
 12 11  2  6  0  0  0
 12 13  1  0  0  0  0
 12 10  1  0  0  0  0
 14 13  1  0  0  0  0
 15 12  1  0  0  0  0
 16 21  1  6  0  0  0
 16 20  1  0  0  0  0
 16 17  1  0  0  0  0
 17 15  1  6  0  0  0
 17 18  1  0  0  0  0
 19 18  1  0  0  0  0
 20 23  1  6  0  0  0
 20 19  1  0  0  0  0
 22 21  1  0  0  0  0
 24 23  1  0  0  0  0
 25  1  1  0  0  0  0
 26 25  1  0  0  0  0
 27 25  1  0  0  0  0
 28 33  1  0  0  0  0
 28 25  1  0  0  0  0
 29 28  2  0  0  0  0
 30 31  2  0  0  0  0
 30 29  1  0  0  0  0
 31 32  1  0  0  0  0
 32 35  1  0  0  0  0
 32 33  2  0  0  0  0
 34 30  1  0  0  0  0
 36 29  1  0  0  0  0
 37 40  1  0  0  0  0
 37 36  1  0  0  0  0
 38 37  1  0  0  0  0
 39 37  1  0  0  0  0
 40 43  1  0  0  0  0
 40 41  1  0  0  0  0
 42 40  1  0  0  0  0
 43 44  1  0  0  0  0
 45 43  1  0  0  0  0
M  END
>  <minimizedAffinity>
-5.26683092

$$$$

 OpenBabel03252507503D

 45 47  0  0  1  0  0  0  0  0999 V2000
   41.4050   29.1240   42.8440 C   0  0  0  0  0  0  0  0  0  0  0  0
   40.8190   29.2480   43.7790 H   0  0  0  0  0  0  0  0  0  0  0  0
   42.2210   28.3960   43.1030 H   0  0  0  0  0  0  0  0  0  0  0  0
   41.9580   30.4600   42.5030 C   0  0  0  0  0  0  0  0  0  0  0  0
   43.0670   30.9750   43.2240 C   0  0  0  0  0  0  0  0  0  0  0  0
   43.3590   32.5990   42.4480 S   0  0  0  0  0  0  0  0  0  0  0  0
   41.9000   32.3110   41.2470 C   0  0  0  0  0  0  0  0  0  0  0  0
   41.5500   31.2810   41.5830 N   0  0  0  0  0  0  0  0  0  0  0  0
   43.5940   30.4990   44.0330 H   0  0  0  0  0  0  0  0  0  0  0  0
   41.5250   33.2380   40.2890 O   0  0  0  0  0  0  0  0  0  0  0  0
   41.4270   33.3700   37.6430 O   0  0  0  0  0  0  0  0  0  0  0  0
   40.8280   32.6630   38.8660 P   0  0  1  0  0  0  0  0  0  0  0  0
   41.1830   31.0050   38.7400 O   0  0  0  0  0  0  0  0  0  0  0  0
   40.4150   30.5730   38.3030 H   0  0  0  0  0  0  0  0  0  0  0  0
   39.1560   32.8460   38.9160 O   0  0  0  0  0  0  0  0  0  0  0  0
   37.6750   32.1520   40.6770 C   0  0  2  0  0  3  0  0  0  0  0  0
   38.6500   31.7210   39.5810 C   0  0  1  0  0  3  0  0  0  0  0  0
   37.8590   30.9390   38.7790 O   0  0  0  0  0  0  0  0  0  0  0  0
   37.1520   30.1290   39.6350 C   0  0  0  0  0  2  0  0  0  0  0  0
   36.9620   30.8410   40.9420 C   0  0  2  0  0  3  0  0  0  0  0  0
   36.7960   33.1240   40.2700 O   0  0  0  0  0  0  0  0  0  0  0  0
   35.9510   33.0370   40.7730 H   0  0  0  0  0  0  0  0  0  0  0  0
   35.6360   31.0920   41.2640 O   0  0  0  0  0  0  0  0  0  0  0  0
   35.2850   30.5010   41.9740 H   0  0  0  0  0  0  0  0  0  0  0  0
   40.5680   28.5130   41.7660 C   0  0  0  0  0  0  0  0  0  0  0  0
   40.5650   29.1860   40.9000 H   0  0  0  0  0  0  0  0  0  0  0  0
   41.0820   27.5770   41.4150 H   0  0  0  0  0  0  0  0  0  0  0  0
   39.2130   28.1480   42.2090 C   0  0  0  0  0  0  0  0  0  0  0  0
   38.5570   27.1650   41.4700 C   0  0  0  0  0  0  0  0  0  0  0  0
   37.2860   26.7560   41.8080 C   0  0  0  0  0  0  0  0  0  0  0  0
   36.7050   27.3640   42.9020 N   0  0  0  0  0  0  0  0  0  0  0  0
   37.3870   28.3250   43.5990 C   0  0  0  0  0  0  0  0  0  0  0  0
   38.6040   28.6890   43.2440 N   0  0  0  0  0  0  0  0  0  0  0  0
   36.7400   25.9980   41.2640 H   0  0  0  0  0  0  0  0  0  0  0  0
   36.8850   28.7740   44.4550 H   0  0  0  0  0  0  0  0  0  0  0  0
   39.3720   26.4200   40.0620 S   0  0  0  0  0  0  0  0  0  0  0  0
   38.7240   27.1300   38.5190 C   0  0  0  0  0  0  0  0  0  0  0  0
   38.4470   26.2810   37.8480 H   0  0  0  0  0  0  0  0  0  0  0  0
   37.8060   27.6800   38.7550 H   0  0  0  0  0  0  0  0  0  0  0  0
   39.7530   28.0390   37.9240 C   0  0  0  0  0  0  0  0  0  0  0  0
   39.9340   28.9450   38.5370 H   0  0  0  0  0  0  0  0  0  0  0  0
   40.7080   27.4740   37.8970 H   0  0  0  0  0  0  0  0  0  0  0  0
   39.3690   28.3350   36.5760 N   0  0  0  0  0  0  0  0  0  0  0  0
   40.1620   28.7710   36.0610 H   0  0  0  0  0  0  0  0  0  0  0  0
   38.9750   27.4850   36.1610 H   0  0  0  0  0  0  0  0  0  0  0  0
  1  3  1  0  0  0  0
  1  2  1  0  0  0  0
  4  1  1  0  0  0  0
  4  5  2  0  0  0  0
  5  9  1  0  0  0  0
  6  5  1  0  0  0  0
  7  8  2  0  0  0  0
  7  6  1  0  0  0  0
  8  4  1  0  0  0  0
 10  7  1  0  0  0  0
 12 11  2  6  0  0  0
 12 15  1  0  0  0  0
 12 10  1  0  0  0  0
 13 12  1  0  0  0  0
 14 13  1  0  0  0  0
 16 21  1  6  0  0  0
 16 20  1  0  0  0  0
 17 15  1  6  0  0  0
 17 16  1  0  0  0  0
 18 17  1  0  0  0  0
 18 19  1  0  0  0  0
 19 20  1  0  0  0  0
 20 23  1  6  0  0  0
 21 22  1  0  0  0  0
 23 24  1  0  0  0  0
 25 28  1  0  0  0  0
 25  1  1  0  0  0  0
 26 25  1  0  0  0  0
 27 25  1  0  0  0  0
 28 33  1  0  0  0  0
 29 30  1  0  0  0  0
 29 28  2  0  0  0  0
 30 31  2  0  0  0  0
 31 32  1  0  0  0  0
 32 35  1  0  0  0  0
 33 32  2  0  0  0  0
 34 30  1  0  0  0  0
 36 29  1  0  0  0  0
 37 39  1  0  0  0  0
 37 36  1  0  0  0  0
 38 37  1  0  0  0  0
 40 37  1  0  0  0  0
 40 41  1  0  0  0  0
 42 40  1  0  0  0  0
 43 40  1  0  0  0  0
 44 43  1  0  0  0  0
 45 43  1  0  0  0  0
M  END
>  <minimizedAffinity>
-5.23233986

$$$$

 OpenBabel03252507503D

 45 47  0  0  1  0  0  0  0  0999 V2000
   37.4480   29.0370   42.8200 C   0  0  0  0  0  0  0  0  0  0  0  0
   36.5310   29.3080   43.3850 H   0  0  0  0  0  0  0  0  0  0  0  0
   38.2990   29.2490   43.5240 H   0  0  0  0  0  0  0  0  0  0  0  0
   37.4970   29.9220   41.6280 C   0  0  0  0  0  0  0  0  0  0  0  0
   36.2920   30.3760   41.0320 C   0  0  0  0  0  0  0  0  0  0  0  0
   36.8690   31.4040   39.6400 S   0  0  0  0  0  0  0  0  0  0  0  0
   38.6890   31.0430   40.1020 C   0  0  0  0  0  0  0  0  0  0  0  0
   38.5470   30.3700   41.0100 N   0  0  0  0  0  0  0  0  0  0  0  0
   35.2860   30.1530   41.3460 H   0  0  0  0  0  0  0  0  0  0  0  0
   39.7580   31.5600   39.3910 O   0  0  0  0  0  0  0  0  0  0  0  0
   39.9120   34.1540   39.9170 O   0  0  0  0  0  0  0  0  0  0  0  0
   40.6390   32.8150   40.0920 P   0  0  1  0  0  0  0  0  0  0  0  0
   40.7640   32.5000   41.7590 O   0  0  0  0  0  0  0  0  0  0  0  0
   41.6370   32.8410   42.0560 H   0  0  0  0  0  0  0  0  0  0  0  0
   42.1910   32.8750   39.4450 O   0  0  0  0  0  0  0  0  0  0  0  0
   42.4990   32.0850   37.1960 C   0  0  2  0  0  3  0  0  0  0  0  0
   42.3490   31.7170   38.6720 C   0  0  1  0  0  3  0  0  0  0  0  0
   43.5250   31.0610   38.9300 O   0  0  0  0  0  0  0  0  0  0  0  0
   43.7110   30.2070   37.8710 C   0  0  0  0  0  2  0  0  0  0  0  0
   43.0690   30.7910   36.6480 C   0  0  2  0  0  3  0  0  0  0  0  0
   43.3550   33.1370   36.9830 O   0  0  0  0  0  0  0  0  0  0  0  0
   43.7790   33.0420   36.0970 H   0  0  0  0  0  0  0  0  0  0  0  0
   43.9570   31.0770   35.6210 O   0  0  0  0  0  0  0  0  0  0  0  0
   43.9100   30.4350   34.8700 H   0  0  0  0  0  0  0  0  0  0  0  0
   37.4670   27.5760   42.5020 C   0  0  0  0  0  0  0  0  0  0  0  0
   36.5950   27.1040   42.9690 H   0  0  0  0  0  0  0  0  0  0  0  0
   37.3130   27.4610   41.3940 H   0  0  0  0  0  0  0  0  0  0  0  0
   38.7330   26.9130   42.8550 C   0  0  0  0  0  0  0  0  0  0  0  0
   38.8120   25.5450   42.6060 C   0  0  0  0  0  0  0  0  0  0  0  0
   39.9560   24.8360   42.9030 C   0  0  0  0  0  0  0  0  0  0  0  0
   41.0030   25.5460   43.4530 N   0  0  0  0  0  0  0  0  0  0  0  0
   40.8820   26.8900   43.6800 C   0  0  0  0  0  0  0  0  0  0  0  0
   39.7690   27.5330   43.3810 N   0  0  0  0  0  0  0  0  0  0  0  0
   40.0610   23.7740   42.7270 H   0  0  0  0  0  0  0  0  0  0  0  0
   41.7370   27.4050   44.1150 H   0  0  0  0  0  0  0  0  0  0  0  0
   37.4120   24.6880   41.8910 S   0  0  0  0  0  0  0  0  0  0  0  0
   37.6280   24.5330   40.0930 C   0  0  0  0  0  0  0  0  0  0  0  0
   36.6380   24.7330   39.6160 H   0  0  0  0  0  0  0  0  0  0  0  0
   38.3190   25.3170   39.7620 H   0  0  0  0  0  0  0  0  0  0  0  0
   38.1710   23.1750   39.7770 C   0  0  0  0  0  0  0  0  0  0  0  0
   37.6590   22.6960   38.9170 H   0  0  0  0  0  0  0  0  0  0  0  0
   39.2320   23.3100   39.4840 H   0  0  0  0  0  0  0  0  0  0  0  0
   38.1320   22.3830   40.9700 N   0  0  0  0  0  0  0  0  0  0  0  0
   38.7030   21.5210   40.8510 H   0  0  0  0  0  0  0  0  0  0  0  0
   38.3820   22.9840   41.7610 H   0  0  0  0  0  0  0  0  0  0  0  0
  1  2  1  0  0  0  0
  1  3  1  0  0  0  0
  4  1  1  0  0  0  0
  5  9  1  0  0  0  0
  5  4  2  0  0  0  0
  6  7  1  0  0  0  0
  6  5  1  0  0  0  0
  7  8  2  0  0  0  0
  8  4  1  0  0  0  0
 10 12  1  0  0  0  0
 10  7  1  0  0  0  0
 12 11  2  6  0  0  0
 12 13  1  0  0  0  0
 13 14  1  0  0  0  0
 15 12  1  0  0  0  0
 16 21  1  1  0  0  0
 16 17  1  0  0  0  0
 17 18  1  0  0  0  0
 17 15  1  1  0  0  0
 19 18  1  0  0  0  0
 20 23  1  6  0  0  0
 20 16  1  0  0  0  0
 20 19  1  0  0  0  0
 22 21  1  0  0  0  0
 24 23  1  0  0  0  0
 25  1  1  0  0  0  0
 25 28  1  0  0  0  0
 25 26  1  0  0  0  0
 27 25  1  0  0  0  0
 28 33  1  0  0  0  0
 29 28  2  0  0  0  0
 29 30  1  0  0  0  0
 30 31  2  0  0  0  0
 31 32  1  0  0  0  0
 32 35  1  0  0  0  0
 33 32  2  0  0  0  0
 34 30  1  0  0  0  0
 36 29  1  0  0  0  0
 37 36  1  0  0  0  0
 38 37  1  0  0  0  0
 39 37  1  0  0  0  0
 40 37  1  0  0  0  0
 40 43  1  0  0  0  0
 41 40  1  0  0  0  0
 42 40  1  0  0  0  0
 43 45  1  0  0  0  0
 44 43  1  0  0  0  0
M  END
>  <minimizedAffinity>
-5.23185921

$$$$

 OpenBabel03252507503D

 45 47  0  0  1  0  0  0  0  0999 V2000
   37.1720   25.4330   39.5900 C   0  0  0  0  0  0  0  0  0  0  0  0
   37.9330   24.6250   39.5690 H   0  0  0  0  0  0  0  0  0  0  0  0
   36.1940   24.9210   39.3800 H   0  0  0  0  0  0  0  0  0  0  0  0
   37.5290   26.3870   38.5090 C   0  0  0  0  0  0  0  0  0  0  0  0
   37.2990   26.0410   37.1520 C   0  0  0  0  0  0  0  0  0  0  0  0
   37.8890   27.5040   36.2360 S   0  0  0  0  0  0  0  0  0  0  0  0
   38.3610   28.3650   37.8760 C   0  0  0  0  0  0  0  0  0  0  0  0
   38.0550   27.5680   38.6300 N   0  0  0  0  0  0  0  0  0  0  0  0
   36.8740   25.1250   36.7770 H   0  0  0  0  0  0  0  0  0  0  0  0
   38.9210   29.6310   37.9220 O   0  0  0  0  0  0  0  0  0  0  0  0
   37.9670   31.8670   36.8620 O   0  0  0  0  0  0  0  0  0  0  0  0
   37.8810   30.9480   38.0880 P   0  0  1  0  0  0  0  0  0  0  0  0
   36.2910   30.3510   38.1840 O   0  0  0  0  0  0  0  0  0  0  0  0
   35.7910   30.9470   38.7850 H   0  0  0  0  0  0  0  0  0  0  0  0
   38.2190   31.7880   39.5050 O   0  0  0  0  0  0  0  0  0  0  0  0
   40.0740   33.1830   40.1350 C   0  0  2  0  0  3  0  0  0  0  0  0
   39.6150   31.8130   39.6320 C   0  0  1  0  0  3  0  0  0  0  0  0
   40.0750   30.9740   40.6140 O   0  0  0  0  0  0  0  0  0  0  0  0
   41.3610   31.3810   40.8750 C   0  0  0  0  0  2  0  0  0  0  0  0
   41.4800   32.8490   40.5940 C   0  0  2  0  0  3  0  0  0  0  0  0
   39.3120   33.6640   41.1700 O   0  0  0  0  0  0  0  0  0  0  0  0
   39.8660   34.2440   41.7450 H   0  0  0  0  0  0  0  0  0  0  0  0
   41.7960   33.6160   41.7060 O   0  0  0  0  0  0  0  0  0  0  0  0
   42.7330   33.9330   41.7120 H   0  0  0  0  0  0  0  0  0  0  0  0
   37.0860   26.0500   40.9490 C   0  0  0  0  0  0  0  0  0  0  0  0
   36.7790   27.0970   40.8400 H   0  0  0  0  0  0  0  0  0  0  0  0
   36.2470   25.5490   41.5060 H   0  0  0  0  0  0  0  0  0  0  0  0
   38.3150   25.8950   41.7450 C   0  0  0  0  0  0  0  0  0  0  0  0
   38.4370   26.7070   42.8700 C   0  0  0  0  0  0  0  0  0  0  0  0
   39.5510   26.6340   43.6780 C   0  0  0  0  0  0  0  0  0  0  0  0
   40.5250   25.7270   43.3160 N   0  0  0  0  0  0  0  0  0  0  0  0
   40.3630   24.9490   42.2020 C   0  0  0  0  0  0  0  0  0  0  0  0
   39.2800   25.0480   41.4530 N   0  0  0  0  0  0  0  0  0  0  0  0
   39.6880   27.2450   44.5600 H   0  0  0  0  0  0  0  0  0  0  0  0
   41.1600   24.2480   41.9580 H   0  0  0  0  0  0  0  0  0  0  0  0
   37.1330   27.8630   43.2800 S   0  0  0  0  0  0  0  0  0  0  0  0
   37.3600   29.4120   42.3570 C   0  0  0  0  0  0  0  0  0  0  0  0
   37.3660   30.2480   43.0980 H   0  0  0  0  0  0  0  0  0  0  0  0
   38.3470   29.3850   41.8810 H   0  0  0  0  0  0  0  0  0  0  0  0
   36.2760   29.5400   41.3340 C   0  0  0  0  0  0  0  0  0  0  0  0
   36.5810   29.1690   40.3340 H   0  0  0  0  0  0  0  0  0  0  0  0
   35.4340   28.9010   41.6700 H   0  0  0  0  0  0  0  0  0  0  0  0
   35.8280   30.9010   41.3180 N   0  0  0  0  0  0  0  0  0  0  0  0
   34.9330   30.9820   40.7930 H   0  0  0  0  0  0  0  0  0  0  0  0
   35.8160   31.2450   42.2840 H   0  0  0  0  0  0  0  0  0  0  0  0
  1 25  1  0  0  0  0
  2  1  1  0  0  0  0
  3  1  1  0  0  0  0
  4  8  1  0  0  0  0
  4  1  1  0  0  0  0
  5  4  2  0  0  0  0
  6  5  1  0  0  0  0
  6  7  1  0  0  0  0
  7 10  1  0  0  0  0
  7  8  2  0  0  0  0
  9  5  1  0  0  0  0
 10 12  1  0  0  0  0
 12 11  2  6  0  0  0
 12 13  1  0  0  0  0
 12 15  1  0  0  0  0
 13 14  1  0  0  0  0
 16 20  1  0  0  0  0
 16 21  1  1  0  0  0
 17 15  1  1  0  0  0
 17 16  1  0  0  0  0
 17 18  1  0  0  0  0
 18 19  1  0  0  0  0
 20 19  1  0  0  0  0
 20 23  1  1  0  0  0
 21 22  1  0  0  0  0
 23 24  1  0  0  0  0
 25 27  1  0  0  0  0
 25 28  1  0  0  0  0
 26 25  1  0  0  0  0
 28 29  1  0  0  0  0
 29 36  1  0  0  0  0
 29 30  2  0  0  0  0
 30 34  1  0  0  0  0
 31 30  1  0  0  0  0
 32 31  2  0  0  0  0
 33 28  2  0  0  0  0
 33 32  1  0  0  0  0
 35 32  1  0  0  0  0
 37 38  1  0  0  0  0
 37 36  1  0  0  0  0
 39 37  1  0  0  0  0
 40 42  1  0  0  0  0
 40 37  1  0  0  0  0
 41 40  1  0  0  0  0
 43 40  1  0  0  0  0
 43 45  1  0  0  0  0
 44 43  1  0  0  0  0
M  END
>  <minimizedAffinity>
-5.11654949

$$$$

 OpenBabel03252507503D

 45 47  0  0  1  0  0  0  0  0999 V2000
   37.9390   31.3180   37.0150 C   0  0  0  0  0  0  0  0  0  0  0  0
   38.8780   30.8800   36.6150 H   0  0  0  0  0  0  0  0  0  0  0  0
   37.6100   32.0640   36.2400 H   0  0  0  0  0  0  0  0  0  0  0  0
   38.2860   31.9830   38.2960 C   0  0  0  0  0  0  0  0  0  0  0  0
   37.3920   32.9210   38.8740 C   0  0  0  0  0  0  0  0  0  0  0  0
   38.2500   33.4410   40.3970 S   0  0  0  0  0  0  0  0  0  0  0  0
   39.7130   32.2800   39.9940 C   0  0  0  0  0  0  0  0  0  0  0  0
   39.3580   31.8240   39.0120 N   0  0  0  0  0  0  0  0  0  0  0  0
   36.4370   33.2340   38.4870 H   0  0  0  0  0  0  0  0  0  0  0  0
   40.8260   32.1650   40.8110 O   0  0  0  0  0  0  0  0  0  0  0  0
   41.6150   29.7450   41.5530 O   0  0  0  0  0  0  0  0  0  0  0  0
   40.8100   30.9710   42.0020 P   0  0  1  0  0  0  0  0  0  0  0  0
   41.5560   31.6080   43.3920 O   0  0  0  0  0  0  0  0  0  0  0  0
   41.1040   31.2140   44.1720 H   0  0  0  0  0  0  0  0  0  0  0  0
   39.2280   30.5520   42.3920 O   0  0  0  0  0  0  0  0  0  0  0  0
   38.2750   28.5700   43.3630 C   0  0  2  0  0  3  0  0  0  0  0  0
   39.1350   29.1610   42.2450 C   0  0  1  0  0  3  0  0  0  0  0  0
   38.4440   28.7900   41.1200 O   0  0  0  0  0  0  0  0  0  0  0  0
   38.1110   27.4710   41.3090 C   0  0  0  0  0  2  0  0  0  0  0  0
   37.9660   27.2060   42.7790 C   0  0  2  0  0  3  0  0  0  0  0  0
   37.1270   29.2830   43.6000 O   0  0  0  0  0  0  0  0  0  0  0  0
   36.4250   28.6760   43.9350 H   0  0  0  0  0  0  0  0  0  0  0  0
   36.6900   26.8180   43.1620 O   0  0  0  0  0  0  0  0  0  0  0  0
   36.6190   25.8540   43.3720 H   0  0  0  0  0  0  0  0  0  0  0  0
   36.8720   30.2770   37.1340 C   0  0  0  0  0  0  0  0  0  0  0  0
   36.2140   30.5420   37.9690 H   0  0  0  0  0  0  0  0  0  0  0  0
   36.2270   30.3340   36.2140 H   0  0  0  0  0  0  0  0  0  0  0  0
   37.3980   28.9050   37.2350 C   0  0  0  0  0  0  0  0  0  0  0  0
   36.5670   27.9600   37.8330 C   0  0  0  0  0  0  0  0  0  0  0  0
   36.9700   26.6510   37.9730 C   0  0  0  0  0  0  0  0  0  0  0  0
   38.2240   26.3300   37.4950 N   0  0  0  0  0  0  0  0  0  0  0  0
   39.0060   27.2910   36.9140 C   0  0  0  0  0  0  0  0  0  0  0  0
   38.5840   28.5360   36.7980 N   0  0  0  0  0  0  0  0  0  0  0  0
   36.3590   25.8850   38.4310 H   0  0  0  0  0  0  0  0  0  0  0  0
   39.9880   26.9870   36.5520 H   0  0  0  0  0  0  0  0  0  0  0  0
   34.9520   28.4480   38.4310 S   0  0  0  0  0  0  0  0  0  0  0  0
   35.0670   29.0010   40.1580 C   0  0  0  0  0  0  0  0  0  0  0  0
   34.0530   28.8940   40.6150 H   0  0  0  0  0  0  0  0  0  0  0  0
   35.7430   28.3230   40.6910 H   0  0  0  0  0  0  0  0  0  0  0  0
   35.5820   30.4050   40.1930 C   0  0  0  0  0  0  0  0  0  0  0  0
   36.4320   30.5700   39.5000 H   0  0  0  0  0  0  0  0  0  0  0  0
   34.7570   31.0630   39.8500 H   0  0  0  0  0  0  0  0  0  0  0  0
   35.8880   30.7410   41.5520 N   0  0  0  0  0  0  0  0  0  0  0  0
   36.0290   31.7680   41.6480 H   0  0  0  0  0  0  0  0  0  0  0  0
   35.1680   30.3270   42.1530 H   0  0  0  0  0  0  0  0  0  0  0  0
  1 25  1  0  0  0  0
  1  4  1  0  0  0  0
  2  1  1  0  0  0  0
  3  1  1  0  0  0  0
  4  5  2  0  0  0  0
  4  8  1  0  0  0  0
  5  6  1  0  0  0  0
  7  6  1  0  0  0  0
  7 10  1  0  0  0  0
  8  7  2  0  0  0  0
  9  5  1  0  0  0  0
 10 12  1  0  0  0  0
 12 11  2  6  0  0  0
 12 15  1  0  0  0  0
 12 13  1  0  0  0  0
 13 14  1  0  0  0  0
 16 21  1  6  0  0  0
 17 15  1  1  0  0  0
 17 16  1  0  0  0  0
 18 19  1  0  0  0  0
 18 17  1  0  0  0  0
 19 20  1  0  0  0  0
 20 23  1  6  0  0  0
 20 16  1  0  0  0  0
 21 22  1  0  0  0  0
 23 24  1  0  0  0  0
 25 28  1  0  0  0  0
 25 26  1  0  0  0  0
 27 25  1  0  0  0  0
 28 29  1  0  0  0  0
 29 30  2  0  0  0  0
 29 36  1  0  0  0  0
 30 34  1  0  0  0  0
 31 30  1  0  0  0  0
 32 31  2  0  0  0  0
 33 32  1  0  0  0  0
 33 28  2  0  0  0  0
 35 32  1  0  0  0  0
 36 37  1  0  0  0  0
 37 40  1  0  0  0  0
 37 38  1  0  0  0  0
 37 39  1  0  0  0  0
 40 43  1  0  0  0  0
 41 40  1  0  0  0  0
 42 40  1  0  0  0  0
 43 44  1  0  0  0  0
 43 45  1  0  0  0  0
M  END
>  <minimizedAffinity>
-5.08638811

$$$$

 OpenBabel03252507503D

 45 47  0  0  1  0  0  0  0  0999 V2000
   36.9190   25.7770   40.7390 C   0  0  0  0  0  0  0  0  0  0  0  0
   35.8300   25.6720   40.9260 H   0  0  0  0  0  0  0  0  0  0  0  0
   37.3820   24.8470   41.1710 H   0  0  0  0  0  0  0  0  0  0  0  0
   37.3650   26.9930   41.4670 C   0  0  0  0  0  0  0  0  0  0  0  0
   36.8940   27.2460   42.7820 C   0  0  0  0  0  0  0  0  0  0  0  0
   37.7080   28.8160   43.2280 S   0  0  0  0  0  0  0  0  0  0  0  0
   38.5720   28.8760   41.5240 C   0  0  0  0  0  0  0  0  0  0  0  0
   38.1730   27.9200   41.0510 N   0  0  0  0  0  0  0  0  0  0  0  0
   36.2170   26.6380   43.3590 H   0  0  0  0  0  0  0  0  0  0  0  0
   39.4240   29.9020   41.1530 O   0  0  0  0  0  0  0  0  0  0  0  0
   37.2200   31.3610   40.9380 O   0  0  0  0  0  0  0  0  0  0  0  0
   38.7360   31.3750   40.7030 P   0  0  1  0  0  0  0  0  0  0  0  0
   39.4080   32.5890   41.6870 O   0  0  0  0  0  0  0  0  0  0  0  0
   39.4690   33.4060   41.1430 H   0  0  0  0  0  0  0  0  0  0  0  0
   39.1020   31.7280   39.0990 O   0  0  0  0  0  0  0  0  0  0  0  0
   40.9960   32.2330   37.7080 C   0  0  2  0  0  3  0  0  0  0  0  0
   40.3690   32.3260   39.0990 C   0  0  1  0  0  3  0  0  0  0  0  0
   40.3180   33.6810   39.3050 O   0  0  0  0  0  0  0  0  0  0  0  0
   41.5410   34.1610   38.9060 C   0  0  0  0  0  2  0  0  0  0  0  0
   42.0920   33.2720   37.8310 C   0  0  2  0  0  3  0  0  0  0  0  0
   40.1220   32.5470   36.6970 O   0  0  0  0  0  0  0  0  0  0  0  0
   40.6210   32.9270   35.9350 H   0  0  0  0  0  0  0  0  0  0  0  0
   42.2700   33.9030   36.6080 O   0  0  0  0  0  0  0  0  0  0  0  0
   43.2170   34.0970   36.3990 H   0  0  0  0  0  0  0  0  0  0  0  0
   37.2100   25.7980   39.2730 C   0  0  0  0  0  0  0  0  0  0  0  0
   38.2890   25.6660   39.1270 H   0  0  0  0  0  0  0  0  0  0  0  0
   36.7320   24.8910   38.8110 H   0  0  0  0  0  0  0  0  0  0  0  0
   36.6840   26.9890   38.5860 C   0  0  0  0  0  0  0  0  0  0  0  0
   37.5440   27.6270   37.6940 C   0  0  0  0  0  0  0  0  0  0  0  0
   37.1410   28.7490   37.0040 C   0  0  0  0  0  0  0  0  0  0  0  0
   35.8590   29.2000   37.2400 N   0  0  0  0  0  0  0  0  0  0  0  0
   35.0490   28.5420   38.1250 C   0  0  0  0  0  0  0  0  0  0  0  0
   35.4710   27.4700   38.7670 N   0  0  0  0  0  0  0  0  0  0  0  0
   37.7740   29.2760   36.3030 H   0  0  0  0  0  0  0  0  0  0  0  0
   34.0450   28.9380   38.2770 H   0  0  0  0  0  0  0  0  0  0  0  0
   39.1940   26.9850   37.4370 S   0  0  0  0  0  0  0  0  0  0  0  0
   40.4220   28.3000   37.6960 C   0  0  0  0  0  0  0  0  0  0  0  0
   40.9410   28.4730   36.7220 H   0  0  0  0  0  0  0  0  0  0  0  0
   39.8870   29.2210   37.9540 H   0  0  0  0  0  0  0  0  0  0  0  0
   41.3530   27.8970   38.7950 C   0  0  0  0  0  0  0  0  0  0  0  0
   40.9610   27.0580   39.4060 H   0  0  0  0  0  0  0  0  0  0  0  0
   42.2850   27.5350   38.3150 H   0  0  0  0  0  0  0  0  0  0  0  0
   41.6690   29.0600   39.5690 N   0  0  0  0  0  0  0  0  0  0  0  0
   42.4810   28.8700   40.1930 H   0  0  0  0  0  0  0  0  0  0  0  0
   41.7710   29.8530   38.9280 H   0  0  0  0  0  0  0  0  0  0  0  0
  1  2  1  0  0  0  0
  1  3  1  0  0  0  0
  1  4  1  0  0  0  0
  4  5  2  0  0  0  0
  5  6  1  0  0  0  0
  5  9  1  0  0  0  0
  7  6  1  0  0  0  0
  8  4  1  0  0  0  0
  8  7  2  0  0  0  0
 10  7  1  0  0  0  0
 12 11  2  1  0  0  0
 12 10  1  0  0  0  0
 12 13  1  0  0  0  0
 14 13  1  0  0  0  0
 15 12  1  0  0  0  0
 16 21  1  6  0  0  0
 16 20  1  0  0  0  0
 16 17  1  0  0  0  0
 17 15  1  6  0  0  0
 17 18  1  0  0  0  0
 19 18  1  0  0  0  0
 20 23  1  6  0  0  0
 20 19  1  0  0  0  0
 22 21  1  0  0  0  0
 24 23  1  0  0  0  0
 25  1  1  0  0  0  0
 26 25  1  0  0  0  0
 27 25  1  0  0  0  0
 28 33  1  0  0  0  0
 28 25  1  0  0  0  0
 29 28  2  0  0  0  0
 30 31  2  0  0  0  0
 30 29  1  0  0  0  0
 31 32  1  0  0  0  0
 32 35  1  0  0  0  0
 32 33  2  0  0  0  0
 34 30  1  0  0  0  0
 36 29  1  0  0  0  0
 36 37  1  0  0  0  0
 37 39  1  0  0  0  0
 37 40  1  0  0  0  0
 38 37  1  0  0  0  0
 40 41  1  0  0  0  0
 40 43  1  0  0  0  0
 42 40  1  0  0  0  0
 43 44  1  0  0  0  0
 45 43  1  0  0  0  0
M  END
>  <minimizedAffinity>
-5.05467176

$$$$
