
 OpenBabel03252508063D

 44 47  0  0  1  0  0  0  0  0999 V2000
   45.1940   35.4690   43.1700 C   0  0  0  0  0  0  0  0  0  0  0  0
   45.5890   34.1450   43.2570 C   0  0  0  0  0  0  0  0  0  0  0  0
   45.5010   33.4800   44.4540 C   0  0  0  0  0  0  0  0  0  0  0  0
   45.0060   34.1890   45.5300 N   0  0  0  0  0  0  0  0  0  0  0  0
   44.6250   35.4630   45.4390 C   0  0  0  0  0  0  0  0  0  0  0  0
   44.7260   36.0930   44.2490 N   0  0  0  0  0  0  0  0  0  0  0  0
   45.2610   36.0060   42.2280 H   0  0  0  0  0  0  0  0  0  0  0  0
   44.2420   35.9890   46.3060 H   0  0  0  0  0  0  0  0  0  0  0  0
   45.8620   32.1360   44.7070 C   0  0  0  0  0  0  0  0  0  0  0  0
   45.5540   31.0690   43.8580 C   0  0  0  0  0  0  0  0  0  0  0  0
   45.8430   29.7590   44.1310 C   0  0  0  0  0  0  0  0  0  0  0  0
   46.4750   29.4330   45.3080 C   0  0  0  0  0  0  0  0  0  0  0  0
   46.8030   30.5040   46.1930 C   0  0  0  0  0  0  0  0  0  0  0  0
   47.4310   30.1880   47.3630 C   0  0  0  0  0  0  0  0  0  0  0  0
   47.7760   31.1790   48.2600 C   0  0  0  0  0  0  0  0  0  0  0  0
   47.4780   32.5170   47.9570 C   0  0  0  0  0  0  0  0  0  0  0  0
   46.8300   32.7900   46.7390 C   0  0  0  0  0  0  0  0  0  0  0  0
   46.4960   31.7860   45.8720 C   0  0  0  0  0  0  0  0  0  0  0  0
   45.0530   31.3180   42.9260 H   0  0  0  0  0  0  0  0  0  0  0  0
   45.5710   28.9880   43.4190 H   0  0  0  0  0  0  0  0  0  0  0  0
   46.7270   28.4190   45.5800 H   0  0  0  0  0  0  0  0  0  0  0  0
   47.6740   29.1650   47.6240 H   0  0  0  0  0  0  0  0  0  0  0  0
   48.2770   30.8850   49.1870 H   0  0  0  0  0  0  0  0  0  0  0  0
   47.7850   33.2250   48.7120 H   0  0  0  0  0  0  0  0  0  0  0  0
   46.7110   33.8510   46.6800 H   0  0  0  0  0  0  0  0  0  0  0  0
   46.0570   33.5560   42.1150 O   0  0  0  0  0  0  0  0  0  0  0  0
   48.3320   32.5070   41.3550 O   0  0  0  0  0  0  0  0  0  0  0  0
   47.6040   33.7980   41.4700 P   0  0  1  0  0  0  0  0  0  0  0  0
   47.5210   34.4580   39.9150 O   0  0  0  0  0  0  0  0  0  0  0  0
   48.2720   34.2480   37.7020 C   0  0  2  0  0  3  0  0  0  0  0  0
   47.8760   33.5290   38.9480 C   0  0  2  0  0  3  0  0  0  0  0  0
   46.7890   32.7180   38.6340 O   0  0  0  0  0  0  0  0  0  0  0  0
   46.9470   32.3480   37.3010 C   0  0  0  0  0  2  0  0  0  0  0  0
   47.4530   33.5790   36.6100 C   0  0  2  0  0  3  0  0  0  0  0  0
   49.6280   34.0370   37.4060 O   0  0  0  0  0  0  0  0  0  0  0  0
   49.9470   33.3210   38.0090 H   0  0  0  0  0  0  0  0  0  0  0  0
   48.2250   33.2220   35.5200 O   0  0  0  0  0  0  0  0  0  0  0  0
   48.3710   32.2280   35.4640 H   0  0  0  0  0  0  0  0  0  0  0  0
   48.4280   34.8680   42.4680 O   0  0  0  0  0  0  0  0  0  0  0  0
   49.6860   35.4080   42.2470 C   0  0  0  0  0  0  0  0  0  0  0  0
   49.4660   36.5040   41.7000 O   0  0  0  0  0  0  0  0  0  0  0  0
   50.7170   34.5190   42.7220 N   0  0  0  0  0  0  0  0  0  0  0  0
   51.4080   33.9370   42.1740 H   0  0  0  0  0  0  0  0  0  0  0  0
   50.8090   34.4250   43.7610 H   0  0  0  0  0  0  0  0  0  0  0  0
  1  2  2  0  0  0  0
  1  6  1  0  0  0  0
  2  3  1  0  0  0  0
  3  9  1  0  0  0  0
  3  4  2  0  0  0  0
  5  4  1  0  0  0  0
  5  8  1  0  0  0  0
  6  5  2  0  0  0  0
  7  1  1  0  0  0  0
  9 18  1  0  0  0  0
 10 11  1  0  0  0  0
 10  9  2  0  0  0  0
 11 12  2  0  0  0  0
 12 21  1  0  0  0  0
 12 13  1  0  0  0  0
 13 14  1  0  0  0  0
 14 22  1  0  0  0  0
 14 15  2  0  0  0  0
 15 23  1  0  0  0  0
 16 15  1  0  0  0  0
 16 24  1  0  0  0  0
 17 16  2  0  0  0  0
 18 13  2  0  0  0  0
 18 17  1  0  0  0  0
 19 10  1  0  0  0  0
 20 11  1  0  0  0  0
 25 17  1  0  0  0  0
 26  2  1  0  0  0  0
 28 27  2  6  0  0  0
 28 26  1  0  0  0  0
 28 39  1  0  0  0  0
 29 28  1  0  0  0  0
 30 35  1  6  0  0  0
 30 31  1  0  0  0  0
 31 29  1  1  0  0  0
 32 31  1  0  0  0  0
 33 32  1  0  0  0  0
 34 37  1  6  0  0  0
 34 33  1  0  0  0  0
 34 30  1  0  0  0  0
 35 36  1  0  0  0  0
 38 37  1  0  0  0  0
 40 39  1  0  0  0  0
 40 42  1  0  0  0  0
 41 40  2  0  0  0  0
 42 44  1  0  0  0  0
 43 42  1  0  0  0  0
M  END
>  <minimizedAffinity>
-6.90332603

>  <minimizedRMSD>
0.786811233

$$$$
