
 OpenBabel03252508063D

 44 47  0  0  1  0  0  0  0  0999 V2000
   45.1950   35.4710   43.1680 C   0  0  0  0  0  0  0  0  0  0  0  0
   45.5890   34.1460   43.2550 C   0  0  0  0  0  0  0  0  0  0  0  0
   45.4990   33.4820   44.4520 C   0  0  0  0  0  0  0  0  0  0  0  0
   45.0040   34.1920   45.5280 N   0  0  0  0  0  0  0  0  0  0  0  0
   44.6250   35.4650   45.4360 C   0  0  0  0  0  0  0  0  0  0  0  0
   44.7260   36.0950   44.2460 N   0  0  0  0  0  0  0  0  0  0  0  0
   45.2630   36.0080   42.2250 H   0  0  0  0  0  0  0  0  0  0  0  0
   44.2410   35.9920   46.3020 H   0  0  0  0  0  0  0  0  0  0  0  0
   45.8590   32.1370   44.7060 C   0  0  0  0  0  0  0  0  0  0  0  0
   45.5500   31.0710   43.8570 C   0  0  0  0  0  0  0  0  0  0  0  0
   45.8380   29.7600   44.1320 C   0  0  0  0  0  0  0  0  0  0  0  0
   46.4700   29.4340   45.3080 C   0  0  0  0  0  0  0  0  0  0  0  0
   46.7990   30.5050   46.1930 C   0  0  0  0  0  0  0  0  0  0  0  0
   47.4270   30.1900   47.3630 C   0  0  0  0  0  0  0  0  0  0  0  0
   47.7730   31.1810   48.2590 C   0  0  0  0  0  0  0  0  0  0  0  0
   47.4760   32.5190   47.9550 C   0  0  0  0  0  0  0  0  0  0  0  0
   46.8280   32.7920   46.7380 C   0  0  0  0  0  0  0  0  0  0  0  0
   46.4930   31.7880   45.8710 C   0  0  0  0  0  0  0  0  0  0  0  0
   45.0490   31.3200   42.9250 H   0  0  0  0  0  0  0  0  0  0  0  0
   45.5650   28.9900   43.4200 H   0  0  0  0  0  0  0  0  0  0  0  0
   46.7210   28.4200   45.5800 H   0  0  0  0  0  0  0  0  0  0  0  0
   47.6690   29.1660   47.6240 H   0  0  0  0  0  0  0  0  0  0  0  0
   48.2730   30.8860   49.1860 H   0  0  0  0  0  0  0  0  0  0  0  0
   47.7840   33.2270   48.7100 H   0  0  0  0  0  0  0  0  0  0  0  0
   46.7100   33.8530   46.6780 H   0  0  0  0  0  0  0  0  0  0  0  0
   46.0570   33.5570   42.1140 O   0  0  0  0  0  0  0  0  0  0  0  0
   48.3330   32.5080   41.3550 O   0  0  0  0  0  0  0  0  0  0  0  0
   47.6050   33.7980   41.4690 P   0  0  1  0  0  0  0  0  0  0  0  0
   47.5220   34.4590   39.9140 O   0  0  0  0  0  0  0  0  0  0  0  0
   48.2720   34.2490   37.7020 C   0  0  2  0  0  3  0  0  0  0  0  0
   47.8770   33.5290   38.9470 C   0  0  2  0  0  3  0  0  0  0  0  0
   46.7900   32.7180   38.6330 O   0  0  0  0  0  0  0  0  0  0  0  0
   46.9490   32.3480   37.3010 C   0  0  0  0  0  2  0  0  0  0  0  0
   47.4550   33.5780   36.6090 C   0  0  2  0  0  3  0  0  0  0  0  0
   49.6290   34.0390   37.4040 O   0  0  0  0  0  0  0  0  0  0  0  0
   49.9480   33.3220   38.0080 H   0  0  0  0  0  0  0  0  0  0  0  0
   48.2260   33.2210   35.5180 O   0  0  0  0  0  0  0  0  0  0  0  0
   48.3730   32.2270   35.4640 H   0  0  0  0  0  0  0  0  0  0  0  0
   48.4280   34.8690   42.4660 O   0  0  0  0  0  0  0  0  0  0  0  0
   49.6860   35.4090   42.2460 C   0  0  0  0  0  0  0  0  0  0  0  0
   49.4680   36.5040   41.6990 O   0  0  0  0  0  0  0  0  0  0  0  0
   50.7170   34.5190   42.7220 N   0  0  0  0  0  0  0  0  0  0  0  0
   51.4080   33.9360   42.1740 H   0  0  0  0  0  0  0  0  0  0  0  0
   50.8080   34.4250   43.7610 H   0  0  0  0  0  0  0  0  0  0  0  0
  1  2  2  0  0  0  0
  1  6  1  0  0  0  0
  2  3  1  0  0  0  0
  3  9  1  0  0  0  0
  3  4  2  0  0  0  0
  5  4  1  0  0  0  0
  5  8  1  0  0  0  0
  6  5  2  0  0  0  0
  7  1  1  0  0  0  0
  9 18  1  0  0  0  0
 10 11  1  0  0  0  0
 10  9  2  0  0  0  0
 11 12  2  0  0  0  0
 12 21  1  0  0  0  0
 12 13  1  0  0  0  0
 13 14  1  0  0  0  0
 14 22  1  0  0  0  0
 14 15  2  0  0  0  0
 15 23  1  0  0  0  0
 16 15  1  0  0  0  0
 16 24  1  0  0  0  0
 17 16  2  0  0  0  0
 18 13  2  0  0  0  0
 18 17  1  0  0  0  0
 19 10  1  0  0  0  0
 20 11  1  0  0  0  0
 25 17  1  0  0  0  0
 26  2  1  0  0  0  0
 28 27  2  6  0  0  0
 28 26  1  0  0  0  0
 28 39  1  0  0  0  0
 29 28  1  0  0  0  0
 30 35  1  6  0  0  0
 30 31  1  0  0  0  0
 31 29  1  1  0  0  0
 32 31  1  0  0  0  0
 33 32  1  0  0  0  0
 34 37  1  6  0  0  0
 34 33  1  0  0  0  0
 34 30  1  0  0  0  0
 35 36  1  0  0  0  0
 38 37  1  0  0  0  0
 40 39  1  0  0  0  0
 40 42  1  0  0  0  0
 41 40  2  0  0  0  0
 42 44  1  0  0  0  0
 43 42  1  0  0  0  0
M  END
>  <minimizedAffinity>
-6.90177298

>  <minimizedRMSD>
1.16476738

$$$$
