
 OpenBabel03252504263D

 22 23  0  0  1  0  0  0  0  0999 V2000
   44.5930   34.6470   41.2500 C   0  0  0  0  0  0  0  0  0  0  0  0
   44.8440   35.6630   40.8610 H   0  0  0  0  0  0  0  0  0  0  0  0
   45.3780   33.9870   40.8100 H   0  0  0  0  0  0  0  0  0  0  0  0
   44.4460   35.7390   43.4080 C   0  0  0  0  0  0  0  0  0  0  0  0
   44.7810   34.5870   42.7030 C   0  0  0  0  0  0  0  0  0  0  0  0
   45.2550   33.5100   43.4410 C   0  0  0  0  0  0  0  0  0  0  0  0
   45.3600   33.6390   44.7620 N   0  0  0  0  0  0  0  0  0  0  0  0
   45.0240   34.7770   45.4190 C   0  0  0  0  0  0  0  0  0  0  0  0
   44.5470   35.8900   44.7620 N   0  0  0  0  0  0  0  0  0  0  0  0
   44.0650   36.6340   42.9170 H   0  0  0  0  0  0  0  0  0  0  0  0
   45.5070   32.6310   42.8730 H   0  0  0  0  0  0  0  0  0  0  0  0
   45.1740   34.7000   46.4910 H   0  0  0  0  0  0  0  0  0  0  0  0
   43.3140   34.2700   40.8540 O   0  0  0  0  0  0  0  0  0  0  0  0
   42.3710   34.6500   38.6680 C   0  0  1  0  0  0  0  0  0  0  0  0
   42.7000   35.1850   40.0220 C   0  0  1  0  0  0  0  0  0  0  0  0
   41.5510   35.6430   40.6200 O   0  0  0  0  0  0  0  0  0  0  0  0
   40.5150   35.5450   39.7150 C   0  0  0  0  0  0  0  0  0  0  0  0
   41.1410   35.4750   38.3330 C   0  0  2  0  0  0  0  0  0  0  0  0
   43.3100   34.9380   37.6870 O   0  0  0  0  0  0  0  0  0  0  0  0
   43.5080   35.9040   37.7560 H   0  0  0  0  0  0  0  0  0  0  0  0
   40.3270   34.8950   37.3930 O   0  0  0  0  0  0  0  0  0  0  0  0
   40.5270   35.3190   36.5180 H   0  0  0  0  0  0  0  0  0  0  0  0
  1  5  1  0  0  0  0
  2  1  1  0  0  0  0
  3  1  1  0  0  0  0
  4  9  1  0  0  0  0
  5  4  2  0  0  0  0
  5  6  1  0  0  0  0
  6  7  2  0  0  0  0
  7  8  1  0  0  0  0
  8 12  1  0  0  0  0
  9  8  2  0  0  0  0
 10  4  1  0  0  0  0
 11  6  1  0  0  0  0
 13  1  1  0  0  0  0
 14 19  1  6  0  0  0
 14 15  1  0  0  0  0
 15 16  1  0  0  0  0
 15 13  1  1  0  0  0
 17 16  1  0  0  0  0
 18 21  1  6  0  0  0
 18 14  1  0  0  0  0
 18 17  1  0  0  0  0
 19 20  1  0  0  0  0
 22 21  1  0  0  0  0
M  END
>  <minimizedAffinity>
-4.64840794

>  <minimizedRMSD>
0.897195518

$$$$
