
 OpenBabel03252508093D

 44 47  0  0  1  0  0  0  0  0999 V2000
   38.1340   29.6440   37.3950 C   0  0  0  0  0  0  0  0  0  0  0  0
   38.2150   29.1990   38.7040 C   0  0  0  0  0  0  0  0  0  0  0  0
   37.0960   28.7170   39.3350 C   0  0  0  0  0  0  0  0  0  0  0  0
   35.9240   28.6990   38.6060 N   0  0  0  0  0  0  0  0  0  0  0  0
   35.8530   29.1270   37.3460 C   0  0  0  0  0  0  0  0  0  0  0  0
   36.9690   29.5990   36.7510 N   0  0  0  0  0  0  0  0  0  0  0  0
   39.0130   30.0300   36.8860 H   0  0  0  0  0  0  0  0  0  0  0  0
   34.9150   29.0990   36.8050 H   0  0  0  0  0  0  0  0  0  0  0  0
   37.0130   28.2290   40.6600 C   0  0  0  0  0  0  0  0  0  0  0  0
   37.0100   29.0440   41.7960 C   0  0  0  0  0  0  0  0  0  0  0  0
   36.9970   28.5720   43.0820 C   0  0  0  0  0  0  0  0  0  0  0  0
   36.9880   27.2160   43.3100 C   0  0  0  0  0  0  0  0  0  0  0  0
   36.9890   26.3610   42.1660 C   0  0  0  0  0  0  0  0  0  0  0  0
   36.9800   25.0140   42.3840 C   0  0  0  0  0  0  0  0  0  0  0  0
   36.9780   24.1340   41.3200 C   0  0  0  0  0  0  0  0  0  0  0  0
   36.9830   24.6380   40.0100 C   0  0  0  0  0  0  0  0  0  0  0  0
   36.9930   26.0340   39.8380 C   0  0  0  0  0  0  0  0  0  0  0  0
   37.0000   26.8810   40.9130 C   0  0  0  0  0  0  0  0  0  0  0  0
   37.0180   30.1170   41.6250 H   0  0  0  0  0  0  0  0  0  0  0  0
   36.9950   29.2710   43.9100 H   0  0  0  0  0  0  0  0  0  0  0  0
   36.9800   26.7860   44.2990 H   0  0  0  0  0  0  0  0  0  0  0  0
   36.9750   24.5960   43.3840 H   0  0  0  0  0  0  0  0  0  0  0  0
   36.9720   23.0620   41.5370 H   0  0  0  0  0  0  0  0  0  0  0  0
   36.9790   23.8810   39.2410 H   0  0  0  0  0  0  0  0  0  0  0  0
   36.9730   26.2190   38.7860 H   0  0  0  0  0  0  0  0  0  0  0  0
   39.4380   29.2650   39.3110 O   0  0  0  0  0  0  0  0  0  0  0  0
   40.1610   30.4710   41.5200 O   0  0  0  0  0  0  0  0  0  0  0  0
   40.0750   30.6510   40.0480 P   0  0  1  0  0  0  0  0  0  0  0  0
   41.6420   30.9690   39.4960 O   0  0  0  0  0  0  0  0  0  0  0  0
   41.7920   32.4620   37.6930 C   0  0  2  0  0  3  0  0  0  0  0  0
   41.8070   32.3090   39.1770 C   0  0  2  0  0  3  0  0  0  0  0  0
   43.0400   32.7660   39.6300 O   0  0  0  0  0  0  0  0  0  0  0  0
   43.4370   33.7690   38.7480 C   0  0  0  0  0  2  0  0  0  0  0  0
   43.0410   33.2730   37.3900 C   0  0  2  0  0  3  0  0  0  0  0  0
   40.6840   33.2180   37.2740 O   0  0  0  0  0  0  0  0  0  0  0  0
   40.2760   33.6080   38.0870 H   0  0  0  0  0  0  0  0  0  0  0  0
   42.7830   34.3440   36.5540 O   0  0  0  0  0  0  0  0  0  0  0  0
   42.8170   35.2240   37.0410 H   0  0  0  0  0  0  0  0  0  0  0  0
   39.0910   31.9540   39.6560 O   0  0  0  0  0  0  0  0  0  0  0  0
   38.1880   32.5940   40.4920 C   0  0  0  0  0  0  0  0  0  0  0  0
   37.0720   32.1940   40.1150 O   0  0  0  0  0  0  0  0  0  0  0  0
   38.8750   33.4420   41.4350 N   0  0  0  0  0  0  0  0  0  0  0  0
   38.9190   34.4960   41.4840 H   0  0  0  0  0  0  0  0  0  0  0  0
   39.4130   32.9560   42.1910 H   0  0  0  0  0  0  0  0  0  0  0  0
  1  2  1  0  0  0  0
  2 26  1  0  0  0  0
  2  3  2  0  0  0  0
  3  9  1  0  0  0  0
  4  3  1  0  0  0  0
  5  4  2  0  0  0  0
  6  5  1  0  0  0  0
  6  1  2  0  0  0  0
  7  1  1  0  0  0  0
  8  5  1  0  0  0  0
  9 18  2  0  0  0  0
  9 10  1  0  0  0  0
 10 11  2  0  0  0  0
 11 12  1  0  0  0  0
 11 20  1  0  0  0  0
 12 21  1  0  0  0  0
 13 14  1  0  0  0  0
 13 12  2  0  0  0  0
 14 22  1  0  0  0  0
 15 23  1  0  0  0  0
 15 14  2  0  0  0  0
 16 15  1  0  0  0  0
 17 16  2  0  0  0  0
 17 18  1  0  0  0  0
 18 13  1  0  0  0  0
 19 10  1  0  0  0  0
 24 16  1  0  0  0  0
 25 17  1  0  0  0  0
 26 28  1  0  0  0  0
 28 27  2  1  0  0  0
 29 28  1  0  0  0  0
 30 35  1  1  0  0  0
 30 31  1  0  0  0  0
 31 29  1  6  0  0  0
 31 32  1  0  0  0  0
 33 32  1  0  0  0  0
 34 37  1  6  0  0  0
 34 30  1  0  0  0  0
 34 33  1  0  0  0  0
 35 36  1  0  0  0  0
 37 38  1  0  0  0  0
 39 28  1  0  0  0  0
 39 40  1  0  0  0  0
 40 42  1  0  0  0  0
 41 40  2  0  0  0  0
 42 43  1  0  0  0  0
 42 44  1  0  0  0  0
M  END
>  <minimizedAffinity>
-7.03239012

$$$$

 OpenBabel03252508093D

 44 47  0  0  1  0  0  0  0  0999 V2000
   37.3970   29.5590   37.2490 C   0  0  0  0  0  0  0  0  0  0  0  0
   37.7020   29.0970   38.5180 C   0  0  0  0  0  0  0  0  0  0  0  0
   36.6970   28.7030   39.3640 C   0  0  0  0  0  0  0  0  0  0  0  0
   35.4040   28.7890   38.8860 N   0  0  0  0  0  0  0  0  0  0  0  0
   35.1180   29.2330   37.6630 C   0  0  0  0  0  0  0  0  0  0  0  0
   36.1270   29.6160   36.8530 N   0  0  0  0  0  0  0  0  0  0  0  0
   38.1850   29.8760   36.5700 H   0  0  0  0  0  0  0  0  0  0  0  0
   34.0910   29.2870   37.3210 H   0  0  0  0  0  0  0  0  0  0  0  0
   36.8410   28.2110   40.6830 C   0  0  0  0  0  0  0  0  0  0  0  0
   37.0450   29.0220   41.8030 C   0  0  0  0  0  0  0  0  0  0  0  0
   37.2520   28.5460   43.0710 C   0  0  0  0  0  0  0  0  0  0  0  0
   37.2690   27.1890   43.2940 C   0  0  0  0  0  0  0  0  0  0  0  0
   37.0620   26.3380   42.1660 C   0  0  0  0  0  0  0  0  0  0  0  0
   37.0780   24.9900   42.3800 C   0  0  0  0  0  0  0  0  0  0  0  0
   36.8820   24.1140   41.3310 C   0  0  0  0  0  0  0  0  0  0  0  0
   36.6630   24.6230   40.0410 C   0  0  0  0  0  0  0  0  0  0  0  0
   36.6570   26.0190   39.8730 C   0  0  0  0  0  0  0  0  0  0  0  0
   36.8590   26.8620   40.9310 C   0  0  0  0  0  0  0  0  0  0  0  0
   37.0340   30.0950   41.6350 H   0  0  0  0  0  0  0  0  0  0  0  0
   37.4020   29.2420   43.8880 H   0  0  0  0  0  0  0  0  0  0  0  0
   37.4300   26.7550   44.2690 H   0  0  0  0  0  0  0  0  0  0  0  0
   37.2440   24.5690   43.3650 H   0  0  0  0  0  0  0  0  0  0  0  0
   36.9030   23.0420   41.5440 H   0  0  0  0  0  0  0  0  0  0  0  0
   36.5170   23.8690   39.2830 H   0  0  0  0  0  0  0  0  0  0  0  0
   36.4550   26.2080   38.8400 H   0  0  0  0  0  0  0  0  0  0  0  0
   39.0230   29.0560   38.8660 O   0  0  0  0  0  0  0  0  0  0  0  0
   39.0590   31.4040   40.0250 O   0  0  0  0  0  0  0  0  0  0  0  0
   39.9300   30.3970   39.3660 P   0  0  1  0  0  0  0  0  0  0  0  0
   41.1100   29.9500   40.4920 O   0  0  0  0  0  0  0  0  0  0  0  0
   42.0620   31.9710   41.2060 C   0  0  2  0  0  3  0  0  0  0  0  0
   41.1590   30.8370   41.5570 C   0  0  2  0  0  3  0  0  0  0  0  0
   41.6900   30.2140   42.6820 O   0  0  0  0  0  0  0  0  0  0  0  0
   42.3400   31.2070   43.4120 C   0  0  0  0  0  2  0  0  0  0  0  0
   43.0150   32.0670   42.3870 C   0  0  2  0  0  3  0  0  0  0  0  0
   41.3520   33.1810   41.1360 O   0  0  0  0  0  0  0  0  0  0  0  0
   40.4500   33.0080   41.5040 H   0  0  0  0  0  0  0  0  0  0  0  0
   43.1350   33.3600   42.8620 O   0  0  0  0  0  0  0  0  0  0  0  0
   42.6670   33.4870   43.7440 H   0  0  0  0  0  0  0  0  0  0  0  0
   40.6910   31.0480   38.0180 O   0  0  0  0  0  0  0  0  0  0  0  0
   40.5150   32.3210   37.4980 C   0  0  0  0  0  0  0  0  0  0  0  0
   41.4020   33.0070   38.0370 O   0  0  0  0  0  0  0  0  0  0  0  0
   39.4110   32.3480   36.5710 N   0  0  0  0  0  0  0  0  0  0  0  0
   38.4560   32.7890   36.6740 H   0  0  0  0  0  0  0  0  0  0  0  0
   39.5620   31.8660   35.6530 H   0  0  0  0  0  0  0  0  0  0  0  0
  1  2  1  0  0  0  0
  2 26  1  0  0  0  0
  2  3  2  0  0  0  0
  3  9  1  0  0  0  0
  4  3  1  0  0  0  0
  5  4  2  0  0  0  0
  6  1  2  0  0  0  0
  6  5  1  0  0  0  0
  7  1  1  0  0  0  0
  8  5  1  0  0  0  0
  9 18  2  0  0  0  0
  9 10  1  0  0  0  0
 10 11  2  0  0  0  0
 11 12  1  0  0  0  0
 11 20  1  0  0  0  0
 12 21  1  0  0  0  0
 13 14  1  0  0  0  0
 13 12  2  0  0  0  0
 14 22  1  0  0  0  0
 15 23  1  0  0  0  0
 15 14  2  0  0  0  0
 16 15  1  0  0  0  0
 17 16  2  0  0  0  0
 17 18  1  0  0  0  0
 18 13  1  0  0  0  0
 19 10  1  0  0  0  0
 24 16  1  0  0  0  0
 25 17  1  0  0  0  0
 26 28  1  0  0  0  0
 28 27  2  1  0  0  0
 28 29  1  0  0  0  0
 30 35  1  1  0  0  0
 30 31  1  0  0  0  0
 30 34  1  0  0  0  0
 31 29  1  6  0  0  0
 31 32  1  0  0  0  0
 32 33  1  0  0  0  0
 34 37  1  1  0  0  0
 34 33  1  0  0  0  0
 35 36  1  0  0  0  0
 37 38  1  0  0  0  0
 39 28  1  0  0  0  0
 40 39  1  0  0  0  0
 40 41  2  0  0  0  0
 42 43  1  0  0  0  0
 42 40  1  0  0  0  0
 44 42  1  0  0  0  0
M  END
>  <minimizedAffinity>
-6.59898424

$$$$

 OpenBabel03252508093D

 44 47  0  0  1  0  0  0  0  0999 V2000
   40.3810   28.4410   37.5680 C   0  0  0  0  0  0  0  0  0  0  0  0
   39.3400   28.2490   38.4620 C   0  0  0  0  0  0  0  0  0  0  0  0
   39.6080   27.8900   39.7580 C   0  0  0  0  0  0  0  0  0  0  0  0
   40.9360   27.7400   40.1070 N   0  0  0  0  0  0  0  0  0  0  0  0
   41.9320   27.9280   39.2430 C   0  0  0  0  0  0  0  0  0  0  0  0
   41.6390   28.2780   37.9720 N   0  0  0  0  0  0  0  0  0  0  0  0
   40.1810   28.7240   36.5380 H   0  0  0  0  0  0  0  0  0  0  0  0
   42.9630   27.8000   39.5510 H   0  0  0  0  0  0  0  0  0  0  0  0
   38.6640   27.6570   40.7860 C   0  0  0  0  0  0  0  0  0  0  0  0
   38.2370   28.6310   41.6930 C   0  0  0  0  0  0  0  0  0  0  0  0
   37.3750   28.3930   42.7300 C   0  0  0  0  0  0  0  0  0  0  0  0
   36.8780   27.1250   42.9250 C   0  0  0  0  0  0  0  0  0  0  0  0
   37.2970   26.1110   42.0110 C   0  0  0  0  0  0  0  0  0  0  0  0
   36.8080   24.8510   42.1980 C   0  0  0  0  0  0  0  0  0  0  0  0
   37.1740   23.8270   41.3470 C   0  0  0  0  0  0  0  0  0  0  0  0
   38.0520   24.0940   40.2860 C   0  0  0  0  0  0  0  0  0  0  0  0
   38.5290   25.4080   40.1360 C   0  0  0  0  0  0  0  0  0  0  0  0
   38.1520   26.4020   40.9990 C   0  0  0  0  0  0  0  0  0  0  0  0
   38.6260   29.6350   41.5470 H   0  0  0  0  0  0  0  0  0  0  0  0
   37.0910   29.2040   43.3900 H   0  0  0  0  0  0  0  0  0  0  0  0
   36.1980   26.8760   43.7240 H   0  0  0  0  0  0  0  0  0  0  0  0
   36.1280   24.6150   43.0080 H   0  0  0  0  0  0  0  0  0  0  0  0
   36.7610   22.8310   41.5320 H   0  0  0  0  0  0  0  0  0  0  0  0
   38.2820   23.2370   39.6710 H   0  0  0  0  0  0  0  0  0  0  0  0
   39.1570   25.4160   39.2720 H   0  0  0  0  0  0  0  0  0  0  0  0
   38.0710   28.4350   37.9910 O   0  0  0  0  0  0  0  0  0  0  0  0
   36.2470   30.0250   38.9920 O   0  0  0  0  0  0  0  0  0  0  0  0
   37.2760   29.9290   37.9250 P   0  0  1  0  0  0  0  0  0  0  0  0
   38.3580   31.2070   38.1660 O   0  0  0  0  0  0  0  0  0  0  0  0
   38.0700   33.0000   39.6510 C   0  0  2  0  0  3  0  0  0  0  0  0
   38.4360   31.5610   39.5050 C   0  0  2  0  0  3  0  0  0  0  0  0
   39.7390   31.4140   39.9690 O   0  0  0  0  0  0  0  0  0  0  0  0
   39.9110   32.3690   40.9690 C   0  0  0  0  0  2  0  0  0  0  0  0
   39.2090   33.5930   40.4650 C   0  0  2  0  0  3  0  0  0  0  0  0
   36.8920   33.1490   40.4000 O   0  0  0  0  0  0  0  0  0  0  0  0
   36.6850   32.2650   40.7920 H   0  0  0  0  0  0  0  0  0  0  0  0
   38.7560   34.3480   41.5310 O   0  0  0  0  0  0  0  0  0  0  0  0
   38.8990   33.8860   42.4140 H   0  0  0  0  0  0  0  0  0  0  0  0
   36.5840   30.0900   36.4030 O   0  0  0  0  0  0  0  0  0  0  0  0
   36.4000   29.0860   35.4650 C   0  0  0  0  0  0  0  0  0  0  0  0
   35.1690   29.0430   35.2870 O   0  0  0  0  0  0  0  0  0  0  0  0
   37.6620   28.5070   35.0770 N   0  0  0  0  0  0  0  0  0  0  0  0
   38.0620   27.5540   35.2980 H   0  0  0  0  0  0  0  0  0  0  0  0
   38.2880   29.1060   34.4880 H   0  0  0  0  0  0  0  0  0  0  0  0
  1  6  2  0  0  0  0
  1  2  1  0  0  0  0
  2  3  2  0  0  0  0
  3  4  1  0  0  0  0
  3  9  1  0  0  0  0
  5  8  1  0  0  0  0
  5  4  2  0  0  0  0
  6  5  1  0  0  0  0
  7  1  1  0  0  0  0
  9 18  2  0  0  0  0
  9 10  1  0  0  0  0
 10 11  2  0  0  0  0
 11 12  1  0  0  0  0
 11 20  1  0  0  0  0
 12 21  1  0  0  0  0
 13 14  1  0  0  0  0
 13 12  2  0  0  0  0
 14 22  1  0  0  0  0
 15 23  1  0  0  0  0
 15 14  2  0  0  0  0
 16 15  1  0  0  0  0
 17 16  2  0  0  0  0
 17 18  1  0  0  0  0
 18 13  1  0  0  0  0
 19 10  1  0  0  0  0
 24 16  1  0  0  0  0
 25 17  1  0  0  0  0
 26  2  1  0  0  0  0
 28 26  1  0  0  0  0
 28 29  1  0  0  0  0
 28 27  2  1  0  0  0
 30 35  1  1  0  0  0
 30 34  1  0  0  0  0
 31 29  1  6  0  0  0
 31 30  1  0  0  0  0
 31 32  1  0  0  0  0
 32 33  1  0  0  0  0
 34 33  1  0  0  0  0
 34 37  1  1  0  0  0
 35 36  1  0  0  0  0
 37 38  1  0  0  0  0
 39 28  1  0  0  0  0
 40 39  1  0  0  0  0
 41 40  2  0  0  0  0
 42 43  1  0  0  0  0
 42 40  1  0  0  0  0
 44 42  1  0  0  0  0
M  END
>  <minimizedAffinity>
-6.48391771

$$$$

 OpenBabel03252508093D

 44 47  0  0  1  0  0  0  0  0999 V2000
   37.6560   30.3400   37.7160 C   0  0  0  0  0  0  0  0  0  0  0  0
   37.9120   29.8260   38.9760 C   0  0  0  0  0  0  0  0  0  0  0  0
   36.9310   29.1450   39.6510 C   0  0  0  0  0  0  0  0  0  0  0  0
   35.7130   29.0050   39.0150 N   0  0  0  0  0  0  0  0  0  0  0  0
   35.4740   29.5010   37.8010 C   0  0  0  0  0  0  0  0  0  0  0  0
   36.4580   30.1690   37.1610 N   0  0  0  0  0  0  0  0  0  0  0  0
   38.4250   30.8830   37.1720 H   0  0  0  0  0  0  0  0  0  0  0  0
   34.5060   29.3720   37.3320 H   0  0  0  0  0  0  0  0  0  0  0  0
   37.0320   28.5640   40.9370 C   0  0  0  0  0  0  0  0  0  0  0  0
   37.2570   29.2900   42.1090 C   0  0  0  0  0  0  0  0  0  0  0  0
   37.4220   28.7250   43.3460 C   0  0  0  0  0  0  0  0  0  0  0  0
   37.3720   27.3570   43.4810 C   0  0  0  0  0  0  0  0  0  0  0  0
   37.1410   26.5910   42.2980 C   0  0  0  0  0  0  0  0  0  0  0  0
   37.0900   25.2330   42.4250 C   0  0  0  0  0  0  0  0  0  0  0  0
   36.8690   24.4370   41.3190 C   0  0  0  0  0  0  0  0  0  0  0  0
   36.6940   25.0360   40.0620 C   0  0  0  0  0  0  0  0  0  0  0  0
   36.7560   26.4390   39.9840 C   0  0  0  0  0  0  0  0  0  0  0  0
   36.9820   27.2020   41.0980 C   0  0  0  0  0  0  0  0  0  0  0  0
   37.2990   30.3720   42.0110 H   0  0  0  0  0  0  0  0  0  0  0  0
   37.5920   29.3590   44.2080 H   0  0  0  0  0  0  0  0  0  0  0  0
   37.4970   26.8550   44.4280 H   0  0  0  0  0  0  0  0  0  0  0  0
   37.2210   24.7420   43.3820 H   0  0  0  0  0  0  0  0  0  0  0  0
   36.8360   23.3530   41.4620 H   0  0  0  0  0  0  0  0  0  0  0  0
   36.5240   24.3400   39.2550 H   0  0  0  0  0  0  0  0  0  0  0  0
   36.5790   26.7030   38.9640 H   0  0  0  0  0  0  0  0  0  0  0  0
   39.1620   30.0300   39.4910 O   0  0  0  0  0  0  0  0  0  0  0  0
   40.1070   27.8570   38.3770 O   0  0  0  0  0  0  0  0  0  0  0  0
   40.4900   29.0110   39.2310 P   0  0  1  0  0  0  0  0  0  0  0  0
   41.7360   29.8260   38.4290 O   0  0  0  0  0  0  0  0  0  0  0  0
   41.6660   31.7900   37.1480 C   0  0  2  0  0  3  0  0  0  0  0  0
   41.5830   31.2020   38.5170 C   0  0  2  0  0  3  0  0  0  0  0  0
   42.6110   31.7570   39.2710 O   0  0  0  0  0  0  0  0  0  0  0  0
   42.8190   33.0400   38.7710 C   0  0  0  0  0  2  0  0  0  0  0  0
   42.6900   32.9050   37.2840 C   0  0  2  0  0  3  0  0  0  0  0  0
   40.4460   32.3780   36.7760 O   0  0  0  0  0  0  0  0  0  0  0  0
   39.8790   32.4050   37.5860 H   0  0  0  0  0  0  0  0  0  0  0  0
   42.2450   34.0960   36.7400 O   0  0  0  0  0  0  0  0  0  0  0  0
   42.0080   34.7730   37.4470 H   0  0  0  0  0  0  0  0  0  0  0  0
   41.0570   28.4940   40.7250 O   0  0  0  0  0  0  0  0  0  0  0  0
   41.6900   29.2670   41.6850 C   0  0  0  0  0  0  0  0  0  0  0  0
   40.8220   29.4640   42.5540 O   0  0  0  0  0  0  0  0  0  0  0  0
   43.0590   29.5300   41.3120 N   0  0  0  0  0  0  0  0  0  0  0  0
   43.5080   30.4310   40.9930 H   0  0  0  0  0  0  0  0  0  0  0  0
   43.7180   28.7170   41.3600 H   0  0  0  0  0  0  0  0  0  0  0  0
  1  2  1  0  0  0  0
  2 26  1  0  0  0  0
  2  3  2  0  0  0  0
  3  9  1  0  0  0  0
  4  3  1  0  0  0  0
  5  4  2  0  0  0  0
  6  1  2  0  0  0  0
  6  5  1  0  0  0  0
  7  1  1  0  0  0  0
  8  5  1  0  0  0  0
  9 18  2  0  0  0  0
  9 10  1  0  0  0  0
 10 11  2  0  0  0  0
 11 12  1  0  0  0  0
 11 20  1  0  0  0  0
 12 21  1  0  0  0  0
 13 14  1  0  0  0  0
 13 12  2  0  0  0  0
 14 22  1  0  0  0  0
 15 23  1  0  0  0  0
 15 14  2  0  0  0  0
 16 15  1  0  0  0  0
 17 16  2  0  0  0  0
 17 18  1  0  0  0  0
 18 13  1  0  0  0  0
 19 10  1  0  0  0  0
 24 16  1  0  0  0  0
 25 17  1  0  0  0  0
 28 27  2  6  0  0  0
 28 26  1  0  0  0  0
 28 39  1  0  0  0  0
 29 28  1  0  0  0  0
 30 35  1  1  0  0  0
 30 34  1  0  0  0  0
 30 31  1  0  0  0  0
 31 29  1  6  0  0  0
 31 32  1  0  0  0  0
 33 32  1  0  0  0  0
 34 37  1  1  0  0  0
 34 33  1  0  0  0  0
 35 36  1  0  0  0  0
 37 38  1  0  0  0  0
 39 40  1  0  0  0  0
 40 41  2  0  0  0  0
 42 44  1  0  0  0  0
 42 40  1  0  0  0  0
 43 42  1  0  0  0  0
M  END
>  <minimizedAffinity>
-6.44380474

$$$$

 OpenBabel03252508093D

 44 47  0  0  1  0  0  0  0  0999 V2000
   37.4320   29.9990   37.8190 C   0  0  0  0  0  0  0  0  0  0  0  0
   37.6160   29.3200   39.0110 C   0  0  0  0  0  0  0  0  0  0  0  0
   36.6230   28.5090   39.4990 C   0  0  0  0  0  0  0  0  0  0  0  0
   35.4680   28.4120   38.7490 N   0  0  0  0  0  0  0  0  0  0  0  0
   35.2980   29.0660   37.6010 C   0  0  0  0  0  0  0  0  0  0  0  0
   36.2910   29.8600   37.1470 N   0  0  0  0  0  0  0  0  0  0  0  0
   38.2110   30.6460   37.4240 H   0  0  0  0  0  0  0  0  0  0  0  0
   34.3770   28.9670   37.0390 H   0  0  0  0  0  0  0  0  0  0  0  0
   36.6550   27.7530   40.6940 C   0  0  0  0  0  0  0  0  0  0  0  0
   36.4660   28.2950   41.9690 C   0  0  0  0  0  0  0  0  0  0  0  0
   36.5630   27.5780   43.1320 C   0  0  0  0  0  0  0  0  0  0  0  0
   36.8640   26.2370   43.0830 C   0  0  0  0  0  0  0  0  0  0  0  0
   37.0600   25.6580   41.7930 C   0  0  0  0  0  0  0  0  0  0  0  0
   37.3590   24.3280   41.7360 C   0  0  0  0  0  0  0  0  0  0  0  0
   37.5580   23.7080   40.5180 C   0  0  0  0  0  0  0  0  0  0  0  0
   37.4460   24.4590   39.3370 C   0  0  0  0  0  0  0  0  0  0  0  0
   37.1370   25.8260   39.4490 C   0  0  0  0  0  0  0  0  0  0  0  0
   36.9500   26.4140   40.6710 C   0  0  0  0  0  0  0  0  0  0  0  0
   36.2290   29.3540   42.0170 H   0  0  0  0  0  0  0  0  0  0  0  0
   36.4020   28.0730   44.0830 H   0  0  0  0  0  0  0  0  0  0  0  0
   36.9560   25.6220   43.9640 H   0  0  0  0  0  0  0  0  0  0  0  0
   37.4510   23.7230   42.6300 H   0  0  0  0  0  0  0  0  0  0  0  0
   37.7970   22.6410   40.5150 H   0  0  0  0  0  0  0  0  0  0  0  0
   37.6150   23.8950   38.4320 H   0  0  0  0  0  0  0  0  0  0  0  0
   37.0740   26.2140   38.4550 H   0  0  0  0  0  0  0  0  0  0  0  0
   38.8100   29.4980   39.6540 O   0  0  0  0  0  0  0  0  0  0  0  0
   39.4170   30.2860   42.0760 O   0  0  0  0  0  0  0  0  0  0  0  0
   39.1580   30.7840   40.7000 P   0  0  1  0  0  0  0  0  0  0  0  0
   40.5470   31.6140   40.2050 O   0  0  0  0  0  0  0  0  0  0  0  0
   41.6700   30.6900   38.3640 C   0  0  2  0  0  3  0  0  0  0  0  0
   40.6410   31.6690   38.8220 C   0  0  2  0  0  3  0  0  0  0  0  0
   41.0580   32.9320   38.4160 O   0  0  0  0  0  0  0  0  0  0  0  0
   41.7740   32.7500   37.2350 C   0  0  0  0  0  2  0  0  0  0  0  0
   42.5760   31.5030   37.4540 C   0  0  2  0  0  3  0  0  0  0  0  0
   41.0900   29.6740   37.5870 O   0  0  0  0  0  0  0  0  0  0  0  0
   40.1610   29.9520   37.3940 H   0  0  0  0  0  0  0  0  0  0  0  0
   42.8080   30.8730   36.2450 O   0  0  0  0  0  0  0  0  0  0  0  0
   42.3180   31.3160   35.4840 H   0  0  0  0  0  0  0  0  0  0  0  0
   37.8580   31.8470   40.6780 O   0  0  0  0  0  0  0  0  0  0  0  0
   37.8840   33.1810   40.3020 C   0  0  0  0  0  0  0  0  0  0  0  0
   37.1470   33.2400   39.3010 O   0  0  0  0  0  0  0  0  0  0  0  0
   38.7240   33.9490   41.1880 N   0  0  0  0  0  0  0  0  0  0  0  0
   39.6680   34.3870   41.0080 H   0  0  0  0  0  0  0  0  0  0  0  0
   38.3580   34.1050   42.1570 H   0  0  0  0  0  0  0  0  0  0  0  0
  1  2  1  0  0  0  0
  2  3  2  0  0  0  0
  2 26  1  0  0  0  0
  3  9  1  0  0  0  0
  4  3  1  0  0  0  0
  5  4  2  0  0  0  0
  6  5  1  0  0  0  0
  6  1  2  0  0  0  0
  7  1  1  0  0  0  0
  8  5  1  0  0  0  0
  9 10  1  0  0  0  0
 10 19  1  0  0  0  0
 10 11  2  0  0  0  0
 11 20  1  0  0  0  0
 12 11  1  0  0  0  0
 12 21  1  0  0  0  0
 13 12  2  0  0  0  0
 14 13  1  0  0  0  0
 14 22  1  0  0  0  0
 15 14  2  0  0  0  0
 16 17  2  0  0  0  0
 16 15  1  0  0  0  0
 17 18  1  0  0  0  0
 18  9  2  0  0  0  0
 18 13  1  0  0  0  0
 23 15  1  0  0  0  0
 24 16  1  0  0  0  0
 25 17  1  0  0  0  0
 26 28  1  0  0  0  0
 28 27  2  1  0  0  0
 29 28  1  0  0  0  0
 30 35  1  6  0  0  0
 30 31  1  0  0  0  0
 31 29  1  1  0  0  0
 32 31  1  0  0  0  0
 33 34  1  0  0  0  0
 33 32  1  0  0  0  0
 34 37  1  6  0  0  0
 34 30  1  0  0  0  0
 36 35  1  0  0  0  0
 38 37  1  0  0  0  0
 39 28  1  0  0  0  0
 40 39  1  0  0  0  0
 40 42  1  0  0  0  0
 41 40  2  0  0  0  0
 42 44  1  0  0  0  0
 43 42  1  0  0  0  0
M  END
>  <minimizedAffinity>
-6.24739599

$$$$

 OpenBabel03252508093D

 44 47  0  0  1  0  0  0  0  0999 V2000
   36.6390   25.3220   38.1000 C   0  0  0  0  0  0  0  0  0  0  0  0
   37.0780   26.1890   39.0870 C   0  0  0  0  0  0  0  0  0  0  0  0
   37.0140   25.8140   40.4060 C   0  0  0  0  0  0  0  0  0  0  0  0
   36.5050   24.5600   40.6780 N   0  0  0  0  0  0  0  0  0  0  0  0
   36.0860   23.7310   39.7230 C   0  0  0  0  0  0  0  0  0  0  0  0
   36.1580   24.1260   38.4350 N   0  0  0  0  0  0  0  0  0  0  0  0
   36.6830   25.6080   37.0520 H   0  0  0  0  0  0  0  0  0  0  0  0
   35.6920   22.7530   39.9740 H   0  0  0  0  0  0  0  0  0  0  0  0
   37.4190   26.5790   41.5250 C   0  0  0  0  0  0  0  0  0  0  0  0
   36.6170   27.5400   42.1480 C   0  0  0  0  0  0  0  0  0  0  0  0
   37.0300   28.3280   43.1900 C   0  0  0  0  0  0  0  0  0  0  0  0
   38.3080   28.1960   43.6790 C   0  0  0  0  0  0  0  0  0  0  0  0
   39.1470   27.2200   43.0620 C   0  0  0  0  0  0  0  0  0  0  0  0
   40.4170   27.0830   43.5420 C   0  0  0  0  0  0  0  0  0  0  0  0
   41.2760   26.1550   42.9890 C   0  0  0  0  0  0  0  0  0  0  0  0
   40.8320   25.3510   41.9270 C   0  0  0  0  0  0  0  0  0  0  0  0
   39.5150   25.5310   41.4680 C   0  0  0  0  0  0  0  0  0  0  0  0
   38.6870   26.4630   42.0340 C   0  0  0  0  0  0  0  0  0  0  0  0
   35.6060   27.6510   41.7670 H   0  0  0  0  0  0  0  0  0  0  0  0
   36.3460   29.0510   43.6200 H   0  0  0  0  0  0  0  0  0  0  0  0
   38.6900   28.7890   44.4950 H   0  0  0  0  0  0  0  0  0  0  0  0
   40.7880   27.6890   44.3600 H   0  0  0  0  0  0  0  0  0  0  0  0
   42.2870   26.0770   43.4010 H   0  0  0  0  0  0  0  0  0  0  0  0
   41.5670   24.6530   41.5580 H   0  0  0  0  0  0  0  0  0  0  0  0
   39.3580   24.8220   40.6830 H   0  0  0  0  0  0  0  0  0  0  0  0
   37.5650   27.4000   38.6830 O   0  0  0  0  0  0  0  0  0  0  0  0
   35.5080   28.9240   39.2310 O   0  0  0  0  0  0  0  0  0  0  0  0
   36.6070   28.7290   38.2510 P   0  0  1  0  0  0  0  0  0  0  0  0
   37.5150   30.1560   38.2360 O   0  0  0  0  0  0  0  0  0  0  0  0
   37.5330   32.0160   39.6650 C   0  0  2  0  0  3  0  0  0  0  0  0
   37.8440   30.5640   39.5200 C   0  0  2  0  0  3  0  0  0  0  0  0
   39.2070   30.4050   39.7440 O   0  0  0  0  0  0  0  0  0  0  0  0
   39.5750   31.3970   40.6510 C   0  0  0  0  0  2  0  0  0  0  0  0
   38.8110   32.6150   40.2290 C   0  0  2  0  0  3  0  0  0  0  0  0
   36.5140   32.2230   40.6100 O   0  0  0  0  0  0  0  0  0  0  0  0
   36.3700   31.3610   41.0730 H   0  0  0  0  0  0  0  0  0  0  0  0
   38.5730   33.4240   41.3250 O   0  0  0  0  0  0  0  0  0  0  0  0
   38.8690   32.9960   42.1870 H   0  0  0  0  0  0  0  0  0  0  0  0
   36.0000   28.4590   36.7090 O   0  0  0  0  0  0  0  0  0  0  0  0
   36.5940   28.8170   35.5080 C   0  0  0  0  0  0  0  0  0  0  0  0
   35.6890   29.3750   34.8630 O   0  0  0  0  0  0  0  0  0  0  0  0
   37.9790   28.4160   35.4820 N   0  0  0  0  0  0  0  0  0  0  0  0
   38.4480   27.6510   34.9230 H   0  0  0  0  0  0  0  0  0  0  0  0
   38.6310   28.9520   36.1020 H   0  0  0  0  0  0  0  0  0  0  0  0
  1  6  2  0  0  0  0
  1  2  1  0  0  0  0
  2  3  2  0  0  0  0
  3  4  1  0  0  0  0
  3  9  1  0  0  0  0
  5  8  1  0  0  0  0
  5  4  2  0  0  0  0
  6  5  1  0  0  0  0
  7  1  1  0  0  0  0
  9 18  2  0  0  0  0
  9 10  1  0  0  0  0
 10 11  2  0  0  0  0
 11 20  1  0  0  0  0
 11 12  1  0  0  0  0
 12 21  1  0  0  0  0
 13 14  1  0  0  0  0
 13 12  2  0  0  0  0
 14 22  1  0  0  0  0
 15 23  1  0  0  0  0
 15 14  2  0  0  0  0
 16 15  1  0  0  0  0
 17 16  2  0  0  0  0
 17 18  1  0  0  0  0
 18 13  1  0  0  0  0
 19 10  1  0  0  0  0
 24 16  1  0  0  0  0
 25 17  1  0  0  0  0
 26  2  1  0  0  0  0
 28 26  1  0  0  0  0
 28 27  2  1  0  0  0
 29 28  1  0  0  0  0
 30 34  1  0  0  0  0
 30 35  1  1  0  0  0
 31 29  1  6  0  0  0
 31 30  1  0  0  0  0
 31 32  1  0  0  0  0
 32 33  1  0  0  0  0
 34 33  1  0  0  0  0
 34 37  1  1  0  0  0
 35 36  1  0  0  0  0
 37 38  1  0  0  0  0
 39 28  1  0  0  0  0
 40 39  1  0  0  0  0
 41 40  2  0  0  0  0
 42 40  1  0  0  0  0
 42 44  1  0  0  0  0
 43 42  1  0  0  0  0
M  END
>  <minimizedAffinity>
-6.21713066

$$$$

 OpenBabel03252508093D

 44 47  0  0  1  0  0  0  0  0999 V2000
   38.6350   29.5970   42.2880 C   0  0  0  0  0  0  0  0  0  0  0  0
   37.9230   29.4870   41.1060 C   0  0  0  0  0  0  0  0  0  0  0  0
   36.8520   28.6320   41.0280 C   0  0  0  0  0  0  0  0  0  0  0  0
   36.5380   27.9150   42.1650 N   0  0  0  0  0  0  0  0  0  0  0  0
   37.2270   28.0270   43.3000 C   0  0  0  0  0  0  0  0  0  0  0  0
   38.2770   28.8740   43.3470 N   0  0  0  0  0  0  0  0  0  0  0  0
   39.4860   30.2690   42.3610 H   0  0  0  0  0  0  0  0  0  0  0  0
   36.9520   27.4480   44.1740 H   0  0  0  0  0  0  0  0  0  0  0  0
   36.0270   28.4050   39.9010 C   0  0  0  0  0  0  0  0  0  0  0  0
   34.8990   29.1690   39.5910 C   0  0  0  0  0  0  0  0  0  0  0  0
   34.0600   28.9120   38.5390 C   0  0  0  0  0  0  0  0  0  0  0  0
   34.3120   27.8410   37.7140 C   0  0  0  0  0  0  0  0  0  0  0  0
   35.4600   27.0440   38.0080 C   0  0  0  0  0  0  0  0  0  0  0  0
   35.7160   25.9790   37.1940 C   0  0  0  0  0  0  0  0  0  0  0  0
   36.8120   25.1720   37.4240 C   0  0  0  0  0  0  0  0  0  0  0  0
   37.6640   25.4580   38.5030 C   0  0  0  0  0  0  0  0  0  0  0  0
   37.3560   26.5660   39.3130 C   0  0  0  0  0  0  0  0  0  0  0  0
   36.2600   27.3450   39.0620 C   0  0  0  0  0  0  0  0  0  0  0  0
   34.6920   30.0170   40.2380 H   0  0  0  0  0  0  0  0  0  0  0  0
   33.2050   29.5530   38.3640 H   0  0  0  0  0  0  0  0  0  0  0  0
   33.6870   27.5870   36.8720 H   0  0  0  0  0  0  0  0  0  0  0  0
   35.0770   25.7350   36.3540 H   0  0  0  0  0  0  0  0  0  0  0  0
   36.9820   24.3280   36.7500 H   0  0  0  0  0  0  0  0  0  0  0  0
   38.4950   24.7780   38.6080 H   0  0  0  0  0  0  0  0  0  0  0  0
   38.1220   26.6320   40.0550 H   0  0  0  0  0  0  0  0  0  0  0  0
   38.3340   30.2570   40.0540 O   0  0  0  0  0  0  0  0  0  0  0  0
   36.7310   32.2220   40.7050 O   0  0  0  0  0  0  0  0  0  0  0  0
   37.7940   31.8320   39.7430 P   0  0  1  0  0  0  0  0  0  0  0  0
   39.0500   32.9520   39.9150 O   0  0  0  0  0  0  0  0  0  0  0  0
   41.2180   33.0930   40.8010 C   0  0  2  0  0  3  0  0  0  0  0  0
   40.2900   32.3300   39.9160 C   0  0  2  0  0  3  0  0  0  0  0  0
   40.8360   32.3360   38.6370 O   0  0  0  0  0  0  0  0  0  0  0  0
   42.2190   32.3760   38.7990 C   0  0  0  0  0  2  0  0  0  0  0  0
   42.4510   33.3170   39.9410 C   0  0  2  0  0  3  0  0  0  0  0  0
   41.6070   32.3240   41.9090 O   0  0  0  0  0  0  0  0  0  0  0  0
   41.3010   31.3980   41.7410 H   0  0  0  0  0  0  0  0  0  0  0  0
   43.6190   32.9790   40.6000 O   0  0  0  0  0  0  0  0  0  0  0  0
   44.0220   32.1260   40.2480 H   0  0  0  0  0  0  0  0  0  0  0  0
   37.2300   31.8920   38.1630 O   0  0  0  0  0  0  0  0  0  0  0  0
   37.8260   31.3250   37.0470 C   0  0  0  0  0  0  0  0  0  0  0  0
   37.2900   30.2080   36.9370 O   0  0  0  0  0  0  0  0  0  0  0  0
   38.7970   32.2220   36.4720 N   0  0  0  0  0  0  0  0  0  0  0  0
   39.8520   32.1560   36.4620 H   0  0  0  0  0  0  0  0  0  0  0  0
   38.4180   33.0700   35.9860 H   0  0  0  0  0  0  0  0  0  0  0  0
  1  7  1  0  0  0  0
  1  6  1  0  0  0  0
  2  1  2  0  0  0  0
  3  2  1  0  0  0  0
  3  4  2  0  0  0  0
  4  5  1  0  0  0  0
  5  6  2  0  0  0  0
  5  8  1  0  0  0  0
  9  3  1  0  0  0  0
 10  9  1  0  0  0  0
 10 19  1  0  0  0  0
 11 10  2  0  0  0  0
 12 13  2  0  0  0  0
 12 11  1  0  0  0  0
 13 18  1  0  0  0  0
 14 15  2  0  0  0  0
 14 13  1  0  0  0  0
 15 16  1  0  0  0  0
 16 24  1  0  0  0  0
 16 17  2  0  0  0  0
 17 25  1  0  0  0  0
 18 17  1  0  0  0  0
 18  9  2  0  0  0  0
 20 11  1  0  0  0  0
 21 12  1  0  0  0  0
 22 14  1  0  0  0  0
 23 15  1  0  0  0  0
 26  2  1  0  0  0  0
 28 29  1  0  0  0  0
 28 26  1  0  0  0  0
 28 27  2  1  0  0  0
 30 35  1  1  0  0  0
 31 29  1  6  0  0  0
 31 30  1  0  0  0  0
 32 33  1  0  0  0  0
 32 31  1  0  0  0  0
 33 34  1  0  0  0  0
 34 37  1  1  0  0  0
 34 30  1  0  0  0  0
 36 35  1  0  0  0  0
 38 37  1  0  0  0  0
 39 28  1  0  0  0  0
 40 39  1  0  0  0  0
 41 40  2  0  0  0  0
 42 40  1  0  0  0  0
 43 42  1  0  0  0  0
 44 42  1  0  0  0  0
M  END
>  <minimizedAffinity>
-6.0513587

$$$$

 OpenBabel03252508093D

 44 47  0  0  1  0  0  0  0  0999 V2000
   36.7420   29.9240   37.4810 C   0  0  0  0  0  0  0  0  0  0  0  0
   37.0830   29.3760   38.7060 C   0  0  0  0  0  0  0  0  0  0  0  0
   36.3140   28.3770   39.2470 C   0  0  0  0  0  0  0  0  0  0  0  0
   35.2180   27.9620   38.5180 N   0  0  0  0  0  0  0  0  0  0  0  0
   34.8970   28.4930   37.3390 C   0  0  0  0  0  0  0  0  0  0  0  0
   35.6700   29.4760   36.8300 N   0  0  0  0  0  0  0  0  0  0  0  0
   37.3420   30.7170   37.0420 H   0  0  0  0  0  0  0  0  0  0  0  0
   34.0280   28.1430   36.7930 H   0  0  0  0  0  0  0  0  0  0  0  0
   36.5270   27.7180   40.4810 C   0  0  0  0  0  0  0  0  0  0  0  0
   36.2510   28.2840   41.7290 C   0  0  0  0  0  0  0  0  0  0  0  0
   36.5170   27.6740   42.9270 C   0  0  0  0  0  0  0  0  0  0  0  0
   37.0940   26.4260   42.9420 C   0  0  0  0  0  0  0  0  0  0  0  0
   37.3840   25.8240   41.6800 C   0  0  0  0  0  0  0  0  0  0  0  0
   37.9570   24.5850   41.6880 C   0  0  0  0  0  0  0  0  0  0  0  0
   38.2600   23.9490   40.5000 C   0  0  0  0  0  0  0  0  0  0  0  0
   37.9720   24.5870   39.2840 C   0  0  0  0  0  0  0  0  0  0  0  0
   37.3820   25.8630   39.3300 C   0  0  0  0  0  0  0  0  0  0  0  0
   37.0980   26.4710   40.5230 C   0  0  0  0  0  0  0  0  0  0  0  0
   35.7960   29.2700   41.7260 H   0  0  0  0  0  0  0  0  0  0  0  0
   36.2720   28.1810   43.8530 H   0  0  0  0  0  0  0  0  0  0  0  0
   37.3290   25.8980   43.8530 H   0  0  0  0  0  0  0  0  0  0  0  0
   38.1900   24.0680   42.6110 H   0  0  0  0  0  0  0  0  0  0  0  0
   38.7190   22.9580   40.5490 H   0  0  0  0  0  0  0  0  0  0  0  0
   38.2390   24.0180   38.4070 H   0  0  0  0  0  0  0  0  0  0  0  0
   37.2210   26.1690   38.3180 H   0  0  0  0  0  0  0  0  0  0  0  0
   38.1970   29.8730   39.3240 O   0  0  0  0  0  0  0  0  0  0  0  0
   36.8330   31.7000   40.6100 O   0  0  0  0  0  0  0  0  0  0  0  0
   38.2160   31.2420   40.3200 P   0  0  1  0  0  0  0  0  0  0  0  0
   38.9460   30.9030   41.8080 O   0  0  0  0  0  0  0  0  0  0  0  0
   39.9610   28.7930   41.9590 C   0  0  2  0  0  3  0  0  0  0  0  0
   40.1530   30.2390   41.6430 C   0  0  2  0  0  3  0  0  0  0  0  0
   41.1030   30.7360   42.5300 O   0  0  0  0  0  0  0  0  0  0  0  0
   41.9620   29.6780   42.8200 C   0  0  0  0  0  2  0  0  0  0  0  0
   41.0740   28.4780   42.9460 C   0  0  2  0  0  3  0  0  0  0  0  0
   40.1660   27.9960   40.8200 O   0  0  0  0  0  0  0  0  0  0  0  0
   40.5550   28.5810   40.1240 H   0  0  0  0  0  0  0  0  0  0  0  0
   41.7730   27.3360   42.6020 O   0  0  0  0  0  0  0  0  0  0  0  0
   42.6930   27.5440   42.2480 H   0  0  0  0  0  0  0  0  0  0  0  0
   39.1010   32.4420   39.5470 O   0  0  0  0  0  0  0  0  0  0  0  0
   39.5370   33.6370   40.0990 C   0  0  0  0  0  0  0  0  0  0  0  0
   40.4350   34.0290   39.3310 O   0  0  0  0  0  0  0  0  0  0  0  0
   38.8050   33.9450   41.3020 N   0  0  0  0  0  0  0  0  0  0  0  0
   39.1270   33.9290   42.3090 H   0  0  0  0  0  0  0  0  0  0  0  0
   37.8050   34.2300   41.1790 H   0  0  0  0  0  0  0  0  0  0  0  0
  1  2  1  0  0  0  0
  2  3  2  0  0  0  0
  2 26  1  0  0  0  0
  3  9  1  0  0  0  0
  4  3  1  0  0  0  0
  5  4  2  0  0  0  0
  6  5  1  0  0  0  0
  6  1  2  0  0  0  0
  7  1  1  0  0  0  0
  8  5  1  0  0  0  0
  9 18  2  0  0  0  0
  9 10  1  0  0  0  0
 10 11  2  0  0  0  0
 11 12  1  0  0  0  0
 11 20  1  0  0  0  0
 12 21  1  0  0  0  0
 13 14  1  0  0  0  0
 13 12  2  0  0  0  0
 14 22  1  0  0  0  0
 15 23  1  0  0  0  0
 15 14  2  0  0  0  0
 16 17  2  0  0  0  0
 16 15  1  0  0  0  0
 17 18  1  0  0  0  0
 18 13  1  0  0  0  0
 19 10  1  0  0  0  0
 24 16  1  0  0  0  0
 25 17  1  0  0  0  0
 26 28  1  0  0  0  0
 28 27  2  1  0  0  0
 28 29  1  0  0  0  0
 30 35  1  6  0  0  0
 30 34  1  0  0  0  0
 31 29  1  1  0  0  0
 31 30  1  0  0  0  0
 31 32  1  0  0  0  0
 32 33  1  0  0  0  0
 33 34  1  0  0  0  0
 34 37  1  6  0  0  0
 36 35  1  0  0  0  0
 38 37  1  0  0  0  0
 39 40  1  0  0  0  0
 39 28  1  0  0  0  0
 40 42  1  0  0  0  0
 41 40  2  0  0  0  0
 42 43  1  0  0  0  0
 44 42  1  0  0  0  0
M  END
>  <minimizedAffinity>
-5.91150856

$$$$

 OpenBabel03252508093D

 44 47  0  0  1  0  0  0  0  0999 V2000
   36.7910   28.9330   36.8930 C   0  0  0  0  0  0  0  0  0  0  0  0
   37.2220   28.0720   37.8880 C   0  0  0  0  0  0  0  0  0  0  0  0
   36.3440   27.6470   38.8530 C   0  0  0  0  0  0  0  0  0  0  0  0
   35.0470   28.1110   38.7700 N   0  0  0  0  0  0  0  0  0  0  0  0
   34.6380   28.9380   37.8090 C   0  0  0  0  0  0  0  0  0  0  0  0
   35.5240   29.3430   36.8740 N   0  0  0  0  0  0  0  0  0  0  0  0
   37.4770   29.2790   36.1240 H   0  0  0  0  0  0  0  0  0  0  0  0
   33.6120   29.2830   37.7750 H   0  0  0  0  0  0  0  0  0  0  0  0
   36.6260   26.7740   39.9300 C   0  0  0  0  0  0  0  0  0  0  0  0
   36.5870   25.3790   39.8400 C   0  0  0  0  0  0  0  0  0  0  0  0
   36.7940   24.5330   40.8970 C   0  0  0  0  0  0  0  0  0  0  0  0
   37.0580   25.0520   42.1430 C   0  0  0  0  0  0  0  0  0  0  0  0
   37.1050   26.4740   42.2630 C   0  0  0  0  0  0  0  0  0  0  0  0
   37.3660   26.9960   43.4960 C   0  0  0  0  0  0  0  0  0  0  0  0
   37.4270   28.3630   43.6770 C   0  0  0  0  0  0  0  0  0  0  0  0
   37.2200   29.2130   42.5790 C   0  0  0  0  0  0  0  0  0  0  0  0
   36.9540   28.6260   41.3290 C   0  0  0  0  0  0  0  0  0  0  0  0
   36.8950   27.2670   41.1820 C   0  0  0  0  0  0  0  0  0  0  0  0
   36.3780   24.9620   38.8590 H   0  0  0  0  0  0  0  0  0  0  0  0
   36.7470   23.4610   40.7440 H   0  0  0  0  0  0  0  0  0  0  0  0
   37.2270   24.4360   43.0120 H   0  0  0  0  0  0  0  0  0  0  0  0
   37.5300   26.3650   44.3620 H   0  0  0  0  0  0  0  0  0  0  0  0
   37.6370   28.7420   44.6820 H   0  0  0  0  0  0  0  0  0  0  0  0
   37.2880   30.2650   42.8100 H   0  0  0  0  0  0  0  0  0  0  0  0
   36.8500   29.4240   40.6260 H   0  0  0  0  0  0  0  0  0  0  0  0
   38.5320   27.6830   37.8530 O   0  0  0  0  0  0  0  0  0  0  0  0
   41.0920   28.2270   37.7870 O   0  0  0  0  0  0  0  0  0  0  0  0
   39.8230   28.5880   38.4710 P   0  0  1  0  0  0  0  0  0  0  0  0
   39.5820   30.2430   38.2220 O   0  0  0  0  0  0  0  0  0  0  0  0
   37.9400   31.7870   38.8720 C   0  0  2  0  0  3  0  0  0  0  0  0
   39.0010   30.8450   39.3300 C   0  0  2  0  0  3  0  0  0  0  0  0
   39.9470   31.5890   40.0270 O   0  0  0  0  0  0  0  0  0  0  0  0
   39.2590   32.6450   40.6190 C   0  0  0  0  0  2  0  0  0  0  0  0
   38.2630   33.0880   39.5900 C   0  0  2  0  0  3  0  0  0  0  0  0
   36.6710   31.3680   39.3050 O   0  0  0  0  0  0  0  0  0  0  0  0
   36.8140   30.6360   39.9550 H   0  0  0  0  0  0  0  0  0  0  0  0
   37.1550   33.6350   40.2110 O   0  0  0  0  0  0  0  0  0  0  0  0
   37.1940   33.5400   41.2130 H   0  0  0  0  0  0  0  0  0  0  0  0
   39.9250   28.2990   40.1220 O   0  0  0  0  0  0  0  0  0  0  0  0
   40.9010   27.5650   40.7780 C   0  0  0  0  0  0  0  0  0  0  0  0
   41.8090   28.3830   41.0070 O   0  0  0  0  0  0  0  0  0  0  0  0
   40.4930   26.1900   40.9310 N   0  0  0  0  0  0  0  0  0  0  0  0
   40.8570   25.3230   40.4500 H   0  0  0  0  0  0  0  0  0  0  0  0
   39.7240   26.0060   41.6190 H   0  0  0  0  0  0  0  0  0  0  0  0
  1  2  1  0  0  0  0
  2  3  2  0  0  0  0
  3  9  1  0  0  0  0
  4  3  1  0  0  0  0
  5  4  2  0  0  0  0
  6  1  2  0  0  0  0
  6  5  1  0  0  0  0
  7  1  1  0  0  0  0
  8  5  1  0  0  0  0
  9 18  1  0  0  0  0
 10  9  2  0  0  0  0
 10 11  1  0  0  0  0
 11 12  2  0  0  0  0
 12 13  1  0  0  0  0
 12 21  1  0  0  0  0
 13 14  1  0  0  0  0
 14 15  2  0  0  0  0
 14 22  1  0  0  0  0
 15 23  1  0  0  0  0
 16 24  1  0  0  0  0
 16 15  1  0  0  0  0
 17 16  2  0  0  0  0
 18 17  1  0  0  0  0
 18 13  2  0  0  0  0
 19 10  1  0  0  0  0
 20 11  1  0  0  0  0
 25 17  1  0  0  0  0
 26  2  1  0  0  0  0
 26 28  1  0  0  0  0
 28 27  2  6  0  0  0
 28 39  1  0  0  0  0
 29 28  1  0  0  0  0
 30 35  1  1  0  0  0
 30 31  1  0  0  0  0
 30 34  1  0  0  0  0
 31 29  1  6  0  0  0
 31 32  1  0  0  0  0
 32 33  1  0  0  0  0
 34 37  1  1  0  0  0
 34 33  1  0  0  0  0
 35 36  1  0  0  0  0
 37 38  1  0  0  0  0
 39 40  1  0  0  0  0
 40 42  1  0  0  0  0
 40 41  2  0  0  0  0
 42 44  1  0  0  0  0
 43 42  1  0  0  0  0
M  END
>  <minimizedAffinity>
-5.90019226

$$$$
