
 OpenBabel03252500233D

 25 26  0  0  1  0  0  0  0  0999 V2000
   47.7940   32.5510   47.8920 O   0  0  0  0  0  0  0  0  0  0  0  0
   46.7090   32.0270   46.9790 P   0  0  2  0  0  0  0  0  0  0  0  0
   47.4460   31.3430   45.6230 O   0  0  0  0  0  0  0  0  0  0  0  0
   48.0890   32.0320   45.2750 H   0  0  0  0  0  0  0  0  0  0  0  0
   45.7290   33.3680   46.5610 O   0  0  0  0  0  0  0  0  0  0  0  0
   44.6290   35.2410   43.7230 C   0  0  0  0  0  0  0  0  0  0  0  0
   45.6900   35.1360   42.8050 C   0  0  0  0  0  0  0  0  0  0  0  0
   46.8080   34.3850   43.2140 C   0  0  0  0  0  0  0  0  0  0  0  0
   46.8050   33.8170   44.4390 N   0  0  0  0  0  0  0  0  0  0  0  0
   45.7500   33.9460   45.2950 C   0  0  0  0  0  0  0  0  0  0  0  0
   44.6820   34.6620   44.9100 N   0  0  0  0  0  0  0  0  0  0  0  0
   45.6310   35.6150   41.8400 H   0  0  0  0  0  0  0  0  0  0  0  0
   47.6470   34.2790   42.5400 H   0  0  0  0  0  0  0  0  0  0  0  0
   43.5430   35.9720   43.3220 O   0  0  0  0  0  0  0  0  0  0  0  0
   42.5990   35.6660   43.5850 H   0  0  0  0  0  0  0  0  0  0  0  0
   45.8480   30.8720   47.8280 O   0  0  0  0  0  0  0  0  0  0  0  0
   47.6680   29.3070   47.6640 C   0  0  2  0  0  0  0  0  0  0  0  0
   46.2290   29.6380   47.3300 C   0  0  1  0  0  0  0  0  0  0  0  0
   45.5640   28.5680   47.8700 O   0  0  0  0  0  0  0  0  0  0  0  0
   46.2050   27.4880   47.2620 C   0  0  0  0  0  0  0  0  0  0  0  0
   47.6800   27.8140   47.3720 C   0  0  2  0  0  0  0  0  0  0  0  0
   48.0020   29.6060   48.9710 O   0  0  0  0  0  0  0  0  0  0  0  0
   47.2140   29.7570   49.5500 H   0  0  0  0  0  0  0  0  0  0  0  0
   48.2470   27.0940   48.4170 O   0  0  0  0  0  0  0  0  0  0  0  0
   48.1830   27.6870   49.2310 H   0  0  0  0  0  0  0  0  0  0  0  0
  2 16  1  0  0  0  0
  2  1  2  1  0  0  0
  3  2  1  0  0  0  0
  4  3  1  0  0  0  0
  5  2  1  0  0  0  0
  6 11  1  0  0  0  0
  7  8  1  0  0  0  0
  7  6  2  0  0  0  0
  8  9  2  0  0  0  0
  9 10  1  0  0  0  0
 10  5  1  0  0  0  0
 11 10  2  0  0  0  0
 12  7  1  0  0  0  0
 13  8  1  0  0  0  0
 14 15  1  0  0  0  0
 14  6  1  0  0  0  0
 17 22  1  1  0  0  0
 18 17  1  0  0  0  0
 18 16  1  1  0  0  0
 18 19  1  0  0  0  0
 20 21  1  0  0  0  0
 20 19  1  0  0  0  0
 21 17  1  0  0  0  0
 21 24  1  1  0  0  0
 22 23  1  0  0  0  0
 24 25  1  0  0  0  0
M  END
>  <minimizedAffinity>
-4.68953848

>  <minimizedRMSD>
4.33447027

$$$$
