
 OpenBabel03252506453D

 42 45  0  0  1  0  0  0  0  0999 V2000
   49.5240   33.5150   41.3680 N   0  0  1  0  0  0  0  0  0  0  0  0
   50.7200   33.0870   42.0920 C   0  0  0  0  0  0  0  0  0  0  0  0
   51.2670   31.7780   41.6010 C   0  0  0  0  0  0  0  0  0  0  0  0
   50.2770   30.6780   41.9540 C   0  0  0  0  0  0  0  0  0  0  0  0
   48.8650   31.1770   41.8100 C   0  0  0  0  0  0  0  0  0  0  0  0
   48.8420   32.3490   40.8630 C   0  0  2  0  0  0  0  0  0  0  0  0
   50.5280   32.9760   43.1670 H   0  0  0  0  0  0  0  0  0  0  0  0
   51.4800   33.8860   41.9810 H   0  0  0  0  0  0  0  0  0  0  0  0
   51.4700   31.7820   40.5090 H   0  0  0  0  0  0  0  0  0  0  0  0
   52.2190   31.6180   42.1250 H   0  0  0  0  0  0  0  0  0  0  0  0
   50.4890   30.2590   42.9550 H   0  0  0  0  0  0  0  0  0  0  0  0
   50.4490   29.8450   41.2270 H   0  0  0  0  0  0  0  0  0  0  0  0
   48.1520   30.4330   41.4680 H   0  0  0  0  0  0  0  0  0  0  0  0
   48.5900   31.5790   42.8270 H   0  0  0  0  0  0  0  0  0  0  0  0
   47.7610   32.6330   40.7620 H   0  0  0  0  0  0  0  0  0  0  0  0
   47.3750   34.7870   41.9710 C   0  0  1  0  0  0  0  0  0  0  0  0
   48.4880   35.7160   41.8190 C   0  0  0  0  0  0  0  0  0  0  0  0
   48.7820   34.3200   42.2700 C   0  0  2  0  0  0  0  0  0  0  0  0
   46.9320   34.2070   41.1260 H   0  0  0  0  0  0  0  0  0  0  0  0
   48.7560   35.9810   40.7590 H   0  0  0  0  0  0  0  0  0  0  0  0
   48.5790   36.5590   42.5340 H   0  0  0  0  0  0  0  0  0  0  0  0
   48.9830   34.1980   43.3540 H   0  0  0  0  0  0  0  0  0  0  0  0
   45.5520   36.0450   43.1640 C   0  0  0  0  0  0  0  0  0  0  0  0
   46.4200   34.9300   43.0980 C   0  0  0  0  0  0  0  0  0  0  0  0
   46.3430   33.9900   44.1220 C   0  0  0  0  0  0  0  0  0  0  0  0
   45.4450   34.1990   45.1120 N   0  0  0  0  0  0  0  0  0  0  0  0
   44.6290   35.2590   45.1600 C   0  0  0  0  0  0  0  0  0  0  0  0
   44.6730   36.2020   44.1790 N   0  0  0  0  0  0  0  0  0  0  0  0
   45.6490   36.7460   42.3490 H   0  0  0  0  0  0  0  0  0  0  0  0
   46.9860   33.1190   44.1170 H   0  0  0  0  0  0  0  0  0  0  0  0
   43.9420   35.3330   46.0020 H   0  0  0  0  0  0  0  0  0  0  0  0
   49.2930   31.9610   39.5570 N   0  0  0  0  0  0  0  0  0  0  0  0
   50.2180   32.3590   39.3530 H   0  0  0  0  0  0  0  0  0  0  0  0
   48.9450   32.0140   37.1380 C   0  0  2  0  0  3  0  0  0  0  0  0
   48.3950   32.3870   38.5120 C   0  0  2  0  0  3  0  0  0  0  0  0
   48.2010   33.7400   38.4690 O   0  0  0  0  0  0  0  0  0  0  0  0
   48.1190   34.1790   37.1740 C   0  0  0  0  0  2  0  0  0  0  0  0
   48.1410   32.9640   36.2730 C   0  0  1  0  0  3  0  0  0  0  0  0
   48.6760   30.6850   36.8330 O   0  0  0  0  0  0  0  0  0  0  0  0
   47.7350   30.5100   37.1010 H   0  0  0  0  0  0  0  0  0  0  0  0
   48.8570   33.2820   35.0950 O   0  0  0  0  0  0  0  0  0  0  0  0
   48.6200   34.2000   34.8150 H   0  0  0  0  0  0  0  0  0  0  0  0
  1  2  1  1  0  0  0
  1 18  1  0  0  0  0
  2  7  1  0  0  0  0
  3  4  1  0  0  0  0
  3  2  1  0  0  0  0
  3 10  1  0  0  0  0
  4 11  1  0  0  0  0
  5  4  1  0  0  0  0
  5 14  1  0  0  0  0
  6 15  1  6  0  0  0
  6  1  1  0  0  0  0
  6  5  1  0  0  0  0
  8  2  1  0  0  0  0
  9  3  1  0  0  0  0
 12  4  1  0  0  0  0
 13  5  1  0  0  0  0
 16 19  1  6  0  0  0
 16 18  1  0  0  0  0
 16 24  1  0  0  0  0
 17 16  1  0  0  0  0
 17 18  1  0  0  0  0
 17 21  1  0  0  0  0
 18 22  1  1  0  0  0
 20 17  1  0  0  0  0
 23 28  1  0  0  0  0
 24 23  2  0  0  0  0
 24 25  1  0  0  0  0
 25 26  2  0  0  0  0
 26 27  1  0  0  0  0
 27 31  1  0  0  0  0
 28 27  2  0  0  0  0
 29 23  1  0  0  0  0
 30 25  1  0  0  0  0
 32  6  1  0  0  0  0
 33 32  1  0  0  0  0
 34 39  1  6  0  0  0
 34 35  1  0  0  0  0
 35 32  1  1  0  0  0
 36 35  1  0  0  0  0
 37 36  1  0  0  0  0
 38 41  1  6  0  0  0
 38 34  1  0  0  0  0
 38 37  1  0  0  0  0
 39 40  1  0  0  0  0
 42 41  1  0  0  0  0
M  END
>  <minimizedAffinity>
-5.64287186

>  <minimizedRMSD>
2.67502332

$$$$
