
 OpenBabel03252506443D

 42 45  0  0  1  0  0  0  0  0999 V2000
   49.8320   33.5690   41.4240 N   0  0  1  0  0  0  0  0  0  0  0  0
   50.7160   32.8590   42.3460 C   0  0  0  0  0  0  0  0  0  0  0  0
   51.1910   31.5400   41.8050 C   0  0  0  0  0  0  0  0  0  0  0  0
   50.0010   30.5960   41.7230 C   0  0  0  0  0  0  0  0  0  0  0  0
   48.7630   31.3470   41.3130 C   0  0  0  0  0  0  0  0  0  0  0  0
   49.1580   32.6070   40.5870 C   0  0  2  0  0  0  0  0  0  0  0  0
   50.2270   32.6570   43.3080 H   0  0  0  0  0  0  0  0  0  0  0  0
   51.5810   33.5200   42.5560 H   0  0  0  0  0  0  0  0  0  0  0  0
   51.6800   31.6360   40.8130 H   0  0  0  0  0  0  0  0  0  0  0  0
   51.9340   31.1570   42.5180 H   0  0  0  0  0  0  0  0  0  0  0  0
   49.8740   30.0330   42.6650 H   0  0  0  0  0  0  0  0  0  0  0  0
   50.2470   29.8370   40.9390 H   0  0  0  0  0  0  0  0  0  0  0  0
   48.0740   30.7830   40.6900 H   0  0  0  0  0  0  0  0  0  0  0  0
   48.2810   31.6690   42.2800 H   0  0  0  0  0  0  0  0  0  0  0  0
   48.1950   33.0850   40.2670 H   0  0  0  0  0  0  0  0  0  0  0  0
   47.5490   34.6590   41.8710 C   0  0  1  0  0  0  0  0  0  0  0  0
   48.5600   35.6810   41.6290 C   0  0  0  0  0  0  0  0  0  0  0  0
   48.9910   34.3810   42.2280 C   0  0  2  0  0  0  0  0  0  0  0  0
   47.1860   33.9490   41.0890 H   0  0  0  0  0  0  0  0  0  0  0  0
   48.8190   35.8610   40.5480 H   0  0  0  0  0  0  0  0  0  0  0  0
   48.5470   36.6000   42.2500 H   0  0  0  0  0  0  0  0  0  0  0  0
   49.1840   34.3970   43.3210 H   0  0  0  0  0  0  0  0  0  0  0  0
   45.6740   35.9180   42.9800 C   0  0  0  0  0  0  0  0  0  0  0  0
   46.5630   34.8170   42.9680 C   0  0  0  0  0  0  0  0  0  0  0  0
   46.4750   33.9050   44.0170 C   0  0  0  0  0  0  0  0  0  0  0  0
   45.5480   34.1270   44.9770 N   0  0  0  0  0  0  0  0  0  0  0  0
   44.7140   35.1730   44.9740 C   0  0  0  0  0  0  0  0  0  0  0  0
   44.7670   36.0880   43.9680 N   0  0  0  0  0  0  0  0  0  0  0  0
   45.7800   36.5970   42.1480 H   0  0  0  0  0  0  0  0  0  0  0  0
   47.1330   33.0460   44.0540 H   0  0  0  0  0  0  0  0  0  0  0  0
   44.0040   35.2580   45.7960 H   0  0  0  0  0  0  0  0  0  0  0  0
   49.8880   32.3020   39.3900 N   0  0  0  0  0  0  0  0  0  0  0  0
   50.7130   32.9080   39.2960 H   0  0  0  0  0  0  0  0  0  0  0  0
   48.1480   33.6540   38.3310 C   0  0  2  0  0  3  0  0  0  0  0  0
   49.0910   32.4610   38.1990 C   0  0  2  0  0  3  0  0  0  0  0  0
   48.2830   31.3900   37.9300 O   0  0  0  0  0  0  0  0  0  0  0  0
   47.0730   31.8030   37.4400 C   0  0  0  0  0  2  0  0  0  0  0  0
   47.1380   33.3040   37.2560 C   0  0  1  0  0  3  0  0  0  0  0  0
   48.8060   34.8460   38.0530 O   0  0  0  0  0  0  0  0  0  0  0  0
   49.3650   34.6890   37.2480 H   0  0  0  0  0  0  0  0  0  0  0  0
   45.8760   33.8590   37.5680 O   0  0  0  0  0  0  0  0  0  0  0  0
   45.1700   33.2670   37.2090 H   0  0  0  0  0  0  0  0  0  0  0  0
  1 18  1  0  0  0  0
  1  2  1  1  0  0  0
  2  8  1  0  0  0  0
  2  7  1  0  0  0  0
  3  2  1  0  0  0  0
  3 10  1  0  0  0  0
  4  3  1  0  0  0  0
  4 11  1  0  0  0  0
  5  4  1  0  0  0  0
  5 14  1  0  0  0  0
  6 15  1  6  0  0  0
  6  5  1  0  0  0  0
  6  1  1  0  0  0  0
  9  3  1  0  0  0  0
 12  4  1  0  0  0  0
 13  5  1  0  0  0  0
 16 19  1  6  0  0  0
 16 18  1  0  0  0  0
 16 24  1  0  0  0  0
 17 16  1  0  0  0  0
 17 18  1  0  0  0  0
 17 21  1  0  0  0  0
 18 22  1  1  0  0  0
 20 17  1  0  0  0  0
 23 28  1  0  0  0  0
 24 23  2  0  0  0  0
 24 25  1  0  0  0  0
 25 30  1  0  0  0  0
 25 26  2  0  0  0  0
 27 26  1  0  0  0  0
 27 31  1  0  0  0  0
 28 27  2  0  0  0  0
 29 23  1  0  0  0  0
 32  6  1  0  0  0  0
 33 32  1  0  0  0  0
 34 39  1  6  0  0  0
 35 34  1  0  0  0  0
 35 32  1  1  0  0  0
 36 35  1  0  0  0  0
 37 36  1  0  0  0  0
 38 37  1  0  0  0  0
 38 41  1  1  0  0  0
 38 34  1  0  0  0  0
 40 39  1  0  0  0  0
 42 41  1  0  0  0  0
M  END
>  <minimizedAffinity>
-5.88764524

>  <minimizedRMSD>
2.67608023

$$$$
