
 OpenBabel03252501043D

 31 33  0  0  1  0  0  0  0  0999 V2000
   37.2160   26.7080   42.3920 C   0  0  1  0  0  0  0  0  0  0  0  0
   36.5900   27.4500   43.5110 C   0  0  0  0  0  0  0  0  0  0  0  0
   36.6750   28.0510   42.1150 C   0  0  1  0  0  0  0  0  0  0  0  0
   36.6640   25.8060   42.0160 H   0  0  0  0  0  0  0  0  0  0  0  0
   35.5940   27.1340   43.9140 H   0  0  0  0  0  0  0  0  0  0  0  0
   37.1630   28.0680   44.2340 H   0  0  0  0  0  0  0  0  0  0  0  0
   35.6610   28.1580   41.6780 H   0  0  0  0  0  0  0  0  0  0  0  0
   40.7620   26.6630   43.6800 C   0  0  0  0  0  0  0  0  0  0  0  0
   39.3630   26.7900   43.6760 C   0  0  0  0  0  0  0  0  0  0  0  0
   38.7000   26.5810   42.4640 C   0  0  0  0  0  0  0  0  0  0  0  0
   39.4170   26.2670   41.3510 N   0  0  0  0  0  0  0  0  0  0  0  0
   40.7640   26.1520   41.3870 C   0  0  0  0  0  0  0  0  0  0  0  0
   41.4370   26.3510   42.5560 N   0  0  0  0  0  0  0  0  0  0  0  0
   41.3000   26.8190   44.6040 H   0  0  0  0  0  0  0  0  0  0  0  0
   38.8770   27.0340   44.5860 H   0  0  0  0  0  0  0  0  0  0  0  0
   41.3230   25.9020   40.4950 H   0  0  0  0  0  0  0  0  0  0  0  0
   37.5420   29.0240   41.7950 O   0  0  0  0  0  0  0  0  0  0  0  0
   35.7870   30.8970   41.1180 O   0  0  0  0  0  0  0  0  0  0  0  0
   37.0760   30.1990   40.7490 P   0  0  2  0  0  0  0  0  0  0  0  0
   36.8890   29.6740   39.1520 O   0  0  0  0  0  0  0  0  0  0  0  0
   36.3940   28.8000   39.1230 H   0  0  0  0  0  0  0  0  0  0  0  0
   38.2470   31.4200   40.7300 O   0  0  0  0  0  0  0  0  0  0  0  0
   39.6920   32.8780   39.6070 C   0  0  2  0  0  3  0  0  0  0  0  0
   38.6590   31.7680   39.4610 C   0  0  2  0  0  3  0  0  0  0  0  0
   37.6210   32.4760   38.8640 O   0  0  0  0  0  0  0  0  0  0  0  0
   37.4840   33.6580   39.5710 C   0  0  0  0  0  2  0  0  0  0  0  0
   38.8200   33.9690   40.2020 C   0  0  1  0  0  3  0  0  0  0  0  0
   40.0970   33.2120   38.3160 O   0  0  0  0  0  0  0  0  0  0  0  0
   39.2740   33.2880   37.7690 H   0  0  0  0  0  0  0  0  0  0  0  0
   38.8260   33.7800   41.5820 O   0  0  0  0  0  0  0  0  0  0  0  0
   37.9140   33.6490   41.9530 H   0  0  0  0  0  0  0  0  0  0  0  0
  1  4  1  6  0  0  0
  1 10  1  0  0  0  0
  1  2  1  0  0  0  0
  2  5  1  0  0  0  0
  2  6  1  0  0  0  0
  3  7  1  6  0  0  0
  3  1  1  0  0  0  0
  3  2  1  0  0  0  0
  8 14  1  0  0  0  0
  9  8  1  0  0  0  0
  9 15  1  0  0  0  0
 10  9  2  0  0  0  0
 11 12  2  0  0  0  0
 11 10  1  0  0  0  0
 12 13  1  0  0  0  0
 13  8  2  0  0  0  0
 16 12  1  0  0  0  0
 17  3  1  0  0  0  0
 19 18  2  1  0  0  0
 19 17  1  0  0  0  0
 20 19  1  0  0  0  0
 21 20  1  0  0  0  0
 22 19  1  0  0  0  0
 23 28  1  6  0  0  0
 23 27  1  0  0  0  0
 24 23  1  0  0  0  0
 24 22  1  1  0  0  0
 25 24  1  0  0  0  0
 25 26  1  0  0  0  0
 26 27  1  0  0  0  0
 27 30  1  1  0  0  0
 29 28  1  0  0  0  0
 30 31  1  0  0  0  0
M  END
>  <minimizedAffinity>
-5.39983559

$$$$

 OpenBabel03252501043D

 31 33  0  0  1  0  0  0  0  0999 V2000
   36.9780   26.9750   43.1970 C   0  0  1  0  0  0  0  0  0  0  0  0
   37.8650   28.0600   43.6780 C   0  0  0  0  0  0  0  0  0  0  0  0
   36.7440   28.3370   42.6850 C   0  0  1  0  0  0  0  0  0  0  0  0
   36.2640   26.5400   43.9450 H   0  0  0  0  0  0  0  0  0  0  0  0
   37.7750   28.4410   44.7270 H   0  0  0  0  0  0  0  0  0  0  0  0
   38.8500   28.2940   43.2240 H   0  0  0  0  0  0  0  0  0  0  0  0
   35.9640   28.9740   43.1490 H   0  0  0  0  0  0  0  0  0  0  0  0
   37.5620   23.9940   40.9590 C   0  0  0  0  0  0  0  0  0  0  0  0
   36.9070   24.8760   41.8350 C   0  0  0  0  0  0  0  0  0  0  0  0
   37.6140   26.0030   42.2610 C   0  0  0  0  0  0  0  0  0  0  0  0
   38.8860   26.2050   41.8220 N   0  0  0  0  0  0  0  0  0  0  0  0
   39.4890   25.3370   40.9770 C   0  0  0  0  0  0  0  0  0  0  0  0
   38.8230   24.2280   40.5460 N   0  0  0  0  0  0  0  0  0  0  0  0
   37.0380   23.1140   40.6130 H   0  0  0  0  0  0  0  0  0  0  0  0
   35.9150   24.6500   42.1290 H   0  0  0  0  0  0  0  0  0  0  0  0
   40.5010   25.5080   40.6350 H   0  0  0  0  0  0  0  0  0  0  0  0
   36.9700   28.5660   41.3820 O   0  0  0  0  0  0  0  0  0  0  0  0
   38.1760   30.9220   41.1770 O   0  0  0  0  0  0  0  0  0  0  0  0
   36.9510   30.1100   40.8260 P   0  0  2  0  0  0  0  0  0  0  0  0
   35.6190   31.0180   41.3410 O   0  0  0  0  0  0  0  0  0  0  0  0
   35.4490   30.8730   42.3200 H   0  0  0  0  0  0  0  0  0  0  0  0
   36.9060   30.0900   39.1350 O   0  0  0  0  0  0  0  0  0  0  0  0
   37.4750   31.3230   37.2290 C   0  0  2  0  0  3  0  0  0  0  0  0
   37.9690   30.7420   38.5480 C   0  0  2  0  0  3  0  0  0  0  0  0
   38.8460   29.7710   38.0760 O   0  0  0  0  0  0  0  0  0  0  0  0
   38.1880   29.0980   37.0600 C   0  0  0  0  0  2  0  0  0  0  0  0
   37.1590   30.0400   36.4830 C   0  0  1  0  0  3  0  0  0  0  0  0
   38.5610   31.9790   36.6550 O   0  0  0  0  0  0  0  0  0  0  0  0
   39.3390   31.3690   36.7360 H   0  0  0  0  0  0  0  0  0  0  0  0
   35.8530   29.6900   36.8200 O   0  0  0  0  0  0  0  0  0  0  0  0
   35.7930   28.7860   37.2270 H   0  0  0  0  0  0  0  0  0  0  0  0
  1  2  1  0  0  0  0
  1  4  1  1  0  0  0
  2  5  1  0  0  0  0
  3  7  1  1  0  0  0
  3  1  1  0  0  0  0
  3  2  1  0  0  0  0
  6  2  1  0  0  0  0
  8  9  1  0  0  0  0
  9 15  1  0  0  0  0
  9 10  2  0  0  0  0
 10  1  1  0  0  0  0
 11 10  1  0  0  0  0
 12 11  2  0  0  0  0
 13  8  2  0  0  0  0
 13 12  1  0  0  0  0
 14  8  1  0  0  0  0
 16 12  1  0  0  0  0
 17  3  1  0  0  0  0
 19 18  2  1  0  0  0
 19 20  1  0  0  0  0
 19 17  1  0  0  0  0
 20 21  1  0  0  0  0
 22 19  1  0  0  0  0
 23 28  1  6  0  0  0
 23 24  1  0  0  0  0
 24 22  1  6  0  0  0
 25 24  1  0  0  0  0
 26 25  1  0  0  0  0
 27 30  1  1  0  0  0
 27 26  1  0  0  0  0
 27 23  1  0  0  0  0
 28 29  1  0  0  0  0
 30 31  1  0  0  0  0
M  END
>  <minimizedAffinity>
-5.37912273

$$$$

 OpenBabel03252501043D

 31 33  0  0  1  0  0  0  0  0999 V2000
   36.5420   28.9470   39.9510 C   0  0  1  0  0  0  0  0  0  0  0  0
   35.1340   29.3370   40.1960 C   0  0  0  0  0  0  0  0  0  0  0  0
   36.1760   30.3640   39.7760 C   0  0  1  0  0  0  0  0  0  0  0  0
   36.7380   28.3150   39.0450 H   0  0  0  0  0  0  0  0  0  0  0  0
   34.3310   29.0430   39.4740 H   0  0  0  0  0  0  0  0  0  0  0  0
   34.7320   29.5840   41.2010 H   0  0  0  0  0  0  0  0  0  0  0  0
   35.9490   30.7540   38.7630 H   0  0  0  0  0  0  0  0  0  0  0  0
   37.4670   27.8260   43.4330 C   0  0  0  0  0  0  0  0  0  0  0  0
   36.6740   28.1300   42.3140 C   0  0  0  0  0  0  0  0  0  0  0  0
   37.3270   28.5990   41.1710 C   0  0  0  0  0  0  0  0  0  0  0  0
   38.6800   28.7430   41.1800 N   0  0  0  0  0  0  0  0  0  0  0  0
   39.4150   28.4410   42.2750 C   0  0  0  0  0  0  0  0  0  0  0  0
   38.8050   27.9810   43.4040 N   0  0  0  0  0  0  0  0  0  0  0  0
   36.9880   27.4600   44.3300 H   0  0  0  0  0  0  0  0  0  0  0  0
   35.6260   27.9890   42.3850 H   0  0  0  0  0  0  0  0  0  0  0  0
   40.4900   28.5600   42.2710 H   0  0  0  0  0  0  0  0  0  0  0  0
   36.6990   31.2580   40.6290 O   0  0  0  0  0  0  0  0  0  0  0  0
   38.5640   33.0840   41.1150 O   0  0  0  0  0  0  0  0  0  0  0  0
   37.7240   32.4050   40.0570 P   0  0  2  0  0  0  0  0  0  0  0  0
   36.9670   33.6440   39.1890 O   0  0  0  0  0  0  0  0  0  0  0  0
   36.1380   33.9530   39.6640 H   0  0  0  0  0  0  0  0  0  0  0  0
   38.8380   31.6820   39.0090 O   0  0  0  0  0  0  0  0  0  0  0  0
   40.8980   32.7270   38.6350 C   0  0  2  0  0  3  0  0  0  0  0  0
   40.1350   31.7130   39.4770 C   0  0  2  0  0  3  0  0  0  0  0  0
   40.7550   30.5360   39.0680 O   0  0  0  0  0  0  0  0  0  0  0  0
   40.8340   30.5850   37.6870 C   0  0  0  0  0  2  0  0  0  0  0  0
   40.8360   32.0400   37.2820 C   0  0  1  0  0  3  0  0  0  0  0  0
   42.2020   32.7450   39.1240 O   0  0  0  0  0  0  0  0  0  0  0  0
   42.4770   31.8000   39.2400 H   0  0  0  0  0  0  0  0  0  0  0  0
   39.6420   32.4390   36.6840 O   0  0  0  0  0  0  0  0  0  0  0  0
   39.0550   31.6710   36.4540 H   0  0  0  0  0  0  0  0  0  0  0  0
  1  4  1  6  0  0  0
  1  2  1  0  0  0  0
  1 10  1  0  0  0  0
  2  6  1  0  0  0  0
  3  7  1  6  0  0  0
  3  1  1  0  0  0  0
  3  2  1  0  0  0  0
  3 17  1  0  0  0  0
  5  2  1  0  0  0  0
  8 14  1  0  0  0  0
  9 15  1  0  0  0  0
  9  8  2  0  0  0  0
 10 11  2  0  0  0  0
 10  9  1  0  0  0  0
 11 12  1  0  0  0  0
 12 13  2  0  0  0  0
 13  8  1  0  0  0  0
 16 12  1  0  0  0  0
 19 17  1  0  0  0  0
 19 18  2  1  0  0  0
 20 21  1  0  0  0  0
 20 19  1  0  0  0  0
 22 19  1  0  0  0  0
 23 28  1  1  0  0  0
 23 24  1  0  0  0  0
 24 22  1  6  0  0  0
 25 24  1  0  0  0  0
 26 25  1  0  0  0  0
 27 30  1  1  0  0  0
 27 26  1  0  0  0  0
 27 23  1  0  0  0  0
 28 29  1  0  0  0  0
 31 30  1  0  0  0  0
M  END
>  <minimizedAffinity>
-5.3579936

$$$$

 OpenBabel03252501043D

 31 33  0  0  1  0  0  0  0  0999 V2000
   36.9260   27.4830   43.0790 C   0  0  1  0  0  0  0  0  0  0  0  0
   37.7600   28.5510   43.6790 C   0  0  0  0  0  0  0  0  0  0  0  0
   37.0180   28.7710   42.3680 C   0  0  1  0  0  0  0  0  0  0  0  0
   35.9780   27.2220   43.6200 H   0  0  0  0  0  0  0  0  0  0  0  0
   37.4170   29.0870   44.6000 H   0  0  0  0  0  0  0  0  0  0  0  0
   38.8560   28.6350   43.5210 H   0  0  0  0  0  0  0  0  0  0  0  0
   36.2210   29.5300   42.4970 H   0  0  0  0  0  0  0  0  0  0  0  0
   37.7810   24.3040   41.2350 C   0  0  0  0  0  0  0  0  0  0  0  0
   37.0160   25.3630   41.7500 C   0  0  0  0  0  0  0  0  0  0  0  0
   37.6830   26.3360   42.4980 C   0  0  0  0  0  0  0  0  0  0  0  0
   39.0250   26.2280   42.6980 N   0  0  0  0  0  0  0  0  0  0  0  0
   39.7340   25.1950   42.1880 C   0  0  0  0  0  0  0  0  0  0  0  0
   39.1080   24.2320   41.4550 N   0  0  0  0  0  0  0  0  0  0  0  0
   37.2900   23.5380   40.6530 H   0  0  0  0  0  0  0  0  0  0  0  0
   35.9750   25.3780   41.5490 H   0  0  0  0  0  0  0  0  0  0  0  0
   40.8000   25.1200   42.3540 H   0  0  0  0  0  0  0  0  0  0  0  0
   37.6370   28.7880   41.1780 O   0  0  0  0  0  0  0  0  0  0  0  0
   35.8510   30.5750   40.3640 O   0  0  0  0  0  0  0  0  0  0  0  0
   37.1230   29.8350   40.0230 P   0  0  2  0  0  0  0  0  0  0  0  0
   36.8670   29.1270   38.5080 O   0  0  0  0  0  0  0  0  0  0  0  0
   36.3730   28.2570   38.6030 H   0  0  0  0  0  0  0  0  0  0  0  0
   38.2900   31.0410   39.8090 O   0  0  0  0  0  0  0  0  0  0  0  0
   38.5280   33.3110   40.3250 C   0  0  2  0  0  3  0  0  0  0  0  0
   38.3980   31.8990   40.8830 C   0  0  2  0  0  3  0  0  0  0  0  0
   39.6680   31.7310   41.4250 O   0  0  0  0  0  0  0  0  0  0  0  0
   40.5710   32.1750   40.4740 C   0  0  0  0  0  2  0  0  0  0  0  0
   39.8600   33.1860   39.6070 C   0  0  1  0  0  3  0  0  0  0  0  0
   38.6330   34.1610   41.4240 O   0  0  0  0  0  0  0  0  0  0  0  0
   39.2860   33.7460   42.0450 H   0  0  0  0  0  0  0  0  0  0  0  0
   39.5830   32.7050   38.3290 O   0  0  0  0  0  0  0  0  0  0  0  0
   40.0530   31.8530   38.1320 H   0  0  0  0  0  0  0  0  0  0  0  0
  1  4  1  1  0  0  0
  1  2  1  0  0  0  0
  2  5  1  0  0  0  0
  3  7  1  1  0  0  0
  3  1  1  0  0  0  0
  3  2  1  0  0  0  0
  6  2  1  0  0  0  0
  8 13  2  0  0  0  0
  8  9  1  0  0  0  0
  9 10  2  0  0  0  0
 10 11  1  0  0  0  0
 10  1  1  0  0  0  0
 12 16  1  0  0  0  0
 12 11  2  0  0  0  0
 13 12  1  0  0  0  0
 14  8  1  0  0  0  0
 15  9  1  0  0  0  0
 17  3  1  0  0  0  0
 19 18  2  1  0  0  0
 19 17  1  0  0  0  0
 20 21  1  0  0  0  0
 20 19  1  0  0  0  0
 22 19  1  0  0  0  0
 23 24  1  0  0  0  0
 23 28  1  1  0  0  0
 24 22  1  6  0  0  0
 24 25  1  0  0  0  0
 26 25  1  0  0  0  0
 27 30  1  6  0  0  0
 27 23  1  0  0  0  0
 27 26  1  0  0  0  0
 28 29  1  0  0  0  0
 31 30  1  0  0  0  0
M  END
>  <minimizedAffinity>
-5.28229666

$$$$

 OpenBabel03252501043D

 31 33  0  0  1  0  0  0  0  0999 V2000
   38.4430   27.5910   43.3650 C   0  0  1  0  0  0  0  0  0  0  0  0
   39.6800   28.3410   43.0470 C   0  0  0  0  0  0  0  0  0  0  0  0
   38.3210   28.8110   42.5470 C   0  0  1  0  0  0  0  0  0  0  0  0
   38.1030   27.6110   44.4340 H   0  0  0  0  0  0  0  0  0  0  0  0
   40.2060   28.9290   43.8410 H   0  0  0  0  0  0  0  0  0  0  0  0
   40.3430   28.0960   42.1910 H   0  0  0  0  0  0  0  0  0  0  0  0
   38.0430   29.7710   43.0270 H   0  0  0  0  0  0  0  0  0  0  0  0
   39.2070   24.4000   41.5020 C   0  0  0  0  0  0  0  0  0  0  0  0
   39.4150   25.6200   42.1660 C   0  0  0  0  0  0  0  0  0  0  0  0
   38.2900   26.2870   42.6570 C   0  0  0  0  0  0  0  0  0  0  0  0
   37.0550   25.7430   42.4800 N   0  0  0  0  0  0  0  0  0  0  0  0
   36.8880   24.5650   41.8360 C   0  0  0  0  0  0  0  0  0  0  0  0
   37.9680   23.8930   41.3460 N   0  0  0  0  0  0  0  0  0  0  0  0
   40.0600   23.8630   41.1130 H   0  0  0  0  0  0  0  0  0  0  0  0
   40.4080   25.9770   42.2660 H   0  0  0  0  0  0  0  0  0  0  0  0
   35.9010   24.1420   41.7010 H   0  0  0  0  0  0  0  0  0  0  0  0
   37.9310   28.6750   41.2700 O   0  0  0  0  0  0  0  0  0  0  0  0
   35.9590   30.4480   41.1310 O   0  0  0  0  0  0  0  0  0  0  0  0
   37.2420   29.9530   40.5030 P   0  0  2  0  0  0  0  0  0  0  0  0
   36.8940   29.6780   38.8710 O   0  0  0  0  0  0  0  0  0  0  0  0
   36.4720   28.7750   38.7460 H   0  0  0  0  0  0  0  0  0  0  0  0
   38.3000   31.2720   40.5640 O   0  0  0  0  0  0  0  0  0  0  0  0
   39.7090   32.8340   39.5410 C   0  0  2  0  0  3  0  0  0  0  0  0
   38.6950   31.7180   39.3210 C   0  0  2  0  0  3  0  0  0  0  0  0
   37.6400   32.4480   38.7840 O   0  0  0  0  0  0  0  0  0  0  0  0
   37.4870   33.5730   39.5750 C   0  0  0  0  0  2  0  0  0  0  0  0
   38.8220   33.8620   40.2180 C   0  0  1  0  0  3  0  0  0  0  0  0
   40.0980   33.2680   38.2760 O   0  0  0  0  0  0  0  0  0  0  0  0
   39.2700   33.3680   37.7410 H   0  0  0  0  0  0  0  0  0  0  0  0
   38.8420   33.5740   41.5820 O   0  0  0  0  0  0  0  0  0  0  0  0
   37.9350   33.4010   41.9480 H   0  0  0  0  0  0  0  0  0  0  0  0
  1  4  1  1  0  0  0
  2  1  1  0  0  0  0
  2  5  1  0  0  0  0
  3  7  1  1  0  0  0
  3  2  1  0  0  0  0
  3  1  1  0  0  0  0
  6  2  1  0  0  0  0
  8  9  1  0  0  0  0
  9 15  1  0  0  0  0
  9 10  2  0  0  0  0
 10  1  1  0  0  0  0
 11 10  1  0  0  0  0
 12 11  2  0  0  0  0
 13  8  2  0  0  0  0
 13 12  1  0  0  0  0
 14  8  1  0  0  0  0
 16 12  1  0  0  0  0
 17  3  1  0  0  0  0
 19 22  1  0  0  0  0
 19 18  2  1  0  0  0
 19 17  1  0  0  0  0
 20 19  1  0  0  0  0
 21 20  1  0  0  0  0
 23 28  1  6  0  0  0
 23 27  1  0  0  0  0
 24 23  1  0  0  0  0
 24 22  1  1  0  0  0
 25 24  1  0  0  0  0
 25 26  1  0  0  0  0
 26 27  1  0  0  0  0
 27 30  1  1  0  0  0
 29 28  1  0  0  0  0
 30 31  1  0  0  0  0
M  END
>  <minimizedAffinity>
-5.20667458

$$$$

 OpenBabel03252501043D

 31 33  0  0  1  0  0  0  0  0999 V2000
   36.6790   27.8880   42.2050 C   0  0  1  0  0  0  0  0  0  0  0  0
   36.6140   27.7590   43.6800 C   0  0  0  0  0  0  0  0  0  0  0  0
   37.4930   28.8110   43.0170 C   0  0  1  0  0  0  0  0  0  0  0  0
   35.7570   28.2750   41.6940 H   0  0  0  0  0  0  0  0  0  0  0  0
   35.6980   28.0800   44.2370 H   0  0  0  0  0  0  0  0  0  0  0  0
   37.2370   27.0460   44.2600 H   0  0  0  0  0  0  0  0  0  0  0  0
   37.1140   29.8280   43.2420 H   0  0  0  0  0  0  0  0  0  0  0  0
   38.2970   24.5710   41.4240 C   0  0  0  0  0  0  0  0  0  0  0  0
   37.6010   25.5620   42.1360 C   0  0  0  0  0  0  0  0  0  0  0  0
   37.4040   26.7910   41.5010 C   0  0  0  0  0  0  0  0  0  0  0  0
   37.8820   26.9830   40.2420 N   0  0  0  0  0  0  0  0  0  0  0  0
   38.5480   26.0070   39.5830 C   0  0  0  0  0  0  0  0  0  0  0  0
   38.7550   24.7980   40.1780 N   0  0  0  0  0  0  0  0  0  0  0  0
   38.4630   23.6100   41.8910 H   0  0  0  0  0  0  0  0  0  0  0  0
   37.2580   25.3350   43.1120 H   0  0  0  0  0  0  0  0  0  0  0  0
   38.9240   26.1710   38.5820 H   0  0  0  0  0  0  0  0  0  0  0  0
   38.8280   28.7010   42.9440 O   0  0  0  0  0  0  0  0  0  0  0  0
   41.0560   29.4080   41.6860 O   0  0  0  0  0  0  0  0  0  0  0  0
   39.6840   29.8480   42.1410 P   0  0  2  0  0  0  0  0  0  0  0  0
   39.9110   31.2820   43.0100 O   0  0  0  0  0  0  0  0  0  0  0  0
   40.1730   31.0820   43.9580 H   0  0  0  0  0  0  0  0  0  0  0  0
   38.8610   30.2600   40.7210 O   0  0  0  0  0  0  0  0  0  0  0  0
   37.0590   31.7070   40.3590 C   0  0  2  0  0  3  0  0  0  0  0  0
   38.5540   31.6010   40.6320 C   0  0  2  0  0  3  0  0  0  0  0  0
   39.0590   32.0660   39.4220 O   0  0  0  0  0  0  0  0  0  0  0  0
   38.3440   31.4310   38.4200 C   0  0  0  0  0  2  0  0  0  0  0  0
   36.9980   31.0540   38.9900 C   0  0  1  0  0  3  0  0  0  0  0  0
   36.7690   33.0670   40.2760 O   0  0  0  0  0  0  0  0  0  0  0  0
   37.4680   33.4740   39.7030 H   0  0  0  0  0  0  0  0  0  0  0  0
   36.8630   29.6840   39.2040 O   0  0  0  0  0  0  0  0  0  0  0  0
   37.5930   29.1590   38.7830 H   0  0  0  0  0  0  0  0  0  0  0  0
  1  4  1  6  0  0  0
  1  3  1  0  0  0  0
  1  2  1  0  0  0  0
  2  5  1  0  0  0  0
  2  6  1  0  0  0  0
  3  7  1  1  0  0  0
  3  2  1  0  0  0  0
  8 14  1  0  0  0  0
  8  9  1  0  0  0  0
  9 15  1  0  0  0  0
 10  9  2  0  0  0  0
 10  1  1  0  0  0  0
 11 10  1  0  0  0  0
 12 13  1  0  0  0  0
 12 11  2  0  0  0  0
 13  8  2  0  0  0  0
 16 12  1  0  0  0  0
 17  3  1  0  0  0  0
 19 18  2  6  0  0  0
 19 17  1  0  0  0  0
 19 20  1  0  0  0  0
 20 21  1  0  0  0  0
 22 19  1  0  0  0  0
 23 28  1  6  0  0  0
 23 24  1  0  0  0  0
 24 22  1  6  0  0  0
 25 24  1  0  0  0  0
 26 27  1  0  0  0  0
 26 25  1  0  0  0  0
 27 30  1  1  0  0  0
 27 23  1  0  0  0  0
 29 28  1  0  0  0  0
 31 30  1  0  0  0  0
M  END
>  <minimizedAffinity>
-5.12647629

$$$$

 OpenBabel03252501043D

 31 33  0  0  1  0  0  0  0  0999 V2000
   35.4480   29.9770   40.2270 C   0  0  1  0  0  0  0  0  0  0  0  0
   35.1990   28.8590   39.2870 C   0  0  0  0  0  0  0  0  0  0  0  0
   35.6370   28.6010   40.7230 C   0  0  1  0  0  0  0  0  0  0  0  0
   34.5500   30.5620   40.5620 H   0  0  0  0  0  0  0  0  0  0  0  0
   34.1550   28.6010   38.9780 H   0  0  0  0  0  0  0  0  0  0  0  0
   35.9600   28.4750   38.5760 H   0  0  0  0  0  0  0  0  0  0  0  0
   34.8260   28.1040   41.2910 H   0  0  0  0  0  0  0  0  0  0  0  0
   38.3620   31.6070   38.4710 C   0  0  0  0  0  0  0  0  0  0  0  0
   37.1950   30.8490   38.6610 C   0  0  0  0  0  0  0  0  0  0  0  0
   36.6810   30.7720   39.9580 C   0  0  0  0  0  0  0  0  0  0  0  0
   37.3140   31.4210   40.9720 N   0  0  0  0  0  0  0  0  0  0  0  0
   38.4370   32.1440   40.7570 C   0  0  0  0  0  0  0  0  0  0  0  0
   38.9610   32.2360   39.5020 N   0  0  0  0  0  0  0  0  0  0  0  0
   38.7820   31.6830   37.4780 H   0  0  0  0  0  0  0  0  0  0  0  0
   36.7590   30.3750   37.8190 H   0  0  0  0  0  0  0  0  0  0  0  0
   38.9320   32.6550   41.5710 H   0  0  0  0  0  0  0  0  0  0  0  0
   36.8810   28.2150   41.0430 O   0  0  0  0  0  0  0  0  0  0  0  0
   36.2920   27.1270   43.3920 O   0  0  0  0  0  0  0  0  0  0  0  0
   37.2670   27.9870   42.6220 P   0  0  2  0  0  0  0  0  0  0  0  0
   37.4390   29.4170   43.5090 O   0  0  0  0  0  0  0  0  0  0  0  0
   36.6930   30.0550   43.2980 H   0  0  0  0  0  0  0  0  0  0  0  0
   38.7460   27.1690   42.7190 O   0  0  0  0  0  0  0  0  0  0  0  0
   39.8630   25.2020   43.3150 C   0  0  2  0  0  3  0  0  0  0  0  0
   38.6200   25.7970   42.6670 C   0  0  2  0  0  3  0  0  0  0  0  0
   38.8210   25.4090   41.3460 O   0  0  0  0  0  0  0  0  0  0  0  0
   40.1420   25.6950   41.0420 C   0  0  0  0  0  2  0  0  0  0  0  0
   40.9210   25.6780   42.3350 C   0  0  1  0  0  3  0  0  0  0  0  0
   39.7160   23.8180   43.2550 O   0  0  0  0  0  0  0  0  0  0  0  0
   39.4110   23.6030   42.3360 H   0  0  0  0  0  0  0  0  0  0  0  0
   41.3100   26.9500   42.7510 O   0  0  0  0  0  0  0  0  0  0  0  0
   41.1760   27.6390   42.0490 H   0  0  0  0  0  0  0  0  0  0  0  0
  1  4  1  1  0  0  0
  1  3  1  0  0  0  0
  2  1  1  0  0  0  0
  2  3  1  0  0  0  0
  3 17  1  0  0  0  0
  3  7  1  1  0  0  0
  5  2  1  0  0  0  0
  6  2  1  0  0  0  0
  8  9  2  0  0  0  0
  8 13  1  0  0  0  0
  9 10  1  0  0  0  0
 10  1  1  0  0  0  0
 10 11  2  0  0  0  0
 12 11  1  0  0  0  0
 12 16  1  0  0  0  0
 13 12  2  0  0  0  0
 14  8  1  0  0  0  0
 15  9  1  0  0  0  0
 17 19  1  0  0  0  0
 19 22  1  0  0  0  0
 19 18  2  1  0  0  0
 19 20  1  0  0  0  0
 21 20  1  0  0  0  0
 23 28  1  6  0  0  0
 24 22  1  6  0  0  0
 24 23  1  0  0  0  0
 25 24  1  0  0  0  0
 26 25  1  0  0  0  0
 26 27  1  0  0  0  0
 27 30  1  1  0  0  0
 27 23  1  0  0  0  0
 29 28  1  0  0  0  0
 31 30  1  0  0  0  0
M  END
>  <minimizedAffinity>
-5.1167345

$$$$

 OpenBabel03252501043D

 31 33  0  0  1  0  0  0  0  0999 V2000
   37.3150   31.6990   38.0640 C   0  0  1  0  0  0  0  0  0  0  0  0
   37.5510   30.6910   37.0040 C   0  0  0  0  0  0  0  0  0  0  0  0
   36.5820   30.4220   38.1480 C   0  0  1  0  0  0  0  0  0  0  0  0
   36.7640   32.6290   37.7610 H   0  0  0  0  0  0  0  0  0  0  0  0
   37.1500   30.8510   35.9720 H   0  0  0  0  0  0  0  0  0  0  0  0
   38.3870   29.9620   37.0270 H   0  0  0  0  0  0  0  0  0  0  0  0
   35.5430   30.3570   37.7680 H   0  0  0  0  0  0  0  0  0  0  0  0
   40.7290   31.5840   39.6680 C   0  0  0  0  0  0  0  0  0  0  0  0
   39.7080   31.3760   38.7260 C   0  0  0  0  0  0  0  0  0  0  0  0
   38.4440   31.8920   39.0200 C   0  0  0  0  0  0  0  0  0  0  0  0
   38.2480   32.5670   40.1860 N   0  0  0  0  0  0  0  0  0  0  0  0
   39.2520   32.7510   41.0730 C   0  0  0  0  0  0  0  0  0  0  0  0
   40.4960   32.2570   40.8110 N   0  0  0  0  0  0  0  0  0  0  0  0
   41.7160   31.1960   39.4650 H   0  0  0  0  0  0  0  0  0  0  0  0
   39.9410   30.8430   37.8400 H   0  0  0  0  0  0  0  0  0  0  0  0
   39.0840   33.2880   41.9970 H   0  0  0  0  0  0  0  0  0  0  0  0
   36.8730   29.5970   39.1660 O   0  0  0  0  0  0  0  0  0  0  0  0
   34.5440   29.0090   40.2970 O   0  0  0  0  0  0  0  0  0  0  0  0
   35.9180   29.6050   40.5010 P   0  0  2  0  0  0  0  0  0  0  0  0
   35.6720   31.1390   41.1700 O   0  0  0  0  0  0  0  0  0  0  0  0
   35.4750   31.8110   40.4510 H   0  0  0  0  0  0  0  0  0  0  0  0
   36.6360   28.6550   41.7020 O   0  0  0  0  0  0  0  0  0  0  0  0
   38.9390   29.0390   41.8580 C   0  0  2  0  0  3  0  0  0  0  0  0
   37.5690   29.3340   42.4570 C   0  0  2  0  0  3  0  0  0  0  0  0
   37.6840   28.6710   43.6740 O   0  0  0  0  0  0  0  0  0  0  0  0
   38.2280   27.4270   43.4020 C   0  0  0  0  0  2  0  0  0  0  0  0
   39.0230   27.5470   42.1240 C   0  0  1  0  0  3  0  0  0  0  0  0
   39.8650   29.7350   42.6320 O   0  0  0  0  0  0  0  0  0  0  0  0
   39.6260   29.5720   43.5800 H   0  0  0  0  0  0  0  0  0  0  0  0
   38.4120   26.9120   41.0440 O   0  0  0  0  0  0  0  0  0  0  0  0
   37.6550   26.3330   41.3200 H   0  0  0  0  0  0  0  0  0  0  0  0
  1  4  1  6  0  0  0
  1  3  1  0  0  0  0
  1 10  1  0  0  0  0
  2  6  1  0  0  0  0
  2  1  1  0  0  0  0
  2  3  1  0  0  0  0
  3  7  1  6  0  0  0
  3 17  1  0  0  0  0
  5  2  1  0  0  0  0
  8 13  1  0  0  0  0
  9 10  1  0  0  0  0
  9  8  2  0  0  0  0
 10 11  2  0  0  0  0
 11 12  1  0  0  0  0
 12 16  1  0  0  0  0
 13 12  2  0  0  0  0
 14  8  1  0  0  0  0
 15  9  1  0  0  0  0
 17 19  1  0  0  0  0
 19 18  2  6  0  0  0
 19 20  1  0  0  0  0
 19 22  1  0  0  0  0
 21 20  1  0  0  0  0
 23 27  1  0  0  0  0
 23 24  1  0  0  0  0
 23 28  1  1  0  0  0
 24 22  1  6  0  0  0
 24 25  1  0  0  0  0
 26 25  1  0  0  0  0
 27 30  1  6  0  0  0
 27 26  1  0  0  0  0
 28 29  1  0  0  0  0
 30 31  1  0  0  0  0
M  END
>  <minimizedAffinity>
-5.08983707

$$$$

 OpenBabel03252501043D

 31 33  0  0  1  0  0  0  0  0999 V2000
   37.8160   27.0760   39.0930 C   0  0  1  0  0  0  0  0  0  0  0  0
   36.5900   27.1460   38.2640 C   0  0  0  0  0  0  0  0  0  0  0  0
   36.9870   28.2910   39.1860 C   0  0  1  0  0  0  0  0  0  0  0  0
   38.7960   27.1210   38.5470 H   0  0  0  0  0  0  0  0  0  0  0  0
   36.6640   27.2830   37.1550 H   0  0  0  0  0  0  0  0  0  0  0  0
   35.6140   26.7190   38.5750 H   0  0  0  0  0  0  0  0  0  0  0  0
   37.2560   29.1890   38.5940 H   0  0  0  0  0  0  0  0  0  0  0  0
   38.6060   25.2600   42.3040 C   0  0  0  0  0  0  0  0  0  0  0  0
   38.7160   26.1840   41.2520 C   0  0  0  0  0  0  0  0  0  0  0  0
   37.7520   26.1270   40.2420 C   0  0  0  0  0  0  0  0  0  0  0  0
   36.7610   25.1980   40.3100 N   0  0  0  0  0  0  0  0  0  0  0  0
   36.6830   24.3210   41.3380 C   0  0  0  0  0  0  0  0  0  0  0  0
   37.6100   24.3540   42.3370 N   0  0  0  0  0  0  0  0  0  0  0  0
   39.3380   25.2820   43.0990 H   0  0  0  0  0  0  0  0  0  0  0  0
   39.5160   26.8790   41.2720 H   0  0  0  0  0  0  0  0  0  0  0  0
   35.8900   23.5860   41.3810 H   0  0  0  0  0  0  0  0  0  0  0  0
   36.3600   28.5370   40.3470 O   0  0  0  0  0  0  0  0  0  0  0  0
   37.3570   29.5400   42.5940 O   0  0  0  0  0  0  0  0  0  0  0  0
   36.7940   29.8530   41.2270 P   0  0  2  0  0  0  0  0  0  0  0  0
   35.5440   30.9660   41.4740 O   0  0  0  0  0  0  0  0  0  0  0  0
   34.6950   30.4940   41.7280 H   0  0  0  0  0  0  0  0  0  0  0  0
   38.0320   30.6770   40.4190 O   0  0  0  0  0  0  0  0  0  0  0  0
   38.3090   32.9920   40.6080 C   0  0  2  0  0  3  0  0  0  0  0  0
   38.6560   31.6300   41.1950 C   0  0  2  0  0  3  0  0  0  0  0  0
   40.0160   31.5770   40.9080 O   0  0  0  0  0  0  0  0  0  0  0  0
   40.1630   31.9830   39.5920 C   0  0  0  0  0  2  0  0  0  0  0  0
   38.9920   32.8740   39.2570 C   0  0  1  0  0  3  0  0  0  0  0  0
   38.9460   33.9400   41.4070 O   0  0  0  0  0  0  0  0  0  0  0  0
   39.8720   33.6160   41.5510 H   0  0  0  0  0  0  0  0  0  0  0  0
   38.0780   32.2690   38.3970 O   0  0  0  0  0  0  0  0  0  0  0  0
   38.4270   31.4290   37.9990 H   0  0  0  0  0  0  0  0  0  0  0  0
  1  4  1  6  0  0  0
  1  3  1  0  0  0  0
  1 10  1  0  0  0  0
  2  6  1  0  0  0  0
  2  1  1  0  0  0  0
  2  3  1  0  0  0  0
  3  7  1  6  0  0  0
  3 17  1  0  0  0  0
  5  2  1  0  0  0  0
  8 13  1  0  0  0  0
  8 14  1  0  0  0  0
  9 15  1  0  0  0  0
  9  8  2  0  0  0  0
 10 11  2  0  0  0  0
 10  9  1  0  0  0  0
 11 12  1  0  0  0  0
 12 16  1  0  0  0  0
 12 13  2  0  0  0  0
 17 19  1  0  0  0  0
 19 20  1  0  0  0  0
 19 18  2  1  0  0  0
 20 21  1  0  0  0  0
 22 19  1  0  0  0  0
 23 24  1  0  0  0  0
 23 28  1  1  0  0  0
 24 22  1  6  0  0  0
 25 24  1  0  0  0  0
 26 25  1  0  0  0  0
 27 30  1  6  0  0  0
 27 26  1  0  0  0  0
 27 23  1  0  0  0  0
 28 29  1  0  0  0  0
 31 30  1  0  0  0  0
M  END
>  <minimizedAffinity>
-5.06372929

$$$$
