
 OpenBabel03252506443D

 42 45  0  0  1  0  0  0  0  0999 V2000
   49.6440   33.6820   41.3730 N   0  0  1  0  0  0  0  0  0  0  0  0
   50.7390   33.1090   42.1530 C   0  0  0  0  0  0  0  0  0  0  0  0
   51.2590   31.8210   41.5790 C   0  0  0  0  0  0  0  0  0  0  0  0
   50.1800   30.7580   41.7240 C   0  0  0  0  0  0  0  0  0  0  0  0
   48.8190   31.3590   41.5060 C   0  0  0  0  0  0  0  0  0  0  0  0
   48.9510   32.6180   40.6880 C   0  0  2  0  0  0  0  0  0  0  0  0
   50.4390   32.9030   43.1890 H   0  0  0  0  0  0  0  0  0  0  0  0
   51.5490   33.8640   42.1960 H   0  0  0  0  0  0  0  0  0  0  0  0
   51.5650   31.9210   40.5160 H   0  0  0  0  0  0  0  0  0  0  0  0
   52.1450   31.5500   42.1670 H   0  0  0  0  0  0  0  0  0  0  0  0
   50.2720   30.2290   42.6900 H   0  0  0  0  0  0  0  0  0  0  0  0
   50.3760   29.9930   40.9320 H   0  0  0  0  0  0  0  0  0  0  0  0
   48.1010   30.7000   41.0240 H   0  0  0  0  0  0  0  0  0  0  0  0
   48.4690   31.6750   42.5310 H   0  0  0  0  0  0  0  0  0  0  0  0
   47.9020   32.9800   40.5210 H   0  0  0  0  0  0  0  0  0  0  0  0
   47.4420   34.8580   41.9810 C   0  0  1  0  0  0  0  0  0  0  0  0
   48.5190   35.8320   41.8570 C   0  0  0  0  0  0  0  0  0  0  0  0
   48.8630   34.4400   42.2830 C   0  0  2  0  0  0  0  0  0  0  0  0
   47.0290   34.2780   41.1210 H   0  0  0  0  0  0  0  0  0  0  0  0
   48.7860   36.1290   40.8050 H   0  0  0  0  0  0  0  0  0  0  0  0
   48.5720   36.6630   42.5890 H   0  0  0  0  0  0  0  0  0  0  0  0
   49.0610   34.3040   43.3670 H   0  0  0  0  0  0  0  0  0  0  0  0
   45.5570   36.0170   43.1780 C   0  0  0  0  0  0  0  0  0  0  0  0
   46.4740   34.9410   43.1020 C   0  0  0  0  0  0  0  0  0  0  0  0
   46.4290   33.9820   44.1110 C   0  0  0  0  0  0  0  0  0  0  0  0
   45.5150   34.1370   45.0960 N   0  0  0  0  0  0  0  0  0  0  0  0
   44.6530   35.1600   45.1530 C   0  0  0  0  0  0  0  0  0  0  0  0
   44.6640   36.1190   44.1880 N   0  0  0  0  0  0  0  0  0  0  0  0
   45.6300   36.7340   42.3750 H   0  0  0  0  0  0  0  0  0  0  0  0
   47.1090   33.1400   44.0980 H   0  0  0  0  0  0  0  0  0  0  0  0
   43.9570   35.1900   45.9910 H   0  0  0  0  0  0  0  0  0  0  0  0
   49.5030   32.3340   39.3960 N   0  0  0  0  0  0  0  0  0  0  0  0
   50.3520   32.8880   39.2270 H   0  0  0  0  0  0  0  0  0  0  0  0
   48.1930   31.3340   37.5900 C   0  0  2  0  0  3  0  0  0  0  0  0
   48.5800   32.6150   38.3240 C   0  0  2  0  0  3  0  0  0  0  0  0
   49.0860   33.4460   37.3620 O   0  0  0  0  0  0  0  0  0  0  0  0
   48.6660   33.0610   36.1180 C   0  0  0  0  0  2  0  0  0  0  0  0
   47.6800   31.9270   36.2920 C   0  0  1  0  0  3  0  0  0  0  0  0
   47.1980   30.6440   38.2720 O   0  0  0  0  0  0  0  0  0  0  0  0
   46.5290   31.3150   38.5680 H   0  0  0  0  0  0  0  0  0  0  0  0
   47.8470   31.0070   35.2320 O   0  0  0  0  0  0  0  0  0  0  0  0
   48.0010   31.5100   34.3940 H   0  0  0  0  0  0  0  0  0  0  0  0
  1  2  1  1  0  0  0
  1 18  1  0  0  0  0
  2  8  1  0  0  0  0
  2  7  1  0  0  0  0
  3  4  1  0  0  0  0
  3  2  1  0  0  0  0
  3 10  1  0  0  0  0
  4 11  1  0  0  0  0
  5  4  1  0  0  0  0
  5 14  1  0  0  0  0
  6 15  1  6  0  0  0
  6  1  1  0  0  0  0
  6  5  1  0  0  0  0
  9  3  1  0  0  0  0
 12  4  1  0  0  0  0
 13  5  1  0  0  0  0
 16 19  1  6  0  0  0
 16 18  1  0  0  0  0
 16 24  1  0  0  0  0
 17 16  1  0  0  0  0
 17 18  1  0  0  0  0
 17 21  1  0  0  0  0
 18 22  1  1  0  0  0
 20 17  1  0  0  0  0
 23 28  1  0  0  0  0
 24 23  2  0  0  0  0
 24 25  1  0  0  0  0
 25 26  2  0  0  0  0
 26 27  1  0  0  0  0
 27 31  1  0  0  0  0
 28 27  2  0  0  0  0
 29 23  1  0  0  0  0
 30 25  1  0  0  0  0
 32  6  1  0  0  0  0
 33 32  1  0  0  0  0
 34 39  1  1  0  0  0
 34 35  1  0  0  0  0
 35 32  1  1  0  0  0
 36 35  1  0  0  0  0
 37 38  1  0  0  0  0
 37 36  1  0  0  0  0
 38 41  1  6  0  0  0
 38 34  1  0  0  0  0
 39 40  1  0  0  0  0
 42 41  1  0  0  0  0
M  END
>  <minimizedAffinity>
-5.22187471

>  <minimizedRMSD>
2.2773602

$$$$
