
 OpenBabel03252506443D

 42 45  0  0  1  0  0  0  0  0999 V2000
   49.5250   33.5160   41.3700 N   0  0  1  0  0  0  0  0  0  0  0  0
   50.7200   33.0890   42.0950 C   0  0  0  0  0  0  0  0  0  0  0  0
   51.2680   31.7790   41.6040 C   0  0  0  0  0  0  0  0  0  0  0  0
   50.2780   30.6790   41.9570 C   0  0  0  0  0  0  0  0  0  0  0  0
   48.8660   31.1790   41.8120 C   0  0  0  0  0  0  0  0  0  0  0  0
   48.8430   32.3500   40.8640 C   0  0  2  0  0  0  0  0  0  0  0  0
   50.5280   32.9770   43.1700 H   0  0  0  0  0  0  0  0  0  0  0  0
   51.4810   33.8880   41.9850 H   0  0  0  0  0  0  0  0  0  0  0  0
   51.4710   31.7830   40.5130 H   0  0  0  0  0  0  0  0  0  0  0  0
   52.2190   31.6200   42.1290 H   0  0  0  0  0  0  0  0  0  0  0  0
   50.4890   30.2610   42.9580 H   0  0  0  0  0  0  0  0  0  0  0  0
   50.4510   29.8470   41.2300 H   0  0  0  0  0  0  0  0  0  0  0  0
   48.1530   30.4340   41.4690 H   0  0  0  0  0  0  0  0  0  0  0  0
   48.5900   31.5810   42.8290 H   0  0  0  0  0  0  0  0  0  0  0  0
   47.7630   32.6340   40.7630 H   0  0  0  0  0  0  0  0  0  0  0  0
   47.3750   34.7870   41.9720 C   0  0  1  0  0  0  0  0  0  0  0  0
   48.4880   35.7170   41.8190 C   0  0  0  0  0  0  0  0  0  0  0  0
   48.7820   34.3220   42.2710 C   0  0  2  0  0  0  0  0  0  0  0  0
   46.9330   34.2070   41.1270 H   0  0  0  0  0  0  0  0  0  0  0  0
   48.7560   35.9820   40.7590 H   0  0  0  0  0  0  0  0  0  0  0  0
   48.5780   36.5600   42.5340 H   0  0  0  0  0  0  0  0  0  0  0  0
   48.9840   34.2000   43.3550 H   0  0  0  0  0  0  0  0  0  0  0  0
   45.5520   36.0460   43.1640 C   0  0  0  0  0  0  0  0  0  0  0  0
   46.4200   34.9300   43.0980 C   0  0  0  0  0  0  0  0  0  0  0  0
   46.3420   33.9900   44.1220 C   0  0  0  0  0  0  0  0  0  0  0  0
   45.4430   34.2000   45.1120 N   0  0  0  0  0  0  0  0  0  0  0  0
   44.6280   35.2600   45.1600 C   0  0  0  0  0  0  0  0  0  0  0  0
   44.6730   36.2030   44.1790 N   0  0  0  0  0  0  0  0  0  0  0  0
   45.6500   36.7470   42.3490 H   0  0  0  0  0  0  0  0  0  0  0  0
   46.9850   33.1190   44.1180 H   0  0  0  0  0  0  0  0  0  0  0  0
   43.9410   35.3340   46.0020 H   0  0  0  0  0  0  0  0  0  0  0  0
   49.2950   31.9620   39.5590 N   0  0  0  0  0  0  0  0  0  0  0  0
   50.2200   32.3610   39.3550 H   0  0  0  0  0  0  0  0  0  0  0  0
   48.9480   32.0150   37.1390 C   0  0  2  0  0  3  0  0  0  0  0  0
   48.3970   32.3870   38.5130 C   0  0  2  0  0  3  0  0  0  0  0  0
   48.1990   33.7400   38.4700 O   0  0  0  0  0  0  0  0  0  0  0  0
   48.1170   34.1780   37.1760 C   0  0  0  0  0  2  0  0  0  0  0  0
   48.1430   32.9640   36.2740 C   0  0  1  0  0  3  0  0  0  0  0  0
   48.6810   30.6850   36.8350 O   0  0  0  0  0  0  0  0  0  0  0  0
   47.7420   30.5080   37.1010 H   0  0  0  0  0  0  0  0  0  0  0  0
   48.8580   33.2830   35.0970 O   0  0  0  0  0  0  0  0  0  0  0  0
   48.6180   34.2010   34.8170 H   0  0  0  0  0  0  0  0  0  0  0  0
  1  2  1  1  0  0  0
  1 18  1  0  0  0  0
  2  7  1  0  0  0  0
  3  4  1  0  0  0  0
  3  2  1  0  0  0  0
  3 10  1  0  0  0  0
  4 11  1  0  0  0  0
  5  4  1  0  0  0  0
  5 14  1  0  0  0  0
  6 15  1  6  0  0  0
  6  1  1  0  0  0  0
  6  5  1  0  0  0  0
  8  2  1  0  0  0  0
  9  3  1  0  0  0  0
 12  4  1  0  0  0  0
 13  5  1  0  0  0  0
 16 19  1  6  0  0  0
 16 18  1  0  0  0  0
 16 24  1  0  0  0  0
 17 16  1  0  0  0  0
 17 18  1  0  0  0  0
 17 21  1  0  0  0  0
 18 22  1  1  0  0  0
 20 17  1  0  0  0  0
 23 28  1  0  0  0  0
 24 23  2  0  0  0  0
 24 25  1  0  0  0  0
 25 26  2  0  0  0  0
 26 27  1  0  0  0  0
 27 31  1  0  0  0  0
 28 27  2  0  0  0  0
 29 23  1  0  0  0  0
 30 25  1  0  0  0  0
 32  6  1  0  0  0  0
 33 32  1  0  0  0  0
 34 39  1  6  0  0  0
 34 35  1  0  0  0  0
 35 32  1  1  0  0  0
 36 35  1  0  0  0  0
 37 36  1  0  0  0  0
 38 41  1  6  0  0  0
 38 34  1  0  0  0  0
 38 37  1  0  0  0  0
 39 40  1  0  0  0  0
 42 41  1  0  0  0  0
M  END
>  <minimizedAffinity>
-5.64260149

>  <minimizedRMSD>
2.40356565

$$$$
