
 OpenBabel03252506443D

 42 45  0  0  1  0  0  0  0  0999 V2000
   49.5490   33.4320   41.4480 N   0  0  1  0  0  0  0  0  0  0  0  0
   50.7580   33.1320   42.2130 C   0  0  0  0  0  0  0  0  0  0  0  0
   51.3610   31.8010   41.8620 C   0  0  0  0  0  0  0  0  0  0  0  0
   50.4140   30.7050   42.3280 C   0  0  0  0  0  0  0  0  0  0  0  0
   48.9840   31.1290   42.1310 C   0  0  0  0  0  0  0  0  0  0  0  0
   48.9170   32.1930   41.0670 C   0  0  2  0  0  0  0  0  0  0  0  0
   50.5660   33.1250   43.2940 H   0  0  0  0  0  0  0  0  0  0  0  0
   51.4860   33.9450   42.0200 H   0  0  0  0  0  0  0  0  0  0  0  0
   51.5680   31.7000   40.7760 H   0  0  0  0  0  0  0  0  0  0  0  0
   52.3150   31.7360   42.4010 H   0  0  0  0  0  0  0  0  0  0  0  0
   50.6380   30.4020   43.3670 H   0  0  0  0  0  0  0  0  0  0  0  0
   50.6230   29.8090   41.6920 H   0  0  0  0  0  0  0  0  0  0  0  0
   48.3020   30.3240   41.8680 H   0  0  0  0  0  0  0  0  0  0  0  0
   48.6870   31.6230   43.1010 H   0  0  0  0  0  0  0  0  0  0  0  0
   47.8270   32.4200   40.9360 H   0  0  0  0  0  0  0  0  0  0  0  0
   47.3290   34.6250   41.9450 C   0  0  1  0  0  0  0  0  0  0  0  0
   48.3710   35.5990   41.6430 C   0  0  0  0  0  0  0  0  0  0  0  0
   48.7710   34.2960   42.2600 C   0  0  2  0  0  0  0  0  0  0  0  0
   46.9110   33.9120   41.1950 H   0  0  0  0  0  0  0  0  0  0  0  0
   48.5980   35.7410   40.5500 H   0  0  0  0  0  0  0  0  0  0  0  0
   48.4170   36.5310   42.2400 H   0  0  0  0  0  0  0  0  0  0  0  0
   49.0020   34.3300   43.3440 H   0  0  0  0  0  0  0  0  0  0  0  0
   45.5720   36.0030   43.1030 C   0  0  0  0  0  0  0  0  0  0  0  0
   46.3900   34.8480   43.0710 C   0  0  0  0  0  0  0  0  0  0  0  0
   46.2780   33.9490   44.1280 C   0  0  0  0  0  0  0  0  0  0  0  0
   45.3970   34.2320   45.1140 N   0  0  0  0  0  0  0  0  0  0  0  0
   44.6290   35.3280   45.1300 C   0  0  0  0  0  0  0  0  0  0  0  0
   44.7070   36.2330   44.1170 N   0  0  0  0  0  0  0  0  0  0  0  0
   45.6930   36.6700   42.2640 H   0  0  0  0  0  0  0  0  0  0  0  0
   46.8820   33.0500   44.1500 H   0  0  0  0  0  0  0  0  0  0  0  0
   43.9510   35.4610   45.9730 H   0  0  0  0  0  0  0  0  0  0  0  0
   49.3900   31.6900   39.8090 N   0  0  0  0  0  0  0  0  0  0  0  0
   50.2790   32.1330   39.5450 H   0  0  0  0  0  0  0  0  0  0  0  0
   48.9260   33.0540   37.8340 C   0  0  2  0  0  3  0  0  0  0  0  0
   48.4540   31.9150   38.7350 C   0  0  2  0  0  3  0  0  0  0  0  0
   47.2070   32.2820   39.1590 O   0  0  0  0  0  0  0  0  0  0  0  0
   46.6680   33.2240   38.3240 C   0  0  0  0  0  2  0  0  0  0  0  0
   47.6150   33.4070   37.1590 C   0  0  1  0  0  3  0  0  0  0  0  0
   49.8750   32.6090   36.9190 O   0  0  0  0  0  0  0  0  0  0  0  0
   49.5510   31.7420   36.5630 H   0  0  0  0  0  0  0  0  0  0  0  0
   47.6120   34.7670   36.7750 O   0  0  0  0  0  0  0  0  0  0  0  0
   46.6840   35.1090   36.8190 H   0  0  0  0  0  0  0  0  0  0  0  0
  1  2  1  1  0  0  0
  1 18  1  0  0  0  0
  2  7  1  0  0  0  0
  3  2  1  0  0  0  0
  3  4  1  0  0  0  0
  3 10  1  0  0  0  0
  4 11  1  0  0  0  0
  5  4  1  0  0  0  0
  5 14  1  0  0  0  0
  6 15  1  6  0  0  0
  6  1  1  0  0  0  0
  6  5  1  0  0  0  0
  8  2  1  0  0  0  0
  9  3  1  0  0  0  0
 12  4  1  0  0  0  0
 13  5  1  0  0  0  0
 16 19  1  6  0  0  0
 16 18  1  0  0  0  0
 16 24  1  0  0  0  0
 17 16  1  0  0  0  0
 17 21  1  0  0  0  0
 17 18  1  0  0  0  0
 18 22  1  1  0  0  0
 20 17  1  0  0  0  0
 23 28  1  0  0  0  0
 24 23  2  0  0  0  0
 24 25  1  0  0  0  0
 25 30  1  0  0  0  0
 25 26  2  0  0  0  0
 26 27  1  0  0  0  0
 27 31  1  0  0  0  0
 28 27  2  0  0  0  0
 29 23  1  0  0  0  0
 32  6  1  0  0  0  0
 33 32  1  0  0  0  0
 34 39  1  6  0  0  0
 34 35  1  0  0  0  0
 35 36  1  0  0  0  0
 35 32  1  1  0  0  0
 37 36  1  0  0  0  0
 38 41  1  1  0  0  0
 38 34  1  0  0  0  0
 38 37  1  0  0  0  0
 40 39  1  0  0  0  0
 41 42  1  0  0  0  0
M  END
>  <minimizedAffinity>
-5.91750479

>  <minimizedRMSD>
3.19875479

$$$$
