
 OpenBabel03242522003D

 33 35  0  0  1  0  0  0  0  0999 V2000
   37.4890   27.1150   41.5320 C   0  0  0  0  0  0  0  0  0  0  0  0
   38.4490   27.0460   42.5120 C   0  0  0  0  0  0  0  0  0  0  0  0
   38.9480   28.1420   43.2120 C   0  0  0  0  0  0  0  0  0  0  0  0
   38.4470   29.3900   42.9060 C   0  0  0  0  0  0  0  0  0  0  0  0
   37.5020   29.4410   41.9400 C   0  0  0  0  0  0  0  0  0  0  0  0
   37.0450   28.3730   41.2880 N   0  0  0  0  0  0  0  0  0  0  0  0
   38.7970   26.0170   42.6990 H   0  0  0  0  0  0  0  0  0  0  0  0
   39.7030   27.8580   43.9450 H   0  0  0  0  0  0  0  0  0  0  0  0
   38.9590   30.1000   43.5280 H   0  0  0  0  0  0  0  0  0  0  0  0
   36.4300   23.6770   40.4320 C   0  0  0  0  0  0  0  0  0  0  0  0
   36.9410   24.6670   41.2770 C   0  0  0  0  0  0  0  0  0  0  0  0
   36.9940   25.9530   40.8060 C   0  0  0  0  0  0  0  0  0  0  0  0
   36.5420   26.1960   39.5300 N   0  0  0  0  0  0  0  0  0  0  0  0
   36.0540   25.2220   38.7340 C   0  0  0  0  0  0  0  0  0  0  0  0
   36.0030   23.9650   39.1980 N   0  0  0  0  0  0  0  0  0  0  0  0
   36.4280   22.6920   40.8900 H   0  0  0  0  0  0  0  0  0  0  0  0
   37.3070   24.5310   42.2820 H   0  0  0  0  0  0  0  0  0  0  0  0
   35.7080   25.4570   37.7360 H   0  0  0  0  0  0  0  0  0  0  0  0
   36.9840   30.6820   41.6190 O   0  0  0  0  0  0  0  0  0  0  0  0
   36.4640   30.7490   39.0340 O   0  0  0  0  0  0  0  0  0  0  0  0
   37.2580   31.4410   40.1130 P   0  0  1  0  0  0  0  0  0  0  0  0
   36.7540   33.0570   40.2250 O   0  0  0  0  0  0  0  0  0  0  0  0
   37.4640   33.6990   40.0180 H   0  0  0  0  0  0  0  0  0  0  0  0
   38.9130   31.3340   39.7730 O   0  0  0  0  0  0  0  0  0  0  0  0
   39.7900   31.7760   37.5750 C   0  0  2  0  0  3  0  0  0  0  0  0
   39.3620   32.3200   38.9080 C   0  0  2  0  0  3  0  0  0  0  0  0
   40.4670   32.9140   39.4870 O   0  0  0  0  0  0  0  0  0  0  0  0
   41.5840   32.1830   39.0210 C   0  0  0  0  0  2  0  0  0  0  0  0
   41.2650   32.1190   37.5400 C   0  0  2  0  0  3  0  0  0  0  0  0
   39.0990   32.3730   36.5220 O   0  0  0  0  0  0  0  0  0  0  0  0
   38.1360   32.3870   36.7550 H   0  0  0  0  0  0  0  0  0  0  0  0
   41.4480   33.4030   37.0130 O   0  0  0  0  0  0  0  0  0  0  0  0
   42.3420   33.7570   37.2510 H   0  0  0  0  0  0  0  0  0  0  0  0
  1  2  1  0  0  0  0
  2  7  1  0  0  0  0
  2  3  2  0  0  0  0
  3  8  1  0  0  0  0
  4  3  1  0  0  0  0
  4  9  1  0  0  0  0
  5  4  2  0  0  0  0
  6  1  2  0  0  0  0
  6  5  1  0  0  0  0
 10 16  1  0  0  0  0
 10 11  1  0  0  0  0
 11 17  1  0  0  0  0
 12 11  2  0  0  0  0
 12  1  1  0  0  0  0
 13 12  1  0  0  0  0
 14 15  1  0  0  0  0
 14 13  2  0  0  0  0
 15 10  2  0  0  0  0
 18 14  1  0  0  0  0
 19  5  1  0  0  0  0
 21 20  2  6  0  0  0
 21 22  1  0  0  0  0
 21 19  1  0  0  0  0
 23 22  1  0  0  0  0
 24 21  1  0  0  0  0
 25 30  1  6  0  0  0
 25 26  1  0  0  0  0
 26 27  1  0  0  0  0
 26 24  1  1  0  0  0
 28 27  1  0  0  0  0
 29 32  1  1  0  0  0
 29 25  1  0  0  0  0
 29 28  1  0  0  0  0
 30 31  1  0  0  0  0
 32 33  1  0  0  0  0
M  END
>  <minimizedAffinity>
-6.39216328

$$$$

 OpenBabel03242522003D

 33 35  0  0  1  0  0  0  0  0999 V2000
   37.8580   27.9830   41.5300 C   0  0  0  0  0  0  0  0  0  0  0  0
   36.4920   28.0360   41.3890 C   0  0  0  0  0  0  0  0  0  0  0  0
   35.7980   29.0710   40.7660 C   0  0  0  0  0  0  0  0  0  0  0  0
   36.5280   30.1220   40.2500 C   0  0  0  0  0  0  0  0  0  0  0  0
   37.8700   30.0550   40.3960 C   0  0  0  0  0  0  0  0  0  0  0  0
   38.5050   29.0500   40.9980 N   0  0  0  0  0  0  0  0  0  0  0  0
   35.9820   27.1610   41.8240 H   0  0  0  0  0  0  0  0  0  0  0  0
   34.7210   28.9080   40.7660 H   0  0  0  0  0  0  0  0  0  0  0  0
   35.8270   30.8200   39.8320 H   0  0  0  0  0  0  0  0  0  0  0  0
   40.0960   25.8580   43.6800 C   0  0  0  0  0  0  0  0  0  0  0  0
   39.5360   27.0230   43.1470 C   0  0  0  0  0  0  0  0  0  0  0  0
   38.5570   26.8940   42.1970 C   0  0  0  0  0  0  0  0  0  0  0  0
   38.1810   25.6260   41.8220 N   0  0  0  0  0  0  0  0  0  0  0  0
   38.7380   24.5150   42.3500 C   0  0  0  0  0  0  0  0  0  0  0  0
   39.6950   24.6460   43.2800 N   0  0  0  0  0  0  0  0  0  0  0  0
   40.8610   26.0590   44.4230 H   0  0  0  0  0  0  0  0  0  0  0  0
   39.7930   28.0380   43.4060 H   0  0  0  0  0  0  0  0  0  0  0  0
   38.4120   23.5360   42.0250 H   0  0  0  0  0  0  0  0  0  0  0  0
   38.6210   31.0970   39.8840 O   0  0  0  0  0  0  0  0  0  0  0  0
   38.8280   33.5040   40.9440 O   0  0  0  0  0  0  0  0  0  0  0  0
   39.5180   32.1660   40.8700 P   0  0  1  0  0  0  0  0  0  0  0  0
   39.6170   31.5040   42.4290 O   0  0  0  0  0  0  0  0  0  0  0  0
   40.5380   31.3770   42.7380 H   0  0  0  0  0  0  0  0  0  0  0  0
   41.0530   32.3420   40.1780 O   0  0  0  0  0  0  0  0  0  0  0  0
   41.3700   32.4030   37.7920 C   0  0  2  0  0  3  0  0  0  0  0  0
   41.0610   33.1560   39.0560 C   0  0  2  0  0  3  0  0  0  0  0  0
   42.0540   34.1000   39.2290 O   0  0  0  0  0  0  0  0  0  0  0  0
   43.2220   33.5360   38.6640 C   0  0  0  0  0  2  0  0  0  0  0  0
   42.6700   33.0390   37.3430 C   0  0  2  0  0  3  0  0  0  0  0  0
   40.3670   32.5550   36.8360 O   0  0  0  0  0  0  0  0  0  0  0  0
   39.4930   32.4170   37.2830 H   0  0  0  0  0  0  0  0  0  0  0  0
   42.4070   34.1590   36.5460 O   0  0  0  0  0  0  0  0  0  0  0  0
   43.2030   34.7480   36.4920 H   0  0  0  0  0  0  0  0  0  0  0  0
  1 12  1  0  0  0  0
  2  1  1  0  0  0  0
  2  7  1  0  0  0  0
  3  2  2  0  0  0  0
  4  5  2  0  0  0  0
  4  3  1  0  0  0  0
  5  6  1  0  0  0  0
  6  1  2  0  0  0  0
  8  3  1  0  0  0  0
  9  4  1  0  0  0  0
 10 16  1  0  0  0  0
 11 17  1  0  0  0  0
 11 10  2  0  0  0  0
 12 11  1  0  0  0  0
 13 12  2  0  0  0  0
 13 14  1  0  0  0  0
 14 15  2  0  0  0  0
 15 10  1  0  0  0  0
 18 14  1  0  0  0  0
 19  5  1  0  0  0  0
 19 21  1  0  0  0  0
 21 20  2  1  0  0  0
 21 22  1  0  0  0  0
 22 23  1  0  0  0  0
 24 21  1  0  0  0  0
 25 30  1  6  0  0  0
 25 26  1  0  0  0  0
 26 27  1  0  0  0  0
 26 24  1  1  0  0  0
 28 27  1  0  0  0  0
 29 32  1  6  0  0  0
 29 25  1  0  0  0  0
 29 28  1  0  0  0  0
 30 31  1  0  0  0  0
 33 32  1  0  0  0  0
M  END
>  <minimizedAffinity>
-6.35954952

$$$$

 OpenBabel03242522003D

 33 35  0  0  1  0  0  0  0  0999 V2000
   37.7870   25.3830   41.7540 C   0  0  0  0  0  0  0  0  0  0  0  0
   38.8910   25.4370   42.5700 C   0  0  0  0  0  0  0  0  0  0  0  0
   39.2550   26.5390   43.3400 C   0  0  0  0  0  0  0  0  0  0  0  0
   38.4540   27.6610   43.2850 C   0  0  0  0  0  0  0  0  0  0  0  0
   37.3720   27.5920   42.4790 C   0  0  0  0  0  0  0  0  0  0  0  0
   37.0500   26.5220   41.7540 N   0  0  0  0  0  0  0  0  0  0  0  0
   39.4770   24.5040   42.5600 H   0  0  0  0  0  0  0  0  0  0  0  0
   40.1650   26.3640   43.9120 H   0  0  0  0  0  0  0  0  0  0  0  0
   38.9000   28.4020   43.9230 H   0  0  0  0  0  0  0  0  0  0  0  0
   36.1080   22.8550   39.5320 C   0  0  0  0  0  0  0  0  0  0  0  0
   36.2690   24.0420   40.2530 C   0  0  0  0  0  0  0  0  0  0  0  0
   37.4360   24.2210   40.9490 C   0  0  0  0  0  0  0  0  0  0  0  0
   38.3810   23.2240   40.8990 N   0  0  0  0  0  0  0  0  0  0  0  0
   38.2010   22.0860   40.1950 C   0  0  0  0  0  0  0  0  0  0  0  0
   37.0590   21.9140   39.5150 N   0  0  0  0  0  0  0  0  0  0  0  0
   35.1550   22.8030   39.0130 H   0  0  0  0  0  0  0  0  0  0  0  0
   35.5620   24.8530   40.3250 H   0  0  0  0  0  0  0  0  0  0  0  0
   38.9720   21.3260   40.1830 H   0  0  0  0  0  0  0  0  0  0  0  0
   36.5540   28.7050   42.4120 O   0  0  0  0  0  0  0  0  0  0  0  0
   35.2180   28.8090   40.1390 O   0  0  0  0  0  0  0  0  0  0  0  0
   36.2480   29.5460   40.9550 P   0  0  1  0  0  0  0  0  0  0  0  0
   35.6550   31.0880   41.3390 O   0  0  0  0  0  0  0  0  0  0  0  0
   36.1940   31.8150   40.9630 H   0  0  0  0  0  0  0  0  0  0  0  0
   37.7060   29.6430   40.0990 O   0  0  0  0  0  0  0  0  0  0  0  0
   38.8510   30.1870   38.0530 C   0  0  2  0  0  3  0  0  0  0  0  0
   37.5570   30.1440   38.8150 C   0  0  2  0  0  3  0  0  0  0  0  0
   37.0960   31.4420   38.9230 O   0  0  0  0  0  0  0  0  0  0  0  0
   38.2510   32.2570   38.9650 C   0  0  0  0  0  2  0  0  0  0  0  0
   39.0370   31.6710   37.8080 C   0  0  2  0  0  3  0  0  0  0  0  0
   38.7760   29.4760   36.8570 O   0  0  0  0  0  0  0  0  0  0  0  0
   38.3530   28.5990   37.0470 H   0  0  0  0  0  0  0  0  0  0  0  0
   38.3900   32.0480   36.6250 O   0  0  0  0  0  0  0  0  0  0  0  0
   38.2440   33.0280   36.6000 H   0  0  0  0  0  0  0  0  0  0  0  0
  1  6  2  0  0  0  0
  1  2  1  0  0  0  0
  2  3  2  0  0  0  0
  3  8  1  0  0  0  0
  4  3  1  0  0  0  0
  4  9  1  0  0  0  0
  5  4  2  0  0  0  0
  6  5  1  0  0  0  0
  7  2  1  0  0  0  0
 10 11  1  0  0  0  0
 11 17  1  0  0  0  0
 11 12  2  0  0  0  0
 12  1  1  0  0  0  0
 13 12  1  0  0  0  0
 14 13  2  0  0  0  0
 15 10  2  0  0  0  0
 15 14  1  0  0  0  0
 16 10  1  0  0  0  0
 18 14  1  0  0  0  0
 19  5  1  0  0  0  0
 21 20  2  6  0  0  0
 21 22  1  0  0  0  0
 21 19  1  0  0  0  0
 23 22  1  0  0  0  0
 24 21  1  0  0  0  0
 25 30  1  6  0  0  0
 25 26  1  0  0  0  0
 26 27  1  0  0  0  0
 26 24  1  1  0  0  0
 27 28  1  0  0  0  0
 29 32  1  6  0  0  0
 29 25  1  0  0  0  0
 29 28  1  0  0  0  0
 30 31  1  0  0  0  0
 33 32  1  0  0  0  0
M  END
>  <minimizedAffinity>
-6.06872749

$$$$

 OpenBabel03242522003D

 33 35  0  0  1  0  0  0  0  0999 V2000
   38.4870   25.5280   41.7910 C   0  0  0  0  0  0  0  0  0  0  0  0
   39.3860   25.7030   42.8150 C   0  0  0  0  0  0  0  0  0  0  0  0
   39.4060   26.7990   43.6750 C   0  0  0  0  0  0  0  0  0  0  0  0
   38.4580   27.7850   43.4910 C   0  0  0  0  0  0  0  0  0  0  0  0
   37.5810   27.5970   42.4800 C   0  0  0  0  0  0  0  0  0  0  0  0
   37.5880   26.5360   41.6740 N   0  0  0  0  0  0  0  0  0  0  0  0
   40.1080   24.8750   42.8980 H   0  0  0  0  0  0  0  0  0  0  0  0
   40.2040   26.7330   44.4140 H   0  0  0  0  0  0  0  0  0  0  0  0
   38.6430   28.5450   44.2270 H   0  0  0  0  0  0  0  0  0  0  0  0
   37.8400   22.2640   40.0390 C   0  0  0  0  0  0  0  0  0  0  0  0
   37.6870   23.2750   40.9920 C   0  0  0  0  0  0  0  0  0  0  0  0
   38.4960   24.3770   40.8990 C   0  0  0  0  0  0  0  0  0  0  0  0
   39.4130   24.4250   39.8750 N   0  0  0  0  0  0  0  0  0  0  0  0
   39.5410   23.4330   38.9670 C   0  0  0  0  0  0  0  0  0  0  0  0
   38.7470   22.3570   39.0610 N   0  0  0  0  0  0  0  0  0  0  0  0
   37.1570   21.4330   40.1930 H   0  0  0  0  0  0  0  0  0  0  0  0
   36.9870   23.2880   41.8110 H   0  0  0  0  0  0  0  0  0  0  0  0
   40.2760   23.5120   38.1770 H   0  0  0  0  0  0  0  0  0  0  0  0
   36.6200   28.5720   42.2800 O   0  0  0  0  0  0  0  0  0  0  0  0
   36.0450   28.6630   39.7070 O   0  0  0  0  0  0  0  0  0  0  0  0
   36.5330   29.5100   40.8540 P   0  0  1  0  0  0  0  0  0  0  0  0
   35.4380   30.7810   41.1130 O   0  0  0  0  0  0  0  0  0  0  0  0
   35.8340   31.6660   40.9740 H   0  0  0  0  0  0  0  0  0  0  0  0
   38.0870   30.0950   40.5240 O   0  0  0  0  0  0  0  0  0  0  0  0
   38.1840   32.4610   40.0880 C   0  0  2  0  0  3  0  0  0  0  0  0
   38.3360   31.3410   41.0780 C   0  0  2  0  0  3  0  0  0  0  0  0
   39.6460   31.3510   41.5160 O   0  0  0  0  0  0  0  0  0  0  0  0
   40.4110   31.8290   40.4280 C   0  0  0  0  0  2  0  0  0  0  0  0
   39.5840   33.0350   40.0270 C   0  0  2  0  0  3  0  0  0  0  0  0
   37.2570   33.4110   40.5140 O   0  0  0  0  0  0  0  0  0  0  0  0
   36.4500   32.9310   40.8340 H   0  0  0  0  0  0  0  0  0  0  0  0
   39.7480   34.0080   41.0200 O   0  0  0  0  0  0  0  0  0  0  0  0
   40.7090   34.1780   41.1920 H   0  0  0  0  0  0  0  0  0  0  0  0
  1  2  1  0  0  0  0
  2  7  1  0  0  0  0
  2  3  2  0  0  0  0
  3  8  1  0  0  0  0
  4  3  1  0  0  0  0
  4  9  1  0  0  0  0
  5  4  2  0  0  0  0
  6  1  2  0  0  0  0
  6  5  1  0  0  0  0
 10 16  1  0  0  0  0
 10 11  1  0  0  0  0
 11 17  1  0  0  0  0
 12 11  2  0  0  0  0
 12  1  1  0  0  0  0
 13 12  1  0  0  0  0
 14 15  1  0  0  0  0
 14 13  2  0  0  0  0
 15 10  2  0  0  0  0
 18 14  1  0  0  0  0
 19  5  1  0  0  0  0
 21 20  2  6  0  0  0
 21 22  1  0  0  0  0
 21 19  1  0  0  0  0
 23 22  1  0  0  0  0
 24 21  1  0  0  0  0
 25 30  1  1  0  0  0
 25 26  1  0  0  0  0
 26 24  1  6  0  0  0
 26 27  1  0  0  0  0
 28 27  1  0  0  0  0
 29 25  1  0  0  0  0
 29 28  1  0  0  0  0
 29 32  1  1  0  0  0
 30 31  1  0  0  0  0
 32 33  1  0  0  0  0
M  END
>  <minimizedAffinity>
-6.06305742

$$$$

 OpenBabel03242522003D

 33 35  0  0  1  0  0  0  0  0999 V2000
   39.4640   29.0050   42.5750 C   0  0  0  0  0  0  0  0  0  0  0  0
   39.6850   27.8780   43.3290 C   0  0  0  0  0  0  0  0  0  0  0  0
   38.7390   26.8820   43.5620 C   0  0  0  0  0  0  0  0  0  0  0  0
   37.4890   27.0310   42.9980 C   0  0  0  0  0  0  0  0  0  0  0  0
   37.2880   28.1440   42.2590 C   0  0  0  0  0  0  0  0  0  0  0  0
   38.2140   29.0800   42.0550 N   0  0  0  0  0  0  0  0  0  0  0  0
   40.7050   27.8320   43.7420 H   0  0  0  0  0  0  0  0  0  0  0  0
   39.1280   26.0790   44.1860 H   0  0  0  0  0  0  0  0  0  0  0  0
   36.9010   26.1840   43.3010 H   0  0  0  0  0  0  0  0  0  0  0  0
   42.5770   31.1160   42.5210 C   0  0  0  0  0  0  0  0  0  0  0  0
   41.7520   30.0310   42.8350 C   0  0  0  0  0  0  0  0  0  0  0  0
   40.4670   30.0380   42.3570 C   0  0  0  0  0  0  0  0  0  0  0  0
   40.0630   31.1110   41.5970 N   0  0  0  0  0  0  0  0  0  0  0  0
   40.8800   32.1470   41.3090 C   0  0  0  0  0  0  0  0  0  0  0  0
   42.1360   32.1360   41.7780 N   0  0  0  0  0  0  0  0  0  0  0  0
   43.5740   31.0230   42.9420 H   0  0  0  0  0  0  0  0  0  0  0  0
   42.0180   29.1690   43.4240 H   0  0  0  0  0  0  0  0  0  0  0  0
   40.5210   32.9710   40.7070 H   0  0  0  0  0  0  0  0  0  0  0  0
   36.0410   28.3120   41.6830 O   0  0  0  0  0  0  0  0  0  0  0  0
   34.3940   29.2200   39.8340 O   0  0  0  0  0  0  0  0  0  0  0  0
   35.7200   29.4970   40.4950 P   0  0  1  0  0  0  0  0  0  0  0  0
   35.6580   31.0140   41.2530 O   0  0  0  0  0  0  0  0  0  0  0  0
   36.2990   31.6570   40.8840 H   0  0  0  0  0  0  0  0  0  0  0  0
   36.9650   29.4320   39.3490 O   0  0  0  0  0  0  0  0  0  0  0  0
   37.8220   30.1360   37.2130 C   0  0  2  0  0  3  0  0  0  0  0  0
   36.7650   30.2790   38.2710 C   0  0  2  0  0  3  0  0  0  0  0  0
   36.8210   31.5770   38.7410 O   0  0  0  0  0  0  0  0  0  0  0  0
   38.1760   31.9670   38.6260 C   0  0  0  0  0  2  0  0  0  0  0  0
   38.4710   31.5060   37.2130 C   0  0  2  0  0  3  0  0  0  0  0  0
   37.2770   29.8270   35.9680 O   0  0  0  0  0  0  0  0  0  0  0  0
   36.6150   29.1000   36.0950 H   0  0  0  0  0  0  0  0  0  0  0  0
   37.7890   32.3610   36.3390 O   0  0  0  0  0  0  0  0  0  0  0  0
   37.9970   33.3090   36.5390 H   0  0  0  0  0  0  0  0  0  0  0  0
  1  2  1  0  0  0  0
  2  3  2  0  0  0  0
  2  7  1  0  0  0  0
  3  8  1  0  0  0  0
  4  9  1  0  0  0  0
  4  3  1  0  0  0  0
  5  4  2  0  0  0  0
  6  5  1  0  0  0  0
  6  1  2  0  0  0  0
 10 11  1  0  0  0  0
 10 16  1  0  0  0  0
 11 17  1  0  0  0  0
 12  1  1  0  0  0  0
 12 11  2  0  0  0  0
 13 12  1  0  0  0  0
 14 13  2  0  0  0  0
 14 15  1  0  0  0  0
 15 10  2  0  0  0  0
 18 14  1  0  0  0  0
 19  5  1  0  0  0  0
 21 20  2  6  0  0  0
 21 22  1  0  0  0  0
 21 19  1  0  0  0  0
 23 22  1  0  0  0  0
 24 21  1  0  0  0  0
 25 30  1  6  0  0  0
 25 26  1  0  0  0  0
 26 27  1  0  0  0  0
 26 24  1  1  0  0  0
 28 27  1  0  0  0  0
 29 32  1  6  0  0  0
 29 25  1  0  0  0  0
 29 28  1  0  0  0  0
 30 31  1  0  0  0  0
 32 33  1  0  0  0  0
M  END
>  <minimizedAffinity>
-5.99959326

$$$$

 OpenBabel03242522003D

 33 35  0  0  1  0  0  0  0  0999 V2000
   38.1490   26.5970   41.8470 C   0  0  0  0  0  0  0  0  0  0  0  0
   37.1950   26.7010   42.8310 C   0  0  0  0  0  0  0  0  0  0  0  0
   36.9910   27.8300   43.6210 C   0  0  0  0  0  0  0  0  0  0  0  0
   37.7990   28.9270   43.4050 C   0  0  0  0  0  0  0  0  0  0  0  0
   38.7310   28.8090   42.4330 C   0  0  0  0  0  0  0  0  0  0  0  0
   38.9020   27.7140   41.6940 N   0  0  0  0  0  0  0  0  0  0  0  0
   36.5910   25.7860   42.9410 H   0  0  0  0  0  0  0  0  0  0  0  0
   36.1820   27.6950   44.3380 H   0  0  0  0  0  0  0  0  0  0  0  0
   37.5070   29.6820   44.1110 H   0  0  0  0  0  0  0  0  0  0  0  0
   39.3060   24.0180   39.3660 C   0  0  0  0  0  0  0  0  0  0  0  0
   39.2550   25.2490   40.0270 C   0  0  0  0  0  0  0  0  0  0  0  0
   38.3490   25.3990   41.0440 C   0  0  0  0  0  0  0  0  0  0  0  0
   37.5410   24.3300   41.3560 N   0  0  0  0  0  0  0  0  0  0  0  0
   37.6090   23.1510   40.7010 C   0  0  0  0  0  0  0  0  0  0  0  0
   38.4970   23.0090   39.7060 N   0  0  0  0  0  0  0  0  0  0  0  0
   40.0520   23.9940   38.5770 H   0  0  0  0  0  0  0  0  0  0  0  0
   39.8640   26.1150   39.8230 H   0  0  0  0  0  0  0  0  0  0  0  0
   36.9540   22.3370   40.9790 H   0  0  0  0  0  0  0  0  0  0  0  0
   39.5500   29.8980   42.1990 O   0  0  0  0  0  0  0  0  0  0  0  0
   37.6620   31.1390   40.8380 O   0  0  0  0  0  0  0  0  0  0  0  0
   39.1460   31.1450   41.1020 P   0  0  1  0  0  0  0  0  0  0  0  0
   39.5810   32.6320   41.7950 O   0  0  0  0  0  0  0  0  0  0  0  0
   40.2060   33.1470   41.2430 H   0  0  0  0  0  0  0  0  0  0  0  0
   39.9920   30.8640   39.6640 O   0  0  0  0  0  0  0  0  0  0  0  0
   40.4930   31.7330   37.4750 C   0  0  2  0  0  3  0  0  0  0  0  0
   40.2200   32.0150   38.9250 C   0  0  2  0  0  3  0  0  0  0  0  0
   41.3410   32.6320   39.4450 O   0  0  0  0  0  0  0  0  0  0  0  0
   42.4370   32.1090   38.7200 C   0  0  0  0  0  2  0  0  0  0  0  0
   41.9110   32.2390   37.3050 C   0  0  2  0  0  3  0  0  0  0  0  0
   39.6040   32.4050   36.6370 O   0  0  0  0  0  0  0  0  0  0  0  0
   38.6880   32.2760   36.9940 H   0  0  0  0  0  0  0  0  0  0  0  0
   41.9000   33.6010   36.9810 O   0  0  0  0  0  0  0  0  0  0  0  0
   42.7840   34.0120   37.1560 H   0  0  0  0  0  0  0  0  0  0  0  0
  1  2  1  0  0  0  0
  2  7  1  0  0  0  0
  2  3  2  0  0  0  0
  3  8  1  0  0  0  0
  4  3  1  0  0  0  0
  4  9  1  0  0  0  0
  5  4  2  0  0  0  0
  6  1  2  0  0  0  0
  6  5  1  0  0  0  0
 10 15  2  0  0  0  0
 10 11  1  0  0  0  0
 11 12  2  0  0  0  0
 12 13  1  0  0  0  0
 12  1  1  0  0  0  0
 14 18  1  0  0  0  0
 14 13  2  0  0  0  0
 15 14  1  0  0  0  0
 16 10  1  0  0  0  0
 17 11  1  0  0  0  0
 19  5  1  0  0  0  0
 21 20  2  6  0  0  0
 21 22  1  0  0  0  0
 21 19  1  0  0  0  0
 23 22  1  0  0  0  0
 24 21  1  0  0  0  0
 25 30  1  6  0  0  0
 25 26  1  0  0  0  0
 26 27  1  0  0  0  0
 26 24  1  1  0  0  0
 28 27  1  0  0  0  0
 29 32  1  1  0  0  0
 29 25  1  0  0  0  0
 29 28  1  0  0  0  0
 30 31  1  0  0  0  0
 32 33  1  0  0  0  0
M  END
>  <minimizedAffinity>
-5.93001175

$$$$

 OpenBabel03242522003D

 33 35  0  0  1  0  0  0  0  0999 V2000
   36.8740   28.1180   39.8000 C   0  0  0  0  0  0  0  0  0  0  0  0
   35.8980   27.6140   38.9760 C   0  0  0  0  0  0  0  0  0  0  0  0
   35.2910   28.3200   37.9400 C   0  0  0  0  0  0  0  0  0  0  0  0
   35.6930   29.6210   37.7210 C   0  0  0  0  0  0  0  0  0  0  0  0
   36.6550   30.1030   38.5390 C   0  0  0  0  0  0  0  0  0  0  0  0
   37.2170   29.4000   39.5220 N   0  0  0  0  0  0  0  0  0  0  0  0
   35.6330   26.5710   39.2140 H   0  0  0  0  0  0  0  0  0  0  0  0
   34.5430   27.7270   37.4150 H   0  0  0  0  0  0  0  0  0  0  0  0
   35.1070   30.0020   36.9040 H   0  0  0  0  0  0  0  0  0  0  0  0
   38.0060   25.4600   42.2090 C   0  0  0  0  0  0  0  0  0  0  0  0
   37.3400   26.0170   41.1130 C   0  0  0  0  0  0  0  0  0  0  0  0
   37.4840   27.3610   40.8840 C   0  0  0  0  0  0  0  0  0  0  0  0
   38.2740   28.0840   41.7460 N   0  0  0  0  0  0  0  0  0  0  0  0
   38.9060   27.5230   42.7990 C   0  0  0  0  0  0  0  0  0  0  0  0
   38.7630   26.2080   43.0190 N   0  0  0  0  0  0  0  0  0  0  0  0
   37.8330   24.3930   42.3100 H   0  0  0  0  0  0  0  0  0  0  0  0
   36.7110   25.4960   40.4090 H   0  0  0  0  0  0  0  0  0  0  0  0
   39.5180   28.1300   43.4520 H   0  0  0  0  0  0  0  0  0  0  0  0
   37.0750   31.4040   38.3340 O   0  0  0  0  0  0  0  0  0  0  0  0
   36.9290   33.8620   39.2810 O   0  0  0  0  0  0  0  0  0  0  0  0
   37.4260   32.4790   39.6150 P   0  0  1  0  0  0  0  0  0  0  0  0
   36.6370   31.9260   41.0120 O   0  0  0  0  0  0  0  0  0  0  0  0
   37.2470   31.7600   41.7600 H   0  0  0  0  0  0  0  0  0  0  0  0
   39.1060   32.5020   39.8260 O   0  0  0  0  0  0  0  0  0  0  0  0
   40.1620   32.0570   37.7080 C   0  0  2  0  0  3  0  0  0  0  0  0
   39.7870   33.0650   38.7580 C   0  0  2  0  0  3  0  0  0  0  0  0
   40.9580   33.6090   39.2470 O   0  0  0  0  0  0  0  0  0  0  0  0
   41.9270   32.5840   39.1520 C   0  0  0  0  0  2  0  0  0  0  0  0
   41.6760   32.1070   37.7340 C   0  0  2  0  0  3  0  0  0  0  0  0
   39.6590   32.3980   36.4540 O   0  0  0  0  0  0  0  0  0  0  0  0
   38.7080   32.6540   36.5640 H   0  0  0  0  0  0  0  0  0  0  0  0
   42.1400   33.1020   36.8660 O   0  0  0  0  0  0  0  0  0  0  0  0
   43.0740   33.3520   37.0820 H   0  0  0  0  0  0  0  0  0  0  0  0
  1 12  1  0  0  0  0
  2  7  1  0  0  0  0
  2  1  2  0  0  0  0
  3  2  1  0  0  0  0
  4  3  2  0  0  0  0
  4  5  1  0  0  0  0
  5  6  2  0  0  0  0
  6  1  1  0  0  0  0
  8  3  1  0  0  0  0
  9  4  1  0  0  0  0
 10 16  1  0  0  0  0
 10 15  1  0  0  0  0
 11 10  2  0  0  0  0
 12 11  1  0  0  0  0
 12 13  2  0  0  0  0
 13 14  1  0  0  0  0
 14 15  2  0  0  0  0
 14 18  1  0  0  0  0
 17 11  1  0  0  0  0
 19  5  1  0  0  0  0
 19 21  1  0  0  0  0
 21 20  2  6  0  0  0
 21 24  1  0  0  0  0
 21 22  1  0  0  0  0
 22 23  1  0  0  0  0
 25 30  1  6  0  0  0
 25 29  1  0  0  0  0
 25 26  1  0  0  0  0
 26 27  1  0  0  0  0
 26 24  1  1  0  0  0
 28 27  1  0  0  0  0
 29 32  1  6  0  0  0
 29 28  1  0  0  0  0
 30 31  1  0  0  0  0
 32 33  1  0  0  0  0
M  END
>  <minimizedAffinity>
-5.81675529

$$$$

 OpenBabel03242522003D

 33 35  0  0  1  0  0  0  0  0999 V2000
   37.6890   28.6370   41.7890 C   0  0  0  0  0  0  0  0  0  0  0  0
   36.4770   28.1330   41.3820 C   0  0  0  0  0  0  0  0  0  0  0  0
   35.4790   28.8760   40.7560 C   0  0  0  0  0  0  0  0  0  0  0  0
   35.7170   30.2150   40.5230 C   0  0  0  0  0  0  0  0  0  0  0  0
   36.9140   30.6950   40.9280 C   0  0  0  0  0  0  0  0  0  0  0  0
   37.8490   29.9580   41.5250 N   0  0  0  0  0  0  0  0  0  0  0  0
   36.3640   27.0600   41.6020 H   0  0  0  0  0  0  0  0  0  0  0  0
   34.6010   28.2760   40.5200 H   0  0  0  0  0  0  0  0  0  0  0  0
   34.8380   30.6180   40.0550 H   0  0  0  0  0  0  0  0  0  0  0  0
   39.6710   25.9390   43.5020 C   0  0  0  0  0  0  0  0  0  0  0  0
   38.5740   26.5450   42.8820 C   0  0  0  0  0  0  0  0  0  0  0  0
   38.7110   27.8400   42.4530 C   0  0  0  0  0  0  0  0  0  0  0  0
   39.9170   28.4680   42.6580 N   0  0  0  0  0  0  0  0  0  0  0  0
   40.9610   27.8600   43.2610 C   0  0  0  0  0  0  0  0  0  0  0  0
   40.8240   26.5930   43.6780 N   0  0  0  0  0  0  0  0  0  0  0  0
   39.4700   24.9160   43.8070 H   0  0  0  0  0  0  0  0  0  0  0  0
   37.6110   26.1000   42.6970 H   0  0  0  0  0  0  0  0  0  0  0  0
   41.8920   28.3910   43.4020 H   0  0  0  0  0  0  0  0  0  0  0  0
   37.1740   32.0350   40.7020 O   0  0  0  0  0  0  0  0  0  0  0  0
   38.7160   34.1590   40.4390 O   0  0  0  0  0  0  0  0  0  0  0  0
   38.7560   32.6540   40.5150 P   0  0  1  0  0  0  0  0  0  0  0  0
   39.6780   32.1890   41.8620 O   0  0  0  0  0  0  0  0  0  0  0  0
   40.4780   31.6780   41.6240 H   0  0  0  0  0  0  0  0  0  0  0  0
   39.3950   32.0180   39.0820 O   0  0  0  0  0  0  0  0  0  0  0  0
   41.1270   32.3170   37.4370 C   0  0  2  0  0  3  0  0  0  0  0  0
   40.7290   32.3350   38.8860 C   0  0  2  0  0  3  0  0  0  0  0  0
   41.4880   31.3810   39.5360 O   0  0  0  0  0  0  0  0  0  0  0  0
   41.7260   30.3660   38.5800 C   0  0  0  0  0  2  0  0  0  0  0  0
   42.1570   31.2070   37.3950 C   0  0  2  0  0  3  0  0  0  0  0  0
   41.6680   33.5350   37.0290 O   0  0  0  0  0  0  0  0  0  0  0  0
   41.0790   34.2590   37.3620 H   0  0  0  0  0  0  0  0  0  0  0  0
   43.4280   31.7190   37.6800 O   0  0  0  0  0  0  0  0  0  0  0  0
   44.0480   30.9940   37.9480 H   0  0  0  0  0  0  0  0  0  0  0  0
  1 12  1  0  0  0  0
  2  7  1  0  0  0  0
  2  1  2  0  0  0  0
  3  2  1  0  0  0  0
  4  3  2  0  0  0  0
  4  5  1  0  0  0  0
  5  6  2  0  0  0  0
  6  1  1  0  0  0  0
  8  3  1  0  0  0  0
  9  4  1  0  0  0  0
 10 15  1  0  0  0  0
 10 16  1  0  0  0  0
 11 10  2  0  0  0  0
 12 13  2  0  0  0  0
 12 11  1  0  0  0  0
 13 14  1  0  0  0  0
 14 18  1  0  0  0  0
 14 15  2  0  0  0  0
 17 11  1  0  0  0  0
 19  5  1  0  0  0  0
 21 20  2  6  0  0  0
 21 19  1  0  0  0  0
 21 22  1  0  0  0  0
 23 22  1  0  0  0  0
 24 21  1  0  0  0  0
 25 30  1  1  0  0  0
 25 26  1  0  0  0  0
 26 24  1  6  0  0  0
 26 27  1  0  0  0  0
 28 27  1  0  0  0  0
 29 25  1  0  0  0  0
 29 32  1  1  0  0  0
 29 28  1  0  0  0  0
 30 31  1  0  0  0  0
 32 33  1  0  0  0  0
M  END
>  <minimizedAffinity>
-5.69136906

$$$$

 OpenBabel03242522003D

 33 35  0  0  1  0  0  0  0  0999 V2000
   37.4880   29.8770   40.0710 C   0  0  0  0  0  0  0  0  0  0  0  0
   36.7360   29.7070   38.9340 C   0  0  0  0  0  0  0  0  0  0  0  0
   36.7900   30.5370   37.8160 C   0  0  0  0  0  0  0  0  0  0  0  0
   37.6590   31.6080   37.8460 C   0  0  0  0  0  0  0  0  0  0  0  0
   38.3920   31.7600   38.9710 C   0  0  0  0  0  0  0  0  0  0  0  0
   38.3180   30.9480   40.0240 N   0  0  0  0  0  0  0  0  0  0  0  0
   36.0690   28.8320   38.9880 H   0  0  0  0  0  0  0  0  0  0  0  0
   36.1080   30.2170   37.0290 H   0  0  0  0  0  0  0  0  0  0  0  0
   37.5480   32.1330   36.9150 H   0  0  0  0  0  0  0  0  0  0  0  0
   36.9480   27.0150   42.4510 C   0  0  0  0  0  0  0  0  0  0  0  0
   36.9580   27.7040   41.2350 C   0  0  0  0  0  0  0  0  0  0  0  0
   37.4020   29.0010   41.2310 C   0  0  0  0  0  0  0  0  0  0  0  0
   37.8110   29.5500   42.4240 N   0  0  0  0  0  0  0  0  0  0  0  0
   37.7910   28.8630   43.5860 C   0  0  0  0  0  0  0  0  0  0  0  0
   37.3570   27.5940   43.5860 N   0  0  0  0  0  0  0  0  0  0  0  0
   36.5820   25.9970   42.3560 H   0  0  0  0  0  0  0  0  0  0  0  0
   36.6500   27.3220   40.2750 H   0  0  0  0  0  0  0  0  0  0  0  0
   38.1220   29.3340   44.5020 H   0  0  0  0  0  0  0  0  0  0  0  0
   39.2720   32.8260   39.0200 O   0  0  0  0  0  0  0  0  0  0  0  0
   41.3740   34.1610   39.8900 O   0  0  0  0  0  0  0  0  0  0  0  0
   40.6500   32.8470   40.0310 P   0  0  1  0  0  0  0  0  0  0  0  0
   40.1390   32.6620   41.6380 O   0  0  0  0  0  0  0  0  0  0  0  0
   40.5440   31.8900   42.0860 H   0  0  0  0  0  0  0  0  0  0  0  0
   41.6600   31.5740   39.5550 O   0  0  0  0  0  0  0  0  0  0  0  0
   42.1790   32.1480   37.2750 C   0  0  2  0  0  3  0  0  0  0  0  0
   42.6660   31.9650   38.6850 C   0  0  2  0  0  3  0  0  0  0  0  0
   43.6180   30.9650   38.6690 O   0  0  0  0  0  0  0  0  0  0  0  0
   43.2380   30.0900   37.6250 C   0  0  0  0  0  2  0  0  0  0  0  0
   42.9620   31.0920   36.5210 C   0  0  2  0  0  3  0  0  0  0  0  0
   42.4460   33.4280   36.7930 O   0  0  0  0  0  0  0  0  0  0  0  0
   42.1770   34.0800   37.4880 H   0  0  0  0  0  0  0  0  0  0  0  0
   44.1930   31.6120   36.1050 O   0  0  0  0  0  0  0  0  0  0  0  0
   44.8270   30.8840   35.8830 H   0  0  0  0  0  0  0  0  0  0  0  0
  1 12  1  0  0  0  0
  2  7  1  0  0  0  0
  2  1  2  0  0  0  0
  3  4  2  0  0  0  0
  3  2  1  0  0  0  0
  4  5  1  0  0  0  0
  5 19  1  0  0  0  0
  5  6  2  0  0  0  0
  6  1  1  0  0  0  0
  8  3  1  0  0  0  0
  9  4  1  0  0  0  0
 10 15  1  0  0  0  0
 11 10  2  0  0  0  0
 12 11  1  0  0  0  0
 12 13  2  0  0  0  0
 13 14  1  0  0  0  0
 14 15  2  0  0  0  0
 14 18  1  0  0  0  0
 16 10  1  0  0  0  0
 17 11  1  0  0  0  0
 19 21  1  0  0  0  0
 21 20  2  6  0  0  0
 21 22  1  0  0  0  0
 22 23  1  0  0  0  0
 24 21  1  0  0  0  0
 25 30  1  6  0  0  0
 25 26  1  0  0  0  0
 26 24  1  1  0  0  0
 27 26  1  0  0  0  0
 28 27  1  0  0  0  0
 29 32  1  1  0  0  0
 29 25  1  0  0  0  0
 29 28  1  0  0  0  0
 30 31  1  0  0  0  0
 33 32  1  0  0  0  0
M  END
>  <minimizedAffinity>
-5.53430557

$$$$
