
 OpenBabel03252505003D

 37 39  0  0  1  0  0  0  0  0999 V2000
   36.8040   28.6330   41.3010 N   0  0  0  0  0  0  0  0  0  0  0  0
   36.7550   27.5560   40.3890 C   0  0  0  0  0  0  0  0  0  0  0  0
   35.7880   28.0270   39.3810 C   0  0  0  0  0  0  0  0  0  0  0  0
   35.3430   29.4310   39.7520 C   0  0  0  0  0  0  0  0  0  0  0  0
   36.4660   29.8620   40.7080 C   0  0  2  0  0  0  0  0  0  0  0  0
   37.1680   26.6050   40.2330 H   0  0  0  0  0  0  0  0  0  0  0  0
   35.4300   27.5430   38.4950 H   0  0  0  0  0  0  0  0  0  0  0  0
   35.3580   30.0100   38.8310 H   0  0  0  0  0  0  0  0  0  0  0  0
   34.3680   29.4110   40.2700 H   0  0  0  0  0  0  0  0  0  0  0  0
   36.1530   30.6340   41.4070 H   0  0  0  0  0  0  0  0  0  0  0  0
   37.1180   28.4030   42.6200 C   0  0  0  0  0  0  0  0  0  0  0  0
   36.4000   27.6450   43.0110 H   0  0  0  0  0  0  0  0  0  0  0  0
   36.9360   29.2680   43.2990 H   0  0  0  0  0  0  0  0  0  0  0  0
   40.8890   28.2880   42.9580 C   0  0  0  0  0  0  0  0  0  0  0  0
   39.6000   28.8040   42.6420 C   0  0  0  0  0  0  0  0  0  0  0  0
   38.4870   27.9960   42.8670 C   0  0  0  0  0  0  0  0  0  0  0  0
   38.7080   26.7650   43.3750 N   0  0  0  0  0  0  0  0  0  0  0  0
   39.9630   26.2780   43.6760 C   0  0  0  0  0  0  0  0  0  0  0  0
   41.0400   27.0350   43.4690 N   0  0  0  0  0  0  0  0  0  0  0  0
   41.6810   28.9960   42.7450 H   0  0  0  0  0  0  0  0  0  0  0  0
   39.4650   29.7800   42.2430 H   0  0  0  0  0  0  0  0  0  0  0  0
   40.0530   25.2760   44.0820 H   0  0  0  0  0  0  0  0  0  0  0  0
   37.5510   30.2200   39.8930 O   0  0  0  0  0  0  0  0  0  0  0  0
   39.1070   31.8880   41.2480 O   0  0  0  0  0  0  0  0  0  0  0  0
   38.1090   31.7600   40.1210 P   0  0  2  0  0  0  0  0  0  0  0  0
   36.7910   32.7540   40.5140 O   0  0  0  0  0  0  0  0  0  0  0  0
   36.1550   32.7410   39.7400 H   0  0  0  0  0  0  0  0  0  0  0  0
   38.7620   32.3980   38.6710 O   0  0  0  0  0  0  0  0  0  0  0  0
   40.7930   32.4680   37.3790 C   0  0  1  0  0  3  0  0  0  0  0  0
   40.1340   32.5100   38.7410 C   0  0  1  0  0  3  0  0  0  0  0  0
   40.4320   33.8150   39.1350 O   0  0  0  0  0  0  0  0  0  0  0  0
   41.8120   33.8830   38.9680 C   0  0  0  0  0  2  0  0  0  0  0  0
   42.0970   33.2120   37.6620 C   0  0  2  0  0  3  0  0  0  0  0  0
   41.0410   31.1580   37.0540 O   0  0  0  0  0  0  0  0  0  0  0  0
   41.5100   31.0440   36.2070 H   0  0  0  0  0  0  0  0  0  0  0  0
   42.3820   34.1000   36.6280 O   0  0  0  0  0  0  0  0  0  0  0  0
   42.1640   33.6100   35.7780 H   0  0  0  0  0  0  0  0  0  0  0  0
  1 11  1  0  0  0  0
  2  1  1  0  0  0  0
  3  4  1  0  0  0  0
  3  2  2  0  0  0  0
  4  9  1  0  0  0  0
  4  5  1  0  0  0  0
  5  1  1  0  0  0  0
  5 10  1  1  0  0  0
  6  2  1  0  0  0  0
  7  3  1  0  0  0  0
  8  4  1  0  0  0  0
 11 16  1  0  0  0  0
 11 12  1  0  0  0  0
 11 13  1  0  0  0  0
 14 19  1  0  0  0  0
 15 16  1  0  0  0  0
 15 14  2  0  0  0  0
 16 17  2  0  0  0  0
 17 18  1  0  0  0  0
 18 22  1  0  0  0  0
 19 18  2  0  0  0  0
 20 14  1  0  0  0  0
 21 15  1  0  0  0  0
 23 25  1  0  0  0  0
 23  5  1  0  0  0  0
 25 26  1  0  0  0  0
 25 24  2  1  0  0  0
 27 26  1  0  0  0  0
 28 25  1  0  0  0  0
 29 34  1  1  0  0  0
 29 33  1  0  0  0  0
 29 30  1  0  0  0  0
 30 28  1  6  0  0  0
 30 31  1  0  0  0  0
 32 31  1  0  0  0  0
 33 36  1  6  0  0  0
 33 32  1  0  0  0  0
 35 34  1  0  0  0  0
 37 36  1  0  0  0  0
M  END
>  <minimizedAffinity>
-6.0382328

$$$$

 OpenBabel03252505003D

 37 39  0  0  1  0  0  0  0  0999 V2000
   36.8520   29.0450   39.0300 N   0  0  0  0  0  0  0  0  0  0  0  0
   37.5710   28.2130   38.1430 C   0  0  0  0  0  0  0  0  0  0  0  0
   37.7250   29.0650   36.9500 C   0  0  0  0  0  0  0  0  0  0  0  0
   37.1010   30.4190   37.2350 C   0  0  0  0  0  0  0  0  0  0  0  0
   37.0510   30.4130   38.7710 C   0  0  2  0  0  0  0  0  0  0  0  0
   37.9900   27.2530   38.0910 H   0  0  0  0  0  0  0  0  0  0  0  0
   38.2040   28.8550   36.0150 H   0  0  0  0  0  0  0  0  0  0  0  0
   37.8020   31.1640   36.8610 H   0  0  0  0  0  0  0  0  0  0  0  0
   36.0850   30.4840   36.8060 H   0  0  0  0  0  0  0  0  0  0  0  0
   36.2820   31.0680   39.1720 H   0  0  0  0  0  0  0  0  0  0  0  0
   36.0370   28.4890   39.9870 C   0  0  0  0  0  0  0  0  0  0  0  0
   35.5110   27.6230   39.5200 H   0  0  0  0  0  0  0  0  0  0  0  0
   35.1860   29.1340   40.3060 H   0  0  0  0  0  0  0  0  0  0  0  0
   37.7710   26.5400   42.7330 C   0  0  0  0  0  0  0  0  0  0  0  0
   37.0970   26.7860   41.5040 C   0  0  0  0  0  0  0  0  0  0  0  0
   36.7040   28.0910   41.2110 C   0  0  0  0  0  0  0  0  0  0  0  0
   36.9920   29.0440   42.1230 N   0  0  0  0  0  0  0  0  0  0  0  0
   37.6470   28.7900   43.3100 C   0  0  0  0  0  0  0  0  0  0  0  0
   38.0310   27.5490   43.6080 N   0  0  0  0  0  0  0  0  0  0  0  0
   38.0300   25.4950   42.8590 H   0  0  0  0  0  0  0  0  0  0  0  0
   36.8860   26.0090   40.8100 H   0  0  0  0  0  0  0  0  0  0  0  0
   37.8400   29.6130   43.9890 H   0  0  0  0  0  0  0  0  0  0  0  0
   38.3530   30.7120   39.2010 O   0  0  0  0  0  0  0  0  0  0  0  0
   39.1030   31.6800   41.5550 O   0  0  0  0  0  0  0  0  0  0  0  0
   38.4630   32.0060   40.2260 P   0  0  2  0  0  0  0  0  0  0  0  0
   36.8930   32.5600   40.5570 O   0  0  0  0  0  0  0  0  0  0  0  0
   36.4820   32.8550   39.6920 H   0  0  0  0  0  0  0  0  0  0  0  0
   39.2750   33.3160   39.4770 O   0  0  0  0  0  0  0  0  0  0  0  0
   40.8000   32.9500   37.6500 C   0  0  1  0  0  3  0  0  0  0  0  0
   40.5710   32.9840   39.1460 C   0  0  1  0  0  3  0  0  0  0  0  0
   41.3880   34.0540   39.5110 O   0  0  0  0  0  0  0  0  0  0  0  0
   42.6150   33.7150   38.9490 C   0  0  0  0  0  2  0  0  0  0  0  0
   42.3050   33.1990   37.5790 C   0  0  2  0  0  3  0  0  0  0  0  0
   40.4920   31.6950   37.1890 O   0  0  0  0  0  0  0  0  0  0  0  0
   40.6580   31.5740   36.2360 H   0  0  0  0  0  0  0  0  0  0  0  0
   42.6000   34.1030   36.5630 O   0  0  0  0  0  0  0  0  0  0  0  0
   42.0160   33.8430   35.7870 H   0  0  0  0  0  0  0  0  0  0  0  0
  1 11  1  0  0  0  0
  2  1  1  0  0  0  0
  3  4  1  0  0  0  0
  3  2  2  0  0  0  0
  4  5  1  0  0  0  0
  5  1  1  0  0  0  0
  5 10  1  1  0  0  0
  5 23  1  0  0  0  0
  6  2  1  0  0  0  0
  7  3  1  0  0  0  0
  8  4  1  0  0  0  0
  9  4  1  0  0  0  0
 11 13  1  0  0  0  0
 11 16  1  0  0  0  0
 12 11  1  0  0  0  0
 14 20  1  0  0  0  0
 14 19  1  0  0  0  0
 15 14  2  0  0  0  0
 16 15  1  0  0  0  0
 16 17  2  0  0  0  0
 17 18  1  0  0  0  0
 18 19  2  0  0  0  0
 18 22  1  0  0  0  0
 21 15  1  0  0  0  0
 23 25  1  0  0  0  0
 25 26  1  0  0  0  0
 25 24  2  1  0  0  0
 27 26  1  0  0  0  0
 28 25  1  0  0  0  0
 29 34  1  1  0  0  0
 29 30  1  0  0  0  0
 30 28  1  6  0  0  0
 30 31  1  0  0  0  0
 32 31  1  0  0  0  0
 33 36  1  6  0  0  0
 33 29  1  0  0  0  0
 33 32  1  0  0  0  0
 35 34  1  0  0  0  0
 37 36  1  0  0  0  0
M  END
>  <minimizedAffinity>
-5.81092978

$$$$

 OpenBabel03252505003D

 37 39  0  0  1  0  0  0  0  0999 V2000
   35.8120   28.7000   39.3470 N   0  0  0  0  0  0  0  0  0  0  0  0
   35.7410   27.4490   38.6970 C   0  0  0  0  0  0  0  0  0  0  0  0
   35.4750   27.8240   37.2960 C   0  0  0  0  0  0  0  0  0  0  0  0
   35.4510   29.3390   37.1950 C   0  0  0  0  0  0  0  0  0  0  0  0
   36.1900   29.7410   38.4800 C   0  0  2  0  0  0  0  0  0  0  0  0
   35.8150   26.4220   38.9000 H   0  0  0  0  0  0  0  0  0  0  0  0
   35.3400   27.2040   36.4340 H   0  0  0  0  0  0  0  0  0  0  0  0
   36.0260   29.5950   36.3070 H   0  0  0  0  0  0  0  0  0  0  0  0
   34.4130   29.7180   37.2000 H   0  0  0  0  0  0  0  0  0  0  0  0
   35.9280   30.7380   38.8250 H   0  0  0  0  0  0  0  0  0  0  0  0
   35.4880   28.8020   40.6790 C   0  0  0  0  0  0  0  0  0  0  0  0
   34.6530   28.0910   40.8790 H   0  0  0  0  0  0  0  0  0  0  0  0
   35.0380   29.7780   40.9750 H   0  0  0  0  0  0  0  0  0  0  0  0
   38.0500   27.2680   43.0100 C   0  0  0  0  0  0  0  0  0  0  0  0
   36.9270   27.3450   42.1380 C   0  0  0  0  0  0  0  0  0  0  0  0
   36.5850   28.5850   41.6010 C   0  0  0  0  0  0  0  0  0  0  0  0
   37.3510   29.6420   41.9470 N   0  0  0  0  0  0  0  0  0  0  0  0
   38.4370   29.5520   42.7930 C   0  0  0  0  0  0  0  0  0  0  0  0
   38.7790   28.3750   43.3170 N   0  0  0  0  0  0  0  0  0  0  0  0
   38.2250   26.2610   43.3700 H   0  0  0  0  0  0  0  0  0  0  0  0
   36.3460   26.4900   41.8890 H   0  0  0  0  0  0  0  0  0  0  0  0
   39.0000   30.4510   43.0200 H   0  0  0  0  0  0  0  0  0  0  0  0
   37.5560   29.5570   38.2140 O   0  0  0  0  0  0  0  0  0  0  0  0
   37.7260   32.0180   37.2360 O   0  0  0  0  0  0  0  0  0  0  0  0
   38.4230   30.9570   38.0550 P   0  0  2  0  0  0  0  0  0  0  0  0
   39.8790   30.5970   37.2590 O   0  0  0  0  0  0  0  0  0  0  0  0
   40.3900   29.9510   37.8300 H   0  0  0  0  0  0  0  0  0  0  0  0
   38.8690   31.5820   39.5870 O   0  0  0  0  0  0  0  0  0  0  0  0
   39.8450   33.4090   40.8140 C   0  0  1  0  0  3  0  0  0  0  0  0
   39.4770   32.8140   39.4730 C   0  0  1  0  0  3  0  0  0  0  0  0
   40.7410   32.6120   38.9200 O   0  0  0  0  0  0  0  0  0  0  0  0
   41.3400   33.8610   39.0460 C   0  0  0  0  0  2  0  0  0  0  0  0
   40.9830   34.3460   40.4160 C   0  0  2  0  0  3  0  0  0  0  0  0
   38.7710   34.1210   41.2860 O   0  0  0  0  0  0  0  0  0  0  0  0
   38.9420   34.5780   42.1300 H   0  0  0  0  0  0  0  0  0  0  0  0
   42.0300   34.2550   41.3290 O   0  0  0  0  0  0  0  0  0  0  0  0
   41.5980   34.2160   42.2370 H   0  0  0  0  0  0  0  0  0  0  0  0
  1 11  1  0  0  0  0
  2  6  1  0  0  0  0
  2  1  1  0  0  0  0
  3  2  2  0  0  0  0
  4  9  1  0  0  0  0
  4  3  1  0  0  0  0
  4  5  1  0  0  0  0
  5 10  1  1  0  0  0
  5  1  1  0  0  0  0
  7  3  1  0  0  0  0
  8  4  1  0  0  0  0
 11 12  1  0  0  0  0
 11 13  1  0  0  0  0
 11 16  1  0  0  0  0
 14 19  1  0  0  0  0
 14 20  1  0  0  0  0
 15 14  2  0  0  0  0
 16 17  2  0  0  0  0
 16 15  1  0  0  0  0
 17 18  1  0  0  0  0
 18 22  1  0  0  0  0
 18 19  2  0  0  0  0
 21 15  1  0  0  0  0
 23  5  1  0  0  0  0
 25 24  2  6  0  0  0
 25 23  1  0  0  0  0
 25 28  1  0  0  0  0
 26 27  1  0  0  0  0
 26 25  1  0  0  0  0
 29 34  1  6  0  0  0
 30 28  1  1  0  0  0
 30 29  1  0  0  0  0
 31 32  1  0  0  0  0
 31 30  1  0  0  0  0
 32 33  1  0  0  0  0
 33 29  1  0  0  0  0
 33 36  1  1  0  0  0
 34 35  1  0  0  0  0
 36 37  1  0  0  0  0
M  END
>  <minimizedAffinity>
-5.41988897

$$$$

 OpenBabel03252505003D

 37 39  0  0  1  0  0  0  0  0999 V2000
   36.3240   27.5000   38.2240 N   0  0  0  0  0  0  0  0  0  0  0  0
   36.5230   28.0490   36.9380 C   0  0  0  0  0  0  0  0  0  0  0  0
   35.4160   29.0150   36.8220 C   0  0  0  0  0  0  0  0  0  0  0  0
   34.6270   29.0090   38.1190 C   0  0  0  0  0  0  0  0  0  0  0  0
   35.6370   28.3720   39.0860 C   0  0  2  0  0  0  0  0  0  0  0  0
   37.1700   27.9770   36.1150 H   0  0  0  0  0  0  0  0  0  0  0  0
   35.1580   29.6690   36.0140 H   0  0  0  0  0  0  0  0  0  0  0  0
   34.4380   30.0520   38.3680 H   0  0  0  0  0  0  0  0  0  0  0  0
   33.7200   28.3850   38.0260 H   0  0  0  0  0  0  0  0  0  0  0  0
   35.1630   27.8900   39.9370 H   0  0  0  0  0  0  0  0  0  0  0  0
   36.7550   26.2230   38.5000 C   0  0  0  0  0  0  0  0  0  0  0  0
   37.4180   25.9020   37.6630 H   0  0  0  0  0  0  0  0  0  0  0  0
   35.9550   25.4470   38.4730 H   0  0  0  0  0  0  0  0  0  0  0  0
   37.6870   25.1820   42.0200 C   0  0  0  0  0  0  0  0  0  0  0  0
   36.9180   25.2830   40.8260 C   0  0  0  0  0  0  0  0  0  0  0  0
   37.4160   26.0570   39.7790 C   0  0  0  0  0  0  0  0  0  0  0  0
   38.6060   26.6640   39.9690 N   0  0  0  0  0  0  0  0  0  0  0  0
   39.3410   26.5560   41.1310 C   0  0  0  0  0  0  0  0  0  0  0  0
   38.8820   25.8210   42.1440 N   0  0  0  0  0  0  0  0  0  0  0  0
   37.2090   24.5590   42.7670 H   0  0  0  0  0  0  0  0  0  0  0  0
   35.9830   24.7910   40.7130 H   0  0  0  0  0  0  0  0  0  0  0  0
   40.2890   27.0770   41.2020 H   0  0  0  0  0  0  0  0  0  0  0  0
   36.5430   29.3890   39.4230 O   0  0  0  0  0  0  0  0  0  0  0  0
   36.2950   28.5410   41.9260 O   0  0  0  0  0  0  0  0  0  0  0  0
   36.6450   29.7160   41.0420 P   0  0  2  0  0  0  0  0  0  0  0  0
   35.5450   30.9540   41.4090 O   0  0  0  0  0  0  0  0  0  0  0  0
   35.8120   31.7680   40.8870 H   0  0  0  0  0  0  0  0  0  0  0  0
   38.1940   30.3290   41.4490 O   0  0  0  0  0  0  0  0  0  0  0  0
   38.5160   32.6530   40.9090 C   0  0  1  0  0  3  0  0  0  0  0  0
   38.6570   31.2050   40.4910 C   0  0  1  0  0  3  0  0  0  0  0  0
   40.0450   31.0810   40.4410 O   0  0  0  0  0  0  0  0  0  0  0  0
   40.4230   32.1380   39.6190 C   0  0  0  0  0  2  0  0  0  0  0  0
   39.6030   33.3090   40.0600 C   0  0  2  0  0  3  0  0  0  0  0  0
   37.2730   33.0960   40.5350 O   0  0  0  0  0  0  0  0  0  0  0  0
   37.1170   34.0400   40.7270 H   0  0  0  0  0  0  0  0  0  0  0  0
   40.3160   34.2360   40.8160 O   0  0  0  0  0  0  0  0  0  0  0  0
   39.6310   34.7260   41.3650 H   0  0  0  0  0  0  0  0  0  0  0  0
  1 11  1  0  0  0  0
  1  5  1  0  0  0  0
  2  1  1  0  0  0  0
  3  2  2  0  0  0  0
  3  4  1  0  0  0  0
  4  8  1  0  0  0  0
  4  5  1  0  0  0  0
  5 23  1  0  0  0  0
  5 10  1  1  0  0  0
  6  2  1  0  0  0  0
  7  3  1  0  0  0  0
  9  4  1  0  0  0  0
 11 16  1  0  0  0  0
 12 11  1  0  0  0  0
 13 11  1  0  0  0  0
 14 19  1  0  0  0  0
 14 20  1  0  0  0  0
 15 14  2  0  0  0  0
 16 17  2  0  0  0  0
 16 15  1  0  0  0  0
 17 18  1  0  0  0  0
 18 22  1  0  0  0  0
 18 19  2  0  0  0  0
 21 15  1  0  0  0  0
 23 25  1  0  0  0  0
 25 26  1  0  0  0  0
 25 28  1  0  0  0  0
 25 24  2  1  0  0  0
 27 26  1  0  0  0  0
 29 34  1  6  0  0  0
 30 29  1  0  0  0  0
 30 28  1  1  0  0  0
 31 30  1  0  0  0  0
 32 33  1  0  0  0  0
 32 31  1  0  0  0  0
 33 36  1  1  0  0  0
 33 29  1  0  0  0  0
 34 35  1  0  0  0  0
 36 37  1  0  0  0  0
M  END
>  <minimizedAffinity>
-5.40215397

$$$$

 OpenBabel03252505003D

 37 39  0  0  1  0  0  0  0  0999 V2000
   36.7110   28.2410   38.8880 N   0  0  0  0  0  0  0  0  0  0  0  0
   37.3350   27.9840   37.6470 C   0  0  0  0  0  0  0  0  0  0  0  0
   36.5530   28.8120   36.7120 C   0  0  0  0  0  0  0  0  0  0  0  0
   35.5020   29.5740   37.4980 C   0  0  0  0  0  0  0  0  0  0  0  0
   36.0700   29.4920   38.9230 C   0  0  2  0  0  0  0  0  0  0  0  0
   38.1220   27.4260   37.2340 H   0  0  0  0  0  0  0  0  0  0  0  0
   36.6600   28.9370   35.6530 H   0  0  0  0  0  0  0  0  0  0  0  0
   35.5160   30.5950   37.1200 H   0  0  0  0  0  0  0  0  0  0  0  0
   34.5200   29.0710   37.4340 H   0  0  0  0  0  0  0  0  0  0  0  0
   35.3060   29.5910   39.6900 H   0  0  0  0  0  0  0  0  0  0  0  0
   36.7430   27.2940   39.8830 C   0  0  0  0  0  0  0  0  0  0  0  0
   37.1210   26.3450   39.4340 H   0  0  0  0  0  0  0  0  0  0  0  0
   35.7420   26.9870   40.2660 H   0  0  0  0  0  0  0  0  0  0  0  0
   37.8530   28.1550   43.4010 C   0  0  0  0  0  0  0  0  0  0  0  0
   36.9740   27.8300   42.3290 C   0  0  0  0  0  0  0  0  0  0  0  0
   37.5150   27.6550   41.0560 C   0  0  0  0  0  0  0  0  0  0  0  0
   38.8490   27.8080   40.9240 N   0  0  0  0  0  0  0  0  0  0  0  0
   39.6890   28.1230   41.9720 C   0  0  0  0  0  0  0  0  0  0  0  0
   39.1910   28.2940   43.1960 N   0  0  0  0  0  0  0  0  0  0  0  0
   37.3300   28.2690   44.3430 H   0  0  0  0  0  0  0  0  0  0  0  0
   35.9270   27.7190   42.4710 H   0  0  0  0  0  0  0  0  0  0  0  0
   40.7510   28.2270   41.7800 H   0  0  0  0  0  0  0  0  0  0  0  0
   37.0880   30.4570   38.9890 O   0  0  0  0  0  0  0  0  0  0  0  0
   36.0230   30.9710   41.3640 O   0  0  0  0  0  0  0  0  0  0  0  0
   37.1050   31.3510   40.3800 P   0  0  2  0  0  0  0  0  0  0  0  0
   36.8530   32.9790   39.9740 O   0  0  0  0  0  0  0  0  0  0  0  0
   37.6080   33.2690   39.3820 H   0  0  0  0  0  0  0  0  0  0  0  0
   38.6450   31.2880   41.1320 O   0  0  0  0  0  0  0  0  0  0  0  0
   39.4590   31.0300   38.8810 C   0  0  1  0  0  3  0  0  0  0  0  0
   39.6490   31.6360   40.2540 C   0  0  1  0  0  3  0  0  0  0  0  0
   39.5060   32.9920   39.9640 O   0  0  0  0  0  0  0  0  0  0  0  0
   40.4140   33.1860   38.9270 C   0  0  0  0  0  2  0  0  0  0  0  0
   40.2470   32.0120   38.0160 C   0  0  2  0  0  3  0  0  0  0  0  0
   40.0440   29.7890   38.8660 O   0  0  0  0  0  0  0  0  0  0  0  0
   40.0070   29.3470   37.9980 H   0  0  0  0  0  0  0  0  0  0  0  0
   39.5440   32.3050   36.8510 O   0  0  0  0  0  0  0  0  0  0  0  0
   39.1600   31.4310   36.5360 H   0  0  0  0  0  0  0  0  0  0  0  0
  1  5  1  0  0  0  0
  1 11  1  0  0  0  0
  2  1  1  0  0  0  0
  3  4  1  0  0  0  0
  3  2  2  0  0  0  0
  4  5  1  0  0  0  0
  5 23  1  0  0  0  0
  5 10  1  1  0  0  0
  6  2  1  0  0  0  0
  7  3  1  0  0  0  0
  8  4  1  0  0  0  0
  9  4  1  0  0  0  0
 11 13  1  0  0  0  0
 11 16  1  0  0  0  0
 12 11  1  0  0  0  0
 14 20  1  0  0  0  0
 15 21  1  0  0  0  0
 15 14  2  0  0  0  0
 16 15  1  0  0  0  0
 17 16  2  0  0  0  0
 17 18  1  0  0  0  0
 18 19  2  0  0  0  0
 19 14  1  0  0  0  0
 22 18  1  0  0  0  0
 23 25  1  0  0  0  0
 25 28  1  0  0  0  0
 25 24  2  1  0  0  0
 26 25  1  0  0  0  0
 27 26  1  0  0  0  0
 29 34  1  1  0  0  0
 29 30  1  0  0  0  0
 30 28  1  1  0  0  0
 31 30  1  0  0  0  0
 32 31  1  0  0  0  0
 33 36  1  6  0  0  0
 33 29  1  0  0  0  0
 33 32  1  0  0  0  0
 35 34  1  0  0  0  0
 37 36  1  0  0  0  0
M  END
>  <minimizedAffinity>
-5.33654308

$$$$

 OpenBabel03252505003D

 37 39  0  0  1  0  0  0  0  0999 V2000
   37.3470   30.0640   40.8710 N   0  0  0  0  0  0  0  0  0  0  0  0
   36.9490   29.6570   39.5790 C   0  0  0  0  0  0  0  0  0  0  0  0
   36.9890   30.9170   38.8140 C   0  0  0  0  0  0  0  0  0  0  0  0
   37.4720   32.0270   39.7310 C   0  0  0  0  0  0  0  0  0  0  0  0
   38.1440   31.2220   40.8540 C   0  0  2  0  0  0  0  0  0  0  0  0
   36.6600   28.7980   39.0500 H   0  0  0  0  0  0  0  0  0  0  0  0
   36.7620   31.1010   37.7840 H   0  0  0  0  0  0  0  0  0  0  0  0
   38.2000   32.6000   39.1600 H   0  0  0  0  0  0  0  0  0  0  0  0
   36.6220   32.6150   40.1190 H   0  0  0  0  0  0  0  0  0  0  0  0
   38.1820   31.7610   41.7970 H   0  0  0  0  0  0  0  0  0  0  0  0
   36.9180   29.3630   41.9740 C   0  0  0  0  0  0  0  0  0  0  0  0
   35.8520   29.0850   41.8040 H   0  0  0  0  0  0  0  0  0  0  0  0
   36.8550   29.9650   42.9110 H   0  0  0  0  0  0  0  0  0  0  0  0
   39.5840   27.0180   43.2930 C   0  0  0  0  0  0  0  0  0  0  0  0
   38.9240   28.2440   42.9980 C   0  0  0  0  0  0  0  0  0  0  0  0
   37.7100   28.1980   42.3130 C   0  0  0  0  0  0  0  0  0  0  0  0
   37.2380   26.9800   41.9720 N   0  0  0  0  0  0  0  0  0  0  0  0
   37.8890   25.8000   42.2650 C   0  0  0  0  0  0  0  0  0  0  0  0
   39.0500   25.8230   42.9190 N   0  0  0  0  0  0  0  0  0  0  0  0
   40.5160   27.1680   43.8250 H   0  0  0  0  0  0  0  0  0  0  0  0
   39.3270   29.1850   43.2820 H   0  0  0  0  0  0  0  0  0  0  0  0
   37.4400   24.8630   41.9550 H   0  0  0  0  0  0  0  0  0  0  0  0
   39.3970   30.8330   40.3550 O   0  0  0  0  0  0  0  0  0  0  0  0
   41.7520   30.2660   41.4370 O   0  0  0  0  0  0  0  0  0  0  0  0
   40.6870   31.3230   41.2660 P   0  0  2  0  0  0  0  0  0  0  0  0
   40.1270   31.7150   42.8190 O   0  0  0  0  0  0  0  0  0  0  0  0
   39.4750   32.4710   42.7300 H   0  0  0  0  0  0  0  0  0  0  0  0
   41.3710   32.7640   40.6370 O   0  0  0  0  0  0  0  0  0  0  0  0
   41.4900   32.9650   38.2410 C   0  0  1  0  0  3  0  0  0  0  0  0
   42.1470   32.5110   39.5260 C   0  0  1  0  0  3  0  0  0  0  0  0
   43.2460   33.3680   39.5740 O   0  0  0  0  0  0  0  0  0  0  0  0
   43.8360   33.1880   38.3270 C   0  0  0  0  0  2  0  0  0  0  0  0
   42.7090   33.1660   37.3440 C   0  0  2  0  0  3  0  0  0  0  0  0
   40.7020   31.9450   37.7690 O   0  0  0  0  0  0  0  0  0  0  0  0
   40.2760   32.1400   36.9140 H   0  0  0  0  0  0  0  0  0  0  0  0
   42.5850   34.3440   36.6120 O   0  0  0  0  0  0  0  0  0  0  0  0
   41.6270   34.3770   36.3080 H   0  0  0  0  0  0  0  0  0  0  0  0
  1 11  1  0  0  0  0
  2  1  1  0  0  0  0
  3  2  2  0  0  0  0
  3  4  1  0  0  0  0
  4  9  1  0  0  0  0
  4  5  1  0  0  0  0
  5  1  1  0  0  0  0
  5 10  1  1  0  0  0
  6  2  1  0  0  0  0
  7  3  1  0  0  0  0
  8  4  1  0  0  0  0
 11 16  1  0  0  0  0
 11 13  1  0  0  0  0
 12 11  1  0  0  0  0
 14 20  1  0  0  0  0
 15 21  1  0  0  0  0
 15 14  1  0  0  0  0
 16 15  2  0  0  0  0
 17 18  2  0  0  0  0
 17 16  1  0  0  0  0
 18 19  1  0  0  0  0
 19 14  2  0  0  0  0
 22 18  1  0  0  0  0
 23  5  1  0  0  0  0
 23 25  1  0  0  0  0
 25 24  2  1  0  0  0
 25 26  1  0  0  0  0
 27 26  1  0  0  0  0
 28 25  1  0  0  0  0
 29 34  1  6  0  0  0
 29 30  1  0  0  0  0
 30 31  1  0  0  0  0
 30 28  1  1  0  0  0
 32 31  1  0  0  0  0
 33 36  1  1  0  0  0
 33 29  1  0  0  0  0
 33 32  1  0  0  0  0
 35 34  1  0  0  0  0
 37 36  1  0  0  0  0
M  END
>  <minimizedAffinity>
-5.30236244

$$$$

 OpenBabel03252505003D

 37 39  0  0  1  0  0  0  0  0999 V2000
   37.8790   29.0280   38.4170 N   0  0  0  0  0  0  0  0  0  0  0  0
   37.8460   28.9770   37.0060 C   0  0  0  0  0  0  0  0  0  0  0  0
   36.4360   29.2830   36.7020 C   0  0  0  0  0  0  0  0  0  0  0  0
   35.7050   29.5530   38.0060 C   0  0  0  0  0  0  0  0  0  0  0  0
   36.8760   29.8550   38.9530 C   0  0  2  0  0  0  0  0  0  0  0  0
   38.4740   28.8010   36.1850 H   0  0  0  0  0  0  0  0  0  0  0  0
   35.9380   29.3540   35.7570 H   0  0  0  0  0  0  0  0  0  0  0  0
   35.0910   30.4350   37.8350 H   0  0  0  0  0  0  0  0  0  0  0  0
   35.1480   28.6590   38.3370 H   0  0  0  0  0  0  0  0  0  0  0  0
   36.6380   29.6620   39.9960 H   0  0  0  0  0  0  0  0  0  0  0  0
   38.8040   28.2830   39.1100 C   0  0  0  0  0  0  0  0  0  0  0  0
   39.5200   28.9930   39.5870 H   0  0  0  0  0  0  0  0  0  0  0  0
   39.4780   27.6670   38.4720 H   0  0  0  0  0  0  0  0  0  0  0  0
   37.7470   26.5730   42.3200 C   0  0  0  0  0  0  0  0  0  0  0  0
   38.3640   27.5330   41.4700 C   0  0  0  0  0  0  0  0  0  0  0  0
   38.2520   27.3690   40.0900 C   0  0  0  0  0  0  0  0  0  0  0  0
   37.5590   26.2980   39.6480 N   0  0  0  0  0  0  0  0  0  0  0  0
   36.9660   25.3750   40.4850 C   0  0  0  0  0  0  0  0  0  0  0  0
   37.0610   25.5150   41.8070 N   0  0  0  0  0  0  0  0  0  0  0  0
   37.8950   26.7960   43.3700 H   0  0  0  0  0  0  0  0  0  0  0  0
   38.9030   28.3650   41.8540 H   0  0  0  0  0  0  0  0  0  0  0  0
   36.4260   24.5420   40.0480 H   0  0  0  0  0  0  0  0  0  0  0  0
   37.2640   31.1760   38.6790 O   0  0  0  0  0  0  0  0  0  0  0  0
   38.0700   31.1370   41.2070 O   0  0  0  0  0  0  0  0  0  0  0  0
   37.9390   31.9780   39.9590 P   0  0  2  0  0  0  0  0  0  0  0  0
   36.9430   33.2940   40.3520 O   0  0  0  0  0  0  0  0  0  0  0  0
   36.9090   33.9030   39.5570 H   0  0  0  0  0  0  0  0  0  0  0  0
   39.4570   32.6510   39.5310 O   0  0  0  0  0  0  0  0  0  0  0  0
   40.6820   32.4390   37.4690 C   0  0  1  0  0  3  0  0  0  0  0  0
   40.1870   31.7880   38.7420 C   0  0  1  0  0  3  0  0  0  0  0  0
   41.3940   31.5380   39.3950 O   0  0  0  0  0  0  0  0  0  0  0  0
   42.1290   30.8470   38.4370 C   0  0  0  0  0  2  0  0  0  0  0  0
   41.8940   31.5670   37.1470 C   0  0  2  0  0  3  0  0  0  0  0  0
   39.7160   32.3050   36.5050 O   0  0  0  0  0  0  0  0  0  0  0  0
   39.9760   32.6590   35.6350 H   0  0  0  0  0  0  0  0  0  0  0  0
   42.9680   32.3580   36.7460 O   0  0  0  0  0  0  0  0  0  0  0  0
   42.5790   33.0610   36.1420 H   0  0  0  0  0  0  0  0  0  0  0  0
  1  5  1  0  0  0  0
  1 11  1  0  0  0  0
  2  1  1  0  0  0  0
  3  2  2  0  0  0  0
  3  4  1  0  0  0  0
  4  9  1  0  0  0  0
  4  5  1  0  0  0  0
  5 10  1  1  0  0  0
  6  2  1  0  0  0  0
  7  3  1  0  0  0  0
  8  4  1  0  0  0  0
 11 12  1  0  0  0  0
 11 16  1  0  0  0  0
 13 11  1  0  0  0  0
 14 20  1  0  0  0  0
 15 21  1  0  0  0  0
 15 14  2  0  0  0  0
 16 15  1  0  0  0  0
 17 16  2  0  0  0  0
 17 18  1  0  0  0  0
 18 19  2  0  0  0  0
 19 14  1  0  0  0  0
 22 18  1  0  0  0  0
 23  5  1  0  0  0  0
 23 25  1  0  0  0  0
 25 26  1  0  0  0  0
 25 24  2  1  0  0  0
 27 26  1  0  0  0  0
 28 25  1  0  0  0  0
 29 34  1  6  0  0  0
 29 30  1  0  0  0  0
 30 31  1  0  0  0  0
 30 28  1  1  0  0  0
 32 31  1  0  0  0  0
 33 36  1  1  0  0  0
 33 29  1  0  0  0  0
 33 32  1  0  0  0  0
 35 34  1  0  0  0  0
 37 36  1  0  0  0  0
M  END
>  <minimizedAffinity>
-5.28738356

$$$$

 OpenBabel03252505003D

 37 39  0  0  1  0  0  0  0  0999 V2000
   36.0550   27.9430   37.9360 N   0  0  0  0  0  0  0  0  0  0  0  0
   35.8700   28.4920   36.6490 C   0  0  0  0  0  0  0  0  0  0  0  0
   34.4700   28.9520   36.6890 C   0  0  0  0  0  0  0  0  0  0  0  0
   33.9070   28.6760   38.0720 C   0  0  0  0  0  0  0  0  0  0  0  0
   35.1930   28.5050   38.8950 C   0  0  2  0  0  0  0  0  0  0  0  0
   36.3910   28.6550   35.7520 H   0  0  0  0  0  0  0  0  0  0  0  0
   33.8850   29.4340   35.9330 H   0  0  0  0  0  0  0  0  0  0  0  0
   33.3610   29.5710   38.3650 H   0  0  0  0  0  0  0  0  0  0  0  0
   33.3090   27.7480   38.0750 H   0  0  0  0  0  0  0  0  0  0  0  0
   35.0480   27.9000   39.7860 H   0  0  0  0  0  0  0  0  0  0  0  0
   36.9760   26.9400   38.1300 C   0  0  0  0  0  0  0  0  0  0  0  0
   37.7950   27.3530   38.7650 H   0  0  0  0  0  0  0  0  0  0  0  0
   37.5270   26.6310   37.2120 H   0  0  0  0  0  0  0  0  0  0  0  0
   35.1580   23.6670   38.6980 C   0  0  0  0  0  0  0  0  0  0  0  0
   35.5770   24.8530   38.0320 C   0  0  0  0  0  0  0  0  0  0  0  0
   36.4460   25.7160   38.6980 C   0  0  0  0  0  0  0  0  0  0  0  0
   36.8350   25.3660   39.9420 N   0  0  0  0  0  0  0  0  0  0  0  0
   36.4210   24.2120   40.5740 C   0  0  0  0  0  0  0  0  0  0  0  0
   35.5900   23.3740   39.9540 N   0  0  0  0  0  0  0  0  0  0  0  0
   34.4850   23.0700   38.0930 H   0  0  0  0  0  0  0  0  0  0  0  0
   35.2490   25.0970   37.0510 H   0  0  0  0  0  0  0  0  0  0  0  0
   36.7810   24.0040   41.5750 H   0  0  0  0  0  0  0  0  0  0  0  0
   35.6690   29.8020   39.1420 O   0  0  0  0  0  0  0  0  0  0  0  0
   36.3790   28.7650   41.4790 O   0  0  0  0  0  0  0  0  0  0  0  0
   36.4090   29.9990   40.6080 P   0  0  2  0  0  0  0  0  0  0  0  0
   35.5970   31.2230   41.4580 O   0  0  0  0  0  0  0  0  0  0  0  0
   35.6760   32.0700   40.9280 H   0  0  0  0  0  0  0  0  0  0  0  0
   38.0200   30.5530   40.4140 O   0  0  0  0  0  0  0  0  0  0  0  0
   39.5550   32.3980   40.6070 C   0  0  1  0  0  3  0  0  0  0  0  0
   38.1320   31.8950   40.7110 C   0  0  1  0  0  3  0  0  0  0  0  0
   37.5250   32.6090   39.6790 O   0  0  0  0  0  0  0  0  0  0  0  0
   37.8770   33.9250   39.9610 C   0  0  0  0  0  2  0  0  0  0  0  0
   39.3210   33.8850   40.3500 C   0  0  2  0  0  3  0  0  0  0  0  0
   40.1760   32.2050   41.8150 O   0  0  0  0  0  0  0  0  0  0  0  0
   41.0890   32.5470   41.8470 H   0  0  0  0  0  0  0  0  0  0  0  0
   40.1780   34.3460   39.3550 O   0  0  0  0  0  0  0  0  0  0  0  0
   41.0700   33.9220   39.5430 H   0  0  0  0  0  0  0  0  0  0  0  0
  1 11  1  0  0  0  0
  1  5  1  0  0  0  0
  2  3  2  0  0  0  0
  2  1  1  0  0  0  0
  3  4  1  0  0  0  0
  4  9  1  0  0  0  0
  4  8  1  0  0  0  0
  4  5  1  0  0  0  0
  5 23  1  0  0  0  0
  5 10  1  1  0  0  0
  6  2  1  0  0  0  0
  7  3  1  0  0  0  0
 11 16  1  0  0  0  0
 11 12  1  0  0  0  0
 13 11  1  0  0  0  0
 14 19  1  0  0  0  0
 15 14  2  0  0  0  0
 15 16  1  0  0  0  0
 16 17  2  0  0  0  0
 17 18  1  0  0  0  0
 18 22  1  0  0  0  0
 19 18  2  0  0  0  0
 20 14  1  0  0  0  0
 21 15  1  0  0  0  0
 23 25  1  0  0  0  0
 25 26  1  0  0  0  0
 25 24  2  1  0  0  0
 27 26  1  0  0  0  0
 28 25  1  0  0  0  0
 29 30  1  0  0  0  0
 29 34  1  1  0  0  0
 30 28  1  6  0  0  0
 31 32  1  0  0  0  0
 31 30  1  0  0  0  0
 32 33  1  0  0  0  0
 33 36  1  6  0  0  0
 33 29  1  0  0  0  0
 34 35  1  0  0  0  0
 36 37  1  0  0  0  0
M  END
>  <minimizedAffinity>
-5.22714567

$$$$

 OpenBabel03252505003D

 37 39  0  0  1  0  0  0  0  0999 V2000
   37.5910   27.8180   41.4800 N   0  0  0  0  0  0  0  0  0  0  0  0
   36.4720   27.9160   42.3360 C   0  0  0  0  0  0  0  0  0  0  0  0
   37.0860   27.9200   43.6760 C   0  0  0  0  0  0  0  0  0  0  0  0
   38.5950   27.8690   43.5190 C   0  0  0  0  0  0  0  0  0  0  0  0
   38.7650   28.3270   42.0630 C   0  0  2  0  0  0  0  0  0  0  0  0
   35.4250   27.9820   42.3000 H   0  0  0  0  0  0  0  0  0  0  0  0
   36.6250   27.9770   44.6410 H   0  0  0  0  0  0  0  0  0  0  0  0
   39.0000   28.5980   44.2180 H   0  0  0  0  0  0  0  0  0  0  0  0
   38.9710   26.8390   43.6570 H   0  0  0  0  0  0  0  0  0  0  0  0
   39.6880   27.9710   41.6120 H   0  0  0  0  0  0  0  0  0  0  0  0
   37.4610   27.2360   40.2410 C   0  0  0  0  0  0  0  0  0  0  0  0
   38.1530   27.7650   39.5450 H   0  0  0  0  0  0  0  0  0  0  0  0
   36.4720   27.3980   39.7530 H   0  0  0  0  0  0  0  0  0  0  0  0
   39.0120   23.7850   40.0680 C   0  0  0  0  0  0  0  0  0  0  0  0
   38.9340   25.2060   40.0560 C   0  0  0  0  0  0  0  0  0  0  0  0
   37.6830   25.8040   40.2050 C   0  0  0  0  0  0  0  0  0  0  0  0
   36.6190   24.9860   40.3510 N   0  0  0  0  0  0  0  0  0  0  0  0
   36.7100   23.6100   40.3610 C   0  0  0  0  0  0  0  0  0  0  0  0
   37.8970   23.0190   40.2200 N   0  0  0  0  0  0  0  0  0  0  0  0
   40.0270   23.4260   39.9440 H   0  0  0  0  0  0  0  0  0  0  0  0
   39.7940   25.8190   39.9380 H   0  0  0  0  0  0  0  0  0  0  0  0
   35.8060   23.0250   40.4830 H   0  0  0  0  0  0  0  0  0  0  0  0
   38.6260   29.7240   42.0790 O   0  0  0  0  0  0  0  0  0  0  0  0
   41.2430   30.1350   42.2290 O   0  0  0  0  0  0  0  0  0  0  0  0
   39.9570   30.5570   41.5580 P   0  0  2  0  0  0  0  0  0  0  0  0
   39.7320   32.2010   41.9130 O   0  0  0  0  0  0  0  0  0  0  0  0
   38.9240   32.5160   41.4110 H   0  0  0  0  0  0  0  0  0  0  0  0
   40.1130   30.4620   39.8540 O   0  0  0  0  0  0  0  0  0  0  0  0
   39.0810   32.0740   38.3930 C   0  0  1  0  0  3  0  0  0  0  0  0
   38.9410   30.8140   39.2190 C   0  0  1  0  0  3  0  0  0  0  0  0
   38.7020   29.8720   38.2190 O   0  0  0  0  0  0  0  0  0  0  0  0
   37.6390   30.4280   37.5150 C   0  0  0  0  0  2  0  0  0  0  0  0
   37.9610   31.8810   37.3730 C   0  0  2  0  0  3  0  0  0  0  0  0
   38.8250   33.1550   39.1980 O   0  0  0  0  0  0  0  0  0  0  0  0
   38.8480   34.0100   38.7300 H   0  0  0  0  0  0  0  0  0  0  0  0
   38.4000   32.2330   36.0990 O   0  0  0  0  0  0  0  0  0  0  0  0
   38.9400   33.0720   36.2180 H   0  0  0  0  0  0  0  0  0  0  0  0
  1  5  1  0  0  0  0
  1  2  1  0  0  0  0
  2  3  2  0  0  0  0
  3  7  1  0  0  0  0
  4  9  1  0  0  0  0
  4  3  1  0  0  0  0
  4  8  1  0  0  0  0
  5 10  1  6  0  0  0
  5 23  1  0  0  0  0
  5  4  1  0  0  0  0
  6  2  1  0  0  0  0
 11  1  1  0  0  0  0
 12 11  1  0  0  0  0
 13 11  1  0  0  0  0
 14 19  1  0  0  0  0
 15 14  2  0  0  0  0
 15 16  1  0  0  0  0
 16 11  1  0  0  0  0
 16 17  2  0  0  0  0
 17 18  1  0  0  0  0
 18 22  1  0  0  0  0
 19 18  2  0  0  0  0
 20 14  1  0  0  0  0
 21 15  1  0  0  0  0
 25 26  1  0  0  0  0
 25 23  1  0  0  0  0
 25 24  2  1  0  0  0
 27 26  1  0  0  0  0
 28 25  1  0  0  0  0
 29 34  1  1  0  0  0
 29 30  1  0  0  0  0
 30 28  1  6  0  0  0
 31 30  1  0  0  0  0
 32 31  1  0  0  0  0
 33 36  1  6  0  0  0
 33 32  1  0  0  0  0
 33 29  1  0  0  0  0
 35 34  1  0  0  0  0
 36 37  1  0  0  0  0
M  END
>  <minimizedAffinity>
-5.15669727

$$$$
