
 OpenBabel03242521093D

 40 43  0  0  1  0  0  0  0  0999 V2000
   37.0980   32.1170   40.3620 C   0  0  2  0  0  0  0  0  0  0  0  0
   37.3160   32.3720   38.9190 C   0  0  0  0  0  0  0  0  0  0  0  0
   38.4020   32.6180   39.9710 C   0  0  1  0  0  0  0  0  0  0  0  0
   36.4430   32.8760   40.8950 H   0  0  0  0  0  0  0  0  0  0  0  0
   36.9060   33.3060   38.4880 H   0  0  0  0  0  0  0  0  0  0  0  0
   37.4270   31.5610   38.1970 H   0  0  0  0  0  0  0  0  0  0  0  0
   39.2840   31.9950   39.7320 H   0  0  0  0  0  0  0  0  0  0  0  0
   37.7970   28.8330   41.8780 C   0  0  0  0  0  0  0  0  0  0  0  0
   36.6090   28.2160   41.5370 C   0  0  0  0  0  0  0  0  0  0  0  0
   35.5800   28.8080   40.8380 C   0  0  0  0  0  0  0  0  0  0  0  0
   35.7460   30.1250   40.4450 C   0  0  0  0  0  0  0  0  0  0  0  0
   36.9290   30.7160   40.7930 C   0  0  0  0  0  0  0  0  0  0  0  0
   37.8880   30.1010   41.4670 N   0  0  0  0  0  0  0  0  0  0  0  0
   36.4600   27.1730   41.8390 H   0  0  0  0  0  0  0  0  0  0  0  0
   34.6730   28.2360   40.6140 H   0  0  0  0  0  0  0  0  0  0  0  0
   34.9440   30.5900   39.8990 H   0  0  0  0  0  0  0  0  0  0  0  0
   39.8080   26.4830   44.0230 C   0  0  0  0  0  0  0  0  0  0  0  0
   38.6880   27.0010   43.3670 C   0  0  0  0  0  0  0  0  0  0  0  0
   38.8580   28.1580   42.6250 C   0  0  0  0  0  0  0  0  0  0  0  0
   40.0810   28.7250   42.5680 N   0  0  0  0  0  0  0  0  0  0  0  0
   41.1530   28.1840   43.2260 C   0  0  0  0  0  0  0  0  0  0  0  0
   40.9980   27.0750   43.9400 N   0  0  0  0  0  0  0  0  0  0  0  0
   39.5960   25.5690   44.5890 H   0  0  0  0  0  0  0  0  0  0  0  0
   37.7000   26.5720   43.3940 H   0  0  0  0  0  0  0  0  0  0  0  0
   42.1170   28.6920   43.1390 H   0  0  0  0  0  0  0  0  0  0  0  0
   38.7440   33.9640   40.1840 O   0  0  0  0  0  0  0  0  0  0  0  0
   40.5710   35.6480   40.7790 O   0  0  0  0  0  0  0  0  0  0  0  0
   40.4080   34.2200   40.2420 P   0  0  1  0  0  0  0  0  0  0  0  0
   41.1230   33.2010   41.3590 O   0  0  0  0  0  0  0  0  0  0  0  0
   42.0520   33.0370   41.0580 H   0  0  0  0  0  0  0  0  0  0  0  0
   41.1610   34.2130   38.7420 O   0  0  0  0  0  0  0  0  0  0  0  0
   42.9220   33.3520   37.3520 C   0  0  2  0  0  3  0  0  0  0  0  0
   42.3240   33.4480   38.7320 C   0  0  1  0  0  3  0  0  0  0  0  0
   43.2880   33.9310   39.5780 O   0  0  0  0  0  0  0  0  0  0  0  0
   44.4990   33.9880   38.9450 C   0  0  0  0  0  2  0  0  0  0  0  0
   44.3930   33.1750   37.6720 C   0  0  2  0  0  3  0  0  0  0  0  0
   42.7060   34.4700   36.5810 O   0  0  0  0  0  0  0  0  0  0  0  0
   42.5700   35.2940   37.0940 H   0  0  0  0  0  0  0  0  0  0  0  0
   45.2070   33.6730   36.6660 O   0  0  0  0  0  0  0  0  0  0  0  0
   45.6770   34.4690   37.0430 H   0  0  0  0  0  0  0  0  0  0  0  0
  1 12  1  0  0  0  0
  1  4  1  1  0  0  0
  2  3  1  0  0  0  0
  2  1  1  0  0  0  0
  3  7  1  1  0  0  0
  3 26  1  0  0  0  0
  3  1  1  0  0  0  0
  5  2  1  0  0  0  0
  6  2  1  0  0  0  0
  8 19  1  0  0  0  0
  9 14  1  0  0  0  0
  9  8  1  0  0  0  0
 10  9  2  0  0  0  0
 11 12  2  0  0  0  0
 11 10  1  0  0  0  0
 12 13  1  0  0  0  0
 13  8  2  0  0  0  0
 15 10  1  0  0  0  0
 16 11  1  0  0  0  0
 17 23  1  0  0  0  0
 18 24  1  0  0  0  0
 18 17  2  0  0  0  0
 19 18  1  0  0  0  0
 20 19  2  0  0  0  0
 20 21  1  0  0  0  0
 21 22  2  0  0  0  0
 22 17  1  0  0  0  0
 25 21  1  0  0  0  0
 26 28  1  0  0  0  0
 28 27  2  1  0  0  0
 28 29  1  0  0  0  0
 30 29  1  0  0  0  0
 31 28  1  0  0  0  0
 32 37  1  6  0  0  0
 32 36  1  0  0  0  0
 32 33  1  0  0  0  0
 33 31  1  6  0  0  0
 33 34  1  0  0  0  0
 35 34  1  0  0  0  0
 36 39  1  6  0  0  0
 36 35  1  0  0  0  0
 37 38  1  0  0  0  0
 39 40  1  0  0  0  0
M  END
>  <minimizedAffinity>
-7.31810713

$$$$

 OpenBabel03242521093D

 40 43  0  0  1  0  0  0  0  0999 V2000
   36.6370   28.7220   39.9640 C   0  0  2  0  0  0  0  0  0  0  0  0
   35.2580   28.7940   40.5020 C   0  0  0  0  0  0  0  0  0  0  0  0
   36.4960   28.9030   41.3970 C   0  0  1  0  0  0  0  0  0  0  0  0
   36.9820   27.6870   39.6530 H   0  0  0  0  0  0  0  0  0  0  0  0
   34.7030   27.8460   40.6390 H   0  0  0  0  0  0  0  0  0  0  0  0
   34.6190   29.6640   40.3450 H   0  0  0  0  0  0  0  0  0  0  0  0
   36.4780   29.8760   41.9220 H   0  0  0  0  0  0  0  0  0  0  0  0
   38.1800   31.8960   38.9100 C   0  0  0  0  0  0  0  0  0  0  0  0
   37.8940   31.8010   37.5620 C   0  0  0  0  0  0  0  0  0  0  0  0
   37.2240   30.7560   36.9660 C   0  0  0  0  0  0  0  0  0  0  0  0
   36.8030   29.7180   37.7770 C   0  0  0  0  0  0  0  0  0  0  0  0
   37.0970   29.8310   39.1080 C   0  0  0  0  0  0  0  0  0  0  0  0
   37.7450   30.8590   39.6320 N   0  0  0  0  0  0  0  0  0  0  0  0
   38.2200   32.6150   36.9040 H   0  0  0  0  0  0  0  0  0  0  0  0
   37.0440   30.7710   35.8840 H   0  0  0  0  0  0  0  0  0  0  0  0
   36.2810   28.9000   37.3130 H   0  0  0  0  0  0  0  0  0  0  0  0
   39.1280   35.1520   40.5440 C   0  0  0  0  0  0  0  0  0  0  0  0
   38.2960   34.1570   40.0240 C   0  0  0  0  0  0  0  0  0  0  0  0
   38.8990   33.0300   39.4940 C   0  0  0  0  0  0  0  0  0  0  0  0
   40.2450   32.9420   39.5030 N   0  0  0  0  0  0  0  0  0  0  0  0
   41.0240   33.9400   40.0220 C   0  0  0  0  0  0  0  0  0  0  0  0
   40.4540   35.0250   40.5330 N   0  0  0  0  0  0  0  0  0  0  0  0
   38.5810   36.0130   40.9450 H   0  0  0  0  0  0  0  0  0  0  0  0
   37.2190   34.1990   40.0020 H   0  0  0  0  0  0  0  0  0  0  0  0
   42.1090   33.8070   39.9990 H   0  0  0  0  0  0  0  0  0  0  0  0
   36.7040   27.8280   42.2770 O   0  0  0  0  0  0  0  0  0  0  0  0
   38.3940   29.4830   43.2420 O   0  0  0  0  0  0  0  0  0  0  0  0
   37.5600   28.2640   43.6600 P   0  0  1  0  0  0  0  0  0  0  0  0
   36.5160   28.7840   44.8600 O   0  0  0  0  0  0  0  0  0  0  0  0
   36.9450   28.5880   45.7300 H   0  0  0  0  0  0  0  0  0  0  0  0
   38.6680   27.1160   44.1790 O   0  0  0  0  0  0  0  0  0  0  0  0
   40.8370   26.5060   43.3440 C   0  0  2  0  0  3  0  0  0  0  0  0
   39.3470   26.5140   43.1230 C   0  0  1  0  0  3  0  0  0  0  0  0
   38.9470   25.2220   42.8980 O   0  0  0  0  0  0  0  0  0  0  0  0
   40.0300   24.3980   42.7650 C   0  0  0  0  0  2  0  0  0  0  0  0
   41.2520   25.2710   42.5690 C   0  0  2  0  0  3  0  0  0  0  0  0
   41.1950   26.4120   44.6690 O   0  0  0  0  0  0  0  0  0  0  0  0
   40.5260   25.9780   45.2380 H   0  0  0  0  0  0  0  0  0  0  0  0
   42.3980   24.6900   43.0920 O   0  0  0  0  0  0  0  0  0  0  0  0
   42.1240   23.8120   43.4800 H   0  0  0  0  0  0  0  0  0  0  0  0
  1  4  1  6  0  0  0
  1  2  1  0  0  0  0
  1  3  1  0  0  0  0
  2  5  1  0  0  0  0
  2  3  1  0  0  0  0
  3  7  1  1  0  0  0
  3 26  1  0  0  0  0
  6  2  1  0  0  0  0
  8 19  1  0  0  0  0
  8 13  1  0  0  0  0
  9  8  2  0  0  0  0
 10  9  1  0  0  0  0
 10 11  2  0  0  0  0
 11 12  1  0  0  0  0
 12 13  2  0  0  0  0
 12  1  1  0  0  0  0
 14  9  1  0  0  0  0
 15 10  1  0  0  0  0
 16 11  1  0  0  0  0
 17 23  1  0  0  0  0
 18 17  2  0  0  0  0
 19 20  2  0  0  0  0
 19 18  1  0  0  0  0
 20 21  1  0  0  0  0
 21 22  2  0  0  0  0
 22 17  1  0  0  0  0
 24 18  1  0  0  0  0
 25 21  1  0  0  0  0
 26 28  1  0  0  0  0
 28 27  2  6  0  0  0
 28 31  1  0  0  0  0
 28 29  1  0  0  0  0
 29 30  1  0  0  0  0
 32 37  1  1  0  0  0
 33 32  1  0  0  0  0
 33 31  1  1  0  0  0
 34 33  1  0  0  0  0
 35 34  1  0  0  0  0
 36 35  1  0  0  0  0
 36 39  1  1  0  0  0
 36 32  1  0  0  0  0
 37 38  1  0  0  0  0
 39 40  1  0  0  0  0
M  END
>  <minimizedAffinity>
-7.10136032

$$$$

 OpenBabel03242521093D

 40 43  0  0  1  0  0  0  0  0999 V2000
   36.4860   29.9930   41.6170 C   0  0  2  0  0  0  0  0  0  0  0  0
   35.7480   29.9460   40.3340 C   0  0  0  0  0  0  0  0  0  0  0  0
   37.0080   30.7950   40.5270 C   0  0  1  0  0  0  0  0  0  0  0  0
   35.9870   30.5900   42.4420 H   0  0  0  0  0  0  0  0  0  0  0  0
   34.8260   30.5510   40.2420 H   0  0  0  0  0  0  0  0  0  0  0  0
   35.7720   29.0710   39.6820 H   0  0  0  0  0  0  0  0  0  0  0  0
   37.7780   30.4680   39.8010 H   0  0  0  0  0  0  0  0  0  0  0  0
   37.5850   26.4800   41.7670 C   0  0  0  0  0  0  0  0  0  0  0  0
   38.4310   26.5980   42.8530 C   0  0  0  0  0  0  0  0  0  0  0  0
   38.6710   27.7620   43.5480 C   0  0  0  0  0  0  0  0  0  0  0  0
   38.0160   28.9070   43.1280 C   0  0  0  0  0  0  0  0  0  0  0  0
   37.1840   28.7680   42.0510 C   0  0  0  0  0  0  0  0  0  0  0  0
   36.9880   27.6230   41.4180 N   0  0  0  0  0  0  0  0  0  0  0  0
   38.9580   25.7010   43.2000 H   0  0  0  0  0  0  0  0  0  0  0  0
   39.3620   27.7560   44.3990 H   0  0  0  0  0  0  0  0  0  0  0  0
   38.2030   29.8180   43.6680 H   0  0  0  0  0  0  0  0  0  0  0  0
   37.6600   22.8990   40.6080 C   0  0  0  0  0  0  0  0  0  0  0  0
   37.9790   24.0170   41.3830 C   0  0  0  0  0  0  0  0  0  0  0  0
   37.3660   25.2170   41.0620 C   0  0  0  0  0  0  0  0  0  0  0  0
   36.5000   25.2520   40.0290 N   0  0  0  0  0  0  0  0  0  0  0  0
   36.2140   24.1340   39.2940 C   0  0  0  0  0  0  0  0  0  0  0  0
   36.7970   22.9790   39.5950 N   0  0  0  0  0  0  0  0  0  0  0  0
   38.1830   21.9890   40.9200 H   0  0  0  0  0  0  0  0  0  0  0  0
   38.6670   24.0200   42.2130 H   0  0  0  0  0  0  0  0  0  0  0  0
   35.5020   24.2300   38.4700 H   0  0  0  0  0  0  0  0  0  0  0  0
   36.8120   32.1850   40.5040 O   0  0  0  0  0  0  0  0  0  0  0  0
   37.7620   34.3260   39.4850 O   0  0  0  0  0  0  0  0  0  0  0  0
   38.2260   33.0450   40.1910 P   0  0  1  0  0  0  0  0  0  0  0  0
   38.9550   33.5220   41.6200 O   0  0  0  0  0  0  0  0  0  0  0  0
   39.9280   33.5870   41.4480 H   0  0  0  0  0  0  0  0  0  0  0  0
   39.2720   32.2910   39.1170 O   0  0  0  0  0  0  0  0  0  0  0  0
   41.3030   32.6540   37.8860 C   0  0  2  0  0  3  0  0  0  0  0  0
   40.5690   32.7920   39.1940 C   0  0  1  0  0  3  0  0  0  0  0  0
   40.6100   34.1110   39.5650 O   0  0  0  0  0  0  0  0  0  0  0  0
   41.4440   34.8170   38.7420 C   0  0  0  0  0  2  0  0  0  0  0  0
   42.2700   33.8190   37.9580 C   0  0  2  0  0  3  0  0  0  0  0  0
   40.4850   32.7470   36.7840 O   0  0  0  0  0  0  0  0  0  0  0  0
   39.6650   33.2630   36.9330 H   0  0  0  0  0  0  0  0  0  0  0  0
   42.6050   34.2950   36.6990 O   0  0  0  0  0  0  0  0  0  0  0  0
   42.2060   35.2070   36.6200 H   0  0  0  0  0  0  0  0  0  0  0  0
  1 12  1  0  0  0  0
  1  4  1  1  0  0  0
  2  3  1  0  0  0  0
  2  1  1  0  0  0  0
  3  7  1  6  0  0  0
  3  1  1  0  0  0  0
  5  2  1  0  0  0  0
  6  2  1  0  0  0  0
  8  9  1  0  0  0  0
  9 14  1  0  0  0  0
  9 10  2  0  0  0  0
 10 15  1  0  0  0  0
 11 10  1  0  0  0  0
 11 16  1  0  0  0  0
 12 11  2  0  0  0  0
 13  8  2  0  0  0  0
 13 12  1  0  0  0  0
 17 23  1  0  0  0  0
 17 18  1  0  0  0  0
 18 24  1  0  0  0  0
 19 18  2  0  0  0  0
 19  8  1  0  0  0  0
 20 19  1  0  0  0  0
 21 22  1  0  0  0  0
 21 20  2  0  0  0  0
 22 17  2  0  0  0  0
 25 21  1  0  0  0  0
 26  3  1  0  0  0  0
 28 27  2  6  0  0  0
 28 26  1  0  0  0  0
 28 29  1  0  0  0  0
 30 29  1  0  0  0  0
 31 28  1  0  0  0  0
 32 37  1  6  0  0  0
 32 36  1  0  0  0  0
 32 33  1  0  0  0  0
 33 31  1  6  0  0  0
 33 34  1  0  0  0  0
 35 34  1  0  0  0  0
 36 39  1  6  0  0  0
 36 35  1  0  0  0  0
 37 38  1  0  0  0  0
 40 39  1  0  0  0  0
M  END
>  <minimizedAffinity>
-7.07566595

$$$$

 OpenBabel03242521093D

 40 43  0  0  1  0  0  0  0  0999 V2000
   36.7010   29.8370   41.3600 C   0  0  2  0  0  0  0  0  0  0  0  0
   36.5710   29.9230   39.8870 C   0  0  0  0  0  0  0  0  0  0  0  0
   37.4820   30.8580   40.6880 C   0  0  1  0  0  0  0  0  0  0  0  0
   35.8160   30.2340   41.9480 H   0  0  0  0  0  0  0  0  0  0  0  0
   35.6800   30.4330   39.4720 H   0  0  0  0  0  0  0  0  0  0  0  0
   37.0050   29.1740   39.2220 H   0  0  0  0  0  0  0  0  0  0  0  0
   38.5240   30.7390   40.3330 H   0  0  0  0  0  0  0  0  0  0  0  0
   39.2450   27.6480   42.8790 C   0  0  0  0  0  0  0  0  0  0  0  0
   38.4970   26.4870   42.9050 C   0  0  0  0  0  0  0  0  0  0  0  0
   37.2000   26.3690   42.4570 C   0  0  0  0  0  0  0  0  0  0  0  0
   36.5950   27.5010   41.9390 C   0  0  0  0  0  0  0  0  0  0  0  0
   37.3540   28.6390   41.9220 C   0  0  0  0  0  0  0  0  0  0  0  0
   38.5990   28.6990   42.3660 N   0  0  0  0  0  0  0  0  0  0  0  0
   38.9600   25.5810   43.3130 H   0  0  0  0  0  0  0  0  0  0  0  0
   36.6870   25.4030   42.5210 H   0  0  0  0  0  0  0  0  0  0  0  0
   35.5820   27.4120   41.5890 H   0  0  0  0  0  0  0  0  0  0  0  0
   42.5150   27.0430   44.6430 C   0  0  0  0  0  0  0  0  0  0  0  0
   41.1840   26.8340   44.2740 C   0  0  0  0  0  0  0  0  0  0  0  0
   40.6220   27.7200   43.3700 C   0  0  0  0  0  0  0  0  0  0  0  0
   41.3740   28.7310   42.8920 N   0  0  0  0  0  0  0  0  0  0  0  0
   42.6760   28.9010   43.2780 C   0  0  0  0  0  0  0  0  0  0  0  0
   43.2230   28.0560   44.1450 N   0  0  0  0  0  0  0  0  0  0  0  0
   42.8900   26.3050   45.3600 H   0  0  0  0  0  0  0  0  0  0  0  0
   40.5570   26.0370   44.6400 H   0  0  0  0  0  0  0  0  0  0  0  0
   43.2320   29.7400   42.8520 H   0  0  0  0  0  0  0  0  0  0  0  0
   37.0840   32.2040   40.7270 O   0  0  0  0  0  0  0  0  0  0  0  0
   37.5820   34.4240   39.5650 O   0  0  0  0  0  0  0  0  0  0  0  0
   38.3070   33.2670   40.2650 P   0  0  1  0  0  0  0  0  0  0  0  0
   39.0640   33.9160   41.6080 O   0  0  0  0  0  0  0  0  0  0  0  0
   39.9950   34.1300   41.3480 H   0  0  0  0  0  0  0  0  0  0  0  0
   39.3690   32.6440   39.1240 O   0  0  0  0  0  0  0  0  0  0  0  0
   41.4850   32.9090   38.0150 C   0  0  2  0  0  3  0  0  0  0  0  0
   40.6490   33.1800   39.2390 C   0  0  1  0  0  3  0  0  0  0  0  0
   40.6440   34.5350   39.4550 O   0  0  0  0  0  0  0  0  0  0  0  0
   41.5280   35.1590   38.6200 C   0  0  0  0  0  2  0  0  0  0  0  0
   42.4260   34.0970   38.0220 C   0  0  2  0  0  3  0  0  0  0  0  0
   40.7520   32.8550   36.8520 O   0  0  0  0  0  0  0  0  0  0  0  0
   39.9160   33.3650   36.8770 H   0  0  0  0  0  0  0  0  0  0  0  0
   42.8510   34.4310   36.7440 O   0  0  0  0  0  0  0  0  0  0  0  0
   42.4460   35.3180   36.5300 H   0  0  0  0  0  0  0  0  0  0  0  0
  1 12  1  0  0  0  0
  1  4  1  1  0  0  0
  2  3  1  0  0  0  0
  2  1  1  0  0  0  0
  3  7  1  6  0  0  0
  3 26  1  0  0  0  0
  3  1  1  0  0  0  0
  5  2  1  0  0  0  0
  6  2  1  0  0  0  0
  8  9  1  0  0  0  0
  8 19  1  0  0  0  0
  9 14  1  0  0  0  0
 10 15  1  0  0  0  0
 10  9  2  0  0  0  0
 11 10  1  0  0  0  0
 12 11  2  0  0  0  0
 12 13  1  0  0  0  0
 13  8  2  0  0  0  0
 16 11  1  0  0  0  0
 17 23  1  0  0  0  0
 18 24  1  0  0  0  0
 18 17  1  0  0  0  0
 19 18  2  0  0  0  0
 20 21  2  0  0  0  0
 20 19  1  0  0  0  0
 21 22  1  0  0  0  0
 22 17  2  0  0  0  0
 25 21  1  0  0  0  0
 28 27  2  6  0  0  0
 28 26  1  0  0  0  0
 28 29  1  0  0  0  0
 30 29  1  0  0  0  0
 31 28  1  0  0  0  0
 32 37  1  6  0  0  0
 32 36  1  0  0  0  0
 32 33  1  0  0  0  0
 33 31  1  6  0  0  0
 33 34  1  0  0  0  0
 35 34  1  0  0  0  0
 36 39  1  6  0  0  0
 36 35  1  0  0  0  0
 37 38  1  0  0  0  0
 40 39  1  0  0  0  0
M  END
>  <minimizedAffinity>
-6.99362469

$$$$

 OpenBabel03242521093D

 40 43  0  0  1  0  0  0  0  0999 V2000
   38.4240   28.1190   43.3200 C   0  0  2  0  0  0  0  0  0  0  0  0
   37.1110   28.3740   43.9600 C   0  0  0  0  0  0  0  0  0  0  0  0
   37.4000   28.7430   42.5020 C   0  0  1  0  0  0  0  0  0  0  0  0
   39.2600   28.8160   43.6380 H   0  0  0  0  0  0  0  0  0  0  0  0
   37.0180   29.2550   44.6220 H   0  0  0  0  0  0  0  0  0  0  0  0
   36.4140   27.5670   44.1920 H   0  0  0  0  0  0  0  0  0  0  0  0
   36.6890   28.2070   41.8460 H   0  0  0  0  0  0  0  0  0  0  0  0
   38.4360   24.6770   42.0080 C   0  0  0  0  0  0  0  0  0  0  0  0
   39.5260   24.2130   42.7190 C   0  0  0  0  0  0  0  0  0  0  0  0
   40.2680   24.9580   43.6080 C   0  0  0  0  0  0  0  0  0  0  0  0
   39.8960   26.2760   43.8070 C   0  0  0  0  0  0  0  0  0  0  0  0
   38.8150   26.7150   43.0940 C   0  0  0  0  0  0  0  0  0  0  0  0
   38.1350   25.9560   42.2500 N   0  0  0  0  0  0  0  0  0  0  0  0
   39.8340   23.1710   42.5740 H   0  0  0  0  0  0  0  0  0  0  0  0
   41.1190   24.5000   44.1260 H   0  0  0  0  0  0  0  0  0  0  0  0
   40.4750   26.8610   44.5010 H   0  0  0  0  0  0  0  0  0  0  0  0
   35.8210   23.2170   39.7280 C   0  0  0  0  0  0  0  0  0  0  0  0
   36.4020   24.1190   40.6230 C   0  0  0  0  0  0  0  0  0  0  0  0
   37.6820   23.8420   41.0720 C   0  0  0  0  0  0  0  0  0  0  0  0
   38.3040   22.7300   40.6310 N   0  0  0  0  0  0  0  0  0  0  0  0
   37.7000   21.8720   39.7530 C   0  0  0  0  0  0  0  0  0  0  0  0
   36.4720   22.1290   39.3170 N   0  0  0  0  0  0  0  0  0  0  0  0
   34.8090   23.5010   39.4180 H   0  0  0  0  0  0  0  0  0  0  0  0
   35.9310   25.0140   40.9940 H   0  0  0  0  0  0  0  0  0  0  0  0
   38.2580   20.9870   39.4330 H   0  0  0  0  0  0  0  0  0  0  0  0
   37.4470   30.1190   42.2230 O   0  0  0  0  0  0  0  0  0  0  0  0
   35.4010   29.7900   40.7300 O   0  0  0  0  0  0  0  0  0  0  0  0
   36.7530   30.5150   40.7410 P   0  0  1  0  0  0  0  0  0  0  0  0
   36.4200   32.1530   40.6650 O   0  0  0  0  0  0  0  0  0  0  0  0
   36.4660   32.4200   39.7130 H   0  0  0  0  0  0  0  0  0  0  0  0
   37.5890   29.9320   39.4080 O   0  0  0  0  0  0  0  0  0  0  0  0
   39.2970   30.6070   37.8580 C   0  0  2  0  0  3  0  0  0  0  0  0
   38.8640   30.4800   39.2960 C   0  0  1  0  0  3  0  0  0  0  0  0
   38.9670   31.7170   39.8790 O   0  0  0  0  0  0  0  0  0  0  0  0
   39.5910   32.5960   39.0380 C   0  0  0  0  0  2  0  0  0  0  0  0
   40.2400   31.7920   37.9300 C   0  0  2  0  0  3  0  0  0  0  0  0
   38.2570   30.8440   36.9910 O   0  0  0  0  0  0  0  0  0  0  0  0
   37.4820   31.2830   37.4000 H   0  0  0  0  0  0  0  0  0  0  0  0
   40.2850   32.4940   36.7340 O   0  0  0  0  0  0  0  0  0  0  0  0
   39.8650   33.3830   36.9060 H   0  0  0  0  0  0  0  0  0  0  0  0
  1  4  1  1  0  0  0
  1  2  1  0  0  0  0
  2  6  1  0  0  0  0
  2  5  1  0  0  0  0
  3  7  1  6  0  0  0
  3  1  1  0  0  0  0
  3  2  1  0  0  0  0
  8 13  2  0  0  0  0
  8  9  1  0  0  0  0
  9 10  2  0  0  0  0
 10 11  1  0  0  0  0
 10 15  1  0  0  0  0
 11 16  1  0  0  0  0
 12  1  1  0  0  0  0
 12 11  2  0  0  0  0
 13 12  1  0  0  0  0
 14  9  1  0  0  0  0
 17 18  1  0  0  0  0
 18 24  1  0  0  0  0
 18 19  2  0  0  0  0
 19  8  1  0  0  0  0
 20 19  1  0  0  0  0
 21 20  2  0  0  0  0
 22 17  2  0  0  0  0
 22 21  1  0  0  0  0
 23 17  1  0  0  0  0
 25 21  1  0  0  0  0
 26  3  1  0  0  0  0
 28 27  2  6  0  0  0
 28 26  1  0  0  0  0
 29 28  1  0  0  0  0
 30 29  1  0  0  0  0
 31 28  1  0  0  0  0
 32 37  1  6  0  0  0
 32 36  1  0  0  0  0
 32 33  1  0  0  0  0
 33 31  1  6  0  0  0
 33 34  1  0  0  0  0
 35 34  1  0  0  0  0
 36 39  1  6  0  0  0
 36 35  1  0  0  0  0
 37 38  1  0  0  0  0
 39 40  1  0  0  0  0
M  END
>  <minimizedAffinity>
-6.88133621

$$$$

 OpenBabel03242521093D

 40 43  0  0  1  0  0  0  0  0999 V2000
   36.6710   28.9130   42.0500 C   0  0  2  0  0  0  0  0  0  0  0  0
   35.7690   28.7650   40.8840 C   0  0  0  0  0  0  0  0  0  0  0  0
   36.8910   29.8060   40.9270 C   0  0  1  0  0  0  0  0  0  0  0  0
   36.2090   29.4080   42.9600 H   0  0  0  0  0  0  0  0  0  0  0  0
   34.7580   29.2110   40.9490 H   0  0  0  0  0  0  0  0  0  0  0  0
   35.8370   27.9150   40.2020 H   0  0  0  0  0  0  0  0  0  0  0  0
   37.5880   29.6210   40.0870 H   0  0  0  0  0  0  0  0  0  0  0  0
   38.4540   25.7010   41.7770 C   0  0  0  0  0  0  0  0  0  0  0  0
   39.2920   25.8630   42.8640 C   0  0  0  0  0  0  0  0  0  0  0  0
   39.3160   26.9650   43.6890 C   0  0  0  0  0  0  0  0  0  0  0  0
   38.4330   27.9940   43.4110 C   0  0  0  0  0  0  0  0  0  0  0  0
   37.6130   27.8130   42.3320 C   0  0  0  0  0  0  0  0  0  0  0  0
   37.6300   26.7320   41.5690 N   0  0  0  0  0  0  0  0  0  0  0  0
   39.9980   25.0580   43.0990 H   0  0  0  0  0  0  0  0  0  0  0  0
   40.0190   27.0020   44.5290 H   0  0  0  0  0  0  0  0  0  0  0  0
   38.4500   28.8560   44.0540 H   0  0  0  0  0  0  0  0  0  0  0  0
   37.7410   22.3820   40.1520 C   0  0  0  0  0  0  0  0  0  0  0  0
   37.5890   23.4480   41.0410 C   0  0  0  0  0  0  0  0  0  0  0  0
   38.4710   24.5090   40.9290 C   0  0  0  0  0  0  0  0  0  0  0  0
   39.4270   24.4670   39.9780 N   0  0  0  0  0  0  0  0  0  0  0  0
   39.5420   23.4030   39.1250 C   0  0  0  0  0  0  0  0  0  0  0  0
   38.6990   22.3810   39.2260 N   0  0  0  0  0  0  0  0  0  0  0  0
   37.0080   21.5810   40.3010 H   0  0  0  0  0  0  0  0  0  0  0  0
   36.8370   23.5100   41.8120 H   0  0  0  0  0  0  0  0  0  0  0  0
   40.3370   23.4300   38.3750 H   0  0  0  0  0  0  0  0  0  0  0  0
   36.4730   31.1450   40.9860 O   0  0  0  0  0  0  0  0  0  0  0  0
   37.9780   31.5140   38.9550 O   0  0  0  0  0  0  0  0  0  0  0  0
   37.5590   32.2080   40.2590 P   0  0  1  0  0  0  0  0  0  0  0  0
   36.7910   33.6290   39.8220 O   0  0  0  0  0  0  0  0  0  0  0  0
   37.4690   34.3500   39.8440 H   0  0  0  0  0  0  0  0  0  0  0  0
   38.9790   32.4430   41.1210 O   0  0  0  0  0  0  0  0  0  0  0  0
   39.8850   34.4660   40.1910 C   0  0  2  0  0  3  0  0  0  0  0  0
   40.0000   32.9700   40.3340 C   0  0  1  0  0  3  0  0  0  0  0  0
   41.2500   32.6870   40.8220 O   0  0  0  0  0  0  0  0  0  0  0  0
   42.0260   33.8130   40.8400 C   0  0  0  0  0  2  0  0  0  0  0  0
   41.3350   34.8630   39.9960 C   0  0  2  0  0  3  0  0  0  0  0  0
   39.3390   35.0820   41.2930 O   0  0  0  0  0  0  0  0  0  0  0  0
   39.4610   34.5910   42.1320 H   0  0  0  0  0  0  0  0  0  0  0  0
   41.5870   36.1490   40.4520 O   0  0  0  0  0  0  0  0  0  0  0  0
   42.1820   36.0590   41.2490 H   0  0  0  0  0  0  0  0  0  0  0  0
  1 12  1  0  0  0  0
  1  4  1  1  0  0  0
  2  3  1  0  0  0  0
  2  5  1  0  0  0  0
  2  1  1  0  0  0  0
  3  7  1  6  0  0  0
  3 26  1  0  0  0  0
  3  1  1  0  0  0  0
  6  2  1  0  0  0  0
  8  9  1  0  0  0  0
  9 14  1  0  0  0  0
  9 10  2  0  0  0  0
 10 15  1  0  0  0  0
 11 10  1  0  0  0  0
 11 16  1  0  0  0  0
 12 11  2  0  0  0  0
 13  8  2  0  0  0  0
 13 12  1  0  0  0  0
 17 23  1  0  0  0  0
 17 18  1  0  0  0  0
 18 24  1  0  0  0  0
 19 18  2  0  0  0  0
 19  8  1  0  0  0  0
 20 19  1  0  0  0  0
 21 22  1  0  0  0  0
 21 20  2  0  0  0  0
 22 17  2  0  0  0  0
 25 21  1  0  0  0  0
 28 27  2  6  0  0  0
 28 26  1  0  0  0  0
 28 31  1  0  0  0  0
 29 30  1  0  0  0  0
 29 28  1  0  0  0  0
 32 33  1  0  0  0  0
 32 37  1  1  0  0  0
 33 34  1  0  0  0  0
 33 31  1  1  0  0  0
 34 35  1  0  0  0  0
 36 32  1  0  0  0  0
 36 39  1  1  0  0  0
 36 35  1  0  0  0  0
 37 38  1  0  0  0  0
 39 40  1  0  0  0  0
M  END
>  <minimizedAffinity>
-6.69004202

$$$$

 OpenBabel03242521093D

 40 43  0  0  1  0  0  0  0  0999 V2000
   40.0810   30.4090   37.4280 C   0  0  2  0  0  0  0  0  0  0  0  0
   41.2370   29.5020   37.6150 C   0  0  0  0  0  0  0  0  0  0  0  0
   41.3300   31.0120   37.8530 C   0  0  1  0  0  0  0  0  0  0  0  0
   39.8000   30.6200   36.3490 H   0  0  0  0  0  0  0  0  0  0  0  0
   41.7870   29.1680   36.7140 H   0  0  0  0  0  0  0  0  0  0  0  0
   41.3020   28.8100   38.4570 H   0  0  0  0  0  0  0  0  0  0  0  0
   41.6300   31.1950   38.9020 H   0  0  0  0  0  0  0  0  0  0  0  0
   38.0990   29.4420   40.3790 C   0  0  0  0  0  0  0  0  0  0  0  0
   36.9160   30.0550   40.0150 C   0  0  0  0  0  0  0  0  0  0  0  0
   36.7190   30.7750   38.8580 C   0  0  0  0  0  0  0  0  0  0  0  0
   37.7890   30.8950   37.9880 C   0  0  0  0  0  0  0  0  0  0  0  0
   38.9500   30.2800   38.3670 C   0  0  0  0  0  0  0  0  0  0  0  0
   39.0870   29.5990   39.4930 N   0  0  0  0  0  0  0  0  0  0  0  0
   36.0580   29.9700   40.6930 H   0  0  0  0  0  0  0  0  0  0  0  0
   35.7410   31.2270   38.6560 H   0  0  0  0  0  0  0  0  0  0  0  0
   37.6380   31.4570   37.0830 H   0  0  0  0  0  0  0  0  0  0  0  0
   37.6030   27.8380   43.7480 C   0  0  0  0  0  0  0  0  0  0  0  0
   37.2950   28.5980   42.6170 C   0  0  0  0  0  0  0  0  0  0  0  0
   38.2560   28.6900   41.6240 C   0  0  0  0  0  0  0  0  0  0  0  0
   39.4310   28.0490   41.7900 N   0  0  0  0  0  0  0  0  0  0  0  0
   39.6930   27.3130   42.9140 C   0  0  0  0  0  0  0  0  0  0  0  0
   38.7770   27.2200   43.8710 N   0  0  0  0  0  0  0  0  0  0  0  0
   36.7970   27.8120   44.4890 H   0  0  0  0  0  0  0  0  0  0  0  0
   36.3670   29.1220   42.4570 H   0  0  0  0  0  0  0  0  0  0  0  0
   40.6650   26.8170   42.9870 H   0  0  0  0  0  0  0  0  0  0  0  0
   42.1280   31.7210   36.9400 O   0  0  0  0  0  0  0  0  0  0  0  0
   44.2890   32.8230   37.7420 O   0  0  0  0  0  0  0  0  0  0  0  0
   42.7910   33.1240   37.5960 P   0  0  1  0  0  0  0  0  0  0  0  0
   42.6600   34.3980   36.5200 O   0  0  0  0  0  0  0  0  0  0  0  0
   42.6110   35.2310   37.0520 H   0  0  0  0  0  0  0  0  0  0  0  0
   42.2510   33.4860   39.1430 O   0  0  0  0  0  0  0  0  0  0  0  0
   40.0230   33.6440   40.0290 C   0  0  2  0  0  3  0  0  0  0  0  0
   41.0800   34.2400   39.1360 C   0  0  1  0  0  3  0  0  0  0  0  0
   41.2800   35.5400   39.5270 O   0  0  0  0  0  0  0  0  0  0  0  0
   40.3440   35.9140   40.4510 C   0  0  0  0  0  2  0  0  0  0  0  0
   39.2400   34.8770   40.4350 C   0  0  2  0  0  3  0  0  0  0  0  0
   40.5350   32.9900   41.1250 O   0  0  0  0  0  0  0  0  0  0  0  0
   41.4170   33.3090   41.4100 H   0  0  0  0  0  0  0  0  0  0  0  0
   38.6460   34.7290   41.6800 O   0  0  0  0  0  0  0  0  0  0  0  0
   39.1080   35.3630   42.2970 H   0  0  0  0  0  0  0  0  0  0  0  0
  1  4  1  6  0  0  0
  1  2  1  0  0  0  0
  1  3  1  0  0  0  0
  1 12  1  0  0  0  0
  2  3  1  0  0  0  0
  2  6  1  0  0  0  0
  3  7  1  1  0  0  0
  5  2  1  0  0  0  0
  8 19  1  0  0  0  0
  9  8  1  0  0  0  0
  9 14  1  0  0  0  0
 10  9  2  0  0  0  0
 11 12  2  0  0  0  0
 11 10  1  0  0  0  0
 12 13  1  0  0  0  0
 13  8  2  0  0  0  0
 15 10  1  0  0  0  0
 16 11  1  0  0  0  0
 17 22  1  0  0  0  0
 17 23  1  0  0  0  0
 18 17  2  0  0  0  0
 19 20  2  0  0  0  0
 19 18  1  0  0  0  0
 20 21  1  0  0  0  0
 21 25  1  0  0  0  0
 21 22  2  0  0  0  0
 24 18  1  0  0  0  0
 26 28  1  0  0  0  0
 26  3  1  0  0  0  0
 28 27  2  1  0  0  0
 28 31  1  0  0  0  0
 29 30  1  0  0  0  0
 29 28  1  0  0  0  0
 32 36  1  0  0  0  0
 32 37  1  1  0  0  0
 33 31  1  1  0  0  0
 33 34  1  0  0  0  0
 33 32  1  0  0  0  0
 34 35  1  0  0  0  0
 36 35  1  0  0  0  0
 36 39  1  1  0  0  0
 37 38  1  0  0  0  0
 39 40  1  0  0  0  0
M  END
>  <minimizedAffinity>
-6.63647079

$$$$

 OpenBabel03242521093D

 40 43  0  0  1  0  0  0  0  0999 V2000
   38.8050   32.6370   39.7710 C   0  0  2  0  0  0  0  0  0  0  0  0
   37.3240   32.6660   39.7520 C   0  0  0  0  0  0  0  0  0  0  0  0
   38.1170   31.8760   40.7960 C   0  0  1  0  0  0  0  0  0  0  0  0
   39.2880   32.0060   38.9610 H   0  0  0  0  0  0  0  0  0  0  0  0
   36.8010   32.0200   39.0210 H   0  0  0  0  0  0  0  0  0  0  0  0
   36.7570   33.5500   40.0490 H   0  0  0  0  0  0  0  0  0  0  0  0
   37.8570   32.2470   41.8050 H   0  0  0  0  0  0  0  0  0  0  0  0
   41.4680   34.9590   40.8150 C   0  0  0  0  0  0  0  0  0  0  0  0
   40.7400   36.1290   40.7200 C   0  0  0  0  0  0  0  0  0  0  0  0
   39.4210   36.2130   40.3310 C   0  0  0  0  0  0  0  0  0  0  0  0
   38.7720   35.0340   40.0090 C   0  0  0  0  0  0  0  0  0  0  0  0
   39.5110   33.8880   40.1100 C   0  0  0  0  0  0  0  0  0  0  0  0
   40.7780   33.8620   40.4900 N   0  0  0  0  0  0  0  0  0  0  0  0
   41.2390   37.0720   40.9720 H   0  0  0  0  0  0  0  0  0  0  0  0
   38.9270   37.1900   40.2860 H   0  0  0  0  0  0  0  0  0  0  0  0
   37.7420   35.0970   39.7040 H   0  0  0  0  0  0  0  0  0  0  0  0
   45.1430   34.2240   41.1700 C   0  0  0  0  0  0  0  0  0  0  0  0
   43.8480   34.1380   40.6510 C   0  0  0  0  0  0  0  0  0  0  0  0
   42.8700   34.9260   41.2330 C   0  0  0  0  0  0  0  0  0  0  0  0
   43.2060   35.7320   42.2610 N   0  0  0  0  0  0  0  0  0  0  0  0
   44.4870   35.7880   42.7390 C   0  0  0  0  0  0  0  0  0  0  0  0
   45.4310   35.0340   42.1870 N   0  0  0  0  0  0  0  0  0  0  0  0
   45.8610   33.5720   40.6600 H   0  0  0  0  0  0  0  0  0  0  0  0
   43.5500   33.5030   39.8320 H   0  0  0  0  0  0  0  0  0  0  0  0
   44.6930   36.4620   43.5750 H   0  0  0  0  0  0  0  0  0  0  0  0
   38.0170   30.4780   40.7020 O   0  0  0  0  0  0  0  0  0  0  0  0
   39.4290   30.6690   42.8230 O   0  0  0  0  0  0  0  0  0  0  0  0
   38.4870   29.6870   42.1130 P   0  0  1  0  0  0  0  0  0  0  0  0
   37.1760   29.4590   43.1270 O   0  0  0  0  0  0  0  0  0  0  0  0
   37.3560   28.6480   43.6650 H   0  0  0  0  0  0  0  0  0  0  0  0
   39.3940   28.2980   41.8580 O   0  0  0  0  0  0  0  0  0  0  0  0
   38.9370   26.0480   42.5680 C   0  0  2  0  0  3  0  0  0  0  0  0
   39.3730   27.4380   42.9530 C   0  0  1  0  0  3  0  0  0  0  0  0
   40.5890   27.3410   43.5790 O   0  0  0  0  0  0  0  0  0  0  0  0
   40.9090   26.0320   43.8100 C   0  0  0  0  0  2  0  0  0  0  0  0
   39.6550   25.2080   43.6050 C   0  0  2  0  0  3  0  0  0  0  0  0
   39.3030   25.6920   41.2910 O   0  0  0  0  0  0  0  0  0  0  0  0
   40.0930   26.1630   40.9510 H   0  0  0  0  0  0  0  0  0  0  0  0
   39.9390   23.9340   43.1360 O   0  0  0  0  0  0  0  0  0  0  0  0
   40.9320   23.8740   43.0470 H   0  0  0  0  0  0  0  0  0  0  0  0
  1  4  1  6  0  0  0
  1 12  1  0  0  0  0
  1  3  1  0  0  0  0
  2  1  1  0  0  0  0
  2  6  1  0  0  0  0
  2  3  1  0  0  0  0
  3  7  1  1  0  0  0
  5  2  1  0  0  0  0
  8 19  1  0  0  0  0
  9  8  1  0  0  0  0
  9 14  1  0  0  0  0
 10  9  2  0  0  0  0
 11 12  2  0  0  0  0
 11 10  1  0  0  0  0
 12 13  1  0  0  0  0
 13  8  2  0  0  0  0
 15 10  1  0  0  0  0
 16 11  1  0  0  0  0
 17 22  1  0  0  0  0
 18 17  2  0  0  0  0
 18 19  1  0  0  0  0
 19 20  2  0  0  0  0
 20 21  1  0  0  0  0
 21 25  1  0  0  0  0
 22 21  2  0  0  0  0
 23 17  1  0  0  0  0
 24 18  1  0  0  0  0
 26  3  1  0  0  0  0
 26 28  1  0  0  0  0
 28 27  2  1  0  0  0
 28 29  1  0  0  0  0
 29 30  1  0  0  0  0
 31 28  1  0  0  0  0
 32 37  1  6  0  0  0
 32 33  1  0  0  0  0
 32 36  1  0  0  0  0
 33 31  1  6  0  0  0
 33 34  1  0  0  0  0
 34 35  1  0  0  0  0
 36 39  1  6  0  0  0
 36 35  1  0  0  0  0
 38 37  1  0  0  0  0
 40 39  1  0  0  0  0
M  END
>  <minimizedAffinity>
-6.62722731

$$$$

 OpenBabel03242521093D

 40 43  0  0  1  0  0  0  0  0999 V2000
   38.8460   28.3350   43.1640 C   0  0  2  0  0  0  0  0  0  0  0  0
   37.4820   28.7780   43.5330 C   0  0  0  0  0  0  0  0  0  0  0  0
   38.1430   29.1720   42.2100 C   0  0  1  0  0  0  0  0  0  0  0  0
   39.6900   28.8570   43.7140 H   0  0  0  0  0  0  0  0  0  0  0  0
   37.3830   29.6240   44.2400 H   0  0  0  0  0  0  0  0  0  0  0  0
   36.6310   28.0930   43.5380 H   0  0  0  0  0  0  0  0  0  0  0  0
   37.5210   28.8050   41.3710 H   0  0  0  0  0  0  0  0  0  0  0  0
   38.4760   24.9810   41.6860 C   0  0  0  0  0  0  0  0  0  0  0  0
   39.4290   24.3370   42.4500 C   0  0  0  0  0  0  0  0  0  0  0  0
   40.1970   24.9320   43.4260 C   0  0  0  0  0  0  0  0  0  0  0  0
   40.0000   26.2810   43.6640 C   0  0  0  0  0  0  0  0  0  0  0  0
   39.0520   26.8990   42.8970 C   0  0  0  0  0  0  0  0  0  0  0  0
   38.3400   26.2800   41.9690 N   0  0  0  0  0  0  0  0  0  0  0  0
   39.5980   23.2680   42.2750 H   0  0  0  0  0  0  0  0  0  0  0  0
   40.9310   24.3360   43.9810 H   0  0  0  0  0  0  0  0  0  0  0  0
   40.6000   26.7480   44.4260 H   0  0  0  0  0  0  0  0  0  0  0  0
   35.7290   23.3710   39.6780 C   0  0  0  0  0  0  0  0  0  0  0  0
   36.3340   24.0300   40.7520 C   0  0  0  0  0  0  0  0  0  0  0  0
   37.6880   24.3020   40.6570 C   0  0  0  0  0  0  0  0  0  0  0  0
   38.3540   23.9250   39.5470 N   0  0  0  0  0  0  0  0  0  0  0  0
   37.7240   23.2820   38.5160 C   0  0  0  0  0  0  0  0  0  0  0  0
   36.4250   23.0170   38.5990 N   0  0  0  0  0  0  0  0  0  0  0  0
   34.6580   23.1900   39.8250 H   0  0  0  0  0  0  0  0  0  0  0  0
   35.8280   24.3420   41.6520 H   0  0  0  0  0  0  0  0  0  0  0  0
   38.3210   23.0040   37.6440 H   0  0  0  0  0  0  0  0  0  0  0  0
   38.4680   30.5320   42.0760 O   0  0  0  0  0  0  0  0  0  0  0  0
   37.6420   29.9590   39.7270 O   0  0  0  0  0  0  0  0  0  0  0  0
   38.0120   31.1750   40.5880 P   0  0  1  0  0  0  0  0  0  0  0  0
   36.6220   32.0940   40.7430 O   0  0  0  0  0  0  0  0  0  0  0  0
   36.6460   32.7880   40.0370 H   0  0  0  0  0  0  0  0  0  0  0  0
   39.2480   31.9530   39.7620 O   0  0  0  0  0  0  0  0  0  0  0  0
   40.8800   33.7170   39.7210 C   0  0  2  0  0  3  0  0  0  0  0  0
   39.7620   33.0370   40.4680 C   0  0  1  0  0  3  0  0  0  0  0  0
   38.8120   33.9830   40.7590 O   0  0  0  0  0  0  0  0  0  0  0  0
   39.2680   35.2340   40.4480 C   0  0  0  0  0  2  0  0  0  0  0  0
   40.7630   35.1400   40.2300 C   0  0  2  0  0  3  0  0  0  0  0  0
   40.7410   33.6590   38.3540 O   0  0  0  0  0  0  0  0  0  0  0  0
   39.8150   33.5660   38.0460 H   0  0  0  0  0  0  0  0  0  0  0  0
   41.2140   36.0640   39.2990 O   0  0  0  0  0  0  0  0  0  0  0  0
   40.4150   36.5790   38.9940 H   0  0  0  0  0  0  0  0  0  0  0  0
  1  2  1  0  0  0  0
  1  4  1  1  0  0  0
  2  6  1  0  0  0  0
  2  5  1  0  0  0  0
  3  7  1  6  0  0  0
  3  1  1  0  0  0  0
  3  2  1  0  0  0  0
  8 13  2  0  0  0  0
  8  9  1  0  0  0  0
  9 10  2  0  0  0  0
 10 11  1  0  0  0  0
 10 15  1  0  0  0  0
 11 16  1  0  0  0  0
 12  1  1  0  0  0  0
 12 11  2  0  0  0  0
 13 12  1  0  0  0  0
 14  9  1  0  0  0  0
 17 23  1  0  0  0  0
 17 18  1  0  0  0  0
 18 24  1  0  0  0  0
 19 18  2  0  0  0  0
 19  8  1  0  0  0  0
 20 19  1  0  0  0  0
 21 22  1  0  0  0  0
 21 20  2  0  0  0  0
 22 17  2  0  0  0  0
 25 21  1  0  0  0  0
 26  3  1  0  0  0  0
 28 27  2  6  0  0  0
 28 29  1  0  0  0  0
 28 26  1  0  0  0  0
 30 29  1  0  0  0  0
 31 28  1  0  0  0  0
 32 37  1  6  0  0  0
 32 36  1  0  0  0  0
 32 33  1  0  0  0  0
 33 31  1  6  0  0  0
 33 34  1  0  0  0  0
 35 34  1  0  0  0  0
 36 39  1  6  0  0  0
 36 35  1  0  0  0  0
 38 37  1  0  0  0  0
 40 39  1  0  0  0  0
M  END
>  <minimizedAffinity>
-6.54735518

$$$$
