
 OpenBabel03252504323D

 40 42  0  0  1  0  0  0  0  0999 V2000
   42.8270   35.4690   40.6570 O   0  0  0  0  0  0  0  0  0  0  0  0
   41.5980   35.6790   41.1940 C   0  0  0  0  0  0  0  0  0  0  0  0
   41.5150   35.7530   42.3030 H   0  0  0  0  0  0  0  0  0  0  0  0
   41.1630   36.6280   40.7980 H   0  0  0  0  0  0  0  0  0  0  0  0
   40.8790   33.3530   41.3720 C   0  0  0  0  0  0  0  0  0  0  0  0
   40.5920   34.6230   40.8400 C   0  0  0  0  0  0  0  0  0  0  0  0
   39.4700   34.7730   40.0980 C   0  0  0  0  0  0  0  0  0  0  0  0
   38.7140   33.6770   39.9320 N   0  0  0  0  0  0  0  0  0  0  0  0
   38.9690   32.4850   40.4240 C   0  0  0  0  0  0  0  0  0  0  0  0
   40.1130   32.2740   41.1950 N   0  0  0  0  0  0  0  0  0  0  0  0
   41.7620   33.1780   41.9710 H   0  0  0  0  0  0  0  0  0  0  0  0
   39.2850   35.7470   39.7110 H   0  0  0  0  0  0  0  0  0  0  0  0
   38.8600   30.0410   39.8920 C   0  0  1  0  0  3  0  0  0  0  0  0
   38.1060   31.2870   40.2190 C   0  0  1  0  0  3  0  0  0  0  0  0
   37.4670   30.9220   41.4160 O   0  0  0  0  0  0  0  0  0  0  0  0
   36.8990   29.7060   41.1190 C   0  0  0  0  0  2  0  0  0  0  0  0
   37.7650   28.9910   40.1220 C   0  0  1  0  0  3  0  0  0  0  0  0
   39.2700   29.9840   38.5630 O   0  0  0  0  0  0  0  0  0  0  0  0
   40.0650   29.4190   38.4310 H   0  0  0  0  0  0  0  0  0  0  0  0
   37.0520   28.9150   38.9210 O   0  0  0  0  0  0  0  0  0  0  0  0
   37.1420   29.7360   38.3620 H   0  0  0  0  0  0  0  0  0  0  0  0
   44.0310   35.2890   41.3180 C   0  0  0  0  0  3  0  0  0  0  0  0
   44.0560   35.6510   42.5990 C   0  0  0  0  0  3  0  0  0  0  0  0
   45.2720   35.5330   43.5020 C   0  0  0  0  0  0  0  0  0  0  0  0
   45.5650   36.4990   43.9230 H   0  0  0  0  0  0  0  0  0  0  0  0
   46.1370   35.1820   42.8920 H   0  0  0  0  0  0  0  0  0  0  0  0
   44.9720   34.5800   44.4540 O   0  0  0  0  0  0  0  0  0  0  0  0
   45.6390   32.4200   43.0470 O   0  0  0  0  0  0  0  0  0  0  0  0
   45.9710   33.2330   44.2770 P   0  0  1  0  0  0  0  0  0  0  0  0
   47.5940   33.7340   44.1200 O   0  0  0  0  0  0  0  0  0  0  0  0
   47.7040   34.6960   44.3810 H   0  0  0  0  0  0  0  0  0  0  0  0
   45.8890   32.2610   45.6530 O   0  0  0  0  0  0  0  0  0  0  0  0
   46.1830   32.9540   46.8080 C   0  0  0  0  0  0  0  0  0  0  0  0
   47.0640   32.3160   47.8380 C   0  0  0  0  0  0  0  0  0  0  0  0
   45.5630   32.4080   48.0710 C   0  0  0  0  0  0  0  0  0  0  0  0
   46.2010   34.0500   46.7030 H   0  0  0  0  0  0  0  0  0  0  0  0
   47.6610   33.0130   48.4610 H   0  0  0  0  0  0  0  0  0  0  0  0
   47.5210   31.3450   47.6090 H   0  0  0  0  0  0  0  0  0  0  0  0
   45.1910   33.1030   48.8470 H   0  0  0  0  0  0  0  0  0  0  0  0
   45.0650   31.4320   48.0560 H   0  0  0  0  0  0  0  0  0  0  0  0
  1  2  1  0  0  0  0
  1 22  1  0  0  0  0
  2  3  1  0  0  0  0
  4  2  1  0  0  0  0
  5 11  1  0  0  0  0
  6  2  1  0  0  0  0
  6  5  2  0  0  0  0
  7  6  1  0  0  0  0
  8  7  2  0  0  0  0
  8  9  1  0  0  0  0
  9 10  2  0  0  0  0
 10  5  1  0  0  0  0
 12  7  1  0  0  0  0
 13 18  1  6  0  0  0
 13 17  1  0  0  0  0
 13 14  1  0  0  0  0
 14  9  1  1  0  0  0
 14 15  1  0  0  0  0
 16 15  1  0  0  0  0
 17 20  1  6  0  0  0
 17 16  1  0  0  0  0
 19 18  1  0  0  0  0
 21 20  1  0  0  0  0
 22 23  2  0  0  0  0
 23 24  1  0  0  0  0
 24 25  1  0  0  0  0
 24 27  1  0  0  0  0
 26 24  1  0  0  0  0
 29 28  2  6  0  0  0
 29 27  1  0  0  0  0
 29 32  1  0  0  0  0
 30 29  1  0  0  0  0
 30 31  1  0  0  0  0
 32 33  1  0  0  0  0
 33 34  1  0  0  0  0
 33 35  1  0  0  0  0
 34 35  1  0  0  0  0
 34 37  1  0  0  0  0
 35 39  1  0  0  0  0
 36 33  1  0  0  0  0
 38 34  1  0  0  0  0
 40 35  1  0  0  0  0
M  END
>  <minimizedAffinity>
-5.06353045

>  <minimizedRMSD>
0.653833508

$$$$
