
 OpenBabel03252501063D

 40 43  0  0  1  0  0  0  0  0999 V2000
   48.5180   32.3850   38.0250 O   0  0  0  0  0  0  0  0  0  0  0  0
   48.0930   33.8350   38.2530 P   0  0  2  0  0  0  0  0  0  0  0  0
   49.3190   34.7840   37.5800 O   0  0  0  0  0  0  0  0  0  0  0  0
   48.8980   35.6720   37.3600 H   0  0  0  0  0  0  0  0  0  0  0  0
   47.7600   34.1470   39.8240 O   0  0  0  0  0  0  0  0  0  0  0  0
   48.1160   35.4670   41.8230 C   0  0  1  0  0  0  0  0  0  0  0  0
   49.3360   34.6640   41.6990 C   0  0  0  0  0  0  0  0  0  0  0  0
   48.5050   35.0660   40.4680 C   0  0  1  0  0  0  0  0  0  0  0  0
   48.2040   36.5390   42.0980 H   0  0  0  0  0  0  0  0  0  0  0  0
   49.3280   33.5660   41.8500 H   0  0  0  0  0  0  0  0  0  0  0  0
   50.3510   35.0840   41.8120 H   0  0  0  0  0  0  0  0  0  0  0  0
   49.0920   35.7290   39.8020 H   0  0  0  0  0  0  0  0  0  0  0  0
   46.0380   32.9810   43.7860 C   0  0  0  0  0  0  0  0  0  0  0  0
   47.1480   33.6380   43.2600 C   0  0  0  0  0  0  0  0  0  0  0  0
   46.9380   34.7450   42.4150 C   0  0  0  0  0  0  0  0  0  0  0  0
   45.6660   35.1450   42.1340 N   0  0  0  0  0  0  0  0  0  0  0  0
   44.6030   34.4800   42.6630 C   0  0  0  0  0  0  0  0  0  0  0  0
   44.7890   33.4030   43.4860 N   0  0  0  0  0  0  0  0  0  0  0  0
   46.1570   32.1340   44.4330 H   0  0  0  0  0  0  0  0  0  0  0  0
   48.1340   33.2960   43.5030 H   0  0  0  0  0  0  0  0  0  0  0  0
   43.6230   34.8530   42.3970 H   0  0  0  0  0  0  0  0  0  0  0  0
   46.7310   34.0350   37.2920 O   0  0  0  0  0  0  0  0  0  0  0  0
   45.7360   33.0810   37.1360 C   0  0  0  0  0  0  0  0  0  0  0  0
   45.5510   32.2160   36.0770 C   0  0  0  0  0  0  0  0  0  0  0  0
   44.5180   31.3280   36.0660 C   0  0  0  0  0  0  0  0  0  0  0  0
   43.6370   31.2790   37.1160 C   0  0  0  0  0  0  0  0  0  0  0  0
   43.8560   32.1690   38.1710 C   0  0  0  0  0  0  0  0  0  0  0  0
   44.8810   33.0450   38.1730 N   0  0  0  0  0  0  0  0  0  0  0  0
   46.3050   32.3380   35.2970 H   0  0  0  0  0  0  0  0  0  0  0  0
   44.4990   30.7140   35.1720 H   0  0  0  0  0  0  0  0  0  0  0  0
   42.8420   30.5650   37.0630 H   0  0  0  0  0  0  0  0  0  0  0  0
   43.3620   31.2920   40.4680 C   0  0  1  0  0  3  0  0  0  0  0  0
   42.8740   32.0840   39.2760 C   0  0  1  0  0  3  0  0  0  0  0  0
   42.5370   33.2790   39.8560 O   0  0  0  0  0  0  0  0  0  0  0  0
   41.7070   32.8900   40.9040 C   0  0  0  0  0  2  0  0  0  0  0  0
   42.2060   31.5750   41.4430 C   0  0  2  0  0  3  0  0  0  0  0  0
   43.4650   29.9440   40.1950 O   0  0  0  0  0  0  0  0  0  0  0  0
   42.8530   29.4080   40.7590 H   0  0  0  0  0  0  0  0  0  0  0  0
   42.6160   31.6050   42.7510 O   0  0  0  0  0  0  0  0  0  0  0  0
   42.2420   32.3330   43.2860 H   0  0  0  0  0  0  0  0  0  0  0  0
  2  1  2  6  0  0  0
  2  5  1  0  0  0  0
  3  2  1  0  0  0  0
  4  3  1  0  0  0  0
  5  8  1  0  0  0  0
  6  9  1  1  0  0  0
  6 15  1  0  0  0  0
  7 11  1  0  0  0  0
  7  6  1  0  0  0  0
  7 10  1  0  0  0  0
  8 12  1  6  0  0  0
  8  7  1  0  0  0  0
  8  6  1  0  0  0  0
 13 19  1  0  0  0  0
 14 20  1  0  0  0  0
 14 13  2  0  0  0  0
 15 14  1  0  0  0  0
 16 15  2  0  0  0  0
 16 17  1  0  0  0  0
 17 18  2  0  0  0  0
 18 13  1  0  0  0  0
 21 17  1  0  0  0  0
 22  2  1  0  0  0  0
 23 22  1  0  0  0  0
 23 28  1  0  0  0  0
 24 23  2  0  0  0  0
 25 24  1  0  0  0  0
 25 26  2  0  0  0  0
 26 27  1  0  0  0  0
 27 28  2  0  0  0  0
 29 24  1  0  0  0  0
 30 25  1  0  0  0  0
 31 26  1  0  0  0  0
 32 37  1  6  0  0  0
 32 36  1  0  0  0  0
 33 27  1  6  0  0  0
 33 34  1  0  0  0  0
 33 32  1  0  0  0  0
 34 35  1  0  0  0  0
 35 36  1  0  0  0  0
 36 39  1  1  0  0  0
 37 38  1  0  0  0  0
 39 40  1  0  0  0  0
M  END
>  <minimizedAffinity>
-5.13693714

>  <minimizedRMSD>
0.417810053

$$$$
