
 OpenBabel03252501053D

 40 43  0  0  1  0  0  0  0  0999 V2000
   49.0010   32.4300   38.2370 O   0  0  0  0  0  0  0  0  0  0  0  0
   48.1870   33.6720   38.5960 P   0  0  2  0  0  0  0  0  0  0  0  0
   48.8600   34.9370   37.7000 O   0  0  0  0  0  0  0  0  0  0  0  0
   48.1360   35.6300   37.6040 H   0  0  0  0  0  0  0  0  0  0  0  0
   48.1180   33.9270   40.2100 O   0  0  0  0  0  0  0  0  0  0  0  0
   47.9880   35.6100   41.9470 C   0  0  1  0  0  0  0  0  0  0  0  0
   49.3790   35.1520   41.9910 C   0  0  0  0  0  0  0  0  0  0  0  0
   48.5550   35.1060   40.6930 C   0  0  1  0  0  0  0  0  0  0  0  0
   47.7770   36.6960   42.0280 H   0  0  0  0  0  0  0  0  0  0  0  0
   49.6460   34.1330   42.3360 H   0  0  0  0  0  0  0  0  0  0  0  0
   50.2410   35.8400   42.0470 H   0  0  0  0  0  0  0  0  0  0  0  0
   48.9920   35.7800   39.9310 H   0  0  0  0  0  0  0  0  0  0  0  0
   46.5150   32.9630   44.2240 C   0  0  0  0  0  0  0  0  0  0  0  0
   47.4490   33.7930   43.6090 C   0  0  0  0  0  0  0  0  0  0  0  0
   47.0010   34.7090   42.6370 C   0  0  0  0  0  0  0  0  0  0  0  0
   45.6760   34.7630   42.3240 N   0  0  0  0  0  0  0  0  0  0  0  0
   44.7890   33.9370   42.9430 C   0  0  0  0  0  0  0  0  0  0  0  0
   45.2080   33.0410   43.8890 N   0  0  0  0  0  0  0  0  0  0  0  0
   46.8180   32.2520   44.9680 H   0  0  0  0  0  0  0  0  0  0  0  0
   48.4840   33.7240   43.8800 H   0  0  0  0  0  0  0  0  0  0  0  0
   43.7540   34.0340   42.6450 H   0  0  0  0  0  0  0  0  0  0  0  0
   46.6610   33.3780   37.9620 O   0  0  0  0  0  0  0  0  0  0  0  0
   45.6280   32.7650   38.6580 C   0  0  0  0  0  0  0  0  0  0  0  0
   45.5290   31.4420   39.0370 C   0  0  0  0  0  0  0  0  0  0  0  0
   44.4440   30.9850   39.7220 C   0  0  0  0  0  0  0  0  0  0  0  0
   43.4220   31.8400   40.0490 C   0  0  0  0  0  0  0  0  0  0  0  0
   43.5560   33.1720   39.6480 C   0  0  0  0  0  0  0  0  0  0  0  0
   44.6340   33.6160   38.9710 N   0  0  0  0  0  0  0  0  0  0  0  0
   46.3940   30.8510   38.7290 H   0  0  0  0  0  0  0  0  0  0  0  0
   44.5050   29.9270   39.9520 H   0  0  0  0  0  0  0  0  0  0  0  0
   42.5900   31.4360   40.5870 H   0  0  0  0  0  0  0  0  0  0  0  0
   41.3860   34.2020   38.9270 C   0  0  1  0  0  3  0  0  0  0  0  0
   42.4240   34.0540   40.0160 C   0  0  1  0  0  3  0  0  0  0  0  0
   41.6610   33.6220   41.0690 O   0  0  0  0  0  0  0  0  0  0  0  0
   40.6370   34.5620   41.1160 C   0  0  0  0  0  2  0  0  0  0  0  0
   40.3210   34.9910   39.7070 C   0  0  2  0  0  3  0  0  0  0  0  0
   41.8540   34.9270   37.8510 O   0  0  0  0  0  0  0  0  0  0  0  0
   41.3420   35.7630   37.7220 H   0  0  0  0  0  0  0  0  0  0  0  0
   39.0450   34.7060   39.2910 O   0  0  0  0  0  0  0  0  0  0  0  0
   38.3930   34.5850   40.0080 H   0  0  0  0  0  0  0  0  0  0  0  0
  2  1  2  6  0  0  0
  2  5  1  0  0  0  0
  3  2  1  0  0  0  0
  4  3  1  0  0  0  0
  5  8  1  0  0  0  0
  6  7  1  0  0  0  0
  6  9  1  1  0  0  0
  6 15  1  0  0  0  0
  7 11  1  0  0  0  0
  7 10  1  0  0  0  0
  8 12  1  6  0  0  0
  8  6  1  0  0  0  0
  8  7  1  0  0  0  0
 13 19  1  0  0  0  0
 14 20  1  0  0  0  0
 14 13  2  0  0  0  0
 15 14  1  0  0  0  0
 16 15  2  0  0  0  0
 16 17  1  0  0  0  0
 17 18  2  0  0  0  0
 18 13  1  0  0  0  0
 21 17  1  0  0  0  0
 22  2  1  0  0  0  0
 22 23  1  0  0  0  0
 23 28  2  0  0  0  0
 23 24  1  0  0  0  0
 24 25  2  0  0  0  0
 25 30  1  0  0  0  0
 25 26  1  0  0  0  0
 26 31  1  0  0  0  0
 27 26  2  0  0  0  0
 28 27  1  0  0  0  0
 29 24  1  0  0  0  0
 32 37  1  6  0  0  0
 32 36  1  0  0  0  0
 32 33  1  0  0  0  0
 33 27  1  6  0  0  0
 33 34  1  0  0  0  0
 34 35  1  0  0  0  0
 36 39  1  6  0  0  0
 36 35  1  0  0  0  0
 38 37  1  0  0  0  0
 39 40  1  0  0  0  0
M  END
>  <minimizedAffinity>
-5.57620859

>  <minimizedRMSD>
2.10372353

$$$$
