
 OpenBabel03242523553D

 45 48  0  0  1  0  0  0  0  0999 V2000
   42.8110   34.3650   38.9350 C   0  0  1  0  0  0  0  0  0  0  0  0
   43.0310   35.1920   40.1960 C   0  0  1  0  0  0  0  0  0  0  0  0
   41.7770   35.6160   40.6700 O   0  0  0  0  0  0  0  0  0  0  0  0
   40.8900   35.9200   39.6340 C   0  0  0  0  0  0  0  0  0  0  0  0
   40.4510   34.6810   38.8830 C   0  0  2  0  0  0  0  0  0  0  0  0
   41.5520   33.5920   39.1550 C   0  0  1  0  0  0  0  0  0  0  0  0
   43.6880   33.6890   38.7680 H   0  0  0  0  0  0  0  0  0  0  0  0
   43.7140   36.0410   40.0470 H   0  0  0  0  0  0  0  0  0  0  0  0
   41.2390   36.7190   38.9700 H   0  0  0  0  0  0  0  0  0  0  0  0
   39.9810   36.3040   40.1430 H   0  0  0  0  0  0  0  0  0  0  0  0
   39.4800   34.2860   39.2240 H   0  0  0  0  0  0  0  0  0  0  0  0
   41.3160   33.4860   40.2620 H   0  0  0  0  0  0  0  0  0  0  0  0
   42.6950   35.1960   37.8120 O   0  0  0  0  0  0  0  0  0  0  0  0
   43.5950   35.3240   37.4540 H   0  0  0  0  0  0  0  0  0  0  0  0
   40.5050   34.9200   37.5180 O   0  0  0  0  0  0  0  0  0  0  0  0
   40.0080   34.2030   37.0350 H   0  0  0  0  0  0  0  0  0  0  0  0
   43.4630   34.2670   41.1650 O   0  0  0  0  0  0  0  0  0  0  0  0
   44.6080   34.3610   41.8530 C   0  0  0  0  0  0  0  0  0  0  0  0
   45.8420   34.4870   41.1980 C   0  0  0  0  0  0  0  0  0  0  0  0
   46.9900   34.5840   41.9660 C   0  0  0  0  0  0  0  0  0  0  0  0
   46.8880   34.5540   43.3470 N   0  0  0  0  0  0  0  0  0  0  0  0
   45.6810   34.4320   43.9430 C   0  0  0  0  0  0  0  0  0  0  0  0
   44.5450   34.3360   43.2010 N   0  0  0  0  0  0  0  0  0  0  0  0
   45.8990   34.5080   40.1210 H   0  0  0  0  0  0  0  0  0  0  0  0
   45.6210   34.4090   45.0220 H   0  0  0  0  0  0  0  0  0  0  0  0
   48.3430   34.7030   41.3430 C   0  0  0  0  0  0  0  0  0  0  0  0
   49.0680   36.0360   41.5250 C   0  0  0  0  0  0  0  0  0  0  0  0
   49.5290   34.6960   42.1370 C   0  0  0  0  0  0  0  0  0  0  0  0
   48.3410   34.2970   40.2940 H   0  0  0  0  0  0  0  0  0  0  0  0
   48.6000   36.7690   42.1980 H   0  0  0  0  0  0  0  0  0  0  0  0
   49.6430   36.3860   40.6480 H   0  0  0  0  0  0  0  0  0  0  0  0
   50.4710   34.2730   41.7360 H   0  0  0  0  0  0  0  0  0  0  0  0
   49.4940   34.6600   43.2430 H   0  0  0  0  0  0  0  0  0  0  0  0
   41.3190   32.5630   38.3230 O   0  0  0  0  0  0  0  0  0  0  0  0
   40.4060   31.5690   38.4320 C   0  0  0  0  0  0  0  0  0  0  0  0
   39.8940   31.0160   37.3630 O   0  0  0  0  0  0  0  0  0  0  0  0
   39.6530   30.7410   39.3280 N   0  0  0  0  0  0  0  0  0  0  0  0
   38.2870   30.6990   38.8400 C   0  0  0  0  0  3  0  0  0  0  0  0
   37.8010   31.6670   38.7460 H   0  0  0  0  0  0  0  0  0  0  0  0
   37.5160   29.7240   39.6930 C   0  0  0  0  0  3  0  0  0  0  0  0
   37.8560   28.6940   39.4760 H   0  0  0  0  0  0  0  0  0  0  0  0
   37.5970   30.0320   41.0940 N   0  0  0  0  0  0  0  0  0  0  0  0
   37.1850   29.2220   41.6150 H   0  0  0  0  0  0  0  0  0  0  0  0
   38.9210   30.3330   41.5500 C   0  0  0  0  0  2  0  0  0  0  0  0
   39.9980   30.0210   40.5090 C   0  0  0  0  0  2  0  0  0  0  0  0
  1  7  1  6  0  0  0
  1  6  1  0  0  0  0
  1  2  1  0  0  0  0
  2  8  1  6  0  0  0
  2  3  1  0  0  0  0
  2 17  1  0  0  0  0
  4 10  1  0  0  0  0
  4  3  1  0  0  0  0
  5  6  1  0  0  0  0
  5 11  1  1  0  0  0
  5  4  1  0  0  0  0
  6 12  1  1  0  0  0
  9  4  1  0  0  0  0
 13  1  1  0  0  0  0
 14 13  1  0  0  0  0
 15  5  1  0  0  0  0
 16 15  1  0  0  0  0
 17 18  1  0  0  0  0
 18 23  1  0  0  0  0
 19 18  2  0  0  0  0
 19 20  1  0  0  0  0
 20 21  2  0  0  0  0
 21 22  1  0  0  0  0
 22 25  1  0  0  0  0
 23 22  2  0  0  0  0
 24 19  1  0  0  0  0
 26 27  1  0  0  0  0
 26 20  1  0  0  0  0
 26 28  1  0  0  0  0
 27 28  1  0  0  0  0
 27 30  1  0  0  0  0
 28 33  1  0  0  0  0
 29 26  1  0  0  0  0
 31 27  1  0  0  0  0
 32 28  1  0  0  0  0
 34 35  1  0  0  0  0
 34  6  1  0  0  0  0
 35 37  1  0  0  0  0
 36 35  2  0  0  0  0
 37 45  1  0  0  0  0
 38 37  1  0  0  0  0
 38 40  1  0  0  0  0
 39 38  1  0  0  0  0
 40 42  1  0  0  0  0
 41 40  1  0  0  0  0
 42 44  1  0  0  0  0
 42 43  1  0  0  0  0
 45 44  1  0  0  0  0
M  END
>  <minimizedAffinity>
-6.47122812

>  <minimizedRMSD>
1.50634074

$$$$
