
 OpenBabel03242523553D

 45 48  0  0  1  0  0  0  0  0999 V2000
   42.7890   34.3910   38.7990 C   0  0  1  0  0  0  0  0  0  0  0  0
   43.0030   35.1560   40.0980 C   0  0  1  0  0  0  0  0  0  0  0  0
   41.7440   35.4970   40.6230 O   0  0  0  0  0  0  0  0  0  0  0  0
   40.8200   35.8180   39.6250 C   0  0  0  0  0  0  0  0  0  0  0  0
   40.4170   34.6030   38.8160 C   0  0  2  0  0  0  0  0  0  0  0  0
   41.5700   33.5510   39.0020 C   0  0  1  0  0  0  0  0  0  0  0  0
   43.6900   33.7640   38.5740 H   0  0  0  0  0  0  0  0  0  0  0  0
   43.6450   36.0410   39.9820 H   0  0  0  0  0  0  0  0  0  0  0  0
   41.1180   36.6670   38.9990 H   0  0  0  0  0  0  0  0  0  0  0  0
   39.9080   36.1330   40.1730 H   0  0  0  0  0  0  0  0  0  0  0  0
   39.4720   34.1480   39.1550 H   0  0  0  0  0  0  0  0  0  0  0  0
   41.3660   33.3740   40.1060 H   0  0  0  0  0  0  0  0  0  0  0  0
   42.6100   35.2750   37.7260 O   0  0  0  0  0  0  0  0  0  0  0  0
   43.4950   35.4620   37.3560 H   0  0  0  0  0  0  0  0  0  0  0  0
   40.4270   34.9190   37.4650 O   0  0  0  0  0  0  0  0  0  0  0  0
   39.9500   34.2080   36.9540 H   0  0  0  0  0  0  0  0  0  0  0  0
   43.4990   34.1990   41.0050 O   0  0  0  0  0  0  0  0  0  0  0  0
   44.6160   34.3400   41.7280 C   0  0  0  0  0  0  0  0  0  0  0  0
   45.8720   34.4470   41.1140 C   0  0  0  0  0  0  0  0  0  0  0  0
   46.9900   34.5940   41.9180 C   0  0  0  0  0  0  0  0  0  0  0  0
   46.8370   34.6320   43.2930 N   0  0  0  0  0  0  0  0  0  0  0  0
   45.6090   34.5260   43.8500 C   0  0  0  0  0  0  0  0  0  0  0  0
   44.5030   34.3810   43.0730 N   0  0  0  0  0  0  0  0  0  0  0  0
   45.9690   34.4140   40.0400 H   0  0  0  0  0  0  0  0  0  0  0  0
   45.5090   34.5570   44.9270 H   0  0  0  0  0  0  0  0  0  0  0  0
   48.3640   34.6970   41.3400 C   0  0  0  0  0  0  0  0  0  0  0  0
   49.0830   36.0350   41.5110 C   0  0  0  0  0  0  0  0  0  0  0  0
   49.5220   34.7130   42.1750 C   0  0  0  0  0  0  0  0  0  0  0  0
   48.3990   34.2630   40.3030 H   0  0  0  0  0  0  0  0  0  0  0  0
   48.5920   36.7860   42.1470 H   0  0  0  0  0  0  0  0  0  0  0  0
   49.6880   36.3610   40.6450 H   0  0  0  0  0  0  0  0  0  0  0  0
   50.4770   34.2790   41.8190 H   0  0  0  0  0  0  0  0  0  0  0  0
   49.4470   34.7060   43.2800 H   0  0  0  0  0  0  0  0  0  0  0  0
   41.3610   32.5600   38.1200 O   0  0  0  0  0  0  0  0  0  0  0  0
   40.5020   31.5160   38.1970 C   0  0  0  0  0  0  0  0  0  0  0  0
   39.4610   31.4520   37.4080 O   0  0  0  0  0  0  0  0  0  0  0  0
   40.1910   30.2800   38.8520 N   0  0  0  0  0  0  0  0  0  0  0  0
   40.5360   29.2040   37.9420 C   0  0  0  0  0  3  0  0  0  0  0  0
   40.0340   29.2390   36.9780 H   0  0  0  0  0  0  0  0  0  0  0  0
   40.3410   27.8970   38.6680 C   0  0  0  0  0  3  0  0  0  0  0  0
   41.1230   27.7850   39.4410 H   0  0  0  0  0  0  0  0  0  0  0  0
   39.0190   27.7620   39.2170 N   0  0  0  0  0  0  0  0  0  0  0  0
   39.0270   26.9170   39.8390 H   0  0  0  0  0  0  0  0  0  0  0  0
   38.5530   28.9250   39.9110 C   0  0  0  0  0  2  0  0  0  0  0  0
   39.6500   29.9670   40.1340 C   0  0  0  0  0  2  0  0  0  0  0  0
  1  7  1  6  0  0  0
  1  6  1  0  0  0  0
  1  2  1  0  0  0  0
  2  8  1  6  0  0  0
  2  3  1  0  0  0  0
  2 17  1  0  0  0  0
  4 10  1  0  0  0  0
  4  3  1  0  0  0  0
  5  6  1  0  0  0  0
  5 11  1  1  0  0  0
  5  4  1  0  0  0  0
  6 12  1  1  0  0  0
  9  4  1  0  0  0  0
 13  1  1  0  0  0  0
 14 13  1  0  0  0  0
 15  5  1  0  0  0  0
 16 15  1  0  0  0  0
 17 18  1  0  0  0  0
 18 23  1  0  0  0  0
 19 18  2  0  0  0  0
 19 20  1  0  0  0  0
 20 21  2  0  0  0  0
 21 22  1  0  0  0  0
 22 25  1  0  0  0  0
 23 22  2  0  0  0  0
 24 19  1  0  0  0  0
 26 27  1  0  0  0  0
 26 20  1  0  0  0  0
 26 28  1  0  0  0  0
 27 30  1  0  0  0  0
 27 28  1  0  0  0  0
 28 33  1  0  0  0  0
 29 26  1  0  0  0  0
 31 27  1  0  0  0  0
 32 28  1  0  0  0  0
 34 35  1  0  0  0  0
 34  6  1  0  0  0  0
 35 37  1  0  0  0  0
 36 35  2  0  0  0  0
 37 45  1  0  0  0  0
 38 40  1  0  0  0  0
 38 37  1  0  0  0  0
 39 38  1  0  0  0  0
 40 42  1  0  0  0  0
 40 41  1  0  0  0  0
 42 43  1  0  0  0  0
 42 44  1  0  0  0  0
 44 45  1  0  0  0  0
M  END
>  <minimizedAffinity>
-6.0617919

>  <minimizedRMSD>
0.681406021

$$$$
