
 OpenBabel03242523553D

 45 48  0  0  1  0  0  0  0  0999 V2000
   42.8200   34.3940   38.9180 C   0  0  1  0  0  0  0  0  0  0  0  0
   43.0090   35.1940   40.2000 C   0  0  1  0  0  0  0  0  0  0  0  0
   41.7420   35.5700   40.6780 O   0  0  0  0  0  0  0  0  0  0  0  0
   40.8510   35.8760   39.6450 C   0  0  0  0  0  0  0  0  0  0  0  0
   40.4520   34.6440   38.8610 C   0  0  2  0  0  0  0  0  0  0  0  0
   41.5820   33.5800   39.1110 C   0  0  1  0  0  0  0  0  0  0  0  0
   43.7170   33.7480   38.7380 H   0  0  0  0  0  0  0  0  0  0  0  0
   43.6690   36.0660   40.0770 H   0  0  0  0  0  0  0  0  0  0  0  0
   41.1810   36.7010   39.0030 H   0  0  0  0  0  0  0  0  0  0  0  0
   39.9290   36.2210   40.1580 H   0  0  0  0  0  0  0  0  0  0  0  0
   39.4900   34.2130   39.1860 H   0  0  0  0  0  0  0  0  0  0  0  0
   41.3440   33.4390   40.2140 H   0  0  0  0  0  0  0  0  0  0  0  0
   42.6860   35.2500   37.8160 O   0  0  0  0  0  0  0  0  0  0  0  0
   43.5840   35.4120   37.4660 H   0  0  0  0  0  0  0  0  0  0  0  0
   40.5060   34.9190   37.5020 O   0  0  0  0  0  0  0  0  0  0  0  0
   40.0320   34.2010   36.9980 H   0  0  0  0  0  0  0  0  0  0  0  0
   43.4630   34.2570   41.1490 O   0  0  0  0  0  0  0  0  0  0  0  0
   44.6060   34.3620   41.8370 C   0  0  0  0  0  0  0  0  0  0  0  0
   45.8400   34.4860   41.1840 C   0  0  0  0  0  0  0  0  0  0  0  0
   46.9870   34.5930   41.9530 C   0  0  0  0  0  0  0  0  0  0  0  0
   46.8830   34.5740   43.3330 N   0  0  0  0  0  0  0  0  0  0  0  0
   45.6750   34.4530   43.9290 C   0  0  0  0  0  0  0  0  0  0  0  0
   44.5410   34.3470   43.1860 N   0  0  0  0  0  0  0  0  0  0  0  0
   45.9000   34.4970   40.1060 H   0  0  0  0  0  0  0  0  0  0  0  0
   45.6130   34.4390   45.0080 H   0  0  0  0  0  0  0  0  0  0  0  0
   48.3410   34.7110   41.3310 C   0  0  0  0  0  0  0  0  0  0  0  0
   49.0720   36.0400   41.5240 C   0  0  0  0  0  0  0  0  0  0  0  0
   49.5270   34.6920   42.1250 C   0  0  0  0  0  0  0  0  0  0  0  0
   48.3380   34.3140   40.2790 H   0  0  0  0  0  0  0  0  0  0  0  0
   48.6070   36.7690   42.2030 H   0  0  0  0  0  0  0  0  0  0  0  0
   49.6480   36.3940   40.6500 H   0  0  0  0  0  0  0  0  0  0  0  0
   50.4670   34.2680   41.7210 H   0  0  0  0  0  0  0  0  0  0  0  0
   49.4910   34.6470   43.2310 H   0  0  0  0  0  0  0  0  0  0  0  0
   41.3820   32.5660   38.2520 O   0  0  0  0  0  0  0  0  0  0  0  0
   40.6250   31.4550   38.4070 C   0  0  0  0  0  0  0  0  0  0  0  0
   40.5470   30.5650   37.4510 O   0  0  0  0  0  0  0  0  0  0  0  0
   39.7530   30.7240   39.2790 N   0  0  0  0  0  0  0  0  0  0  0  0
   38.4760   30.5820   38.6030 C   0  0  0  0  0  3  0  0  0  0  0  0
   38.0010   31.5180   38.3160 H   0  0  0  0  0  0  0  0  0  0  0  0
   37.5950   29.7000   39.4490 C   0  0  0  0  0  3  0  0  0  0  0  0
   37.9720   28.6620   39.4170 H   0  0  0  0  0  0  0  0  0  0  0  0
   37.4610   30.1820   40.7970 N   0  0  0  0  0  0  0  0  0  0  0  0
   36.9820   29.4310   41.3500 H   0  0  0  0  0  0  0  0  0  0  0  0
   38.6990   30.5750   41.4010 C   0  0  0  0  0  2  0  0  0  0  0  0
   39.9210   30.1660   40.5790 C   0  0  0  0  0  2  0  0  0  0  0  0
  1  7  1  6  0  0  0
  1  6  1  0  0  0  0
  1  2  1  0  0  0  0
  2  8  1  6  0  0  0
  2  3  1  0  0  0  0
  2 17  1  0  0  0  0
  4 10  1  0  0  0  0
  4  3  1  0  0  0  0
  5  6  1  0  0  0  0
  5 11  1  1  0  0  0
  5  4  1  0  0  0  0
  6 12  1  1  0  0  0
  9  4  1  0  0  0  0
 13  1  1  0  0  0  0
 14 13  1  0  0  0  0
 15  5  1  0  0  0  0
 16 15  1  0  0  0  0
 17 18  1  0  0  0  0
 18 23  1  0  0  0  0
 19 18  2  0  0  0  0
 19 20  1  0  0  0  0
 20 21  2  0  0  0  0
 21 22  1  0  0  0  0
 22 25  1  0  0  0  0
 23 22  2  0  0  0  0
 24 19  1  0  0  0  0
 26 27  1  0  0  0  0
 26 20  1  0  0  0  0
 26 28  1  0  0  0  0
 27 28  1  0  0  0  0
 27 30  1  0  0  0  0
 28 33  1  0  0  0  0
 29 26  1  0  0  0  0
 31 27  1  0  0  0  0
 32 28  1  0  0  0  0
 34 35  1  0  0  0  0
 34  6  1  0  0  0  0
 35 37  1  0  0  0  0
 36 35  2  0  0  0  0
 37 45  1  0  0  0  0
 38 37  1  0  0  0  0
 38 40  1  0  0  0  0
 39 38  1  0  0  0  0
 40 42  1  0  0  0  0
 41 40  1  0  0  0  0
 42 43  1  0  0  0  0
 42 44  1  0  0  0  0
 45 44  1  0  0  0  0
M  END
>  <minimizedAffinity>
-6.47265053

>  <minimizedRMSD>
1.61761725

$$$$
