
 OpenBabel03242523553D

 45 48  0  0  1  0  0  0  0  0999 V2000
   42.8220   34.2810   39.0350 C   0  0  1  0  0  0  0  0  0  0  0  0
   43.0500   35.1740   40.2480 C   0  0  1  0  0  0  0  0  0  0  0  0
   41.8040   35.6630   40.6780 O   0  0  0  0  0  0  0  0  0  0  0  0
   40.9410   35.9320   39.6130 C   0  0  0  0  0  0  0  0  0  0  0  0
   40.4730   34.6640   38.9300 C   0  0  2  0  0  0  0  0  0  0  0  0
   41.5360   33.5600   39.2820 C   0  0  1  0  0  0  0  0  0  0  0  0
   43.6790   33.5700   38.9210 H   0  0  0  0  0  0  0  0  0  0  0  0
   43.7610   35.9910   40.0590 H   0  0  0  0  0  0  0  0  0  0  0  0
   41.3220   36.6790   38.9070 H   0  0  0  0  0  0  0  0  0  0  0  0
   40.0380   36.3720   40.0840 H   0  0  0  0  0  0  0  0  0  0  0  0
   39.4860   34.3190   39.2790 H   0  0  0  0  0  0  0  0  0  0  0  0
   41.2830   33.5280   40.3890 H   0  0  0  0  0  0  0  0  0  0  0  0
   42.7460   35.0460   37.8630 O   0  0  0  0  0  0  0  0  0  0  0  0
   43.6540   35.1250   37.5120 H   0  0  0  0  0  0  0  0  0  0  0  0
   40.5520   34.8190   37.5530 O   0  0  0  0  0  0  0  0  0  0  0  0
   40.0400   34.0900   37.1070 H   0  0  0  0  0  0  0  0  0  0  0  0
   43.4410   34.2950   41.2770 O   0  0  0  0  0  0  0  0  0  0  0  0
   44.6040   34.3630   41.9350 C   0  0  0  0  0  0  0  0  0  0  0  0
   45.8210   34.5060   41.2530 C   0  0  0  0  0  0  0  0  0  0  0  0
   46.9900   34.5720   41.9930 C   0  0  0  0  0  0  0  0  0  0  0  0
   46.9240   34.4960   43.3730 N   0  0  0  0  0  0  0  0  0  0  0  0
   45.7330   34.3580   43.9980 C   0  0  0  0  0  0  0  0  0  0  0  0
   44.5780   34.2920   43.2840 N   0  0  0  0  0  0  0  0  0  0  0  0
   45.8490   34.5630   40.1750 H   0  0  0  0  0  0  0  0  0  0  0  0
   45.7020   34.3000   45.0770 H   0  0  0  0  0  0  0  0  0  0  0  0
   48.3260   34.7080   41.3380 C   0  0  0  0  0  0  0  0  0  0  0  0
   49.0580   36.0350   41.5370 C   0  0  0  0  0  0  0  0  0  0  0  0
   49.5330   34.6780   42.0990 C   0  0  0  0  0  0  0  0  0  0  0  0
   48.2960   34.3310   40.2780 H   0  0  0  0  0  0  0  0  0  0  0  0
   48.6090   36.7490   42.2420 H   0  0  0  0  0  0  0  0  0  0  0  0
   49.6100   36.4080   40.6540 H   0  0  0  0  0  0  0  0  0  0  0  0
   50.4640   34.2660   41.6630 H   0  0  0  0  0  0  0  0  0  0  0  0
   49.5260   34.6120   43.2050 H   0  0  0  0  0  0  0  0  0  0  0  0
   41.2820   32.4910   38.5090 O   0  0  0  0  0  0  0  0  0  0  0  0
   40.2200   31.6520   38.5370 C   0  0  0  0  0  0  0  0  0  0  0  0
   39.5720   31.3610   37.4380 O   0  0  0  0  0  0  0  0  0  0  0  0
   39.3790   30.8280   39.3540 N   0  0  0  0  0  0  0  0  0  0  0  0
   40.0510   30.6450   40.6280 C   0  0  0  0  0  3  0  0  0  0  0  0
   41.0420   30.2030   40.5660 H   0  0  0  0  0  0  0  0  0  0  0  0
   39.1190   29.8940   41.5450 C   0  0  0  0  0  3  0  0  0  0  0  0
   38.2790   30.5510   41.8350 H   0  0  0  0  0  0  0  0  0  0  0  0
   38.6600   28.6570   40.9730 N   0  0  0  0  0  0  0  0  0  0  0  0
   37.8970   28.2920   41.5930 H   0  0  0  0  0  0  0  0  0  0  0  0
   38.2270   28.7670   39.6120 C   0  0  0  0  0  2  0  0  0  0  0  0
   38.1100   30.2170   39.1380 C   0  0  0  0  0  2  0  0  0  0  0  0
  1  7  1  6  0  0  0
  1  6  1  0  0  0  0
  1  2  1  0  0  0  0
  2  8  1  6  0  0  0
  2  3  1  0  0  0  0
  2 17  1  0  0  0  0
  4 10  1  0  0  0  0
  4  3  1  0  0  0  0
  5 11  1  1  0  0  0
  5  6  1  0  0  0  0
  5  4  1  0  0  0  0
  6 12  1  1  0  0  0
  9  4  1  0  0  0  0
 13  1  1  0  0  0  0
 14 13  1  0  0  0  0
 15  5  1  0  0  0  0
 16 15  1  0  0  0  0
 17 18  1  0  0  0  0
 18 23  1  0  0  0  0
 19 18  2  0  0  0  0
 19 20  1  0  0  0  0
 20 21  2  0  0  0  0
 21 22  1  0  0  0  0
 22 25  1  0  0  0  0
 23 22  2  0  0  0  0
 24 19  1  0  0  0  0
 26 27  1  0  0  0  0
 26 20  1  0  0  0  0
 26 28  1  0  0  0  0
 27 28  1  0  0  0  0
 27 30  1  0  0  0  0
 28 33  1  0  0  0  0
 29 26  1  0  0  0  0
 31 27  1  0  0  0  0
 32 28  1  0  0  0  0
 34 35  1  0  0  0  0
 34  6  1  0  0  0  0
 35 37  1  0  0  0  0
 36 35  2  0  0  0  0
 37 38  1  0  0  0  0
 38 40  1  0  0  0  0
 39 38  1  0  0  0  0
 40 41  1  0  0  0  0
 42 40  1  0  0  0  0
 42 43  1  0  0  0  0
 44 42  1  0  0  0  0
 45 37  1  0  0  0  0
 45 44  1  0  0  0  0
M  END
>  <minimizedAffinity>
-6.28431034

>  <minimizedRMSD>
1.61863053

$$$$
