
 OpenBabel03242523553D

 45 48  0  0  1  0  0  0  0  0999 V2000
   42.8040   34.3280   38.9510 C   0  0  1  0  0  0  0  0  0  0  0  0
   42.9980   35.1700   40.2060 C   0  0  1  0  0  0  0  0  0  0  0  0
   41.7330   35.5780   40.6650 O   0  0  0  0  0  0  0  0  0  0  0  0
   40.8510   35.8590   39.6170 C   0  0  0  0  0  0  0  0  0  0  0  0
   40.4390   34.6060   38.8740 C   0  0  2  0  0  0  0  0  0  0  0  0
   41.5540   33.5370   39.1660 C   0  0  1  0  0  0  0  0  0  0  0  0
   43.6930   33.6650   38.7980 H   0  0  0  0  0  0  0  0  0  0  0  0
   43.6690   36.0280   40.0560 H   0  0  0  0  0  0  0  0  0  0  0  0
   41.1940   36.6570   38.9490 H   0  0  0  0  0  0  0  0  0  0  0  0
   39.9310   36.2330   40.1130 H   0  0  0  0  0  0  0  0  0  0  0  0
   39.4710   34.1980   39.2090 H   0  0  0  0  0  0  0  0  0  0  0  0
   41.3100   33.4380   40.2720 H   0  0  0  0  0  0  0  0  0  0  0  0
   42.6850   35.1470   37.8190 O   0  0  0  0  0  0  0  0  0  0  0  0
   43.5870   35.2850   37.4690 H   0  0  0  0  0  0  0  0  0  0  0  0
   40.5030   34.8330   37.5070 O   0  0  0  0  0  0  0  0  0  0  0  0
   40.0220   34.1030   37.0260 H   0  0  0  0  0  0  0  0  0  0  0  0
   43.4350   34.2610   41.1890 O   0  0  0  0  0  0  0  0  0  0  0  0
   44.5850   34.3640   41.8650 C   0  0  0  0  0  0  0  0  0  0  0  0
   45.8140   34.4840   41.1990 C   0  0  0  0  0  0  0  0  0  0  0  0
   46.9680   34.5900   41.9560 C   0  0  0  0  0  0  0  0  0  0  0  0
   46.8780   34.5760   43.3380 N   0  0  0  0  0  0  0  0  0  0  0  0
   45.6760   34.4590   43.9460 C   0  0  0  0  0  0  0  0  0  0  0  0
   44.5340   34.3540   43.2150 N   0  0  0  0  0  0  0  0  0  0  0  0
   45.8620   34.4920   40.1210 H   0  0  0  0  0  0  0  0  0  0  0  0
   45.6250   34.4490   45.0260 H   0  0  0  0  0  0  0  0  0  0  0  0
   48.3160   34.7040   41.3210 C   0  0  0  0  0  0  0  0  0  0  0  0
   49.0590   36.0250   41.5170 C   0  0  0  0  0  0  0  0  0  0  0  0
   49.5100   34.6700   42.1010 C   0  0  0  0  0  0  0  0  0  0  0  0
   48.2980   34.3160   40.2650 H   0  0  0  0  0  0  0  0  0  0  0  0
   48.6070   36.7520   42.2070 H   0  0  0  0  0  0  0  0  0  0  0  0
   49.6280   36.3830   40.6390 H   0  0  0  0  0  0  0  0  0  0  0  0
   50.4430   34.2420   41.6830 H   0  0  0  0  0  0  0  0  0  0  0  0
   49.4860   34.6150   43.2070 H   0  0  0  0  0  0  0  0  0  0  0  0
   41.3460   32.4970   38.3420 O   0  0  0  0  0  0  0  0  0  0  0  0
   40.3880   31.5420   38.4000 C   0  0  0  0  0  0  0  0  0  0  0  0
   39.5070   31.4230   37.4410 O   0  0  0  0  0  0  0  0  0  0  0  0
   39.8420   30.4520   39.1550 N   0  0  0  0  0  0  0  0  0  0  0  0
   40.3890   30.5320   40.4970 C   0  0  0  0  0  3  0  0  0  0  0  0
   41.4740   30.5040   40.5550 H   0  0  0  0  0  0  0  0  0  0  0  0
   39.7200   29.4750   41.3380 C   0  0  0  0  0  3  0  0  0  0  0  0
   38.6660   29.7570   41.5160 H   0  0  0  0  0  0  0  0  0  0  0  0
   39.8340   28.1610   40.7670 N   0  0  0  0  0  0  0  0  0  0  0  0
   39.2060   27.5270   41.3170 H   0  0  0  0  0  0  0  0  0  0  0  0
   39.5430   28.1060   39.3650 C   0  0  0  0  0  2  0  0  0  0  0  0
   38.9340   29.4030   38.8300 C   0  0  0  0  0  2  0  0  0  0  0  0
  1  7  1  6  0  0  0
  1  6  1  0  0  0  0
  1  2  1  0  0  0  0
  2  8  1  6  0  0  0
  2  3  1  0  0  0  0
  2 17  1  0  0  0  0
  4 10  1  0  0  0  0
  4  3  1  0  0  0  0
  5  6  1  0  0  0  0
  5 11  1  1  0  0  0
  5  4  1  0  0  0  0
  6 12  1  1  0  0  0
  9  4  1  0  0  0  0
 13  1  1  0  0  0  0
 14 13  1  0  0  0  0
 15  5  1  0  0  0  0
 16 15  1  0  0  0  0
 17 18  1  0  0  0  0
 18 23  1  0  0  0  0
 19 18  2  0  0  0  0
 19 20  1  0  0  0  0
 20 21  2  0  0  0  0
 21 22  1  0  0  0  0
 22 25  1  0  0  0  0
 23 22  2  0  0  0  0
 24 19  1  0  0  0  0
 26 27  1  0  0  0  0
 26 20  1  0  0  0  0
 26 28  1  0  0  0  0
 27 28  1  0  0  0  0
 27 30  1  0  0  0  0
 28 33  1  0  0  0  0
 29 26  1  0  0  0  0
 31 27  1  0  0  0  0
 32 28  1  0  0  0  0
 34 35  1  0  0  0  0
 34  6  1  0  0  0  0
 35 37  1  0  0  0  0
 36 35  2  0  0  0  0
 37 38  1  0  0  0  0
 38 39  1  0  0  0  0
 38 40  1  0  0  0  0
 40 41  1  0  0  0  0
 42 43  1  0  0  0  0
 42 40  1  0  0  0  0
 44 42  1  0  0  0  0
 45 37  1  0  0  0  0
 45 44  1  0  0  0  0
M  END
>  <minimizedAffinity>
-6.13507891

>  <minimizedRMSD>
1.15371442

$$$$
