
 OpenBabel03242523553D

 45 48  0  0  1  0  0  0  0  0999 V2000
   42.7930   34.3490   38.9110 C   0  0  1  0  0  0  0  0  0  0  0  0
   43.0340   35.1780   40.1660 C   0  0  1  0  0  0  0  0  0  0  0  0
   41.7900   35.6180   40.6510 O   0  0  0  0  0  0  0  0  0  0  0  0
   40.8970   35.9290   39.6220 C   0  0  0  0  0  0  0  0  0  0  0  0
   40.4360   34.6920   38.8800 C   0  0  2  0  0  0  0  0  0  0  0  0
   41.5260   33.5910   39.1460 C   0  0  1  0  0  0  0  0  0  0  0  0
   43.6600   33.6620   38.7380 H   0  0  0  0  0  0  0  0  0  0  0  0
   43.7260   36.0180   40.0070 H   0  0  0  0  0  0  0  0  0  0  0  0
   41.2480   36.7210   38.9510 H   0  0  0  0  0  0  0  0  0  0  0  0
   39.9970   36.3260   40.1370 H   0  0  0  0  0  0  0  0  0  0  0  0
   39.4630   34.3100   39.2320 H   0  0  0  0  0  0  0  0  0  0  0  0
   41.3000   33.4930   40.2560 H   0  0  0  0  0  0  0  0  0  0  0  0
   42.6750   35.1760   37.7850 O   0  0  0  0  0  0  0  0  0  0  0  0
   43.5740   35.2920   37.4180 H   0  0  0  0  0  0  0  0  0  0  0  0
   40.4800   34.9250   37.5130 O   0  0  0  0  0  0  0  0  0  0  0  0
   39.9700   34.2120   37.0390 H   0  0  0  0  0  0  0  0  0  0  0  0
   43.4650   34.2510   41.1350 O   0  0  0  0  0  0  0  0  0  0  0  0
   44.6040   34.3490   41.8300 C   0  0  0  0  0  0  0  0  0  0  0  0
   45.8430   34.4740   41.1840 C   0  0  0  0  0  0  0  0  0  0  0  0
   46.9860   34.5740   41.9590 C   0  0  0  0  0  0  0  0  0  0  0  0
   46.8740   34.5490   43.3390 N   0  0  0  0  0  0  0  0  0  0  0  0
   45.6630   34.4270   43.9270 C   0  0  0  0  0  0  0  0  0  0  0  0
   44.5330   34.3280   43.1780 N   0  0  0  0  0  0  0  0  0  0  0  0
   45.9080   34.4910   40.1070 H   0  0  0  0  0  0  0  0  0  0  0  0
   45.5950   34.4080   45.0060 H   0  0  0  0  0  0  0  0  0  0  0  0
   48.3430   34.6930   41.3450 C   0  0  0  0  0  0  0  0  0  0  0  0
   49.0630   36.0300   41.5230 C   0  0  0  0  0  0  0  0  0  0  0  0
   49.5230   34.6950   42.1470 C   0  0  0  0  0  0  0  0  0  0  0  0
   48.3500   34.2800   40.2990 H   0  0  0  0  0  0  0  0  0  0  0  0
   48.5890   36.7650   42.1870 H   0  0  0  0  0  0  0  0  0  0  0  0
   49.6430   36.3750   40.6470 H   0  0  0  0  0  0  0  0  0  0  0  0
   50.4700   34.2710   41.7560 H   0  0  0  0  0  0  0  0  0  0  0  0
   49.4800   34.6660   43.2540 H   0  0  0  0  0  0  0  0  0  0  0  0
   41.2730   32.5610   38.3210 O   0  0  0  0  0  0  0  0  0  0  0  0
   40.3170   31.6080   38.4170 C   0  0  0  0  0  0  0  0  0  0  0  0
   39.8510   31.0220   37.3440 O   0  0  0  0  0  0  0  0  0  0  0  0
   39.4780   30.8530   39.2990 N   0  0  0  0  0  0  0  0  0  0  0  0
   38.4440   30.2290   38.4930 C   0  0  0  0  0  3  0  0  0  0  0  0
   37.8340   30.9180   37.9130 H   0  0  0  0  0  0  0  0  0  0  0  0
   37.6360   29.3240   39.3870 C   0  0  0  0  0  3  0  0  0  0  0  0
   38.2460   28.4470   39.6730 H   0  0  0  0  0  0  0  0  0  0  0  0
   37.1090   30.0090   40.5350 N   0  0  0  0  0  0  0  0  0  0  0  0
   36.7140   29.2800   41.1780 H   0  0  0  0  0  0  0  0  0  0  0  0
   38.0610   30.8430   41.2050 C   0  0  0  0  0  2  0  0  0  0  0  0
   39.4920   30.6350   40.7090 C   0  0  0  0  0  2  0  0  0  0  0  0
  1  7  1  6  0  0  0
  1  6  1  0  0  0  0
  1  2  1  0  0  0  0
  2  8  1  6  0  0  0
  2  3  1  0  0  0  0
  2 17  1  0  0  0  0
  4 10  1  0  0  0  0
  4  3  1  0  0  0  0
  5  6  1  0  0  0  0
  5 11  1  1  0  0  0
  5  4  1  0  0  0  0
  6 12  1  1  0  0  0
  9  4  1  0  0  0  0
 13  1  1  0  0  0  0
 14 13  1  0  0  0  0
 15  5  1  0  0  0  0
 16 15  1  0  0  0  0
 17 18  1  0  0  0  0
 18 23  1  0  0  0  0
 19 18  2  0  0  0  0
 19 20  1  0  0  0  0
 20 21  2  0  0  0  0
 21 22  1  0  0  0  0
 22 25  1  0  0  0  0
 23 22  2  0  0  0  0
 24 19  1  0  0  0  0
 26 27  1  0  0  0  0
 26 20  1  0  0  0  0
 26 28  1  0  0  0  0
 27 28  1  0  0  0  0
 27 30  1  0  0  0  0
 28 33  1  0  0  0  0
 29 26  1  0  0  0  0
 31 27  1  0  0  0  0
 32 28  1  0  0  0  0
 34 35  1  0  0  0  0
 34  6  1  0  0  0  0
 35 37  1  0  0  0  0
 36 35  2  0  0  0  0
 37 45  1  0  0  0  0
 38 37  1  0  0  0  0
 38 40  1  0  0  0  0
 39 38  1  0  0  0  0
 40 41  1  0  0  0  0
 40 42  1  0  0  0  0
 42 43  1  0  0  0  0
 42 44  1  0  0  0  0
 45 44  1  0  0  0  0
M  END
>  <minimizedAffinity>
-6.49914694

>  <minimizedRMSD>
1.54024005

$$$$
