
 OpenBabel03242523553D

 45 48  0  0  1  0  0  0  0  0999 V2000
   42.8130   34.5010   38.7560 C   0  0  1  0  0  0  0  0  0  0  0  0
   42.9620   35.1860   40.1080 C   0  0  1  0  0  0  0  0  0  0  0  0
   41.6770   35.4210   40.6280 O   0  0  0  0  0  0  0  0  0  0  0  0
   40.7530   35.7580   39.6350 C   0  0  0  0  0  0  0  0  0  0  0  0
   40.4330   34.5820   38.7380 C   0  0  2  0  0  0  0  0  0  0  0  0
   41.6390   33.5840   38.8770 C   0  0  1  0  0  0  0  0  0  0  0  0
   43.7510   33.9420   38.5090 H   0  0  0  0  0  0  0  0  0  0  0  0
   43.5550   36.1110   40.0650 H   0  0  0  0  0  0  0  0  0  0  0  0
   41.0140   36.6630   39.0740 H   0  0  0  0  0  0  0  0  0  0  0  0
   39.8160   35.9850   40.1840 H   0  0  0  0  0  0  0  0  0  0  0  0
   39.5090   34.0530   39.0260 H   0  0  0  0  0  0  0  0  0  0  0  0
   41.4270   33.3210   39.9620 H   0  0  0  0  0  0  0  0  0  0  0  0
   42.6030   35.4460   37.7420 O   0  0  0  0  0  0  0  0  0  0  0  0
   43.4830   35.7060   37.4040 H   0  0  0  0  0  0  0  0  0  0  0  0
   40.4490   34.9890   37.4120 O   0  0  0  0  0  0  0  0  0  0  0  0
   40.0210   34.2900   36.8440 H   0  0  0  0  0  0  0  0  0  0  0  0
   43.4940   34.1980   40.9590 O   0  0  0  0  0  0  0  0  0  0  0  0
   44.6040   34.3410   41.6920 C   0  0  0  0  0  0  0  0  0  0  0  0
   45.8670   34.4400   41.0900 C   0  0  0  0  0  0  0  0  0  0  0  0
   46.9770   34.5890   41.9050 C   0  0  0  0  0  0  0  0  0  0  0  0
   46.8100   34.6370   43.2780 N   0  0  0  0  0  0  0  0  0  0  0  0
   45.5770   34.5390   43.8230 C   0  0  0  0  0  0  0  0  0  0  0  0
   44.4780   34.3910   43.0360 N   0  0  0  0  0  0  0  0  0  0  0  0
   45.9750   34.3990   40.0170 H   0  0  0  0  0  0  0  0  0  0  0  0
   45.4660   34.5770   44.8980 H   0  0  0  0  0  0  0  0  0  0  0  0
   48.3580   34.6840   41.3400 C   0  0  0  0  0  0  0  0  0  0  0  0
   49.0780   36.0220   41.5070 C   0  0  0  0  0  0  0  0  0  0  0  0
   49.5070   34.7040   42.1860 C   0  0  0  0  0  0  0  0  0  0  0  0
   48.4020   34.2410   40.3070 H   0  0  0  0  0  0  0  0  0  0  0  0
   48.5820   36.7790   42.1310 H   0  0  0  0  0  0  0  0  0  0  0  0
   49.6930   36.3390   40.6450 H   0  0  0  0  0  0  0  0  0  0  0  0
   50.4650   34.2660   41.8440 H   0  0  0  0  0  0  0  0  0  0  0  0
   49.4210   34.7080   43.2910 H   0  0  0  0  0  0  0  0  0  0  0  0
   41.5020   32.6450   37.9260 O   0  0  0  0  0  0  0  0  0  0  0  0
   40.7840   31.4980   37.9580 C   0  0  0  0  0  0  0  0  0  0  0  0
   39.5860   31.4470   37.4370 O   0  0  0  0  0  0  0  0  0  0  0  0
   40.7600   30.1240   38.3660 N   0  0  0  0  0  0  0  0  0  0  0  0
   41.2990   29.3330   37.2750 C   0  0  0  0  0  3  0  0  0  0  0  0
   40.7760   29.4390   36.3280 H   0  0  0  0  0  0  0  0  0  0  0  0
   41.4050   27.9040   37.7410 C   0  0  0  0  0  3  0  0  0  0  0  0
   42.2130   27.8190   38.4900 H   0  0  0  0  0  0  0  0  0  0  0  0
   40.1580   27.3910   38.2370 N   0  0  0  0  0  0  0  0  0  0  0  0
   40.3590   26.4670   38.6910 H   0  0  0  0  0  0  0  0  0  0  0  0
   39.4740   28.2790   39.1310 C   0  0  0  0  0  2  0  0  0  0  0  0
   40.3320   29.4710   39.5590 C   0  0  0  0  0  2  0  0  0  0  0  0
  1  7  1  6  0  0  0
  1  6  1  0  0  0  0
  1  2  1  0  0  0  0
  2  8  1  6  0  0  0
  2  3  1  0  0  0  0
  2 17  1  0  0  0  0
  4 10  1  0  0  0  0
  4  3  1  0  0  0  0
  5  6  1  0  0  0  0
  5 11  1  1  0  0  0
  5  4  1  0  0  0  0
  6 12  1  1  0  0  0
  9  4  1  0  0  0  0
 13  1  1  0  0  0  0
 14 13  1  0  0  0  0
 15  5  1  0  0  0  0
 16 15  1  0  0  0  0
 17 18  1  0  0  0  0
 18 23  1  0  0  0  0
 19 18  2  0  0  0  0
 19 20  1  0  0  0  0
 20 21  2  0  0  0  0
 21 22  1  0  0  0  0
 22 25  1  0  0  0  0
 23 22  2  0  0  0  0
 24 19  1  0  0  0  0
 26 27  1  0  0  0  0
 26 20  1  0  0  0  0
 26 28  1  0  0  0  0
 27 30  1  0  0  0  0
 27 28  1  0  0  0  0
 28 33  1  0  0  0  0
 29 26  1  0  0  0  0
 31 27  1  0  0  0  0
 32 28  1  0  0  0  0
 34 35  1  0  0  0  0
 34  6  1  0  0  0  0
 35 37  1  0  0  0  0
 36 35  2  0  0  0  0
 37 45  1  0  0  0  0
 38 40  1  0  0  0  0
 38 37  1  0  0  0  0
 39 38  1  0  0  0  0
 40 42  1  0  0  0  0
 40 41  1  0  0  0  0
 42 43  1  0  0  0  0
 42 44  1  0  0  0  0
 44 45  1  0  0  0  0
M  END
>  <minimizedAffinity>
-5.9729352

>  <minimizedRMSD>
0.176115662

$$$$
