
 OpenBabel03242523553D

 45 48  0  0  1  0  0  0  0  0999 V2000
   42.7960   34.4400   38.8020 C   0  0  1  0  0  0  0  0  0  0  0  0
   42.9670   35.1790   40.1240 C   0  0  1  0  0  0  0  0  0  0  0  0
   41.6910   35.4690   40.6360 O   0  0  0  0  0  0  0  0  0  0  0  0
   40.7730   35.7880   39.6320 C   0  0  0  0  0  0  0  0  0  0  0  0
   40.4190   34.5830   38.7860 C   0  0  2  0  0  0  0  0  0  0  0  0
   41.5990   33.5600   38.9650 C   0  0  1  0  0  0  0  0  0  0  0  0
   43.7190   33.8470   38.5770 H   0  0  0  0  0  0  0  0  0  0  0  0
   43.5840   36.0850   40.0410 H   0  0  0  0  0  0  0  0  0  0  0  0
   41.0550   36.6610   39.0320 H   0  0  0  0  0  0  0  0  0  0  0  0
   39.8430   36.0620   40.1730 H   0  0  0  0  0  0  0  0  0  0  0  0
   39.4830   34.0910   39.0990 H   0  0  0  0  0  0  0  0  0  0  0  0
   41.3840   33.3500   40.0610 H   0  0  0  0  0  0  0  0  0  0  0  0
   42.6080   35.3470   37.7500 O   0  0  0  0  0  0  0  0  0  0  0  0
   43.4930   35.5690   37.3990 H   0  0  0  0  0  0  0  0  0  0  0  0
   40.4410   34.9330   37.4440 O   0  0  0  0  0  0  0  0  0  0  0  0
   39.9940   34.2220   36.9080 H   0  0  0  0  0  0  0  0  0  0  0  0
   43.4760   34.2140   41.0150 O   0  0  0  0  0  0  0  0  0  0  0  0
   44.5970   34.3550   41.7330 C   0  0  0  0  0  0  0  0  0  0  0  0
   45.8510   34.4520   41.1130 C   0  0  0  0  0  0  0  0  0  0  0  0
   46.9730   34.6000   41.9130 C   0  0  0  0  0  0  0  0  0  0  0  0
   46.8250   34.6480   43.2880 N   0  0  0  0  0  0  0  0  0  0  0  0
   45.5990   34.5530   43.8500 C   0  0  0  0  0  0  0  0  0  0  0  0
   44.4890   34.4070   43.0780 N   0  0  0  0  0  0  0  0  0  0  0  0
   45.9450   34.4100   40.0390 H   0  0  0  0  0  0  0  0  0  0  0  0
   45.5030   34.5920   44.9260 H   0  0  0  0  0  0  0  0  0  0  0  0
   48.3450   34.6920   41.3290 C   0  0  0  0  0  0  0  0  0  0  0  0
   49.0780   36.0220   41.5010 C   0  0  0  0  0  0  0  0  0  0  0  0
   49.5070   34.6930   42.1580 C   0  0  0  0  0  0  0  0  0  0  0  0
   48.3720   34.2610   40.2900 H   0  0  0  0  0  0  0  0  0  0  0  0
   48.5960   36.7750   42.1420 H   0  0  0  0  0  0  0  0  0  0  0  0
   49.6820   36.3460   40.6340 H   0  0  0  0  0  0  0  0  0  0  0  0
   50.4570   34.2520   41.7970 H   0  0  0  0  0  0  0  0  0  0  0  0
   49.4370   34.6830   43.2640 H   0  0  0  0  0  0  0  0  0  0  0  0
   41.4340   32.5860   38.0550 O   0  0  0  0  0  0  0  0  0  0  0  0
   40.6650   31.4740   38.1270 C   0  0  0  0  0  0  0  0  0  0  0  0
   39.6270   31.3310   37.3440 O   0  0  0  0  0  0  0  0  0  0  0  0
   40.4640   30.2100   38.7710 N   0  0  0  0  0  0  0  0  0  0  0  0
   39.5990   30.4350   39.9160 C   0  0  0  0  0  3  0  0  0  0  0  0
   39.9740   31.1550   40.6400 H   0  0  0  0  0  0  0  0  0  0  0  0
   39.2700   29.0950   40.5220 C   0  0  0  0  0  3  0  0  0  0  0  0
   38.5930   28.5410   39.8460 H   0  0  0  0  0  0  0  0  0  0  0  0
   40.4420   28.3330   40.8520 N   0  0  0  0  0  0  0  0  0  0  0  0
   40.1250   27.3650   41.1020 H   0  0  0  0  0  0  0  0  0  0  0  0
   41.4330   28.3110   39.8170 C   0  0  0  0  0  2  0  0  0  0  0  0
   40.9300   28.8920   38.4950 C   0  0  0  0  0  2  0  0  0  0  0  0
  1  7  1  6  0  0  0
  1  6  1  0  0  0  0
  1  2  1  0  0  0  0
  2  8  1  6  0  0  0
  2  3  1  0  0  0  0
  2 17  1  0  0  0  0
  4 10  1  0  0  0  0
  4  3  1  0  0  0  0
  5  6  1  0  0  0  0
  5 11  1  1  0  0  0
  5  4  1  0  0  0  0
  6 12  1  1  0  0  0
  9  4  1  0  0  0  0
 13  1  1  0  0  0  0
 14 13  1  0  0  0  0
 15  5  1  0  0  0  0
 16 15  1  0  0  0  0
 17 18  1  0  0  0  0
 18 23  1  0  0  0  0
 19 18  2  0  0  0  0
 19 20  1  0  0  0  0
 20 21  2  0  0  0  0
 21 22  1  0  0  0  0
 22 25  1  0  0  0  0
 23 22  2  0  0  0  0
 24 19  1  0  0  0  0
 26 27  1  0  0  0  0
 26 20  1  0  0  0  0
 26 28  1  0  0  0  0
 27 30  1  0  0  0  0
 27 28  1  0  0  0  0
 28 33  1  0  0  0  0
 29 26  1  0  0  0  0
 31 27  1  0  0  0  0
 32 28  1  0  0  0  0
 34 35  1  0  0  0  0
 34  6  1  0  0  0  0
 35 37  1  0  0  0  0
 36 35  2  0  0  0  0
 37 38  1  0  0  0  0
 38 40  1  0  0  0  0
 38 39  1  0  0  0  0
 40 42  1  0  0  0  0
 41 40  1  0  0  0  0
 42 43  1  0  0  0  0
 44 42  1  0  0  0  0
 45 37  1  0  0  0  0
 45 44  1  0  0  0  0
M  END
>  <minimizedAffinity>
-6.09407806

>  <minimizedRMSD>
0.604874671

$$$$
