
 OpenBabel03242523553D

 45 48  0  0  1  0  0  0  0  0999 V2000
   42.8040   34.4240   38.7950 C   0  0  1  0  0  0  0  0  0  0  0  0
   42.9930   35.1570   40.1160 C   0  0  1  0  0  0  0  0  0  0  0  0
   41.7230   35.4640   40.6360 O   0  0  0  0  0  0  0  0  0  0  0  0
   40.8050   35.7980   39.6370 C   0  0  0  0  0  0  0  0  0  0  0  0
   40.4280   34.6000   38.7920 C   0  0  2  0  0  0  0  0  0  0  0  0
   41.5950   33.5600   38.9620 C   0  0  1  0  0  0  0  0  0  0  0  0
   43.7170   33.8170   38.5630 H   0  0  0  0  0  0  0  0  0  0  0  0
   43.6220   36.0540   40.0310 H   0  0  0  0  0  0  0  0  0  0  0  0
   41.0960   36.6680   39.0380 H   0  0  0  0  0  0  0  0  0  0  0  0
   39.8820   36.0850   40.1840 H   0  0  0  0  0  0  0  0  0  0  0  0
   39.4870   34.1210   39.1090 H   0  0  0  0  0  0  0  0  0  0  0  0
   41.3830   33.3510   40.0590 H   0  0  0  0  0  0  0  0  0  0  0  0
   42.6220   35.3340   37.7440 O   0  0  0  0  0  0  0  0  0  0  0  0
   43.5090   35.5440   37.3890 H   0  0  0  0  0  0  0  0  0  0  0  0
   40.4480   34.9530   37.4500 O   0  0  0  0  0  0  0  0  0  0  0  0
   39.9880   34.2490   36.9150 H   0  0  0  0  0  0  0  0  0  0  0  0
   43.4930   34.1830   41.0030 O   0  0  0  0  0  0  0  0  0  0  0  0
   44.6120   34.3130   41.7250 C   0  0  0  0  0  0  0  0  0  0  0  0
   45.8660   34.4360   41.1090 C   0  0  0  0  0  0  0  0  0  0  0  0
   46.9860   34.5700   41.9130 C   0  0  0  0  0  0  0  0  0  0  0  0
   46.8370   34.5780   43.2890 N   0  0  0  0  0  0  0  0  0  0  0  0
   45.6120   34.4570   43.8470 C   0  0  0  0  0  0  0  0  0  0  0  0
   44.5040   34.3250   43.0710 N   0  0  0  0  0  0  0  0  0  0  0  0
   45.9600   34.4260   40.0340 H   0  0  0  0  0  0  0  0  0  0  0  0
   45.5150   34.4650   44.9240 H   0  0  0  0  0  0  0  0  0  0  0  0
   48.3580   34.6890   41.3320 C   0  0  0  0  0  0  0  0  0  0  0  0
   49.0680   36.0300   41.5170 C   0  0  0  0  0  0  0  0  0  0  0  0
   49.5180   34.7020   42.1640 C   0  0  0  0  0  0  0  0  0  0  0  0
   48.3930   34.2670   40.2900 H   0  0  0  0  0  0  0  0  0  0  0  0
   48.5740   36.7690   42.1630 H   0  0  0  0  0  0  0  0  0  0  0  0
   49.6690   36.3700   40.6540 H   0  0  0  0  0  0  0  0  0  0  0  0
   50.4750   34.2800   41.8010 H   0  0  0  0  0  0  0  0  0  0  0  0
   49.4460   34.6820   43.2690 H   0  0  0  0  0  0  0  0  0  0  0  0
   41.4110   32.5910   38.0510 O   0  0  0  0  0  0  0  0  0  0  0  0
   40.5960   31.5110   38.1080 C   0  0  0  0  0  0  0  0  0  0  0  0
   39.4700   31.4910   37.4430 O   0  0  0  0  0  0  0  0  0  0  0  0
   40.4000   30.1990   38.6510 N   0  0  0  0  0  0  0  0  0  0  0  0
   39.6250   29.4390   37.6870 C   0  0  0  0  0  3  0  0  0  0  0  0
   38.6620   29.8710   37.4270 H   0  0  0  0  0  0  0  0  0  0  0  0
   39.5270   28.0180   38.1820 C   0  0  0  0  0  3  0  0  0  0  0  0
   40.5150   27.5300   38.0980 H   0  0  0  0  0  0  0  0  0  0  0  0
   38.9970   27.9330   39.5150 N   0  0  0  0  0  0  0  0  0  0  0  0
   39.1230   26.9430   39.8370 H   0  0  0  0  0  0  0  0  0  0  0  0
   39.5770   28.8660   40.4350 C   0  0  0  0  0  2  0  0  0  0  0  0
   40.8050   29.5780   39.8690 C   0  0  0  0  0  2  0  0  0  0  0  0
  1  7  1  6  0  0  0
  1  6  1  0  0  0  0
  1  2  1  0  0  0  0
  2  8  1  6  0  0  0
  2  3  1  0  0  0  0
  2 17  1  0  0  0  0
  4 10  1  0  0  0  0
  4  3  1  0  0  0  0
  5  6  1  0  0  0  0
  5 11  1  1  0  0  0
  5  4  1  0  0  0  0
  6 12  1  1  0  0  0
  9  4  1  0  0  0  0
 13  1  1  0  0  0  0
 14 13  1  0  0  0  0
 15  5  1  0  0  0  0
 16 15  1  0  0  0  0
 17 18  1  0  0  0  0
 18 23  1  0  0  0  0
 19 18  2  0  0  0  0
 19 20  1  0  0  0  0
 20 21  2  0  0  0  0
 21 22  1  0  0  0  0
 22 25  1  0  0  0  0
 23 22  2  0  0  0  0
 24 19  1  0  0  0  0
 26 27  1  0  0  0  0
 26 20  1  0  0  0  0
 26 28  1  0  0  0  0
 27 30  1  0  0  0  0
 27 28  1  0  0  0  0
 28 33  1  0  0  0  0
 29 26  1  0  0  0  0
 31 27  1  0  0  0  0
 32 28  1  0  0  0  0
 34 35  1  0  0  0  0
 34  6  1  0  0  0  0
 35 37  1  0  0  0  0
 36 35  2  0  0  0  0
 37 45  1  0  0  0  0
 38 40  1  0  0  0  0
 38 37  1  0  0  0  0
 39 38  1  0  0  0  0
 40 42  1  0  0  0  0
 41 40  1  0  0  0  0
 42 43  1  0  0  0  0
 42 44  1  0  0  0  0
 45 44  1  0  0  0  0
M  END
>  <minimizedAffinity>
-6.08646297

>  <minimizedRMSD>
0.481936693

$$$$
