
 OpenBabel03242516543D

 45 48  0  0  1  0  0  0  0  0999 V2000
   47.6330   32.5700   41.2960 C   0  0  1  0  0  0  0  0  0  0  0  0
   47.0270   31.9610   40.1120 C   0  0  0  0  0  0  0  0  0  0  0  0
   47.9480   32.3080   38.9440 C   0  0  0  0  0  0  0  0  0  0  0  0
   47.7930   33.7970   38.7030 C   0  0  0  0  0  0  0  0  0  0  0  0
   48.0440   34.6500   39.9150 C   0  0  0  0  0  0  0  0  0  0  0  0
   47.6490   34.1010   41.2200 C   0  0  1  0  0  0  0  0  0  0  0  0
   48.7400   32.3250   41.2980 H   0  0  0  0  0  0  0  0  0  0  0  0
   46.0400   32.4180   39.8220 H   0  0  0  0  0  0  0  0  0  0  0  0
   46.9330   30.8760   40.2640 H   0  0  0  0  0  0  0  0  0  0  0  0
   48.9950   32.0550   39.1980 H   0  0  0  0  0  0  0  0  0  0  0  0
   47.5740   31.7930   38.0590 H   0  0  0  0  0  0  0  0  0  0  0  0
   46.7510   33.9620   38.3600 H   0  0  0  0  0  0  0  0  0  0  0  0
   48.5120   34.0500   37.9000 H   0  0  0  0  0  0  0  0  0  0  0  0
   49.1170   34.9310   39.8930 H   0  0  0  0  0  0  0  0  0  0  0  0
   47.4890   35.6040   39.7510 H   0  0  0  0  0  0  0  0  0  0  0  0
   48.4230   34.4110   41.9800 H   0  0  0  0  0  0  0  0  0  0  0  0
   45.3630   30.9930   43.8740 C   0  0  0  0  0  0  0  0  0  0  0  0
   45.9330   31.4180   42.6680 C   0  0  0  0  0  0  0  0  0  0  0  0
   47.1120   32.1620   42.5840 C   0  0  0  0  0  0  0  0  0  0  0  0
   47.6840   32.4550   43.7520 N   0  0  0  0  0  0  0  0  0  0  0  0
   47.1440   32.0500   44.9310 C   0  0  0  0  0  0  0  0  0  0  0  0
   46.0130   31.3370   45.0070 N   0  0  0  0  0  0  0  0  0  0  0  0
   44.4450   30.4230   43.7960 H   0  0  0  0  0  0  0  0  0  0  0  0
   45.4410   31.1650   41.7200 H   0  0  0  0  0  0  0  0  0  0  0  0
   47.6390   32.3080   45.8650 H   0  0  0  0  0  0  0  0  0  0  0  0
   46.3990   34.6790   41.7160 C   0  0  0  0  0  0  0  0  0  0  0  0
   46.2620   35.4810   42.8590 C   0  0  0  0  0  0  0  0  0  0  0  0
   44.9780   35.9340   43.1340 C   0  0  0  0  0  0  0  0  0  0  0  0
   43.9570   35.5690   42.2790 C   0  0  0  0  0  0  0  0  0  0  0  0
   44.1140   34.7750   41.1540 C   0  0  0  0  0  0  0  0  0  0  0  0
   45.3740   34.3450   40.9060 N   0  0  0  0  0  0  0  0  0  0  0  0
   47.1450   35.6730   43.4140 H   0  0  0  0  0  0  0  0  0  0  0  0
   44.8530   36.5430   43.9960 H   0  0  0  0  0  0  0  0  0  0  0  0
   42.9820   35.9700   42.5720 H   0  0  0  0  0  0  0  0  0  0  0  0
   42.9680   34.4480   40.3160 C   0  0  0  0  0  0  0  0  0  0  0  0
   42.6520   35.2390   39.3900 O   0  0  0  0  0  0  0  0  0  0  0  0
   42.0630   33.3510   40.3130 N   0  0  0  0  0  0  0  0  0  0  0  0
   42.5050   32.2150   41.0900 C   0  0  0  0  0  0  0  0  0  0  0  0
   42.6850   31.3820   40.3480 H   0  0  0  0  0  0  0  0  0  0  0  0
   41.3600   31.7700   41.9770 C   0  0  0  0  0  0  0  0  0  0  0  0
   41.7810   31.6410   42.9920 H   0  0  0  0  0  0  0  0  0  0  0  0
   40.3190   32.7590   42.0560 N   0  0  0  0  0  0  0  0  0  0  0  0
   39.6390   32.4830   42.7790 H   0  0  0  0  0  0  0  0  0  0  0  0
   39.6980   33.0020   40.7660 C   0  0  0  0  0  0  0  0  0  0  0  0
   40.7600   33.0400   39.7170 C   0  0  0  0  0  0  0  0  0  0  0  0
  1  7  1  6  0  0  0
  1 19  1  0  0  0  0
  2  9  1  0  0  0  0
  2  1  1  0  0  0  0
  3 10  1  0  0  0  0
  3  2  1  0  0  0  0
  4  3  1  0  0  0  0
  4  5  1  0  0  0  0
  5  6  1  0  0  0  0
  6  1  1  0  0  0  0
  6 26  1  0  0  0  0
  6 16  1  1  0  0  0
  8  2  1  0  0  0  0
 11  3  1  0  0  0  0
 12  4  1  0  0  0  0
 13  4  1  0  0  0  0
 14  5  1  0  0  0  0
 15  5  1  0  0  0  0
 17 22  1  0  0  0  0
 18 17  2  0  0  0  0
 19 18  1  0  0  0  0
 19 20  2  0  0  0  0
 20 21  1  0  0  0  0
 21 22  2  0  0  0  0
 21 25  1  0  0  0  0
 23 17  1  0  0  0  0
 24 18  1  0  0  0  0
 26 27  1  0  0  0  0
 27 28  2  0  0  0  0
 27 32  1  0  0  0  0
 28 33  1  0  0  0  0
 29 34  1  0  0  0  0
 29 28  1  0  0  0  0
 30 29  2  0  0  0  0
 31 30  1  0  0  0  0
 31 26  2  0  0  0  0
 35 30  1  0  0  0  0
 36 35  2  0  0  0  0
 37 35  1  0  0  0  0
 37 38  1  0  0  0  0
 38 40  1  0  0  0  0
 39 38  1  0  0  0  0
 40 42  1  0  0  0  0
 40 41  1  0  0  0  0
 42 43  1  0  0  0  0
 44 42  1  0  0  0  0
 45 37  1  0  0  0  0
 45 44  1  0  0  0  0
M  END
>  <minimizedAffinity>
-5.92907476

>  <minimizedRMSD>
1.44287193

$$$$
