
 OpenBabel03242523553D

 45 48  0  0  1  0  0  0  0  0999 V2000
   42.7990   34.4160   38.7930 C   0  0  1  0  0  0  0  0  0  0  0  0
   43.0030   35.1570   40.1080 C   0  0  1  0  0  0  0  0  0  0  0  0
   41.7390   35.4850   40.6300 O   0  0  0  0  0  0  0  0  0  0  0  0
   40.8200   35.8220   39.6330 C   0  0  0  0  0  0  0  0  0  0  0  0
   40.4260   34.6220   38.7980 C   0  0  2  0  0  0  0  0  0  0  0  0
   41.5810   33.5690   38.9730 C   0  0  1  0  0  0  0  0  0  0  0  0
   43.7040   33.7970   38.5630 H   0  0  0  0  0  0  0  0  0  0  0  0
   43.6430   36.0460   40.0120 H   0  0  0  0  0  0  0  0  0  0  0  0
   41.1200   36.6830   39.0250 H   0  0  0  0  0  0  0  0  0  0  0  0
   39.9040   36.1240   40.1810 H   0  0  0  0  0  0  0  0  0  0  0  0
   39.4810   34.1570   39.1230 H   0  0  0  0  0  0  0  0  0  0  0  0
   41.3710   33.3710   40.0720 H   0  0  0  0  0  0  0  0  0  0  0  0
   42.6240   35.3200   37.7360 O   0  0  0  0  0  0  0  0  0  0  0  0
   43.5110   35.5160   37.3750 H   0  0  0  0  0  0  0  0  0  0  0  0
   40.4450   34.9620   37.4530 O   0  0  0  0  0  0  0  0  0  0  0  0
   39.9730   34.2590   36.9270 H   0  0  0  0  0  0  0  0  0  0  0  0
   43.4950   34.1850   41.0000 O   0  0  0  0  0  0  0  0  0  0  0  0
   44.6130   34.3110   41.7240 C   0  0  0  0  0  0  0  0  0  0  0  0
   45.8680   34.4370   41.1100 C   0  0  0  0  0  0  0  0  0  0  0  0
   46.9870   34.5670   41.9150 C   0  0  0  0  0  0  0  0  0  0  0  0
   46.8370   34.5700   43.2910 N   0  0  0  0  0  0  0  0  0  0  0  0
   45.6120   34.4470   43.8480 C   0  0  0  0  0  0  0  0  0  0  0  0
   44.5040   34.3180   43.0700 N   0  0  0  0  0  0  0  0  0  0  0  0
   45.9630   34.4310   40.0350 H   0  0  0  0  0  0  0  0  0  0  0  0
   45.5140   34.4510   44.9250 H   0  0  0  0  0  0  0  0  0  0  0  0
   48.3600   34.6870   41.3360 C   0  0  0  0  0  0  0  0  0  0  0  0
   49.0680   36.0300   41.5200 C   0  0  0  0  0  0  0  0  0  0  0  0
   49.5180   34.7030   42.1690 C   0  0  0  0  0  0  0  0  0  0  0  0
   48.3970   34.2650   40.2940 H   0  0  0  0  0  0  0  0  0  0  0  0
   48.5710   36.7690   42.1650 H   0  0  0  0  0  0  0  0  0  0  0  0
   49.6690   36.3700   40.6580 H   0  0  0  0  0  0  0  0  0  0  0  0
   50.4770   34.2820   41.8080 H   0  0  0  0  0  0  0  0  0  0  0  0
   49.4450   34.6840   43.2740 H   0  0  0  0  0  0  0  0  0  0  0  0
   41.3810   32.5940   38.0700 O   0  0  0  0  0  0  0  0  0  0  0  0
   40.5570   31.5220   38.1420 C   0  0  0  0  0  0  0  0  0  0  0  0
   39.4680   31.4700   37.4200 O   0  0  0  0  0  0  0  0  0  0  0  0
   40.3240   30.2420   38.7430 N   0  0  0  0  0  0  0  0  0  0  0  0
   39.9290   29.3280   37.6870 C   0  0  0  0  0  3  0  0  0  0  0  0
   39.0500   29.6290   37.1230 H   0  0  0  0  0  0  0  0  0  0  0  0
   39.8120   27.9480   38.2820 C   0  0  0  0  0  3  0  0  0  0  0  0
   40.8200   27.5680   38.5320 H   0  0  0  0  0  0  0  0  0  0  0  0
   38.9280   27.9070   39.4140 N   0  0  0  0  0  0  0  0  0  0  0  0
   39.0370   26.9660   39.8620 H   0  0  0  0  0  0  0  0  0  0  0  0
   39.1350   28.9670   40.3560 C   0  0  0  0  0  2  0  0  0  0  0  0
   40.4100   29.7660   40.0840 C   0  0  0  0  0  2  0  0  0  0  0  0
  1  7  1  6  0  0  0
  1  6  1  0  0  0  0
  1  2  1  0  0  0  0
  2  8  1  6  0  0  0
  2  3  1  0  0  0  0
  2 17  1  0  0  0  0
  4 10  1  0  0  0  0
  4  3  1  0  0  0  0
  5  6  1  0  0  0  0
  5 11  1  1  0  0  0
  5  4  1  0  0  0  0
  6 12  1  1  0  0  0
  9  4  1  0  0  0  0
 13  1  1  0  0  0  0
 14 13  1  0  0  0  0
 15  5  1  0  0  0  0
 16 15  1  0  0  0  0
 17 18  1  0  0  0  0
 18 23  1  0  0  0  0
 19 18  2  0  0  0  0
 19 20  1  0  0  0  0
 20 21  2  0  0  0  0
 21 22  1  0  0  0  0
 22 25  1  0  0  0  0
 23 22  2  0  0  0  0
 24 19  1  0  0  0  0
 26 27  1  0  0  0  0
 26 20  1  0  0  0  0
 26 28  1  0  0  0  0
 27 30  1  0  0  0  0
 27 28  1  0  0  0  0
 28 33  1  0  0  0  0
 29 26  1  0  0  0  0
 31 27  1  0  0  0  0
 32 28  1  0  0  0  0
 34 35  1  0  0  0  0
 34  6  1  0  0  0  0
 35 37  1  0  0  0  0
 36 35  2  0  0  0  0
 37 45  1  0  0  0  0
 38 40  1  0  0  0  0
 38 37  1  0  0  0  0
 39 38  1  0  0  0  0
 40 41  1  0  0  0  0
 40 42  1  0  0  0  0
 42 43  1  0  0  0  0
 42 44  1  0  0  0  0
 45 44  1  0  0  0  0
M  END
>  <minimizedAffinity>
-6.0863843

>  <minimizedRMSD>
0.55869478

$$$$
