
 OpenBabel03252508513D

 28 30  0  0  0  0  0  0  0  0999 V2000
   45.9500   34.1500   41.0430 C   0  0  0  0  0  0  0  0  0  0  0  0
   46.5340   34.8080   42.1310 C   0  0  0  0  0  0  0  0  0  0  0  0
   47.8730   35.2080   41.9980 C   0  0  0  0  0  0  0  0  0  0  0  0
   48.5000   34.9230   40.8140 N   0  0  0  0  0  0  0  0  0  0  0  0
   47.9020   34.2940   39.8090 C   0  0  0  0  0  0  0  0  0  0  0  0
   46.6190   33.8970   39.9030 N   0  0  0  0  0  0  0  0  0  0  0  0
   48.3480   35.7200   42.8270 H   0  0  0  0  0  0  0  0  0  0  0  0
   48.4820   34.1210   38.9280 H   0  0  0  0  0  0  0  0  0  0  0  0
   45.7590   35.0490   43.3340 C   0  0  0  0  0  0  0  0  0  0  0  0
   45.0820   36.2290   43.5680 C   0  0  0  0  0  0  0  0  0  0  0  0
   44.5000   36.0150   44.8060 C   0  0  0  0  0  0  0  0  0  0  0  0
   44.8070   34.7810   45.2930 N   0  0  0  0  0  0  0  0  0  0  0  0
   45.5640   34.2300   44.3840 N   0  0  0  0  0  0  0  0  0  0  0  0
   44.9910   37.1290   42.9700 H   0  0  0  0  0  0  0  0  0  0  0  0
   43.8730   36.7510   45.3230 H   0  0  0  0  0  0  0  0  0  0  0  0
   44.4540   34.4490   46.2180 H   0  0  0  0  0  0  0  0  0  0  0  0
   44.6300   33.7520   41.1640 O   0  0  0  0  0  0  0  0  0  0  0  0
   43.5410   34.4360   40.6920 C   0  0  0  0  0  0  0  0  0  0  0  0
   43.3550   35.6950   40.6520 O   0  0  0  0  0  0  0  0  0  0  0  0
   42.2920   33.9820   40.1100 N   0  0  0  0  0  0  0  0  0  0  0  0
   42.3470   32.7360   39.3740 C   0  0  0  0  0  0  0  0  0  0  0  0
   41.8980   31.9770   40.0800 H   0  0  0  0  0  0  0  0  0  0  0  0
   41.3910   32.8840   38.2100 C   0  0  0  0  0  0  0  0  0  0  0  0
   41.8660   32.3830   37.3370 H   0  0  0  0  0  0  0  0  0  0  0  0
   41.1990   34.2590   37.8120 N   0  0  0  0  0  0  0  0  0  0  0  0
   40.5710   34.2500   36.9860 H   0  0  0  0  0  0  0  0  0  0  0  0
   40.5580   35.0490   38.8420 C   0  0  0  0  0  0  0  0  0  0  0  0
   41.0290   34.6850   40.2210 C   0  0  0  0  0  0  0  0  0  0  0  0
  1 17  1  0  0  0  0
  1  2  1  0  0  0  0
  2  9  1  0  0  0  0
  3  2  2  0  0  0  0
  3  7  1  0  0  0  0
  4  3  1  0  0  0  0
  5  6  1  0  0  0  0
  5  4  2  0  0  0  0
  6  1  2  0  0  0  0
  8  5  1  0  0  0  0
  9 10  1  0  0  0  0
  9 13  2  0  0  0  0
 10 11  2  0  0  0  0
 11 12  1  0  0  0  0
 11 15  1  0  0  0  0
 12 16  1  0  0  0  0
 13 12  1  0  0  0  0
 14 10  1  0  0  0  0
 18 17  1  0  0  0  0
 19 18  2  0  0  0  0
 20 28  1  0  0  0  0
 20 18  1  0  0  0  0
 21 22  1  0  0  0  0
 21 20  1  0  0  0  0
 23 21  1  0  0  0  0
 24 23  1  0  0  0  0
 25 23  1  0  0  0  0
 25 27  1  0  0  0  0
 26 25  1  0  0  0  0
 27 28  1  0  0  0  0
M  END
>  <minimizedAffinity>
-5.7990222

>  <minimizedRMSD>
0.685983241

$$$$
