
 OpenBabel03252507173D

 29 31  0  0  0  0  0  0  0  0999 V2000
   45.3590   36.1230   43.0840 C   0  0  0  0  0  0  0  0  0  0  0  0
   45.9440   34.8490   42.8930 C   0  0  0  0  0  0  0  0  0  0  0  0
   45.8350   33.9390   43.9190 C   0  0  0  0  0  0  0  0  0  0  0  0
   45.1860   34.2830   45.0530 N   0  0  0  0  0  0  0  0  0  0  0  0
   44.6270   35.5180   45.2200 C   0  0  0  0  0  0  0  0  0  0  0  0
   44.7300   36.4050   44.2260 N   0  0  0  0  0  0  0  0  0  0  0  0
   45.4220   36.8760   42.2940 H   0  0  0  0  0  0  0  0  0  0  0  0
   44.1440   35.6360   46.1830 H   0  0  0  0  0  0  0  0  0  0  0  0
   46.6120   34.5540   41.6750 C   0  0  0  0  0  0  0  0  0  0  0  0
   47.7110   35.1250   41.4570 O   0  0  0  0  0  0  0  0  0  0  0  0
   46.2270   33.6810   40.6150 N   0  0  0  0  0  0  0  0  0  0  0  0
   47.2970   33.0570   39.8570 C   0  0  0  0  0  0  0  0  0  0  0  0
   47.0570   31.9530   39.8460 H   0  0  0  0  0  0  0  0  0  0  0  0
   47.2500   33.4860   38.4150 C   0  0  0  0  0  0  0  0  0  0  0  0
   47.7140   32.6640   37.8100 H   0  0  0  0  0  0  0  0  0  0  0  0
   45.9150   33.6900   37.9630 N   0  0  0  0  0  0  0  0  0  0  0  0
   45.6910   34.6260   37.6180 H   0  0  0  0  0  0  0  0  0  0  0  0
   44.8920   33.0100   38.6960 C   0  0  0  0  0  0  0  0  0  0  0  0
   44.8950   33.3120   40.1650 C   0  0  0  0  0  0  0  0  0  0  0  0
   46.4320   32.6140   43.7420 C   0  0  0  0  0  0  0  0  0  0  0  0
   45.6210   31.5240   43.5330 C   0  0  0  0  0  0  0  0  0  0  0  0
   46.2050   30.2930   43.3710 C   0  0  0  0  0  0  0  0  0  0  0  0
   47.5930   30.0900   43.4090 C   0  0  0  0  0  0  0  0  0  0  0  0
   48.3470   31.2340   43.6250 C   0  0  0  0  0  0  0  0  0  0  0  0
   47.7610   32.4410   43.7820 N   0  0  0  0  0  0  0  0  0  0  0  0
   44.5410   31.6200   43.4940 H   0  0  0  0  0  0  0  0  0  0  0  0
   45.6110   29.4040   43.2040 H   0  0  0  0  0  0  0  0  0  0  0  0
   48.0810   29.1470   43.2870 H   0  0  0  0  0  0  0  0  0  0  0  0
   49.4390   31.2140   43.6750 H   0  0  0  0  0  0  0  0  0  0  0  0
  1  6  1  0  0  0  0
  2  1  2  0  0  0  0
  2  3  1  0  0  0  0
  3  4  2  0  0  0  0
  4  5  1  0  0  0  0
  5  8  1  0  0  0  0
  6  5  2  0  0  0  0
  7  1  1  0  0  0  0
  9  2  1  0  0  0  0
 10  9  2  0  0  0  0
 11  9  1  0  0  0  0
 12 11  1  0  0  0  0
 13 12  1  0  0  0  0
 14 12  1  0  0  0  0
 15 14  1  0  0  0  0
 16 14  1  0  0  0  0
 16 18  1  0  0  0  0
 17 16  1  0  0  0  0
 18 19  1  0  0  0  0
 19 11  1  0  0  0  0
 20 25  1  0  0  0  0
 20  3  1  0  0  0  0
 21 20  2  0  0  0  0
 22 23  2  0  0  0  0
 22 21  1  0  0  0  0
 23 24  1  0  0  0  0
 24 29  1  0  0  0  0
 24 25  2  0  0  0  0
 26 21  1  0  0  0  0
 27 22  1  0  0  0  0
 28 23  1  0  0  0  0
M  END
>  <minimizedAffinity>
-4.71559143

>  <minimizedRMSD>
0.383996636

$$$$
