
 OpenBabel03252508513D

 28 30  0  0  0  0  0  0  0  0999 V2000
   45.9700   34.1930   41.0540 C   0  0  0  0  0  0  0  0  0  0  0  0
   46.5520   34.8210   42.1600 C   0  0  0  0  0  0  0  0  0  0  0  0
   47.9020   35.1930   42.0510 C   0  0  0  0  0  0  0  0  0  0  0  0
   48.5400   34.9110   40.8730 N   0  0  0  0  0  0  0  0  0  0  0  0
   47.9420   34.3100   39.8500 C   0  0  0  0  0  0  0  0  0  0  0  0
   46.6490   33.9400   39.9200 N   0  0  0  0  0  0  0  0  0  0  0  0
   48.3760   35.6820   42.8950 H   0  0  0  0  0  0  0  0  0  0  0  0
   48.5310   34.1360   38.9750 H   0  0  0  0  0  0  0  0  0  0  0  0
   45.7650   35.0640   43.3550 C   0  0  0  0  0  0  0  0  0  0  0  0
   45.0730   36.2370   43.5740 C   0  0  0  0  0  0  0  0  0  0  0  0
   44.4850   36.0270   44.8100 C   0  0  0  0  0  0  0  0  0  0  0  0
   44.8030   34.8000   45.3090 N   0  0  0  0  0  0  0  0  0  0  0  0
   45.5730   34.2510   44.4100 N   0  0  0  0  0  0  0  0  0  0  0  0
   44.9750   37.1310   42.9680 H   0  0  0  0  0  0  0  0  0  0  0  0
   43.8450   36.7590   45.3160 H   0  0  0  0  0  0  0  0  0  0  0  0
   44.4470   34.4720   46.2350 H   0  0  0  0  0  0  0  0  0  0  0  0
   44.6390   33.8230   41.1510 O   0  0  0  0  0  0  0  0  0  0  0  0
   43.5860   34.4580   40.5480 C   0  0  0  0  0  0  0  0  0  0  0  0
   43.1730   35.6490   40.7290 O   0  0  0  0  0  0  0  0  0  0  0  0
   42.6310   34.0130   39.5520 N   0  0  0  0  0  0  0  0  0  0  0  0
   41.2440   34.3420   39.8040 C   0  0  0  0  0  3  0  0  0  0  0  0
   41.0350   35.2160   39.1180 H   0  0  0  0  0  0  0  0  0  0  0  0
   40.4270   33.1730   39.2990 C   0  0  0  0  0  3  0  0  0  0  0  0
   39.5930   33.0270   40.0210 H   0  0  0  0  0  0  0  0  0  0  0  0
   41.1630   31.9300   39.3010 N   0  0  0  0  0  0  0  0  0  0  0  0
   40.5080   31.1910   38.9870 H   0  0  0  0  0  0  0  0  0  0  0  0
   42.2810   31.9490   38.3810 C   0  0  0  0  0  2  0  0  0  0  0  0
   42.9770   33.2780   38.3500 C   0  0  0  0  0  2  0  0  0  0  0  0
  1 17  1  0  0  0  0
  1  2  1  0  0  0  0
  2  9  1  0  0  0  0
  3  2  2  0  0  0  0
  3  7  1  0  0  0  0
  4  3  1  0  0  0  0
  5  6  1  0  0  0  0
  5  4  2  0  0  0  0
  6  1  2  0  0  0  0
  8  5  1  0  0  0  0
  9 10  1  0  0  0  0
  9 13  2  0  0  0  0
 10 11  2  0  0  0  0
 11 12  1  0  0  0  0
 11 15  1  0  0  0  0
 12 16  1  0  0  0  0
 13 12  1  0  0  0  0
 14 10  1  0  0  0  0
 18 19  2  0  0  0  0
 18 17  1  0  0  0  0
 20 21  1  0  0  0  0
 20 18  1  0  0  0  0
 22 21  1  0  0  0  0
 23 25  1  0  0  0  0
 23 21  1  0  0  0  0
 23 24  1  0  0  0  0
 26 25  1  0  0  0  0
 27 25  1  0  0  0  0
 28 27  1  0  0  0  0
 28 20  1  0  0  0  0
M  END
>  <minimizedAffinity>
-5.32986069

>  <minimizedRMSD>
0.344176501

$$$$
