
 OpenBabel03252501113D

 20 21  0  0  0  0  0  0  0  0999 V2000
   47.2590   34.6740   42.1220 C   0  0  0  0  0  0  0  0  0  0  0  0
   48.3000   35.3520   41.9550 O   0  0  0  0  0  0  0  0  0  0  0  0
   46.9270   33.7500   41.0890 N   0  0  0  0  0  0  0  0  0  0  0  0
   47.2860   33.9980   39.7210 C   0  0  0  0  0  3  0  0  0  0  0  0
   46.5930   34.7030   39.2310 H   0  0  0  0  0  0  0  0  0  0  0  0
   47.4750   32.7270   38.9410 C   0  0  0  0  0  3  0  0  0  0  0  0
   48.4010   32.2210   39.2840 H   0  0  0  0  0  0  0  0  0  0  0  0
   46.3450   31.8500   38.9830 N   0  0  0  0  0  0  0  0  0  0  0  0
   45.7780   31.9090   38.1210 H   0  0  0  0  0  0  0  0  0  0  0  0
   45.4880   32.0320   40.1200 C   0  0  0  0  0  2  0  0  0  0  0  0
   46.2210   32.5280   41.3430 C   0  0  0  0  0  2  0  0  0  0  0  0
   44.5680   35.8730   44.3390 C   0  0  0  0  0  0  0  0  0  0  0  0
   45.4220   35.7600   43.2340 C   0  0  0  0  0  0  0  0  0  0  0  0
   46.3950   34.7670   43.2720 C   0  0  0  0  0  0  0  0  0  0  0  0
   46.4670   33.9610   44.3690 N   0  0  0  0  0  0  0  0  0  0  0  0
   45.6190   34.1080   45.4140 C   0  0  0  0  0  0  0  0  0  0  0  0
   44.6610   35.0700   45.4010 N   0  0  0  0  0  0  0  0  0  0  0  0
   43.7910   36.6330   44.3590 H   0  0  0  0  0  0  0  0  0  0  0  0
   45.2590   36.4560   42.4350 H   0  0  0  0  0  0  0  0  0  0  0  0
   45.8680   33.3600   46.1610 H   0  0  0  0  0  0  0  0  0  0  0  0
  1 14  1  0  0  0  0
  2  1  2  0  0  0  0
  3 11  1  0  0  0  0
  3  1  1  0  0  0  0
  4  3  1  0  0  0  0
  5  4  1  0  0  0  0
  6  8  1  0  0  0  0
  6  7  1  0  0  0  0
  6  4  1  0  0  0  0
  8 10  1  0  0  0  0
  9  8  1  0  0  0  0
 10 11  1  0  0  0  0
 12 18  1  0  0  0  0
 12 17  1  0  0  0  0
 13 14  1  0  0  0  0
 13 12  2  0  0  0  0
 14 15  2  0  0  0  0
 15 16  1  0  0  0  0
 16 20  1  0  0  0  0
 17 16  2  0  0  0  0
 19 13  1  0  0  0  0
M  END
>  <minimizedAffinity>
-3.88066411

>  <minimizedRMSD>
0.535542011

$$$$
