
 OpenBabel03242522513D

 26 27  0  0  0  0  0  0  0  0999 V2000
   45.2860   30.6910   47.6200 O   0  0  0  0  0  0  0  0  0  0  0  0
   45.7860   31.9510   48.3570 P   0  0  2  0  0  0  0  0  0  0  0  0
   45.1890   31.8280   49.9250 O   0  0  0  0  0  0  0  0  0  0  0  0
   44.3580   32.3480   50.0680 H   0  0  0  0  0  0  0  0  0  0  0  0
   45.1240   33.3050   47.5870 O   0  0  0  0  0  0  0  0  0  0  0  0
   46.9580   33.2530   44.4470 C   0  0  0  0  0  0  0  0  0  0  0  0
   46.5280   32.9360   45.7540 C   0  0  0  0  0  0  0  0  0  0  0  0
   45.4980   33.6580   46.3080 C   0  0  0  0  0  0  0  0  0  0  0  0
   44.9260   34.6540   45.5770 N   0  0  0  0  0  0  0  0  0  0  0  0
   45.3530   34.9390   44.3310 C   0  0  0  0  0  0  0  0  0  0  0  0
   46.3530   34.2550   43.7640 N   0  0  0  0  0  0  0  0  0  0  0  0
   47.7610   32.7360   43.9370 H   0  0  0  0  0  0  0  0  0  0  0  0
   47.0970   32.1240   46.1620 H   0  0  0  0  0  0  0  0  0  0  0  0
   44.8260   35.7630   43.8250 H   0  0  0  0  0  0  0  0  0  0  0  0
   47.4350   32.0280   48.3300 O   0  0  0  0  0  0  0  0  0  0  0  0
   48.3760   31.0670   48.5140 C   0  0  0  0  0  0  0  0  0  0  0  0
   48.5650   30.7600   49.7430 O   0  0  0  0  0  0  0  0  0  0  0  0
   49.3630   30.1160   48.1410 N   0  0  0  0  0  0  0  0  0  0  0  0
   50.5110   30.2740   49.0290 C   0  0  0  0  0  3  0  0  0  0  0  0
   50.2770   30.0710   50.0880 H   0  0  0  0  0  0  0  0  0  0  0  0
   51.5590   29.2990   48.5320 C   0  0  0  0  0  3  0  0  0  0  0  0
   51.3110   28.2460   48.7790 H   0  0  0  0  0  0  0  0  0  0  0  0
   51.6360   29.3630   47.0640 N   0  0  0  0  0  0  0  0  0  0  0  0
   51.4120   30.3690   46.8270 H   0  0  0  0  0  0  0  0  0  0  0  0
   50.5300   28.5750   46.5930 C   0  0  0  0  0  2  0  0  0  0  0  0
   49.2520   29.1540   47.0620 C   0  0  0  0  0  2  0  0  0  0  0  0
  2  1  2  6  0  0  0
  2  3  1  0  0  0  0
  3  4  1  0  0  0  0
  5  2  1  0  0  0  0
  6  7  1  0  0  0  0
  7 13  1  0  0  0  0
  7  8  2  0  0  0  0
  8  5  1  0  0  0  0
  9  8  1  0  0  0  0
 10  9  2  0  0  0  0
 11 10  1  0  0  0  0
 11  6  2  0  0  0  0
 12  6  1  0  0  0  0
 14 10  1  0  0  0  0
 15  2  1  0  0  0  0
 15 16  1  0  0  0  0
 16 17  2  0  0  0  0
 18 16  1  0  0  0  0
 18 19  1  0  0  0  0
 19 20  1  0  0  0  0
 21 22  1  0  0  0  0
 21 19  1  0  0  0  0
 23 21  1  0  0  0  0
 24 23  1  0  0  0  0
 25 26  1  0  0  0  0
 25 23  1  0  0  0  0
 26 18  1  0  0  0  0
M  END
>  <minimizedAffinity>
-4.70883942

>  <minimizedRMSD>
0.834653795

$$$$
