
 OpenBabel03242512353D

 20 21  0  0  0  0  0  0  0  0999 V2000
   38.8250   30.3700   41.9280 C   0  0  0  0  0  0  0  0  0  0  0  0
   39.8920   30.8470   42.3870 O   0  0  0  0  0  0  0  0  0  0  0  0
   38.3280   31.4600   41.1550 N   0  0  0  0  0  0  0  0  0  0  0  0
   39.2420   32.5220   40.8560 C   0  0  0  0  0  3  0  0  0  0  0  0
   39.8830   32.6900   41.7660 H   0  0  0  0  0  0  0  0  0  0  0  0
   38.5620   33.8460   40.6200 C   0  0  0  0  0  3  0  0  0  0  0  0
   39.2680   34.4120   39.9440 H   0  0  0  0  0  0  0  0  0  0  0  0
   37.3340   33.7630   39.9110 N   0  0  0  0  0  0  0  0  0  0  0  0
   36.5140   34.1710   40.3970 H   0  0  0  0  0  0  0  0  0  0  0  0
   37.0480   32.4400   39.4310 C   0  0  0  0  0  2  0  0  0  0  0  0
   36.9640   31.5540   40.6590 C   0  0  0  0  0  2  0  0  0  0  0  0
   38.2680   29.0710   42.1370 C   0  0  0  0  0  0  0  0  0  0  0  0
   37.6910   28.9130   43.4000 C   0  0  0  0  0  0  0  0  0  0  0  0
   37.1210   27.6550   43.6800 C   0  0  0  0  0  0  0  0  0  0  0  0
   37.1670   26.6950   42.7210 N   0  0  0  0  0  0  0  0  0  0  0  0
   37.7430   26.9140   41.5120 C   0  0  0  0  0  0  0  0  0  0  0  0
   38.2920   28.1010   41.2250 N   0  0  0  0  0  0  0  0  0  0  0  0
   37.6520   29.6690   44.1600 H   0  0  0  0  0  0  0  0  0  0  0  0
   36.6430   27.4160   44.6290 H   0  0  0  0  0  0  0  0  0  0  0  0
   37.7100   26.0600   40.8410 H   0  0  0  0  0  0  0  0  0  0  0  0
  1 12  1  0  0  0  0
  1  2  2  0  0  0  0
  3  1  1  0  0  0  0
  4  3  1  0  0  0  0
  4  5  1  0  0  0  0
  6  4  1  0  0  0  0
  7  6  1  0  0  0  0
  8  9  1  0  0  0  0
  8  6  1  0  0  0  0
 10  8  1  0  0  0  0
 10 11  1  0  0  0  0
 11  3  1  0  0  0  0
 12 13  1  0  0  0  0
 13 14  2  0  0  0  0
 13 18  1  0  0  0  0
 14 19  1  0  0  0  0
 15 14  1  0  0  0  0
 16 15  2  0  0  0  0
 17 16  1  0  0  0  0
 17 12  2  0  0  0  0
 20 16  1  0  0  0  0
M  END
>  <minimizedAffinity>
-4.58871984

$$$$

 OpenBabel03242512353D

 20 21  0  0  0  0  0  0  0  0999 V2000
   38.9930   28.2320   41.4980 C   0  0  0  0  0  0  0  0  0  0  0  0
   39.8480   29.1180   41.2530 O   0  0  0  0  0  0  0  0  0  0  0  0
   37.7730   28.9310   41.2630 N   0  0  0  0  0  0  0  0  0  0  0  0
   37.8550   30.1710   40.5500 C   0  0  0  0  0  3  0  0  0  0  0  0
   38.7830   30.7060   40.8970 H   0  0  0  0  0  0  0  0  0  0  0  0
   36.7280   31.1190   40.8670 C   0  0  0  0  0  3  0  0  0  0  0  0
   36.6290   31.7630   39.9450 H   0  0  0  0  0  0  0  0  0  0  0  0
   35.4630   30.4960   41.0400 N   0  0  0  0  0  0  0  0  0  0  0  0
   35.0000   30.6790   41.9500 H   0  0  0  0  0  0  0  0  0  0  0  0
   35.4780   29.0930   40.7360 C   0  0  0  0  0  2  0  0  0  0  0  0
   36.4670   28.4630   41.6990 C   0  0  0  0  0  2  0  0  0  0  0  0
   39.2040   26.8790   41.9070 C   0  0  0  0  0  0  0  0  0  0  0  0
   39.7090   26.7660   43.2060 C   0  0  0  0  0  0  0  0  0  0  0  0
   39.9440   25.4610   43.6790 C   0  0  0  0  0  0  0  0  0  0  0  0
   39.6710   24.4140   42.8590 N   0  0  0  0  0  0  0  0  0  0  0  0
   39.1810   24.5930   41.6060 C   0  0  0  0  0  0  0  0  0  0  0  0
   38.9500   25.8250   41.1350 N   0  0  0  0  0  0  0  0  0  0  0  0
   39.9260   27.5900   43.8570 H   0  0  0  0  0  0  0  0  0  0  0  0
   40.3360   25.2500   44.6740 H   0  0  0  0  0  0  0  0  0  0  0  0
   39.0080   23.6700   41.0590 H   0  0  0  0  0  0  0  0  0  0  0  0
  1 12  1  0  0  0  0
  2  1  2  0  0  0  0
  3  1  1  0  0  0  0
  3 11  1  0  0  0  0
  4  6  1  0  0  0  0
  4  5  1  0  0  0  0
  4  3  1  0  0  0  0
  6  8  1  0  0  0  0
  7  6  1  0  0  0  0
  8  9  1  0  0  0  0
 10  8  1  0  0  0  0
 10 11  1  0  0  0  0
 12 13  1  0  0  0  0
 13 14  2  0  0  0  0
 13 18  1  0  0  0  0
 14 19  1  0  0  0  0
 15 14  1  0  0  0  0
 16 15  2  0  0  0  0
 17 16  1  0  0  0  0
 17 12  2  0  0  0  0
 20 16  1  0  0  0  0
M  END
>  <minimizedAffinity>
-4.30343914

$$$$

 OpenBabel03242512353D

 20 21  0  0  0  0  0  0  0  0999 V2000
   37.1680   30.1010   41.3070 C   0  0  0  0  0  0  0  0  0  0  0  0
   36.0970   30.7270   41.4990 O   0  0  0  0  0  0  0  0  0  0  0  0
   37.7470   30.8360   40.2310 N   0  0  0  0  0  0  0  0  0  0  0  0
   37.1990   32.1300   39.9510 C   0  0  0  0  0  3  0  0  0  0  0  0
   36.0820   32.0670   40.0880 H   0  0  0  0  0  0  0  0  0  0  0  0
   37.3820   32.5590   38.5190 C   0  0  0  0  0  3  0  0  0  0  0  0
   37.3850   33.6880   38.5580 H   0  0  0  0  0  0  0  0  0  0  0  0
   38.6290   32.1910   37.9460 N   0  0  0  0  0  0  0  0  0  0  0  0
   38.5690   31.6230   37.0820 H   0  0  0  0  0  0  0  0  0  0  0  0
   39.5330   31.6030   38.8930 C   0  0  0  0  0  2  0  0  0  0  0  0
   38.8480   30.3530   39.4120 C   0  0  0  0  0  2  0  0  0  0  0  0
   37.6630   28.9510   41.9970 C   0  0  0  0  0  0  0  0  0  0  0  0
   36.8150   27.8440   41.9040 C   0  0  0  0  0  0  0  0  0  0  0  0
   37.2370   26.6710   42.5610 C   0  0  0  0  0  0  0  0  0  0  0  0
   38.4180   26.6920   43.2300 N   0  0  0  0  0  0  0  0  0  0  0  0
   39.1960   27.8030   43.2810 C   0  0  0  0  0  0  0  0  0  0  0  0
   38.8140   28.9290   42.6650 N   0  0  0  0  0  0  0  0  0  0  0  0
   35.8820   27.8230   41.3770 H   0  0  0  0  0  0  0  0  0  0  0  0
   36.6600   25.7470   42.5580 H   0  0  0  0  0  0  0  0  0  0  0  0
   40.1130   27.6800   43.8500 H   0  0  0  0  0  0  0  0  0  0  0  0
  1  2  2  0  0  0  0
  1 12  1  0  0  0  0
  3  1  1  0  0  0  0
  4  5  1  0  0  0  0
  4  3  1  0  0  0  0
  6  7  1  0  0  0  0
  6  4  1  0  0  0  0
  8  6  1  0  0  0  0
  8 10  1  0  0  0  0
  9  8  1  0  0  0  0
 10 11  1  0  0  0  0
 11  3  1  0  0  0  0
 12 17  1  0  0  0  0
 13 12  2  0  0  0  0
 13 14  1  0  0  0  0
 14 15  2  0  0  0  0
 15 16  1  0  0  0  0
 16 20  1  0  0  0  0
 17 16  2  0  0  0  0
 18 13  1  0  0  0  0
 19 14  1  0  0  0  0
M  END
>  <minimizedAffinity>
-4.08250189

$$$$

 OpenBabel03242512353D

 20 21  0  0  0  0  0  0  0  0999 V2000
   37.0480   30.2110   40.9320 C   0  0  0  0  0  0  0  0  0  0  0  0
   36.2220   31.1470   41.0640 O   0  0  0  0  0  0  0  0  0  0  0  0
   37.6350   30.5150   39.6680 N   0  0  0  0  0  0  0  0  0  0  0  0
   37.4140   31.8300   39.1440 C   0  0  0  0  0  3  0  0  0  0  0  0
   36.3550   32.1240   39.3870 H   0  0  0  0  0  0  0  0  0  0  0  0
   37.4900   31.8940   37.6400 C   0  0  0  0  0  3  0  0  0  0  0  0
   37.7970   32.9570   37.4150 H   0  0  0  0  0  0  0  0  0  0  0  0
   38.4950   31.0720   37.0630 N   0  0  0  0  0  0  0  0  0  0  0  0
   38.1580   30.3860   36.3630 H   0  0  0  0  0  0  0  0  0  0  0  0
   39.3410   30.4460   38.0400 C   0  0  0  0  0  2  0  0  0  0  0  0
   38.4340   29.5800   38.8930 C   0  0  0  0  0  2  0  0  0  0  0  0
   37.3170   29.1270   41.8250 C   0  0  0  0  0  0  0  0  0  0  0  0
   38.5670   29.2170   42.4430 C   0  0  0  0  0  0  0  0  0  0  0  0
   38.9030   28.1820   43.3380 C   0  0  0  0  0  0  0  0  0  0  0  0
   38.0070   27.1820   43.5390 N   0  0  0  0  0  0  0  0  0  0  0  0
   36.8070   27.1550   42.9050 C   0  0  0  0  0  0  0  0  0  0  0  0
   36.4680   28.1280   42.0500 N   0  0  0  0  0  0  0  0  0  0  0  0
   39.2780   30.0050   42.2870 H   0  0  0  0  0  0  0  0  0  0  0  0
   39.8490   28.1460   43.8780 H   0  0  0  0  0  0  0  0  0  0  0  0
   36.1890   26.2980   43.1590 H   0  0  0  0  0  0  0  0  0  0  0  0
  1  2  2  0  0  0  0
  1 12  1  0  0  0  0
  3  1  1  0  0  0  0
  4  5  1  0  0  0  0
  4  3  1  0  0  0  0
  6  4  1  0  0  0  0
  7  6  1  0  0  0  0
  8  6  1  0  0  0  0
  8 10  1  0  0  0  0
  9  8  1  0  0  0  0
 10 11  1  0  0  0  0
 11  3  1  0  0  0  0
 12 17  2  0  0  0  0
 12 13  1  0  0  0  0
 13 14  2  0  0  0  0
 14 15  1  0  0  0  0
 14 19  1  0  0  0  0
 16 20  1  0  0  0  0
 16 15  2  0  0  0  0
 17 16  1  0  0  0  0
 18 13  1  0  0  0  0
M  END
>  <minimizedAffinity>
-4.03589821

$$$$

 OpenBabel03242512353D

 20 21  0  0  0  0  0  0  0  0999 V2000
   38.6050   27.7920   41.0020 C   0  0  0  0  0  0  0  0  0  0  0  0
   39.6170   28.5220   40.8590 O   0  0  0  0  0  0  0  0  0  0  0  0
   37.5460   28.7450   40.9370 N   0  0  0  0  0  0  0  0  0  0  0  0
   37.8650   30.0450   40.4250 C   0  0  0  0  0  3  0  0  0  0  0  0
   38.8870   30.3240   40.8070 H   0  0  0  0  0  0  0  0  0  0  0  0
   36.9560   31.1300   40.9410 C   0  0  0  0  0  3  0  0  0  0  0  0
   36.9740   31.9220   40.1360 H   0  0  0  0  0  0  0  0  0  0  0  0
   35.5940   30.7470   41.0730 N   0  0  0  0  0  0  0  0  0  0  0  0
   35.1920   30.8660   42.0210 H   0  0  0  0  0  0  0  0  0  0  0  0
   35.3230   29.4370   40.5530 C   0  0  0  0  0  2  0  0  0  0  0  0
   36.1800   28.4770   41.3560 C   0  0  0  0  0  2  0  0  0  0  0  0
   38.5470   26.3760   41.1830 C   0  0  0  0  0  0  0  0  0  0  0  0
   38.1870   25.6830   40.0240 C   0  0  0  0  0  0  0  0  0  0  0  0
   38.1090   24.2810   40.1260 C   0  0  0  0  0  0  0  0  0  0  0  0
   38.3820   23.7020   41.3230 N   0  0  0  0  0  0  0  0  0  0  0  0
   38.7260   24.4340   42.4130 C   0  0  0  0  0  0  0  0  0  0  0  0
   38.8060   25.7680   42.3380 N   0  0  0  0  0  0  0  0  0  0  0  0
   37.9710   26.1370   39.0760 H   0  0  0  0  0  0  0  0  0  0  0  0
   37.8390   23.6370   39.2890 H   0  0  0  0  0  0  0  0  0  0  0  0
   38.9180   23.8420   43.3050 H   0  0  0  0  0  0  0  0  0  0  0  0
  1 12  1  0  0  0  0
  2  1  2  0  0  0  0
  3  1  1  0  0  0  0
  3 11  1  0  0  0  0
  4  5  1  0  0  0  0
  4  3  1  0  0  0  0
  4  6  1  0  0  0  0
  6  8  1  0  0  0  0
  7  6  1  0  0  0  0
  8  9  1  0  0  0  0
 10  8  1  0  0  0  0
 10 11  1  0  0  0  0
 12 17  1  0  0  0  0
 13 14  1  0  0  0  0
 13 12  2  0  0  0  0
 14 15  2  0  0  0  0
 15 16  1  0  0  0  0
 16 20  1  0  0  0  0
 17 16  2  0  0  0  0
 18 13  1  0  0  0  0
 19 14  1  0  0  0  0
M  END
>  <minimizedAffinity>
-3.97683978

$$$$

 OpenBabel03242512353D

 20 21  0  0  0  0  0  0  0  0999 V2000
   37.6060   30.8680   41.0830 C   0  0  0  0  0  0  0  0  0  0  0  0
   36.3550   30.8130   41.0050 O   0  0  0  0  0  0  0  0  0  0  0  0
   37.9000   29.7230   41.8810 N   0  0  0  0  0  0  0  0  0  0  0  0
   36.8590   28.7510   42.0390 C   0  0  0  0  0  3  0  0  0  0  0  0
   35.8830   29.3050   42.1400 H   0  0  0  0  0  0  0  0  0  0  0  0
   36.9760   27.9530   43.3120 C   0  0  0  0  0  3  0  0  0  0  0  0
   36.4660   26.9730   43.0810 H   0  0  0  0  0  0  0  0  0  0  0  0
   38.3070   27.6170   43.6790 N   0  0  0  0  0  0  0  0  0  0  0  0
   38.5980   27.9320   44.6230 H   0  0  0  0  0  0  0  0  0  0  0  0
   39.2760   27.9830   42.6860 C   0  0  0  0  0  2  0  0  0  0  0  0
   39.1780   29.4900   42.5340 C   0  0  0  0  0  2  0  0  0  0  0  0
   38.4920   31.8350   40.5150 C   0  0  0  0  0  0  0  0  0  0  0  0
   39.0480   31.4300   39.2990 C   0  0  0  0  0  0  0  0  0  0  0  0
   39.9330   32.3330   38.6780 C   0  0  0  0  0  0  0  0  0  0  0  0
   40.1850   33.5180   39.2910 N   0  0  0  0  0  0  0  0  0  0  0  0
   39.6120   33.8510   40.4760 C   0  0  0  0  0  0  0  0  0  0  0  0
   38.7680   33.0070   41.0830 N   0  0  0  0  0  0  0  0  0  0  0  0
   38.8500   30.4960   38.8110 H   0  0  0  0  0  0  0  0  0  0  0  0
   40.4250   32.1270   37.7280 H   0  0  0  0  0  0  0  0  0  0  0  0
   39.9020   34.8280   40.8530 H   0  0  0  0  0  0  0  0  0  0  0  0
  1  3  1  0  0  0  0
  2  1  2  0  0  0  0
  3  4  1  0  0  0  0
  3 11  1  0  0  0  0
  4  5  1  0  0  0  0
  4  6  1  0  0  0  0
  6  8  1  0  0  0  0
  7  6  1  0  0  0  0
  8  9  1  0  0  0  0
 10  8  1  0  0  0  0
 11 10  1  0  0  0  0
 12 17  1  0  0  0  0
 12  1  1  0  0  0  0
 13 12  2  0  0  0  0
 14 15  2  0  0  0  0
 14 13  1  0  0  0  0
 15 16  1  0  0  0  0
 16 20  1  0  0  0  0
 16 17  2  0  0  0  0
 18 13  1  0  0  0  0
 19 14  1  0  0  0  0
M  END
>  <minimizedAffinity>
-3.97248197

$$$$

 OpenBabel03242512353D

 20 21  0  0  0  0  0  0  0  0999 V2000
   38.7140   27.9840   41.7940 C   0  0  0  0  0  0  0  0  0  0  0  0
   39.7630   28.1650   42.4600 O   0  0  0  0  0  0  0  0  0  0  0  0
   38.4740   26.5940   41.9990 N   0  0  0  0  0  0  0  0  0  0  0  0
   39.1880   25.9560   43.0650 C   0  0  0  0  0  3  0  0  0  0  0  0
   40.2300   26.3830   43.0850 H   0  0  0  0  0  0  0  0  0  0  0  0
   39.3870   24.4780   42.8510 C   0  0  0  0  0  3  0  0  0  0  0  0
   39.4780   24.0490   43.8910 H   0  0  0  0  0  0  0  0  0  0  0  0
   38.2810   23.8130   42.2550 N   0  0  0  0  0  0  0  0  0  0  0  0
   38.4920   23.3030   41.3780 H   0  0  0  0  0  0  0  0  0  0  0  0
   37.1300   24.6570   42.1040 C   0  0  0  0  0  2  0  0  0  0  0  0
   37.5580   25.7970   41.1990 C   0  0  0  0  0  2  0  0  0  0  0  0
   37.9690   28.9360   41.0310 C   0  0  0  0  0  0  0  0  0  0  0  0
   37.0770   29.6860   41.8020 C   0  0  0  0  0  0  0  0  0  0  0  0
   36.3060   30.6460   41.1180 C   0  0  0  0  0  0  0  0  0  0  0  0
   36.4750   30.7780   39.7780 N   0  0  0  0  0  0  0  0  0  0  0  0
   37.3600   30.0150   39.0870 C   0  0  0  0  0  0  0  0  0  0  0  0
   38.1030   29.0970   39.7170 N   0  0  0  0  0  0  0  0  0  0  0  0
   36.9410   29.5850   42.8610 H   0  0  0  0  0  0  0  0  0  0  0  0
   35.5790   31.2890   41.6140 H   0  0  0  0  0  0  0  0  0  0  0  0
   37.3930   30.2260   38.0210 H   0  0  0  0  0  0  0  0  0  0  0  0
  1  3  1  0  0  0  0
  1  2  2  0  0  0  0
  3  4  1  0  0  0  0
  4  5  1  0  0  0  0
  6  4  1  0  0  0  0
  6  7  1  0  0  0  0
  8  6  1  0  0  0  0
  9  8  1  0  0  0  0
 10  8  1  0  0  0  0
 11  3  1  0  0  0  0
 11 10  1  0  0  0  0
 12  1  1  0  0  0  0
 12 13  1  0  0  0  0
 13 18  1  0  0  0  0
 14 19  1  0  0  0  0
 14 13  2  0  0  0  0
 15 14  1  0  0  0  0
 16 17  1  0  0  0  0
 16 15  2  0  0  0  0
 17 12  2  0  0  0  0
 20 16  1  0  0  0  0
M  END
>  <minimizedAffinity>
-3.92416096

$$$$

 OpenBabel03242512353D

 20 21  0  0  0  0  0  0  0  0999 V2000
   37.5590   28.7880   39.8140 C   0  0  0  0  0  0  0  0  0  0  0  0
   37.3570   28.1080   38.7780 O   0  0  0  0  0  0  0  0  0  0  0  0
   37.5200   30.1180   39.3030 N   0  0  0  0  0  0  0  0  0  0  0  0
   36.9670   30.3010   37.9940 C   0  0  0  0  0  3  0  0  0  0  0  0
   37.2990   29.4340   37.3550 H   0  0  0  0  0  0  0  0  0  0  0  0
   37.4990   31.5190   37.2850 C   0  0  0  0  0  3  0  0  0  0  0  0
   36.6790   31.8120   36.5670 H   0  0  0  0  0  0  0  0  0  0  0  0
   37.6990   32.6500   38.1230 N   0  0  0  0  0  0  0  0  0  0  0  0
   38.6610   33.0370   38.1220 H   0  0  0  0  0  0  0  0  0  0  0  0
   37.2190   32.4530   39.4610 C   0  0  0  0  0  2  0  0  0  0  0  0
   38.0040   31.2840   40.0240 C   0  0  0  0  0  2  0  0  0  0  0  0
   37.7720   28.3300   41.1510 C   0  0  0  0  0  0  0  0  0  0  0  0
   36.5890   28.0030   41.8200 C   0  0  0  0  0  0  0  0  0  0  0  0
   36.7200   27.5440   43.1450 C   0  0  0  0  0  0  0  0  0  0  0  0
   37.9650   27.4510   43.6780 N   0  0  0  0  0  0  0  0  0  0  0  0
   39.0760   27.7860   42.9730 C   0  0  0  0  0  0  0  0  0  0  0  0
   38.9740   28.2240   41.7130 N   0  0  0  0  0  0  0  0  0  0  0  0
   35.6040   28.0750   41.4020 H   0  0  0  0  0  0  0  0  0  0  0  0
   35.8700   27.2590   43.7630 H   0  0  0  0  0  0  0  0  0  0  0  0
   40.0060   27.6630   43.5220 H   0  0  0  0  0  0  0  0  0  0  0  0
  1 12  1  0  0  0  0
  2  1  2  0  0  0  0
  3  1  1  0  0  0  0
  3 11  1  0  0  0  0
  4  3  1  0  0  0  0
  5  4  1  0  0  0  0
  6  4  1  0  0  0  0
  6  8  1  0  0  0  0
  7  6  1  0  0  0  0
  8 10  1  0  0  0  0
  9  8  1  0  0  0  0
 10 11  1  0  0  0  0
 12 17  2  0  0  0  0
 12 13  1  0  0  0  0
 13 14  2  0  0  0  0
 14 15  1  0  0  0  0
 14 19  1  0  0  0  0
 16 20  1  0  0  0  0
 16 15  2  0  0  0  0
 17 16  1  0  0  0  0
 18 13  1  0  0  0  0
M  END
>  <minimizedAffinity>
-3.90723205

$$$$

 OpenBabel03242512353D

 20 21  0  0  0  0  0  0  0  0999 V2000
   38.9380   31.5520   40.5940 C   0  0  0  0  0  0  0  0  0  0  0  0
   39.3470   32.3100   41.5090 O   0  0  0  0  0  0  0  0  0  0  0  0
   39.7090   31.9980   39.4800 N   0  0  0  0  0  0  0  0  0  0  0  0
   40.8470   32.8220   39.7590 C   0  0  0  0  0  3  0  0  0  0  0  0
   40.5700   33.5190   40.5990 H   0  0  0  0  0  0  0  0  0  0  0  0
   41.2180   33.7330   38.6170 C   0  0  0  0  0  3  0  0  0  0  0  0
   42.3240   33.9180   38.7480 H   0  0  0  0  0  0  0  0  0  0  0  0
   41.0740   33.1540   37.3270 N   0  0  0  0  0  0  0  0  0  0  0  0
   40.4550   33.6710   36.6770 H   0  0  0  0  0  0  0  0  0  0  0  0
   40.7370   31.7590   37.3700 C   0  0  0  0  0  2  0  0  0  0  0  0
   39.4090   31.6680   38.0960 C   0  0  0  0  0  2  0  0  0  0  0  0
   37.9540   30.5180   40.6680 C   0  0  0  0  0  0  0  0  0  0  0  0
   36.6450   30.9910   40.5420 C   0  0  0  0  0  0  0  0  0  0  0  0
   35.6190   30.0280   40.6060 C   0  0  0  0  0  0  0  0  0  0  0  0
   35.9610   28.7260   40.7820 N   0  0  0  0  0  0  0  0  0  0  0  0
   37.2560   28.3330   40.8970 C   0  0  0  0  0  0  0  0  0  0  0  0
   38.2460   29.2320   40.8400 N   0  0  0  0  0  0  0  0  0  0  0  0
   36.3700   32.0180   40.4020 H   0  0  0  0  0  0  0  0  0  0  0  0
   34.5620   30.2770   40.5200 H   0  0  0  0  0  0  0  0  0  0  0  0
   37.3860   27.2630   41.0340 H   0  0  0  0  0  0  0  0  0  0  0  0
  1 12  1  0  0  0  0
  1  2  2  0  0  0  0
  3  4  1  0  0  0  0
  3  1  1  0  0  0  0
  4  5  1  0  0  0  0
  6  7  1  0  0  0  0
  6  4  1  0  0  0  0
  8 10  1  0  0  0  0
  8  6  1  0  0  0  0
  9  8  1  0  0  0  0
 10 11  1  0  0  0  0
 11  3  1  0  0  0  0
 12 17  1  0  0  0  0
 13 14  1  0  0  0  0
 13 12  2  0  0  0  0
 14 15  2  0  0  0  0
 15 16  1  0  0  0  0
 16 20  1  0  0  0  0
 17 16  2  0  0  0  0
 18 13  1  0  0  0  0
 19 14  1  0  0  0  0
M  END
>  <minimizedAffinity>
-3.85475445

$$$$
