
 OpenBabel03252502283D

 35 37  0  0  0  0  0  0  0  0999 V2000
   45.2250   34.3370   41.0010 C   0  0  0  0  0  0  0  0  0  0  0  0
   45.4750   34.8800   42.2520 C   0  0  0  0  0  0  0  0  0  0  0  0
   46.7950   35.1210   42.6270 C   0  0  0  0  0  0  0  0  0  0  0  0
   47.8090   34.8180   41.7570 C   0  0  0  0  0  0  0  0  0  0  0  0
   47.5840   34.2800   40.5110 C   0  0  0  0  0  0  0  0  0  0  0  0
   46.2510   34.0480   40.1620 C   0  0  0  0  0  0  0  0  0  0  0  0
   44.6760   35.1190   42.9390 H   0  0  0  0  0  0  0  0  0  0  0  0
   46.9450   35.5450   43.6110 H   0  0  0  0  0  0  0  0  0  0  0  0
   48.8350   35.0000   42.0360 H   0  0  0  0  0  0  0  0  0  0  0  0
   48.3700   34.0300   39.8000 H   0  0  0  0  0  0  0  0  0  0  0  0
   45.8670   32.2000   38.3520 C   0  0  0  0  0  0  0  0  0  0  0  0
   46.2860   31.1830   38.8910 O   0  0  0  0  0  0  0  0  0  0  0  0
   45.8830   33.5010   38.9110 N   0  0  0  0  0  0  0  0  0  0  0  0
   45.5560   34.3180   38.3210 H   0  0  0  0  0  0  0  0  0  0  0  0
   45.3180   32.0390   37.0470 N   0  0  0  0  0  0  0  0  0  0  0  0
   44.7030   30.7530   36.7790 C   0  0  0  0  0  3  0  0  0  0  0  0
   45.4610   29.9600   36.6200 H   0  0  0  0  0  0  0  0  0  0  0  0
   43.6770   30.8550   35.6810 C   0  0  0  0  0  3  0  0  0  0  0  0
   42.7730   31.3550   36.1370 H   0  0  0  0  0  0  0  0  0  0  0  0
   44.1160   31.5230   34.4990 N   0  0  0  0  0  0  0  0  0  0  0  0
   44.1820   30.8590   33.6950 H   0  0  0  0  0  0  0  0  0  0  0  0
   45.4180   32.1160   34.6890 C   0  0  0  0  0  2  0  0  0  0  0  0
   45.2880   32.9840   35.9480 C   0  0  0  0  0  2  0  0  0  0  0  0
   41.5870   34.7430   40.0890 C   0  0  0  0  0  0  0  0  0  0  0  0
   42.9110   35.0880   40.3890 C   0  0  0  0  0  0  0  0  0  0  0  0
   43.8230   34.1130   40.6740 C   0  0  0  0  0  0  0  0  0  0  0  0
   43.3690   32.8230   40.6500 N   0  0  0  0  0  0  0  0  0  0  0  0
   42.0980   32.4840   40.3630 C   0  0  0  0  0  0  0  0  0  0  0  0
   41.1980   33.4550   40.0800 N   0  0  0  0  0  0  0  0  0  0  0  0
   43.2470   36.1180   40.4020 H   0  0  0  0  0  0  0  0  0  0  0  0
   41.8040   31.4390   40.3610 H   0  0  0  0  0  0  0  0  0  0  0  0
   40.5940   35.7890   39.7790 C   0  0  0  0  0  0  0  0  0  0  0  0
   39.3720   35.1470   39.5250 F   0  0  0  0  0  0  0  0  0  0  0  0
   40.9740   36.3540   38.5700 F   0  0  0  0  0  0  0  0  0  0  0  0
   40.4430   36.7160   40.7740 F   0  0  0  0  0  0  0  0  0  0  0  0
  1  2  1  0  0  0  0
  2  3  2  0  0  0  0
  2  7  1  0  0  0  0
  3  8  1  0  0  0  0
  4  9  1  0  0  0  0
  4  3  1  0  0  0  0
  5  4  2  0  0  0  0
  6  5  1  0  0  0  0
  6  1  2  0  0  0  0
 10  5  1  0  0  0  0
 11 12  2  0  0  0  0
 11 13  1  0  0  0  0
 13  6  1  0  0  0  0
 14 13  1  0  0  0  0
 15 11  1  0  0  0  0
 16 15  1  0  0  0  0
 17 16  1  0  0  0  0
 18 19  1  0  0  0  0
 18 16  1  0  0  0  0
 20 22  1  0  0  0  0
 20 18  1  0  0  0  0
 21 20  1  0  0  0  0
 22 23  1  0  0  0  0
 23 15  1  0  0  0  0
 24 25  1  0  0  0  0
 25 30  1  0  0  0  0
 25 26  2  0  0  0  0
 26  1  1  0  0  0  0
 27 26  1  0  0  0  0
 28 27  2  0  0  0  0
 29 24  2  0  0  0  0
 29 28  1  0  0  0  0
 31 28  1  0  0  0  0
 32 24  1  0  0  0  0
 32 35  1  0  0  0  0
 33 32  1  0  0  0  0
 34 32  1  0  0  0  0
M  END
>  <minimizedAffinity>
-6.51484251

>  <minimizedRMSD>
0.617611945

$$$$
