
 OpenBabel03252508513D

 28 30  0  0  0  0  0  0  0  0999 V2000
   45.8920   34.0940   41.0430 C   0  0  0  0  0  0  0  0  0  0  0  0
   46.4900   34.7750   42.1080 C   0  0  0  0  0  0  0  0  0  0  0  0
   47.8240   35.1830   41.9440 C   0  0  0  0  0  0  0  0  0  0  0  0
   48.4320   34.8810   40.7550 N   0  0  0  0  0  0  0  0  0  0  0  0
   47.8210   34.2300   39.7720 C   0  0  0  0  0  0  0  0  0  0  0  0
   46.5430   33.8240   39.8960 N   0  0  0  0  0  0  0  0  0  0  0  0
   48.3090   35.7130   42.7560 H   0  0  0  0  0  0  0  0  0  0  0  0
   48.3870   34.0450   38.8840 H   0  0  0  0  0  0  0  0  0  0  0  0
   45.7340   35.0330   43.3210 C   0  0  0  0  0  0  0  0  0  0  0  0
   45.0590   36.2140   43.5490 C   0  0  0  0  0  0  0  0  0  0  0  0
   44.4990   36.0180   44.8000 C   0  0  0  0  0  0  0  0  0  0  0  0
   44.8150   34.7900   45.2980 N   0  0  0  0  0  0  0  0  0  0  0  0
   45.5580   34.2280   44.3850 N   0  0  0  0  0  0  0  0  0  0  0  0
   44.9580   37.1060   42.9400 H   0  0  0  0  0  0  0  0  0  0  0  0
   43.8790   36.7600   45.3170 H   0  0  0  0  0  0  0  0  0  0  0  0
   44.4770   34.4710   46.2340 H   0  0  0  0  0  0  0  0  0  0  0  0
   44.5770   33.6880   41.1940 O   0  0  0  0  0  0  0  0  0  0  0  0
   43.4740   34.3600   40.7390 C   0  0  0  0  0  0  0  0  0  0  0  0
   43.3380   35.6100   40.5390 O   0  0  0  0  0  0  0  0  0  0  0  0
   42.1540   33.9020   40.3540 N   0  0  0  0  0  0  0  0  0  0  0  0
   41.6680   32.7140   41.0250 C   0  0  0  0  0  3  0  0  0  0  0  0
   40.9340   33.1070   41.7900 H   0  0  0  0  0  0  0  0  0  0  0  0
   40.8720   31.9370   40.0000 C   0  0  0  0  0  3  0  0  0  0  0  0
   41.0880   30.8590   40.1740 H   0  0  0  0  0  0  0  0  0  0  0  0
   41.2910   32.2030   38.6430 N   0  0  0  0  0  0  0  0  0  0  0  0
   40.7230   31.5930   38.0260 H   0  0  0  0  0  0  0  0  0  0  0  0
   41.0500   33.5750   38.2490 C   0  0  0  0  0  2  0  0  0  0  0  0
   41.3150   34.5470   39.3620 C   0  0  0  0  0  2  0  0  0  0  0  0
  1 17  1  0  0  0  0
  1  2  1  0  0  0  0
  2  9  1  0  0  0  0
  3  2  2  0  0  0  0
  3  7  1  0  0  0  0
  4  3  1  0  0  0  0
  5  6  1  0  0  0  0
  5  4  2  0  0  0  0
  6  1  2  0  0  0  0
  8  5  1  0  0  0  0
  9 10  1  0  0  0  0
  9 13  2  0  0  0  0
 10 11  2  0  0  0  0
 11 12  1  0  0  0  0
 11 15  1  0  0  0  0
 12 16  1  0  0  0  0
 13 12  1  0  0  0  0
 14 10  1  0  0  0  0
 18 17  1  0  0  0  0
 19 18  2  0  0  0  0
 20 18  1  0  0  0  0
 20 21  1  0  0  0  0
 21 22  1  0  0  0  0
 23 24  1  0  0  0  0
 23 21  1  0  0  0  0
 25 23  1  0  0  0  0
 26 25  1  0  0  0  0
 27 25  1  0  0  0  0
 27 28  1  0  0  0  0
 28 20  1  0  0  0  0
M  END
>  <minimizedAffinity>
-5.42824316

>  <minimizedRMSD>
0.966457069

$$$$
