
 OpenBabel03252501113D

 20 21  0  0  0  0  0  0  0  0999 V2000
   47.0470   34.6940   42.1210 C   0  0  0  0  0  0  0  0  0  0  0  0
   47.9530   35.4980   41.7970 O   0  0  0  0  0  0  0  0  0  0  0  0
   46.8150   33.6030   41.2350 N   0  0  0  0  0  0  0  0  0  0  0  0
   47.5130   32.3560   41.3840 C   0  0  0  0  0  3  0  0  0  0  0  0
   48.5330   32.3990   40.9680 H   0  0  0  0  0  0  0  0  0  0  0  0
   46.7170   31.1910   40.8640 C   0  0  0  0  0  3  0  0  0  0  0  0
   45.8590   31.0030   41.5400 H   0  0  0  0  0  0  0  0  0  0  0  0
   46.2980   31.3390   39.5030 N   0  0  0  0  0  0  0  0  0  0  0  0
   46.8960   30.8010   38.8550 H   0  0  0  0  0  0  0  0  0  0  0  0
   46.2170   32.6980   39.0470 C   0  0  0  0  0  2  0  0  0  0  0  0
   45.8830   33.6760   40.1480 C   0  0  0  0  0  2  0  0  0  0  0  0
   44.5550   35.9960   44.5060 C   0  0  0  0  0  0  0  0  0  0  0  0
   45.3500   35.8680   43.3590 C   0  0  0  0  0  0  0  0  0  0  0  0
   46.2410   34.8020   43.3120 C   0  0  0  0  0  0  0  0  0  0  0  0
   46.2950   33.9440   44.3700 N   0  0  0  0  0  0  0  0  0  0  0  0
   45.5050   34.1090   45.4570 C   0  0  0  0  0  0  0  0  0  0  0  0
   44.6270   35.1420   45.5280 N   0  0  0  0  0  0  0  0  0  0  0  0
   43.8420   36.8130   44.5930 H   0  0  0  0  0  0  0  0  0  0  0  0
   45.2100   36.6100   42.5980 H   0  0  0  0  0  0  0  0  0  0  0  0
   45.7250   33.3100   46.1610 H   0  0  0  0  0  0  0  0  0  0  0  0
  1 14  1  0  0  0  0
  2  1  2  0  0  0  0
  3  4  1  0  0  0  0
  3  1  1  0  0  0  0
  5  4  1  0  0  0  0
  6  4  1  0  0  0  0
  6  7  1  0  0  0  0
  8  6  1  0  0  0  0
  9  8  1  0  0  0  0
 10  8  1  0  0  0  0
 10 11  1  0  0  0  0
 11  3  1  0  0  0  0
 12 18  1  0  0  0  0
 12 17  1  0  0  0  0
 13 12  2  0  0  0  0
 14 13  1  0  0  0  0
 14 15  2  0  0  0  0
 15 16  1  0  0  0  0
 16 17  2  0  0  0  0
 16 20  1  0  0  0  0
 19 13  1  0  0  0  0
M  END
>  <minimizedAffinity>
-3.92693377

>  <minimizedRMSD>
0.755502641

$$$$
