
 OpenBabel03252501333D

 24 25  0  0  0  0  0  0  0  0999 V2000
   42.0150   33.9040   41.2670 C   0  0  0  0  0  0  0  0  0  0  0  0
   42.7850   32.9950   41.6780 O   0  0  0  0  0  0  0  0  0  0  0  0
   42.6460   35.2050   41.2800 N   0  0  0  0  0  0  0  0  0  0  0  0
   42.1510   36.0430   40.9670 H   0  0  0  0  0  0  0  0  0  0  0  0
   40.6730   33.7440   40.8280 N   0  0  0  0  0  0  0  0  0  0  0  0
   39.7380   32.9110   41.5960 C   0  0  0  0  0  0  0  0  0  0  0  0
   39.4010   33.5240   42.4470 H   0  0  0  0  0  0  0  0  0  0  0  0
   38.5610   32.5040   40.7290 C   0  0  0  0  0  0  0  0  0  0  0  0
   38.9070   31.8190   39.9570 H   0  0  0  0  0  0  0  0  0  0  0  0
   38.0470   33.7230   40.0880 N   0  0  0  0  0  0  0  0  0  0  0  0
   38.0470   34.4560   40.8170 H   0  0  0  0  0  0  0  0  0  0  0  0
   38.9990   34.0780   39.0560 C   0  0  0  0  0  0  0  0  0  0  0  0
   40.3410   34.4500   39.6060 C   0  0  0  0  0  0  0  0  0  0  0  0
   43.9980   35.0530   41.7890 C   0  0  0  0  0  0  0  0  0  0  0  0
   44.4080   35.3330   43.0770 C   0  0  0  0  0  0  0  0  0  0  0  0
   45.7480   35.1220   43.3730 C   0  0  0  0  0  0  0  0  0  0  0  0
   46.5380   34.6620   42.3820 N   0  0  0  0  0  0  0  0  0  0  0  0
   46.1140   34.3990   41.1360 C   0  0  0  0  0  0  0  0  0  0  0  0
   44.8190   34.5900   40.8110 N   0  0  0  0  0  0  0  0  0  0  0  0
   46.0460   35.3430   44.3710 H   0  0  0  0  0  0  0  0  0  0  0  0
   46.7680   34.0300   40.3570 H   0  0  0  0  0  0  0  0  0  0  0  0
   43.4100   35.8060   43.9570 N   0  0  0  0  0  0  0  0  0  0  0  0
   43.4080   36.8570   44.1160 H   0  0  0  0  0  0  0  0  0  0  0  0
   42.6880   35.2090   44.4550 H   0  0  0  0  0  0  0  0  0  0  0  0
  1  3  1  0  0  0  0
  1  2  2  0  0  0  0
  3 14  1  0  0  0  0
  4  3  1  0  0  0  0
  5  1  1  0  0  0  0
  5  6  1  0  0  0  0
  6  7  1  0  0  0  0
  8  6  1  0  0  0  0
  9  8  1  0  0  0  0
 10  8  1  0  0  0  0
 10 11  1  0  0  0  0
 12 13  1  0  0  0  0
 12 10  1  0  0  0  0
 13  5  1  0  0  0  0
 14 15  1  0  0  0  0
 15 16  2  0  0  0  0
 15 22  1  0  0  0  0
 16 20  1  0  0  0  0
 17 16  1  0  0  0  0
 18 17  2  0  0  0  0
 19 18  1  0  0  0  0
 19 14  2  0  0  0  0
 21 18  1  0  0  0  0
 22 23  1  0  0  0  0
 22 24  1  0  0  0  0
M  END
>  <minimizedAffinity>
-5.48970175

>  <minimizedRMSD>
4.18662834

$$$$
