
 OpenBabel03252504003D

 34 37  0  0  0  0  0  0  0  0999 V2000
   46.8940   34.8900   42.5930 C   0  0  0  0  0  0  0  0  0  0  0  0
   45.9570   35.9250   42.4900 C   0  0  0  0  0  0  0  0  0  0  0  0
   44.9370   35.9590   43.4410 C   0  0  0  0  0  0  0  0  0  0  0  0
   44.9050   34.9960   44.4060 N   0  0  0  0  0  0  0  0  0  0  0  0
   45.8360   34.0190   44.4600 C   0  0  0  0  0  0  0  0  0  0  0  0
   46.8290   33.9640   43.5570 N   0  0  0  0  0  0  0  0  0  0  0  0
   45.9410   36.7010   41.7500 H   0  0  0  0  0  0  0  0  0  0  0  0
   44.1710   36.7350   43.4240 H   0  0  0  0  0  0  0  0  0  0  0  0
   46.0490   31.6780   45.1380 C   0  0  0  0  0  0  0  0  0  0  0  0
   45.8020   32.9840   45.4990 C   0  0  0  0  0  0  0  0  0  0  0  0
   45.5340   33.2690   46.8130 C   0  0  0  0  0  0  0  0  0  0  0  0
   45.5070   32.2800   47.7690 C   0  0  0  0  0  0  0  0  0  0  0  0
   45.2830   32.2570   49.0860 N   0  0  0  0  0  0  0  0  0  0  0  0
   45.3810   30.9890   49.5540 C   0  0  0  0  0  0  0  0  0  0  0  0
   45.6830   30.1400   48.5000 C   0  0  0  0  0  0  0  0  0  0  0  0
   45.7600   30.9500   47.3950 C   0  0  0  0  0  0  0  0  0  0  0  0
   46.0310   30.6620   46.0710 C   0  0  0  0  0  0  0  0  0  0  0  0
   46.2660   31.4040   44.1110 H   0  0  0  0  0  0  0  0  0  0  0  0
   45.3410   34.3090   47.0830 H   0  0  0  0  0  0  0  0  0  0  0  0
   45.0640   33.1390   49.6280 H   0  0  0  0  0  0  0  0  0  0  0  0
   45.2340   30.7330   50.6040 H   0  0  0  0  0  0  0  0  0  0  0  0
   45.8250   29.0590   48.5580 H   0  0  0  0  0  0  0  0  0  0  0  0
   46.2250   29.6200   45.7990 H   0  0  0  0  0  0  0  0  0  0  0  0
   47.9140   34.9180   41.5840 C   0  0  0  0  0  0  0  0  0  0  0  0
   48.8390   35.7990   41.4860 O   0  0  0  0  0  0  0  0  0  0  0  0
   47.8360   33.8420   40.6370 N   0  0  0  0  0  0  0  0  0  0  0  0
   48.2530   33.8720   39.2460 C   0  0  0  0  0  3  0  0  0  0  0  0
   48.6890   34.8530   38.9720 H   0  0  0  0  0  0  0  0  0  0  0  0
   47.0960   33.5600   38.3670 C   0  0  0  0  0  3  0  0  0  0  0  0
   47.4420   32.8720   37.5450 H   0  0  0  0  0  0  0  0  0  0  0  0
   45.9540   33.0150   39.0530 N   0  0  0  0  0  0  0  0  0  0  0  0
   45.3830   32.5150   38.3350 H   0  0  0  0  0  0  0  0  0  0  0  0
   46.2970   32.0500   40.0690 C   0  0  0  0  0  2  0  0  0  0  0  0
   47.2900   32.5700   41.0650 C   0  0  0  0  0  2  0  0  0  0  0  0
  1  6  1  0  0  0  0
  2  1  2  0  0  0  0
  2  3  1  0  0  0  0
  3  4  2  0  0  0  0
  4  5  1  0  0  0  0
  5 10  1  0  0  0  0
  6  5  2  0  0  0  0
  7  2  1  0  0  0  0
  8  3  1  0  0  0  0
  9 10  2  0  0  0  0
  9 17  1  0  0  0  0
 10 11  1  0  0  0  0
 11 19  1  0  0  0  0
 11 12  2  0  0  0  0
 12 13  1  0  0  0  0
 13 14  1  0  0  0  0
 13 20  1  0  0  0  0
 14 21  1  0  0  0  0
 15 22  1  0  0  0  0
 15 14  2  0  0  0  0
 16 12  1  0  0  0  0
 16 15  1  0  0  0  0
 17 16  2  0  0  0  0
 18  9  1  0  0  0  0
 23 17  1  0  0  0  0
 24  1  1  0  0  0  0
 25 24  2  0  0  0  0
 26 34  1  0  0  0  0
 26 24  1  0  0  0  0
 27 26  1  0  0  0  0
 28 27  1  0  0  0  0
 29 31  1  0  0  0  0
 29 27  1  0  0  0  0
 30 29  1  0  0  0  0
 31 33  1  0  0  0  0
 32 31  1  0  0  0  0
 33 34  1  0  0  0  0
M  END
>  <minimizedAffinity>
-6.17591619

>  <minimizedRMSD>
0.0517182909

$$$$
