
 OpenBabel03252504003D

 34 37  0  0  0  0  0  0  0  0999 V2000
   46.7890   34.9640   42.6480 C   0  0  0  0  0  0  0  0  0  0  0  0
   45.8870   36.0330   42.6180 C   0  0  0  0  0  0  0  0  0  0  0  0
   44.9140   36.0760   43.6150 C   0  0  0  0  0  0  0  0  0  0  0  0
   44.8920   35.0880   44.5560 N   0  0  0  0  0  0  0  0  0  0  0  0
   45.7880   34.0780   44.5390 C   0  0  0  0  0  0  0  0  0  0  0  0
   46.7360   34.0140   43.5890 N   0  0  0  0  0  0  0  0  0  0  0  0
   45.8650   36.8310   41.9000 H   0  0  0  0  0  0  0  0  0  0  0  0
   44.1770   36.8790   43.6550 H   0  0  0  0  0  0  0  0  0  0  0  0
   46.0250   31.7220   45.1560 C   0  0  0  0  0  0  0  0  0  0  0  0
   45.7640   33.0160   45.5500 C   0  0  0  0  0  0  0  0  0  0  0  0
   45.4920   33.2620   46.8710 C   0  0  0  0  0  0  0  0  0  0  0  0
   45.4750   32.2490   47.8010 C   0  0  0  0  0  0  0  0  0  0  0  0
   45.2510   32.1890   49.1160 N   0  0  0  0  0  0  0  0  0  0  0  0
   45.3620   30.9100   49.5510 C   0  0  0  0  0  0  0  0  0  0  0  0
   45.6730   30.0920   48.4750 C   0  0  0  0  0  0  0  0  0  0  0  0
   45.7430   30.9310   47.3920 C   0  0  0  0  0  0  0  0  0  0  0  0
   46.0170   30.6820   46.0610 C   0  0  0  0  0  0  0  0  0  0  0  0
   46.2460   31.4770   44.1210 H   0  0  0  0  0  0  0  0  0  0  0  0
   45.2880   34.2940   47.1680 H   0  0  0  0  0  0  0  0  0  0  0  0
   45.0220   33.0530   49.6810 H   0  0  0  0  0  0  0  0  0  0  0  0
   45.2170   30.6240   50.5940 H   0  0  0  0  0  0  0  0  0  0  0  0
   45.8270   29.0110   48.5040 H   0  0  0  0  0  0  0  0  0  0  0  0
   46.2230   29.6490   45.7620 H   0  0  0  0  0  0  0  0  0  0  0  0
   47.7630   34.9850   41.5930 C   0  0  0  0  0  0  0  0  0  0  0  0
   48.7410   35.8080   41.5000 O   0  0  0  0  0  0  0  0  0  0  0  0
   47.5680   33.9760   40.5920 N   0  0  0  0  0  0  0  0  0  0  0  0
   46.3130   33.6050   39.9600 C   0  0  0  0  0  3  0  0  0  0  0  0
   45.4730   34.2290   40.3230 H   0  0  0  0  0  0  0  0  0  0  0  0
   46.0310   32.1680   40.2070 C   0  0  0  0  0  3  0  0  0  0  0  0
   45.6340   31.7080   39.2580 H   0  0  0  0  0  0  0  0  0  0  0  0
   47.1490   31.4180   40.7180 N   0  0  0  0  0  0  0  0  0  0  0  0
   46.9560   30.4130   40.5080 H   0  0  0  0  0  0  0  0  0  0  0  0
   48.4040   31.7500   40.0890 C   0  0  0  0  0  2  0  0  0  0  0  0
   48.7120   33.2170   40.1290 C   0  0  0  0  0  2  0  0  0  0  0  0
  1  6  1  0  0  0  0
  2  1  2  0  0  0  0
  2  3  1  0  0  0  0
  3  8  1  0  0  0  0
  3  4  2  0  0  0  0
  5  4  1  0  0  0  0
  5 10  1  0  0  0  0
  6  5  2  0  0  0  0
  7  2  1  0  0  0  0
  9 10  2  0  0  0  0
  9 17  1  0  0  0  0
 10 11  1  0  0  0  0
 11 19  1  0  0  0  0
 11 12  2  0  0  0  0
 12 13  1  0  0  0  0
 13 14  1  0  0  0  0
 13 20  1  0  0  0  0
 14 21  1  0  0  0  0
 15 22  1  0  0  0  0
 15 14  2  0  0  0  0
 16 12  1  0  0  0  0
 16 15  1  0  0  0  0
 17 16  2  0  0  0  0
 18  9  1  0  0  0  0
 23 17  1  0  0  0  0
 24  1  1  0  0  0  0
 25 24  2  0  0  0  0
 26 24  1  0  0  0  0
 27 29  1  0  0  0  0
 27 28  1  0  0  0  0
 27 26  1  0  0  0  0
 29 31  1  0  0  0  0
 30 29  1  0  0  0  0
 32 31  1  0  0  0  0
 33 34  1  0  0  0  0
 33 31  1  0  0  0  0
 34 26  1  0  0  0  0
M  END
>  <minimizedAffinity>
-6.08405638

>  <minimizedRMSD>
0.235191748

$$$$
