
 OpenBabel03252504003D

 34 37  0  0  0  0  0  0  0  0999 V2000
   47.1150   34.9320   42.6210 C   0  0  0  0  0  0  0  0  0  0  0  0
   46.1110   35.8780   42.3880 C   0  0  0  0  0  0  0  0  0  0  0  0
   44.9860   35.8320   43.2110 C   0  0  0  0  0  0  0  0  0  0  0  0
   44.9240   34.8800   44.1870 N   0  0  0  0  0  0  0  0  0  0  0  0
   45.9230   33.9890   44.3690 C   0  0  0  0  0  0  0  0  0  0  0  0
   47.0170   34.0130   43.5890 N   0  0  0  0  0  0  0  0  0  0  0  0
   46.1150   36.6430   41.6360 H   0  0  0  0  0  0  0  0  0  0  0  0
   44.1630   36.5370   43.0890 H   0  0  0  0  0  0  0  0  0  0  0  0
   46.0690   31.6510   45.0710 C   0  0  0  0  0  0  0  0  0  0  0  0
   45.8560   32.9660   45.4180 C   0  0  0  0  0  0  0  0  0  0  0  0
   45.5900   33.2710   46.7280 C   0  0  0  0  0  0  0  0  0  0  0  0
   45.5320   32.2930   47.6930 C   0  0  0  0  0  0  0  0  0  0  0  0
   45.3010   32.2890   49.0090 N   0  0  0  0  0  0  0  0  0  0  0  0
   45.3620   31.0240   49.4900 C   0  0  0  0  0  0  0  0  0  0  0  0
   45.6460   30.1560   48.4460 C   0  0  0  0  0  0  0  0  0  0  0  0
   45.7500   30.9530   47.3330 C   0  0  0  0  0  0  0  0  0  0  0  0
   46.0200   30.6450   46.0140 C   0  0  0  0  0  0  0  0  0  0  0  0
   46.2840   31.3600   44.0470 H   0  0  0  0  0  0  0  0  0  0  0  0
   45.4230   34.3190   46.9860 H   0  0  0  0  0  0  0  0  0  0  0  0
   45.1030   33.1820   49.5410 H   0  0  0  0  0  0  0  0  0  0  0  0
   45.2030   30.7820   50.5420 H   0  0  0  0  0  0  0  0  0  0  0  0
   45.7590   29.0720   48.5150 H   0  0  0  0  0  0  0  0  0  0  0  0
   46.1870   29.5950   45.7530 H   0  0  0  0  0  0  0  0  0  0  0  0
   48.2410   35.0390   41.7380 C   0  0  0  0  0  0  0  0  0  0  0  0
   49.1310   35.9610   41.7770 O   0  0  0  0  0  0  0  0  0  0  0  0
   48.3190   33.9990   40.7530 N   0  0  0  0  0  0  0  0  0  0  0  0
   47.7320   34.0080   39.4240 C   0  0  0  0  0  3  0  0  0  0  0  0
   47.2080   34.9630   39.2160 H   0  0  0  0  0  0  0  0  0  0  0  0
   46.7940   32.8660   39.2800 C   0  0  0  0  0  3  0  0  0  0  0  0
   46.9350   32.4090   38.2600 H   0  0  0  0  0  0  0  0  0  0  0  0
   46.9010   31.8710   40.3150 N   0  0  0  0  0  0  0  0  0  0  0  0
   46.4870   30.9920   39.9280 H   0  0  0  0  0  0  0  0  0  0  0  0
   48.2600   31.5700   40.6890 C   0  0  0  0  0  2  0  0  0  0  0  0
   49.0500   32.7870   41.0690 C   0  0  0  0  0  2  0  0  0  0  0  0
  1  6  1  0  0  0  0
  2  1  2  0  0  0  0
  2  3  1  0  0  0  0
  3  4  2  0  0  0  0
  4  5  1  0  0  0  0
  5 10  1  0  0  0  0
  6  5  2  0  0  0  0
  7  2  1  0  0  0  0
  8  3  1  0  0  0  0
  9 10  2  0  0  0  0
  9 17  1  0  0  0  0
 10 11  1  0  0  0  0
 11 19  1  0  0  0  0
 11 12  2  0  0  0  0
 12 13  1  0  0  0  0
 13 14  1  0  0  0  0
 13 20  1  0  0  0  0
 14 21  1  0  0  0  0
 15 22  1  0  0  0  0
 15 14  2  0  0  0  0
 16 12  1  0  0  0  0
 16 15  1  0  0  0  0
 17 16  2  0  0  0  0
 18  9  1  0  0  0  0
 23 17  1  0  0  0  0
 24 25  2  0  0  0  0
 24  1  1  0  0  0  0
 26 34  1  0  0  0  0
 26 24  1  0  0  0  0
 27 26  1  0  0  0  0
 28 27  1  0  0  0  0
 29 27  1  0  0  0  0
 29 31  1  0  0  0  0
 30 29  1  0  0  0  0
 31 33  1  0  0  0  0
 32 31  1  0  0  0  0
 33 34  1  0  0  0  0
M  END
>  <minimizedAffinity>
-6.19686365

>  <minimizedRMSD>
0.374835104

$$$$
