
 OpenBabel03252508513D

 28 30  0  0  0  0  0  0  0  0999 V2000
   45.9490   34.1010   41.0400 C   0  0  0  0  0  0  0  0  0  0  0  0
   46.5250   34.7920   42.1120 C   0  0  0  0  0  0  0  0  0  0  0  0
   47.8530   35.2210   41.9620 C   0  0  0  0  0  0  0  0  0  0  0  0
   48.4790   34.9280   40.7800 N   0  0  0  0  0  0  0  0  0  0  0  0
   47.8890   34.2670   39.7900 C   0  0  0  0  0  0  0  0  0  0  0  0
   46.6170   33.8410   39.9000 N   0  0  0  0  0  0  0  0  0  0  0  0
   48.3220   35.7590   42.7780 H   0  0  0  0  0  0  0  0  0  0  0  0
   48.4680   34.0900   38.9090 H   0  0  0  0  0  0  0  0  0  0  0  0
   45.7510   35.0390   43.3150 C   0  0  0  0  0  0  0  0  0  0  0  0
   45.0440   36.2040   43.5290 C   0  0  0  0  0  0  0  0  0  0  0  0
   44.4780   36.0020   44.7760 C   0  0  0  0  0  0  0  0  0  0  0  0
   44.8220   34.7870   45.2870 N   0  0  0  0  0  0  0  0  0  0  0  0
   45.5870   34.2380   44.3840 N   0  0  0  0  0  0  0  0  0  0  0  0
   44.9240   37.0880   42.9120 H   0  0  0  0  0  0  0  0  0  0  0  0
   43.8340   36.7310   45.2820 H   0  0  0  0  0  0  0  0  0  0  0  0
   44.4840   34.4660   46.2220 H   0  0  0  0  0  0  0  0  0  0  0  0
   44.6390   33.6750   41.1770 O   0  0  0  0  0  0  0  0  0  0  0  0
   43.5390   34.2790   40.6290 C   0  0  0  0  0  0  0  0  0  0  0  0
   43.3160   35.5220   40.4730 O   0  0  0  0  0  0  0  0  0  0  0  0
   42.3160   33.7360   40.0710 N   0  0  0  0  0  0  0  0  0  0  0  0
   42.4690   32.6130   39.1690 C   0  0  0  0  0  3  0  0  0  0  0  0
   42.1800   31.7150   39.7910 H   0  0  0  0  0  0  0  0  0  0  0  0
   41.4110   32.7740   38.0990 C   0  0  0  0  0  3  0  0  0  0  0  0
   41.8740   32.4600   37.1380 H   0  0  0  0  0  0  0  0  0  0  0  0
   41.0120   34.1500   37.9060 N   0  0  0  0  0  0  0  0  0  0  0  0
   40.3260   34.1590   37.1280 H   0  0  0  0  0  0  0  0  0  0  0  0
   40.3610   34.7060   39.0740 C   0  0  0  0  0  2  0  0  0  0  0  0
   40.9860   34.2380   40.3570 C   0  0  0  0  0  2  0  0  0  0  0  0
  1 17  1  0  0  0  0
  1  2  1  0  0  0  0
  2  9  1  0  0  0  0
  3  2  2  0  0  0  0
  3  7  1  0  0  0  0
  4  3  1  0  0  0  0
  5  6  1  0  0  0  0
  5  4  2  0  0  0  0
  6  1  2  0  0  0  0
  8  5  1  0  0  0  0
  9 10  1  0  0  0  0
  9 13  2  0  0  0  0
 10 11  2  0  0  0  0
 11 15  1  0  0  0  0
 11 12  1  0  0  0  0
 12 16  1  0  0  0  0
 13 12  1  0  0  0  0
 14 10  1  0  0  0  0
 18 17  1  0  0  0  0
 19 18  2  0  0  0  0
 20 28  1  0  0  0  0
 20 18  1  0  0  0  0
 21 22  1  0  0  0  0
 21 20  1  0  0  0  0
 23 21  1  0  0  0  0
 24 23  1  0  0  0  0
 25 23  1  0  0  0  0
 25 27  1  0  0  0  0
 26 25  1  0  0  0  0
 27 28  1  0  0  0  0
M  END
>  <minimizedAffinity>
-5.75660515

>  <minimizedRMSD>
0.593190253

$$$$
