
 OpenBabel03242510513D

 22 23  0  0  0  0  0  0  0  0999 V2000
   44.6710   36.6310   43.9640 C   0  0  0  0  0  0  0  0  0  0  0  0
   45.4110   36.2870   42.8230 C   0  0  0  0  0  0  0  0  0  0  0  0
   46.0940   35.0560   42.8370 C   0  0  0  0  0  0  0  0  0  0  0  0
   46.0000   34.2690   43.9510 N   0  0  0  0  0  0  0  0  0  0  0  0
   45.2820   34.6350   45.0180 C   0  0  0  0  0  0  0  0  0  0  0  0
   44.6080   35.8200   45.0420 N   0  0  0  0  0  0  0  0  0  0  0  0
   46.2160   32.7390   46.1990 C   0  0  0  0  0  0  0  0  0  0  0  0
   47.1030   32.5420   45.3500 O   0  0  0  0  0  0  0  0  0  0  0  0
   45.2220   33.7760   46.1490 N   0  0  0  0  0  0  0  0  0  0  0  0
   44.1230   37.5520   44.0340 H   0  0  0  0  0  0  0  0  0  0  0  0
   45.4460   36.9530   41.9740 H   0  0  0  0  0  0  0  0  0  0  0  0
   46.6660   34.7820   41.9630 H   0  0  0  0  0  0  0  0  0  0  0  0
   44.5110   33.8690   46.9080 H   0  0  0  0  0  0  0  0  0  0  0  0
   46.1620   31.8710   47.3320 N   0  0  0  0  0  0  0  0  0  0  0  0
   46.6130   30.4820   47.2050 C   0  0  0  0  0  0  0  0  0  0  0  0
   47.0250   30.2600   46.2020 H   0  0  0  0  0  0  0  0  0  0  0  0
   47.7510   30.3540   48.2260 C   0  0  0  0  0  0  0  0  0  0  0  0
   48.4650   31.1660   47.9640 H   0  0  0  0  0  0  0  0  0  0  0  0
   47.2710   30.6510   49.5520 N   0  0  0  0  0  0  0  0  0  0  0  0
   47.9060   31.2630   50.0930 H   0  0  0  0  0  0  0  0  0  0  0  0
   45.9010   31.1030   49.5700 C   0  0  0  0  0  0  0  0  0  0  0  0
   45.6800   32.2750   48.6300 C   0  0  0  0  0  0  0  0  0  0  0  0
  1 10  1  0  0  0  0
  1  6  1  0  0  0  0
  2  3  1  0  0  0  0
  2  1  2  0  0  0  0
  3  4  2  0  0  0  0
  4  5  1  0  0  0  0
  5  6  2  0  0  0  0
  5  9  1  0  0  0  0
  7 14  1  0  0  0  0
  8  7  2  0  0  0  0
  9  7  1  0  0  0  0
  9 13  1  0  0  0  0
 11  2  1  0  0  0  0
 12  3  1  0  0  0  0
 14 22  1  0  0  0  0
 15 14  1  0  0  0  0
 15 17  1  0  0  0  0
 16 15  1  0  0  0  0
 17 19  1  0  0  0  0
 18 17  1  0  0  0  0
 19 21  1  0  0  0  0
 19 20  1  0  0  0  0
 22 21  1  0  0  0  0
M  END
>  <minimizedAffinity>
-5.50980186

>  <minimizedRMSD>
0.989019752

$$$$
