
 OpenBabel03252504003D

 34 37  0  0  0  0  0  0  0  0999 V2000
   46.9480   34.9190   42.6320 C   0  0  0  0  0  0  0  0  0  0  0  0
   45.9780   35.9160   42.4880 C   0  0  0  0  0  0  0  0  0  0  0  0
   44.9180   35.9130   43.3950 C   0  0  0  0  0  0  0  0  0  0  0  0
   44.8840   34.9510   44.3620 N   0  0  0  0  0  0  0  0  0  0  0  0
   45.8490   34.0100   44.4560 C   0  0  0  0  0  0  0  0  0  0  0  0
   46.8800   33.9920   43.5950 N   0  0  0  0  0  0  0  0  0  0  0  0
   45.9620   36.6910   41.7460 H   0  0  0  0  0  0  0  0  0  0  0  0
   44.1240   36.6590   43.3440 H   0  0  0  0  0  0  0  0  0  0  0  0
   46.0600   31.6700   45.1370 C   0  0  0  0  0  0  0  0  0  0  0  0
   45.8110   32.9760   45.4960 C   0  0  0  0  0  0  0  0  0  0  0  0
   45.5390   33.2610   46.8090 C   0  0  0  0  0  0  0  0  0  0  0  0
   45.5100   32.2730   47.7660 C   0  0  0  0  0  0  0  0  0  0  0  0
   45.2820   32.2520   49.0820 N   0  0  0  0  0  0  0  0  0  0  0  0
   45.3780   30.9840   49.5520 C   0  0  0  0  0  0  0  0  0  0  0  0
   45.6840   30.1340   48.4990 C   0  0  0  0  0  0  0  0  0  0  0  0
   45.7640   30.9430   47.3930 C   0  0  0  0  0  0  0  0  0  0  0  0
   46.0390   30.6550   46.0700 C   0  0  0  0  0  0  0  0  0  0  0  0
   46.2800   31.3950   44.1100 H   0  0  0  0  0  0  0  0  0  0  0  0
   45.3450   34.3020   47.0770 H   0  0  0  0  0  0  0  0  0  0  0  0
   45.0610   33.1330   49.6220 H   0  0  0  0  0  0  0  0  0  0  0  0
   45.2280   30.7280   50.6010 H   0  0  0  0  0  0  0  0  0  0  0  0
   45.8260   29.0530   48.5580 H   0  0  0  0  0  0  0  0  0  0  0  0
   46.2340   29.6120   45.8000 H   0  0  0  0  0  0  0  0  0  0  0  0
   48.0080   34.9850   41.6650 C   0  0  0  0  0  0  0  0  0  0  0  0
   48.9180   35.8850   41.6210 O   0  0  0  0  0  0  0  0  0  0  0  0
   47.9880   33.9260   40.6970 N   0  0  0  0  0  0  0  0  0  0  0  0
   48.1700   34.0530   39.2620 C   0  0  0  0  0  3  0  0  0  0  0  0
   48.3650   35.1030   38.9660 H   0  0  0  0  0  0  0  0  0  0  0  0
   46.9720   33.5340   38.5540 C   0  0  0  0  0  3  0  0  0  0  0  0
   47.3100   32.9350   37.6610 H   0  0  0  0  0  0  0  0  0  0  0  0
   46.0740   32.7690   39.3810 N   0  0  0  0  0  0  0  0  0  0  0  0
   45.5040   32.1780   38.7360 H   0  0  0  0  0  0  0  0  0  0  0  0
   46.7480   31.8760   40.2920 C   0  0  0  0  0  2  0  0  0  0  0  0
   47.7670   32.5660   41.1490 C   0  0  0  0  0  2  0  0  0  0  0  0
  1  6  1  0  0  0  0
  2  1  2  0  0  0  0
  2  3  1  0  0  0  0
  3  4  2  0  0  0  0
  4  5  1  0  0  0  0
  5 10  1  0  0  0  0
  6  5  2  0  0  0  0
  7  2  1  0  0  0  0
  8  3  1  0  0  0  0
  9 10  2  0  0  0  0
  9 17  1  0  0  0  0
 10 11  1  0  0  0  0
 11 19  1  0  0  0  0
 11 12  2  0  0  0  0
 12 13  1  0  0  0  0
 13 14  1  0  0  0  0
 13 20  1  0  0  0  0
 14 21  1  0  0  0  0
 15 22  1  0  0  0  0
 15 14  2  0  0  0  0
 16 12  1  0  0  0  0
 16 15  1  0  0  0  0
 17 16  2  0  0  0  0
 18  9  1  0  0  0  0
 23 17  1  0  0  0  0
 24  1  1  0  0  0  0
 25 24  2  0  0  0  0
 26 34  1  0  0  0  0
 26 24  1  0  0  0  0
 27 26  1  0  0  0  0
 28 27  1  0  0  0  0
 29 27  1  0  0  0  0
 29 31  1  0  0  0  0
 30 29  1  0  0  0  0
 31 33  1  0  0  0  0
 32 31  1  0  0  0  0
 33 34  1  0  0  0  0
M  END
>  <minimizedAffinity>
-6.18163395

>  <minimizedRMSD>
0.147210523

$$$$
