
 OpenBabel03252502283D

 35 37  0  0  0  0  0  0  0  0999 V2000
   45.2460   34.3960   41.0990 C   0  0  0  0  0  0  0  0  0  0  0  0
   45.4880   34.9550   42.3450 C   0  0  0  0  0  0  0  0  0  0  0  0
   46.8050   35.2120   42.7200 C   0  0  0  0  0  0  0  0  0  0  0  0
   47.8240   34.9100   41.8560 C   0  0  0  0  0  0  0  0  0  0  0  0
   47.6060   34.3560   40.6140 C   0  0  0  0  0  0  0  0  0  0  0  0
   46.2770   34.1080   40.2650 C   0  0  0  0  0  0  0  0  0  0  0  0
   44.6850   35.1930   43.0270 H   0  0  0  0  0  0  0  0  0  0  0  0
   46.9480   35.6480   43.7000 H   0  0  0  0  0  0  0  0  0  0  0  0
   48.8480   35.1050   42.1340 H   0  0  0  0  0  0  0  0  0  0  0  0
   48.3970   34.1060   39.9080 H   0  0  0  0  0  0  0  0  0  0  0  0
   45.6880   32.2300   38.5430 C   0  0  0  0  0  0  0  0  0  0  0  0
   45.8440   31.1970   39.1840 O   0  0  0  0  0  0  0  0  0  0  0  0
   45.9170   33.5440   39.0200 N   0  0  0  0  0  0  0  0  0  0  0  0
   45.8140   34.3590   38.3500 H   0  0  0  0  0  0  0  0  0  0  0  0
   45.2340   32.0740   37.2010 N   0  0  0  0  0  0  0  0  0  0  0  0
   45.0150   30.7080   36.7680 C   0  0  0  0  0  3  0  0  0  0  0  0
   45.9700   30.1820   36.5660 H   0  0  0  0  0  0  0  0  0  0  0  0
   44.0250   30.6450   35.6340 C   0  0  0  0  0  3  0  0  0  0  0  0
   43.0060   30.8150   36.0930 H   0  0  0  0  0  0  0  0  0  0  0  0
   44.2790   31.5410   34.5540 N   0  0  0  0  0  0  0  0  0  0  0  0
   44.5490   31.0210   33.6900 H   0  0  0  0  0  0  0  0  0  0  0  0
   45.3560   32.4490   34.8730 C   0  0  0  0  0  2  0  0  0  0  0  0
   44.9600   33.0950   36.2090 C   0  0  0  0  0  2  0  0  0  0  0  0
   41.6190   34.7510   40.1250 C   0  0  0  0  0  0  0  0  0  0  0  0
   42.9410   35.1120   40.4160 C   0  0  0  0  0  0  0  0  0  0  0  0
   43.8470   34.1540   40.7720 C   0  0  0  0  0  0  0  0  0  0  0  0
   43.3900   32.8670   40.8230 N   0  0  0  0  0  0  0  0  0  0  0  0
   42.1210   32.5130   40.5440 C   0  0  0  0  0  0  0  0  0  0  0  0
   41.2270   33.4660   40.1910 N   0  0  0  0  0  0  0  0  0  0  0  0
   43.2790   36.1410   40.3690 H   0  0  0  0  0  0  0  0  0  0  0  0
   41.8240   31.4710   40.6040 H   0  0  0  0  0  0  0  0  0  0  0  0
   40.6320   35.7790   39.7390 C   0  0  0  0  0  0  0  0  0  0  0  0
   39.4270   35.1180   39.4560 F   0  0  0  0  0  0  0  0  0  0  0  0
   41.0580   36.3070   38.5290 F   0  0  0  0  0  0  0  0  0  0  0  0
   40.4330   36.7360   40.6970 F   0  0  0  0  0  0  0  0  0  0  0  0
  1  2  1  0  0  0  0
  2  3  2  0  0  0  0
  2  7  1  0  0  0  0
  3  8  1  0  0  0  0
  4  9  1  0  0  0  0
  4  3  1  0  0  0  0
  5  4  2  0  0  0  0
  6  5  1  0  0  0  0
  6  1  2  0  0  0  0
 10  5  1  0  0  0  0
 11 13  1  0  0  0  0
 11 12  2  0  0  0  0
 13  6  1  0  0  0  0
 14 13  1  0  0  0  0
 15 11  1  0  0  0  0
 16 15  1  0  0  0  0
 17 16  1  0  0  0  0
 18 19  1  0  0  0  0
 18 16  1  0  0  0  0
 20 22  1  0  0  0  0
 20 18  1  0  0  0  0
 21 20  1  0  0  0  0
 22 23  1  0  0  0  0
 23 15  1  0  0  0  0
 24 29  2  0  0  0  0
 24 25  1  0  0  0  0
 25 26  2  0  0  0  0
 26 27  1  0  0  0  0
 26  1  1  0  0  0  0
 28 31  1  0  0  0  0
 28 27  2  0  0  0  0
 29 28  1  0  0  0  0
 30 25  1  0  0  0  0
 32 24  1  0  0  0  0
 32 35  1  0  0  0  0
 33 32  1  0  0  0  0
 34 32  1  0  0  0  0
M  END
>  <minimizedAffinity>
-6.22047138

>  <minimizedRMSD>
0.583473921

$$$$
