
 OpenBabel03242515013D

 37 39  0  0  0  0  0  0  0  0999 V2000
   45.2850   34.4530   42.4450 C   0  0  0  0  0  0  0  0  0  0  0  0
   46.6290   34.2990   42.1180 C   0  0  0  0  0  0  0  0  0  0  0  0
   47.5300   33.9580   43.1420 C   0  0  0  0  0  0  0  0  0  0  0  0
   47.0330   33.7980   44.3950 N   0  0  0  0  0  0  0  0  0  0  0  0
   45.7390   33.9490   44.6950 C   0  0  0  0  0  0  0  0  0  0  0  0
   44.8860   34.2720   43.7240 N   0  0  0  0  0  0  0  0  0  0  0  0
   47.0620   34.4180   41.1320 H   0  0  0  0  0  0  0  0  0  0  0  0
   48.5940   33.8250   42.9430 H   0  0  0  0  0  0  0  0  0  0  0  0
   45.3200   33.7530   46.0660 C   0  0  0  0  0  0  0  0  0  0  0  0
   44.5830   34.6280   46.5840 O   0  0  0  0  0  0  0  0  0  0  0  0
   45.6410   32.6700   46.9320 N   0  0  0  0  0  0  0  0  0  0  0  0
   46.9050   32.0280   46.7210 C   0  0  0  0  0  0  0  0  0  0  0  0
   47.4970   32.4150   45.8830 H   0  0  0  0  0  0  0  0  0  0  0  0
   47.7290   32.2800   47.9890 C   0  0  0  0  0  0  0  0  0  0  0  0
   48.7170   31.7840   47.8580 H   0  0  0  0  0  0  0  0  0  0  0  0
   47.0760   31.6250   49.0810 N   0  0  0  0  0  0  0  0  0  0  0  0
   47.3200   30.6320   49.1680 H   0  0  0  0  0  0  0  0  0  0  0  0
   45.7060   31.9700   49.2810 C   0  0  0  0  0  0  0  0  0  0  0  0
   44.8990   32.0910   48.0090 C   0  0  0  0  0  0  0  0  0  0  0  0
   44.1800   34.8880   41.1060 S   0  0  0  0  0  0  0  0  0  0  0  0
   42.4480   34.6270   41.5240 C   0  0  0  0  0  0  0  0  0  0  0  0
   42.0870   33.6140   41.1990 H   0  0  0  0  0  0  0  0  0  0  0  0
   42.3610   34.6300   42.6320 H   0  0  0  0  0  0  0  0  0  0  0  0
   41.5410   35.6790   40.9630 C   0  0  0  0  0  0  0  0  0  0  0  0
   42.1570   36.4550   40.5080 H   0  0  0  0  0  0  0  0  0  0  0  0
   40.9540   36.1470   41.7930 H   0  0  0  0  0  0  0  0  0  0  0  0
   42.2840   35.9010   38.0220 Cl  0  0  0  0  0  0  0  0  0  0  0  0
   40.8420   35.1450   38.6050 C   0  0  0  0  0  0  0  0  0  0  0  0
   40.5980   35.0970   39.9790 C   0  0  0  0  0  0  0  0  0  0  0  0
   39.4290   34.4790   40.3720 C   0  0  0  0  0  0  0  0  0  0  0  0
   38.4790   33.9040   39.5400 C   0  0  0  0  0  0  0  0  0  0  0  0
   38.7530   33.9690   38.1780 C   0  0  0  0  0  0  0  0  0  0  0  0
   37.6000   33.2630   37.0480 Cl  0  0  0  0  0  0  0  0  0  0  0  0
   39.9080   34.5760   37.7390 C   0  0  0  0  0  0  0  0  0  0  0  0
   39.1910   34.4150   41.4320 H   0  0  0  0  0  0  0  0  0  0  0  0
   37.5950   33.4420   39.9250 H   0  0  0  0  0  0  0  0  0  0  0  0
   40.0820   34.6040   36.6640 H   0  0  0  0  0  0  0  0  0  0  0  0
  1  6  1  0  0  0  0
  2  1  2  0  0  0  0
  2  3  1  0  0  0  0
  3  4  2  0  0  0  0
  4  5  1  0  0  0  0
  5  9  1  0  0  0  0
  6  5  2  0  0  0  0
  7  2  1  0  0  0  0
  8  3  1  0  0  0  0
  9 10  2  0  0  0  0
  9 11  1  0  0  0  0
 11 19  1  0  0  0  0
 12 11  1  0  0  0  0
 12 14  1  0  0  0  0
 13 12  1  0  0  0  0
 14 16  1  0  0  0  0
 15 14  1  0  0  0  0
 16 17  1  0  0  0  0
 16 18  1  0  0  0  0
 19 18  1  0  0  0  0
 20 21  1  0  0  0  0
 20  1  1  0  0  0  0
 21 23  1  0  0  0  0
 22 21  1  0  0  0  0
 24 21  1  0  0  0  0
 24 26  1  0  0  0  0
 25 24  1  0  0  0  0
 27 28  1  0  0  0  0
 28 29  1  0  0  0  0
 29 30  2  0  0  0  0
 29 24  1  0  0  0  0
 30 35  1  0  0  0  0
 31 36  1  0  0  0  0
 31 30  1  0  0  0  0
 32 31  2  0  0  0  0
 33 32  1  0  0  0  0
 34 32  1  0  0  0  0
 34 28  2  0  0  0  0
 37 34  1  0  0  0  0
M  END
>  <minimizedAffinity>
-7.06642485

>  <minimizedRMSD>
0.78342104

$$$$
