
 OpenBabel03242512273D

 22 23  0  0  0  0  0  0  0  0999 V2000
   45.3340   35.3940   43.5650 C   0  0  0  0  0  0  0  0  0  0  0  0
   46.4150   34.8510   42.8570 C   0  0  0  0  0  0  0  0  0  0  0  0
   47.1860   33.8250   43.4450 C   0  0  0  0  0  0  0  0  0  0  0  0
   46.8210   33.4260   44.6800 N   0  0  0  0  0  0  0  0  0  0  0  0
   45.7960   33.9450   45.3440 C   0  0  0  0  0  0  0  0  0  0  0  0
   45.0650   34.9180   44.7860 N   0  0  0  0  0  0  0  0  0  0  0  0
   44.5690   36.4230   42.9610 N   0  0  0  0  0  0  0  0  0  0  0  0
   46.7060   35.1610   41.8840 H   0  0  0  0  0  0  0  0  0  0  0  0
   48.0280   33.3780   42.9350 H   0  0  0  0  0  0  0  0  0  0  0  0
   43.8200   35.8460   42.5050 H   0  0  0  0  0  0  0  0  0  0  0  0
   44.6870   37.4730   42.9520 H   0  0  0  0  0  0  0  0  0  0  0  0
   45.3710   33.5450   46.6720 C   0  0  0  0  0  0  0  0  0  0  0  0
   44.4510   34.0870   47.3320 O   0  0  0  0  0  0  0  0  0  0  0  0
   45.9720   32.4640   47.3840 N   0  0  0  0  0  0  0  0  0  0  0  0
   45.1850   32.0350   48.5010 C   0  0  0  0  0  0  0  0  0  0  0  0
   44.2210   31.6540   48.0620 H   0  0  0  0  0  0  0  0  0  0  0  0
   45.7600   30.9500   49.3280 C   0  0  0  0  0  0  0  0  0  0  0  0
   45.3820   29.9570   49.0050 H   0  0  0  0  0  0  0  0  0  0  0  0
   47.1820   30.8540   49.3570 N   0  0  0  0  0  0  0  0  0  0  0  0
   47.5440   29.8780   49.1910 H   0  0  0  0  0  0  0  0  0  0  0  0
   47.8930   31.7630   48.5270 C   0  0  0  0  0  0  0  0  0  0  0  0
   47.2210   31.7600   47.1480 C   0  0  0  0  0  0  0  0  0  0  0  0
  1  6  1  0  0  0  0
  2  3  1  0  0  0  0
  2  1  2  0  0  0  0
  3  4  2  0  0  0  0
  4  5  1  0  0  0  0
  5 12  1  0  0  0  0
  6  5  2  0  0  0  0
  7  1  1  0  0  0  0
  8  2  1  0  0  0  0
  9  3  1  0  0  0  0
 10  7  1  0  0  0  0
 11  7  1  0  0  0  0
 12 13  2  0  0  0  0
 12 14  1  0  0  0  0
 14 15  1  0  0  0  0
 15 17  1  0  0  0  0
 16 15  1  0  0  0  0
 17 19  1  0  0  0  0
 18 17  1  0  0  0  0
 20 19  1  0  0  0  0
 21 19  1  0  0  0  0
 22 14  1  0  0  0  0
 22 21  1  0  0  0  0
M  END
>  <minimizedAffinity>
-5.38371515

>  <minimizedRMSD>
1.67445362

$$$$
