
 OpenBabel03252502283D

 35 37  0  0  0  0  0  0  0  0999 V2000
   45.1110   34.4690   41.2970 C   0  0  0  0  0  0  0  0  0  0  0  0
   45.4570   35.1310   42.4650 C   0  0  0  0  0  0  0  0  0  0  0  0
   46.8020   35.3930   42.7160 C   0  0  0  0  0  0  0  0  0  0  0  0
   47.7470   34.9940   41.8080 C   0  0  0  0  0  0  0  0  0  0  0  0
   47.4270   34.3370   40.6410 C   0  0  0  0  0  0  0  0  0  0  0  0
   46.0710   34.0870   40.4170 C   0  0  0  0  0  0  0  0  0  0  0  0
   44.7120   35.4460   43.1820 H   0  0  0  0  0  0  0  0  0  0  0  0
   47.0260   35.9100   43.6390 H   0  0  0  0  0  0  0  0  0  0  0  0
   48.7910   35.1920   41.9900 H   0  0  0  0  0  0  0  0  0  0  0  0
   48.1570   34.0090   39.9030 H   0  0  0  0  0  0  0  0  0  0  0  0
   46.2050   32.6160   38.2590 C   0  0  0  0  0  0  0  0  0  0  0  0
   47.4010   32.3650   38.1600 O   0  0  0  0  0  0  0  0  0  0  0  0
   45.6080   33.4230   39.2580 N   0  0  0  0  0  0  0  0  0  0  0  0
   44.5690   33.6260   39.2020 H   0  0  0  0  0  0  0  0  0  0  0  0
   45.3570   32.0340   37.2720 N   0  0  0  0  0  0  0  0  0  0  0  0
   45.4050   32.6500   35.9610 C   0  0  0  0  0  3  0  0  0  0  0  0
   44.8620   33.6160   35.9400 H   0  0  0  0  0  0  0  0  0  0  0  0
   44.9850   31.6820   34.8860 C   0  0  0  0  0  3  0  0  0  0  0  0
   45.8510   30.9720   34.7430 H   0  0  0  0  0  0  0  0  0  0  0  0
   43.7630   30.9910   35.1340 N   0  0  0  0  0  0  0  0  0  0  0  0
   43.0200   31.2870   34.4630 H   0  0  0  0  0  0  0  0  0  0  0  0
   43.2790   31.2510   36.4690 C   0  0  0  0  0  2  0  0  0  0  0  0
   44.4510   30.9080   37.3990 C   0  0  0  0  0  2  0  0  0  0  0  0
   41.4320   34.8040   40.5350 C   0  0  0  0  0  0  0  0  0  0  0  0
   42.7780   35.1600   40.6880 C   0  0  0  0  0  0  0  0  0  0  0  0
   43.6880   34.2290   41.0990 C   0  0  0  0  0  0  0  0  0  0  0  0
   43.2100   32.9720   41.3440 N   0  0  0  0  0  0  0  0  0  0  0  0
   41.9180   32.6220   41.2000 C   0  0  0  0  0  0  0  0  0  0  0  0
   41.0200   33.5490   40.7900 N   0  0  0  0  0  0  0  0  0  0  0  0
   43.1330   36.1650   40.4870 H   0  0  0  0  0  0  0  0  0  0  0  0
   41.6050   31.6050   41.4110 H   0  0  0  0  0  0  0  0  0  0  0  0
   40.4400   35.8030   40.0900 C   0  0  0  0  0  0  0  0  0  0  0  0
   39.2410   35.1200   39.8360 F   0  0  0  0  0  0  0  0  0  0  0  0
   40.8700   36.2700   38.8560 F   0  0  0  0  0  0  0  0  0  0  0  0
   40.2300   36.8080   40.9950 F   0  0  0  0  0  0  0  0  0  0  0  0
  1  2  1  0  0  0  0
  2  3  2  0  0  0  0
  2  7  1  0  0  0  0
  3  8  1  0  0  0  0
  4  9  1  0  0  0  0
  4  3  1  0  0  0  0
  5  4  2  0  0  0  0
  6  5  1  0  0  0  0
  6  1  2  0  0  0  0
 10  5  1  0  0  0  0
 11 13  1  0  0  0  0
 12 11  2  0  0  0  0
 13  6  1  0  0  0  0
 14 13  1  0  0  0  0
 15 23  1  0  0  0  0
 15 11  1  0  0  0  0
 16 15  1  0  0  0  0
 17 16  1  0  0  0  0
 18 20  1  0  0  0  0
 18 16  1  0  0  0  0
 19 18  1  0  0  0  0
 20 22  1  0  0  0  0
 21 20  1  0  0  0  0
 22 23  1  0  0  0  0
 24 25  2  0  0  0  0
 24 29  1  0  0  0  0
 25 26  1  0  0  0  0
 26  1  1  0  0  0  0
 26 27  2  0  0  0  0
 28 27  1  0  0  0  0
 28 31  1  0  0  0  0
 29 28  2  0  0  0  0
 30 25  1  0  0  0  0
 32 24  1  0  0  0  0
 32 35  1  0  0  0  0
 33 32  1  0  0  0  0
 34 32  1  0  0  0  0
M  END
>  <minimizedAffinity>
-6.35983276

>  <minimizedRMSD>
0.712808788

$$$$
