
 OpenBabel03252501113D

 20 21  0  0  0  0  0  0  0  0999 V2000
   47.0720   34.6320   42.1450 C   0  0  0  0  0  0  0  0  0  0  0  0
   48.1310   35.2680   41.9310 O   0  0  0  0  0  0  0  0  0  0  0  0
   46.6720   33.7010   41.1420 N   0  0  0  0  0  0  0  0  0  0  0  0
   45.9300   32.5180   41.4730 C   0  0  0  0  0  3  0  0  0  0  0  0
   46.5790   31.7190   41.8710 H   0  0  0  0  0  0  0  0  0  0  0  0
   45.0600   32.0530   40.3390 C   0  0  0  0  0  3  0  0  0  0  0  0
   44.2200   32.7660   40.2080 H   0  0  0  0  0  0  0  0  0  0  0  0
   45.7700   31.8410   39.1140 N   0  0  0  0  0  0  0  0  0  0  0  0
   45.9590   30.8380   38.9490 H   0  0  0  0  0  0  0  0  0  0  0  0
   46.9990   32.5730   39.0020 C   0  0  0  0  0  2  0  0  0  0  0  0
   46.9820   33.8820   39.7530 C   0  0  0  0  0  2  0  0  0  0  0  0
   44.5250   35.9980   44.4350 C   0  0  0  0  0  0  0  0  0  0  0  0
   45.3370   35.8320   43.3050 C   0  0  0  0  0  0  0  0  0  0  0  0
   46.2480   34.7810   43.3190 C   0  0  0  0  0  0  0  0  0  0  0  0
   46.3030   33.9730   44.4170 N   0  0  0  0  0  0  0  0  0  0  0  0
   45.4960   34.1740   45.4850 C   0  0  0  0  0  0  0  0  0  0  0  0
   44.5990   35.1930   45.4970 N   0  0  0  0  0  0  0  0  0  0  0  0
   43.7970   36.8050   44.4740 H   0  0  0  0  0  0  0  0  0  0  0  0
   45.1950   36.5350   42.5090 H   0  0  0  0  0  0  0  0  0  0  0  0
   45.7200   33.4140   46.2270 H   0  0  0  0  0  0  0  0  0  0  0  0
  1 14  1  0  0  0  0
  2  1  2  0  0  0  0
  3  4  1  0  0  0  0
  3  1  1  0  0  0  0
  4  5  1  0  0  0  0
  6  4  1  0  0  0  0
  7  6  1  0  0  0  0
  8  6  1  0  0  0  0
  9  8  1  0  0  0  0
 10  8  1  0  0  0  0
 10 11  1  0  0  0  0
 11  3  1  0  0  0  0
 12 18  1  0  0  0  0
 12 17  1  0  0  0  0
 13 14  1  0  0  0  0
 13 12  2  0  0  0  0
 14 15  2  0  0  0  0
 15 16  1  0  0  0  0
 16 17  2  0  0  0  0
 16 20  1  0  0  0  0
 19 13  1  0  0  0  0
M  END
>  <minimizedAffinity>
-3.89476299

>  <minimizedRMSD>
0.429254025

$$$$
