
 OpenBabel03252502283D

 35 37  0  0  0  0  0  0  0  0999 V2000
   45.1870   34.3400   41.0100 C   0  0  0  0  0  0  0  0  0  0  0  0
   45.4600   34.9020   42.2480 C   0  0  0  0  0  0  0  0  0  0  0  0
   46.7870   35.1410   42.5970 C   0  0  0  0  0  0  0  0  0  0  0  0
   47.7850   34.8200   41.7160 C   0  0  0  0  0  0  0  0  0  0  0  0
   47.5370   34.2630   40.4820 C   0  0  0  0  0  0  0  0  0  0  0  0
   46.1980   34.0330   40.1580 C   0  0  0  0  0  0  0  0  0  0  0  0
   44.6730   35.1560   42.9440 H   0  0  0  0  0  0  0  0  0  0  0  0
   46.9550   35.5800   43.5720 H   0  0  0  0  0  0  0  0  0  0  0  0
   48.8170   35.0010   41.9750 H   0  0  0  0  0  0  0  0  0  0  0  0
   48.3100   33.9980   39.7630 H   0  0  0  0  0  0  0  0  0  0  0  0
   45.8900   32.1810   38.3380 C   0  0  0  0  0  0  0  0  0  0  0  0
   46.4480   31.2060   38.8270 O   0  0  0  0  0  0  0  0  0  0  0  0
   45.8060   33.4680   38.9230 N   0  0  0  0  0  0  0  0  0  0  0  0
   45.3560   34.2540   38.3730 H   0  0  0  0  0  0  0  0  0  0  0  0
   45.2740   31.9810   37.0680 N   0  0  0  0  0  0  0  0  0  0  0  0
   44.4900   30.7690   36.9340 C   0  0  0  0  0  0  0  0  0  0  0  0
   45.1330   29.8730   36.8280 H   0  0  0  0  0  0  0  0  0  0  0  0
   43.4440   30.9110   35.8600 C   0  0  0  0  0  0  0  0  0  0  0  0
   42.6290   31.5620   36.2920 H   0  0  0  0  0  0  0  0  0  0  0  0
   43.9190   31.4110   34.6110 N   0  0  0  0  0  0  0  0  0  0  0  0
   43.8690   30.6780   33.8680 H   0  0  0  0  0  0  0  0  0  0  0  0
   45.2930   31.8410   34.7110 C   0  0  0  0  0  0  0  0  0  0  0  0
   45.3260   32.8250   35.8890 C   0  0  0  0  0  0  0  0  0  0  0  0
   41.5270   34.7530   40.1930 C   0  0  0  0  0  0  0  0  0  0  0  0
   42.8560   35.0960   40.4700 C   0  0  0  0  0  0  0  0  0  0  0  0
   43.7780   34.1180   40.7100 C   0  0  0  0  0  0  0  0  0  0  0  0
   43.3290   32.8280   40.6620 N   0  0  0  0  0  0  0  0  0  0  0  0
   42.0530   32.4900   40.3960 C   0  0  0  0  0  0  0  0  0  0  0  0
   41.1430   33.4640   40.1580 N   0  0  0  0  0  0  0  0  0  0  0  0
   43.1880   36.1280   40.5030 H   0  0  0  0  0  0  0  0  0  0  0  0
   41.7630   31.4450   40.3730 H   0  0  0  0  0  0  0  0  0  0  0  0
   40.5230   35.8030   39.9320 C   0  0  0  0  0  0  0  0  0  0  0  0
   39.2920   35.1640   39.7190 F   0  0  0  0  0  0  0  0  0  0  0  0
   40.8560   36.3820   38.7160 F   0  0  0  0  0  0  0  0  0  0  0  0
   40.4110   36.7180   40.9440 F   0  0  0  0  0  0  0  0  0  0  0  0
  1  2  1  0  0  0  0
  2  3  2  0  0  0  0
  2  7  1  0  0  0  0
  3  8  1  0  0  0  0
  4  9  1  0  0  0  0
  4  3  1  0  0  0  0
  5  4  2  0  0  0  0
  6  5  1  0  0  0  0
  6  1  2  0  0  0  0
 10  5  1  0  0  0  0
 11 12  2  0  0  0  0
 11 13  1  0  0  0  0
 13  6  1  0  0  0  0
 14 13  1  0  0  0  0
 15 11  1  0  0  0  0
 16 15  1  0  0  0  0
 17 16  1  0  0  0  0
 18 19  1  0  0  0  0
 18 16  1  0  0  0  0
 20 22  1  0  0  0  0
 20 18  1  0  0  0  0
 21 20  1  0  0  0  0
 22 23  1  0  0  0  0
 23 15  1  0  0  0  0
 24 25  1  0  0  0  0
 25 30  1  0  0  0  0
 25 26  2  0  0  0  0
 26  1  1  0  0  0  0
 27 26  1  0  0  0  0
 28 27  2  0  0  0  0
 29 24  2  0  0  0  0
 29 28  1  0  0  0  0
 31 28  1  0  0  0  0
 32 24  1  0  0  0  0
 32 35  1  0  0  0  0
 33 32  1  0  0  0  0
 34 32  1  0  0  0  0
M  END
>  <minimizedAffinity>
-6.52489281

>  <minimizedRMSD>
0.544672012

$$$$
