
 OpenBabel03252508513D

 28 30  0  0  0  0  0  0  0  0999 V2000
   45.9350   34.1680   41.0520 C   0  0  0  0  0  0  0  0  0  0  0  0
   46.5270   34.8060   42.1470 C   0  0  0  0  0  0  0  0  0  0  0  0
   47.8740   35.1840   42.0210 C   0  0  0  0  0  0  0  0  0  0  0  0
   48.4990   34.8960   40.8370 N   0  0  0  0  0  0  0  0  0  0  0  0
   47.8930   34.2860   39.8250 C   0  0  0  0  0  0  0  0  0  0  0  0
   46.6030   33.9110   39.9120 N   0  0  0  0  0  0  0  0  0  0  0  0
   48.3550   35.6800   42.8560 H   0  0  0  0  0  0  0  0  0  0  0  0
   48.4730   34.1090   38.9440 H   0  0  0  0  0  0  0  0  0  0  0  0
   45.7530   35.0530   43.3500 C   0  0  0  0  0  0  0  0  0  0  0  0
   45.0760   36.2330   43.5790 C   0  0  0  0  0  0  0  0  0  0  0  0
   44.4950   36.0250   44.8190 C   0  0  0  0  0  0  0  0  0  0  0  0
   44.8020   34.7920   45.3100 N   0  0  0  0  0  0  0  0  0  0  0  0
   45.5580   34.2380   44.4020 N   0  0  0  0  0  0  0  0  0  0  0  0
   44.9850   37.1310   42.9780 H   0  0  0  0  0  0  0  0  0  0  0  0
   43.8680   36.7630   45.3330 H   0  0  0  0  0  0  0  0  0  0  0  0
   44.4490   34.4640   46.2370 H   0  0  0  0  0  0  0  0  0  0  0  0
   44.6070   33.7920   41.1660 O   0  0  0  0  0  0  0  0  0  0  0  0
   43.5360   34.4740   40.6540 C   0  0  0  0  0  0  0  0  0  0  0  0
   43.3410   35.7320   40.6250 O   0  0  0  0  0  0  0  0  0  0  0  0
   42.3200   34.0200   40.0080 N   0  0  0  0  0  0  0  0  0  0  0  0
   42.2540   34.2030   38.5730 C   0  0  0  0  0  3  0  0  0  0  0  0
   42.4560   33.1740   38.1500 H   0  0  0  0  0  0  0  0  0  0  0  0
   40.8140   34.5420   38.2500 C   0  0  0  0  0  3  0  0  0  0  0  0
   40.8370   35.3130   37.4480 H   0  0  0  0  0  0  0  0  0  0  0  0
   40.1200   35.1560   39.3580 N   0  0  0  0  0  0  0  0  0  0  0  0
   39.1670   35.3900   39.0240 H   0  0  0  0  0  0  0  0  0  0  0  0
   39.9830   34.2620   40.4880 C   0  0  0  0  0  2  0  0  0  0  0  0
   41.2000   33.4080   40.6960 C   0  0  0  0  0  2  0  0  0  0  0  0
  1 17  1  0  0  0  0
  1  2  1  0  0  0  0
  2  9  1  0  0  0  0
  3  2  2  0  0  0  0
  3  7  1  0  0  0  0
  4  3  1  0  0  0  0
  5  6  1  0  0  0  0
  5  4  2  0  0  0  0
  6  1  2  0  0  0  0
  8  5  1  0  0  0  0
  9 10  1  0  0  0  0
  9 13  2  0  0  0  0
 10 11  2  0  0  0  0
 11 12  1  0  0  0  0
 11 15  1  0  0  0  0
 12 16  1  0  0  0  0
 13 12  1  0  0  0  0
 14 10  1  0  0  0  0
 18 17  1  0  0  0  0
 19 18  2  0  0  0  0
 20 18  1  0  0  0  0
 20 28  1  0  0  0  0
 21 20  1  0  0  0  0
 22 21  1  0  0  0  0
 23 21  1  0  0  0  0
 23 25  1  0  0  0  0
 24 23  1  0  0  0  0
 25 27  1  0  0  0  0
 26 25  1  0  0  0  0
 27 28  1  0  0  0  0
M  END
>  <minimizedAffinity>
-5.75146389

>  <minimizedRMSD>
0.644016922

$$$$
