
 OpenBabel03252504013D

 34 37  0  0  0  0  0  0  0  0999 V2000
   46.8380   34.8340   42.5270 C   0  0  0  0  0  0  0  0  0  0  0  0
   45.9850   35.9430   42.5000 C   0  0  0  0  0  0  0  0  0  0  0  0
   45.0420   36.0490   43.5220 C   0  0  0  0  0  0  0  0  0  0  0  0
   45.0000   35.0790   44.4810 N   0  0  0  0  0  0  0  0  0  0  0  0
   45.8490   34.0280   44.4600 C   0  0  0  0  0  0  0  0  0  0  0  0
   46.7660   33.9040   43.4870 N   0  0  0  0  0  0  0  0  0  0  0  0
   45.9800   36.7280   41.7690 H   0  0  0  0  0  0  0  0  0  0  0  0
   44.3430   36.8850   43.5670 H   0  0  0  0  0  0  0  0  0  0  0  0
   46.0370   31.6810   45.1210 C   0  0  0  0  0  0  0  0  0  0  0  0
   45.8040   32.9870   45.4910 C   0  0  0  0  0  0  0  0  0  0  0  0
   45.5400   33.2640   46.8080 C   0  0  0  0  0  0  0  0  0  0  0  0
   45.5030   32.2690   47.7570 C   0  0  0  0  0  0  0  0  0  0  0  0
   45.2790   32.2390   49.0730 N   0  0  0  0  0  0  0  0  0  0  0  0
   45.3640   30.9660   49.5320 C   0  0  0  0  0  0  0  0  0  0  0  0
   45.6560   30.1220   48.4720 C   0  0  0  0  0  0  0  0  0  0  0  0
   45.7410   30.9390   47.3720 C   0  0  0  0  0  0  0  0  0  0  0  0
   46.0090   30.6580   46.0460 C   0  0  0  0  0  0  0  0  0  0  0  0
   46.2500   31.4120   44.0910 H   0  0  0  0  0  0  0  0  0  0  0  0
   45.3570   34.3050   47.0850 H   0  0  0  0  0  0  0  0  0  0  0  0
   45.0700   33.1180   49.6220 H   0  0  0  0  0  0  0  0  0  0  0  0
   45.2140   30.7040   50.5800 H   0  0  0  0  0  0  0  0  0  0  0  0
   45.7870   29.0380   48.5210 H   0  0  0  0  0  0  0  0  0  0  0  0
   46.1920   29.6150   45.7670 H   0  0  0  0  0  0  0  0  0  0  0  0
   47.7820   34.7920   41.4470 C   0  0  0  0  0  0  0  0  0  0  0  0
   48.6990   35.6600   41.2260 O   0  0  0  0  0  0  0  0  0  0  0  0
   47.6330   33.6590   40.5790 N   0  0  0  0  0  0  0  0  0  0  0  0
   48.6250   32.6330   40.3070 C   0  0  0  0  0  3  0  0  0  0  0  0
   49.5540   32.7990   40.8860 H   0  0  0  0  0  0  0  0  0  0  0  0
   48.9240   32.5960   38.8520 C   0  0  0  0  0  3  0  0  0  0  0  0
   48.9990   31.5210   38.5240 H   0  0  0  0  0  0  0  0  0  0  0  0
   47.9910   33.3240   38.0310 N   0  0  0  0  0  0  0  0  0  0  0  0
   48.0800   32.9400   37.0640 H   0  0  0  0  0  0  0  0  0  0  0  0
   46.6160   33.1550   38.4310 C   0  0  0  0  0  2  0  0  0  0  0  0
   46.3790   33.4730   39.8770 C   0  0  0  0  0  2  0  0  0  0  0  0
  1  6  1  0  0  0  0
  2  1  2  0  0  0  0
  2  3  1  0  0  0  0
  3  8  1  0  0  0  0
  3  4  2  0  0  0  0
  5  4  1  0  0  0  0
  5 10  1  0  0  0  0
  6  5  2  0  0  0  0
  7  2  1  0  0  0  0
  9 10  2  0  0  0  0
  9 17  1  0  0  0  0
 10 11  1  0  0  0  0
 11 19  1  0  0  0  0
 11 12  2  0  0  0  0
 12 13  1  0  0  0  0
 13 14  1  0  0  0  0
 13 20  1  0  0  0  0
 14 21  1  0  0  0  0
 15 22  1  0  0  0  0
 15 14  2  0  0  0  0
 16 12  1  0  0  0  0
 16 15  1  0  0  0  0
 17 16  2  0  0  0  0
 18  9  1  0  0  0  0
 23 17  1  0  0  0  0
 24  1  1  0  0  0  0
 25 24  2  0  0  0  0
 26 24  1  0  0  0  0
 27 26  1  0  0  0  0
 27 28  1  0  0  0  0
 29 27  1  0  0  0  0
 30 29  1  0  0  0  0
 31 33  1  0  0  0  0
 31 29  1  0  0  0  0
 32 31  1  0  0  0  0
 33 34  1  0  0  0  0
 34 26  1  0  0  0  0
M  END
>  <minimizedAffinity>
-6.22681522

>  <minimizedRMSD>
0.224021047

$$$$
