
 OpenBabel03252501113D

 20 21  0  0  0  0  0  0  0  0999 V2000
   47.1920   34.6180   42.0930 C   0  0  0  0  0  0  0  0  0  0  0  0
   48.1720   35.3570   41.8390 O   0  0  0  0  0  0  0  0  0  0  0  0
   46.9060   33.5890   41.1490 N   0  0  0  0  0  0  0  0  0  0  0  0
   46.9070   33.8500   39.7370 C   0  0  0  0  0  3  0  0  0  0  0  0
   45.9720   34.3320   39.4030 H   0  0  0  0  0  0  0  0  0  0  0  0
   47.2550   32.6290   38.9300 C   0  0  0  0  0  3  0  0  0  0  0  0
   48.3280   32.3910   39.0730 H   0  0  0  0  0  0  0  0  0  0  0  0
   46.4200   31.4990   39.2040 N   0  0  0  0  0  0  0  0  0  0  0  0
   45.6960   31.3710   38.4780 H   0  0  0  0  0  0  0  0  0  0  0  0
   45.7920   31.5180   40.4950 C   0  0  0  0  0  2  0  0  0  0  0  0
   46.6030   32.2430   41.5400 C   0  0  0  0  0  2  0  0  0  0  0  0
   44.5620   35.8860   44.3440 C   0  0  0  0  0  0  0  0  0  0  0  0
   45.3910   35.7460   43.2240 C   0  0  0  0  0  0  0  0  0  0  0  0
   46.3520   34.7410   43.2590 C   0  0  0  0  0  0  0  0  0  0  0  0
   46.4360   33.9510   44.3660 N   0  0  0  0  0  0  0  0  0  0  0  0
   45.6100   34.1250   45.4250 C   0  0  0  0  0  0  0  0  0  0  0  0
   44.6650   35.0990   45.4170 N   0  0  0  0  0  0  0  0  0  0  0  0
   43.7950   36.6570   44.3670 H   0  0  0  0  0  0  0  0  0  0  0  0
   45.2220   36.4310   42.4170 H   0  0  0  0  0  0  0  0  0  0  0  0
   45.8650   33.3850   46.1790 H   0  0  0  0  0  0  0  0  0  0  0  0
  1 14  1  0  0  0  0
  2  1  2  0  0  0  0
  3 11  1  0  0  0  0
  3  1  1  0  0  0  0
  4  3  1  0  0  0  0
  5  4  1  0  0  0  0
  6  7  1  0  0  0  0
  6  8  1  0  0  0  0
  6  4  1  0  0  0  0
  8 10  1  0  0  0  0
  9  8  1  0  0  0  0
 10 11  1  0  0  0  0
 12 18  1  0  0  0  0
 12 17  1  0  0  0  0
 13 14  1  0  0  0  0
 13 12  2  0  0  0  0
 14 15  2  0  0  0  0
 15 16  1  0  0  0  0
 16 20  1  0  0  0  0
 17 16  2  0  0  0  0
 19 13  1  0  0  0  0
M  END
>  <minimizedAffinity>
-3.82614636

>  <minimizedRMSD>
0.679500341

$$$$
