
 OpenBabel03252508513D

 28 30  0  0  0  0  0  0  0  0999 V2000
   45.9510   34.1480   41.0420 C   0  0  0  0  0  0  0  0  0  0  0  0
   46.5340   34.8080   42.1290 C   0  0  0  0  0  0  0  0  0  0  0  0
   47.8720   35.2120   41.9950 C   0  0  0  0  0  0  0  0  0  0  0  0
   48.4990   34.9290   40.8100 N   0  0  0  0  0  0  0  0  0  0  0  0
   47.9020   34.2980   39.8060 C   0  0  0  0  0  0  0  0  0  0  0  0
   46.6200   33.8960   39.9010 N   0  0  0  0  0  0  0  0  0  0  0  0
   48.3460   35.7260   42.8230 H   0  0  0  0  0  0  0  0  0  0  0  0
   48.4820   34.1260   38.9240 H   0  0  0  0  0  0  0  0  0  0  0  0
   45.7590   35.0480   43.3330 C   0  0  0  0  0  0  0  0  0  0  0  0
   45.0750   36.2240   43.5640 C   0  0  0  0  0  0  0  0  0  0  0  0
   44.4970   36.0100   44.8040 C   0  0  0  0  0  0  0  0  0  0  0  0
   44.8130   34.7790   45.2940 N   0  0  0  0  0  0  0  0  0  0  0  0
   45.5720   34.2310   44.3850 N   0  0  0  0  0  0  0  0  0  0  0  0
   44.9770   37.1210   42.9640 H   0  0  0  0  0  0  0  0  0  0  0  0
   43.8650   36.7430   45.3200 H   0  0  0  0  0  0  0  0  0  0  0  0
   44.4630   34.4480   46.2210 H   0  0  0  0  0  0  0  0  0  0  0  0
   44.6320   33.7460   41.1640 O   0  0  0  0  0  0  0  0  0  0  0  0
   43.5420   34.4170   40.6760 C   0  0  0  0  0  0  0  0  0  0  0  0
   43.3600   35.6740   40.5930 O   0  0  0  0  0  0  0  0  0  0  0  0
   42.2890   33.9470   40.1190 N   0  0  0  0  0  0  0  0  0  0  0  0
   42.2650   33.7420   38.6850 C   0  0  0  0  0  3  0  0  0  0  0  0
   42.3450   32.6210   38.5630 H   0  0  0  0  0  0  0  0  0  0  0  0
   40.8840   34.1440   38.2170 C   0  0  0  0  0  3  0  0  0  0  0  0
   41.0120   34.6610   37.2400 H   0  0  0  0  0  0  0  0  0  0  0  0
   40.2550   35.1110   39.0870 N   0  0  0  0  0  0  0  0  0  0  0  0
   39.3420   35.3550   38.6590 H   0  0  0  0  0  0  0  0  0  0  0  0
   39.9930   34.5780   40.4080 C   0  0  0  0  0  2  0  0  0  0  0  0
   41.0930   33.6790   40.8930 C   0  0  0  0  0  2  0  0  0  0  0  0
  1 17  1  0  0  0  0
  1  2  1  0  0  0  0
  2  9  1  0  0  0  0
  3  2  2  0  0  0  0
  3  7  1  0  0  0  0
  4  3  1  0  0  0  0
  5  6  1  0  0  0  0
  5  4  2  0  0  0  0
  6  1  2  0  0  0  0
  8  5  1  0  0  0  0
  9 10  1  0  0  0  0
  9 13  2  0  0  0  0
 10 11  2  0  0  0  0
 11 12  1  0  0  0  0
 11 15  1  0  0  0  0
 12 16  1  0  0  0  0
 13 12  1  0  0  0  0
 14 10  1  0  0  0  0
 18 17  1  0  0  0  0
 19 18  2  0  0  0  0
 20 18  1  0  0  0  0
 20 28  1  0  0  0  0
 21 20  1  0  0  0  0
 22 21  1  0  0  0  0
 23 21  1  0  0  0  0
 23 25  1  0  0  0  0
 24 23  1  0  0  0  0
 25 27  1  0  0  0  0
 26 25  1  0  0  0  0
 27 28  1  0  0  0  0
M  END
>  <minimizedAffinity>
-5.74884462

>  <minimizedRMSD>
0.690871

$$$$
