
 OpenBabel03242523173D

 27 29  0  0  0  0  0  0  0  0999 V2000
   37.7900   30.3420   41.3360 C   0  0  0  0  0  0  0  0  0  0  0  0
   37.7380   29.1740   42.0250 C   0  0  0  0  0  0  0  0  0  0  0  0
   36.5970   28.4240   41.8370 C   0  0  0  0  0  0  0  0  0  0  0  0
   35.6190   28.9170   40.9780 N   0  0  0  0  0  0  0  0  0  0  0  0
   35.7280   30.0780   40.3270 C   0  0  0  0  0  0  0  0  0  0  0  0
   36.8580   30.8440   40.4990 N   0  0  0  0  0  0  0  0  0  0  0  0
   36.4200   27.4740   42.3200 H   0  0  0  0  0  0  0  0  0  0  0  0
   34.8500   30.2590   39.7180 H   0  0  0  0  0  0  0  0  0  0  0  0
   38.8950   31.2730   41.2690 C   0  0  0  0  0  0  0  0  0  0  0  0
   39.7380   32.0630   41.5760 O   0  0  0  0  0  0  0  0  0  0  0  0
   39.4970   31.4850   39.9600 N   0  0  0  0  0  0  0  0  0  0  0  0
   39.7710   32.8400   39.5900 C   0  0  0  0  0  3  0  0  0  0  0  0
   38.8550   33.4240   39.6290 H   0  0  0  0  0  0  0  0  0  0  0  0
   40.5010   32.9170   38.2830 C   0  0  0  0  0  3  0  0  0  0  0  0
   41.5510   32.5800   38.4160 H   0  0  0  0  0  0  0  0  0  0  0  0
   39.8920   32.1640   37.2260 N   0  0  0  0  0  0  0  0  0  0  0  0
   39.1610   32.6840   36.7000 H   0  0  0  0  0  0  0  0  0  0  0  0
   39.3220   30.9140   37.6560 C   0  0  0  0  0  2  0  0  0  0  0  0
   39.8450   30.4700   39.0010 C   0  0  0  0  0  2  0  0  0  0  0  0
   38.7080   28.7090   42.9470 C   0  0  0  0  0  0  0  0  0  0  0  0
   38.9180   27.4720   43.4610 C   0  0  0  0  0  0  0  0  0  0  0  0
   39.9410   27.8700   42.3990 C   0  0  0  0  0  0  0  0  0  0  0  0
   39.3220   29.6460   43.3160 H   0  0  0  0  0  0  0  0  0  0  0  0
   38.3310   26.5760   43.1070 H   0  0  0  0  0  0  0  0  0  0  0  0
   39.3680   27.2230   44.4670 H   0  0  0  0  0  0  0  0  0  0  0  0
   40.9310   28.0820   42.7630 H   0  0  0  0  0  0  0  0  0  0  0  0
   39.8290   27.5310   41.3700 H   0  0  0  0  0  0  0  0  0  0  0  0
  1  2  1  0  0  0  0
  2 20  1  0  0  0  0
  3  2  2  0  0  0  0
  3  7  1  0  0  0  0
  4  3  1  0  0  0  0
  5  6  1  0  0  0  0
  5  4  2  0  0  0  0
  6  1  2  0  0  0  0
  8  5  1  0  0  0  0
  9  1  1  0  0  0  0
  9 10  2  0  0  0  0
 11  9  1  0  0  0  0
 12 13  1  0  0  0  0
 12 11  1  0  0  0  0
 14 15  1  0  0  0  0
 14 12  1  0  0  0  0
 16 18  1  0  0  0  0
 16 14  1  0  0  0  0
 17 16  1  0  0  0  0
 18 19  1  0  0  0  0
 19 11  1  0  0  0  0
 20 23  1  0  0  0  0
 20 21  1  0  0  0  0
 21 25  1  0  0  0  0
 22 26  1  0  0  0  0
 22 20  1  0  0  0  0
 22 21  1  0  0  0  0
 24 21  1  0  0  0  0
 27 22  1  0  0  0  0
M  END
>  <minimizedAffinity>
-4.7347374

$$$$

 OpenBabel03242523173D

 27 29  0  0  0  0  0  0  0  0999 V2000
   37.6120   29.2250   40.3220 C   0  0  0  0  0  0  0  0  0  0  0  0
   37.4730   28.1280   41.1070 C   0  0  0  0  0  0  0  0  0  0  0  0
   38.0960   26.9870   40.6490 C   0  0  0  0  0  0  0  0  0  0  0  0
   38.7970   27.0560   39.4490 N   0  0  0  0  0  0  0  0  0  0  0  0
   38.8970   28.1690   38.7180 C   0  0  0  0  0  0  0  0  0  0  0  0
   38.2830   29.3210   39.1550 N   0  0  0  0  0  0  0  0  0  0  0  0
   38.0700   26.0410   41.1710 H   0  0  0  0  0  0  0  0  0  0  0  0
   39.4870   27.9900   37.8260 H   0  0  0  0  0  0  0  0  0  0  0  0
   37.1490   30.5670   40.6000 C   0  0  0  0  0  0  0  0  0  0  0  0
   36.4410   31.5170   40.7600 O   0  0  0  0  0  0  0  0  0  0  0  0
   38.1640   31.5540   40.9410 N   0  0  0  0  0  0  0  0  0  0  0  0
   38.0580   32.8320   40.3070 C   0  0  0  0  0  3  0  0  0  0  0  0
   38.0700   32.7090   39.2280 H   0  0  0  0  0  0  0  0  0  0  0  0
   39.0790   33.7950   40.8330 C   0  0  0  0  0  3  0  0  0  0  0  0
   38.8050   34.1120   41.8620 H   0  0  0  0  0  0  0  0  0  0  0  0
   40.4190   33.2850   40.8350 N   0  0  0  0  0  0  0  0  0  0  0  0
   40.9310   33.4320   39.9420 H   0  0  0  0  0  0  0  0  0  0  0  0
   40.5100   31.8890   41.1730 C   0  0  0  0  0  2  0  0  0  0  0  0
   39.2630   31.3740   41.8520 C   0  0  0  0  0  2  0  0  0  0  0  0
   36.7050   28.0470   42.2950 C   0  0  0  0  0  0  0  0  0  0  0  0
   36.6840   27.1090   43.2740 C   0  0  0  0  0  0  0  0  0  0  0  0
   37.4010   28.3950   43.6790 C   0  0  0  0  0  0  0  0  0  0  0  0
   35.9440   28.9480   42.2850 H   0  0  0  0  0  0  0  0  0  0  0  0
   37.4130   26.2470   43.2830 H   0  0  0  0  0  0  0  0  0  0  0  0
   35.8100   26.8380   43.9350 H   0  0  0  0  0  0  0  0  0  0  0  0
   36.8840   29.0100   44.3950 H   0  0  0  0  0  0  0  0  0  0  0  0
   38.4870   28.4600   43.6290 H   0  0  0  0  0  0  0  0  0  0  0  0
  1  9  1  0  0  0  0
  1  2  1  0  0  0  0
  2 20  1  0  0  0  0
  3  2  2  0  0  0  0
  3  7  1  0  0  0  0
  4  3  1  0  0  0  0
  5  6  1  0  0  0  0
  5  4  2  0  0  0  0
  6  1  2  0  0  0  0
  8  5  1  0  0  0  0
  9 10  2  0  0  0  0
  9 11  1  0  0  0  0
 11 19  1  0  0  0  0
 12 14  1  0  0  0  0
 12 11  1  0  0  0  0
 13 12  1  0  0  0  0
 14 16  1  0  0  0  0
 14 15  1  0  0  0  0
 16 18  1  0  0  0  0
 17 16  1  0  0  0  0
 18 19  1  0  0  0  0
 20 21  1  0  0  0  0
 20 22  1  0  0  0  0
 21 24  1  0  0  0  0
 21 22  1  0  0  0  0
 21 25  1  0  0  0  0
 22 26  1  0  0  0  0
 23 20  1  0  0  0  0
 27 22  1  0  0  0  0
M  END
>  <minimizedAffinity>
-4.66373253

$$$$

 OpenBabel03242523173D

 27 29  0  0  0  0  0  0  0  0999 V2000
   39.7530   29.3220   42.5020 C   0  0  0  0  0  0  0  0  0  0  0  0
   38.8430   28.4390   42.9840 C   0  0  0  0  0  0  0  0  0  0  0  0
   39.3660   27.2850   43.5270 C   0  0  0  0  0  0  0  0  0  0  0  0
   40.7490   27.1270   43.5340 N   0  0  0  0  0  0  0  0  0  0  0  0
   41.5950   28.0350   43.0400 C   0  0  0  0  0  0  0  0  0  0  0  0
   41.0970   29.1950   42.4930 N   0  0  0  0  0  0  0  0  0  0  0  0
   38.7610   26.4960   43.9490 H   0  0  0  0  0  0  0  0  0  0  0  0
   42.6200   27.7030   43.1500 H   0  0  0  0  0  0  0  0  0  0  0  0
   39.4970   30.6420   41.9680 C   0  0  0  0  0  0  0  0  0  0  0  0
   39.4670   31.8290   41.8330 O   0  0  0  0  0  0  0  0  0  0  0  0
   38.7710   30.7110   40.7070 N   0  0  0  0  0  0  0  0  0  0  0  0
   37.7180   31.6760   40.6220 C   0  0  0  0  0  3  0  0  0  0  0  0
   36.9910   31.4960   41.4090 H   0  0  0  0  0  0  0  0  0  0  0  0
   37.1360   31.7360   39.2420 C   0  0  0  0  0  3  0  0  0  0  0  0
   37.8520   32.2310   38.5520 H   0  0  0  0  0  0  0  0  0  0  0  0
   36.7650   30.4600   38.7060 N   0  0  0  0  0  0  0  0  0  0  0  0
   35.8030   30.1560   38.9580 H   0  0  0  0  0  0  0  0  0  0  0  0
   37.6700   29.3960   39.0560 C   0  0  0  0  0  2  0  0  0  0  0  0
   39.0070   29.9070   39.5370 C   0  0  0  0  0  2  0  0  0  0  0  0
   37.4350   28.5770   42.9180 C   0  0  0  0  0  0  0  0  0  0  0  0
   36.5120   27.8910   42.1980 C   0  0  0  0  0  0  0  0  0  0  0  0
   36.5270   27.5190   43.6790 C   0  0  0  0  0  0  0  0  0  0  0  0
   37.1410   29.5150   43.5680 H   0  0  0  0  0  0  0  0  0  0  0  0
   36.7930   26.9930   41.5760 H   0  0  0  0  0  0  0  0  0  0  0  0
   35.5170   28.2780   41.8280 H   0  0  0  0  0  0  0  0  0  0  0  0
   35.6830   27.8580   44.2530 H   0  0  0  0  0  0  0  0  0  0  0  0
   37.0630   26.6340   44.0200 H   0  0  0  0  0  0  0  0  0  0  0  0
  1  2  1  0  0  0  0
  2  3  2  0  0  0  0
  3  4  1  0  0  0  0
  3  7  1  0  0  0  0
  5  8  1  0  0  0  0
  5  4  2  0  0  0  0
  6  1  2  0  0  0  0
  6  5  1  0  0  0  0
  9  1  1  0  0  0  0
 10  9  2  0  0  0  0
 11  9  1  0  0  0  0
 12 11  1  0  0  0  0
 12 13  1  0  0  0  0
 14 12  1  0  0  0  0
 15 14  1  0  0  0  0
 16 17  1  0  0  0  0
 16 18  1  0  0  0  0
 16 14  1  0  0  0  0
 18 19  1  0  0  0  0
 19 11  1  0  0  0  0
 20  2  1  0  0  0  0
 20 23  1  0  0  0  0
 20 22  1  0  0  0  0
 21 20  1  0  0  0  0
 21 22  1  0  0  0  0
 22 27  1  0  0  0  0
 22 26  1  0  0  0  0
 24 21  1  0  0  0  0
 25 21  1  0  0  0  0
M  END
>  <minimizedAffinity>
-4.60893679

$$$$

 OpenBabel03242523173D

 27 29  0  0  0  0  0  0  0  0999 V2000
   38.5020   27.4110   40.3980 C   0  0  0  0  0  0  0  0  0  0  0  0
   37.5950   27.0040   41.3210 C   0  0  0  0  0  0  0  0  0  0  0  0
   37.1390   25.7110   41.1750 C   0  0  0  0  0  0  0  0  0  0  0  0
   37.6360   24.9520   40.1180 N   0  0  0  0  0  0  0  0  0  0  0  0
   38.5290   25.4120   39.2390 C   0  0  0  0  0  0  0  0  0  0  0  0
   38.9990   26.6990   39.3640 N   0  0  0  0  0  0  0  0  0  0  0  0
   36.4170   25.2540   41.8360 H   0  0  0  0  0  0  0  0  0  0  0  0
   38.7700   24.6520   38.5050 H   0  0  0  0  0  0  0  0  0  0  0  0
   39.2130   28.6710   40.3630 C   0  0  0  0  0  0  0  0  0  0  0  0
   40.0880   29.4850   40.3740 O   0  0  0  0  0  0  0  0  0  0  0  0
   38.4080   29.8740   40.2050 N   0  0  0  0  0  0  0  0  0  0  0  0
   38.7280   30.9790   41.0560 C   0  0  0  0  0  3  0  0  0  0  0  0
   38.6590   30.6730   42.0970 H   0  0  0  0  0  0  0  0  0  0  0  0
   37.9190   32.1930   40.7120 C   0  0  0  0  0  3  0  0  0  0  0  0
   38.2790   32.6280   39.7560 H   0  0  0  0  0  0  0  0  0  0  0  0
   36.5090   31.9500   40.6210 N   0  0  0  0  0  0  0  0  0  0  0  0
   36.0050   32.0310   41.5280 H   0  0  0  0  0  0  0  0  0  0  0  0
   36.1730   30.6770   40.0400 C   0  0  0  0  0  2  0  0  0  0  0  0
   37.3240   30.0660   39.2780 C   0  0  0  0  0  2  0  0  0  0  0  0
   37.0460   27.8010   42.3550 C   0  0  0  0  0  0  0  0  0  0  0  0
   36.4850   27.4510   43.5390 C   0  0  0  0  0  0  0  0  0  0  0  0
   37.8940   28.0230   43.6790 C   0  0  0  0  0  0  0  0  0  0  0  0
   37.0610   28.9200   41.9840 H   0  0  0  0  0  0  0  0  0  0  0  0
   36.4720   26.3800   43.8950 H   0  0  0  0  0  0  0  0  0  0  0  0
   35.6950   28.0210   44.1110 H   0  0  0  0  0  0  0  0  0  0  0  0
   37.9560   29.0060   44.1120 H   0  0  0  0  0  0  0  0  0  0  0  0
   38.7530   27.3590   43.7770 H   0  0  0  0  0  0  0  0  0  0  0  0
  1  2  1  0  0  0  0
  2 20  1  0  0  0  0
  3  2  2  0  0  0  0
  3  7  1  0  0  0  0
  4  3  1  0  0  0  0
  5  6  1  0  0  0  0
  5  4  2  0  0  0  0
  6  1  2  0  0  0  0
  8  5  1  0  0  0  0
  9 10  2  0  0  0  0
  9  1  1  0  0  0  0
 11  9  1  0  0  0  0
 11 12  1  0  0  0  0
 12 13  1  0  0  0  0
 14 12  1  0  0  0  0
 15 14  1  0  0  0  0
 16 14  1  0  0  0  0
 16 17  1  0  0  0  0
 18 16  1  0  0  0  0
 19 18  1  0  0  0  0
 19 11  1  0  0  0  0
 20 21  1  0  0  0  0
 20 22  1  0  0  0  0
 21 22  1  0  0  0  0
 21 24  1  0  0  0  0
 21 25  1  0  0  0  0
 22 27  1  0  0  0  0
 22 26  1  0  0  0  0
 23 20  1  0  0  0  0
M  END
>  <minimizedAffinity>
-4.5734849

$$$$

 OpenBabel03242523173D

 27 29  0  0  0  0  0  0  0  0999 V2000
   38.8940   27.7600   41.1950 C   0  0  0  0  0  0  0  0  0  0  0  0
   38.2530   26.8910   42.0160 C   0  0  0  0  0  0  0  0  0  0  0  0
   38.8080   26.7390   43.2680 C   0  0  0  0  0  0  0  0  0  0  0  0
   39.9510   27.4720   43.5760 N   0  0  0  0  0  0  0  0  0  0  0  0
   40.5380   28.3130   42.7210 C   0  0  0  0  0  0  0  0  0  0  0  0
   40.0030   28.4810   41.4640 N   0  0  0  0  0  0  0  0  0  0  0  0
   38.4040   26.0830   44.0260 H   0  0  0  0  0  0  0  0  0  0  0  0
   41.4110   28.7700   43.1720 H   0  0  0  0  0  0  0  0  0  0  0  0
   38.4840   28.1820   39.8730 C   0  0  0  0  0  0  0  0  0  0  0  0
   38.3440   28.2340   38.6870 O   0  0  0  0  0  0  0  0  0  0  0  0
   37.6450   29.3690   39.7930 N   0  0  0  0  0  0  0  0  0  0  0  0
   37.9870   30.3330   38.7930 C   0  0  0  0  0  3  0  0  0  0  0  0
   39.0120   30.6650   38.9370 H   0  0  0  0  0  0  0  0  0  0  0  0
   36.9800   31.4420   38.7270 C   0  0  0  0  0  3  0  0  0  0  0  0
   36.0400   31.0710   38.2660 H   0  0  0  0  0  0  0  0  0  0  0  0
   36.6830   32.0380   39.9960 N   0  0  0  0  0  0  0  0  0  0  0  0
   37.3240   32.8120   40.2630 H   0  0  0  0  0  0  0  0  0  0  0  0
   36.6450   31.1000   41.0870 C   0  0  0  0  0  2  0  0  0  0  0  0
   36.5050   29.6710   40.6180 C   0  0  0  0  0  2  0  0  0  0  0  0
   37.1270   26.1010   41.6760 C   0  0  0  0  0  0  0  0  0  0  0  0
   36.9530   25.1890   40.6880 C   0  0  0  0  0  0  0  0  0  0  0  0
   37.1260   24.5630   42.0700 C   0  0  0  0  0  0  0  0  0  0  0  0
   36.2390   26.4320   42.3770 H   0  0  0  0  0  0  0  0  0  0  0  0
   37.8030   24.8720   40.0170 H   0  0  0  0  0  0  0  0  0  0  0  0
   35.9820   24.9200   40.1760 H   0  0  0  0  0  0  0  0  0  0  0  0
   36.2410   24.1240   42.4960 H   0  0  0  0  0  0  0  0  0  0  0  0
   38.0970   24.1820   42.3860 H   0  0  0  0  0  0  0  0  0  0  0  0
  1  6  2  0  0  0  0
  1  2  1  0  0  0  0
  2  3  2  0  0  0  0
  3  4  1  0  0  0  0
  3  7  1  0  0  0  0
  5  8  1  0  0  0  0
  5  4  2  0  0  0  0
  6  5  1  0  0  0  0
  9  1  1  0  0  0  0
 10  9  2  0  0  0  0
 11  9  1  0  0  0  0
 11 19  1  0  0  0  0
 12 13  1  0  0  0  0
 12 11  1  0  0  0  0
 14 12  1  0  0  0  0
 14 16  1  0  0  0  0
 15 14  1  0  0  0  0
 16 17  1  0  0  0  0
 16 18  1  0  0  0  0
 19 18  1  0  0  0  0
 20  2  1  0  0  0  0
 20 22  1  0  0  0  0
 20 23  1  0  0  0  0
 21 20  1  0  0  0  0
 21 22  1  0  0  0  0
 22 27  1  0  0  0  0
 22 26  1  0  0  0  0
 24 21  1  0  0  0  0
 25 21  1  0  0  0  0
M  END
>  <minimizedAffinity>
-4.45839691

$$$$

 OpenBabel03242523173D

 27 29  0  0  0  0  0  0  0  0999 V2000
   36.5620   28.4590   40.7070 C   0  0  0  0  0  0  0  0  0  0  0  0
   37.1130   27.5510   41.5510 C   0  0  0  0  0  0  0  0  0  0  0  0
   37.1830   26.2610   41.0710 C   0  0  0  0  0  0  0  0  0  0  0  0
   36.6940   26.0050   39.7930 N   0  0  0  0  0  0  0  0  0  0  0  0
   36.1590   26.9450   39.0090 C   0  0  0  0  0  0  0  0  0  0  0  0
   36.0780   28.2410   39.4660 N   0  0  0  0  0  0  0  0  0  0  0  0
   37.5980   25.4360   41.6320 H   0  0  0  0  0  0  0  0  0  0  0  0
   35.8460   26.5210   38.0620 H   0  0  0  0  0  0  0  0  0  0  0  0
   36.4480   29.8870   40.9080 C   0  0  0  0  0  0  0  0  0  0  0  0
   36.0850   30.9560   41.3010 O   0  0  0  0  0  0  0  0  0  0  0  0
   37.3750   30.7310   40.1660 N   0  0  0  0  0  0  0  0  0  0  0  0
   36.8240   31.8880   39.5310 C   0  0  0  0  0  3  0  0  0  0  0  0
   36.0320   31.5920   38.8490 H   0  0  0  0  0  0  0  0  0  0  0  0
   37.8920   32.7370   38.9100 C   0  0  0  0  0  3  0  0  0  0  0  0
   38.4690   33.2580   39.7030 H   0  0  0  0  0  0  0  0  0  0  0  0
   38.7950   32.0150   38.0630 N   0  0  0  0  0  0  0  0  0  0  0  0
   38.4750   31.9270   37.0780 H   0  0  0  0  0  0  0  0  0  0  0  0
   39.1170   30.6970   38.5440 C   0  0  0  0  0  2  0  0  0  0  0  0
   38.7890   30.5180   40.0070 C   0  0  0  0  0  2  0  0  0  0  0  0
   37.5510   27.8040   42.8740 C   0  0  0  0  0  0  0  0  0  0  0  0
   38.4250   27.1290   43.6610 C   0  0  0  0  0  0  0  0  0  0  0  0
   38.9940   28.4280   43.0940 C   0  0  0  0  0  0  0  0  0  0  0  0
   36.9320   28.7210   43.2810 H   0  0  0  0  0  0  0  0  0  0  0  0
   39.0180   26.2520   43.2710 H   0  0  0  0  0  0  0  0  0  0  0  0
   38.4230   27.0790   44.7900 H   0  0  0  0  0  0  0  0  0  0  0  0
   39.1250   29.2270   43.8030 H   0  0  0  0  0  0  0  0  0  0  0  0
   39.6280   28.4130   42.2080 H   0  0  0  0  0  0  0  0  0  0  0  0
  1  9  1  0  0  0  0
  1  2  1  0  0  0  0
  2 20  1  0  0  0  0
  3  2  2  0  0  0  0
  3  7  1  0  0  0  0
  4  3  1  0  0  0  0
  5  6  1  0  0  0  0
  5  4  2  0  0  0  0
  6  1  2  0  0  0  0
  8  5  1  0  0  0  0
  9 10  2  0  0  0  0
 11  9  1  0  0  0  0
 12 11  1  0  0  0  0
 13 12  1  0  0  0  0
 14 12  1  0  0  0  0
 14 15  1  0  0  0  0
 16 18  1  0  0  0  0
 16 14  1  0  0  0  0
 17 16  1  0  0  0  0
 18 19  1  0  0  0  0
 19 11  1  0  0  0  0
 20 22  1  0  0  0  0
 20 23  1  0  0  0  0
 20 21  1  0  0  0  0
 21 25  1  0  0  0  0
 22 21  1  0  0  0  0
 22 26  1  0  0  0  0
 24 21  1  0  0  0  0
 27 22  1  0  0  0  0
M  END
>  <minimizedAffinity>
-4.43347454

$$$$

 OpenBabel03242523173D

 27 29  0  0  0  0  0  0  0  0999 V2000
   38.6890   31.0820   41.1210 C   0  0  0  0  0  0  0  0  0  0  0  0
   37.4890   30.6910   40.6240 C   0  0  0  0  0  0  0  0  0  0  0  0
   36.8350   29.7190   41.3490 C   0  0  0  0  0  0  0  0  0  0  0  0
   37.4470   29.2310   42.5000 N   0  0  0  0  0  0  0  0  0  0  0  0
   38.6340   29.6560   42.9390 C   0  0  0  0  0  0  0  0  0  0  0  0
   39.3070   30.6270   42.2320 N   0  0  0  0  0  0  0  0  0  0  0  0
   35.8720   29.3130   41.0730 H   0  0  0  0  0  0  0  0  0  0  0  0
   38.9140   29.1390   43.8490 H   0  0  0  0  0  0  0  0  0  0  0  0
   39.5420   32.1410   40.6250 C   0  0  0  0  0  0  0  0  0  0  0  0
   40.0860   33.1970   40.4930 O   0  0  0  0  0  0  0  0  0  0  0  0
   40.3840   31.8240   39.4810 N   0  0  0  0  0  0  0  0  0  0  0  0
   40.4330   32.7920   38.4290 C   0  0  0  0  0  3  0  0  0  0  0  0
   39.4300   32.9790   38.0550 H   0  0  0  0  0  0  0  0  0  0  0  0
   41.4270   32.4100   37.3730 C   0  0  0  0  0  3  0  0  0  0  0  0
   42.4590   32.5500   37.7580 H   0  0  0  0  0  0  0  0  0  0  0  0
   41.2790   31.0690   36.8890 N   0  0  0  0  0  0  0  0  0  0  0  0
   40.6040   30.9730   36.1030 H   0  0  0  0  0  0  0  0  0  0  0  0
   40.9140   30.1190   37.9060 C   0  0  0  0  0  2  0  0  0  0  0  0
   41.1740   30.6340   39.3010 C   0  0  0  0  0  2  0  0  0  0  0  0
   36.9010   31.1460   39.4180 C   0  0  0  0  0  0  0  0  0  0  0  0
   37.2900   30.9860   38.1290 C   0  0  0  0  0  0  0  0  0  0  0  0
   36.1030   30.1070   38.5190 C   0  0  0  0  0  0  0  0  0  0  0  0
   35.9820   31.8240   39.7080 H   0  0  0  0  0  0  0  0  0  0  0  0
   38.1700   30.3350   37.8520 H   0  0  0  0  0  0  0  0  0  0  0  0
   37.0850   31.6850   37.2660 H   0  0  0  0  0  0  0  0  0  0  0  0
   35.1560   30.3900   38.0950 H   0  0  0  0  0  0  0  0  0  0  0  0
   36.2560   29.0650   38.7980 H   0  0  0  0  0  0  0  0  0  0  0  0
  1  6  1  0  0  0  0
  2  1  2  0  0  0  0
  2  3  1  0  0  0  0
  3  4  2  0  0  0  0
  4  5  1  0  0  0  0
  5  8  1  0  0  0  0
  6  5  2  0  0  0  0
  7  3  1  0  0  0  0
  9  1  1  0  0  0  0
 10  9  2  0  0  0  0
 11  9  1  0  0  0  0
 12 11  1  0  0  0  0
 13 12  1  0  0  0  0
 14 15  1  0  0  0  0
 14 12  1  0  0  0  0
 16 14  1  0  0  0  0
 16 18  1  0  0  0  0
 17 16  1  0  0  0  0
 18 19  1  0  0  0  0
 19 11  1  0  0  0  0
 20 23  1  0  0  0  0
 20  2  1  0  0  0  0
 21 22  1  0  0  0  0
 21 20  1  0  0  0  0
 22 27  1  0  0  0  0
 22 20  1  0  0  0  0
 24 21  1  0  0  0  0
 25 21  1  0  0  0  0
 26 22  1  0  0  0  0
M  END
>  <minimizedAffinity>
-4.4196229

$$$$

 OpenBabel03242523173D

 27 29  0  0  0  0  0  0  0  0999 V2000
   37.4110   26.9000   42.1070 C   0  0  0  0  0  0  0  0  0  0  0  0
   38.3480   27.4030   42.9500 C   0  0  0  0  0  0  0  0  0  0  0  0
   38.3920   28.7780   43.0360 C   0  0  0  0  0  0  0  0  0  0  0  0
   37.4940   29.5150   42.2680 N   0  0  0  0  0  0  0  0  0  0  0  0
   36.5940   28.9600   41.4530 C   0  0  0  0  0  0  0  0  0  0  0  0
   36.5310   27.5890   41.3510 N   0  0  0  0  0  0  0  0  0  0  0  0
   39.0850   29.3160   43.6670 H   0  0  0  0  0  0  0  0  0  0  0  0
   36.0050   29.7230   40.9580 H   0  0  0  0  0  0  0  0  0  0  0  0
   37.0800   25.5080   41.8940 C   0  0  0  0  0  0  0  0  0  0  0  0
   36.5890   24.4240   42.0070 O   0  0  0  0  0  0  0  0  0  0  0  0
   37.7520   24.8350   40.7900 N   0  0  0  0  0  0  0  0  0  0  0  0
   38.2740   23.5290   41.0540 C   0  0  0  0  0  3  0  0  0  0  0  0
   38.9730   23.5740   41.8850 H   0  0  0  0  0  0  0  0  0  0  0  0
   38.8250   22.8950   39.8120 C   0  0  0  0  0  3  0  0  0  0  0  0
   37.9940   22.5940   39.1410 H   0  0  0  0  0  0  0  0  0  0  0  0
   39.7420   23.7250   39.0890 N   0  0  0  0  0  0  0  0  0  0  0  0
   40.7290   23.6490   39.4090 H   0  0  0  0  0  0  0  0  0  0  0  0
   39.3860   25.1190   39.0830 C   0  0  0  0  0  2  0  0  0  0  0  0
   37.9430   25.3500   39.4600 C   0  0  0  0  0  2  0  0  0  0  0  0
   39.3000   26.6500   43.6800 C   0  0  0  0  0  0  0  0  0  0  0  0
   40.2450   25.7720   43.2590 C   0  0  0  0  0  0  0  0  0  0  0  0
   40.8150   27.1260   43.6770 C   0  0  0  0  0  0  0  0  0  0  0  0
   39.0920   26.8330   44.8250 H   0  0  0  0  0  0  0  0  0  0  0  0
   40.4440   25.5980   42.1620 H   0  0  0  0  0  0  0  0  0  0  0  0
   40.6620   24.8960   43.8370 H   0  0  0  0  0  0  0  0  0  0  0  0
   41.3720   27.1320   44.5980 H   0  0  0  0  0  0  0  0  0  0  0  0
   41.0440   27.8840   42.9290 H   0  0  0  0  0  0  0  0  0  0  0  0
  1  2  1  0  0  0  0
  2  3  2  0  0  0  0
  2 20  1  0  0  0  0
  3  7  1  0  0  0  0
  4  3  1  0  0  0  0
  5  4  2  0  0  0  0
  6  5  1  0  0  0  0
  6  1  2  0  0  0  0
  8  5  1  0  0  0  0
  9 10  2  0  0  0  0
  9  1  1  0  0  0  0
 11 12  1  0  0  0  0
 11  9  1  0  0  0  0
 12 13  1  0  0  0  0
 14 12  1  0  0  0  0
 15 14  1  0  0  0  0
 16 17  1  0  0  0  0
 16 14  1  0  0  0  0
 18 16  1  0  0  0  0
 18 19  1  0  0  0  0
 19 11  1  0  0  0  0
 20 23  1  0  0  0  0
 21 22  1  0  0  0  0
 21 20  1  0  0  0  0
 21 25  1  0  0  0  0
 22 20  1  0  0  0  0
 22 26  1  0  0  0  0
 24 21  1  0  0  0  0
 27 22  1  0  0  0  0
M  END
>  <minimizedAffinity>
-4.39332628

$$$$

 OpenBabel03242523173D

 27 29  0  0  0  0  0  0  0  0999 V2000
   38.1810   26.7810   42.7750 C   0  0  0  0  0  0  0  0  0  0  0  0
   39.3280   26.1070   43.0400 C   0  0  0  0  0  0  0  0  0  0  0  0
   39.3220   24.7710   42.7040 C   0  0  0  0  0  0  0  0  0  0  0  0
   38.1670   24.2390   42.1360 N   0  0  0  0  0  0  0  0  0  0  0  0
   37.0660   24.9560   41.9010 C   0  0  0  0  0  0  0  0  0  0  0  0
   37.0470   26.2930   42.2280 N   0  0  0  0  0  0  0  0  0  0  0  0
   40.1650   24.1120   42.8570 H   0  0  0  0  0  0  0  0  0  0  0  0
   36.2940   24.3380   41.4560 H   0  0  0  0  0  0  0  0  0  0  0  0
   37.9390   28.1990   42.9350 C   0  0  0  0  0  0  0  0  0  0  0  0
   37.7320   29.2710   43.4210 O   0  0  0  0  0  0  0  0  0  0  0  0
   37.8960   28.9990   41.7180 N   0  0  0  0  0  0  0  0  0  0  0  0
   36.8340   29.9510   41.6110 C   0  0  0  0  0  3  0  0  0  0  0  0
   35.8760   29.4450   41.7040 H   0  0  0  0  0  0  0  0  0  0  0  0
   36.9720   30.7940   40.3790 C   0  0  0  0  0  3  0  0  0  0  0  0
   37.8080   31.5130   40.5060 H   0  0  0  0  0  0  0  0  0  0  0  0
   37.1700   30.0440   39.1750 N   0  0  0  0  0  0  0  0  0  0  0  0
   36.2890   29.7420   38.7120 H   0  0  0  0  0  0  0  0  0  0  0  0
   38.0010   28.8810   39.3430 C   0  0  0  0  0  2  0  0  0  0  0  0
   38.8160   28.9290   40.6130 C   0  0  0  0  0  2  0  0  0  0  0  0
   40.4760   26.6390   43.6760 C   0  0  0  0  0  0  0  0  0  0  0  0
   41.7660   26.2210   43.6660 C   0  0  0  0  0  0  0  0  0  0  0  0
   41.5210   27.4590   42.8060 C   0  0  0  0  0  0  0  0  0  0  0  0
   40.1200   27.5340   44.3570 H   0  0  0  0  0  0  0  0  0  0  0  0
   42.1070   25.3650   43.0150 H   0  0  0  0  0  0  0  0  0  0  0  0
   42.5340   26.3700   44.4820 H   0  0  0  0  0  0  0  0  0  0  0  0
   41.9260   28.3790   43.1890 H   0  0  0  0  0  0  0  0  0  0  0  0
   41.3780   27.3630   41.7300 H   0  0  0  0  0  0  0  0  0  0  0  0
  1  9  1  0  0  0  0
  1  2  1  0  0  0  0
  2 20  1  0  0  0  0
  3  7  1  0  0  0  0
  3  2  2  0  0  0  0
  4  3  1  0  0  0  0
  5  4  2  0  0  0  0
  5  6  1  0  0  0  0
  6  1  2  0  0  0  0
  8  5  1  0  0  0  0
  9 10  2  0  0  0  0
 11  9  1  0  0  0  0
 12 13  1  0  0  0  0
 12 11  1  0  0  0  0
 14 15  1  0  0  0  0
 14 12  1  0  0  0  0
 16 18  1  0  0  0  0
 16 14  1  0  0  0  0
 17 16  1  0  0  0  0
 18 19  1  0  0  0  0
 19 11  1  0  0  0  0
 20 23  1  0  0  0  0
 21 20  1  0  0  0  0
 21 25  1  0  0  0  0
 22 26  1  0  0  0  0
 22 21  1  0  0  0  0
 22 20  1  0  0  0  0
 24 21  1  0  0  0  0
 27 22  1  0  0  0  0
M  END
>  <minimizedAffinity>
-4.37697268

$$$$
