
 OpenBabel03252508513D

 28 30  0  0  0  0  0  0  0  0999 V2000
   45.9460   34.1910   41.0240 C   0  0  0  0  0  0  0  0  0  0  0  0
   46.5380   34.8070   42.1310 C   0  0  0  0  0  0  0  0  0  0  0  0
   47.8930   35.1610   42.0230 C   0  0  0  0  0  0  0  0  0  0  0  0
   48.5250   34.8750   40.8430 N   0  0  0  0  0  0  0  0  0  0  0  0
   47.9190   34.2860   39.8180 C   0  0  0  0  0  0  0  0  0  0  0  0
   46.6210   33.9340   39.8880 N   0  0  0  0  0  0  0  0  0  0  0  0
   48.3740   35.6410   42.8680 H   0  0  0  0  0  0  0  0  0  0  0  0
   48.5050   34.1090   38.9420 H   0  0  0  0  0  0  0  0  0  0  0  0
   45.7560   35.0550   43.3280 C   0  0  0  0  0  0  0  0  0  0  0  0
   45.0730   36.2340   43.5500 C   0  0  0  0  0  0  0  0  0  0  0  0
   44.4860   36.0280   44.7860 C   0  0  0  0  0  0  0  0  0  0  0  0
   44.7950   34.7980   45.2840 N   0  0  0  0  0  0  0  0  0  0  0  0
   45.5580   34.2430   44.3830 N   0  0  0  0  0  0  0  0  0  0  0  0
   44.9820   37.1290   42.9450 H   0  0  0  0  0  0  0  0  0  0  0  0
   43.8530   36.7650   45.2950 H   0  0  0  0  0  0  0  0  0  0  0  0
   44.4370   34.4720   46.2100 H   0  0  0  0  0  0  0  0  0  0  0  0
   44.6110   33.8390   41.1200 O   0  0  0  0  0  0  0  0  0  0  0  0
   43.5660   34.4890   40.5190 C   0  0  0  0  0  0  0  0  0  0  0  0
   43.2060   35.7020   40.6580 O   0  0  0  0  0  0  0  0  0  0  0  0
   42.5640   34.0390   39.5720 N   0  0  0  0  0  0  0  0  0  0  0  0
   41.8120   35.0760   38.8980 C   0  0  0  0  0  3  0  0  0  0  0  0
   42.2700   35.1290   37.8670 H   0  0  0  0  0  0  0  0  0  0  0  0
   40.4040   34.5470   38.7350 C   0  0  0  0  0  3  0  0  0  0  0  0
   39.7140   35.4040   38.9060 H   0  0  0  0  0  0  0  0  0  0  0  0
   40.0540   33.5620   39.7310 N   0  0  0  0  0  0  0  0  0  0  0  0
   39.0650   33.3000   39.5630 H   0  0  0  0  0  0  0  0  0  0  0  0
   40.8530   32.3590   39.6240 C   0  0  0  0  0  2  0  0  0  0  0  0
   42.2820   32.6500   39.2700 C   0  0  0  0  0  2  0  0  0  0  0  0
  1 17  1  0  0  0  0
  1  2  1  0  0  0  0
  2  9  1  0  0  0  0
  3  2  2  0  0  0  0
  3  7  1  0  0  0  0
  4  3  1  0  0  0  0
  5  6  1  0  0  0  0
  5  4  2  0  0  0  0
  6  1  2  0  0  0  0
  8  5  1  0  0  0  0
  9 10  1  0  0  0  0
  9 13  2  0  0  0  0
 10 11  2  0  0  0  0
 11 12  1  0  0  0  0
 11 15  1  0  0  0  0
 12 16  1  0  0  0  0
 13 12  1  0  0  0  0
 14 10  1  0  0  0  0
 18 19  2  0  0  0  0
 18 17  1  0  0  0  0
 20 18  1  0  0  0  0
 21 20  1  0  0  0  0
 22 21  1  0  0  0  0
 23 21  1  0  0  0  0
 23 24  1  0  0  0  0
 23 25  1  0  0  0  0
 26 25  1  0  0  0  0
 27 25  1  0  0  0  0
 28 20  1  0  0  0  0
 28 27  1  0  0  0  0
M  END
>  <minimizedAffinity>
-5.49955463

>  <minimizedRMSD>
0.379790962

$$$$
