
 OpenBabel03252504013D

 34 37  0  0  0  0  0  0  0  0999 V2000
   46.8890   34.9150   42.6020 C   0  0  0  0  0  0  0  0  0  0  0  0
   45.9650   35.9620   42.5190 C   0  0  0  0  0  0  0  0  0  0  0  0
   44.9570   36.0020   43.4810 C   0  0  0  0  0  0  0  0  0  0  0  0
   44.9240   35.0320   44.4400 N   0  0  0  0  0  0  0  0  0  0  0  0
   45.8430   34.0420   44.4750 C   0  0  0  0  0  0  0  0  0  0  0  0
   46.8250   33.9820   43.5590 N   0  0  0  0  0  0  0  0  0  0  0  0
   45.9500   36.7450   41.7850 H   0  0  0  0  0  0  0  0  0  0  0  0
   44.2010   36.7880   43.4800 H   0  0  0  0  0  0  0  0  0  0  0  0
   46.0610   31.6970   45.1360 C   0  0  0  0  0  0  0  0  0  0  0  0
   45.8080   32.9990   45.5050 C   0  0  0  0  0  0  0  0  0  0  0  0
   45.5340   33.2730   46.8200 C   0  0  0  0  0  0  0  0  0  0  0  0
   45.5060   32.2770   47.7690 C   0  0  0  0  0  0  0  0  0  0  0  0
   45.2760   32.2430   49.0840 N   0  0  0  0  0  0  0  0  0  0  0  0
   45.3770   30.9720   49.5440 C   0  0  0  0  0  0  0  0  0  0  0  0
   45.6860   30.1320   48.4850 C   0  0  0  0  0  0  0  0  0  0  0  0
   45.7650   30.9500   47.3860 C   0  0  0  0  0  0  0  0  0  0  0  0
   46.0430   30.6740   46.0610 C   0  0  0  0  0  0  0  0  0  0  0  0
   46.2840   31.4310   44.1070 H   0  0  0  0  0  0  0  0  0  0  0  0
   45.3350   34.3110   47.0970 H   0  0  0  0  0  0  0  0  0  0  0  0
   45.0520   33.1200   49.6320 H   0  0  0  0  0  0  0  0  0  0  0  0
   45.2260   30.7070   50.5910 H   0  0  0  0  0  0  0  0  0  0  0  0
   45.8320   29.0510   48.5350 H   0  0  0  0  0  0  0  0  0  0  0  0
   46.2420   29.6340   45.7820 H   0  0  0  0  0  0  0  0  0  0  0  0
   47.8980   34.9380   41.5810 C   0  0  0  0  0  0  0  0  0  0  0  0
   48.8470   35.7950   41.4920 O   0  0  0  0  0  0  0  0  0  0  0  0
   47.7780   33.8880   40.6100 N   0  0  0  0  0  0  0  0  0  0  0  0
   47.5190   32.4830   40.8730 C   0  0  0  0  0  3  0  0  0  0  0  0
   47.3890   32.2870   41.9560 H   0  0  0  0  0  0  0  0  0  0  0  0
   48.6290   31.6570   40.3310 C   0  0  0  0  0  3  0  0  0  0  0  0
   48.1930   30.7430   39.8370 H   0  0  0  0  0  0  0  0  0  0  0  0
   49.5130   32.3580   39.4360 N   0  0  0  0  0  0  0  0  0  0  0  0
   49.9970   31.6300   38.8630 H   0  0  0  0  0  0  0  0  0  0  0  0
   48.8300   33.2360   38.5190 C   0  0  0  0  0  2  0  0  0  0  0  0
   47.9210   34.2120   39.2050 C   0  0  0  0  0  2  0  0  0  0  0  0
  1  6  1  0  0  0  0
  2  1  2  0  0  0  0
  2  3  1  0  0  0  0
  3  4  2  0  0  0  0
  4  5  1  0  0  0  0
  5 10  1  0  0  0  0
  6  5  2  0  0  0  0
  7  2  1  0  0  0  0
  8  3  1  0  0  0  0
  9 10  2  0  0  0  0
  9 17  1  0  0  0  0
 10 11  1  0  0  0  0
 11 19  1  0  0  0  0
 11 12  2  0  0  0  0
 12 13  1  0  0  0  0
 13 14  1  0  0  0  0
 13 20  1  0  0  0  0
 14 21  1  0  0  0  0
 15 22  1  0  0  0  0
 15 14  2  0  0  0  0
 16 12  1  0  0  0  0
 16 15  1  0  0  0  0
 17 16  2  0  0  0  0
 18  9  1  0  0  0  0
 23 17  1  0  0  0  0
 24  1  1  0  0  0  0
 25 24  2  0  0  0  0
 26 27  1  0  0  0  0
 26 24  1  0  0  0  0
 27 28  1  0  0  0  0
 29 27  1  0  0  0  0
 30 29  1  0  0  0  0
 31 29  1  0  0  0  0
 32 31  1  0  0  0  0
 33 34  1  0  0  0  0
 33 31  1  0  0  0  0
 34 26  1  0  0  0  0
M  END
>  <minimizedAffinity>
-6.36448812

>  <minimizedRMSD>
0.0734912008

$$$$
