
 OpenBabel03252504003D

 34 37  0  0  0  0  0  0  0  0999 V2000
   46.9500   34.8510   42.5880 C   0  0  0  0  0  0  0  0  0  0  0  0
   46.0410   35.9100   42.4910 C   0  0  0  0  0  0  0  0  0  0  0  0
   45.0270   35.9710   43.4470 C   0  0  0  0  0  0  0  0  0  0  0  0
   44.9750   35.0090   44.4120 N   0  0  0  0  0  0  0  0  0  0  0  0
   45.8790   34.0070   44.4600 C   0  0  0  0  0  0  0  0  0  0  0  0
   46.8660   33.9260   43.5520 N   0  0  0  0  0  0  0  0  0  0  0  0
   46.0420   36.6880   41.7520 H   0  0  0  0  0  0  0  0  0  0  0  0
   44.2820   36.7680   43.4340 H   0  0  0  0  0  0  0  0  0  0  0  0
   46.0500   31.6630   45.1380 C   0  0  0  0  0  0  0  0  0  0  0  0
   45.8230   32.9730   45.4980 C   0  0  0  0  0  0  0  0  0  0  0  0
   45.5540   33.2610   46.8110 C   0  0  0  0  0  0  0  0  0  0  0  0
   45.5060   32.2720   47.7670 C   0  0  0  0  0  0  0  0  0  0  0  0
   45.2750   32.2530   49.0830 N   0  0  0  0  0  0  0  0  0  0  0  0
   45.3490   30.9830   49.5510 C   0  0  0  0  0  0  0  0  0  0  0  0
   45.6420   30.1300   48.4980 C   0  0  0  0  0  0  0  0  0  0  0  0
   45.7380   30.9380   47.3930 C   0  0  0  0  0  0  0  0  0  0  0  0
   46.0100   30.6470   46.0700 C   0  0  0  0  0  0  0  0  0  0  0  0
   46.2670   31.3850   44.1120 H   0  0  0  0  0  0  0  0  0  0  0  0
   45.3770   34.3050   47.0800 H   0  0  0  0  0  0  0  0  0  0  0  0
   45.0680   33.1380   49.6240 H   0  0  0  0  0  0  0  0  0  0  0  0
   45.1930   30.7290   50.6000 H   0  0  0  0  0  0  0  0  0  0  0  0
   45.7660   29.0460   48.5560 H   0  0  0  0  0  0  0  0  0  0  0  0
   46.1880   29.6010   45.7990 H   0  0  0  0  0  0  0  0  0  0  0  0
   47.9660   34.8520   41.5740 C   0  0  0  0  0  0  0  0  0  0  0  0
   48.8330   35.7780   41.3910 O   0  0  0  0  0  0  0  0  0  0  0  0
   47.9550   33.6940   40.7280 N   0  0  0  0  0  0  0  0  0  0  0  0
   48.4170   32.3590   41.0700 C   0  0  0  0  0  0  0  0  0  0  0  0
   48.7760   32.3080   42.1160 H   0  0  0  0  0  0  0  0  0  0  0  0
   49.4940   31.9460   40.1360 C   0  0  0  0  0  0  0  0  0  0  0  0
   49.3330   30.8670   39.8530 H   0  0  0  0  0  0  0  0  0  0  0  0
   49.6230   32.7740   38.9650 N   0  0  0  0  0  0  0  0  0  0  0  0
   50.1250   32.2050   38.2480 H   0  0  0  0  0  0  0  0  0  0  0  0
   48.3580   33.1630   38.3910 C   0  0  0  0  0  0  0  0  0  0  0  0
   47.4380   33.8140   39.3790 C   0  0  0  0  0  0  0  0  0  0  0  0
  1  6  1  0  0  0  0
  2  1  2  0  0  0  0
  2  3  1  0  0  0  0
  3  4  2  0  0  0  0
  4  5  1  0  0  0  0
  5 10  1  0  0  0  0
  6  5  2  0  0  0  0
  7  2  1  0  0  0  0
  8  3  1  0  0  0  0
  9 10  2  0  0  0  0
  9 17  1  0  0  0  0
 10 11  1  0  0  0  0
 11 19  1  0  0  0  0
 11 12  2  0  0  0  0
 12 13  1  0  0  0  0
 13 14  1  0  0  0  0
 13 20  1  0  0  0  0
 14 21  1  0  0  0  0
 15 22  1  0  0  0  0
 15 14  2  0  0  0  0
 16 12  1  0  0  0  0
 16 15  1  0  0  0  0
 17 16  2  0  0  0  0
 18  9  1  0  0  0  0
 23 17  1  0  0  0  0
 24  1  1  0  0  0  0
 25 24  2  0  0  0  0
 26 27  1  0  0  0  0
 26 24  1  0  0  0  0
 27 28  1  0  0  0  0
 29 27  1  0  0  0  0
 30 29  1  0  0  0  0
 31 29  1  0  0  0  0
 32 31  1  0  0  0  0
 33 31  1  0  0  0  0
 33 34  1  0  0  0  0
 34 26  1  0  0  0  0
M  END
>  <minimizedAffinity>
-6.48476839

>  <minimizedRMSD>
0.172018856

$$$$
