
 OpenBabel03242523163D

 27 29  0  0  0  0  0  0  0  0999 V2000
   46.2410   34.3970   43.5650 C   0  0  0  0  0  0  0  0  0  0  0  0
   47.4270   33.8690   43.1720 C   0  0  0  0  0  0  0  0  0  0  0  0
   47.8760   32.7980   43.9130 C   0  0  0  0  0  0  0  0  0  0  0  0
   47.0930   32.3590   44.9780 N   0  0  0  0  0  0  0  0  0  0  0  0
   45.9310   32.9230   45.3180 C   0  0  0  0  0  0  0  0  0  0  0  0
   45.4620   33.9940   44.5920 N   0  0  0  0  0  0  0  0  0  0  0  0
   48.8020   32.2790   43.7140 H   0  0  0  0  0  0  0  0  0  0  0  0
   45.4980   32.4200   46.1740 H   0  0  0  0  0  0  0  0  0  0  0  0
   45.4940   35.4540   42.9190 C   0  0  0  0  0  0  0  0  0  0  0  0
   45.0610   36.5300   42.6310 O   0  0  0  0  0  0  0  0  0  0  0  0
   44.6020   35.0610   41.8360 N   0  0  0  0  0  0  0  0  0  0  0  0
   43.2940   35.6390   41.8370 C   0  0  0  0  0  0  0  0  0  0  0  0
   42.7920   35.4110   42.7740 H   0  0  0  0  0  0  0  0  0  0  0  0
   42.5210   35.2570   40.6110 C   0  0  0  0  0  0  0  0  0  0  0  0
   42.9250   35.7960   39.7280 H   0  0  0  0  0  0  0  0  0  0  0  0
   42.5070   33.8490   40.3430 N   0  0  0  0  0  0  0  0  0  0  0  0
   41.7440   33.3320   40.8260 H   0  0  0  0  0  0  0  0  0  0  0  0
   43.7490   33.1870   40.6420 C   0  0  0  0  0  0  0  0  0  0  0  0
   44.9050   34.1500   40.7640 C   0  0  0  0  0  0  0  0  0  0  0  0
   48.2500   34.3600   42.1280 C   0  0  0  0  0  0  0  0  0  0  0  0
   48.5230   35.6300   41.7390 C   0  0  0  0  0  0  0  0  0  0  0  0
   49.6710   34.9650   42.4960 C   0  0  0  0  0  0  0  0  0  0  0  0
   48.6410   33.4290   41.5200 H   0  0  0  0  0  0  0  0  0  0  0  0
   48.1480   36.5210   42.3210 H   0  0  0  0  0  0  0  0  0  0  0  0
   48.7940   35.9780   40.6990 H   0  0  0  0  0  0  0  0  0  0  0  0
   50.5300   34.7040   41.9020 H   0  0  0  0  0  0  0  0  0  0  0  0
   49.8140   35.1550   43.5590 H   0  0  0  0  0  0  0  0  0  0  0  0
  1  6  1  0  0  0  0
  2  1  2  0  0  0  0
  2  3  1  0  0  0  0
  3  4  2  0  0  0  0
  4  5  1  0  0  0  0
  5  8  1  0  0  0  0
  6  5  2  0  0  0  0
  7  3  1  0  0  0  0
  9  1  1  0  0  0  0
 10  9  2  0  0  0  0
 11 12  1  0  0  0  0
 11  9  1  0  0  0  0
 12 13  1  0  0  0  0
 14 12  1  0  0  0  0
 15 14  1  0  0  0  0
 16 14  1  0  0  0  0
 16 18  1  0  0  0  0
 16 17  1  0  0  0  0
 18 19  1  0  0  0  0
 19 11  1  0  0  0  0
 20 22  1  0  0  0  0
 20  2  1  0  0  0  0
 21 20  1  0  0  0  0
 21 24  1  0  0  0  0
 21 22  1  0  0  0  0
 22 27  1  0  0  0  0
 23 20  1  0  0  0  0
 25 21  1  0  0  0  0
 26 22  1  0  0  0  0
M  END
>  <minimizedAffinity>
-4.82644081

>  <minimizedRMSD>
0.839949608

$$$$
