
 OpenBabel03252504003D

 34 37  0  0  0  0  0  0  0  0999 V2000
   46.6960   35.0480   42.6990 C   0  0  0  0  0  0  0  0  0  0  0  0
   45.7860   36.1110   42.7060 C   0  0  0  0  0  0  0  0  0  0  0  0
   44.8340   36.1300   43.7260 C   0  0  0  0  0  0  0  0  0  0  0  0
   44.8400   35.1260   44.6490 N   0  0  0  0  0  0  0  0  0  0  0  0
   45.7430   34.1220   44.5960 C   0  0  0  0  0  0  0  0  0  0  0  0
   46.6700   34.0810   43.6240 N   0  0  0  0  0  0  0  0  0  0  0  0
   45.7430   36.9200   42.0030 H   0  0  0  0  0  0  0  0  0  0  0  0
   44.0930   36.9260   43.7950 H   0  0  0  0  0  0  0  0  0  0  0  0
   46.0670   31.7690   45.1770 C   0  0  0  0  0  0  0  0  0  0  0  0
   45.7490   33.0430   45.5890 C   0  0  0  0  0  0  0  0  0  0  0  0
   45.4500   33.2570   46.9100 C   0  0  0  0  0  0  0  0  0  0  0  0
   45.4620   32.2280   47.8230 C   0  0  0  0  0  0  0  0  0  0  0  0
   45.2230   32.1370   49.1340 N   0  0  0  0  0  0  0  0  0  0  0  0
   45.3800   30.8560   49.5500 C   0  0  0  0  0  0  0  0  0  0  0  0
   45.7390   30.0700   48.4650 C   0  0  0  0  0  0  0  0  0  0  0  0
   45.7880   30.9290   47.3960 C   0  0  0  0  0  0  0  0  0  0  0  0
   46.0900   30.7140   46.0650 C   0  0  0  0  0  0  0  0  0  0  0  0
   46.3110   31.5500   44.1420 H   0  0  0  0  0  0  0  0  0  0  0  0
   45.2000   34.2740   47.2210 H   0  0  0  0  0  0  0  0  0  0  0  0
   44.9520   32.9810   49.7090 H   0  0  0  0  0  0  0  0  0  0  0  0
   45.2330   30.5470   50.5850 H   0  0  0  0  0  0  0  0  0  0  0  0
   45.9360   28.9950   48.4790 H   0  0  0  0  0  0  0  0  0  0  0  0
   46.3410   29.6950   45.7530 H   0  0  0  0  0  0  0  0  0  0  0  0
   47.6460   35.0940   41.6230 C   0  0  0  0  0  0  0  0  0  0  0  0
   48.7540   35.7370   41.6370 O   0  0  0  0  0  0  0  0  0  0  0  0
   47.2620   34.3360   40.4670 N   0  0  0  0  0  0  0  0  0  0  0  0
   46.0470   33.5590   40.2960 C   0  0  0  0  0  3  0  0  0  0  0  0
   45.3890   33.6300   41.1850 H   0  0  0  0  0  0  0  0  0  0  0  0
   46.3910   32.1410   40.0230 C   0  0  0  0  0  3  0  0  0  0  0  0
   45.7090   31.7520   39.2150 H   0  0  0  0  0  0  0  0  0  0  0  0
   47.7730   31.9140   39.6900 N   0  0  0  0  0  0  0  0  0  0  0  0
   47.8140   31.0010   39.1830 H   0  0  0  0  0  0  0  0  0  0  0  0
   48.3260   32.9130   38.8100 C   0  0  0  0  0  2  0  0  0  0  0  0
   48.1470   34.3130   39.3200 C   0  0  0  0  0  2  0  0  0  0  0  0
  1  2  2  0  0  0  0
  1  6  1  0  0  0  0
  2  3  1  0  0  0  0
  3  8  1  0  0  0  0
  3  4  2  0  0  0  0
  5  4  1  0  0  0  0
  5 10  1  0  0  0  0
  6  5  2  0  0  0  0
  7  2  1  0  0  0  0
  9 10  2  0  0  0  0
  9 17  1  0  0  0  0
 10 11  1  0  0  0  0
 11 19  1  0  0  0  0
 11 12  2  0  0  0  0
 12 13  1  0  0  0  0
 13 14  1  0  0  0  0
 13 20  1  0  0  0  0
 14 21  1  0  0  0  0
 15 22  1  0  0  0  0
 15 14  2  0  0  0  0
 16 12  1  0  0  0  0
 16 15  1  0  0  0  0
 17 16  2  0  0  0  0
 18  9  1  0  0  0  0
 23 17  1  0  0  0  0
 24 25  2  0  0  0  0
 24  1  1  0  0  0  0
 26 24  1  0  0  0  0
 27 26  1  0  0  0  0
 27 28  1  0  0  0  0
 29 27  1  0  0  0  0
 30 29  1  0  0  0  0
 31 29  1  0  0  0  0
 32 31  1  0  0  0  0
 33 34  1  0  0  0  0
 33 31  1  0  0  0  0
 34 26  1  0  0  0  0
M  END
>  <minimizedAffinity>
-6.28660202

>  <minimizedRMSD>
0.648281753

$$$$
