
 OpenBabel03252502283D

 35 37  0  0  0  0  0  0  0  0999 V2000
   45.1140   34.4870   41.2950 C   0  0  0  0  0  0  0  0  0  0  0  0
   45.4170   35.1530   42.4730 C   0  0  0  0  0  0  0  0  0  0  0  0
   46.7510   35.4350   42.7600 C   0  0  0  0  0  0  0  0  0  0  0  0
   47.7260   35.0510   41.8780 C   0  0  0  0  0  0  0  0  0  0  0  0
   47.4470   34.3900   40.7030 C   0  0  0  0  0  0  0  0  0  0  0  0
   46.1020   34.1200   40.4410 C   0  0  0  0  0  0  0  0  0  0  0  0
   44.6480   35.4560   43.1690 H   0  0  0  0  0  0  0  0  0  0  0  0
   46.9420   35.9550   43.6890 H   0  0  0  0  0  0  0  0  0  0  0  0
   48.7620   35.2630   42.0890 H   0  0  0  0  0  0  0  0  0  0  0  0
   48.2020   34.0730   39.9850 H   0  0  0  0  0  0  0  0  0  0  0  0
   46.1430   32.3330   38.5330 C   0  0  0  0  0  0  0  0  0  0  0  0
   47.1650   31.6960   38.7620 O   0  0  0  0  0  0  0  0  0  0  0  0
   45.6810   33.4500   39.2700 N   0  0  0  0  0  0  0  0  0  0  0  0
   44.8170   33.9650   38.9350 H   0  0  0  0  0  0  0  0  0  0  0  0
   45.3650   31.8930   37.4230 N   0  0  0  0  0  0  0  0  0  0  0  0
   45.4490   32.7180   36.2330 C   0  0  0  0  0  3  0  0  0  0  0  0
   44.8700   33.6560   36.3400 H   0  0  0  0  0  0  0  0  0  0  0  0
   45.1170   31.9240   34.9960 C   0  0  0  0  0  3  0  0  0  0  0  0
   46.0160   31.2740   34.7840 H   0  0  0  0  0  0  0  0  0  0  0  0
   43.9130   31.1640   35.0650 N   0  0  0  0  0  0  0  0  0  0  0  0
   43.1890   31.5420   34.4140 H   0  0  0  0  0  0  0  0  0  0  0  0
   43.3580   31.1880   36.3980 C   0  0  0  0  0  2  0  0  0  0  0  0
   44.4990   30.7340   37.3200 C   0  0  0  0  0  2  0  0  0  0  0  0
   41.4470   34.7750   40.4570 C   0  0  0  0  0  0  0  0  0  0  0  0
   42.7820   35.1510   40.6500 C   0  0  0  0  0  0  0  0  0  0  0  0
   43.7000   34.2270   41.0590 C   0  0  0  0  0  0  0  0  0  0  0  0
   43.2400   32.9550   41.2600 N   0  0  0  0  0  0  0  0  0  0  0  0
   41.9580   32.5860   41.0770 C   0  0  0  0  0  0  0  0  0  0  0  0
   41.0520   33.5070   40.6710 N   0  0  0  0  0  0  0  0  0  0  0  0
   43.1220   36.1670   40.4830 H   0  0  0  0  0  0  0  0  0  0  0  0
   41.6600   31.5570   41.2550 H   0  0  0  0  0  0  0  0  0  0  0  0
   40.4470   35.7670   40.0150 C   0  0  0  0  0  0  0  0  0  0  0  0
   39.2620   35.0710   39.7290 F   0  0  0  0  0  0  0  0  0  0  0  0
   40.8890   36.2630   38.7970 F   0  0  0  0  0  0  0  0  0  0  0  0
   40.2070   36.7510   40.9350 F   0  0  0  0  0  0  0  0  0  0  0  0
  1  2  1  0  0  0  0
  2  3  2  0  0  0  0
  2  7  1  0  0  0  0
  3  8  1  0  0  0  0
  4  9  1  0  0  0  0
  4  3  1  0  0  0  0
  5  4  2  0  0  0  0
  6  5  1  0  0  0  0
  6  1  2  0  0  0  0
 10  5  1  0  0  0  0
 11 12  2  0  0  0  0
 11 13  1  0  0  0  0
 13  6  1  0  0  0  0
 14 13  1  0  0  0  0
 15 11  1  0  0  0  0
 16 17  1  0  0  0  0
 16 15  1  0  0  0  0
 18 20  1  0  0  0  0
 18 16  1  0  0  0  0
 19 18  1  0  0  0  0
 20 22  1  0  0  0  0
 21 20  1  0  0  0  0
 22 23  1  0  0  0  0
 23 15  1  0  0  0  0
 24 25  2  0  0  0  0
 24 29  1  0  0  0  0
 25 26  1  0  0  0  0
 26 27  2  0  0  0  0
 26  1  1  0  0  0  0
 28 31  1  0  0  0  0
 28 27  1  0  0  0  0
 29 28  2  0  0  0  0
 30 25  1  0  0  0  0
 32 24  1  0  0  0  0
 32 35  1  0  0  0  0
 33 32  1  0  0  0  0
 34 32  1  0  0  0  0
M  END
>  <minimizedAffinity>
-6.35870552

>  <minimizedRMSD>
0.540484786

$$$$
