
 OpenBabel03252504013D

 34 37  0  0  0  0  0  0  0  0999 V2000
   46.8950   34.8540   42.5740 C   0  0  0  0  0  0  0  0  0  0  0  0
   45.9940   35.9230   42.4980 C   0  0  0  0  0  0  0  0  0  0  0  0
   45.0010   35.9910   43.4750 C   0  0  0  0  0  0  0  0  0  0  0  0
   44.9590   35.0280   44.4390 N   0  0  0  0  0  0  0  0  0  0  0  0
   45.8540   34.0160   44.4670 C   0  0  0  0  0  0  0  0  0  0  0  0
   46.8210   33.9280   43.5380 N   0  0  0  0  0  0  0  0  0  0  0  0
   45.9880   36.7020   41.7610 H   0  0  0  0  0  0  0  0  0  0  0  0
   44.2640   36.7950   43.4800 H   0  0  0  0  0  0  0  0  0  0  0  0
   46.0470   31.6730   45.1420 C   0  0  0  0  0  0  0  0  0  0  0  0
   45.8090   32.9810   45.5040 C   0  0  0  0  0  0  0  0  0  0  0  0
   45.5400   33.2650   46.8180 C   0  0  0  0  0  0  0  0  0  0  0  0
   45.5030   32.2750   47.7720 C   0  0  0  0  0  0  0  0  0  0  0  0
   45.2750   32.2520   49.0880 N   0  0  0  0  0  0  0  0  0  0  0  0
   45.3620   30.9830   49.5550 C   0  0  0  0  0  0  0  0  0  0  0  0
   45.6600   30.1330   48.5000 C   0  0  0  0  0  0  0  0  0  0  0  0
   45.7460   30.9440   47.3960 C   0  0  0  0  0  0  0  0  0  0  0  0
   46.0180   30.6560   46.0730 C   0  0  0  0  0  0  0  0  0  0  0  0
   46.2640   31.3980   44.1140 H   0  0  0  0  0  0  0  0  0  0  0  0
   45.3550   34.3070   47.0880 H   0  0  0  0  0  0  0  0  0  0  0  0
   45.0620   33.1340   49.6310 H   0  0  0  0  0  0  0  0  0  0  0  0
   45.2100   30.7260   50.6040 H   0  0  0  0  0  0  0  0  0  0  0  0
   45.7930   29.0500   48.5570 H   0  0  0  0  0  0  0  0  0  0  0  0
   46.2040   29.6120   45.8000 H   0  0  0  0  0  0  0  0  0  0  0  0
   47.8890   34.8480   41.5390 C   0  0  0  0  0  0  0  0  0  0  0  0
   48.9900   35.5030   41.5620 O   0  0  0  0  0  0  0  0  0  0  0  0
   47.5620   34.0190   40.4140 N   0  0  0  0  0  0  0  0  0  0  0  0
   46.7600   32.8080   40.4260 C   0  0  0  0  0  3  0  0  0  0  0  0
   46.3760   32.5820   41.4410 H   0  0  0  0  0  0  0  0  0  0  0  0
   47.5610   31.6680   39.9140 C   0  0  0  0  0  3  0  0  0  0  0  0
   46.9130   31.0440   39.2370 H   0  0  0  0  0  0  0  0  0  0  0  0
   48.7870   32.0450   39.2570 N   0  0  0  0  0  0  0  0  0  0  0  0
   49.0590   31.2410   38.6480 H   0  0  0  0  0  0  0  0  0  0  0  0
   48.6510   33.1980   38.4030 C   0  0  0  0  0  2  0  0  0  0  0  0
   48.0620   34.3860   39.1040 C   0  0  0  0  0  2  0  0  0  0  0  0
  1  6  1  0  0  0  0
  2  1  2  0  0  0  0
  2  3  1  0  0  0  0
  3  8  1  0  0  0  0
  3  4  2  0  0  0  0
  4  5  1  0  0  0  0
  5 10  1  0  0  0  0
  6  5  2  0  0  0  0
  7  2  1  0  0  0  0
  9 10  2  0  0  0  0
  9 17  1  0  0  0  0
 10 11  1  0  0  0  0
 11 19  1  0  0  0  0
 11 12  2  0  0  0  0
 12 13  1  0  0  0  0
 13 14  1  0  0  0  0
 13 20  1  0  0  0  0
 14 21  1  0  0  0  0
 15 22  1  0  0  0  0
 15 14  2  0  0  0  0
 16 12  1  0  0  0  0
 16 15  1  0  0  0  0
 17 16  2  0  0  0  0
 18  9  1  0  0  0  0
 23 17  1  0  0  0  0
 24 25  2  0  0  0  0
 24  1  1  0  0  0  0
 26 27  1  0  0  0  0
 26 24  1  0  0  0  0
 27 28  1  0  0  0  0
 29 27  1  0  0  0  0
 30 29  1  0  0  0  0
 31 29  1  0  0  0  0
 32 31  1  0  0  0  0
 33 34  1  0  0  0  0
 33 31  1  0  0  0  0
 34 26  1  0  0  0  0
M  END
>  <minimizedAffinity>
-6.16540909

>  <minimizedRMSD>
0.411887884

$$$$
