
 OpenBabel03252504013D

 34 37  0  0  0  0  0  0  0  0999 V2000
   46.8680   34.8790   42.5620 C   0  0  0  0  0  0  0  0  0  0  0  0
   45.9590   35.9410   42.4870 C   0  0  0  0  0  0  0  0  0  0  0  0
   44.9660   36.0010   43.4650 C   0  0  0  0  0  0  0  0  0  0  0  0
   44.9330   35.0360   44.4290 N   0  0  0  0  0  0  0  0  0  0  0  0
   45.8360   34.0330   44.4550 C   0  0  0  0  0  0  0  0  0  0  0  0
   46.8030   33.9520   43.5250 N   0  0  0  0  0  0  0  0  0  0  0  0
   45.9450   36.7200   41.7500 H   0  0  0  0  0  0  0  0  0  0  0  0
   44.2220   36.7990   43.4710 H   0  0  0  0  0  0  0  0  0  0  0  0
   46.0420   31.6900   45.1270 C   0  0  0  0  0  0  0  0  0  0  0  0
   45.8010   32.9960   45.4910 C   0  0  0  0  0  0  0  0  0  0  0  0
   45.5370   33.2780   46.8070 C   0  0  0  0  0  0  0  0  0  0  0  0
   45.5090   32.2880   47.7610 C   0  0  0  0  0  0  0  0  0  0  0  0
   45.2870   32.2630   49.0780 N   0  0  0  0  0  0  0  0  0  0  0  0
   45.3820   30.9930   49.5430 C   0  0  0  0  0  0  0  0  0  0  0  0
   45.6780   30.1460   48.4870 C   0  0  0  0  0  0  0  0  0  0  0  0
   45.7560   30.9570   47.3830 C   0  0  0  0  0  0  0  0  0  0  0  0
   46.0230   30.6720   46.0580 C   0  0  0  0  0  0  0  0  0  0  0  0
   46.2560   31.4170   44.0990 H   0  0  0  0  0  0  0  0  0  0  0  0
   45.3480   34.3190   47.0790 H   0  0  0  0  0  0  0  0  0  0  0  0
   45.0730   33.1440   49.6220 H   0  0  0  0  0  0  0  0  0  0  0  0
   45.2360   30.7350   50.5930 H   0  0  0  0  0  0  0  0  0  0  0  0
   45.8170   29.0640   48.5420 H   0  0  0  0  0  0  0  0  0  0  0  0
   46.2130   29.6290   45.7840 H   0  0  0  0  0  0  0  0  0  0  0  0
   47.8610   34.8820   41.5250 C   0  0  0  0  0  0  0  0  0  0  0  0
   48.8410   35.7020   41.4370 O   0  0  0  0  0  0  0  0  0  0  0  0
   47.6840   33.8560   40.5380 N   0  0  0  0  0  0  0  0  0  0  0  0
   48.3190   33.7810   39.2340 C   0  0  0  0  0  3  0  0  0  0  0  0
   49.0160   34.6270   39.0700 H   0  0  0  0  0  0  0  0  0  0  0  0
   47.2830   33.7570   38.1700 C   0  0  0  0  0  3  0  0  0  0  0  0
   47.5840   33.0040   37.3890 H   0  0  0  0  0  0  0  0  0  0  0  0
   45.9460   33.5060   38.6440 N   0  0  0  0  0  0  0  0  0  0  0  0
   45.3980   33.1580   37.8240 H   0  0  0  0  0  0  0  0  0  0  0  0
   45.8760   32.4880   39.6640 C   0  0  0  0  0  2  0  0  0  0  0  0
   46.7860   32.7540   40.8250 C   0  0  0  0  0  2  0  0  0  0  0  0
  1  6  1  0  0  0  0
  2  1  2  0  0  0  0
  2  3  1  0  0  0  0
  3  8  1  0  0  0  0
  3  4  2  0  0  0  0
  4  5  1  0  0  0  0
  5 10  1  0  0  0  0
  6  5  2  0  0  0  0
  7  2  1  0  0  0  0
  9 10  2  0  0  0  0
  9 17  1  0  0  0  0
 10 11  1  0  0  0  0
 11 19  1  0  0  0  0
 11 12  2  0  0  0  0
 12 13  1  0  0  0  0
 13 14  1  0  0  0  0
 13 20  1  0  0  0  0
 14 21  1  0  0  0  0
 15 22  1  0  0  0  0
 15 14  2  0  0  0  0
 16 12  1  0  0  0  0
 16 15  1  0  0  0  0
 17 16  2  0  0  0  0
 18  9  1  0  0  0  0
 23 17  1  0  0  0  0
 24  1  1  0  0  0  0
 25 24  2  0  0  0  0
 26 34  1  0  0  0  0
 26 24  1  0  0  0  0
 27 26  1  0  0  0  0
 28 27  1  0  0  0  0
 29 31  1  0  0  0  0
 29 27  1  0  0  0  0
 30 29  1  0  0  0  0
 31 33  1  0  0  0  0
 32 31  1  0  0  0  0
 33 34  1  0  0  0  0
M  END
>  <minimizedAffinity>
-6.34256887

>  <minimizedRMSD>
0.153956503

$$$$
