
 OpenBabel03252508513D

 28 30  0  0  0  0  0  0  0  0999 V2000
   45.9460   34.1430   41.0350 C   0  0  0  0  0  0  0  0  0  0  0  0
   46.5300   34.8020   42.1220 C   0  0  0  0  0  0  0  0  0  0  0  0
   47.8690   35.2030   41.9870 C   0  0  0  0  0  0  0  0  0  0  0  0
   48.4950   34.9170   40.8040 N   0  0  0  0  0  0  0  0  0  0  0  0
   47.8970   34.2860   39.8000 C   0  0  0  0  0  0  0  0  0  0  0  0
   46.6140   33.8880   39.8950 N   0  0  0  0  0  0  0  0  0  0  0  0
   48.3440   35.7170   42.8160 H   0  0  0  0  0  0  0  0  0  0  0  0
   48.4760   34.1120   38.9180 H   0  0  0  0  0  0  0  0  0  0  0  0
   45.7550   35.0450   43.3250 C   0  0  0  0  0  0  0  0  0  0  0  0
   45.0640   36.2180   43.5500 C   0  0  0  0  0  0  0  0  0  0  0  0
   44.4890   36.0090   44.7920 C   0  0  0  0  0  0  0  0  0  0  0  0
   44.8130   34.7830   45.2890 N   0  0  0  0  0  0  0  0  0  0  0  0
   45.5740   34.2330   44.3830 N   0  0  0  0  0  0  0  0  0  0  0  0
   44.9590   37.1110   42.9440 H   0  0  0  0  0  0  0  0  0  0  0  0
   43.8530   36.7410   45.3050 H   0  0  0  0  0  0  0  0  0  0  0  0
   44.4670   34.4550   46.2190 H   0  0  0  0  0  0  0  0  0  0  0  0
   44.6260   33.7440   41.1580 O   0  0  0  0  0  0  0  0  0  0  0  0
   43.5390   34.4040   40.6480 C   0  0  0  0  0  0  0  0  0  0  0  0
   43.3520   35.6590   40.5490 O   0  0  0  0  0  0  0  0  0  0  0  0
   42.2950   33.9220   40.0790 N   0  0  0  0  0  0  0  0  0  0  0  0
   41.3230   33.4010   41.0170 C   0  0  0  0  0  3  0  0  0  0  0  0
   40.5600   34.2300   41.1160 H   0  0  0  0  0  0  0  0  0  0  0  0
   40.6370   32.2420   40.3260 C   0  0  0  0  0  3  0  0  0  0  0  0
   40.4740   31.4580   41.0980 H   0  0  0  0  0  0  0  0  0  0  0  0
   41.4620   31.6250   39.3130 N   0  0  0  0  0  0  0  0  0  0  0  0
   40.9260   30.8210   38.9370 H   0  0  0  0  0  0  0  0  0  0  0  0
   41.7470   32.5190   38.2110 C   0  0  0  0  0  2  0  0  0  0  0  0
   41.9790   33.9320   38.6640 C   0  0  0  0  0  2  0  0  0  0  0  0
  1 17  1  0  0  0  0
  1  2  1  0  0  0  0
  2  9  1  0  0  0  0
  3  2  2  0  0  0  0
  3  7  1  0  0  0  0
  4  3  1  0  0  0  0
  5  6  1  0  0  0  0
  5  4  2  0  0  0  0
  6  1  2  0  0  0  0
  8  5  1  0  0  0  0
  9 10  1  0  0  0  0
  9 13  2  0  0  0  0
 10 11  2  0  0  0  0
 11 12  1  0  0  0  0
 11 15  1  0  0  0  0
 12 16  1  0  0  0  0
 13 12  1  0  0  0  0
 14 10  1  0  0  0  0
 18 17  1  0  0  0  0
 19 18  2  0  0  0  0
 20 18  1  0  0  0  0
 20 21  1  0  0  0  0
 21 22  1  0  0  0  0
 23 21  1  0  0  0  0
 23 24  1  0  0  0  0
 25 23  1  0  0  0  0
 26 25  1  0  0  0  0
 27 28  1  0  0  0  0
 27 25  1  0  0  0  0
 28 20  1  0  0  0  0
M  END
>  <minimizedAffinity>
-5.42988777

>  <minimizedRMSD>
0.732177913

$$$$
