
 OpenBabel03252504013D

 34 37  0  0  0  0  0  0  0  0999 V2000
   46.8210   34.8510   42.5200 C   0  0  0  0  0  0  0  0  0  0  0  0
   45.9400   35.9370   42.4750 C   0  0  0  0  0  0  0  0  0  0  0  0
   44.9820   36.0240   43.4850 C   0  0  0  0  0  0  0  0  0  0  0  0
   44.9530   35.0600   44.4490 N   0  0  0  0  0  0  0  0  0  0  0  0
   45.8280   34.0310   44.4450 C   0  0  0  0  0  0  0  0  0  0  0  0
   46.7610   33.9250   43.4840 N   0  0  0  0  0  0  0  0  0  0  0  0
   45.9240   36.7180   41.7390 H   0  0  0  0  0  0  0  0  0  0  0  0
   44.2610   36.8430   43.5150 H   0  0  0  0  0  0  0  0  0  0  0  0
   46.0430   31.6890   45.1190 C   0  0  0  0  0  0  0  0  0  0  0  0
   45.7980   32.9950   45.4820 C   0  0  0  0  0  0  0  0  0  0  0  0
   45.5340   33.2770   46.7980 C   0  0  0  0  0  0  0  0  0  0  0  0
   45.5100   32.2860   47.7520 C   0  0  0  0  0  0  0  0  0  0  0  0
   45.2910   32.2610   49.0700 N   0  0  0  0  0  0  0  0  0  0  0  0
   45.3900   30.9920   49.5360 C   0  0  0  0  0  0  0  0  0  0  0  0
   45.6880   30.1450   48.4790 C   0  0  0  0  0  0  0  0  0  0  0  0
   45.7620   30.9570   47.3750 C   0  0  0  0  0  0  0  0  0  0  0  0
   46.0280   30.6720   46.0490 C   0  0  0  0  0  0  0  0  0  0  0  0
   46.2560   31.4170   44.0900 H   0  0  0  0  0  0  0  0  0  0  0  0
   45.3420   34.3170   47.0700 H   0  0  0  0  0  0  0  0  0  0  0  0
   45.0740   33.1420   49.6140 H   0  0  0  0  0  0  0  0  0  0  0  0
   45.2460   30.7340   50.5850 H   0  0  0  0  0  0  0  0  0  0  0  0
   45.8300   29.0630   48.5340 H   0  0  0  0  0  0  0  0  0  0  0  0
   46.2210   29.6290   45.7750 H   0  0  0  0  0  0  0  0  0  0  0  0
   47.7800   34.8270   41.4520 C   0  0  0  0  0  0  0  0  0  0  0  0
   48.7770   35.6220   41.3300 O   0  0  0  0  0  0  0  0  0  0  0  0
   47.5450   33.8040   40.4730 N   0  0  0  0  0  0  0  0  0  0  0  0
   48.3380   33.5330   39.2870 C   0  0  0  0  0  3  0  0  0  0  0  0
   49.2110   34.2130   39.2150 H   0  0  0  0  0  0  0  0  0  0  0  0
   47.4890   33.6570   38.0750 C   0  0  0  0  0  3  0  0  0  0  0  0
   47.7420   32.8170   37.3670 H   0  0  0  0  0  0  0  0  0  0  0  0
   46.0740   33.7040   38.3390 N   0  0  0  0  0  0  0  0  0  0  0  0
   45.5960   33.4270   37.4520 H   0  0  0  0  0  0  0  0  0  0  0  0
   45.6450   32.7780   39.3570 C   0  0  0  0  0  2  0  0  0  0  0  0
   46.4080   32.9210   40.6410 C   0  0  0  0  0  2  0  0  0  0  0  0
  1  6  1  0  0  0  0
  2  1  2  0  0  0  0
  2  3  1  0  0  0  0
  3  8  1  0  0  0  0
  3  4  2  0  0  0  0
  5  4  1  0  0  0  0
  5 10  1  0  0  0  0
  6  5  2  0  0  0  0
  7  2  1  0  0  0  0
  9 10  2  0  0  0  0
  9 17  1  0  0  0  0
 10 11  1  0  0  0  0
 11 19  1  0  0  0  0
 11 12  2  0  0  0  0
 12 13  1  0  0  0  0
 13 14  1  0  0  0  0
 13 20  1  0  0  0  0
 14 21  1  0  0  0  0
 15 22  1  0  0  0  0
 15 14  2  0  0  0  0
 16 12  1  0  0  0  0
 16 15  1  0  0  0  0
 17 16  2  0  0  0  0
 18  9  1  0  0  0  0
 23 17  1  0  0  0  0
 24  1  1  0  0  0  0
 25 24  2  0  0  0  0
 26 34  1  0  0  0  0
 26 24  1  0  0  0  0
 27 26  1  0  0  0  0
 28 27  1  0  0  0  0
 29 31  1  0  0  0  0
 29 27  1  0  0  0  0
 30 29  1  0  0  0  0
 31 33  1  0  0  0  0
 32 31  1  0  0  0  0
 33 34  1  0  0  0  0
M  END
>  <minimizedAffinity>
-6.39973974

>  <minimizedRMSD>
0.243466601

$$$$
