
 OpenBabel03252504003D

 34 37  0  0  0  0  0  0  0  0999 V2000
   46.8120   34.8600   42.5260 C   0  0  0  0  0  0  0  0  0  0  0  0
   45.9350   35.9490   42.4890 C   0  0  0  0  0  0  0  0  0  0  0  0
   44.9800   36.0360   43.5010 C   0  0  0  0  0  0  0  0  0  0  0  0
   44.9510   35.0680   44.4620 N   0  0  0  0  0  0  0  0  0  0  0  0
   45.8230   34.0360   44.4520 C   0  0  0  0  0  0  0  0  0  0  0  0
   46.7520   33.9300   43.4870 N   0  0  0  0  0  0  0  0  0  0  0  0
   45.9190   36.7320   41.7550 H   0  0  0  0  0  0  0  0  0  0  0  0
   44.2620   36.8570   43.5370 H   0  0  0  0  0  0  0  0  0  0  0  0
   46.0350   31.6920   45.1160 C   0  0  0  0  0  0  0  0  0  0  0  0
   45.7920   32.9960   45.4850 C   0  0  0  0  0  0  0  0  0  0  0  0
   45.5310   33.2740   46.8020 C   0  0  0  0  0  0  0  0  0  0  0  0
   45.5070   32.2800   47.7530 C   0  0  0  0  0  0  0  0  0  0  0  0
   45.2880   32.2510   49.0710 N   0  0  0  0  0  0  0  0  0  0  0  0
   45.3870   30.9800   49.5320 C   0  0  0  0  0  0  0  0  0  0  0  0
   45.6820   30.1360   48.4720 C   0  0  0  0  0  0  0  0  0  0  0  0
   45.7550   30.9510   47.3700 C   0  0  0  0  0  0  0  0  0  0  0  0
   46.0200   30.6710   46.0430 C   0  0  0  0  0  0  0  0  0  0  0  0
   46.2470   31.4230   44.0860 H   0  0  0  0  0  0  0  0  0  0  0  0
   45.3400   34.3130   47.0780 H   0  0  0  0  0  0  0  0  0  0  0  0
   45.0740   33.1290   49.6180 H   0  0  0  0  0  0  0  0  0  0  0  0
   45.2440   30.7180   50.5810 H   0  0  0  0  0  0  0  0  0  0  0  0
   45.8230   29.0540   48.5230 H   0  0  0  0  0  0  0  0  0  0  0  0
   46.2110   29.6290   45.7650 H   0  0  0  0  0  0  0  0  0  0  0  0
   47.7670   34.8360   41.4550 C   0  0  0  0  0  0  0  0  0  0  0  0
   48.7580   35.6370   41.3250 O   0  0  0  0  0  0  0  0  0  0  0  0
   47.5350   33.8060   40.4830 N   0  0  0  0  0  0  0  0  0  0  0  0
   48.4670   33.3340   39.4740 C   0  0  0  0  0  3  0  0  0  0  0  0
   49.4440   33.8540   39.5430 H   0  0  0  0  0  0  0  0  0  0  0  0
   47.8820   33.5200   38.1210 C   0  0  0  0  0  3  0  0  0  0  0  0
   48.1060   32.6070   37.5010 H   0  0  0  0  0  0  0  0  0  0  0  0
   46.4730   33.8160   38.1160 N   0  0  0  0  0  0  0  0  0  0  0  0
   46.1180   33.5680   37.1650 H   0  0  0  0  0  0  0  0  0  0  0  0
   45.7160   33.0400   39.0660 C   0  0  0  0  0  2  0  0  0  0  0  0
   46.2510   33.1350   40.4650 C   0  0  0  0  0  2  0  0  0  0  0  0
  1  6  1  0  0  0  0
  2  1  2  0  0  0  0
  2  3  1  0  0  0  0
  3  8  1  0  0  0  0
  3  4  2  0  0  0  0
  5  4  1  0  0  0  0
  5 10  1  0  0  0  0
  6  5  2  0  0  0  0
  7  2  1  0  0  0  0
  9 10  2  0  0  0  0
  9 17  1  0  0  0  0
 10 11  1  0  0  0  0
 11 19  1  0  0  0  0
 11 12  2  0  0  0  0
 12 13  1  0  0  0  0
 13 14  1  0  0  0  0
 13 20  1  0  0  0  0
 14 21  1  0  0  0  0
 15 22  1  0  0  0  0
 15 14  2  0  0  0  0
 16 12  1  0  0  0  0
 16 15  1  0  0  0  0
 17 16  2  0  0  0  0
 18  9  1  0  0  0  0
 23 17  1  0  0  0  0
 24  1  1  0  0  0  0
 25 24  2  0  0  0  0
 26 24  1  0  0  0  0
 27 28  1  0  0  0  0
 27 26  1  0  0  0  0
 29 27  1  0  0  0  0
 30 29  1  0  0  0  0
 31 29  1  0  0  0  0
 31 33  1  0  0  0  0
 32 31  1  0  0  0  0
 33 34  1  0  0  0  0
 34 26  1  0  0  0  0
M  END
>  <minimizedAffinity>
-6.41667032

>  <minimizedRMSD>
0.243908063

$$$$
