
 OpenBabel03252504003D

 34 37  0  0  0  0  0  0  0  0999 V2000
   46.9200   34.8830   42.5890 C   0  0  0  0  0  0  0  0  0  0  0  0
   46.0030   35.9360   42.4990 C   0  0  0  0  0  0  0  0  0  0  0  0
   44.9920   35.9860   43.4590 C   0  0  0  0  0  0  0  0  0  0  0  0
   44.9500   35.0210   44.4210 N   0  0  0  0  0  0  0  0  0  0  0  0
   45.8620   34.0250   44.4620 C   0  0  0  0  0  0  0  0  0  0  0  0
   46.8460   33.9540   43.5500 N   0  0  0  0  0  0  0  0  0  0  0  0
   45.9950   36.7160   41.7630 H   0  0  0  0  0  0  0  0  0  0  0  0
   44.2410   36.7780   43.4530 H   0  0  0  0  0  0  0  0  0  0  0  0
   46.0590   31.6810   45.1330 C   0  0  0  0  0  0  0  0  0  0  0  0
   45.8180   32.9870   45.4970 C   0  0  0  0  0  0  0  0  0  0  0  0
   45.5450   33.2680   46.8110 C   0  0  0  0  0  0  0  0  0  0  0  0
   45.5090   32.2760   47.7640 C   0  0  0  0  0  0  0  0  0  0  0  0
   45.2780   32.2490   49.0790 N   0  0  0  0  0  0  0  0  0  0  0  0
   45.3670   30.9790   49.5430 C   0  0  0  0  0  0  0  0  0  0  0  0
   45.6690   30.1320   48.4880 C   0  0  0  0  0  0  0  0  0  0  0  0
   45.7560   30.9450   47.3860 C   0  0  0  0  0  0  0  0  0  0  0  0
   46.0310   30.6610   46.0620 C   0  0  0  0  0  0  0  0  0  0  0  0
   46.2790   31.4090   44.1050 H   0  0  0  0  0  0  0  0  0  0  0  0
   45.3570   34.3090   47.0840 H   0  0  0  0  0  0  0  0  0  0  0  0
   45.0620   33.1300   49.6230 H   0  0  0  0  0  0  0  0  0  0  0  0
   45.2140   30.7200   50.5920 H   0  0  0  0  0  0  0  0  0  0  0  0
   45.8050   29.0500   48.5420 H   0  0  0  0  0  0  0  0  0  0  0  0
   46.2200   29.6180   45.7870 H   0  0  0  0  0  0  0  0  0  0  0  0
   47.9310   34.8950   41.5710 C   0  0  0  0  0  0  0  0  0  0  0  0
   48.8280   35.7990   41.4240 O   0  0  0  0  0  0  0  0  0  0  0  0
   47.8790   33.7760   40.6750 N   0  0  0  0  0  0  0  0  0  0  0  0
   48.0060   32.3720   41.0260 C   0  0  0  0  0  3  0  0  0  0  0  0
   48.1280   32.2330   42.1190 H   0  0  0  0  0  0  0  0  0  0  0  0
   49.1560   31.7740   40.3020 C   0  0  0  0  0  3  0  0  0  0  0  0
   48.8600   30.7520   39.9310 H   0  0  0  0  0  0  0  0  0  0  0  0
   49.6730   32.5840   39.2280 N   0  0  0  0  0  0  0  0  0  0  0  0
   50.1960   31.9400   38.5930 H   0  0  0  0  0  0  0  0  0  0  0  0
   48.6460   33.2180   38.4380 C   0  0  0  0  0  2  0  0  0  0  0  0
   47.6800   34.0180   39.2600 C   0  0  0  0  0  2  0  0  0  0  0  0
  1  6  1  0  0  0  0
  2  1  2  0  0  0  0
  2  3  1  0  0  0  0
  3  4  2  0  0  0  0
  4  5  1  0  0  0  0
  5 10  1  0  0  0  0
  6  5  2  0  0  0  0
  7  2  1  0  0  0  0
  8  3  1  0  0  0  0
  9 10  2  0  0  0  0
  9 17  1  0  0  0  0
 10 11  1  0  0  0  0
 11 19  1  0  0  0  0
 11 12  2  0  0  0  0
 12 13  1  0  0  0  0
 13 14  1  0  0  0  0
 13 20  1  0  0  0  0
 14 21  1  0  0  0  0
 15 22  1  0  0  0  0
 15 14  2  0  0  0  0
 16 12  1  0  0  0  0
 16 15  1  0  0  0  0
 17 16  2  0  0  0  0
 18  9  1  0  0  0  0
 23 17  1  0  0  0  0
 24  1  1  0  0  0  0
 25 24  2  0  0  0  0
 26 27  1  0  0  0  0
 26 24  1  0  0  0  0
 27 28  1  0  0  0  0
 29 27  1  0  0  0  0
 30 29  1  0  0  0  0
 31 29  1  0  0  0  0
 32 31  1  0  0  0  0
 33 31  1  0  0  0  0
 33 34  1  0  0  0  0
 34 26  1  0  0  0  0
M  END
>  <minimizedAffinity>
-6.47496223

>  <minimizedRMSD>
0.0800104588

$$$$
