
 OpenBabel03252504003D

 34 37  0  0  0  0  0  0  0  0999 V2000
   46.8820   34.9570   42.6620 C   0  0  0  0  0  0  0  0  0  0  0  0
   45.9620   36.0100   42.5930 C   0  0  0  0  0  0  0  0  0  0  0  0
   44.9540   36.0410   43.5560 C   0  0  0  0  0  0  0  0  0  0  0  0
   44.9160   35.0580   44.5010 N   0  0  0  0  0  0  0  0  0  0  0  0
   45.8300   34.0640   44.5220 C   0  0  0  0  0  0  0  0  0  0  0  0
   46.8120   34.0110   43.6060 N   0  0  0  0  0  0  0  0  0  0  0  0
   45.9510   36.8030   41.8710 H   0  0  0  0  0  0  0  0  0  0  0  0
   44.2010   36.8310   43.5650 H   0  0  0  0  0  0  0  0  0  0  0  0
   46.0360   31.7090   45.1510 C   0  0  0  0  0  0  0  0  0  0  0  0
   45.7900   33.0070   45.5380 C   0  0  0  0  0  0  0  0  0  0  0  0
   45.5170   33.2640   46.8570 C   0  0  0  0  0  0  0  0  0  0  0  0
   45.4850   32.2550   47.7920 C   0  0  0  0  0  0  0  0  0  0  0  0
   45.2550   32.2050   49.1070 N   0  0  0  0  0  0  0  0  0  0  0  0
   45.3490   30.9260   49.5490 C   0  0  0  0  0  0  0  0  0  0  0  0
   45.6530   30.1000   48.4780 C   0  0  0  0  0  0  0  0  0  0  0  0
   45.7360   30.9330   47.3900 C   0  0  0  0  0  0  0  0  0  0  0  0
   46.0120   30.6730   46.0610 C   0  0  0  0  0  0  0  0  0  0  0  0
   46.2560   31.4560   44.1190 H   0  0  0  0  0  0  0  0  0  0  0  0
   45.3250   34.2990   47.1480 H   0  0  0  0  0  0  0  0  0  0  0  0
   45.0360   33.0750   49.6670 H   0  0  0  0  0  0  0  0  0  0  0  0
   45.1970   30.6480   50.5920 H   0  0  0  0  0  0  0  0  0  0  0  0
   45.7930   29.0170   48.5130 H   0  0  0  0  0  0  0  0  0  0  0  0
   46.2050   29.6360   45.7680 H   0  0  0  0  0  0  0  0  0  0  0  0
   47.8910   34.9900   41.6420 C   0  0  0  0  0  0  0  0  0  0  0  0
   48.8150   35.8720   41.5380 O   0  0  0  0  0  0  0  0  0  0  0  0
   47.8020   33.9190   40.6910 N   0  0  0  0  0  0  0  0  0  0  0  0
   46.6820   33.6200   39.8160 C   0  0  0  0  0  3  0  0  0  0  0  0
   45.8620   34.3560   39.9360 H   0  0  0  0  0  0  0  0  0  0  0  0
   46.1840   32.2480   40.0850 C   0  0  0  0  0  3  0  0  0  0  0  0
   45.9530   31.7460   39.1030 H   0  0  0  0  0  0  0  0  0  0  0  0
   47.0650   31.4390   40.8860 N   0  0  0  0  0  0  0  0  0  0  0  0
   46.8060   30.4430   40.7050 H   0  0  0  0  0  0  0  0  0  0  0  0
   48.4580   31.5840   40.5390 C   0  0  0  0  0  2  0  0  0  0  0  0
   48.9220   33.0100   40.5520 C   0  0  0  0  0  2  0  0  0  0  0  0
  1  6  1  0  0  0  0
  2  1  2  0  0  0  0
  2  3  1  0  0  0  0
  3  8  1  0  0  0  0
  3  4  2  0  0  0  0
  4  5  1  0  0  0  0
  5 10  1  0  0  0  0
  6  5  2  0  0  0  0
  7  2  1  0  0  0  0
  9 10  2  0  0  0  0
  9 17  1  0  0  0  0
 10 11  1  0  0  0  0
 11 19  1  0  0  0  0
 11 12  2  0  0  0  0
 12 13  1  0  0  0  0
 13 14  1  0  0  0  0
 13 20  1  0  0  0  0
 14 21  1  0  0  0  0
 15 22  1  0  0  0  0
 15 14  2  0  0  0  0
 16 12  1  0  0  0  0
 16 15  1  0  0  0  0
 17 16  2  0  0  0  0
 18  9  1  0  0  0  0
 23 17  1  0  0  0  0
 24  1  1  0  0  0  0
 25 24  2  0  0  0  0
 26 24  1  0  0  0  0
 27 28  1  0  0  0  0
 27 29  1  0  0  0  0
 27 26  1  0  0  0  0
 29 31  1  0  0  0  0
 30 29  1  0  0  0  0
 32 31  1  0  0  0  0
 33 34  1  0  0  0  0
 33 31  1  0  0  0  0
 34 26  1  0  0  0  0
M  END
>  <minimizedAffinity>
-6.13391352

>  <minimizedRMSD>
0.0521012172

$$$$
