
 OpenBabel03242512053D

 20 21  0  0  0  0  0  0  0  0999 V2000
   47.2340   34.9260   41.9300 C   0  0  0  0  0  0  0  0  0  0  0  0
   48.2750   35.6100   41.9440 O   0  0  0  0  0  0  0  0  0  0  0  0
   46.9540   34.0880   40.8170 N   0  0  0  0  0  0  0  0  0  0  0  0
   48.0130   33.4850   40.0250 C   0  0  0  0  0  0  0  0  0  0  0  0
   49.0100   33.7620   40.3780 H   0  0  0  0  0  0  0  0  0  0  0  0
   47.7600   33.9800   38.6020 C   0  0  0  0  0  0  0  0  0  0  0  0
   47.7010   35.1030   38.6490 H   0  0  0  0  0  0  0  0  0  0  0  0
   46.5020   33.4930   38.1310 N   0  0  0  0  0  0  0  0  0  0  0  0
   46.7090   32.6760   37.4870 H   0  0  0  0  0  0  0  0  0  0  0  0
   45.5870   33.0350   39.1220 C   0  0  0  0  0  0  0  0  0  0  0  0
   45.5940   33.7890   40.4150 C   0  0  0  0  0  0  0  0  0  0  0  0
   45.4450   36.0840   43.1840 C   0  0  0  0  0  0  0  0  0  0  0  0
   46.3550   35.0160   43.0460 C   0  0  0  0  0  0  0  0  0  0  0  0
   46.3720   34.0330   44.0490 C   0  0  0  0  0  0  0  0  0  0  0  0
   45.5140   34.1590   45.0960 N   0  0  0  0  0  0  0  0  0  0  0  0
   44.6540   35.1940   45.2000 C   0  0  0  0  0  0  0  0  0  0  0  0
   44.6390   36.1260   44.2490 N   0  0  0  0  0  0  0  0  0  0  0  0
   45.4480   36.8310   42.4020 H   0  0  0  0  0  0  0  0  0  0  0  0
   47.0280   33.1930   44.0230 H   0  0  0  0  0  0  0  0  0  0  0  0
   44.0120   35.2080   46.0710 H   0  0  0  0  0  0  0  0  0  0  0  0
  1  2  2  0  0  0  0
  1 13  1  0  0  0  0
  3  1  1  0  0  0  0
  4  5  1  0  0  0  0
  4  3  1  0  0  0  0
  6  7  1  0  0  0  0
  6  4  1  0  0  0  0
  8  6  1  0  0  0  0
  8 10  1  0  0  0  0
  9  8  1  0  0  0  0
 10 11  1  0  0  0  0
 11  3  1  0  0  0  0
 12 17  1  0  0  0  0
 13 12  2  0  0  0  0
 13 14  1  0  0  0  0
 14 15  2  0  0  0  0
 15 16  1  0  0  0  0
 16 20  1  0  0  0  0
 17 16  2  0  0  0  0
 18 12  1  0  0  0  0
 19 14  1  0  0  0  0
M  END
>  <minimizedAffinity>
-4.43940163

>  <minimizedRMSD>
0.602644801

$$$$
