
 OpenBabel03242520013D

 30 32  0  0  0  0  0  0  0  0999 V2000
   38.8970   27.5620   39.3170 Br  0  0  0  0  0  0  0  0  0  0  0  0
   38.2590   27.7550   41.0950 C   0  0  0  0  0  0  0  0  0  0  0  0
   37.6750   26.7130   41.7890 C   0  0  0  0  0  0  0  0  0  0  0  0
   37.2110   26.9700   43.0720 C   0  0  0  0  0  0  0  0  0  0  0  0
   37.3060   28.2080   43.6800 C   0  0  0  0  0  0  0  0  0  0  0  0
   37.8980   29.2590   42.9740 C   0  0  0  0  0  0  0  0  0  0  0  0
   38.3510   28.9760   41.7040 C   0  0  0  0  0  0  0  0  0  0  0  0
   36.7800   26.0850   43.5120 H   0  0  0  0  0  0  0  0  0  0  0  0
   36.9040   28.2790   44.6820 H   0  0  0  0  0  0  0  0  0  0  0  0
   37.9550   30.2030   43.4730 H   0  0  0  0  0  0  0  0  0  0  0  0
   39.0270   30.0710   41.0610 C   0  0  0  0  0  0  0  0  0  0  0  0
   40.3200   30.1890   41.1460 O   0  0  0  0  0  0  0  0  0  0  0  0
   38.7870   31.2330   40.2500 N   0  0  0  0  0  0  0  0  0  0  0  0
   38.9250   32.2930   41.2160 C   0  0  0  0  0  3  0  0  0  0  0  0
   38.1740   32.2100   42.0590 H   0  0  0  0  0  0  0  0  0  0  0  0
   38.5700   33.6020   40.5470 C   0  0  0  0  0  3  0  0  0  0  0  0
   38.4690   34.3440   41.3700 H   0  0  0  0  0  0  0  0  0  0  0  0
   37.2450   33.4630   39.9670 N   0  0  0  0  0  0  0  0  0  0  0  0
   36.9330   34.4090   39.6570 H   0  0  0  0  0  0  0  0  0  0  0  0
   37.2550   32.4970   38.8820 C   0  0  0  0  0  2  0  0  0  0  0  0
   38.5050   31.6740   38.8760 C   0  0  0  0  0  2  0  0  0  0  0  0
   38.4500   23.1990   40.6520 C   0  0  0  0  0  0  0  0  0  0  0  0
   38.5550   24.4370   41.3100 C   0  0  0  0  0  0  0  0  0  0  0  0
   37.6130   25.4170   41.1310 C   0  0  0  0  0  0  0  0  0  0  0  0
   36.5980   25.0790   40.2780 N   0  0  0  0  0  0  0  0  0  0  0  0
   36.5000   23.9060   39.6550 C   0  0  0  0  0  0  0  0  0  0  0  0
   37.4150   22.9740   39.8370 N   0  0  0  0  0  0  0  0  0  0  0  0
   39.2590   22.5210   40.8830 H   0  0  0  0  0  0  0  0  0  0  0  0
   39.3700   24.6760   41.9800 H   0  0  0  0  0  0  0  0  0  0  0  0
   35.6580   23.7470   39.0040 H   0  0  0  0  0  0  0  0  0  0  0  0
  1  2  1  0  0  0  0
  2  7  2  0  0  0  0
  2  3  1  0  0  0  0
  3  4  2  0  0  0  0
  4  8  1  0  0  0  0
  4  5  1  0  0  0  0
  5  9  1  0  0  0  0
  6 10  1  0  0  0  0
  6  5  2  0  0  0  0
  7  6  1  0  0  0  0
 11 12  2  0  0  0  0
 11  7  1  0  0  0  0
 13 11  1  0  0  0  0
 13 14  1  0  0  0  0
 14 15  1  0  0  0  0
 16 14  1  0  0  0  0
 16 17  1  0  0  0  0
 18 16  1  0  0  0  0
 19 18  1  0  0  0  0
 20 18  1  0  0  0  0
 21 20  1  0  0  0  0
 21 13  1  0  0  0  0
 22 28  1  0  0  0  0
 22 23  1  0  0  0  0
 23 29  1  0  0  0  0
 24 23  2  0  0  0  0
 24  3  1  0  0  0  0
 25 24  1  0  0  0  0
 26 27  1  0  0  0  0
 26 25  2  0  0  0  0
 27 22  2  0  0  0  0
 30 26  1  0  0  0  0
M  END
>  <minimizedAffinity>
-5.73007774

$$$$

 OpenBabel03242520013D

 30 32  0  0  0  0  0  0  0  0999 V2000
   39.0050   29.9300   42.4060 Br  0  0  0  0  0  0  0  0  0  0  0  0
   37.6190   29.7340   41.1220 C   0  0  0  0  0  0  0  0  0  0  0  0
   37.4130   30.6510   40.1100 C   0  0  0  0  0  0  0  0  0  0  0  0
   36.3500   30.4310   39.2450 C   0  0  0  0  0  0  0  0  0  0  0  0
   35.4970   29.3480   39.3500 C   0  0  0  0  0  0  0  0  0  0  0  0
   35.7100   28.4230   40.3750 C   0  0  0  0  0  0  0  0  0  0  0  0
   36.7730   28.6650   41.2190 C   0  0  0  0  0  0  0  0  0  0  0  0
   36.2910   31.2070   38.4990 H   0  0  0  0  0  0  0  0  0  0  0  0
   34.7050   29.2920   38.6150 H   0  0  0  0  0  0  0  0  0  0  0  0
   35.0330   27.5970   40.4290 H   0  0  0  0  0  0  0  0  0  0  0  0
   36.9950   27.6360   42.1990 C   0  0  0  0  0  0  0  0  0  0  0  0
   36.7360   27.8550   43.4550 O   0  0  0  0  0  0  0  0  0  0  0  0
   37.4480   26.2790   42.3370 N   0  0  0  0  0  0  0  0  0  0  0  0
   38.7680   26.4690   42.8820 C   0  0  0  0  0  3  0  0  0  0  0  0
   39.4390   27.0640   42.1930 H   0  0  0  0  0  0  0  0  0  0  0  0
   39.4500   25.1220   42.9710 C   0  0  0  0  0  3  0  0  0  0  0  0
   40.5220   25.3390   43.1750 H   0  0  0  0  0  0  0  0  0  0  0  0
   39.4080   24.5120   41.6530 N   0  0  0  0  0  0  0  0  0  0  0  0
   40.0210   23.6680   41.6730 H   0  0  0  0  0  0  0  0  0  0  0  0
   38.0420   24.1980   41.2710 C   0  0  0  0  0  2  0  0  0  0  0  0
   37.0430   24.8760   42.1560 C   0  0  0  0  0  2  0  0  0  0  0  0
   40.3570   32.8290   39.1990 C   0  0  0  0  0  0  0  0  0  0  0  0
   39.4910   31.7240   39.2630 C   0  0  0  0  0  0  0  0  0  0  0  0
   38.3420   31.7660   40.0100 C   0  0  0  0  0  0  0  0  0  0  0  0
   38.1340   32.9500   40.6630 N   0  0  0  0  0  0  0  0  0  0  0  0
   38.9560   33.9970   40.6020 C   0  0  0  0  0  0  0  0  0  0  0  0
   40.0570   33.9400   39.8780 N   0  0  0  0  0  0  0  0  0  0  0  0
   41.2230   32.6590   38.5750 H   0  0  0  0  0  0  0  0  0  0  0  0
   39.6820   30.7990   38.7360 H   0  0  0  0  0  0  0  0  0  0  0  0
   38.6940   34.8800   41.1560 H   0  0  0  0  0  0  0  0  0  0  0  0
  2  7  1  0  0  0  0
  2  1  1  0  0  0  0
  3  2  2  0  0  0  0
  4  5  2  0  0  0  0
  4  3  1  0  0  0  0
  5  6  1  0  0  0  0
  6 10  1  0  0  0  0
  6  7  2  0  0  0  0
  7 11  1  0  0  0  0
  8  4  1  0  0  0  0
  9  5  1  0  0  0  0
 11 13  1  0  0  0  0
 11 12  2  0  0  0  0
 13 14  1  0  0  0  0
 14 16  1  0  0  0  0
 15 14  1  0  0  0  0
 16 17  1  0  0  0  0
 18 19  1  0  0  0  0
 18 16  1  0  0  0  0
 20 18  1  0  0  0  0
 20 21  1  0  0  0  0
 21 13  1  0  0  0  0
 22 23  2  0  0  0  0
 22 27  1  0  0  0  0
 23 24  1  0  0  0  0
 24  3  1  0  0  0  0
 24 25  2  0  0  0  0
 26 25  1  0  0  0  0
 26 30  1  0  0  0  0
 27 26  2  0  0  0  0
 28 22  1  0  0  0  0
 29 23  1  0  0  0  0
M  END
>  <minimizedAffinity>
-5.60797024

$$$$

 OpenBabel03242520013D

 30 32  0  0  0  0  0  0  0  0999 V2000
   36.6760   27.4610   39.2420 Br  0  0  0  0  0  0  0  0  0  0  0  0
   37.3190   27.7440   41.0070 C   0  0  0  0  0  0  0  0  0  0  0  0
   37.8800   26.7320   41.7610 C   0  0  0  0  0  0  0  0  0  0  0  0
   38.2870   27.0370   43.0520 C   0  0  0  0  0  0  0  0  0  0  0  0
   38.1560   28.2950   43.6120 C   0  0  0  0  0  0  0  0  0  0  0  0
   37.5890   29.3150   42.8450 C   0  0  0  0  0  0  0  0  0  0  0  0
   37.1950   28.9850   41.5660 C   0  0  0  0  0  0  0  0  0  0  0  0
   38.7090   26.1740   43.5400 H   0  0  0  0  0  0  0  0  0  0  0  0
   38.5100   28.4030   44.6290 H   0  0  0  0  0  0  0  0  0  0  0  0
   37.5020   30.2750   43.3080 H   0  0  0  0  0  0  0  0  0  0  0  0
   36.6990   30.0940   40.7970 C   0  0  0  0  0  0  0  0  0  0  0  0
   35.4230   30.2300   40.5820 O   0  0  0  0  0  0  0  0  0  0  0  0
   37.1320   31.2660   40.0850 N   0  0  0  0  0  0  0  0  0  0  0  0
   37.0140   30.8330   38.7160 C   0  0  0  0  0  3  0  0  0  0  0  0
   37.6710   29.9400   38.4870 H   0  0  0  0  0  0  0  0  0  0  0  0
   37.5630   31.9200   37.8190 C   0  0  0  0  0  3  0  0  0  0  0  0
   37.6620   31.4580   36.8110 H   0  0  0  0  0  0  0  0  0  0  0  0
   38.9150   32.2220   38.2580 N   0  0  0  0  0  0  0  0  0  0  0  0
   39.3510   32.8430   37.5420 H   0  0  0  0  0  0  0  0  0  0  0  0
   38.9080   32.8180   39.5820 C   0  0  0  0  0  2  0  0  0  0  0  0
   37.5860   32.6540   40.2640 C   0  0  0  0  0  2  0  0  0  0  0  0
   37.2900   23.1760   40.6440 C   0  0  0  0  0  0  0  0  0  0  0  0
   37.1040   24.4210   41.2690 C   0  0  0  0  0  0  0  0  0  0  0  0
   38.0260   25.4270   41.1350 C   0  0  0  0  0  0  0  0  0  0  0  0
   39.1070   25.1050   40.3600 N   0  0  0  0  0  0  0  0  0  0  0  0
   39.2820   23.9240   39.7690 C   0  0  0  0  0  0  0  0  0  0  0  0
   38.3850   22.9680   39.9080 N   0  0  0  0  0  0  0  0  0  0  0  0
   36.4870   22.4770   40.8330 H   0  0  0  0  0  0  0  0  0  0  0  0
   36.2380   24.6470   41.8770 H   0  0  0  0  0  0  0  0  0  0  0  0
   40.1710   23.7790   39.1810 H   0  0  0  0  0  0  0  0  0  0  0  0
  1  2  1  0  0  0  0
  2  7  2  0  0  0  0
  2  3  1  0  0  0  0
  3  4  2  0  0  0  0
  4  8  1  0  0  0  0
  4  5  1  0  0  0  0
  5  9  1  0  0  0  0
  6 10  1  0  0  0  0
  6  5  2  0  0  0  0
  7  6  1  0  0  0  0
 11  7  1  0  0  0  0
 12 11  2  0  0  0  0
 13 21  1  0  0  0  0
 13 11  1  0  0  0  0
 14 13  1  0  0  0  0
 15 14  1  0  0  0  0
 16 18  1  0  0  0  0
 16 14  1  0  0  0  0
 17 16  1  0  0  0  0
 18 20  1  0  0  0  0
 19 18  1  0  0  0  0
 20 21  1  0  0  0  0
 22 28  1  0  0  0  0
 22 23  1  0  0  0  0
 23 29  1  0  0  0  0
 24 23  2  0  0  0  0
 24  3  1  0  0  0  0
 25 24  1  0  0  0  0
 26 27  1  0  0  0  0
 26 25  2  0  0  0  0
 27 22  2  0  0  0  0
 30 26  1  0  0  0  0
M  END
>  <minimizedAffinity>
-5.54507256

$$$$

 OpenBabel03242520013D

 30 32  0  0  0  0  0  0  0  0999 V2000
   40.6130   29.6550   41.3010 Br  0  0  0  0  0  0  0  0  0  0  0  0
   39.1950   30.8330   40.8410 C   0  0  0  0  0  0  0  0  0  0  0  0
   37.8680   30.5000   41.0260 C   0  0  0  0  0  0  0  0  0  0  0  0
   36.9090   31.4200   40.6240 C   0  0  0  0  0  0  0  0  0  0  0  0
   37.2190   32.6400   40.0530 C   0  0  0  0  0  0  0  0  0  0  0  0
   38.5640   32.9720   39.8690 C   0  0  0  0  0  0  0  0  0  0  0  0
   39.4950   32.0420   40.2780 C   0  0  0  0  0  0  0  0  0  0  0  0
   35.9140   31.0530   40.8190 H   0  0  0  0  0  0  0  0  0  0  0  0
   36.3800   33.2660   39.7810 H   0  0  0  0  0  0  0  0  0  0  0  0
   38.7700   33.9230   39.4250 H   0  0  0  0  0  0  0  0  0  0  0  0
   40.8600   32.4740   40.1440 C   0  0  0  0  0  0  0  0  0  0  0  0
   41.4840   33.0150   41.1500 O   0  0  0  0  0  0  0  0  0  0  0  0
   41.9410   32.5420   39.1990 N   0  0  0  0  0  0  0  0  0  0  0  0
   41.9270   33.9370   38.8420 C   0  0  0  0  0  3  0  0  0  0  0  0
   40.9460   34.2540   38.3750 H   0  0  0  0  0  0  0  0  0  0  0  0
   42.9370   34.1610   37.7380 C   0  0  0  0  0  3  0  0  0  0  0  0
   42.7320   35.1810   37.3440 H   0  0  0  0  0  0  0  0  0  0  0  0
   42.6270   33.2420   36.6550 N   0  0  0  0  0  0  0  0  0  0  0  0
   43.2110   33.5110   35.8340 H   0  0  0  0  0  0  0  0  0  0  0  0
   42.8440   31.8660   37.0670 C   0  0  0  0  0  2  0  0  0  0  0  0
   42.9920   31.7420   38.5510 C   0  0  0  0  0  2  0  0  0  0  0  0
   37.0470   26.8600   41.5900 C   0  0  0  0  0  0  0  0  0  0  0  0
   37.3260   28.0750   40.9390 C   0  0  0  0  0  0  0  0  0  0  0  0
   37.5740   29.2200   41.6510 C   0  0  0  0  0  0  0  0  0  0  0  0
   37.5230   29.0650   43.0090 N   0  0  0  0  0  0  0  0  0  0  0  0
   37.2580   27.9140   43.6250 C   0  0  0  0  0  0  0  0  0  0  0  0
   37.0220   26.8210   42.9260 N   0  0  0  0  0  0  0  0  0  0  0  0
   36.8710   26.0390   40.9100 H   0  0  0  0  0  0  0  0  0  0  0  0
   37.3590   28.1670   39.8620 H   0  0  0  0  0  0  0  0  0  0  0  0
   37.2430   27.9070   44.7010 H   0  0  0  0  0  0  0  0  0  0  0  0
  2  3  1  0  0  0  0
  2  1  1  0  0  0  0
  3 24  1  0  0  0  0
  4  8  1  0  0  0  0
  4  3  2  0  0  0  0
  5  4  1  0  0  0  0
  6  5  2  0  0  0  0
  6  7  1  0  0  0  0
  7  2  2  0  0  0  0
  9  5  1  0  0  0  0
 10  6  1  0  0  0  0
 11  7  1  0  0  0  0
 11 12  2  0  0  0  0
 13 11  1  0  0  0  0
 14 13  1  0  0  0  0
 15 14  1  0  0  0  0
 16 14  1  0  0  0  0
 17 16  1  0  0  0  0
 18 20  1  0  0  0  0
 18 16  1  0  0  0  0
 19 18  1  0  0  0  0
 20 21  1  0  0  0  0
 21 13  1  0  0  0  0
 22 27  1  0  0  0  0
 23 22  2  0  0  0  0
 23 24  1  0  0  0  0
 24 25  2  0  0  0  0
 25 26  1  0  0  0  0
 26 30  1  0  0  0  0
 27 26  2  0  0  0  0
 28 22  1  0  0  0  0
 29 23  1  0  0  0  0
M  END
>  <minimizedAffinity>
-5.49248028

$$$$

 OpenBabel03242520013D

 30 32  0  0  0  0  0  0  0  0999 V2000
   39.8200   27.9680   40.5060 Br  0  0  0  0  0  0  0  0  0  0  0  0
   38.2260   28.9880   40.6700 C   0  0  0  0  0  0  0  0  0  0  0  0
   36.9870   28.4030   40.8360 C   0  0  0  0  0  0  0  0  0  0  0  0
   35.8810   29.2390   40.9110 C   0  0  0  0  0  0  0  0  0  0  0  0
   35.9640   30.6170   40.8270 C   0  0  0  0  0  0  0  0  0  0  0  0
   37.2200   31.2040   40.6600 C   0  0  0  0  0  0  0  0  0  0  0  0
   38.3010   30.3510   40.5900 C   0  0  0  0  0  0  0  0  0  0  0  0
   34.9750   28.6710   41.0420 H   0  0  0  0  0  0  0  0  0  0  0  0
   35.0290   31.1560   40.8970 H   0  0  0  0  0  0  0  0  0  0  0  0
   37.2500   32.2710   40.5980 H   0  0  0  0  0  0  0  0  0  0  0  0
   39.5740   31.0160   40.5040 C   0  0  0  0  0  0  0  0  0  0  0  0
   40.1990   31.3870   41.5840 O   0  0  0  0  0  0  0  0  0  0  0  0
   40.5480   31.4830   39.5570 N   0  0  0  0  0  0  0  0  0  0  0  0
   40.3040   32.9030   39.5670 C   0  0  0  0  0  3  0  0  0  0  0  0
   39.2510   33.1630   39.2450 H   0  0  0  0  0  0  0  0  0  0  0  0
   41.1720   33.5480   38.5100 C   0  0  0  0  0  3  0  0  0  0  0  0
   40.7900   34.5870   38.3980 H   0  0  0  0  0  0  0  0  0  0  0  0
   40.9040   32.8840   37.2450 N   0  0  0  0  0  0  0  0  0  0  0  0
   41.3700   33.4350   36.4920 H   0  0  0  0  0  0  0  0  0  0  0  0
   41.3490   31.5020   37.2820 C   0  0  0  0  0  2  0  0  0  0  0  0
   41.6420   31.0450   38.6770 C   0  0  0  0  0  2  0  0  0  0  0  0
   37.0700   24.8770   42.1790 C   0  0  0  0  0  0  0  0  0  0  0  0
   37.1300   26.2800   42.1240 C   0  0  0  0  0  0  0  0  0  0  0  0
   36.9350   26.9530   40.9460 C   0  0  0  0  0  0  0  0  0  0  0  0
   36.6860   26.1480   39.8680 N   0  0  0  0  0  0  0  0  0  0  0  0
   36.6290   24.8180   39.9210 C   0  0  0  0  0  0  0  0  0  0  0  0
   36.8190   24.1860   41.0630 N   0  0  0  0  0  0  0  0  0  0  0  0
   37.2420   24.4790   43.1690 H   0  0  0  0  0  0  0  0  0  0  0  0
   37.3300   26.8920   42.9940 H   0  0  0  0  0  0  0  0  0  0  0  0
   36.4260   24.2830   39.0100 H   0  0  0  0  0  0  0  0  0  0  0  0
  1  2  1  0  0  0  0
  2  3  1  0  0  0  0
  3  4  2  0  0  0  0
  3 24  1  0  0  0  0
  4  8  1  0  0  0  0
  5  9  1  0  0  0  0
  5  4  1  0  0  0  0
  6  5  2  0  0  0  0
  7  6  1  0  0  0  0
  7  2  2  0  0  0  0
 10  6  1  0  0  0  0
 11  7  1  0  0  0  0
 11 12  2  0  0  0  0
 13 14  1  0  0  0  0
 13 11  1  0  0  0  0
 15 14  1  0  0  0  0
 16 14  1  0  0  0  0
 17 16  1  0  0  0  0
 18 20  1  0  0  0  0
 18 16  1  0  0  0  0
 19 18  1  0  0  0  0
 20 21  1  0  0  0  0
 21 13  1  0  0  0  0
 22 28  1  0  0  0  0
 23 22  1  0  0  0  0
 23 29  1  0  0  0  0
 24 23  2  0  0  0  0
 25 26  2  0  0  0  0
 25 24  1  0  0  0  0
 26 27  1  0  0  0  0
 27 22  2  0  0  0  0
 30 26  1  0  0  0  0
M  END
>  <minimizedAffinity>
-5.43283844

$$$$

 OpenBabel03242520013D

 30 32  0  0  0  0  0  0  0  0999 V2000
   38.4920   28.2630   41.7090 Br  0  0  0  0  0  0  0  0  0  0  0  0
   37.2590   28.2120   40.2650 C   0  0  0  0  0  0  0  0  0  0  0  0
   36.9300   27.0400   39.6140 C   0  0  0  0  0  0  0  0  0  0  0  0
   36.0440   27.1190   38.5480 C   0  0  0  0  0  0  0  0  0  0  0  0
   35.4820   28.3050   38.1140 C   0  0  0  0  0  0  0  0  0  0  0  0
   35.8170   29.4880   38.7770 C   0  0  0  0  0  0  0  0  0  0  0  0
   36.6970   29.3810   39.8320 C   0  0  0  0  0  0  0  0  0  0  0  0
   35.8620   26.1460   38.1220 H   0  0  0  0  0  0  0  0  0  0  0  0
   34.8070   28.2330   37.2720 H   0  0  0  0  0  0  0  0  0  0  0  0
   35.3650   30.3880   38.4170 H   0  0  0  0  0  0  0  0  0  0  0  0
   36.9370   30.6160   40.5290 C   0  0  0  0  0  0  0  0  0  0  0  0
   36.0790   31.0600   41.4000 O   0  0  0  0  0  0  0  0  0  0  0  0
   37.8920   31.6850   40.6490 N   0  0  0  0  0  0  0  0  0  0  0  0
   37.2410   32.7380   39.9120 C   0  0  0  0  0  3  0  0  0  0  0  0
   37.0590   32.4610   38.8300 H   0  0  0  0  0  0  0  0  0  0  0  0
   38.1830   33.9180   39.8270 C   0  0  0  0  0  3  0  0  0  0  0  0
   37.7400   34.6040   39.0710 H   0  0  0  0  0  0  0  0  0  0  0  0
   39.4360   33.4490   39.2580 N   0  0  0  0  0  0  0  0  0  0  0  0
   40.0200   34.2860   39.0420 H   0  0  0  0  0  0  0  0  0  0  0  0
   40.0990   32.5240   40.1610 C   0  0  0  0  0  2  0  0  0  0  0  0
   39.1860   32.0480   41.2460 C   0  0  0  0  0  2  0  0  0  0  0  0
   37.5380   23.8370   41.5140 C   0  0  0  0  0  0  0  0  0  0  0  0
   36.9290   25.0230   41.0680 C   0  0  0  0  0  0  0  0  0  0  0  0
   37.5190   25.8050   40.1090 C   0  0  0  0  0  0  0  0  0  0  0  0
   38.7160   25.3310   39.6470 N   0  0  0  0  0  0  0  0  0  0  0  0
   39.2930   24.2070   40.0710 C   0  0  0  0  0  0  0  0  0  0  0  0
   38.7130   23.4660   40.9950 N   0  0  0  0  0  0  0  0  0  0  0  0
   36.9660   23.3190   42.2710 H   0  0  0  0  0  0  0  0  0  0  0  0
   35.9810   25.3730   41.4520 H   0  0  0  0  0  0  0  0  0  0  0  0
   40.2370   23.9280   39.6390 H   0  0  0  0  0  0  0  0  0  0  0  0
  2  1  1  0  0  0  0
  3 24  1  0  0  0  0
  3  2  2  0  0  0  0
  4  3  1  0  0  0  0
  5  4  2  0  0  0  0
  5  6  1  0  0  0  0
  6  7  2  0  0  0  0
  7  2  1  0  0  0  0
  7 11  1  0  0  0  0
  8  4  1  0  0  0  0
  9  5  1  0  0  0  0
 10  6  1  0  0  0  0
 11 13  1  0  0  0  0
 11 12  2  0  0  0  0
 13 21  1  0  0  0  0
 14 13  1  0  0  0  0
 15 14  1  0  0  0  0
 16 14  1  0  0  0  0
 17 16  1  0  0  0  0
 18 16  1  0  0  0  0
 18 20  1  0  0  0  0
 19 18  1  0  0  0  0
 20 21  1  0  0  0  0
 22 28  1  0  0  0  0
 23 29  1  0  0  0  0
 23 22  1  0  0  0  0
 24 23  2  0  0  0  0
 25 26  2  0  0  0  0
 25 24  1  0  0  0  0
 26 27  1  0  0  0  0
 27 22  2  0  0  0  0
 30 26  1  0  0  0  0
M  END
>  <minimizedAffinity>
-5.21714544

$$$$

 OpenBabel03242520013D

 30 32  0  0  0  0  0  0  0  0999 V2000
   37.6680   28.0260   39.8140 Br  0  0  0  0  0  0  0  0  0  0  0  0
   37.6260   29.9170   39.6330 C   0  0  0  0  0  0  0  0  0  0  0  0
   37.1790   30.5400   38.4840 C   0  0  0  0  0  0  0  0  0  0  0  0
   37.2220   31.9260   38.4420 C   0  0  0  0  0  0  0  0  0  0  0  0
   37.6870   32.7040   39.4870 C   0  0  0  0  0  0  0  0  0  0  0  0
   38.1380   32.0690   40.6460 C   0  0  0  0  0  0  0  0  0  0  0  0
   38.0830   30.6920   40.6620 C   0  0  0  0  0  0  0  0  0  0  0  0
   36.8470   32.2970   37.5020 H   0  0  0  0  0  0  0  0  0  0  0  0
   37.6710   33.7740   39.3280 H   0  0  0  0  0  0  0  0  0  0  0  0
   38.4910   32.6980   41.4350 H   0  0  0  0  0  0  0  0  0  0  0  0
   38.4770   30.0990   41.9120 C   0  0  0  0  0  0  0  0  0  0  0  0
   39.3170   30.7100   42.6960 O   0  0  0  0  0  0  0  0  0  0  0  0
   38.2660   28.9390   42.7340 N   0  0  0  0  0  0  0  0  0  0  0  0
   39.4790   28.1970   42.5040 C   0  0  0  0  0  3  0  0  0  0  0  0
   39.6150   27.9170   41.4170 H   0  0  0  0  0  0  0  0  0  0  0  0
   39.3660   26.8620   43.2070 C   0  0  0  0  0  3  0  0  0  0  0  0
   40.2070   26.2450   42.8200 H   0  0  0  0  0  0  0  0  0  0  0  0
   38.1480   26.2160   42.7450 N   0  0  0  0  0  0  0  0  0  0  0  0
   38.1570   25.2330   43.0950 H   0  0  0  0  0  0  0  0  0  0  0  0
   36.9750   26.9520   43.1820 C   0  0  0  0  0  2  0  0  0  0  0  0
   37.3240   28.3200   43.6790 C   0  0  0  0  0  2  0  0  0  0  0  0
   34.9170   28.5000   36.2560 C   0  0  0  0  0  0  0  0  0  0  0  0
   35.3590   29.3170   37.3110 C   0  0  0  0  0  0  0  0  0  0  0  0
   36.6720   29.6960   37.4130 C   0  0  0  0  0  0  0  0  0  0  0  0
   37.4800   29.2140   36.4190 N   0  0  0  0  0  0  0  0  0  0  0  0
   37.0610   28.4390   35.4200 C   0  0  0  0  0  0  0  0  0  0  0  0
   35.7940   28.0840   35.3360 N   0  0  0  0  0  0  0  0  0  0  0  0
   33.8600   28.2790   36.2970 H   0  0  0  0  0  0  0  0  0  0  0  0
   34.6960   29.6830   38.0840 H   0  0  0  0  0  0  0  0  0  0  0  0
   37.7840   28.1170   34.6910 H   0  0  0  0  0  0  0  0  0  0  0  0
  2  1  1  0  0  0  0
  2  7  1  0  0  0  0
  3  2  2  0  0  0  0
  4  3  1  0  0  0  0
  4  5  2  0  0  0  0
  5  6  1  0  0  0  0
  6  7  2  0  0  0  0
  6 10  1  0  0  0  0
  7 11  1  0  0  0  0
  8  4  1  0  0  0  0
  9  5  1  0  0  0  0
 11 12  2  0  0  0  0
 11 13  1  0  0  0  0
 13 21  1  0  0  0  0
 14 13  1  0  0  0  0
 14 16  1  0  0  0  0
 15 14  1  0  0  0  0
 17 16  1  0  0  0  0
 18 19  1  0  0  0  0
 18 20  1  0  0  0  0
 18 16  1  0  0  0  0
 20 21  1  0  0  0  0
 22 28  1  0  0  0  0
 22 23  1  0  0  0  0
 23 24  2  0  0  0  0
 23 29  1  0  0  0  0
 24  3  1  0  0  0  0
 25 24  1  0  0  0  0
 26 25  2  0  0  0  0
 27 26  1  0  0  0  0
 27 22  2  0  0  0  0
 30 26  1  0  0  0  0
M  END
>  <minimizedAffinity>
-5.19438076

$$$$

 OpenBabel03242520013D

 30 32  0  0  0  0  0  0  0  0999 V2000
   36.5660   26.6710   39.1820 Br  0  0  0  0  0  0  0  0  0  0  0  0
   36.5860   28.4110   39.9440 C   0  0  0  0  0  0  0  0  0  0  0  0
   36.2310   29.5370   39.2270 C   0  0  0  0  0  0  0  0  0  0  0  0
   36.3140   30.7650   39.8690 C   0  0  0  0  0  0  0  0  0  0  0  0
   36.7300   30.9100   41.1800 C   0  0  0  0  0  0  0  0  0  0  0  0
   37.0860   29.7680   41.9010 C   0  0  0  0  0  0  0  0  0  0  0  0
   36.9940   28.5620   41.2400 C   0  0  0  0  0  0  0  0  0  0  0  0
   36.0120   31.5660   39.2140 H   0  0  0  0  0  0  0  0  0  0  0  0
   36.7520   31.9220   41.5630 H   0  0  0  0  0  0  0  0  0  0  0  0
   37.4040   29.9150   42.9110 H   0  0  0  0  0  0  0  0  0  0  0  0
   37.2900   27.4170   42.0580 C   0  0  0  0  0  0  0  0  0  0  0  0
   36.4810   27.0610   43.0130 O   0  0  0  0  0  0  0  0  0  0  0  0
   38.2640   26.3760   42.2430 N   0  0  0  0  0  0  0  0  0  0  0  0
   38.9650   26.8400   43.4120 C   0  0  0  0  0  3  0  0  0  0  0  0
   39.4570   27.8470   43.2500 H   0  0  0  0  0  0  0  0  0  0  0  0
   40.1300   25.9110   43.6750 C   0  0  0  0  0  3  0  0  0  0  0  0
   40.7630   26.4270   44.4310 H   0  0  0  0  0  0  0  0  0  0  0  0
   40.9280   25.8410   42.4630 N   0  0  0  0  0  0  0  0  0  0  0  0
   41.8140   25.3420   42.6940 H   0  0  0  0  0  0  0  0  0  0  0  0
   40.1880   25.1950   41.3930 C   0  0  0  0  0  2  0  0  0  0  0  0
   38.7280   25.0870   41.7070 C   0  0  0  0  0  2  0  0  0  0  0  0
   34.0790   28.9000   36.1930 C   0  0  0  0  0  0  0  0  0  0  0  0
   34.4720   29.0740   37.5320 C   0  0  0  0  0  0  0  0  0  0  0  0
   35.7740   29.3490   37.8590 C   0  0  0  0  0  0  0  0  0  0  0  0
   36.6210   29.4340   36.7880 N   0  0  0  0  0  0  0  0  0  0  0  0
   36.2480   29.2690   35.5190 C   0  0  0  0  0  0  0  0  0  0  0  0
   34.9910   29.0050   35.2220 N   0  0  0  0  0  0  0  0  0  0  0  0
   33.0250   28.6890   36.0790 H   0  0  0  0  0  0  0  0  0  0  0  0
   33.7780   29.0000   38.3590 H   0  0  0  0  0  0  0  0  0  0  0  0
   37.0000   29.3580   34.7550 H   0  0  0  0  0  0  0  0  0  0  0  0
  1  2  1  0  0  0  0
  2  7  1  0  0  0  0
  3  4  1  0  0  0  0
  3  2  2  0  0  0  0
  4  5  2  0  0  0  0
  5  9  1  0  0  0  0
  5  6  1  0  0  0  0
  6 10  1  0  0  0  0
  7  6  2  0  0  0  0
  7 11  1  0  0  0  0
  8  4  1  0  0  0  0
 11 13  1  0  0  0  0
 11 12  2  0  0  0  0
 13 14  1  0  0  0  0
 14 16  1  0  0  0  0
 15 14  1  0  0  0  0
 16 17  1  0  0  0  0
 18 19  1  0  0  0  0
 18 16  1  0  0  0  0
 20 21  1  0  0  0  0
 20 18  1  0  0  0  0
 21 13  1  0  0  0  0
 22 23  1  0  0  0  0
 23 24  2  0  0  0  0
 23 29  1  0  0  0  0
 24  3  1  0  0  0  0
 25 24  1  0  0  0  0
 26 25  2  0  0  0  0
 27 26  1  0  0  0  0
 27 22  2  0  0  0  0
 28 22  1  0  0  0  0
 30 26  1  0  0  0  0
M  END
>  <minimizedAffinity>
-5.14362621

$$$$

 OpenBabel03242520013D

 30 32  0  0  0  0  0  0  0  0999 V2000
   40.9620   30.1630   39.5230 Br  0  0  0  0  0  0  0  0  0  0  0  0
   39.5350   31.4060   39.6790 C   0  0  0  0  0  0  0  0  0  0  0  0
   39.7080   32.7610   39.4740 C   0  0  0  0  0  0  0  0  0  0  0  0
   38.6050   33.5870   39.6470 C   0  0  0  0  0  0  0  0  0  0  0  0
   37.3560   33.1200   40.0120 C   0  0  0  0  0  0  0  0  0  0  0  0
   37.1860   31.7480   40.2170 C   0  0  0  0  0  0  0  0  0  0  0  0
   38.2960   30.9510   40.0370 C   0  0  0  0  0  0  0  0  0  0  0  0
   38.8600   34.6170   39.4590 H   0  0  0  0  0  0  0  0  0  0  0  0
   36.5800   33.8660   40.1160 H   0  0  0  0  0  0  0  0  0  0  0  0
   36.2080   31.4200   40.4980 H   0  0  0  0  0  0  0  0  0  0  0  0
   38.0410   29.5430   40.1770 C   0  0  0  0  0  0  0  0  0  0  0  0
   37.5110   28.8670   39.1990 O   0  0  0  0  0  0  0  0  0  0  0  0
   38.1680   28.4530   41.1060 N   0  0  0  0  0  0  0  0  0  0  0  0
   36.8090   28.2970   41.5570 C   0  0  0  0  0  3  0  0  0  0  0  0
   36.4100   29.2280   42.0600 H   0  0  0  0  0  0  0  0  0  0  0  0
   36.7840   27.2570   42.6560 C   0  0  0  0  0  3  0  0  0  0  0  0
   35.7760   27.3340   43.1210 H   0  0  0  0  0  0  0  0  0  0  0  0
   37.7310   27.6660   43.6800 N   0  0  0  0  0  0  0  0  0  0  0  0
   37.5910   27.0480   44.5080 H   0  0  0  0  0  0  0  0  0  0  0  0
   39.0920   27.6210   43.1730 C   0  0  0  0  0  2  0  0  0  0  0  0
   39.1310   27.5010   41.6810 C   0  0  0  0  0  2  0  0  0  0  0  0
   43.2650   34.0190   39.5150 C   0  0  0  0  0  0  0  0  0  0  0  0
   42.0040   33.5830   39.9580 C   0  0  0  0  0  0  0  0  0  0  0  0
   41.0270   33.2180   39.0670 C   0  0  0  0  0  0  0  0  0  0  0  0
   41.3930   33.3180   37.7530 N   0  0  0  0  0  0  0  0  0  0  0  0
   42.5880   33.7320   37.3350 C   0  0  0  0  0  0  0  0  0  0  0  0
   43.5160   34.0800   38.2040 N   0  0  0  0  0  0  0  0  0  0  0  0
   43.9380   34.2740   40.3220 H   0  0  0  0  0  0  0  0  0  0  0  0
   41.7430   33.5150   41.0060 H   0  0  0  0  0  0  0  0  0  0  0  0
   42.7680   33.7730   36.2750 H   0  0  0  0  0  0  0  0  0  0  0  0
  1  2  1  0  0  0  0
  2  7  1  0  0  0  0
  3  4  1  0  0  0  0
  3  2  2  0  0  0  0
  4  5  2  0  0  0  0
  5  9  1  0  0  0  0
  5  6  1  0  0  0  0
  6 10  1  0  0  0  0
  7 11  1  0  0  0  0
  7  6  2  0  0  0  0
  8  4  1  0  0  0  0
 11 13  1  0  0  0  0
 12 11  2  0  0  0  0
 13 14  1  0  0  0  0
 13 21  1  0  0  0  0
 14 15  1  0  0  0  0
 14 16  1  0  0  0  0
 16 17  1  0  0  0  0
 16 18  1  0  0  0  0
 18 19  1  0  0  0  0
 20 18  1  0  0  0  0
 21 20  1  0  0  0  0
 22 23  1  0  0  0  0
 22 28  1  0  0  0  0
 23 29  1  0  0  0  0
 24  3  1  0  0  0  0
 24 23  2  0  0  0  0
 25 24  1  0  0  0  0
 26 25  2  0  0  0  0
 26 27  1  0  0  0  0
 27 22  2  0  0  0  0
 30 26  1  0  0  0  0
M  END
>  <minimizedAffinity>
-5.12189817

$$$$
