
 OpenBabel03252502283D

 35 37  0  0  0  0  0  0  0  0999 V2000
   45.1100   34.4820   41.3010 C   0  0  0  0  0  0  0  0  0  0  0  0
   45.4240   35.1390   42.4810 C   0  0  0  0  0  0  0  0  0  0  0  0
   46.7600   35.4150   42.7600 C   0  0  0  0  0  0  0  0  0  0  0  0
   47.7280   35.0340   41.8680 C   0  0  0  0  0  0  0  0  0  0  0  0
   47.4390   34.3820   40.6910 C   0  0  0  0  0  0  0  0  0  0  0  0
   46.0910   34.1180   40.4380 C   0  0  0  0  0  0  0  0  0  0  0  0
   44.6610   35.4400   43.1850 H   0  0  0  0  0  0  0  0  0  0  0  0
   46.9600   35.9290   43.6910 H   0  0  0  0  0  0  0  0  0  0  0  0
   48.7660   35.2430   42.0730 H   0  0  0  0  0  0  0  0  0  0  0  0
   48.1870   34.0680   39.9650 H   0  0  0  0  0  0  0  0  0  0  0  0
   46.2230   32.4950   38.3910 C   0  0  0  0  0  0  0  0  0  0  0  0
   47.3620   32.0490   38.4560 O   0  0  0  0  0  0  0  0  0  0  0  0
   45.6590   33.4560   39.2660 N   0  0  0  0  0  0  0  0  0  0  0  0
   44.6830   33.8200   39.0700 H   0  0  0  0  0  0  0  0  0  0  0  0
   45.4080   31.9890   37.3370 N   0  0  0  0  0  0  0  0  0  0  0  0
   45.4690   32.7250   36.0890 C   0  0  0  0  0  3  0  0  0  0  0  0
   44.9040   33.6760   36.1450 H   0  0  0  0  0  0  0  0  0  0  0  0
   45.0920   31.8510   34.9210 C   0  0  0  0  0  3  0  0  0  0  0  0
   45.9760   31.1740   34.7330 H   0  0  0  0  0  0  0  0  0  0  0  0
   43.8810   31.1140   35.0790 N   0  0  0  0  0  0  0  0  0  0  0  0
   43.1450   31.4550   34.4210 H   0  0  0  0  0  0  0  0  0  0  0  0
   43.3650   31.2400   36.4200 C   0  0  0  0  0  2  0  0  0  0  0  0
   44.5250   30.8380   37.3410 C   0  0  0  0  0  2  0  0  0  0  0  0
   41.4410   34.7810   40.4750 C   0  0  0  0  0  0  0  0  0  0  0  0
   42.7790   35.1520   40.6570 C   0  0  0  0  0  0  0  0  0  0  0  0
   43.6930   34.2270   41.0740 C   0  0  0  0  0  0  0  0  0  0  0  0
   43.2270   32.9600   41.2920 N   0  0  0  0  0  0  0  0  0  0  0  0
   41.9420   32.5970   41.1190 C   0  0  0  0  0  0  0  0  0  0  0  0
   41.0400   33.5180   40.7050 N   0  0  0  0  0  0  0  0  0  0  0  0
   43.1250   36.1640   40.4770 H   0  0  0  0  0  0  0  0  0  0  0  0
   41.6390   31.5720   41.3100 H   0  0  0  0  0  0  0  0  0  0  0  0
   40.4450   35.7740   40.0250 C   0  0  0  0  0  0  0  0  0  0  0  0
   39.2590   35.0800   39.7390 F   0  0  0  0  0  0  0  0  0  0  0  0
   40.8920   36.2620   38.8050 F   0  0  0  0  0  0  0  0  0  0  0  0
   40.2050   36.7630   40.9390 F   0  0  0  0  0  0  0  0  0  0  0  0
  1  2  1  0  0  0  0
  2  3  2  0  0  0  0
  2  7  1  0  0  0  0
  3  8  1  0  0  0  0
  4  9  1  0  0  0  0
  4  3  1  0  0  0  0
  5  4  2  0  0  0  0
  6  5  1  0  0  0  0
  6  1  2  0  0  0  0
 10  5  1  0  0  0  0
 11 12  2  0  0  0  0
 11 13  1  0  0  0  0
 13  6  1  0  0  0  0
 14 13  1  0  0  0  0
 15 23  1  0  0  0  0
 15 11  1  0  0  0  0
 16 17  1  0  0  0  0
 16 15  1  0  0  0  0
 18 20  1  0  0  0  0
 18 16  1  0  0  0  0
 19 18  1  0  0  0  0
 20 22  1  0  0  0  0
 21 20  1  0  0  0  0
 22 23  1  0  0  0  0
 24 25  2  0  0  0  0
 24 29  1  0  0  0  0
 25 26  1  0  0  0  0
 26 27  2  0  0  0  0
 26  1  1  0  0  0  0
 28 27  1  0  0  0  0
 28 31  1  0  0  0  0
 29 28  2  0  0  0  0
 30 25  1  0  0  0  0
 32 24  1  0  0  0  0
 32 35  1  0  0  0  0
 33 32  1  0  0  0  0
 34 32  1  0  0  0  0
M  END
>  <minimizedAffinity>
-6.3738308

>  <minimizedRMSD>
0.639570594

$$$$
