
 OpenBabel03242517013D

 32 34  0  0  0  0  0  0  0  0999 V2000
   46.5900   34.7460   42.0020 C   0  0  0  0  0  0  0  0  0  0  0  0
   47.8900   35.2450   41.9280 C   0  0  0  0  0  0  0  0  0  0  0  0
   48.6060   35.0560   40.7570 C   0  0  0  0  0  0  0  0  0  0  0  0
   48.0330   34.3910   39.7050 C   0  0  0  0  0  0  0  0  0  0  0  0
   46.7630   33.8910   39.7470 C   0  0  0  0  0  0  0  0  0  0  0  0
   46.0610   34.0940   40.9380 C   0  0  0  0  0  0  0  0  0  0  0  0
   48.3290   35.7690   42.7680 H   0  0  0  0  0  0  0  0  0  0  0  0
   49.6100   35.4510   40.7240 H   0  0  0  0  0  0  0  0  0  0  0  0
   48.6400   34.2700   38.8090 H   0  0  0  0  0  0  0  0  0  0  0  0
   46.3040   33.3640   38.9200 H   0  0  0  0  0  0  0  0  0  0  0  0
   43.4350   34.1010   40.8060 C   0  0  0  0  0  0  0  0  0  0  0  0
   43.1820   35.1750   40.2150 O   0  0  0  0  0  0  0  0  0  0  0  0
   44.7350   33.6230   41.1120 N   0  0  0  0  0  0  0  0  0  0  0  0
   44.9210   32.6960   41.5890 H   0  0  0  0  0  0  0  0  0  0  0  0
   42.3910   33.2050   41.2530 N   0  0  0  0  0  0  0  0  0  0  0  0
   42.3150   31.8130   41.7040 C   0  0  0  0  0  0  0  0  0  0  0  0
   41.9880   31.8790   42.7840 H   0  0  0  0  0  0  0  0  0  0  0  0
   41.3380   31.0130   40.9190 C   0  0  0  0  0  0  0  0  0  0  0  0
   41.9250   30.2600   40.3200 H   0  0  0  0  0  0  0  0  0  0  0  0
   40.5320   31.7250   39.9880 N   0  0  0  0  0  0  0  0  0  0  0  0
   40.7850   31.6660   38.9990 H   0  0  0  0  0  0  0  0  0  0  0  0
   40.0620   32.9980   40.4590 C   0  0  0  0  0  0  0  0  0  0  0  0
   41.0550   33.7330   41.2960 C   0  0  0  0  0  0  0  0  0  0  0  0
   44.4980   36.1930   44.7810 C   0  0  0  0  0  0  0  0  0  0  0  0
   45.1300   36.0860   43.5280 C   0  0  0  0  0  0  0  0  0  0  0  0
   45.8890   34.9740   43.2510 C   0  0  0  0  0  0  0  0  0  0  0  0
   45.9850   34.0210   44.2300 N   0  0  0  0  0  0  0  0  0  0  0  0
   45.3810   34.1180   45.4310 C   0  0  0  0  0  0  0  0  0  0  0  0
   44.6230   35.2270   45.7100 N   0  0  0  0  0  0  0  0  0  0  0  0
   43.8970   37.0780   44.9930 H   0  0  0  0  0  0  0  0  0  0  0  0
   45.0520   36.8290   42.7760 H   0  0  0  0  0  0  0  0  0  0  0  0
   45.4970   33.3370   46.1490 H   0  0  0  0  0  0  0  0  0  0  0  0
  1 26  1  0  0  0  0
  2  1  1  0  0  0  0
  2  7  1  0  0  0  0
  3  2  2  0  0  0  0
  4  5  2  0  0  0  0
  4  3  1  0  0  0  0
  5  6  1  0  0  0  0
  6 13  1  0  0  0  0
  6  1  2  0  0  0  0
  8  3  1  0  0  0  0
  9  4  1  0  0  0  0
 10  5  1  0  0  0  0
 11 13  1  0  0  0  0
 11 15  1  0  0  0  0
 12 11  2  0  0  0  0
 13 14  1  0  0  0  0
 15 23  1  0  0  0  0
 15 16  1  0  0  0  0
 16 17  1  0  0  0  0
 18 16  1  0  0  0  0
 19 18  1  0  0  0  0
 20 22  1  0  0  0  0
 20 18  1  0  0  0  0
 21 20  1  0  0  0  0
 22 23  1  0  0  0  0
 24 30  1  0  0  0  0
 24 29  1  0  0  0  0
 25 24  2  0  0  0  0
 26 25  1  0  0  0  0
 26 27  2  0  0  0  0
 27 28  1  0  0  0  0
 28 29  2  0  0  0  0
 28 32  1  0  0  0  0
 31 25  1  0  0  0  0
M  END
>  <minimizedAffinity>
-6.36586809

>  <minimizedRMSD>
0.308348805

$$$$
