
 OpenBabel03252508513D

 28 30  0  0  0  0  0  0  0  0999 V2000
   45.9840   34.1730   41.0490 C   0  0  0  0  0  0  0  0  0  0  0  0
   46.5580   34.8220   42.1470 C   0  0  0  0  0  0  0  0  0  0  0  0
   47.8990   35.2210   42.0300 C   0  0  0  0  0  0  0  0  0  0  0  0
   48.5370   34.9430   40.8500 N   0  0  0  0  0  0  0  0  0  0  0  0
   47.9470   34.3220   39.8350 C   0  0  0  0  0  0  0  0  0  0  0  0
   46.6630   33.9260   39.9140 N   0  0  0  0  0  0  0  0  0  0  0  0
   48.3670   35.7260   42.8670 H   0  0  0  0  0  0  0  0  0  0  0  0
   48.5360   34.1540   38.9580 H   0  0  0  0  0  0  0  0  0  0  0  0
   45.7720   35.0570   43.3450 C   0  0  0  0  0  0  0  0  0  0  0  0
   45.0800   36.2290   43.5710 C   0  0  0  0  0  0  0  0  0  0  0  0
   44.4920   36.0110   44.8060 C   0  0  0  0  0  0  0  0  0  0  0  0
   44.8110   34.7810   45.2970 N   0  0  0  0  0  0  0  0  0  0  0  0
   45.5800   34.2380   44.3950 N   0  0  0  0  0  0  0  0  0  0  0  0
   44.9820   37.1270   42.9710 H   0  0  0  0  0  0  0  0  0  0  0  0
   43.8530   36.7400   45.3180 H   0  0  0  0  0  0  0  0  0  0  0  0
   44.4550   34.4470   46.2210 H   0  0  0  0  0  0  0  0  0  0  0  0
   44.6610   33.7760   41.1550 O   0  0  0  0  0  0  0  0  0  0  0  0
   43.5840   34.4310   40.6200 C   0  0  0  0  0  0  0  0  0  0  0  0
   43.3150   35.6740   40.6620 O   0  0  0  0  0  0  0  0  0  0  0  0
   42.4400   33.9550   39.8670 N   0  0  0  0  0  0  0  0  0  0  0  0
   41.1850   33.8840   40.5860 C   0  0  0  0  0  3  0  0  0  0  0  0
   40.6110   34.7900   40.2310 H   0  0  0  0  0  0  0  0  0  0  0  0
   40.4600   32.6630   40.0650 C   0  0  0  0  0  3  0  0  0  0  0  0
   39.9580   32.1890   40.9380 H   0  0  0  0  0  0  0  0  0  0  0  0
   41.3560   31.6570   39.5420 N   0  0  0  0  0  0  0  0  0  0  0  0
   40.7720   30.8500   39.2570 H   0  0  0  0  0  0  0  0  0  0  0  0
   42.0760   32.1140   38.3720 C   0  0  0  0  0  2  0  0  0  0  0  0
   42.4810   33.5570   38.4730 C   0  0  0  0  0  2  0  0  0  0  0  0
  1 17  1  0  0  0  0
  1  2  1  0  0  0  0
  2  9  1  0  0  0  0
  3  2  2  0  0  0  0
  3  7  1  0  0  0  0
  4  3  1  0  0  0  0
  5  6  1  0  0  0  0
  5  4  2  0  0  0  0
  6  1  2  0  0  0  0
  8  5  1  0  0  0  0
  9 10  1  0  0  0  0
  9 13  2  0  0  0  0
 10 11  2  0  0  0  0
 11 12  1  0  0  0  0
 11 15  1  0  0  0  0
 12 16  1  0  0  0  0
 13 12  1  0  0  0  0
 14 10  1  0  0  0  0
 18 19  2  0  0  0  0
 18 17  1  0  0  0  0
 20 21  1  0  0  0  0
 20 18  1  0  0  0  0
 22 21  1  0  0  0  0
 23 21  1  0  0  0  0
 23 24  1  0  0  0  0
 25 23  1  0  0  0  0
 26 25  1  0  0  0  0
 27 28  1  0  0  0  0
 27 25  1  0  0  0  0
 28 20  1  0  0  0  0
M  END
>  <minimizedAffinity>
-5.34292841

>  <minimizedRMSD>
0.499110937

$$$$
