
 OpenBabel03252502283D

 35 37  0  0  0  0  0  0  0  0999 V2000
   45.1420   34.4630   41.2660 C   0  0  0  0  0  0  0  0  0  0  0  0
   45.4910   35.0840   42.4550 C   0  0  0  0  0  0  0  0  0  0  0  0
   46.8370   35.3390   42.7090 C   0  0  0  0  0  0  0  0  0  0  0  0
   47.7780   34.9740   41.7840 C   0  0  0  0  0  0  0  0  0  0  0  0
   47.4540   34.3580   40.5960 C   0  0  0  0  0  0  0  0  0  0  0  0
   46.0980   34.1140   40.3690 C   0  0  0  0  0  0  0  0  0  0  0  0
   44.7480   35.3720   43.1860 H   0  0  0  0  0  0  0  0  0  0  0  0
   47.0640   35.8240   43.6490 H   0  0  0  0  0  0  0  0  0  0  0  0
   48.8240   35.1670   41.9680 H   0  0  0  0  0  0  0  0  0  0  0  0
   48.1820   34.0570   39.8440 H   0  0  0  0  0  0  0  0  0  0  0  0
   46.1470   32.5170   38.2980 C   0  0  0  0  0  0  0  0  0  0  0  0
   47.2660   32.0190   38.3490 O   0  0  0  0  0  0  0  0  0  0  0  0
   45.6310   33.4890   39.1890 N   0  0  0  0  0  0  0  0  0  0  0  0
   44.6720   33.8990   39.0040 H   0  0  0  0  0  0  0  0  0  0  0  0
   45.3050   32.0640   37.2410 N   0  0  0  0  0  0  0  0  0  0  0  0
   44.2460   31.1520   37.6290 C   0  0  0  0  0  3  0  0  0  0  0  0
   44.6340   30.1340   37.8330 H   0  0  0  0  0  0  0  0  0  0  0  0
   43.1040   31.1920   36.6480 C   0  0  0  0  0  3  0  0  0  0  0  0
   42.5470   32.1540   36.8490 H   0  0  0  0  0  0  0  0  0  0  0  0
   43.4760   31.0670   35.2770 N   0  0  0  0  0  0  0  0  0  0  0  0
   43.1350   30.1660   34.8750 H   0  0  0  0  0  0  0  0  0  0  0  0
   44.9100   31.1040   35.1190 C   0  0  0  0  0  2  0  0  0  0  0  0
   45.3620   32.3890   35.8290 C   0  0  0  0  0  2  0  0  0  0  0  0
   41.4580   34.8180   40.5340 C   0  0  0  0  0  0  0  0  0  0  0  0
   42.8040   35.1710   40.6940 C   0  0  0  0  0  0  0  0  0  0  0  0
   43.7180   34.2270   41.0660 C   0  0  0  0  0  0  0  0  0  0  0  0
   43.2430   32.9600   41.2650 N   0  0  0  0  0  0  0  0  0  0  0  0
   41.9510   32.6140   41.1130 C   0  0  0  0  0  0  0  0  0  0  0  0
   41.0490   33.5540   40.7440 N   0  0  0  0  0  0  0  0  0  0  0  0
   43.1560   36.1830   40.5300 H   0  0  0  0  0  0  0  0  0  0  0  0
   41.6420   31.5880   41.2870 H   0  0  0  0  0  0  0  0  0  0  0  0
   40.4620   35.8320   40.1330 C   0  0  0  0  0  0  0  0  0  0  0  0
   39.2410   35.1670   39.9400 F   0  0  0  0  0  0  0  0  0  0  0  0
   40.8400   36.2860   38.8770 F   0  0  0  0  0  0  0  0  0  0  0  0
   40.3120   36.8430   41.0410 F   0  0  0  0  0  0  0  0  0  0  0  0
  1  2  1  0  0  0  0
  2  3  2  0  0  0  0
  2  7  1  0  0  0  0
  3  8  1  0  0  0  0
  4  9  1  0  0  0  0
  4  3  1  0  0  0  0
  5  4  2  0  0  0  0
  6  5  1  0  0  0  0
  6  1  2  0  0  0  0
 10  5  1  0  0  0  0
 11 12  2  0  0  0  0
 11 13  1  0  0  0  0
 13  6  1  0  0  0  0
 14 13  1  0  0  0  0
 15 16  1  0  0  0  0
 15 11  1  0  0  0  0
 16 17  1  0  0  0  0
 18 19  1  0  0  0  0
 18 16  1  0  0  0  0
 20 18  1  0  0  0  0
 21 20  1  0  0  0  0
 22 20  1  0  0  0  0
 22 23  1  0  0  0  0
 23 15  1  0  0  0  0
 24 25  2  0  0  0  0
 24 29  1  0  0  0  0
 25 26  1  0  0  0  0
 26 27  2  0  0  0  0
 26  1  1  0  0  0  0
 28 27  1  0  0  0  0
 28 31  1  0  0  0  0
 29 28  2  0  0  0  0
 30 25  1  0  0  0  0
 32 24  1  0  0  0  0
 32 35  1  0  0  0  0
 33 32  1  0  0  0  0
 34 32  1  0  0  0  0
M  END
>  <minimizedAffinity>
-6.42610216

>  <minimizedRMSD>
0.619512558

$$$$
