
 OpenBabel03252501333D

 24 25  0  0  0  0  0  0  0  0999 V2000
   39.3820   31.5650   39.8970 C   0  0  0  0  0  0  0  0  0  0  0  0
   40.5050   31.0100   39.7540 O   0  0  0  0  0  0  0  0  0  0  0  0
   39.3760   32.9250   39.4040 N   0  0  0  0  0  0  0  0  0  0  0  0
   38.5340   33.5030   39.4420 H   0  0  0  0  0  0  0  0  0  0  0  0
   38.2160   30.9850   40.4650 N   0  0  0  0  0  0  0  0  0  0  0  0
   38.3080   30.2130   41.7120 C   0  0  0  0  0  3  0  0  0  0  0  0
   38.3590   30.9480   42.5310 H   0  0  0  0  0  0  0  0  0  0  0  0
   37.0910   29.3200   41.8690 C   0  0  0  0  0  3  0  0  0  0  0  0
   37.1200   28.5420   41.1080 H   0  0  0  0  0  0  0  0  0  0  0  0
   35.9030   30.1560   41.6500 N   0  0  0  0  0  0  0  0  0  0  0  0
   36.0780   31.0460   42.1470 H   0  0  0  0  0  0  0  0  0  0  0  0
   35.8360   30.4120   40.2260 C   0  0  0  0  0  2  0  0  0  0  0  0
   36.9920   31.2210   39.7250 C   0  0  0  0  0  2  0  0  0  0  0  0
   40.7020   33.2350   38.9000 C   0  0  0  0  0  0  0  0  0  0  0  0
   41.1530   32.9870   37.6200 C   0  0  0  0  0  0  0  0  0  0  0  0
   42.4600   33.3580   37.3270 C   0  0  0  0  0  0  0  0  0  0  0  0
   43.1790   33.9280   38.3140 N   0  0  0  0  0  0  0  0  0  0  0  0
   42.7160   34.1580   39.5530 C   0  0  0  0  0  0  0  0  0  0  0  0
   41.4520   33.8130   39.8740 N   0  0  0  0  0  0  0  0  0  0  0  0
   42.7910   33.1590   36.3350 H   0  0  0  0  0  0  0  0  0  0  0  0
   43.3120   34.6190   40.3300 H   0  0  0  0  0  0  0  0  0  0  0  0
   40.2290   32.3790   36.7420 N   0  0  0  0  0  0  0  0  0  0  0  0
   40.3590   31.3330   36.6020 H   0  0  0  0  0  0  0  0  0  0  0  0
   39.4430   32.8720   36.2300 H   0  0  0  0  0  0  0  0  0  0  0  0
  1  5  1  0  0  0  0
  2  1  2  0  0  0  0
  3  4  1  0  0  0  0
  3  1  1  0  0  0  0
  5  6  1  0  0  0  0
  6  8  1  0  0  0  0
  6  7  1  0  0  0  0
  9  8  1  0  0  0  0
 10  8  1  0  0  0  0
 10 11  1  0  0  0  0
 12 10  1  0  0  0  0
 13 12  1  0  0  0  0
 13  5  1  0  0  0  0
 14  3  1  0  0  0  0
 14 19  1  0  0  0  0
 15 14  2  0  0  0  0
 16 15  1  0  0  0  0
 16 17  2  0  0  0  0
 17 18  1  0  0  0  0
 18 19  2  0  0  0  0
 18 21  1  0  0  0  0
 20 16  1  0  0  0  0
 22 15  1  0  0  0  0
 23 22  1  0  0  0  0
 24 22  1  0  0  0  0
M  END
>  <minimizedAffinity>
-4.97143316

$$$$

 OpenBabel03252501333D

 24 25  0  0  0  0  0  0  0  0999 V2000
   38.1230   29.8840   41.0490 C   0  0  0  0  0  0  0  0  0  0  0  0
   37.7410   28.9720   40.2680 O   0  0  0  0  0  0  0  0  0  0  0  0
   38.5920   29.3630   42.3140 N   0  0  0  0  0  0  0  0  0  0  0  0
   38.9430   29.9800   43.0490 H   0  0  0  0  0  0  0  0  0  0  0  0
   38.1210   31.2800   40.7860 N   0  0  0  0  0  0  0  0  0  0  0  0
   36.9500   31.9150   40.1660 C   0  0  0  0  0  3  0  0  0  0  0  0
   36.2070   32.0510   40.9680 H   0  0  0  0  0  0  0  0  0  0  0  0
   37.3350   33.2510   39.5590 C   0  0  0  0  0  3  0  0  0  0  0  0
   37.9890   33.0800   38.7060 H   0  0  0  0  0  0  0  0  0  0  0  0
   38.0750   34.0010   40.5840 N   0  0  0  0  0  0  0  0  0  0  0  0
   37.5680   33.8540   41.4730 H   0  0  0  0  0  0  0  0  0  0  0  0
   39.3840   33.3890   40.6770 C   0  0  0  0  0  2  0  0  0  0  0  0
   39.3330   31.9770   41.1720 C   0  0  0  0  0  2  0  0  0  0  0  0
   38.4580   27.9170   42.2910 C   0  0  0  0  0  0  0  0  0  0  0  0
   37.3190   27.2100   42.6180 C   0  0  0  0  0  0  0  0  0  0  0  0
   37.3880   25.8260   42.5340 C   0  0  0  0  0  0  0  0  0  0  0  0
   38.5580   25.2860   42.1410 N   0  0  0  0  0  0  0  0  0  0  0  0
   39.6540   25.9960   41.8280 C   0  0  0  0  0  0  0  0  0  0  0  0
   39.6240   27.3430   41.8970 N   0  0  0  0  0  0  0  0  0  0  0  0
   36.5000   25.2970   42.7900 H   0  0  0  0  0  0  0  0  0  0  0  0
   40.5830   25.5400   41.5140 H   0  0  0  0  0  0  0  0  0  0  0  0
   36.2000   27.9800   43.0060 N   0  0  0  0  0  0  0  0  0  0  0  0
   36.0300   28.0360   44.0540 H   0  0  0  0  0  0  0  0  0  0  0  0
   35.5400   28.4880   42.3500 H   0  0  0  0  0  0  0  0  0  0  0  0
  1  3  1  0  0  0  0
  2  1  2  0  0  0  0
  3  4  1  0  0  0  0
  5  1  1  0  0  0  0
  5 13  1  0  0  0  0
  6  5  1  0  0  0  0
  6  7  1  0  0  0  0
  8  6  1  0  0  0  0
  8 10  1  0  0  0  0
  9  8  1  0  0  0  0
 10 12  1  0  0  0  0
 10 11  1  0  0  0  0
 12 13  1  0  0  0  0
 14  3  1  0  0  0  0
 14 15  1  0  0  0  0
 15 22  1  0  0  0  0
 16 15  2  0  0  0  0
 16 20  1  0  0  0  0
 17 16  1  0  0  0  0
 18 19  1  0  0  0  0
 18 17  2  0  0  0  0
 19 14  2  0  0  0  0
 21 18  1  0  0  0  0
 22 23  1  0  0  0  0
 24 22  1  0  0  0  0
M  END
>  <minimizedAffinity>
-4.71644974

$$$$

 OpenBabel03252501333D

 24 25  0  0  0  0  0  0  0  0999 V2000
   38.1210   27.8240   41.0770 C   0  0  0  0  0  0  0  0  0  0  0  0
   38.3200   28.3920   39.9690 O   0  0  0  0  0  0  0  0  0  0  0  0
   37.7800   28.7640   42.1210 N   0  0  0  0  0  0  0  0  0  0  0  0
   37.5810   28.4540   43.0750 H   0  0  0  0  0  0  0  0  0  0  0  0
   38.2050   26.4310   41.3420 N   0  0  0  0  0  0  0  0  0  0  0  0
   39.3340   25.6460   40.8240 C   0  0  0  0  0  3  0  0  0  0  0  0
   40.1840   25.8400   41.4970 H   0  0  0  0  0  0  0  0  0  0  0  0
   38.9870   24.1690   40.8100 C   0  0  0  0  0  3  0  0  0  0  0  0
   38.2150   23.9920   40.0640 H   0  0  0  0  0  0  0  0  0  0  0  0
   38.4530   23.8330   42.1370 N   0  0  0  0  0  0  0  0  0  0  0  0
   39.0570   24.3140   42.8240 H   0  0  0  0  0  0  0  0  0  0  0  0
   37.1200   24.3960   42.2000 C   0  0  0  0  0  2  0  0  0  0  0  0
   37.1170   25.8920   42.1340 C   0  0  0  0  0  2  0  0  0  0  0  0
   37.7870   30.1010   41.5550 C   0  0  0  0  0  0  0  0  0  0  0  0
   36.7090   30.7290   40.9640 C   0  0  0  0  0  0  0  0  0  0  0  0
   36.9150   32.0140   40.4790 C   0  0  0  0  0  0  0  0  0  0  0  0
   38.1460   32.5430   40.6230 N   0  0  0  0  0  0  0  0  0  0  0  0
   39.1790   31.9100   41.2020 C   0  0  0  0  0  0  0  0  0  0  0  0
   39.0170   30.6610   41.6860 N   0  0  0  0  0  0  0  0  0  0  0  0
   36.0720   32.4830   40.0270 H   0  0  0  0  0  0  0  0  0  0  0  0
   40.1600   32.3550   41.3060 H   0  0  0  0  0  0  0  0  0  0  0  0
   35.5080   29.9890   40.9190 N   0  0  0  0  0  0  0  0  0  0  0  0
   35.2920   29.5320   39.9830 H   0  0  0  0  0  0  0  0  0  0  0  0
   34.8270   29.8610   41.7220 H   0  0  0  0  0  0  0  0  0  0  0  0
  1  5  1  0  0  0  0
  1  3  1  0  0  0  0
  2  1  2  0  0  0  0
  3  4  1  0  0  0  0
  5 13  1  0  0  0  0
  6  5  1  0  0  0  0
  6  7  1  0  0  0  0
  8  6  1  0  0  0  0
  8 10  1  0  0  0  0
  9  8  1  0  0  0  0
 10 12  1  0  0  0  0
 10 11  1  0  0  0  0
 13 12  1  0  0  0  0
 14 19  1  0  0  0  0
 14  3  1  0  0  0  0
 15 14  2  0  0  0  0
 16 17  2  0  0  0  0
 16 15  1  0  0  0  0
 17 18  1  0  0  0  0
 18 21  1  0  0  0  0
 18 19  2  0  0  0  0
 20 16  1  0  0  0  0
 22 15  1  0  0  0  0
 22 24  1  0  0  0  0
 23 22  1  0  0  0  0
M  END
>  <minimizedAffinity>
-4.68306017

$$$$

 OpenBabel03252501333D

 24 25  0  0  0  0  0  0  0  0999 V2000
   38.8940   30.5370   41.0250 C   0  0  0  0  0  0  0  0  0  0  0  0
   40.1490   30.6480   41.0710 O   0  0  0  0  0  0  0  0  0  0  0  0
   38.2900   31.5110   40.1440 N   0  0  0  0  0  0  0  0  0  0  0  0
   37.2790   31.5430   39.9950 H   0  0  0  0  0  0  0  0  0  0  0  0
   38.1010   29.5920   41.7290 N   0  0  0  0  0  0  0  0  0  0  0  0
   38.3540   29.3280   43.1520 C   0  0  0  0  0  3  0  0  0  0  0  0
   37.8890   30.1560   43.7110 H   0  0  0  0  0  0  0  0  0  0  0  0
   37.7450   27.9990   43.5580 C   0  0  0  0  0  3  0  0  0  0  0  0
   38.2900   27.1930   43.0680 H   0  0  0  0  0  0  0  0  0  0  0  0
   36.3550   27.9910   43.0820 N   0  0  0  0  0  0  0  0  0  0  0  0
   35.9720   28.9290   43.2880 H   0  0  0  0  0  0  0  0  0  0  0  0
   36.4120   27.8050   41.6460 C   0  0  0  0  0  2  0  0  0  0  0  0
   37.0710   28.9480   40.9380 C   0  0  0  0  0  2  0  0  0  0  0  0
   39.3430   32.3400   39.5860 C   0  0  0  0  0  0  0  0  0  0  0  0
   39.8270   33.5070   40.1420 C   0  0  0  0  0  0  0  0  0  0  0  0
   40.8420   34.1610   39.4550 C   0  0  0  0  0  0  0  0  0  0  0  0
   41.2710   33.6050   38.3050 N   0  0  0  0  0  0  0  0  0  0  0  0
   40.7830   32.4680   37.7850 C   0  0  0  0  0  0  0  0  0  0  0  0
   39.7980   31.8040   38.4240 N   0  0  0  0  0  0  0  0  0  0  0  0
   41.2020   35.0590   39.8990 H   0  0  0  0  0  0  0  0  0  0  0  0
   41.1440   32.0400   36.8590 H   0  0  0  0  0  0  0  0  0  0  0  0
   39.2310   33.9100   41.3570 N   0  0  0  0  0  0  0  0  0  0  0  0
   38.5020   34.6790   41.2710 H   0  0  0  0  0  0  0  0  0  0  0  0
   39.4510   33.5150   42.3170 H   0  0  0  0  0  0  0  0  0  0  0  0
  1  2  2  0  0  0  0
  1  5  1  0  0  0  0
  3  1  1  0  0  0  0
  4  3  1  0  0  0  0
  5  6  1  0  0  0  0
  6  8  1  0  0  0  0
  6  7  1  0  0  0  0
  9  8  1  0  0  0  0
 10 11  1  0  0  0  0
 10  8  1  0  0  0  0
 12 10  1  0  0  0  0
 13 12  1  0  0  0  0
 13  5  1  0  0  0  0
 14 15  1  0  0  0  0
 14  3  1  0  0  0  0
 15 22  1  0  0  0  0
 16 20  1  0  0  0  0
 16 15  2  0  0  0  0
 17 16  1  0  0  0  0
 18 17  2  0  0  0  0
 18 19  1  0  0  0  0
 19 14  2  0  0  0  0
 21 18  1  0  0  0  0
 22 24  1  0  0  0  0
 23 22  1  0  0  0  0
M  END
>  <minimizedAffinity>
-4.65624142

$$$$

 OpenBabel03252501333D

 24 25  0  0  0  0  0  0  0  0999 V2000
   39.1280   30.3910   41.3950 C   0  0  0  0  0  0  0  0  0  0  0  0
   38.2440   29.8290   40.6950 O   0  0  0  0  0  0  0  0  0  0  0  0
   39.5470   29.5710   42.5100 N   0  0  0  0  0  0  0  0  0  0  0  0
   40.2660   29.8870   43.1650 H   0  0  0  0  0  0  0  0  0  0  0  0
   39.6930   31.6760   41.1750 N   0  0  0  0  0  0  0  0  0  0  0  0
   38.8280   32.8180   40.8470 C   0  0  0  0  0  3  0  0  0  0  0  0
   38.3880   33.1590   41.7980 H   0  0  0  0  0  0  0  0  0  0  0  0
   39.6410   33.9270   40.2050 C   0  0  0  0  0  3  0  0  0  0  0  0
   39.9800   33.5980   39.2240 H   0  0  0  0  0  0  0  0  0  0  0  0
   40.8140   34.1610   41.0600 N   0  0  0  0  0  0  0  0  0  0  0  0
   40.4720   34.1370   42.0350 H   0  0  0  0  0  0  0  0  0  0  0  0
   41.7110   33.0440   40.8430 C   0  0  0  0  0  2  0  0  0  0  0  0
   41.1360   31.7400   41.3000 C   0  0  0  0  0  2  0  0  0  0  0  0
   38.7880   28.3340   42.4790 C   0  0  0  0  0  0  0  0  0  0  0  0
   37.5380   28.1440   43.0330 C   0  0  0  0  0  0  0  0  0  0  0  0
   36.9730   26.8830   42.8990 C   0  0  0  0  0  0  0  0  0  0  0  0
   37.6870   25.9490   42.2420 N   0  0  0  0  0  0  0  0  0  0  0  0
   38.9030   26.1590   41.7120 C   0  0  0  0  0  0  0  0  0  0  0  0
   39.4840   27.3710   41.8210 N   0  0  0  0  0  0  0  0  0  0  0  0
   36.0080   26.7550   43.3330 H   0  0  0  0  0  0  0  0  0  0  0  0
   39.4580   25.3920   41.1870 H   0  0  0  0  0  0  0  0  0  0  0  0
   36.9690   29.2630   43.6800 N   0  0  0  0  0  0  0  0  0  0  0  0
   37.0420   29.2590   44.7410 H   0  0  0  0  0  0  0  0  0  0  0  0
   36.4900   30.0790   43.2010 H   0  0  0  0  0  0  0  0  0  0  0  0
  1  3  1  0  0  0  0
  2  1  2  0  0  0  0
  3  4  1  0  0  0  0
  5 13  1  0  0  0  0
  5  1  1  0  0  0  0
  6  5  1  0  0  0  0
  6  7  1  0  0  0  0
  8  6  1  0  0  0  0
  8 10  1  0  0  0  0
  9  8  1  0  0  0  0
 10 11  1  0  0  0  0
 12 10  1  0  0  0  0
 12 13  1  0  0  0  0
 14  3  1  0  0  0  0
 14 15  1  0  0  0  0
 15 22  1  0  0  0  0
 16 15  2  0  0  0  0
 16 20  1  0  0  0  0
 17 16  1  0  0  0  0
 18 19  1  0  0  0  0
 18 17  2  0  0  0  0
 19 14  2  0  0  0  0
 21 18  1  0  0  0  0
 22 23  1  0  0  0  0
 24 22  1  0  0  0  0
M  END
>  <minimizedAffinity>
-4.64442778

$$$$

 OpenBabel03252501333D

 24 25  0  0  0  0  0  0  0  0999 V2000
   37.3710   28.0860   40.4320 C   0  0  0  0  0  0  0  0  0  0  0  0
   38.2990   28.7990   40.8980 O   0  0  0  0  0  0  0  0  0  0  0  0
   36.5130   28.8230   39.5310 N   0  0  0  0  0  0  0  0  0  0  0  0
   35.7190   28.3780   39.0650 H   0  0  0  0  0  0  0  0  0  0  0  0
   37.1330   26.7140   40.7140 N   0  0  0  0  0  0  0  0  0  0  0  0
   37.1980   26.2220   42.0970 C   0  0  0  0  0  3  0  0  0  0  0  0
   36.2430   26.4990   42.5720 H   0  0  0  0  0  0  0  0  0  0  0  0
   37.3850   24.7160   42.1110 C   0  0  0  0  0  3  0  0  0  0  0  0
   38.3770   24.4770   41.7300 H   0  0  0  0  0  0  0  0  0  0  0  0
   36.3770   24.1400   41.2110 N   0  0  0  0  0  0  0  0  0  0  0  0
   35.4970   24.6500   41.3970 H   0  0  0  0  0  0  0  0  0  0  0  0
   36.8180   24.4280   39.8610 C   0  0  0  0  0  2  0  0  0  0  0  0
   36.8370   25.8930   39.5560 C   0  0  0  0  0  2  0  0  0  0  0  0
   36.9950   30.1910   39.4550 C   0  0  0  0  0  0  0  0  0  0  0  0
   36.6400   31.2150   40.3090 C   0  0  0  0  0  0  0  0  0  0  0  0
   37.2100   32.4600   40.0730 C   0  0  0  0  0  0  0  0  0  0  0  0
   38.0610   32.5660   39.0340 N   0  0  0  0  0  0  0  0  0  0  0  0
   38.3890   31.5530   38.2170 C   0  0  0  0  0  0  0  0  0  0  0  0
   37.8560   30.3290   38.4150 N   0  0  0  0  0  0  0  0  0  0  0  0
   36.9250   33.2380   40.7420 H   0  0  0  0  0  0  0  0  0  0  0  0
   39.0760   31.6620   37.3880 H   0  0  0  0  0  0  0  0  0  0  0  0
   35.7300   30.8820   41.3350 N   0  0  0  0  0  0  0  0  0  0  0  0
   34.7210   31.1670   41.1570 H   0  0  0  0  0  0  0  0  0  0  0  0
   35.9700   30.3850   42.2410 H   0  0  0  0  0  0  0  0  0  0  0  0
  1  5  1  0  0  0  0
  1  2  2  0  0  0  0
  3  1  1  0  0  0  0
  4  3  1  0  0  0  0
  5  6  1  0  0  0  0
  6  8  1  0  0  0  0
  6  7  1  0  0  0  0
  9  8  1  0  0  0  0
 10 11  1  0  0  0  0
 10  8  1  0  0  0  0
 12 10  1  0  0  0  0
 13 12  1  0  0  0  0
 13  5  1  0  0  0  0
 14  3  1  0  0  0  0
 14 15  1  0  0  0  0
 15 22  1  0  0  0  0
 16 15  2  0  0  0  0
 16 20  1  0  0  0  0
 17 16  1  0  0  0  0
 18 19  1  0  0  0  0
 18 17  2  0  0  0  0
 19 14  2  0  0  0  0
 21 18  1  0  0  0  0
 22 24  1  0  0  0  0
 23 22  1  0  0  0  0
M  END
>  <minimizedAffinity>
-4.62571096

$$$$

 OpenBabel03252501333D

 24 25  0  0  0  0  0  0  0  0999 V2000
   38.7890   30.2720   40.7250 C   0  0  0  0  0  0  0  0  0  0  0  0
   39.5200   29.3470   41.1700 O   0  0  0  0  0  0  0  0  0  0  0  0
   37.3920   29.8970   40.6890 N   0  0  0  0  0  0  0  0  0  0  0  0
   36.6730   30.5460   40.3600 H   0  0  0  0  0  0  0  0  0  0  0  0
   39.2160   31.5550   40.2900 N   0  0  0  0  0  0  0  0  0  0  0  0
   40.3940   31.6880   39.4230 C   0  0  0  0  0  3  0  0  0  0  0  0
   40.0610   31.4380   38.4030 H   0  0  0  0  0  0  0  0  0  0  0  0
   40.9320   33.1060   39.4790 C   0  0  0  0  0  3  0  0  0  0  0  0
   41.3460   33.2910   40.4680 H   0  0  0  0  0  0  0  0  0  0  0  0
   39.7970   34.0140   39.2600 N   0  0  0  0  0  0  0  0  0  0  0  0
   39.2380   33.6000   38.4950 H   0  0  0  0  0  0  0  0  0  0  0  0
   39.0180   34.0000   40.4810 C   0  0  0  0  0  2  0  0  0  0  0  0
   38.4110   32.6620   40.7680 C   0  0  0  0  0  2  0  0  0  0  0  0
   37.2710   28.5350   41.1770 C   0  0  0  0  0  0  0  0  0  0  0  0
   37.1550   28.1630   42.5010 C   0  0  0  0  0  0  0  0  0  0  0  0
   37.0490   26.8040   42.7680 C   0  0  0  0  0  0  0  0  0  0  0  0
   37.0680   25.9610   41.7170 N   0  0  0  0  0  0  0  0  0  0  0  0
   37.1830   26.3490   40.4370 C   0  0  0  0  0  0  0  0  0  0  0  0
   37.2870   27.6610   40.1380 N   0  0  0  0  0  0  0  0  0  0  0  0
   36.9600   26.5360   43.7950 H   0  0  0  0  0  0  0  0  0  0  0  0
   37.1960   25.6530   39.6080 H   0  0  0  0  0  0  0  0  0  0  0  0
   37.1570   29.2140   43.4440 N   0  0  0  0  0  0  0  0  0  0  0  0
   38.0810   29.3710   43.9450 H   0  0  0  0  0  0  0  0  0  0  0  0
   36.3310   29.8360   43.6810 H   0  0  0  0  0  0  0  0  0  0  0  0
  1  2  2  0  0  0  0
  3  1  1  0  0  0  0
  3 14  1  0  0  0  0
  4  3  1  0  0  0  0
  5  1  1  0  0  0  0
  5 13  1  0  0  0  0
  6  8  1  0  0  0  0
  6  5  1  0  0  0  0
  7  6  1  0  0  0  0
  8  9  1  0  0  0  0
 10  8  1  0  0  0  0
 10 12  1  0  0  0  0
 11 10  1  0  0  0  0
 12 13  1  0  0  0  0
 14 15  1  0  0  0  0
 15 16  2  0  0  0  0
 15 22  1  0  0  0  0
 16 20  1  0  0  0  0
 17 16  1  0  0  0  0
 18 17  2  0  0  0  0
 19 18  1  0  0  0  0
 19 14  2  0  0  0  0
 21 18  1  0  0  0  0
 22 24  1  0  0  0  0
 22 23  1  0  0  0  0
M  END
>  <minimizedAffinity>
-4.54937792

$$$$

 OpenBabel03252501333D

 24 25  0  0  0  0  0  0  0  0999 V2000
   38.8810   29.7580   41.4310 C   0  0  0  0  0  0  0  0  0  0  0  0
   38.9400   28.6540   40.8240 O   0  0  0  0  0  0  0  0  0  0  0  0
   39.4040   29.6720   42.7760 N   0  0  0  0  0  0  0  0  0  0  0  0
   39.4320   30.4890   43.3920 H   0  0  0  0  0  0  0  0  0  0  0  0
   38.3730   30.9810   40.9170 N   0  0  0  0  0  0  0  0  0  0  0  0
   37.1060   31.0010   40.1740 C   0  0  0  0  0  3  0  0  0  0  0  0
   36.3020   30.9680   40.9260 H   0  0  0  0  0  0  0  0  0  0  0  0
   37.0050   32.2640   39.3380 C   0  0  0  0  0  3  0  0  0  0  0  0
   37.7450   32.2230   38.5410 H   0  0  0  0  0  0  0  0  0  0  0  0
   37.3170   33.3980   40.2200 N   0  0  0  0  0  0  0  0  0  0  0  0
   36.8300   33.2140   41.1130 H   0  0  0  0  0  0  0  0  0  0  0  0
   38.7480   33.3660   40.4420 C   0  0  0  0  0  2  0  0  0  0  0  0
   39.1930   32.1460   41.1860 C   0  0  0  0  0  2  0  0  0  0  0  0
   39.8300   28.3050   43.0160 C   0  0  0  0  0  0  0  0  0  0  0  0
   39.0200   27.2760   43.4530 C   0  0  0  0  0  0  0  0  0  0  0  0
   39.6150   26.0330   43.6240 C   0  0  0  0  0  0  0  0  0  0  0  0
   40.9310   25.9320   43.3510 N   0  0  0  0  0  0  0  0  0  0  0  0
   41.6970   26.9500   42.9280 C   0  0  0  0  0  0  0  0  0  0  0  0
   41.1540   28.1720   42.7490 N   0  0  0  0  0  0  0  0  0  0  0  0
   38.9750   25.2510   43.9600 H   0  0  0  0  0  0  0  0  0  0  0  0
   42.7530   26.8440   42.7140 H   0  0  0  0  0  0  0  0  0  0  0  0
   37.6650   27.6050   43.6780 N   0  0  0  0  0  0  0  0  0  0  0  0
   37.4010   27.7610   44.6960 H   0  0  0  0  0  0  0  0  0  0  0  0
   36.9180   27.7030   42.9320 H   0  0  0  0  0  0  0  0  0  0  0  0
  1  3  1  0  0  0  0
  2  1  2  0  0  0  0
  3 14  1  0  0  0  0
  3  4  1  0  0  0  0
  5 13  1  0  0  0  0
  5  1  1  0  0  0  0
  6  5  1  0  0  0  0
  6  7  1  0  0  0  0
  8  6  1  0  0  0  0
  8 10  1  0  0  0  0
  9  8  1  0  0  0  0
 10 12  1  0  0  0  0
 10 11  1  0  0  0  0
 12 13  1  0  0  0  0
 14 15  1  0  0  0  0
 15 16  2  0  0  0  0
 15 22  1  0  0  0  0
 16 20  1  0  0  0  0
 17 16  1  0  0  0  0
 18 17  2  0  0  0  0
 19 18  1  0  0  0  0
 19 14  2  0  0  0  0
 21 18  1  0  0  0  0
 22 23  1  0  0  0  0
 24 22  1  0  0  0  0
M  END
>  <minimizedAffinity>
-4.54175425

$$$$

 OpenBabel03252501333D

 24 25  0  0  0  0  0  0  0  0999 V2000
   39.1940   30.6620   40.5930 C   0  0  0  0  0  0  0  0  0  0  0  0
   40.4530   30.6260   40.5380 O   0  0  0  0  0  0  0  0  0  0  0  0
   38.6330   31.6370   39.6830 N   0  0  0  0  0  0  0  0  0  0  0  0
   37.6240   31.7770   39.6060 H   0  0  0  0  0  0  0  0  0  0  0  0
   38.3590   29.8690   41.4240 N   0  0  0  0  0  0  0  0  0  0  0  0
   38.6960   29.6770   42.8420 C   0  0  0  0  0  3  0  0  0  0  0  0
   38.3730   30.5910   43.3660 H   0  0  0  0  0  0  0  0  0  0  0  0
   37.9750   28.4610   43.3940 C   0  0  0  0  0  3  0  0  0  0  0  0
   38.3840   27.5640   42.9310 H   0  0  0  0  0  0  0  0  0  0  0  0
   36.5590   28.5840   43.0220 N   0  0  0  0  0  0  0  0  0  0  0  0
   36.3020   29.5730   43.1810 H   0  0  0  0  0  0  0  0  0  0  0  0
   36.4770   28.2940   41.6060 C   0  0  0  0  0  2  0  0  0  0  0  0
   37.2010   29.2980   40.7640 C   0  0  0  0  0  2  0  0  0  0  0  0
   39.7250   32.2940   38.9860 C   0  0  0  0  0  0  0  0  0  0  0  0
   40.3330   31.8370   37.8340 C   0  0  0  0  0  0  0  0  0  0  0  0
   41.3640   32.6090   37.3160 C   0  0  0  0  0  0  0  0  0  0  0  0
   41.6880   33.7380   37.9770 N   0  0  0  0  0  0  0  0  0  0  0  0
   41.0810   34.1600   39.0970 C   0  0  0  0  0  0  0  0  0  0  0  0
   40.0740   33.4370   39.6300 N   0  0  0  0  0  0  0  0  0  0  0  0
   41.8210   32.2410   36.4270 H   0  0  0  0  0  0  0  0  0  0  0  0
   41.3580   35.0710   39.6110 H   0  0  0  0  0  0  0  0  0  0  0  0
   39.8330   30.6260   37.3070 N   0  0  0  0  0  0  0  0  0  0  0  0
   40.4160   29.7630   37.5240 H   0  0  0  0  0  0  0  0  0  0  0  0
   38.9510   30.5180   36.7290 H   0  0  0  0  0  0  0  0  0  0  0  0
  1  5  1  0  0  0  0
  2  1  2  0  0  0  0
  3  1  1  0  0  0  0
  4  3  1  0  0  0  0
  5  6  1  0  0  0  0
  6  7  1  0  0  0  0
  6  8  1  0  0  0  0
  9  8  1  0  0  0  0
 10 11  1  0  0  0  0
 10  8  1  0  0  0  0
 12 10  1  0  0  0  0
 13  5  1  0  0  0  0
 13 12  1  0  0  0  0
 14 19  1  0  0  0  0
 14  3  1  0  0  0  0
 15 14  2  0  0  0  0
 16 15  1  0  0  0  0
 16 17  2  0  0  0  0
 17 18  1  0  0  0  0
 18 21  1  0  0  0  0
 18 19  2  0  0  0  0
 20 16  1  0  0  0  0
 22 23  1  0  0  0  0
 22 15  1  0  0  0  0
 24 22  1  0  0  0  0
M  END
>  <minimizedAffinity>
-4.46012831

$$$$
