
 OpenBabel03252501113D

 20 21  0  0  0  0  0  0  0  0999 V2000
   47.0190   34.7930   41.9820 C   0  0  0  0  0  0  0  0  0  0  0  0
   47.9960   35.5350   41.7240 O   0  0  0  0  0  0  0  0  0  0  0  0
   46.6750   33.8250   40.9950 N   0  0  0  0  0  0  0  0  0  0  0  0
   45.3110   33.6090   40.6020 C   0  0  0  0  0  3  0  0  0  0  0  0
   44.7670   32.9780   41.3250 H   0  0  0  0  0  0  0  0  0  0  0  0
   45.1950   33.1130   39.1880 C   0  0  0  0  0  3  0  0  0  0  0  0
   45.4580   33.9340   38.4890 H   0  0  0  0  0  0  0  0  0  0  0  0
   45.9550   31.9290   38.9270 N   0  0  0  0  0  0  0  0  0  0  0  0
   45.3620   31.0830   38.9270 H   0  0  0  0  0  0  0  0  0  0  0  0
   47.0660   31.7240   39.8130 C   0  0  0  0  0  2  0  0  0  0  0  0
   47.6560   33.0110   40.3360 C   0  0  0  0  0  2  0  0  0  0  0  0
   44.6040   36.0270   44.4800 C   0  0  0  0  0  0  0  0  0  0  0  0
   45.3750   35.9410   43.3130 C   0  0  0  0  0  0  0  0  0  0  0  0
   46.2380   34.8570   43.1920 C   0  0  0  0  0  0  0  0  0  0  0  0
   46.2880   33.9410   44.2010 N   0  0  0  0  0  0  0  0  0  0  0  0
   45.5210   34.0670   45.3100 C   0  0  0  0  0  0  0  0  0  0  0  0
   44.6720   35.1160   45.4530 N   0  0  0  0  0  0  0  0  0  0  0  0
   43.9140   36.8550   44.6240 H   0  0  0  0  0  0  0  0  0  0  0  0
   45.2420   36.7260   42.5960 H   0  0  0  0  0  0  0  0  0  0  0  0
   45.7320   33.2260   45.9660 H   0  0  0  0  0  0  0  0  0  0  0  0
  1 14  1  0  0  0  0
  2  1  2  0  0  0  0
  3  1  1  0  0  0  0
  4  3  1  0  0  0  0
  4  5  1  0  0  0  0
  6  4  1  0  0  0  0
  7  6  1  0  0  0  0
  8  9  1  0  0  0  0
  8  6  1  0  0  0  0
  8 10  1  0  0  0  0
 10 11  1  0  0  0  0
 11  3  1  0  0  0  0
 12 18  1  0  0  0  0
 12 17  1  0  0  0  0
 13 12  2  0  0  0  0
 14 13  1  0  0  0  0
 14 15  2  0  0  0  0
 15 16  1  0  0  0  0
 16 17  2  0  0  0  0
 16 20  1  0  0  0  0
 19 13  1  0  0  0  0
M  END
>  <minimizedAffinity>
-4.02690268

>  <minimizedRMSD>
0.377574146

$$$$
