
 OpenBabel03252501113D

 20 21  0  0  0  0  0  0  0  0999 V2000
   47.0690   34.3770   42.3800 C   0  0  0  0  0  0  0  0  0  0  0  0
   48.2010   34.8870   42.2080 O   0  0  0  0  0  0  0  0  0  0  0  0
   46.5870   33.5290   41.3410 N   0  0  0  0  0  0  0  0  0  0  0  0
   45.9730   32.2640   41.6320 C   0  0  0  0  0  3  0  0  0  0  0  0
   46.7190   31.4790   41.8420 H   0  0  0  0  0  0  0  0  0  0  0  0
   44.9780   31.8580   40.5800 C   0  0  0  0  0  3  0  0  0  0  0  0
   44.0850   32.5130   40.6480 H   0  0  0  0  0  0  0  0  0  0  0  0
   45.5170   31.8290   39.2550 N   0  0  0  0  0  0  0  0  0  0  0  0
   45.7390   30.8670   38.9500 H   0  0  0  0  0  0  0  0  0  0  0  0
   46.6700   32.6620   39.0600 C   0  0  0  0  0  2  0  0  0  0  0  0
   46.6810   33.8790   39.9520 C   0  0  0  0  0  2  0  0  0  0  0  0
   44.5210   35.8710   44.5860 C   0  0  0  0  0  0  0  0  0  0  0  0
   45.3370   35.6430   43.4710 C   0  0  0  0  0  0  0  0  0  0  0  0
   46.2410   34.5880   43.5410 C   0  0  0  0  0  0  0  0  0  0  0  0
   46.2840   33.8360   44.6770 N   0  0  0  0  0  0  0  0  0  0  0  0
   45.4730   34.0940   45.7300 C   0  0  0  0  0  0  0  0  0  0  0  0
   44.5840   35.1190   45.6870 N   0  0  0  0  0  0  0  0  0  0  0  0
   43.7980   36.6840   44.5820 H   0  0  0  0  0  0  0  0  0  0  0  0
   45.2040   36.3080   42.6400 H   0  0  0  0  0  0  0  0  0  0  0  0
   45.6880   33.3700   46.5100 H   0  0  0  0  0  0  0  0  0  0  0  0
  1 14  1  0  0  0  0
  2  1  2  0  0  0  0
  3  4  1  0  0  0  0
  3  1  1  0  0  0  0
  4  5  1  0  0  0  0
  6  7  1  0  0  0  0
  6  4  1  0  0  0  0
  8  6  1  0  0  0  0
  9  8  1  0  0  0  0
 10  8  1  0  0  0  0
 10 11  1  0  0  0  0
 11  3  1  0  0  0  0
 12 17  1  0  0  0  0
 13 14  1  0  0  0  0
 13 12  2  0  0  0  0
 14 15  2  0  0  0  0
 15 16  1  0  0  0  0
 16 20  1  0  0  0  0
 17 16  2  0  0  0  0
 18 12  1  0  0  0  0
 19 13  1  0  0  0  0
M  END
>  <minimizedAffinity>
-3.7422359

>  <minimizedRMSD>
0.585310102

$$$$
