
 OpenBabel03242516223D

 29 31  0  0  1  0  0  0  0  0999 V2000
   46.0010   32.7400   47.0590 C   0  0  0  0  0  0  0  0  0  0  0  0
   47.2710   32.4250   47.5380 C   0  0  0  0  0  0  0  0  0  0  0  0
   47.4050   31.6270   48.6630 C   0  0  0  0  0  0  0  0  0  0  0  0
   46.3100   31.1280   49.3360 C   0  0  0  0  0  0  0  0  0  0  0  0
   45.0720   31.4330   48.8730 C   0  0  0  0  0  0  0  0  0  0  0  0
   44.9230   32.2270   47.7510 C   0  0  0  0  0  0  0  0  0  0  0  0
   48.0990   32.8460   46.9670 H   0  0  0  0  0  0  0  0  0  0  0  0
   46.5280   30.5110   50.2110 H   0  0  0  0  0  0  0  0  0  0  0  0
   44.2330   31.0270   49.4220 H   0  0  0  0  0  0  0  0  0  0  0  0
   43.9340   32.4730   47.3780 H   0  0  0  0  0  0  0  0  0  0  0  0
   44.7220   35.3580   44.8580 C   0  0  0  0  0  0  0  0  0  0  0  0
   45.4860   35.2110   43.6870 C   0  0  0  0  0  0  0  0  0  0  0  0
   46.4460   34.2060   43.6540 C   0  0  0  0  0  0  0  0  0  0  0  0
   46.5950   33.4190   44.7520 N   0  0  0  0  0  0  0  0  0  0  0  0
   45.8490   33.5790   45.8720 C   0  0  0  0  0  0  0  0  0  0  0  0
   44.9100   34.5520   45.9220 N   0  0  0  0  0  0  0  0  0  0  0  0
   43.9980   36.1600   44.8090 H   0  0  0  0  0  0  0  0  0  0  0  0
   45.4040   35.8050   42.7980 H   0  0  0  0  0  0  0  0  0  0  0  0
   47.1160   33.9520   42.8450 H   0  0  0  0  0  0  0  0  0  0  0  0
   49.0590   31.2680   49.2220 S   0  0  0  0  0  0  0  0  0  0  0  0
   51.6420   28.9970   48.2250 H   0  0  0  0  0  0  0  0  0  0  0  0
   51.1360   29.7510   48.7290 N   0  0  0  0  0  0  0  0  0  0  0  0
   49.8040   29.9380   48.2000 C   0  0  1  0  0  3  0  0  0  0  0  0
   48.9640   28.7210   48.2150 C   0  0  0  0  0  3  0  0  0  0  0  0
   47.9160   28.9950   48.4510 H   0  0  0  0  0  0  0  0  0  0  0  0
   49.3730   27.6700   49.0780 N   0  0  0  0  0  0  0  0  0  0  0  0
   48.5950   27.1470   49.5420 H   0  0  0  0  0  0  0  0  0  0  0  0
   50.4100   27.9050   50.0050 C   0  0  0  0  0  2  0  0  0  0  0  0
   50.9230   29.3020   50.1160 C   0  0  0  0  0  2  0  0  0  0  0  0
  1  2  2  0  0  0  0
  1  6  1  0  0  0  0
  2  3  1  0  0  0  0
  3 20  1  0  0  0  0
  3  4  2  0  0  0  0
  4  8  1  0  0  0  0
  5  4  1  0  0  0  0
  5  9  1  0  0  0  0
  6  5  2  0  0  0  0
  7  2  1  0  0  0  0
 10  6  1  0  0  0  0
 11 16  1  0  0  0  0
 12 11  2  0  0  0  0
 13 12  1  0  0  0  0
 13 14  2  0  0  0  0
 14 15  1  0  0  0  0
 15 16  2  0  0  0  0
 15  1  1  0  0  0  0
 17 11  1  0  0  0  0
 18 12  1  0  0  0  0
 19 13  1  0  0  0  0
 21 22  1  0  0  0  0
 22 29  1  0  0  0  0
 23 24  1  0  0  0  0
 23 22  1  0  0  0  0
 23 20  1  1  0  0  0
 24 25  1  0  0  0  0
 24 26  1  0  0  0  0
 26 27  1  0  0  0  0
 26 28  1  0  0  0  0
 28 29  1  0  0  0  0
M  END
>  <minimizedAffinity>
-5.45240593

>  <minimizedRMSD>
0.655136049

$$$$
