
 OpenBabel03242521093D

 19 20  0  0  1  0  0  0  0  0999 V2000
   46.3150   32.6000   46.0850 S   0  0  0  0  0  0  0  0  0  0  0  0
   44.4910   35.9220   44.7300 C   0  0  0  0  0  0  0  0  0  0  0  0
   45.0600   36.0320   43.4400 C   0  0  0  0  0  0  0  0  0  0  0  0
   45.9870   35.0690   43.0430 C   0  0  0  0  0  0  0  0  0  0  0  0
   46.2810   34.0910   43.9240 N   0  0  0  0  0  0  0  0  0  0  0  0
   45.7300   33.9980   45.1520 C   0  0  0  0  0  0  0  0  0  0  0  0
   44.8410   34.9140   45.5460 N   0  0  0  0  0  0  0  0  0  0  0  0
   43.7880   36.6650   45.0110 H   0  0  0  0  0  0  0  0  0  0  0  0
   44.8440   36.7960   42.7260 H   0  0  0  0  0  0  0  0  0  0  0  0
   46.4460   35.1190   42.0600 H   0  0  0  0  0  0  0  0  0  0  0  0
   43.8680   31.9910   47.1360 H   0  0  0  0  0  0  0  0  0  0  0  0
   44.5790   31.6380   47.8000 N   0  0  0  0  0  0  0  0  0  0  0  0
   45.6910   32.5820   47.7850 C   0  0  1  0  0  3  0  0  0  0  0  0
   46.7450   31.9980   48.7270 C   0  0  0  0  0  3  0  0  0  0  0  0
   46.9800   32.7210   49.5580 H   0  0  0  0  0  0  0  0  0  0  0  0
   46.2960   30.7890   49.3790 N   0  0  0  0  0  0  0  0  0  0  0  0
   45.4300   31.0410   49.9310 H   0  0  0  0  0  0  0  0  0  0  0  0
   45.9100   29.7650   48.4310 C   0  0  0  0  0  2  0  0  0  0  0  0
   45.1120   30.3740   47.3140 C   0  0  0  0  0  2  0  0  0  0  0  0
  2  8  1  0  0  0  0
  2  7  1  0  0  0  0
  3  2  2  0  0  0  0
  4  3  1  0  0  0  0
  4  5  2  0  0  0  0
  5  6  1  0  0  0  0
  6  7  2  0  0  0  0
  6  1  1  0  0  0  0
  9  3  1  0  0  0  0
 10  4  1  0  0  0  0
 11 12  1  0  0  0  0
 13  1  1  6  0  0  0
 13 12  1  0  0  0  0
 13 14  1  0  0  0  0
 14 16  1  0  0  0  0
 14 15  1  0  0  0  0
 16 17  1  0  0  0  0
 18 16  1  0  0  0  0
 19 12  1  0  0  0  0
 19 18  1  0  0  0  0
M  END
>  <minimizedAffinity>
-4.66378689

>  <minimizedRMSD>
2.17558742

$$$$
