
 OpenBabel03242516213D

 29 31  0  0  1  0  0  0  0  0999 V2000
   46.0570   32.7710   47.0520 C   0  0  0  0  0  0  0  0  0  0  0  0
   47.3430   32.5500   47.5420 C   0  0  0  0  0  0  0  0  0  0  0  0
   47.5270   31.7540   48.6620 C   0  0  0  0  0  0  0  0  0  0  0  0
   46.4660   31.1660   49.3190 C   0  0  0  0  0  0  0  0  0  0  0  0
   45.2140   31.3790   48.8450 C   0  0  0  0  0  0  0  0  0  0  0  0
   45.0150   32.1700   47.7280 C   0  0  0  0  0  0  0  0  0  0  0  0
   48.1420   33.0390   46.9830 H   0  0  0  0  0  0  0  0  0  0  0  0
   46.7230   30.5590   50.1900 H   0  0  0  0  0  0  0  0  0  0  0  0
   44.4030   30.9040   49.3810 H   0  0  0  0  0  0  0  0  0  0  0  0
   44.0140   32.3430   47.3470 H   0  0  0  0  0  0  0  0  0  0  0  0
   44.6670   35.3680   44.8950 C   0  0  0  0  0  0  0  0  0  0  0  0
   45.3930   35.2320   43.7000 C   0  0  0  0  0  0  0  0  0  0  0  0
   46.3660   34.2410   43.6350 C   0  0  0  0  0  0  0  0  0  0  0  0
   46.5640   33.4580   44.7260 N   0  0  0  0  0  0  0  0  0  0  0  0
   45.8530   33.6060   45.8710 C   0  0  0  0  0  0  0  0  0  0  0  0
   44.9020   34.5650   45.9520 N   0  0  0  0  0  0  0  0  0  0  0  0
   43.9290   36.1590   44.8710 H   0  0  0  0  0  0  0  0  0  0  0  0
   45.2720   35.8250   42.8140 H   0  0  0  0  0  0  0  0  0  0  0  0
   47.0120   33.9970   42.8030 H   0  0  0  0  0  0  0  0  0  0  0  0
   49.1970   31.5180   49.2360 S   0  0  0  0  0  0  0  0  0  0  0  0
   50.2230   28.1130   48.8170 H   0  0  0  0  0  0  0  0  0  0  0  0
   50.0210   29.1110   48.6150 N   0  0  0  0  0  0  0  0  0  0  0  0
   49.4520   29.7780   49.7630 C   0  0  1  0  0  3  0  0  0  0  0  0
   50.2830   29.7090   50.9850 C   0  0  0  0  0  3  0  0  0  0  0  0
   50.2050   30.6630   51.5410 H   0  0  0  0  0  0  0  0  0  0  0  0
   51.6550   29.3860   50.8100 N   0  0  0  0  0  0  0  0  0  0  0  0
   52.3140   29.8820   51.4510 H   0  0  0  0  0  0  0  0  0  0  0  0
   52.1920   29.3470   49.5070 C   0  0  0  0  0  2  0  0  0  0  0  0
   51.3070   29.7940   48.3910 C   0  0  0  0  0  2  0  0  0  0  0  0
  1  2  2  0  0  0  0
  1  6  1  0  0  0  0
  2  3  1  0  0  0  0
  3 20  1  0  0  0  0
  3  4  2  0  0  0  0
  4  8  1  0  0  0  0
  5  4  1  0  0  0  0
  5  9  1  0  0  0  0
  6  5  2  0  0  0  0
  7  2  1  0  0  0  0
 10  6  1  0  0  0  0
 11 16  1  0  0  0  0
 12 11  2  0  0  0  0
 13 12  1  0  0  0  0
 13 14  2  0  0  0  0
 14 15  1  0  0  0  0
 15 16  2  0  0  0  0
 15  1  1  0  0  0  0
 17 11  1  0  0  0  0
 18 12  1  0  0  0  0
 19 13  1  0  0  0  0
 22 21  1  0  0  0  0
 22 23  1  0  0  0  0
 23 20  1  6  0  0  0
 23 24  1  0  0  0  0
 24 25  1  0  0  0  0
 26 24  1  0  0  0  0
 26 27  1  0  0  0  0
 28 26  1  0  0  0  0
 29 22  1  0  0  0  0
 29 28  1  0  0  0  0
M  END
>  <minimizedAffinity>
-5.23613596

>  <minimizedRMSD>
0.802842677

$$$$
