
 OpenBabel03242521093D

 19 20  0  0  1  0  0  0  0  0999 V2000
   45.7780   32.7080   47.3150 S   0  0  0  0  0  0  0  0  0  0  0  0
   44.6110   35.6190   44.7930 C   0  0  0  0  0  0  0  0  0  0  0  0
   45.3760   35.3010   43.6470 C   0  0  0  0  0  0  0  0  0  0  0  0
   46.2230   34.1950   43.7030 C   0  0  0  0  0  0  0  0  0  0  0  0
   46.2560   33.4980   44.8570 N   0  0  0  0  0  0  0  0  0  0  0  0
   45.5210   33.8130   45.9440 C   0  0  0  0  0  0  0  0  0  0  0  0
   44.7050   34.8700   45.9040 N   0  0  0  0  0  0  0  0  0  0  0  0
   43.9730   36.4640   44.7270 H   0  0  0  0  0  0  0  0  0  0  0  0
   45.3670   35.8370   42.7220 H   0  0  0  0  0  0  0  0  0  0  0  0
   46.8260   33.9190   42.8430 H   0  0  0  0  0  0  0  0  0  0  0  0
   46.4280   31.0990   45.2050 H   0  0  0  0  0  0  0  0  0  0  0  0
   46.4240   30.5020   46.0520 N   0  0  0  0  0  0  0  0  0  0  0  0
   45.3600   30.9910   46.9190 C   0  0  1  0  0  3  0  0  0  0  0  0
   45.4230   30.1290   48.1820 C   0  0  0  0  0  3  0  0  0  0  0  0
   44.4440   29.5990   48.3520 H   0  0  0  0  0  0  0  0  0  0  0  0
   46.4190   29.0850   48.0890 N   0  0  0  0  0  0  0  0  0  0  0  0
   46.1560   28.4810   47.2620 H   0  0  0  0  0  0  0  0  0  0  0  0
   47.7410   29.6100   47.8250 C   0  0  0  0  0  2  0  0  0  0  0  0
   47.6680   30.6920   46.7840 C   0  0  0  0  0  2  0  0  0  0  0  0
  2  7  1  0  0  0  0
  3  4  1  0  0  0  0
  3  2  2  0  0  0  0
  4  5  2  0  0  0  0
  5  6  1  0  0  0  0
  6  1  1  0  0  0  0
  7  6  2  0  0  0  0
  8  2  1  0  0  0  0
  9  3  1  0  0  0  0
 10  4  1  0  0  0  0
 11 12  1  0  0  0  0
 12 19  1  0  0  0  0
 12 13  1  0  0  0  0
 13  1  1  1  0  0  0
 13 14  1  0  0  0  0
 14 15  1  0  0  0  0
 16 14  1  0  0  0  0
 17 16  1  0  0  0  0
 18 16  1  0  0  0  0
 19 18  1  0  0  0  0
M  END
>  <minimizedAffinity>
-3.77137208

>  <minimizedRMSD>
1.31342006

$$$$
