
 OpenBabel03242521093D

 19 20  0  0  1  0  0  0  0  0999 V2000
   46.7330   32.4870   45.8680 S   0  0  0  0  0  0  0  0  0  0  0  0
   44.5230   35.6970   44.8650 C   0  0  0  0  0  0  0  0  0  0  0  0
   44.9990   35.9500   43.5580 C   0  0  0  0  0  0  0  0  0  0  0  0
   45.9870   35.1130   43.0400 C   0  0  0  0  0  0  0  0  0  0  0  0
   46.4250   34.1110   43.8280 N   0  0  0  0  0  0  0  0  0  0  0  0
   45.9630   33.8810   45.0750 C   0  0  0  0  0  0  0  0  0  0  0  0
   45.0170   34.6750   45.5840 N   0  0  0  0  0  0  0  0  0  0  0  0
   43.7720   36.3460   45.2380 H   0  0  0  0  0  0  0  0  0  0  0  0
   44.6670   36.7360   42.9150 H   0  0  0  0  0  0  0  0  0  0  0  0
   46.3770   35.2760   42.0400 H   0  0  0  0  0  0  0  0  0  0  0  0
   46.1510   29.8700   46.3950 H   0  0  0  0  0  0  0  0  0  0  0  0
   46.1940   30.3600   47.3060 N   0  0  0  0  0  0  0  0  0  0  0  0
   45.6630   31.7020   47.1010 C   0  0  1  0  0  3  0  0  0  0  0  0
   45.7990   32.4150   48.4480 C   0  0  0  0  0  3  0  0  0  0  0  0
   44.7950   32.7660   48.8160 H   0  0  0  0  0  0  0  0  0  0  0  0
   46.3100   31.5450   49.4840 N   0  0  0  0  0  0  0  0  0  0  0  0
   45.6270   30.7420   49.5760 H   0  0  0  0  0  0  0  0  0  0  0  0
   47.5910   30.9710   49.1370 C   0  0  0  0  0  2  0  0  0  0  0  0
   47.5850   30.5280   47.7010 C   0  0  0  0  0  2  0  0  0  0  0  0
  2  8  1  0  0  0  0
  2  7  1  0  0  0  0
  3  2  2  0  0  0  0
  4  3  1  0  0  0  0
  4  5  2  0  0  0  0
  5  6  1  0  0  0  0
  6  7  2  0  0  0  0
  6  1  1  0  0  0  0
  9  3  1  0  0  0  0
 10  4  1  0  0  0  0
 11 12  1  0  0  0  0
 12 19  1  0  0  0  0
 13  1  1  6  0  0  0
 13 12  1  0  0  0  0
 13 14  1  0  0  0  0
 14 15  1  0  0  0  0
 14 16  1  0  0  0  0
 16 17  1  0  0  0  0
 18 16  1  0  0  0  0
 19 18  1  0  0  0  0
M  END
>  <minimizedAffinity>
-4.46006918

>  <minimizedRMSD>
1.40303814

$$$$
