
 OpenBabel03242518273D

 45 49  0  0  1  0  0  0  0  0999 V2000
   34.7600   28.8890   38.3670 C   0  0  0  0  0  0  0  0  0  0  0  0
   34.8020   28.6810   37.0010 C   0  0  0  0  0  0  0  0  0  0  0  0
   35.8090   29.3100   36.2880 C   0  0  0  0  0  0  0  0  0  0  0  0
   36.7080   30.0950   36.9310 N   0  0  0  0  0  0  0  0  0  0  0  0
   36.6420   30.2790   38.2610 C   0  0  0  0  0  0  0  0  0  0  0  0
   35.6750   29.6800   38.9730 N   0  0  0  0  0  0  0  0  0  0  0  0
   34.0240   28.4520   39.0220 H   0  0  0  0  0  0  0  0  0  0  0  0
   35.8260   29.1360   35.2250 H   0  0  0  0  0  0  0  0  0  0  0  0
   33.7990   27.8350   36.4610 N   0  0  0  0  0  0  0  0  0  0  0  0
   33.7590   26.4780   36.9320 C   0  0  0  0  0  0  0  0  0  0  0  0
   32.7490   25.6330   36.2430 C   0  0  0  0  0  0  0  0  0  0  0  0
   31.4680   26.2700   36.1610 N   0  0  0  0  0  0  0  0  0  0  0  0
   31.4410   27.6630   35.9050 C   0  0  0  0  0  0  0  0  0  0  0  0
   32.8000   28.1700   35.4870 C   0  0  0  0  0  0  0  0  0  0  0  0
   34.7590   26.0300   36.7610 H   0  0  0  0  0  0  0  0  0  0  0  0
   33.6100   26.5110   38.0360 H   0  0  0  0  0  0  0  0  0  0  0  0
   33.1400   25.3800   35.2330 H   0  0  0  0  0  0  0  0  0  0  0  0
   32.6360   24.6790   36.7950 H   0  0  0  0  0  0  0  0  0  0  0  0
   30.7820   25.9380   36.8720 H   0  0  0  0  0  0  0  0  0  0  0  0
   30.6710   27.9750   35.1920 H   0  0  0  0  0  0  0  0  0  0  0  0
   31.1840   28.1770   36.8670 H   0  0  0  0  0  0  0  0  0  0  0  0
   33.1090   27.7000   34.5270 H   0  0  0  0  0  0  0  0  0  0  0  0
   32.7770   29.2600   35.2810 H   0  0  0  0  0  0  0  0  0  0  0  0
   37.3140   32.4170   39.2640 C   0  0  0  0  0  0  0  0  0  0  0  0
   37.6300   31.1360   38.9270 C   0  0  0  0  0  0  0  0  0  0  0  0
   38.8910   30.6780   39.2280 C   0  0  0  0  0  0  0  0  0  0  0  0
   39.8060   31.4920   39.8500 C   0  0  0  0  0  0  0  0  0  0  0  0
   39.4670   32.8060   40.1900 C   0  0  0  0  0  0  0  0  0  0  0  0
   38.1970   33.2830   39.8940 C   0  0  0  0  0  0  0  0  0  0  0  0
   40.5730   33.3930   40.8040 O   0  0  0  0  0  0  0  0  0  0  0  0
   41.7000   32.5530   40.5710 C   0  0  1  0  0  0  0  0  0  0  0  0
   41.1210   31.3010   40.2660 O   0  0  0  0  0  0  0  0  0  0  0  0
   36.3290   32.8120   39.0420 H   0  0  0  0  0  0  0  0  0  0  0  0
   39.1300   29.6540   38.9520 H   0  0  0  0  0  0  0  0  0  0  0  0
   37.8880   34.2820   40.1340 H   0  0  0  0  0  0  0  0  0  0  0  0
   42.2670   32.4310   41.5180 H   0  0  0  0  0  0  0  0  0  0  0  0
   42.5530   33.0510   39.5450 N   0  0  2  0  0  0  0  0  0  0  0  0
   42.5880   34.4560   39.3640 C   0  0  0  0  0  3  0  0  0  0  0  0
   41.9100   34.9310   40.1110 H   0  0  0  0  0  0  0  0  0  0  0  0
   42.1330   34.9330   38.0150 C   0  0  0  0  0  3  0  0  0  0  0  0
   42.5420   35.9570   37.8620 H   0  0  0  0  0  0  0  0  0  0  0  0
   42.6140   34.1030   36.9340 N   0  0  0  0  0  0  0  0  0  0  0  0
   43.6520   34.0000   36.9970 H   0  0  0  0  0  0  0  0  0  0  0  0
   42.0580   32.7720   37.1550 C   0  0  0  0  0  2  0  0  0  0  0  0
   42.7270   32.2350   38.3990 C   0  0  0  0  0  2  0  0  0  0  0  0
  1  6  1  0  0  0  0
  1  7  1  0  0  0  0
  2  1  2  0  0  0  0
  3  4  2  0  0  0  0
  3  2  1  0  0  0  0
  4  5  1  0  0  0  0
  5 25  1  0  0  0  0
  5  6  2  0  0  0  0
  8  3  1  0  0  0  0
  9 10  1  0  0  0  0
  9  2  1  0  0  0  0
 10 16  1  0  0  0  0
 11 18  1  0  0  0  0
 11 10  1  0  0  0  0
 12 11  1  0  0  0  0
 12 19  1  0  0  0  0
 13 12  1  0  0  0  0
 13 21  1  0  0  0  0
 14 13  1  0  0  0  0
 14  9  1  0  0  0  0
 15 10  1  0  0  0  0
 17 11  1  0  0  0  0
 20 13  1  0  0  0  0
 22 14  1  0  0  0  0
 23 14  1  0  0  0  0
 24 29  1  0  0  0  0
 25 26  1  0  0  0  0
 25 24  2  0  0  0  0
 26 27  2  0  0  0  0
 27 28  1  0  0  0  0
 27 32  1  0  0  0  0
 28 30  1  0  0  0  0
 29 35  1  0  0  0  0
 29 28  2  0  0  0  0
 31 30  1  0  0  0  0
 31 36  1  1  0  0  0
 32 31  1  0  0  0  0
 33 24  1  0  0  0  0
 34 26  1  0  0  0  0
 37 45  1  6  0  0  0
 37 31  1  0  0  0  0
 38 37  1  0  0  0  0
 38 39  1  0  0  0  0
 40 38  1  0  0  0  0
 41 40  1  0  0  0  0
 42 43  1  0  0  0  0
 42 44  1  0  0  0  0
 42 40  1  0  0  0  0
 44 45  1  0  0  0  0
M  END
>  <minimizedAffinity>
-5.77060986

$$$$

 OpenBabel03242518273D

 45 49  0  0  1  0  0  0  0  0999 V2000
   38.1150   25.7120   39.1630 C   0  0  0  0  0  0  0  0  0  0  0  0
   37.4390   25.0290   40.1560 C   0  0  0  0  0  0  0  0  0  0  0  0
   37.0530   25.7440   41.2770 C   0  0  0  0  0  0  0  0  0  0  0  0
   37.3380   27.0660   41.3710 N   0  0  0  0  0  0  0  0  0  0  0  0
   37.9960   27.7040   40.3880 C   0  0  0  0  0  0  0  0  0  0  0  0
   38.3810   27.0320   39.2930 N   0  0  0  0  0  0  0  0  0  0  0  0
   38.4640   25.2600   38.2480 H   0  0  0  0  0  0  0  0  0  0  0  0
   36.5280   25.1950   42.0420 H   0  0  0  0  0  0  0  0  0  0  0  0
   37.2090   23.6480   39.9260 N   0  0  0  0  0  0  0  0  0  0  0  0
   36.0980   23.2980   39.0840 C   0  0  0  0  0  0  0  0  0  0  0  0
   35.8630   21.8350   38.9780 C   0  0  0  0  0  0  0  0  0  0  0  0
   37.0660   21.1050   38.7050 N   0  0  0  0  0  0  0  0  0  0  0  0
   38.2550   21.5330   39.3470 C   0  0  0  0  0  0  0  0  0  0  0  0
   37.9580   22.5350   40.4360 C   0  0  0  0  0  0  0  0  0  0  0  0
   35.1880   23.7630   39.5120 H   0  0  0  0  0  0  0  0  0  0  0  0
   36.2660   23.7780   38.0920 H   0  0  0  0  0  0  0  0  0  0  0  0
   35.3880   21.4900   39.9230 H   0  0  0  0  0  0  0  0  0  0  0  0
   35.1390   21.6410   38.1620 H   0  0  0  0  0  0  0  0  0  0  0  0
   37.1800   20.8290   37.7060 H   0  0  0  0  0  0  0  0  0  0  0  0
   38.8800   20.7180   39.7260 H   0  0  0  0  0  0  0  0  0  0  0  0
   38.8800   22.0610   38.5820 H   0  0  0  0  0  0  0  0  0  0  0  0
   37.3430   22.0660   41.2360 H   0  0  0  0  0  0  0  0  0  0  0  0
   38.8880   22.8660   40.9440 H   0  0  0  0  0  0  0  0  0  0  0  0
   37.2900   30.0240   40.7790 C   0  0  0  0  0  0  0  0  0  0  0  0
   38.2900   29.1370   40.5200 C   0  0  0  0  0  0  0  0  0  0  0  0
   39.5690   29.6220   40.3860 C   0  0  0  0  0  0  0  0  0  0  0  0
   39.8300   30.9650   40.5110 C   0  0  0  0  0  0  0  0  0  0  0  0
   38.7930   31.8640   40.7780 C   0  0  0  0  0  0  0  0  0  0  0  0
   37.4950   31.3890   40.9160 C   0  0  0  0  0  0  0  0  0  0  0  0
   39.3390   33.1460   40.8540 O   0  0  0  0  0  0  0  0  0  0  0  0
   40.6630   33.0880   40.3300 C   0  0  1  0  0  0  0  0  0  0  0  0
   40.9980   31.7190   40.4280 O   0  0  0  0  0  0  0  0  0  0  0  0
   36.2690   29.6770   40.8910 H   0  0  0  0  0  0  0  0  0  0  0  0
   40.3580   28.9030   40.1780 H   0  0  0  0  0  0  0  0  0  0  0  0
   36.6650   32.0370   41.1210 H   0  0  0  0  0  0  0  0  0  0  0  0
   41.3480   33.6430   41.0050 H   0  0  0  0  0  0  0  0  0  0  0  0
   40.7510   33.6010   39.0040 N   0  0  2  0  0  0  0  0  0  0  0  0
   40.8010   32.6560   37.9510 C   0  0  0  0  0  3  0  0  0  0  0  0
   40.7470   31.6300   38.3850 H   0  0  0  0  0  0  0  0  0  0  0  0
   42.0520   32.6980   37.1200 C   0  0  0  0  0  3  0  0  0  0  0  0
   41.8290   32.2050   36.1470 H   0  0  0  0  0  0  0  0  0  0  0  0
   42.4920   34.0460   36.8370 N   0  0  0  0  0  0  0  0  0  0  0  0
   41.7090   34.5970   36.4180 H   0  0  0  0  0  0  0  0  0  0  0  0
   42.7840   34.6650   38.1260 C   0  0  0  0  0  2  0  0  0  0  0  0
   41.4560   34.8190   38.8310 C   0  0  0  0  0  2  0  0  0  0  0  0
  1  6  2  0  0  0  0
  1  2  1  0  0  0  0
  2  3  2  0  0  0  0
  3  4  1  0  0  0  0
  3  8  1  0  0  0  0
  5 25  1  0  0  0  0
  5  4  2  0  0  0  0
  6  5  1  0  0  0  0
  7  1  1  0  0  0  0
  9  2  1  0  0  0  0
  9 14  1  0  0  0  0
 10 15  1  0  0  0  0
 10  9  1  0  0  0  0
 11 10  1  0  0  0  0
 11 17  1  0  0  0  0
 12 11  1  0  0  0  0
 12 13  1  0  0  0  0
 13 20  1  0  0  0  0
 13 14  1  0  0  0  0
 14 23  1  0  0  0  0
 14 22  1  0  0  0  0
 16 10  1  0  0  0  0
 18 11  1  0  0  0  0
 19 12  1  0  0  0  0
 21 13  1  0  0  0  0
 24 33  1  0  0  0  0
 24 29  1  0  0  0  0
 25 24  2  0  0  0  0
 26 27  2  0  0  0  0
 26 25  1  0  0  0  0
 27 28  1  0  0  0  0
 28 30  1  0  0  0  0
 28 29  2  0  0  0  0
 29 35  1  0  0  0  0
 31 32  1  0  0  0  0
 31 30  1  0  0  0  0
 31 36  1  1  0  0  0
 32 27  1  0  0  0  0
 34 26  1  0  0  0  0
 37 45  1  1  0  0  0
 37 31  1  0  0  0  0
 38 39  1  0  0  0  0
 38 37  1  0  0  0  0
 40 38  1  0  0  0  0
 41 40  1  0  0  0  0
 42 40  1  0  0  0  0
 42 44  1  0  0  0  0
 43 42  1  0  0  0  0
 44 45  1  0  0  0  0
M  END
>  <minimizedAffinity>
-5.67610407

$$$$

 OpenBabel03242518273D

 45 49  0  0  1  0  0  0  0  0999 V2000
   38.1190   27.3580   39.4890 C   0  0  0  0  0  0  0  0  0  0  0  0
   37.3970   26.8940   40.5740 C   0  0  0  0  0  0  0  0  0  0  0  0
   37.1950   27.7670   41.6290 C   0  0  0  0  0  0  0  0  0  0  0  0
   37.6960   29.0250   41.5760 N   0  0  0  0  0  0  0  0  0  0  0  0
   38.3940   29.4480   40.5070 C   0  0  0  0  0  0  0  0  0  0  0  0
   38.6020   28.6210   39.4730 N   0  0  0  0  0  0  0  0  0  0  0  0
   38.3380   26.7690   38.6130 H   0  0  0  0  0  0  0  0  0  0  0  0
   36.6310   27.3880   42.4660 H   0  0  0  0  0  0  0  0  0  0  0  0
   36.9320   25.5560   40.4960 N   0  0  0  0  0  0  0  0  0  0  0  0
   36.2710   25.1590   39.2830 C   0  0  0  0  0  0  0  0  0  0  0  0
   35.7240   23.7780   39.3220 C   0  0  0  0  0  0  0  0  0  0  0  0
   36.6750   22.8270   39.8170 N   0  0  0  0  0  0  0  0  0  0  0  0
   37.5130   23.2300   40.8850 C   0  0  0  0  0  0  0  0  0  0  0  0
   37.0410   24.5290   41.4920 C   0  0  0  0  0  0  0  0  0  0  0  0
   35.4280   25.8590   39.1110 H   0  0  0  0  0  0  0  0  0  0  0  0
   36.9890   25.3120   38.4450 H   0  0  0  0  0  0  0  0  0  0  0  0
   34.8010   23.7870   39.9440 H   0  0  0  0  0  0  0  0  0  0  0  0
   35.4220   23.4780   38.2990 H   0  0  0  0  0  0  0  0  0  0  0  0
   37.1460   22.2690   39.0730 H   0  0  0  0  0  0  0  0  0  0  0  0
   37.6560   22.4670   41.6580 H   0  0  0  0  0  0  0  0  0  0  0  0
   38.5320   23.4210   40.4600 H   0  0  0  0  0  0  0  0  0  0  0  0
   36.0310   24.4010   41.9420 H   0  0  0  0  0  0  0  0  0  0  0  0
   37.6940   24.8410   42.3330 H   0  0  0  0  0  0  0  0  0  0  0  0
   38.1610   31.8420   40.0100 C   0  0  0  0  0  0  0  0  0  0  0  0
   38.9240   30.8180   40.4800 C   0  0  0  0  0  0  0  0  0  0  0  0
   40.1940   31.1030   40.9220 C   0  0  0  0  0  0  0  0  0  0  0  0
   40.6790   32.3890   40.8890 C   0  0  0  0  0  0  0  0  0  0  0  0
   39.8820   33.4310   40.4050 C   0  0  0  0  0  0  0  0  0  0  0  0
   38.5970   33.1580   39.9550 C   0  0  0  0  0  0  0  0  0  0  0  0
   40.6180   34.6140   40.4880 O   0  0  0  0  0  0  0  0  0  0  0  0
   41.9780   34.2650   40.7350 C   0  0  1  0  0  0  0  0  0  0  0  0
   41.8940   32.9580   41.2620 O   0  0  0  0  0  0  0  0  0  0  0  0
   37.1540   31.6540   39.6540 H   0  0  0  0  0  0  0  0  0  0  0  0
   40.7930   30.2750   41.2930 H   0  0  0  0  0  0  0  0  0  0  0  0
   37.9460   33.9220   39.5740 H   0  0  0  0  0  0  0  0  0  0  0  0
   42.3830   34.9180   41.5370 H   0  0  0  0  0  0  0  0  0  0  0  0
   42.7880   34.3560   39.5670 N   0  0  2  0  0  0  0  0  0  0  0  0
   42.1420   34.7400   38.3650 C   0  0  0  0  0  3  0  0  0  0  0  0
   41.0620   34.9190   38.5790 H   0  0  0  0  0  0  0  0  0  0  0  0
   42.1930   33.7200   37.2650 C   0  0  0  0  0  3  0  0  0  0  0  0
   42.0030   34.2490   36.3030 H   0  0  0  0  0  0  0  0  0  0  0  0
   43.4810   33.0710   37.1600 N   0  0  0  0  0  0  0  0  0  0  0  0
   44.2370   33.7880   37.0820 H   0  0  0  0  0  0  0  0  0  0  0  0
   43.7020   32.3820   38.4260 C   0  0  0  0  0  2  0  0  0  0  0  0
   43.8810   33.4610   39.4690 C   0  0  0  0  0  2  0  0  0  0  0  0
  1  2  1  0  0  0  0
  2  3  2  0  0  0  0
  3  8  1  0  0  0  0
  4  3  1  0  0  0  0
  5  4  2  0  0  0  0
  6  1  2  0  0  0  0
  6  5  1  0  0  0  0
  7  1  1  0  0  0  0
  9  2  1  0  0  0  0
  9 14  1  0  0  0  0
 10 11  1  0  0  0  0
 10  9  1  0  0  0  0
 11 12  1  0  0  0  0
 11 17  1  0  0  0  0
 12 13  1  0  0  0  0
 13 14  1  0  0  0  0
 13 20  1  0  0  0  0
 14 22  1  0  0  0  0
 14 23  1  0  0  0  0
 15 10  1  0  0  0  0
 16 10  1  0  0  0  0
 18 11  1  0  0  0  0
 19 12  1  0  0  0  0
 21 13  1  0  0  0  0
 24 25  1  0  0  0  0
 25  5  1  0  0  0  0
 25 26  2  0  0  0  0
 26 34  1  0  0  0  0
 27 26  1  0  0  0  0
 27 32  1  0  0  0  0
 28 30  1  0  0  0  0
 28 27  2  0  0  0  0
 29 24  2  0  0  0  0
 29 28  1  0  0  0  0
 30 31  1  0  0  0  0
 31 32  1  0  0  0  0
 31 36  1  1  0  0  0
 33 24  1  0  0  0  0
 35 29  1  0  0  0  0
 37 45  1  6  0  0  0
 37 31  1  0  0  0  0
 38 39  1  0  0  0  0
 38 37  1  0  0  0  0
 40 38  1  0  0  0  0
 41 40  1  0  0  0  0
 42 40  1  0  0  0  0
 42 44  1  0  0  0  0
 43 42  1  0  0  0  0
 44 45  1  0  0  0  0
M  END
>  <minimizedAffinity>
-5.66994286

$$$$

 OpenBabel03242518273D

 45 49  0  0  1  0  0  0  0  0999 V2000
   37.6810   26.4060   39.9200 C   0  0  0  0  0  0  0  0  0  0  0  0
   37.5310   26.9950   41.1620 C   0  0  0  0  0  0  0  0  0  0  0  0
   36.6160   28.0280   41.2740 C   0  0  0  0  0  0  0  0  0  0  0  0
   35.9060   28.4270   40.1910 N   0  0  0  0  0  0  0  0  0  0  0  0
   36.0730   27.8340   38.9960 C   0  0  0  0  0  0  0  0  0  0  0  0
   36.9540   26.8310   38.8630 N   0  0  0  0  0  0  0  0  0  0  0  0
   38.3620   25.5950   39.7150 H   0  0  0  0  0  0  0  0  0  0  0  0
   36.5130   28.4760   42.2490 H   0  0  0  0  0  0  0  0  0  0  0  0
   38.3390   26.4770   42.2070 N   0  0  0  0  0  0  0  0  0  0  0  0
   38.9020   25.1690   42.0170 C   0  0  0  0  0  0  0  0  0  0  0  0
   39.6470   24.6580   43.1970 C   0  0  0  0  0  0  0  0  0  0  0  0
   40.5610   25.6260   43.7270 N   0  0  0  0  0  0  0  0  0  0  0  0
   40.1470   26.9800   43.7500 C   0  0  0  0  0  0  0  0  0  0  0  0
   38.6720   27.1060   43.4530 C   0  0  0  0  0  0  0  0  0  0  0  0
   38.0690   24.4680   41.8050 H   0  0  0  0  0  0  0  0  0  0  0  0
   39.5300   25.2050   41.0960 H   0  0  0  0  0  0  0  0  0  0  0  0
   38.9060   24.3410   43.9640 H   0  0  0  0  0  0  0  0  0  0  0  0
   40.2170   23.7550   42.9030 H   0  0  0  0  0  0  0  0  0  0  0  0
   41.5530   25.4730   43.4450 H   0  0  0  0  0  0  0  0  0  0  0  0
   40.4080   27.5150   44.6680 H   0  0  0  0  0  0  0  0  0  0  0  0
   40.6900   27.5130   42.9270 H   0  0  0  0  0  0  0  0  0  0  0  0
   38.0740   26.6010   44.2450 H   0  0  0  0  0  0  0  0  0  0  0  0
   38.3460   28.1670   43.4770 H   0  0  0  0  0  0  0  0  0  0  0  0
   35.9140   28.7340   36.7160 C   0  0  0  0  0  0  0  0  0  0  0  0
   35.2890   28.2900   37.8410 C   0  0  0  0  0  0  0  0  0  0  0  0
   33.9140   28.2850   37.8600 C   0  0  0  0  0  0  0  0  0  0  0  0
   33.1930   28.7160   36.7730 C   0  0  0  0  0  0  0  0  0  0  0  0
   33.8500   29.1680   35.6240 C   0  0  0  0  0  0  0  0  0  0  0  0
   35.2380   29.1790   35.5890 C   0  0  0  0  0  0  0  0  0  0  0  0
   32.8820   29.5380   34.6900 O   0  0  0  0  0  0  0  0  0  0  0  0
   31.6290   29.6080   35.3630 C   0  0  1  0  0  0  0  0  0  0  0  0
   31.8280   28.8180   36.5170 O   0  0  0  0  0  0  0  0  0  0  0  0
   36.9970   28.7520   36.6660 H   0  0  0  0  0  0  0  0  0  0  0  0
   33.4280   27.9290   38.7650 H   0  0  0  0  0  0  0  0  0  0  0  0
   35.7890   29.5170   34.7330 H   0  0  0  0  0  0  0  0  0  0  0  0
   30.8540   29.1020   34.7480 H   0  0  0  0  0  0  0  0  0  0  0  0
   31.2350   30.9460   35.6510 N   0  0  2  0  0  0  0  0  0  0  0  0
   30.4000   31.1420   36.7790 C   0  0  0  0  0  3  0  0  0  0  0  0
   30.2090   30.1540   37.2610 H   0  0  0  0  0  0  0  0  0  0  0  0
   29.0530   31.7320   36.4750 C   0  0  0  0  0  3  0  0  0  0  0  0
   28.6560   32.1730   37.4180 H   0  0  0  0  0  0  0  0  0  0  0  0
   29.1120   32.7880   35.4900 N   0  0  0  0  0  0  0  0  0  0  0  0
   29.8130   33.5080   35.7790 H   0  0  0  0  0  0  0  0  0  0  0  0
   29.6280   32.1840   34.2660 C   0  0  0  0  0  2  0  0  0  0  0  0
   31.0670   31.8200   34.5480 C   0  0  0  0  0  2  0  0  0  0  0  0
  1  2  1  0  0  0  0
  2  3  2  0  0  0  0
  2  9  1  0  0  0  0
  3  8  1  0  0  0  0
  4  3  1  0  0  0  0
  5  4  2  0  0  0  0
  6  5  1  0  0  0  0
  6  1  2  0  0  0  0
  7  1  1  0  0  0  0
  9 14  1  0  0  0  0
 10  9  1  0  0  0  0
 10 11  1  0  0  0  0
 11 12  1  0  0  0  0
 11 17  1  0  0  0  0
 12 13  1  0  0  0  0
 13 20  1  0  0  0  0
 14 23  1  0  0  0  0
 14 13  1  0  0  0  0
 14 22  1  0  0  0  0
 15 10  1  0  0  0  0
 16 10  1  0  0  0  0
 18 11  1  0  0  0  0
 19 12  1  0  0  0  0
 21 13  1  0  0  0  0
 24 25  1  0  0  0  0
 25 26  2  0  0  0  0
 25  5  1  0  0  0  0
 26 34  1  0  0  0  0
 27 26  1  0  0  0  0
 28 27  2  0  0  0  0
 29 28  1  0  0  0  0
 29 24  2  0  0  0  0
 30 31  1  0  0  0  0
 30 28  1  0  0  0  0
 31 36  1  6  0  0  0
 31 37  1  0  0  0  0
 31 32  1  0  0  0  0
 32 27  1  0  0  0  0
 33 24  1  0  0  0  0
 35 29  1  0  0  0  0
 37 45  1  6  0  0  0
 37 38  1  0  0  0  0
 38 39  1  0  0  0  0
 40 38  1  0  0  0  0
 40 41  1  0  0  0  0
 42 43  1  0  0  0  0
 42 40  1  0  0  0  0
 44 45  1  0  0  0  0
 44 42  1  0  0  0  0
M  END
>  <minimizedAffinity>
-5.55836248

$$$$

 OpenBabel03242518273D

 45 49  0  0  1  0  0  0  0  0999 V2000
   36.2000   25.0320   39.1800 C   0  0  0  0  0  0  0  0  0  0  0  0
   36.2390   23.9090   39.9850 C   0  0  0  0  0  0  0  0  0  0  0  0
   36.8260   24.0360   41.2330 C   0  0  0  0  0  0  0  0  0  0  0  0
   37.3340   25.2290   41.6260 N   0  0  0  0  0  0  0  0  0  0  0  0
   37.2810   26.3050   40.8210 C   0  0  0  0  0  0  0  0  0  0  0  0
   36.7170   26.2060   39.6080 N   0  0  0  0  0  0  0  0  0  0  0  0
   35.7680   25.0530   38.1920 H   0  0  0  0  0  0  0  0  0  0  0  0
   36.8480   23.1500   41.8460 H   0  0  0  0  0  0  0  0  0  0  0  0
   35.6690   22.7270   39.4460 N   0  0  0  0  0  0  0  0  0  0  0  0
   34.2350   22.6650   39.3670 C   0  0  0  0  0  0  0  0  0  0  0  0
   33.7170   21.3570   38.8890 C   0  0  0  0  0  0  0  0  0  0  0  0
   34.3960   20.8950   37.7140 N   0  0  0  0  0  0  0  0  0  0  0  0
   35.7930   21.1160   37.6320 C   0  0  0  0  0  0  0  0  0  0  0  0
   36.3550   21.5640   38.9600 C   0  0  0  0  0  0  0  0  0  0  0  0
   33.8310   22.8460   40.3830 H   0  0  0  0  0  0  0  0  0  0  0  0
   33.8980   23.5170   38.7330 H   0  0  0  0  0  0  0  0  0  0  0  0
   33.8060   20.6230   39.7210 H   0  0  0  0  0  0  0  0  0  0  0  0
   32.6380   21.4560   38.6580 H   0  0  0  0  0  0  0  0  0  0  0  0
   33.8710   21.0570   36.8280 H   0  0  0  0  0  0  0  0  0  0  0  0
   36.3600   20.2680   37.2350 H   0  0  0  0  0  0  0  0  0  0  0  0
   35.9600   21.9540   36.9090 H   0  0  0  0  0  0  0  0  0  0  0  0
   36.2270   20.7650   39.7240 H   0  0  0  0  0  0  0  0  0  0  0  0
   37.4510   21.7310   38.8970 H   0  0  0  0  0  0  0  0  0  0  0  0
   37.2820   28.2450   42.3270 C   0  0  0  0  0  0  0  0  0  0  0  0
   37.8420   27.5830   41.2770 C   0  0  0  0  0  0  0  0  0  0  0  0
   38.9360   28.1450   40.6640 C   0  0  0  0  0  0  0  0  0  0  0  0
   39.4500   29.3430   41.1000 C   0  0  0  0  0  0  0  0  0  0  0  0
   38.8650   30.0110   42.1800 C   0  0  0  0  0  0  0  0  0  0  0  0
   37.7590   29.4550   42.8100 C   0  0  0  0  0  0  0  0  0  0  0  0
   39.5830   31.1860   42.4030 O   0  0  0  0  0  0  0  0  0  0  0  0
   40.4230   31.4050   41.2730 C   0  0  1  0  0  0  0  0  0  0  0  0
   40.5220   30.1270   40.6810 O   0  0  0  0  0  0  0  0  0  0  0  0
   36.4180   27.8310   42.8350 H   0  0  0  0  0  0  0  0  0  0  0  0
   39.3720   27.6070   39.8260 H   0  0  0  0  0  0  0  0  0  0  0  0
   37.2730   29.9280   43.6420 H   0  0  0  0  0  0  0  0  0  0  0  0
   41.4400   31.6850   41.6230 H   0  0  0  0  0  0  0  0  0  0  0  0
   39.9110   32.4020   40.3950 N   0  0  2  0  0  0  0  0  0  0  0  0
   38.8240   33.1780   40.8670 C   0  0  0  0  0  3  0  0  0  0  0  0
   38.5700   32.8490   41.9010 H   0  0  0  0  0  0  0  0  0  0  0  0
   37.5620   33.0570   40.0620 C   0  0  0  0  0  3  0  0  0  0  0  0
   36.9330   33.9490   40.2830 H   0  0  0  0  0  0  0  0  0  0  0  0
   37.8050   33.0350   38.6370 N   0  0  0  0  0  0  0  0  0  0  0  0
   38.3840   33.8610   38.3600 H   0  0  0  0  0  0  0  0  0  0  0  0
   38.6240   31.8570   38.3740 C   0  0  0  0  0  2  0  0  0  0  0  0
   39.9700   32.1280   39.0050 C   0  0  0  0  0  2  0  0  0  0  0  0
  1  6  2  0  0  0  0
  1  2  1  0  0  0  0
  2  3  2  0  0  0  0
  3  4  1  0  0  0  0
  3  8  1  0  0  0  0
  5 25  1  0  0  0  0
  5  4  2  0  0  0  0
  6  5  1  0  0  0  0
  7  1  1  0  0  0  0
  9  2  1  0  0  0  0
 10  9  1  0  0  0  0
 10 15  1  0  0  0  0
 11 10  1  0  0  0  0
 11 17  1  0  0  0  0
 12 11  1  0  0  0  0
 13 12  1  0  0  0  0
 13 14  1  0  0  0  0
 14  9  1  0  0  0  0
 14 22  1  0  0  0  0
 16 10  1  0  0  0  0
 18 11  1  0  0  0  0
 19 12  1  0  0  0  0
 20 13  1  0  0  0  0
 21 13  1  0  0  0  0
 23 14  1  0  0  0  0
 24 29  1  0  0  0  0
 24 33  1  0  0  0  0
 25 24  2  0  0  0  0
 26 27  2  0  0  0  0
 26 25  1  0  0  0  0
 27 28  1  0  0  0  0
 28 30  1  0  0  0  0
 28 29  2  0  0  0  0
 29 35  1  0  0  0  0
 31 36  1  1  0  0  0
 31 30  1  0  0  0  0
 32 27  1  0  0  0  0
 32 31  1  0  0  0  0
 34 26  1  0  0  0  0
 37 45  1  6  0  0  0
 37 38  1  0  0  0  0
 37 31  1  0  0  0  0
 38 39  1  0  0  0  0
 40 41  1  0  0  0  0
 40 38  1  0  0  0  0
 42 40  1  0  0  0  0
 43 42  1  0  0  0  0
 44 42  1  0  0  0  0
 44 45  1  0  0  0  0
M  END
>  <minimizedAffinity>
-5.4822607

$$$$

 OpenBabel03242518273D

 45 49  0  0  1  0  0  0  0  0999 V2000
   39.4030   31.8810   40.2900 C   0  0  0  0  0  0  0  0  0  0  0  0
   40.4530   32.3830   39.5450 C   0  0  0  0  0  0  0  0  0  0  0  0
   40.4050   32.2080   38.1720 C   0  0  0  0  0  0  0  0  0  0  0  0
   39.3550   31.5650   37.6050 N   0  0  0  0  0  0  0  0  0  0  0  0
   38.3470   31.0890   38.3560 C   0  0  0  0  0  0  0  0  0  0  0  0
   38.3710   31.2470   39.6880 N   0  0  0  0  0  0  0  0  0  0  0  0
   39.3320   31.9590   41.3630 H   0  0  0  0  0  0  0  0  0  0  0  0
   41.2330   32.6040   37.6070 H   0  0  0  0  0  0  0  0  0  0  0  0
   41.4860   33.0320   40.2690 N   0  0  0  0  0  0  0  0  0  0  0  0
   41.2840   34.4150   40.6060 C   0  0  0  0  0  0  0  0  0  0  0  0
   42.4530   35.0470   41.2700 C   0  0  0  0  0  0  0  0  0  0  0  0
   42.9740   34.2470   42.3390 N   0  0  0  0  0  0  0  0  0  0  0  0
   43.0070   32.8430   42.1540 C   0  0  0  0  0  0  0  0  0  0  0  0
   42.7300   32.4740   40.7160 C   0  0  0  0  0  0  0  0  0  0  0  0
   41.0810   34.9670   39.6660 H   0  0  0  0  0  0  0  0  0  0  0  0
   40.3560   34.4770   41.2190 H   0  0  0  0  0  0  0  0  0  0  0  0
   43.2290   35.2420   40.4970 H   0  0  0  0  0  0  0  0  0  0  0  0
   42.1490   36.0310   41.6800 H   0  0  0  0  0  0  0  0  0  0  0  0
   42.6790   34.5600   43.2880 H   0  0  0  0  0  0  0  0  0  0  0  0
   43.9230   32.3630   42.5110 H   0  0  0  0  0  0  0  0  0  0  0  0
   42.1790   32.4030   42.7670 H   0  0  0  0  0  0  0  0  0  0  0  0
   43.5270   32.8770   40.0530 H   0  0  0  0  0  0  0  0  0  0  0  0
   42.7610   31.3740   40.5700 H   0  0  0  0  0  0  0  0  0  0  0  0
   37.2730   30.0900   36.3860 C   0  0  0  0  0  0  0  0  0  0  0  0
   37.2230   30.3970   37.7120 C   0  0  0  0  0  0  0  0  0  0  0  0
   36.0990   30.0420   38.4190 C   0  0  0  0  0  0  0  0  0  0  0  0
   35.0540   29.3960   37.8030 C   0  0  0  0  0  0  0  0  0  0  0  0
   35.1200   29.0870   36.4400 C   0  0  0  0  0  0  0  0  0  0  0  0
   36.2500   29.4390   35.7130 C   0  0  0  0  0  0  0  0  0  0  0  0
   33.9370   28.4390   36.0850 O   0  0  0  0  0  0  0  0  0  0  0  0
   33.0060   28.6170   37.1490 C   0  0  1  0  0  0  0  0  0  0  0  0
   33.8250   28.9270   38.2570 O   0  0  0  0  0  0  0  0  0  0  0  0
   38.1440   30.3550   35.7980 H   0  0  0  0  0  0  0  0  0  0  0  0
   36.0730   30.2940   39.4760 H   0  0  0  0  0  0  0  0  0  0  0  0
   36.3490   29.2250   34.6660 H   0  0  0  0  0  0  0  0  0  0  0  0
   32.5100   27.6470   37.3680 H   0  0  0  0  0  0  0  0  0  0  0  0
   32.0320   29.6160   36.8640 N   0  0  2  0  0  0  0  0  0  0  0  0
   31.0860   29.9010   37.8800 C   0  0  0  0  0  3  0  0  0  0  0  0
   31.3060   29.2590   38.7650 H   0  0  0  0  0  0  0  0  0  0  0  0
   29.6560   29.6340   37.5080 C   0  0  0  0  0  3  0  0  0  0  0  0
   29.0110   30.2210   38.2010 H   0  0  0  0  0  0  0  0  0  0  0  0
   29.3410   30.0490   36.1590 N   0  0  0  0  0  0  0  0  0  0  0  0
   29.6160   31.0480   36.0190 H   0  0  0  0  0  0  0  0  0  0  0  0
   30.1930   29.2620   35.2740 C   0  0  0  0  0  2  0  0  0  0  0  0
   31.6070   29.7370   35.5170 C   0  0  0  0  0  2  0  0  0  0  0  0
  1  7  1  0  0  0  0
  2  9  1  0  0  0  0
  2  1  2  0  0  0  0
  3  2  1  0  0  0  0
  4  3  2  0  0  0  0
  4  5  1  0  0  0  0
  5  6  2  0  0  0  0
  6  1  1  0  0  0  0
  8  3  1  0  0  0  0
  9 10  1  0  0  0  0
  9 14  1  0  0  0  0
 10 16  1  0  0  0  0
 10 11  1  0  0  0  0
 11 18  1  0  0  0  0
 11 12  1  0  0  0  0
 12 19  1  0  0  0  0
 13 12  1  0  0  0  0
 13 20  1  0  0  0  0
 13 21  1  0  0  0  0
 14 13  1  0  0  0  0
 15 10  1  0  0  0  0
 17 11  1  0  0  0  0
 22 14  1  0  0  0  0
 23 14  1  0  0  0  0
 24 25  1  0  0  0  0
 25  5  1  0  0  0  0
 25 26  2  0  0  0  0
 26 34  1  0  0  0  0
 27 32  1  0  0  0  0
 27 26  1  0  0  0  0
 28 27  2  0  0  0  0
 29 24  2  0  0  0  0
 29 28  1  0  0  0  0
 30 28  1  0  0  0  0
 30 31  1  0  0  0  0
 31 36  1  1  0  0  0
 31 32  1  0  0  0  0
 33 24  1  0  0  0  0
 35 29  1  0  0  0  0
 37 45  1  6  0  0  0
 37 31  1  0  0  0  0
 37 38  1  0  0  0  0
 38 39  1  0  0  0  0
 40 38  1  0  0  0  0
 40 41  1  0  0  0  0
 42 40  1  0  0  0  0
 43 42  1  0  0  0  0
 44 45  1  0  0  0  0
 44 42  1  0  0  0  0
M  END
>  <minimizedAffinity>
-5.35461092

$$$$

 OpenBabel03242518273D

 45 49  0  0  1  0  0  0  0  0999 V2000
   39.2700   31.3960   40.1950 C   0  0  0  0  0  0  0  0  0  0  0  0
   40.1880   31.8310   41.1330 C   0  0  0  0  0  0  0  0  0  0  0  0
   40.4820   30.9790   42.1850 C   0  0  0  0  0  0  0  0  0  0  0  0
   39.8790   29.7680   42.2670 N   0  0  0  0  0  0  0  0  0  0  0  0
   38.9910   29.3720   41.3390 C   0  0  0  0  0  0  0  0  0  0  0  0
   38.6900   30.1790   40.3110 N   0  0  0  0  0  0  0  0  0  0  0  0
   38.9650   31.9720   39.3370 H   0  0  0  0  0  0  0  0  0  0  0  0
   41.1990   31.3360   42.9070 H   0  0  0  0  0  0  0  0  0  0  0  0
   40.7410   33.1210   40.9230 N   0  0  0  0  0  0  0  0  0  0  0  0
   42.1320   33.2990   41.2350 C   0  0  0  0  0  0  0  0  0  0  0  0
   42.6060   34.6990   41.0860 C   0  0  0  0  0  0  0  0  0  0  0  0
   42.1970   35.2860   39.8440 N   0  0  0  0  0  0  0  0  0  0  0  0
   40.8990   34.9800   39.3670 C   0  0  0  0  0  0  0  0  0  0  0  0
   40.0750   34.2920   40.4280 C   0  0  0  0  0  0  0  0  0  0  0  0
   42.2860   32.9930   42.2890 H   0  0  0  0  0  0  0  0  0  0  0  0
   42.7100   32.5810   40.6070 H   0  0  0  0  0  0  0  0  0  0  0  0
   42.2310   35.2870   41.9530 H   0  0  0  0  0  0  0  0  0  0  0  0
   43.7130   34.7160   41.1380 H   0  0  0  0  0  0  0  0  0  0  0  0
   42.9420   35.3020   39.1150 H   0  0  0  0  0  0  0  0  0  0  0  0
   40.3600   35.8350   38.9480 H   0  0  0  0  0  0  0  0  0  0  0  0
   41.0130   34.2530   38.5220 H   0  0  0  0  0  0  0  0  0  0  0  0
   39.9180   34.9700   41.2960 H   0  0  0  0  0  0  0  0  0  0  0  0
   39.0550   34.0570   40.0570 H   0  0  0  0  0  0  0  0  0  0  0  0
   37.9840   27.5750   42.6760 C   0  0  0  0  0  0  0  0  0  0  0  0
   38.3550   28.0530   41.4570 C   0  0  0  0  0  0  0  0  0  0  0  0
   38.1180   27.2700   40.3520 C   0  0  0  0  0  0  0  0  0  0  0  0
   37.5230   26.0380   40.4770 C   0  0  0  0  0  0  0  0  0  0  0  0
   37.1460   25.5600   41.7370 C   0  0  0  0  0  0  0  0  0  0  0  0
   37.3790   26.3410   42.8620 C   0  0  0  0  0  0  0  0  0  0  0  0
   36.5720   24.3000   41.5680 O   0  0  0  0  0  0  0  0  0  0  0  0
   36.8690   23.8590   40.2460 C   0  0  1  0  0  0  0  0  0  0  0  0
   37.1690   25.0550   39.5570 O   0  0  0  0  0  0  0  0  0  0  0  0
   38.1550   28.1660   43.5690 H   0  0  0  0  0  0  0  0  0  0  0  0
   38.4200   27.6640   39.3850 H   0  0  0  0  0  0  0  0  0  0  0  0
   37.1090   26.0200   43.8500 H   0  0  0  0  0  0  0  0  0  0  0  0
   35.9490   23.4370   39.7870 H   0  0  0  0  0  0  0  0  0  0  0  0
   37.9230   22.9020   40.2110 N   0  0  2  0  0  0  0  0  0  0  0  0
   39.1320   23.2990   39.5890 C   0  0  0  0  0  3  0  0  0  0  0  0
   39.0240   24.3520   39.2350 H   0  0  0  0  0  0  0  0  0  0  0  0
   39.5230   22.4870   38.3880 C   0  0  0  0  0  3  0  0  0  0  0  0
   40.6150   22.6330   38.2220 H   0  0  0  0  0  0  0  0  0  0  0  0
   39.2930   21.0710   38.5680 N   0  0  0  0  0  0  0  0  0  0  0  0
   39.7550   20.7430   39.4470 H   0  0  0  0  0  0  0  0  0  0  0  0
   37.8580   20.9080   38.7760 C   0  0  0  0  0  2  0  0  0  0  0  0
   37.5510   21.5370   40.1160 C   0  0  0  0  0  2  0  0  0  0  0  0
  1  6  2  0  0  0  0
  1  2  1  0  0  0  0
  2  3  2  0  0  0  0
  3  4  1  0  0  0  0
  3  8  1  0  0  0  0
  5 25  1  0  0  0  0
  5  4  2  0  0  0  0
  6  5  1  0  0  0  0
  7  1  1  0  0  0  0
  9  2  1  0  0  0  0
  9 10  1  0  0  0  0
 10 15  1  0  0  0  0
 11 18  1  0  0  0  0
 11 10  1  0  0  0  0
 11 17  1  0  0  0  0
 12 11  1  0  0  0  0
 13 12  1  0  0  0  0
 13 14  1  0  0  0  0
 14  9  1  0  0  0  0
 14 22  1  0  0  0  0
 16 10  1  0  0  0  0
 19 12  1  0  0  0  0
 20 13  1  0  0  0  0
 21 13  1  0  0  0  0
 23 14  1  0  0  0  0
 24 29  1  0  0  0  0
 24 33  1  0  0  0  0
 25 24  2  0  0  0  0
 26 27  2  0  0  0  0
 26 25  1  0  0  0  0
 27 28  1  0  0  0  0
 28 29  2  0  0  0  0
 29 35  1  0  0  0  0
 30 28  1  0  0  0  0
 31 36  1  6  0  0  0
 31 30  1  0  0  0  0
 32 31  1  0  0  0  0
 32 27  1  0  0  0  0
 34 26  1  0  0  0  0
 37 45  1  6  0  0  0
 37 31  1  0  0  0  0
 38 37  1  0  0  0  0
 39 38  1  0  0  0  0
 40 42  1  0  0  0  0
 40 38  1  0  0  0  0
 41 40  1  0  0  0  0
 42 44  1  0  0  0  0
 42 43  1  0  0  0  0
 44 45  1  0  0  0  0
M  END
>  <minimizedAffinity>
-5.34698343

$$$$

 OpenBabel03242518273D

 45 49  0  0  1  0  0  0  0  0999 V2000
   32.8110   29.1230   37.6070 C   0  0  0  0  0  0  0  0  0  0  0  0
   33.3810   29.0280   36.3510 C   0  0  0  0  0  0  0  0  0  0  0  0
   34.7580   28.9040   36.2800 C   0  0  0  0  0  0  0  0  0  0  0  0
   35.4980   28.8780   37.4160 N   0  0  0  0  0  0  0  0  0  0  0  0
   34.9150   28.9710   38.6240 C   0  0  0  0  0  0  0  0  0  0  0  0
   33.5830   29.0920   38.7180 N   0  0  0  0  0  0  0  0  0  0  0  0
   31.7520   29.2220   37.7840 H   0  0  0  0  0  0  0  0  0  0  0  0
   35.1850   28.8330   35.2920 H   0  0  0  0  0  0  0  0  0  0  0  0
   32.4880   29.0690   35.2490 N   0  0  0  0  0  0  0  0  0  0  0  0
   31.9840   27.8140   34.7630 C   0  0  0  0  0  0  0  0  0  0  0  0
   31.1400   27.9370   33.5470 C   0  0  0  0  0  0  0  0  0  0  0  0
   30.1500   28.9650   33.6690 N   0  0  0  0  0  0  0  0  0  0  0  0
   30.5210   30.1610   34.3310 C   0  0  0  0  0  0  0  0  0  0  0  0
   32.0140   30.2270   34.5450 C   0  0  0  0  0  0  0  0  0  0  0  0
   32.8530   27.1720   34.5170 H   0  0  0  0  0  0  0  0  0  0  0  0
   31.4500   27.3190   35.6080 H   0  0  0  0  0  0  0  0  0  0  0  0
   31.8090   28.1220   32.6770 H   0  0  0  0  0  0  0  0  0  0  0  0
   30.6270   26.9720   33.3620 H   0  0  0  0  0  0  0  0  0  0  0  0
   29.1960   28.6130   33.8980 H   0  0  0  0  0  0  0  0  0  0  0  0
   30.1550   31.0740   33.8510 H   0  0  0  0  0  0  0  0  0  0  0  0
   30.0480   30.1450   35.3470 H   0  0  0  0  0  0  0  0  0  0  0  0
   32.5440   30.2540   33.5670 H   0  0  0  0  0  0  0  0  0  0  0  0
   32.3060   31.1670   35.0590 H   0  0  0  0  0  0  0  0  0  0  0  0
   36.1290   30.1010   40.4360 C   0  0  0  0  0  0  0  0  0  0  0  0
   35.7440   28.9410   39.8360 C   0  0  0  0  0  0  0  0  0  0  0  0
   36.1530   27.7530   40.3940 C   0  0  0  0  0  0  0  0  0  0  0  0
   36.9300   27.7390   41.5280 C   0  0  0  0  0  0  0  0  0  0  0  0
   37.3170   28.9390   42.1340 C   0  0  0  0  0  0  0  0  0  0  0  0
   36.9110   30.1470   41.5810 C   0  0  0  0  0  0  0  0  0  0  0  0
   38.0900   28.6300   43.2530 O   0  0  0  0  0  0  0  0  0  0  0  0
   38.4430   27.2510   43.1720 C   0  0  1  0  0  0  0  0  0  0  0  0
   37.4770   26.7130   42.2940 O   0  0  0  0  0  0  0  0  0  0  0  0
   35.8240   31.0560   40.0220 H   0  0  0  0  0  0  0  0  0  0  0  0
   35.8400   26.8350   39.9040 H   0  0  0  0  0  0  0  0  0  0  0  0
   37.1810   31.0940   42.0070 H   0  0  0  0  0  0  0  0  0  0  0  0
   38.2870   26.7760   44.1640 H   0  0  0  0  0  0  0  0  0  0  0  0
   39.7830   27.0540   42.7340 N   0  0  2  0  0  0  0  0  0  0  0  0
   40.0830   25.8120   42.1210 C   0  0  0  0  0  3  0  0  0  0  0  0
   39.1540   25.1960   42.0860 H   0  0  0  0  0  0  0  0  0  0  0  0
   41.1130   24.9850   42.8340 C   0  0  0  0  0  3  0  0  0  0  0  0
   41.5250   24.2520   42.1030 H   0  0  0  0  0  0  0  0  0  0  0  0
   42.2180   25.7720   43.3340 N   0  0  0  0  0  0  0  0  0  0  0  0
   42.6240   26.3480   42.5620 H   0  0  0  0  0  0  0  0  0  0  0  0
   41.6530   26.7170   44.2920 C   0  0  0  0  0  2  0  0  0  0  0  0
   40.8070   27.6780   43.4900 C   0  0  0  0  0  2  0  0  0  0  0  0
  1  7  1  0  0  0  0
  1  6  1  0  0  0  0
  2  1  2  0  0  0  0
  3  2  1  0  0  0  0
  3  4  2  0  0  0  0
  4  5  1  0  0  0  0
  5  6  2  0  0  0  0
  5 25  1  0  0  0  0
  8  3  1  0  0  0  0
  9  2  1  0  0  0  0
 10  9  1  0  0  0  0
 10 16  1  0  0  0  0
 11 12  1  0  0  0  0
 11 10  1  0  0  0  0
 12 19  1  0  0  0  0
 12 13  1  0  0  0  0
 13 14  1  0  0  0  0
 13 21  1  0  0  0  0
 14 23  1  0  0  0  0
 14  9  1  0  0  0  0
 15 10  1  0  0  0  0
 17 11  1  0  0  0  0
 18 11  1  0  0  0  0
 20 13  1  0  0  0  0
 22 14  1  0  0  0  0
 24 29  1  0  0  0  0
 25 26  1  0  0  0  0
 25 24  2  0  0  0  0
 26 27  2  0  0  0  0
 27 28  1  0  0  0  0
 27 32  1  0  0  0  0
 28 30  1  0  0  0  0
 29 35  1  0  0  0  0
 29 28  2  0  0  0  0
 31 30  1  0  0  0  0
 31 36  1  1  0  0  0
 32 31  1  0  0  0  0
 33 24  1  0  0  0  0
 34 26  1  0  0  0  0
 37 31  1  0  0  0  0
 37 45  1  1  0  0  0
 38 37  1  0  0  0  0
 38 40  1  0  0  0  0
 39 38  1  0  0  0  0
 40 42  1  0  0  0  0
 41 40  1  0  0  0  0
 42 44  1  0  0  0  0
 43 42  1  0  0  0  0
 45 44  1  0  0  0  0
M  END
>  <minimizedAffinity>
-5.33509636

$$$$

 OpenBabel03242518273D

 45 49  0  0  1  0  0  0  0  0999 V2000
   36.8560   25.3500   40.1560 C   0  0  0  0  0  0  0  0  0  0  0  0
   36.1900   24.9400   39.0170 C   0  0  0  0  0  0  0  0  0  0  0  0
   35.8330   25.9120   38.0980 C   0  0  0  0  0  0  0  0  0  0  0  0
   36.1380   27.2120   38.3320 N   0  0  0  0  0  0  0  0  0  0  0  0
   36.7870   27.5810   39.4490 C   0  0  0  0  0  0  0  0  0  0  0  0
   37.1440   26.6570   40.3530 N   0  0  0  0  0  0  0  0  0  0  0  0
   37.1830   24.6840   40.9380 H   0  0  0  0  0  0  0  0  0  0  0  0
   35.3130   25.5740   37.2170 H   0  0  0  0  0  0  0  0  0  0  0  0
   35.9360   23.5490   38.9020 N   0  0  0  0  0  0  0  0  0  0  0  0
   34.5710   23.1160   39.0290 C   0  0  0  0  0  0  0  0  0  0  0  0
   34.4040   21.6400   39.0010 C   0  0  0  0  0  0  0  0  0  0  0  0
   35.1210   21.0290   37.9220 N   0  0  0  0  0  0  0  0  0  0  0  0
   36.3990   21.5490   37.6020 C   0  0  0  0  0  0  0  0  0  0  0  0
   36.8860   22.4980   38.6710 C   0  0  0  0  0  0  0  0  0  0  0  0
   34.1860   23.4890   40.0000 H   0  0  0  0  0  0  0  0  0  0  0  0
   33.9820   23.6300   38.2340 H   0  0  0  0  0  0  0  0  0  0  0  0
   34.7320   21.2350   39.9840 H   0  0  0  0  0  0  0  0  0  0  0  0
   33.3270   21.3990   38.8940 H   0  0  0  0  0  0  0  0  0  0  0  0
   34.5270   20.7840   37.1010 H   0  0  0  0  0  0  0  0  0  0  0  0
   37.1540   20.7870   37.3840 H   0  0  0  0  0  0  0  0  0  0  0  0
   36.2940   22.1470   36.6600 H   0  0  0  0  0  0  0  0  0  0  0  0
   37.0190   21.9590   39.6350 H   0  0  0  0  0  0  0  0  0  0  0  0
   37.8900   22.9010   38.4240 H   0  0  0  0  0  0  0  0  0  0  0  0
   36.4420   29.9680   38.9820 C   0  0  0  0  0  0  0  0  0  0  0  0
   37.1030   28.9980   39.6730 C   0  0  0  0  0  0  0  0  0  0  0  0
   38.0640   29.3850   40.5760 C   0  0  0  0  0  0  0  0  0  0  0  0
   38.3500   30.7140   40.7750 C   0  0  0  0  0  0  0  0  0  0  0  0
   37.6630   31.6990   40.0580 C   0  0  0  0  0  0  0  0  0  0  0  0
   36.6880   31.3240   39.1420 C   0  0  0  0  0  0  0  0  0  0  0  0
   38.1500   32.9440   40.4560 O   0  0  0  0  0  0  0  0  0  0  0  0
   39.3510   32.7280   41.1920 C   0  0  1  0  0  0  0  0  0  0  0  0
   39.2490   31.3810   41.6030 O   0  0  0  0  0  0  0  0  0  0  0  0
   35.6780   29.6990   38.2610 H   0  0  0  0  0  0  0  0  0  0  0  0
   38.5840   28.6000   41.1200 H   0  0  0  0  0  0  0  0  0  0  0  0
   36.1340   32.0400   38.5670 H   0  0  0  0  0  0  0  0  0  0  0  0
   39.3350   33.3540   42.1100 H   0  0  0  0  0  0  0  0  0  0  0  0
   40.5200   33.0030   40.4270 N   0  0  2  0  0  0  0  0  0  0  0  0
   41.7680   32.7650   41.0530 C   0  0  0  0  0  3  0  0  0  0  0  0
   41.5860   32.3740   42.0810 H   0  0  0  0  0  0  0  0  0  0  0  0
   42.6400   33.9780   41.2090 C   0  0  0  0  0  3  0  0  0  0  0  0
   43.6870   33.6260   41.3530 H   0  0  0  0  0  0  0  0  0  0  0  0
   42.6230   34.8350   40.0450 N   0  0  0  0  0  0  0  0  0  0  0  0
   42.8510   34.2800   39.1890 H   0  0  0  0  0  0  0  0  0  0  0  0
   41.2450   35.2860   39.8830 C   0  0  0  0  0  2  0  0  0  0  0  0
   40.4430   34.0650   39.4920 C   0  0  0  0  0  2  0  0  0  0  0  0
  1  6  1  0  0  0  0
  1  7  1  0  0  0  0
  2  1  2  0  0  0  0
  3  4  2  0  0  0  0
  3  2  1  0  0  0  0
  4  5  1  0  0  0  0
  5 25  1  0  0  0  0
  5  6  2  0  0  0  0
  8  3  1  0  0  0  0
  9  2  1  0  0  0  0
  9 10  1  0  0  0  0
 10 15  1  0  0  0  0
 11 10  1  0  0  0  0
 11 17  1  0  0  0  0
 12 11  1  0  0  0  0
 13 12  1  0  0  0  0
 13 14  1  0  0  0  0
 14  9  1  0  0  0  0
 14 22  1  0  0  0  0
 16 10  1  0  0  0  0
 18 11  1  0  0  0  0
 19 12  1  0  0  0  0
 20 13  1  0  0  0  0
 21 13  1  0  0  0  0
 23 14  1  0  0  0  0
 24 29  2  0  0  0  0
 24 25  1  0  0  0  0
 25 26  2  0  0  0  0
 26 27  1  0  0  0  0
 26 34  1  0  0  0  0
 27 32  1  0  0  0  0
 28 30  1  0  0  0  0
 28 27  2  0  0  0  0
 29 28  1  0  0  0  0
 30 31  1  0  0  0  0
 31 32  1  0  0  0  0
 31 36  1  1  0  0  0
 33 24  1  0  0  0  0
 35 29  1  0  0  0  0
 37 45  1  1  0  0  0
 37 38  1  0  0  0  0
 37 31  1  0  0  0  0
 38 40  1  0  0  0  0
 38 39  1  0  0  0  0
 40 41  1  0  0  0  0
 42 40  1  0  0  0  0
 43 42  1  0  0  0  0
 44 42  1  0  0  0  0
 45 44  1  0  0  0  0
M  END
>  <minimizedAffinity>
-5.29616737

$$$$
