
 OpenBabel03252508273D

 25 27  0  0  1  0  0  0  0  0999 V2000
   45.6290   34.6340   42.0550 C   0  0  0  0  0  0  0  0  0  0  0  0
   44.9050   35.6700   42.6330 C   0  0  0  0  0  0  0  0  0  0  0  0
   43.5580   35.5060   42.3220 C   0  0  0  0  0  0  0  0  0  0  0  0
   43.4980   34.3930   41.5770 N   0  0  0  0  0  0  0  0  0  0  0  0
   44.7050   33.8880   41.4230 N   0  0  0  0  0  0  0  0  0  0  0  0
   45.3760   36.4610   43.2270 H   0  0  0  0  0  0  0  0  0  0  0  0
   42.8460   36.2300   42.6960 H   0  0  0  0  0  0  0  0  0  0  0  0
   49.3600   35.1440   41.9740 C   0  0  0  0  0  0  0  0  0  0  0  0
   47.9740   35.4580   41.8370 C   0  0  0  0  0  0  0  0  0  0  0  0
   47.0750   34.4520   42.1500 C   0  0  0  0  0  0  0  0  0  0  0  0
   47.5410   33.2420   42.5640 N   0  0  0  0  0  0  0  0  0  0  0  0
   48.8640   32.9800   42.6830 C   0  0  0  0  0  0  0  0  0  0  0  0
   49.7440   33.9340   42.3860 N   0  0  0  0  0  0  0  0  0  0  0  0
   50.0530   35.9440   41.7240 H   0  0  0  0  0  0  0  0  0  0  0  0
   47.6140   36.4240   41.5060 H   0  0  0  0  0  0  0  0  0  0  0  0
   49.1480   31.9910   43.0190 H   0  0  0  0  0  0  0  0  0  0  0  0
   43.1920   33.2000   39.4000 H   0  0  0  0  0  0  0  0  0  0  0  0
   42.3440   33.7290   39.6290 N   0  0  0  0  0  0  0  0  0  0  0  0
   42.2340   33.9020   41.0630 C   0  0  2  0  0  0  0  0  0  0  0  0
   41.1710   34.8940   41.4440 C   0  0  0  0  0  0  0  0  0  0  0  0
   41.6080   35.8220   41.8940 H   0  0  0  0  0  0  0  0  0  0  0  0
   40.3430   35.3430   40.3590 N   0  0  0  0  0  0  0  0  0  0  0  0
   39.4170   34.9200   40.2820 H   0  0  0  0  0  0  0  0  0  0  0  0
   41.0210   35.6150   39.1310 C   0  0  0  0  0  0  0  0  0  0  0  0
   42.4380   35.0900   39.0850 C   0  0  0  0  0  0  0  0  0  0  0  0
  1 10  1  0  0  0  0
  1  2  1  0  0  0  0
  2  6  1  0  0  0  0
  3  2  2  0  0  0  0
  3  7  1  0  0  0  0
  4  3  1  0  0  0  0
  5  4  1  0  0  0  0
  5  1  2  0  0  0  0
  8 13  1  0  0  0  0
  9  8  2  0  0  0  0
  9 10  1  0  0  0  0
 10 11  2  0  0  0  0
 11 12  1  0  0  0  0
 12 16  1  0  0  0  0
 13 12  2  0  0  0  0
 14  8  1  0  0  0  0
 15  9  1  0  0  0  0
 17 18  1  0  0  0  0
 18 19  1  0  0  0  0
 19 20  1  0  0  0  0
 19  4  1  6  0  0  0
 20 21  1  0  0  0  0
 22 20  1  0  0  0  0
 23 22  1  0  0  0  0
 24 22  1  0  0  0  0
 25 24  1  0  0  0  0
 25 18  1  0  0  0  0
M  END
>  <minimizedAffinity>
-4.54830408

>  <minimizedRMSD>
6.20602846

$$$$
