
 OpenBabel03242523393D

 37 41  0  0  1  0  0  0  0  0999 V2000
   46.4730   32.3500   45.0060 C   0  0  2  0  0  0  0  0  0  0  0  0
   46.7460   31.1020   44.9240 N   0  0  1  0  0  0  0  0  0  0  0  0
   47.7970   30.4300   44.7330 C   0  0  0  0  0  0  0  0  0  0  0  0
   47.8730   30.1560   46.0400 N   0  0  0  0  0  0  0  0  0  0  0  0
   47.0850   30.8580   46.9010 C   0  0  0  0  0  0  0  0  0  0  0  0
   47.0610   30.4050   48.2450 C   0  0  0  0  0  0  0  0  0  0  0  0
   46.2510   31.0620   49.1090 C   0  0  0  0  0  0  0  0  0  0  0  0
   45.4580   32.1230   48.7890 C   0  0  0  0  0  0  0  0  0  0  0  0
   45.5670   32.4720   47.4530 C   0  0  0  0  0  0  0  0  0  0  0  0
   46.3220   31.9540   46.3990 C   0  0  1  0  0  0  0  0  0  0  0  0
   47.5500   32.8310   45.0130 H   0  0  0  0  0  0  0  0  0  0  0  0
   45.9080   30.5840   44.5390 H   0  0  0  0  0  0  0  0  0  0  0  0
   47.7440   29.5040   44.0950 H   0  0  0  0  0  0  0  0  0  0  0  0
   48.7030   30.9580   44.3300 H   0  0  0  0  0  0  0  0  0  0  0  0
   48.5620   29.3950   46.2920 H   0  0  0  0  0  0  0  0  0  0  0  0
   47.6360   29.5920   48.5940 H   0  0  0  0  0  0  0  0  0  0  0  0
   46.2400   30.7030   50.1550 H   0  0  0  0  0  0  0  0  0  0  0  0
   44.8390   32.6140   49.4820 H   0  0  0  0  0  0  0  0  0  0  0  0
   44.8910   33.2950   47.2550 H   0  0  0  0  0  0  0  0  0  0  0  0
   44.5960   35.5400   45.3070 C   0  0  0  0  0  0  0  0  0  0  0  0
   44.2770   35.6350   43.9390 C   0  0  0  0  0  0  0  0  0  0  0  0
   44.7230   34.6180   43.1110 C   0  0  0  0  0  0  0  0  0  0  0  0
   45.4250   33.6250   43.6920 N   0  0  0  0  0  0  0  0  0  0  0  0
   45.7220   33.5530   45.0210 C   0  0  0  0  0  0  0  0  0  0  0  0
   45.2820   34.5130   45.7070 N   0  0  0  0  0  0  0  0  0  0  0  0
   44.2730   36.3050   45.9980 H   0  0  0  0  0  0  0  0  0  0  0  0
   43.7040   36.4900   43.6030 H   0  0  0  0  0  0  0  0  0  0  0  0
   44.3430   34.7290   41.3640 S   0  0  0  0  0  0  0  0  0  0  0  0
   42.0050   33.4750   41.6070 H   0  0  0  0  0  0  0  0  0  0  0  0
   41.7540   34.4680   41.8160 N   0  0  0  0  0  0  0  0  0  0  0  0
   42.6690   35.3160   41.0650 C   0  0  2  0  0  0  0  0  0  0  0  0
   42.3100   35.1040   39.5890 C   0  0  0  0  0  0  0  0  0  0  0  0
   43.1130   35.4110   38.9100 H   0  0  0  0  0  0  0  0  0  0  0  0
   41.0320   35.7240   39.3020 N   0  0  0  0  0  0  0  0  0  0  0  0
   41.2620   36.7100   39.0180 H   0  0  0  0  0  0  0  0  0  0  0  0
   40.1820   35.8100   40.4570 C   0  0  0  0  0  0  0  0  0  0  0  0
   40.3950   34.6800   41.4330 C   0  0  0  0  0  0  0  0  0  0  0  0
  1 11  1  1  0  0  0
  1 24  1  0  0  0  0
  1 10  1  0  0  0  0
  2 12  1  6  0  0  0
  2  1  1  0  0  0  0
  2 10  1  0  0  0  0
  3  2  1  0  0  0  0
  3  4  1  0  0  0  0
  4 15  1  0  0  0  0
  4  5  1  0  0  0  0
  5  6  2  0  0  0  0
  6 16  1  0  0  0  0
  6  7  1  0  0  0  0
  7 17  1  0  0  0  0
  8  7  2  0  0  0  0
  8 18  1  0  0  0  0
  9  8  1  0  0  0  0
 10  5  1  1  0  0  0
 10  9  1  0  0  0  0
 13  3  1  0  0  0  0
 14  3  1  0  0  0  0
 19  9  1  0  0  0  0
 20 25  1  0  0  0  0
 20 26  1  0  0  0  0
 21 20  2  0  0  0  0
 22 23  2  0  0  0  0
 22 21  1  0  0  0  0
 23 24  1  0  0  0  0
 24 25  2  0  0  0  0
 27 21  1  0  0  0  0
 28 22  1  0  0  0  0
 29 30  1  0  0  0  0
 31 28  1  6  0  0  0
 31 30  1  0  0  0  0
 32 31  1  0  0  0  0
 33 32  1  0  0  0  0
 34 32  1  0  0  0  0
 34 36  1  0  0  0  0
 35 34  1  0  0  0  0
 36 37  1  0  0  0  0
 37 30  1  0  0  0  0
M  END
>  <minimizedAffinity>
-6.51890564

>  <minimizedRMSD>
1.24221885

$$$$
