
 OpenBabel03252501393D

 45 48  0  0  0  0  0  0  0  0999 V2000
   44.3160   34.3340   41.8250 C   0  0  0  0  0  0  0  0  0  0  0  0
   44.0490   33.1940   42.3570 O   0  0  0  0  0  0  0  0  0  0  0  0
   45.2840   35.0620   42.5660 N   0  0  0  0  0  0  0  0  0  0  0  0
   45.6410   35.9830   42.2820 H   0  0  0  0  0  0  0  0  0  0  0  0
   45.6560   34.3000   43.7400 C   0  0  0  0  0  0  0  0  0  0  0  0
   45.1970   34.5160   45.0050 C   0  0  0  0  0  0  0  0  0  0  0  0
   45.6600   33.6920   46.0010 C   0  0  0  0  0  0  0  0  0  0  0  0
   46.5360   32.7280   45.6610 N   0  0  0  0  0  0  0  0  0  0  0  0
   46.9730   32.5400   44.3910 C   0  0  0  0  0  0  0  0  0  0  0  0
   46.5320   33.3370   43.4000 N   0  0  0  0  0  0  0  0  0  0  0  0
   45.3040   33.8530   47.0050 H   0  0  0  0  0  0  0  0  0  0  0  0
   47.9020   31.4900   44.1250 N   0  0  0  0  0  0  0  0  0  0  0  0
   47.9700   30.2630   44.8710 C   0  0  0  0  0  0  0  0  0  0  0  0
   48.6980   30.3650   45.7270 H   0  0  0  0  0  0  0  0  0  0  0  0
   48.6550   29.2570   43.9350 C   0  0  0  0  0  0  0  0  0  0  0  0
   49.7610   29.3320   44.0090 H   0  0  0  0  0  0  0  0  0  0  0  0
   48.1690   29.3800   42.5920 N   0  0  0  0  0  0  0  0  0  0  0  0
   48.5690   28.5820   42.0530 H   0  0  0  0  0  0  0  0  0  0  0  0
   48.3690   30.6540   41.9770 C   0  0  0  0  0  0  0  0  0  0  0  0
   48.8610   31.6210   43.0440 C   0  0  0  0  0  0  0  0  0  0  0  0
   44.2690   35.5800   45.1940 N   0  0  0  0  0  0  0  0  0  0  0  0
   44.5950   36.5280   44.9520 H   0  0  0  0  0  0  0  0  0  0  0  0
   43.3040   35.4350   45.5570 H   0  0  0  0  0  0  0  0  0  0  0  0
   43.7610   34.8650   40.6560 O   0  0  0  0  0  0  0  0  0  0  0  0
   42.9620   32.2900   39.4000 Cl  0  0  0  0  0  0  0  0  0  0  0  0
   41.8960   33.5860   39.9020 C   0  0  0  0  0  0  0  0  0  0  0  0
   42.3690   34.7620   40.4840 C   0  0  0  0  0  0  0  0  0  0  0  0
   41.5020   35.7430   40.8580 C   0  0  0  0  0  0  0  0  0  0  0  0
   40.1330   35.6450   40.6910 C   0  0  0  0  0  0  0  0  0  0  0  0
   39.6310   34.4640   40.1030 C   0  0  0  0  0  0  0  0  0  0  0  0
   37.9070   34.2460   39.8490 Cl  0  0  0  0  0  0  0  0  0  0  0  0
   40.5410   33.4930   39.7380 C   0  0  0  0  0  0  0  0  0  0  0  0
   41.9090   36.6350   41.3050 H   0  0  0  0  0  0  0  0  0  0  0  0
   39.4430   36.4360   40.9940 H   0  0  0  0  0  0  0  0  0  0  0  0
   39.8800   31.3680   41.3010 F   0  0  0  0  0  0  0  0  0  0  0  0
   39.7080   31.2080   39.9440 C   0  0  0  0  0  0  0  0  0  0  0  0
   40.0340   32.2660   39.1290 C   0  0  0  0  0  0  0  0  0  0  0  0
   39.8460   32.0650   37.7540 C   0  0  0  0  0  0  0  0  0  0  0  0
   39.3580   30.8530   37.3020 C   0  0  0  0  0  0  0  0  0  0  0  0
   39.0470   29.8170   38.1960 C   0  0  0  0  0  0  0  0  0  0  0  0
   39.2210   29.9820   39.5630 C   0  0  0  0  0  0  0  0  0  0  0  0
   40.1020   32.8960   37.1110 H   0  0  0  0  0  0  0  0  0  0  0  0
   39.2240   30.7280   36.2360 H   0  0  0  0  0  0  0  0  0  0  0  0
   38.6620   28.8650   37.8240 H   0  0  0  0  0  0  0  0  0  0  0  0
   38.9920   29.2080   40.2840 H   0  0  0  0  0  0  0  0  0  0  0  0
  1  2  2  0  0  0  0
  1  3  1  0  0  0  0
  3  5  1  0  0  0  0
  4  3  1  0  0  0  0
  5  6  1  0  0  0  0
  6 21  1  0  0  0  0
  6  7  2  0  0  0  0
  7 11  1  0  0  0  0
  8  7  1  0  0  0  0
  9  8  2  0  0  0  0
 10  5  2  0  0  0  0
 10  9  1  0  0  0  0
 12  9  1  0  0  0  0
 12 13  1  0  0  0  0
 13 14  1  0  0  0  0
 15 16  1  0  0  0  0
 15 13  1  0  0  0  0
 17 15  1  0  0  0  0
 18 17  1  0  0  0  0
 19 17  1  0  0  0  0
 19 20  1  0  0  0  0
 20 12  1  0  0  0  0
 21 23  1  0  0  0  0
 22 21  1  0  0  0  0
 24  1  1  0  0  0  0
 25 26  1  0  0  0  0
 26 27  1  0  0  0  0
 27 24  1  0  0  0  0
 27 28  2  0  0  0  0
 28 33  1  0  0  0  0
 29 28  1  0  0  0  0
 29 34  1  0  0  0  0
 30 29  2  0  0  0  0
 31 30  1  0  0  0  0
 32 26  2  0  0  0  0
 32 30  1  0  0  0  0
 36 35  1  0  0  0  0
 37 32  1  0  0  0  0
 37 36  2  0  0  0  0
 38 37  1  0  0  0  0
 39 38  2  0  0  0  0
 39 40  1  0  0  0  0
 40 41  2  0  0  0  0
 41 36  1  0  0  0  0
 41 45  1  0  0  0  0
 42 38  1  0  0  0  0
 43 39  1  0  0  0  0
 44 40  1  0  0  0  0
M  END
>  <minimizedAffinity>
-6.56326342

>  <minimizedRMSD>
0.441873521

$$$$
