
 OpenBabel03252509153D

 45 49  0  0  1  0  0  0  0  0999 V2000
   39.1910   29.3290   39.7080 S   0  0  0  0  0  0  0  0  0  0  0  0
   37.1720   32.8720   39.6110 C   0  0  0  0  0  0  0  0  0  0  0  0
   37.4990   31.5210   39.5390 C   0  0  0  0  0  0  0  0  0  0  0  0
   38.7840   31.0490   39.8020 C   0  0  0  0  0  0  0  0  0  0  0  0
   39.7860   31.9590   40.1510 C   0  0  0  0  0  0  0  0  0  0  0  0
   41.0940   31.8740   40.4630 N   0  0  0  0  0  0  0  0  0  0  0  0
   41.5850   33.1010   40.7220 C   0  0  0  0  0  0  0  0  0  0  0  0
   40.5490   33.9430   40.5620 N   0  0  0  0  0  0  0  0  0  0  0  0
   39.4410   33.2800   40.2150 C   0  0  0  0  0  0  0  0  0  0  0  0
   38.1750   33.7830   39.9600 C   0  0  0  0  0  0  0  0  0  0  0  0
   36.1710   33.2260   39.4050 H   0  0  0  0  0  0  0  0  0  0  0  0
   41.5760   30.9650   40.4790 H   0  0  0  0  0  0  0  0  0  0  0  0
   42.6100   33.2480   40.9900 H   0  0  0  0  0  0  0  0  0  0  0  0
   37.9810   34.8520   40.0330 H   0  0  0  0  0  0  0  0  0  0  0  0
   34.6910   29.1880   39.8070 C   0  0  0  0  0  0  0  0  0  0  0  0
   34.5340   28.7420   38.4880 C   0  0  0  0  0  0  0  0  0  0  0  0
   35.4040   29.2530   37.5160 C   0  0  0  0  0  0  0  0  0  0  0  0
   36.3640   30.1610   37.8880 N   0  0  0  0  0  0  0  0  0  0  0  0
   36.4730   30.5600   39.1780 C   0  0  0  0  0  0  0  0  0  0  0  0
   35.6520   30.0930   40.1660 N   0  0  0  0  0  0  0  0  0  0  0  0
   34.0600   28.8350   40.5960 H   0  0  0  0  0  0  0  0  0  0  0  0
   33.7660   28.0260   38.2430 H   0  0  0  0  0  0  0  0  0  0  0  0
   35.2990   28.9220   36.5040 H   0  0  0  0  0  0  0  0  0  0  0  0
   39.2220   27.0860   41.0830 N   0  0  0  0  0  0  0  0  0  0  0  0
   38.4690   28.3340   41.0420 C   0  0  1  0  0  0  0  0  0  0  0  0
   38.6590   29.1460   42.3160 C   0  0  0  0  0  0  0  0  0  0  0  0
   38.6010   28.3800   43.4640 O   0  0  0  0  0  0  0  0  0  0  0  0
   38.1990   27.0850   43.3010 C   0  0  0  0  0  0  0  0  0  0  0  0
   39.1260   26.4050   42.3260 C   0  0  1  0  0  0  0  0  0  0  0  0
   40.2060   27.3070   40.7980 H   0  0  0  0  0  0  0  0  0  0  0  0
   37.4020   28.1790   40.8280 H   0  0  0  0  0  0  0  0  0  0  0  0
   37.8230   29.8340   42.4100 H   0  0  0  0  0  0  0  0  0  0  0  0
   39.6390   29.6630   42.2820 H   0  0  0  0  0  0  0  0  0  0  0  0
   38.2470   26.5830   44.2650 H   0  0  0  0  0  0  0  0  0  0  0  0
   37.1730   27.0890   42.8560 H   0  0  0  0  0  0  0  0  0  0  0  0
   40.1460   26.4830   42.8060 H   0  0  0  0  0  0  0  0  0  0  0  0
   38.8950   24.9740   42.2200 N   0  0  1  0  0  0  0  0  0  0  0  0
   37.4330   24.8300   42.2040 C   0  0  0  0  0  3  0  0  0  0  0  0
   36.9450   25.5550   42.8750 H   0  0  0  0  0  0  0  0  0  0  0  0
   36.8830   24.9220   40.8100 C   0  0  0  0  0  3  0  0  0  0  0  0
   37.1750   25.8260   40.2570 H   0  0  0  0  0  0  0  0  0  0  0  0
   37.2940   23.7150   40.1170 N   0  0  0  0  0  0  0  0  0  0  0  0
   37.0480   23.8270   39.1110 H   0  0  0  0  0  0  0  0  0  0  0  0
   38.6730   23.3730   40.3570 C   0  0  0  0  0  2  0  0  0  0  0  0
   39.4120   24.5590   40.9410 C   0  0  0  0  0  2  0  0  0  0  0  0
  1  4  1  0  0  0  0
  1 25  1  0  0  0  0
  2 10  1  0  0  0  0
  3  2  2  0  0  0  0
  3  4  1  0  0  0  0
  4  5  2  0  0  0  0
  5  9  1  0  0  0  0
  5  6  1  0  0  0  0
  6 12  1  0  0  0  0
  6  7  1  0  0  0  0
  7 13  1  0  0  0  0
  8  7  2  0  0  0  0
  9  8  1  0  0  0  0
 10 14  1  0  0  0  0
 10  9  2  0  0  0  0
 11  2  1  0  0  0  0
 15 20  1  0  0  0  0
 15 21  1  0  0  0  0
 16 15  2  0  0  0  0
 17 18  2  0  0  0  0
 17 16  1  0  0  0  0
 18 19  1  0  0  0  0
 19  3  1  0  0  0  0
 19 20  2  0  0  0  0
 22 16  1  0  0  0  0
 23 17  1  0  0  0  0
 24 29  1  0  0  0  0
 25 31  1  6  0  0  0
 25 24  1  0  0  0  0
 25 26  1  0  0  0  0
 26 32  1  0  0  0  0
 26 27  1  0  0  0  0
 28 27  1  0  0  0  0
 28 34  1  0  0  0  0
 29 36  1  1  0  0  0
 29 28  1  0  0  0  0
 30 24  1  0  0  0  0
 33 26  1  0  0  0  0
 35 28  1  0  0  0  0
 37 45  1  6  0  0  0
 37 29  1  0  0  0  0
 38 37  1  0  0  0  0
 38 39  1  0  0  0  0
 40 38  1  0  0  0  0
 41 40  1  0  0  0  0
 42 44  1  0  0  0  0
 42 40  1  0  0  0  0
 43 42  1  0  0  0  0
 44 45  1  0  0  0  0
M  END
>  <minimizedAffinity>
-6.12819862

$$$$

 OpenBabel03252509153D

 45 49  0  0  1  0  0  0  0  0999 V2000
   35.4610   28.9730   40.6180 S   0  0  0  0  0  0  0  0  0  0  0  0
   36.9500   30.0000   36.9620 C   0  0  0  0  0  0  0  0  0  0  0  0
   36.3330   29.3190   38.0070 C   0  0  0  0  0  0  0  0  0  0  0  0
   36.2480   29.8460   39.2950 C   0  0  0  0  0  0  0  0  0  0  0  0
   36.8000   31.1040   39.5530 C   0  0  0  0  0  0  0  0  0  0  0  0
   36.9050   31.9030   40.6340 N   0  0  0  0  0  0  0  0  0  0  0  0
   37.5530   33.0370   40.3050 C   0  0  0  0  0  0  0  0  0  0  0  0
   37.8450   32.9170   38.9980 N   0  0  0  0  0  0  0  0  0  0  0  0
   37.4000   31.7530   38.5120 C   0  0  0  0  0  0  0  0  0  0  0  0
   37.5030   31.2590   37.2210 C   0  0  0  0  0  0  0  0  0  0  0  0
   37.0100   29.5800   35.9670 H   0  0  0  0  0  0  0  0  0  0  0  0
   36.5190   31.6160   41.5430 H   0  0  0  0  0  0  0  0  0  0  0  0
   37.7390   33.8040   41.0270 H   0  0  0  0  0  0  0  0  0  0  0  0
   37.9980   31.8400   36.4440 H   0  0  0  0  0  0  0  0  0  0  0  0
   33.9320   26.7120   37.0930 C   0  0  0  0  0  0  0  0  0  0  0  0
   34.6640   25.5340   37.2930 C   0  0  0  0  0  0  0  0  0  0  0  0
   35.9850   25.6540   37.7450 C   0  0  0  0  0  0  0  0  0  0  0  0
   36.5050   26.9030   37.9700 N   0  0  0  0  0  0  0  0  0  0  0  0
   35.7530   28.0110   37.7590 C   0  0  0  0  0  0  0  0  0  0  0  0
   34.4600   27.9530   37.3210 N   0  0  0  0  0  0  0  0  0  0  0  0
   32.9180   26.6880   36.7500 H   0  0  0  0  0  0  0  0  0  0  0  0
   34.2130   24.5730   37.1030 H   0  0  0  0  0  0  0  0  0  0  0  0
   36.5580   24.7650   37.9040 H   0  0  0  0  0  0  0  0  0  0  0  0
   37.6350   27.5170   40.8900 N   0  0  0  0  0  0  0  0  0  0  0  0
   36.6220   28.1380   41.7350 C   0  0  1  0  0  0  0  0  0  0  0  0
   37.2160   29.2320   42.6120 C   0  0  0  0  0  0  0  0  0  0  0  0
   38.4220   28.8770   43.1840 O   0  0  0  0  0  0  0  0  0  0  0  0
   38.7900   27.5700   43.0420 C   0  0  0  0  0  0  0  0  0  0  0  0
   38.8490   27.2350   41.5730 C   0  0  1  0  0  0  0  0  0  0  0  0
   37.7570   28.1290   40.0490 H   0  0  0  0  0  0  0  0  0  0  0  0
   36.0660   27.4070   42.3390 H   0  0  0  0  0  0  0  0  0  0  0  0
   36.5530   29.3890   43.4580 H   0  0  0  0  0  0  0  0  0  0  0  0
   37.3650   30.1500   42.0070 H   0  0  0  0  0  0  0  0  0  0  0  0
   39.7740   27.4360   43.4880 H   0  0  0  0  0  0  0  0  0  0  0  0
   38.0030   26.9290   43.5100 H   0  0  0  0  0  0  0  0  0  0  0  0
   39.6180   27.9500   41.1520 H   0  0  0  0  0  0  0  0  0  0  0  0
   39.4070   25.9210   41.3070 N   0  0  1  0  0  0  0  0  0  0  0  0
   39.0510   25.1170   42.4840 C   0  0  0  0  0  3  0  0  0  0  0  0
   39.1030   25.7080   43.4120 H   0  0  0  0  0  0  0  0  0  0  0  0
   37.7060   24.4690   42.3250 C   0  0  0  0  0  3  0  0  0  0  0  0
   36.8860   25.1600   42.0840 H   0  0  0  0  0  0  0  0  0  0  0  0
   37.8520   23.4390   41.3140 N   0  0  0  0  0  0  0  0  0  0  0  0
   36.9030   23.0800   41.0860 H   0  0  0  0  0  0  0  0  0  0  0  0
   38.6100   23.8810   40.1700 C   0  0  0  0  0  2  0  0  0  0  0  0
   38.7100   25.3930   40.1610 C   0  0  0  0  0  2  0  0  0  0  0  0
  1 25  1  0  0  0  0
  2 10  2  0  0  0  0
  2  3  1  0  0  0  0
  3  4  2  0  0  0  0
  4  5  1  0  0  0  0
  4  1  1  0  0  0  0
  5  6  1  0  0  0  0
  6 12  1  0  0  0  0
  7  6  1  0  0  0  0
  7 13  1  0  0  0  0
  8  7  2  0  0  0  0
  9  8  1  0  0  0  0
  9  5  2  0  0  0  0
 10  9  1  0  0  0  0
 11  2  1  0  0  0  0
 14 10  1  0  0  0  0
 15 16  2  0  0  0  0
 15 20  1  0  0  0  0
 16 17  1  0  0  0  0
 17 23  1  0  0  0  0
 17 18  2  0  0  0  0
 19 18  1  0  0  0  0
 19  3  1  0  0  0  0
 20 19  2  0  0  0  0
 21 15  1  0  0  0  0
 22 16  1  0  0  0  0
 24 29  1  0  0  0  0
 24 25  1  0  0  0  0
 25 31  1  1  0  0  0
 25 26  1  0  0  0  0
 26 27  1  0  0  0  0
 26 32  1  0  0  0  0
 28 27  1  0  0  0  0
 28 34  1  0  0  0  0
 28 35  1  0  0  0  0
 29 36  1  6  0  0  0
 29 28  1  0  0  0  0
 30 24  1  0  0  0  0
 33 26  1  0  0  0  0
 37 45  1  6  0  0  0
 37 29  1  0  0  0  0
 37 38  1  0  0  0  0
 38 39  1  0  0  0  0
 40 38  1  0  0  0  0
 41 40  1  0  0  0  0
 42 40  1  0  0  0  0
 43 42  1  0  0  0  0
 44 42  1  0  0  0  0
 45 44  1  0  0  0  0
M  END
>  <minimizedAffinity>
-6.08834171

$$$$

 OpenBabel03252509153D

 45 49  0  0  1  0  0  0  0  0999 V2000
   36.3090   30.7190   41.0010 S   0  0  0  0  0  0  0  0  0  0  0  0
   37.6950   30.9710   37.1730 C   0  0  0  0  0  0  0  0  0  0  0  0
   37.5180   31.1510   38.5420 C   0  0  0  0  0  0  0  0  0  0  0  0
   36.5260   30.4840   39.2600 C   0  0  0  0  0  0  0  0  0  0  0  0
   35.6760   29.6010   38.5890 C   0  0  0  0  0  0  0  0  0  0  0  0
   34.6420   28.8100   38.9400 N   0  0  0  0  0  0  0  0  0  0  0  0
   34.1770   28.1560   37.8580 C   0  0  0  0  0  0  0  0  0  0  0  0
   34.9480   28.5620   36.8340 N   0  0  0  0  0  0  0  0  0  0  0  0
   35.8690   29.4410   37.2460 C   0  0  0  0  0  0  0  0  0  0  0  0
   36.8430   30.0870   36.5010 C   0  0  0  0  0  0  0  0  0  0  0  0
   38.4670   31.4940   36.6260 H   0  0  0  0  0  0  0  0  0  0  0  0
   34.3160   28.7680   39.9140 H   0  0  0  0  0  0  0  0  0  0  0  0
   33.3550   27.4760   37.9270 H   0  0  0  0  0  0  0  0  0  0  0  0
   36.9310   29.9050   35.4310 H   0  0  0  0  0  0  0  0  0  0  0  0
   38.7560   34.1570   40.2240 C   0  0  0  0  0  0  0  0  0  0  0  0
   40.0490   33.7820   40.6100 C   0  0  0  0  0  0  0  0  0  0  0  0
   40.4830   32.4910   40.2840 C   0  0  0  0  0  0  0  0  0  0  0  0
   39.6340   31.6510   39.6070 N   0  0  0  0  0  0  0  0  0  0  0  0
   38.3910   32.0630   39.2570 C   0  0  0  0  0  0  0  0  0  0  0  0
   37.9180   33.3110   39.5490 N   0  0  0  0  0  0  0  0  0  0  0  0
   38.3660   35.1290   40.4420 H   0  0  0  0  0  0  0  0  0  0  0  0
   40.6820   34.4770   41.1400 H   0  0  0  0  0  0  0  0  0  0  0  0
   41.4680   32.1890   40.5710 H   0  0  0  0  0  0  0  0  0  0  0  0
   36.9410   28.1690   41.1450 N   0  0  0  0  0  0  0  0  0  0  0  0
   36.9350   29.3450   42.0070 C   0  0  1  0  0  0  0  0  0  0  0  0
   38.3440   29.7420   42.4250 C   0  0  0  0  0  0  0  0  0  0  0  0
   39.1290   28.6640   42.7870 O   0  0  0  0  0  0  0  0  0  0  0  0
   38.4850   27.4660   42.9030 C   0  0  0  0  0  0  0  0  0  0  0  0
   37.8160   27.1420   41.5900 C   0  0  1  0  0  0  0  0  0  0  0  0
   37.1400   28.4990   40.1700 H   0  0  0  0  0  0  0  0  0  0  0  0
   36.2820   29.2240   42.8840 H   0  0  0  0  0  0  0  0  0  0  0  0
   38.2760   30.3410   43.3290 H   0  0  0  0  0  0  0  0  0  0  0  0
   38.8390   30.2780   41.5900 H   0  0  0  0  0  0  0  0  0  0  0  0
   39.2190   26.6980   43.1390 H   0  0  0  0  0  0  0  0  0  0  0  0
   37.6880   27.5670   43.6790 H   0  0  0  0  0  0  0  0  0  0  0  0
   38.6640   27.1070   40.8440 H   0  0  0  0  0  0  0  0  0  0  0  0
   37.2550   25.8030   41.5490 N   0  0  1  0  0  0  0  0  0  0  0  0
   36.8050   25.6280   40.1610 C   0  0  0  0  0  3  0  0  0  0  0  0
   36.3880   26.5590   39.7480 H   0  0  0  0  0  0  0  0  0  0  0  0
   37.9020   25.0890   39.2890 C   0  0  0  0  0  3  0  0  0  0  0  0
   38.8350   25.6680   39.3080 H   0  0  0  0  0  0  0  0  0  0  0  0
   38.1200   23.7110   39.6910 N   0  0  0  0  0  0  0  0  0  0  0  0
   38.9710   23.3670   39.2000 H   0  0  0  0  0  0  0  0  0  0  0  0
   38.1510   23.5440   41.1220 C   0  0  0  0  0  2  0  0  0  0  0  0
   38.3370   24.8860   41.8010 C   0  0  0  0  0  2  0  0  0  0  0  0
  1 25  1  0  0  0  0
  2  3  1  0  0  0  0
  3 19  1  0  0  0  0
  3  4  2  0  0  0  0
  4  1  1  0  0  0  0
  5  6  1  0  0  0  0
  5  4  1  0  0  0  0
  6 12  1  0  0  0  0
  7 13  1  0  0  0  0
  7  6  1  0  0  0  0
  8  9  1  0  0  0  0
  8  7  2  0  0  0  0
  9  5  2  0  0  0  0
 10  2  2  0  0  0  0
 10  9  1  0  0  0  0
 11  2  1  0  0  0  0
 14 10  1  0  0  0  0
 15 21  1  0  0  0  0
 15 16  1  0  0  0  0
 16 22  1  0  0  0  0
 17 23  1  0  0  0  0
 17 16  2  0  0  0  0
 18 17  1  0  0  0  0
 19 20  1  0  0  0  0
 19 18  2  0  0  0  0
 20 15  2  0  0  0  0
 24 29  1  0  0  0  0
 24 25  1  0  0  0  0
 25 26  1  0  0  0  0
 25 31  1  1  0  0  0
 26 27  1  0  0  0  0
 26 32  1  0  0  0  0
 27 28  1  0  0  0  0
 28 34  1  0  0  0  0
 28 35  1  0  0  0  0
 29 36  1  6  0  0  0
 29 28  1  0  0  0  0
 30 24  1  0  0  0  0
 33 26  1  0  0  0  0
 37 29  1  0  0  0  0
 37 45  1  6  0  0  0
 38 37  1  0  0  0  0
 39 38  1  0  0  0  0
 40 41  1  0  0  0  0
 40 42  1  0  0  0  0
 40 38  1  0  0  0  0
 42 44  1  0  0  0  0
 43 42  1  0  0  0  0
 44 45  1  0  0  0  0
M  END
>  <minimizedAffinity>
-5.97635126

$$$$

 OpenBabel03252509153D

 45 49  0  0  1  0  0  0  0  0999 V2000
   39.8460   29.6260   38.5310 S   0  0  0  0  0  0  0  0  0  0  0  0
   36.9980   32.4380   39.3190 C   0  0  0  0  0  0  0  0  0  0  0  0
   37.6470   31.2690   38.9320 C   0  0  0  0  0  0  0  0  0  0  0  0
   39.0300   31.1170   39.0250 C   0  0  0  0  0  0  0  0  0  0  0  0
   39.7990   32.1720   39.5240 C   0  0  0  0  0  0  0  0  0  0  0  0
   41.1110   32.3790   39.7510 N   0  0  0  0  0  0  0  0  0  0  0  0
   41.2990   33.6140   40.2560 C   0  0  0  0  0  0  0  0  0  0  0  0
   40.0740   34.1610   40.3340 N   0  0  0  0  0  0  0  0  0  0  0  0
   39.1400   33.3090   39.8970 C   0  0  0  0  0  0  0  0  0  0  0  0
   37.7680   33.4940   39.8180 C   0  0  0  0  0  0  0  0  0  0  0  0
   35.9240   32.5440   39.2410 H   0  0  0  0  0  0  0  0  0  0  0  0
   41.8060   31.6500   39.5420 H   0  0  0  0  0  0  0  0  0  0  0  0
   42.2750   33.9730   40.5040 H   0  0  0  0  0  0  0  0  0  0  0  0
   37.3180   34.4330   40.1360 H   0  0  0  0  0  0  0  0  0  0  0  0
   35.9250   29.0440   36.5890 C   0  0  0  0  0  0  0  0  0  0  0  0
   35.3880   28.0640   37.4340 C   0  0  0  0  0  0  0  0  0  0  0  0
   35.6250   28.1830   38.8090 C   0  0  0  0  0  0  0  0  0  0  0  0
   36.3680   29.2410   39.2720 N   0  0  0  0  0  0  0  0  0  0  0  0
   36.8660   30.1620   38.4110 C   0  0  0  0  0  0  0  0  0  0  0  0
   36.6640   30.0950   37.0610 N   0  0  0  0  0  0  0  0  0  0  0  0
   35.7790   29.0110   35.5300 H   0  0  0  0  0  0  0  0  0  0  0  0
   34.8090   27.2510   37.0260 H   0  0  0  0  0  0  0  0  0  0  0  0
   35.2210   27.4440   39.4690 H   0  0  0  0  0  0  0  0  0  0  0  0
   39.0670   27.9610   40.4130 N   0  0  0  0  0  0  0  0  0  0  0  0
   40.3050   28.5510   39.9180 C   0  0  1  0  0  0  0  0  0  0  0  0
   41.2360   27.4950   39.3360 C   0  0  0  0  0  0  0  0  0  0  0  0
   41.3140   26.3520   40.1090 O   0  0  0  0  0  0  0  0  0  0  0  0
   40.7190   26.4170   41.3370 C   0  0  0  0  0  0  0  0  0  0  0  0
   39.2640   26.7670   41.1570 C   0  0  1  0  0  0  0  0  0  0  0  0
   38.4270   27.8460   39.5910 H   0  0  0  0  0  0  0  0  0  0  0  0
   40.8210   29.1560   40.6780 H   0  0  0  0  0  0  0  0  0  0  0  0
   42.2480   27.8920   39.3410 H   0  0  0  0  0  0  0  0  0  0  0  0
   40.8890   27.2160   38.3210 H   0  0  0  0  0  0  0  0  0  0  0  0
   40.8070   25.4440   41.8160 H   0  0  0  0  0  0  0  0  0  0  0  0
   41.2020   27.2400   41.9180 H   0  0  0  0  0  0  0  0  0  0  0  0
   38.8500   25.9290   40.5200 H   0  0  0  0  0  0  0  0  0  0  0  0
   38.4980   26.6830   42.3890 N   0  0  1  0  0  0  0  0  0  0  0  0
   39.1320   27.6550   43.2910 C   0  0  0  0  0  3  0  0  0  0  0  0
   40.2250   27.6760   43.1630 H   0  0  0  0  0  0  0  0  0  0  0  0
   38.5390   29.0250   43.1310 C   0  0  0  0  0  3  0  0  0  0  0  0
   38.5420   29.4130   42.1030 H   0  0  0  0  0  0  0  0  0  0  0  0
   37.1950   28.9670   43.6770 N   0  0  0  0  0  0  0  0  0  0  0  0
   36.7190   29.8630   43.4450 H   0  0  0  0  0  0  0  0  0  0  0  0
   36.4750   27.7870   43.2680 C   0  0  0  0  0  2  0  0  0  0  0  0
   37.1650   27.1370   42.0860 C   0  0  0  0  0  2  0  0  0  0  0  0
  1  4  1  0  0  0  0
  1 25  1  0  0  0  0
  2 10  1  0  0  0  0
  3  4  1  0  0  0  0
  3  2  2  0  0  0  0
  4  5  2  0  0  0  0
  5  6  1  0  0  0  0
  5  9  1  0  0  0  0
  6  7  1  0  0  0  0
  7  8  2  0  0  0  0
  7 13  1  0  0  0  0
  9  8  1  0  0  0  0
 10  9  2  0  0  0  0
 10 14  1  0  0  0  0
 11  2  1  0  0  0  0
 12  6  1  0  0  0  0
 15 20  2  0  0  0  0
 15 16  1  0  0  0  0
 16 17  2  0  0  0  0
 17 18  1  0  0  0  0
 17 23  1  0  0  0  0
 19  3  1  0  0  0  0
 19 18  2  0  0  0  0
 20 19  1  0  0  0  0
 21 15  1  0  0  0  0
 22 16  1  0  0  0  0
 24 29  1  0  0  0  0
 25 24  1  0  0  0  0
 25 31  1  1  0  0  0
 26 32  1  0  0  0  0
 26 25  1  0  0  0  0
 26 27  1  0  0  0  0
 27 28  1  0  0  0  0
 28 34  1  0  0  0  0
 28 35  1  0  0  0  0
 29 36  1  6  0  0  0
 29 28  1  0  0  0  0
 29 37  1  0  0  0  0
 30 24  1  0  0  0  0
 33 26  1  0  0  0  0
 37 45  1  6  0  0  0
 37 38  1  0  0  0  0
 39 38  1  0  0  0  0
 40 38  1  0  0  0  0
 40 42  1  0  0  0  0
 41 40  1  0  0  0  0
 43 42  1  0  0  0  0
 44 42  1  0  0  0  0
 45 44  1  0  0  0  0
M  END
>  <minimizedAffinity>
-5.90014744

$$$$

 OpenBabel03252509153D

 45 49  0  0  1  0  0  0  0  0999 V2000
   38.7350   27.3350   37.4660 S   0  0  0  0  0  0  0  0  0  0  0  0
   34.8070   28.2470   38.0840 C   0  0  0  0  0  0  0  0  0  0  0  0
   36.1150   27.8010   38.2510 C   0  0  0  0  0  0  0  0  0  0  0  0
   37.0740   27.9050   37.2440 C   0  0  0  0  0  0  0  0  0  0  0  0
   36.7160   28.4760   36.0190 C   0  0  0  0  0  0  0  0  0  0  0  0
   37.3500   28.7330   34.8580 N   0  0  0  0  0  0  0  0  0  0  0  0
   36.4990   29.3130   33.9890 C   0  0  0  0  0  0  0  0  0  0  0  0
   35.3280   29.4070   34.6420 N   0  0  0  0  0  0  0  0  0  0  0  0
   35.4270   28.9070   35.8790 C   0  0  0  0  0  0  0  0  0  0  0  0
   34.4490   28.8190   36.8580 C   0  0  0  0  0  0  0  0  0  0  0  0
   34.0720   28.1610   38.8730 H   0  0  0  0  0  0  0  0  0  0  0  0
   38.3420   28.4910   34.7330 H   0  0  0  0  0  0  0  0  0  0  0  0
   36.8120   29.5960   33.0070 H   0  0  0  0  0  0  0  0  0  0  0  0
   33.4420   29.1860   36.6670 H   0  0  0  0  0  0  0  0  0  0  0  0
   37.1870   27.4590   41.7340 C   0  0  0  0  0  0  0  0  0  0  0  0
   37.2450   26.0700   41.9030 C   0  0  0  0  0  0  0  0  0  0  0  0
   36.9130   25.2620   40.8080 C   0  0  0  0  0  0  0  0  0  0  0  0
   36.5470   25.8550   39.6250 N   0  0  0  0  0  0  0  0  0  0  0  0
   36.5060   27.2050   39.5150 C   0  0  0  0  0  0  0  0  0  0  0  0
   36.8200   28.0400   40.5500 N   0  0  0  0  0  0  0  0  0  0  0  0
   37.4290   28.1310   42.5320 H   0  0  0  0  0  0  0  0  0  0  0  0
   37.5390   25.6480   42.8520 H   0  0  0  0  0  0  0  0  0  0  0  0
   36.9530   24.1990   40.9200 H   0  0  0  0  0  0  0  0  0  0  0  0
   38.9870   29.6970   38.5950 N   0  0  0  0  0  0  0  0  0  0  0  0
   39.8060   28.5230   38.3210 C   0  0  1  0  0  0  0  0  0  0  0  0
   40.2480   27.8350   39.6060 C   0  0  0  0  0  0  0  0  0  0  0  0
   40.6710   28.7200   40.5790 O   0  0  0  0  0  0  0  0  0  0  0  0
   40.8110   30.0200   40.1870 C   0  0  0  0  0  0  0  0  0  0  0  0
   39.4930   30.5110   39.6430 C   0  0  1  0  0  0  0  0  0  0  0  0
   38.0070   29.3630   38.7560 H   0  0  0  0  0  0  0  0  0  0  0  0
   40.6680   28.7470   37.6760 H   0  0  0  0  0  0  0  0  0  0  0  0
   41.1280   27.2360   39.3870 H   0  0  0  0  0  0  0  0  0  0  0  0
   39.4090   27.2340   40.0100 H   0  0  0  0  0  0  0  0  0  0  0  0
   41.0950   30.6150   41.0530 H   0  0  0  0  0  0  0  0  0  0  0  0
   41.5610   30.0600   39.3600 H   0  0  0  0  0  0  0  0  0  0  0  0
   38.7720   30.3950   40.5060 H   0  0  0  0  0  0  0  0  0  0  0  0
   39.4840   31.9370   39.3660 N   0  0  1  0  0  0  0  0  0  0  0  0
   38.2490   32.1630   38.6030 C   0  0  0  0  0  3  0  0  0  0  0  0
   38.0380   31.3300   37.9140 H   0  0  0  0  0  0  0  0  0  0  0  0
   37.0810   32.4310   39.5070 C   0  0  0  0  0  3  0  0  0  0  0  0
   36.9090   31.6680   40.2780 H   0  0  0  0  0  0  0  0  0  0  0  0
   37.2960   33.7430   40.0920 N   0  0  0  0  0  0  0  0  0  0  0  0
   36.5750   33.8840   40.8290 H   0  0  0  0  0  0  0  0  0  0  0  0
   38.6510   33.9410   40.5400 C   0  0  0  0  0  2  0  0  0  0  0  0
   39.3710   32.6110   40.6350 C   0  0  0  0  0  2  0  0  0  0  0  0
  1 25  1  0  0  0  0
  2  3  1  0  0  0  0
  2 11  1  0  0  0  0
  3 19  1  0  0  0  0
  4  1  1  0  0  0  0
  4  3  2  0  0  0  0
  5  4  1  0  0  0  0
  6  5  1  0  0  0  0
  7  8  2  0  0  0  0
  7  6  1  0  0  0  0
  8  9  1  0  0  0  0
  9  5  2  0  0  0  0
  9 10  1  0  0  0  0
 10  2  2  0  0  0  0
 12  6  1  0  0  0  0
 13  7  1  0  0  0  0
 14 10  1  0  0  0  0
 15 16  1  0  0  0  0
 15 21  1  0  0  0  0
 16 22  1  0  0  0  0
 17 23  1  0  0  0  0
 17 16  2  0  0  0  0
 18 17  1  0  0  0  0
 19 18  2  0  0  0  0
 19 20  1  0  0  0  0
 20 15  2  0  0  0  0
 24 30  1  0  0  0  0
 24 29  1  0  0  0  0
 25 31  1  6  0  0  0
 25 24  1  0  0  0  0
 25 26  1  0  0  0  0
 26 33  1  0  0  0  0
 26 27  1  0  0  0  0
 28 27  1  0  0  0  0
 28 34  1  0  0  0  0
 29 28  1  0  0  0  0
 29 36  1  1  0  0  0
 32 26  1  0  0  0  0
 35 28  1  0  0  0  0
 37 29  1  0  0  0  0
 37 45  1  1  0  0  0
 38 37  1  0  0  0  0
 38 40  1  0  0  0  0
 39 38  1  0  0  0  0
 40 42  1  0  0  0  0
 40 41  1  0  0  0  0
 42 44  1  0  0  0  0
 42 43  1  0  0  0  0
 44 45  1  0  0  0  0
M  END
>  <minimizedAffinity>
-5.85258627

$$$$

 OpenBabel03252509153D

 45 49  0  0  1  0  0  0  0  0999 V2000
   36.3080   30.6070   40.0060 S   0  0  0  0  0  0  0  0  0  0  0  0
   36.6520   26.5870   39.4040 C   0  0  0  0  0  0  0  0  0  0  0  0
   36.4640   27.9530   39.2130 C   0  0  0  0  0  0  0  0  0  0  0  0
   36.5490   28.8710   40.2590 C   0  0  0  0  0  0  0  0  0  0  0  0
   36.8340   28.4110   41.5470 C   0  0  0  0  0  0  0  0  0  0  0  0
   36.9890   28.9840   42.7580 N   0  0  0  0  0  0  0  0  0  0  0  0
   37.2620   28.0400   43.6790 C   0  0  0  0  0  0  0  0  0  0  0  0
   37.2720   26.8750   43.0080 N   0  0  0  0  0  0  0  0  0  0  0  0
   37.0160   27.0670   41.7100 C   0  0  0  0  0  0  0  0  0  0  0  0
   36.9370   26.1270   40.6940 C   0  0  0  0  0  0  0  0  0  0  0  0
   36.5830   25.8840   38.5850 H   0  0  0  0  0  0  0  0  0  0  0  0
   36.8970   30.0010   42.8780 H   0  0  0  0  0  0  0  0  0  0  0  0
   37.4200   28.2910   44.7070 H   0  0  0  0  0  0  0  0  0  0  0  0
   37.0950   25.0700   40.9070 H   0  0  0  0  0  0  0  0  0  0  0  0
   36.8970   29.4200   35.8880 C   0  0  0  0  0  0  0  0  0  0  0  0
   35.5970   29.3880   35.3660 C   0  0  0  0  0  0  0  0  0  0  0  0
   34.5800   28.8590   36.1710 C   0  0  0  0  0  0  0  0  0  0  0  0
   34.8920   28.3960   37.4250 N   0  0  0  0  0  0  0  0  0  0  0  0
   36.1670   28.4500   37.8820 C   0  0  0  0  0  0  0  0  0  0  0  0
   37.1960   28.9560   37.1400 N   0  0  0  0  0  0  0  0  0  0  0  0
   37.7170   29.8130   35.3240 H   0  0  0  0  0  0  0  0  0  0  0  0
   35.3990   29.7640   34.3740 H   0  0  0  0  0  0  0  0  0  0  0  0
   33.5820   28.8270   35.7880 H   0  0  0  0  0  0  0  0  0  0  0  0
   38.7190   31.1790   39.1220 N   0  0  0  0  0  0  0  0  0  0  0  0
   37.8210   31.5890   40.1950 C   0  0  1  0  0  0  0  0  0  0  0  0
   37.3950   33.0430   40.0450 C   0  0  0  0  0  0  0  0  0  0  0  0
   38.4370   33.8830   39.7010 O   0  0  0  0  0  0  0  0  0  0  0  0
   39.6860   33.3350   39.7390 C   0  0  0  0  0  0  0  0  0  0  0  0
   39.7230   32.1380   38.8230 C   0  0  1  0  0  0  0  0  0  0  0  0
   38.1230   30.9220   38.2990 H   0  0  0  0  0  0  0  0  0  0  0  0
   38.2410   31.4020   41.1940 H   0  0  0  0  0  0  0  0  0  0  0  0
   37.0680   33.4050   41.0160 H   0  0  0  0  0  0  0  0  0  0  0  0
   36.6060   33.1180   39.2700 H   0  0  0  0  0  0  0  0  0  0  0  0
   40.4030   34.0800   39.3980 H   0  0  0  0  0  0  0  0  0  0  0  0
   39.8830   32.9780   40.7800 H   0  0  0  0  0  0  0  0  0  0  0  0
   39.4650   32.5550   37.8050 H   0  0  0  0  0  0  0  0  0  0  0  0
   41.0580   31.5890   38.6510 N   0  0  1  0  0  0  0  0  0  0  0  0
   41.4380   31.9500   37.2790 C   0  0  0  0  0  3  0  0  0  0  0  0
   40.5790   31.8940   36.5910 H   0  0  0  0  0  0  0  0  0  0  0  0
   42.0930   33.3000   37.2240 C   0  0  0  0  0  3  0  0  0  0  0  0
   41.5110   34.1150   37.6760 H   0  0  0  0  0  0  0  0  0  0  0  0
   43.3950   33.1610   37.8500 N   0  0  0  0  0  0  0  0  0  0  0  0
   43.8020   34.1140   37.9510 H   0  0  0  0  0  0  0  0  0  0  0  0
   43.3490   32.4000   39.0730 C   0  0  0  0  0  2  0  0  0  0  0  0
   41.9210   32.2900   39.5670 C   0  0  0  0  0  2  0  0  0  0  0  0
  1 25  1  0  0  0  0
  1  4  1  0  0  0  0
  2 10  1  0  0  0  0
  3  2  2  0  0  0  0
  3  4  1  0  0  0  0
  4  5  2  0  0  0  0
  5  9  1  0  0  0  0
  5  6  1  0  0  0  0
  6 12  1  0  0  0  0
  6  7  1  0  0  0  0
  7 13  1  0  0  0  0
  8  7  2  0  0  0  0
  9  8  1  0  0  0  0
 10 14  1  0  0  0  0
 10  9  2  0  0  0  0
 11  2  1  0  0  0  0
 15 20  1  0  0  0  0
 16 15  2  0  0  0  0
 16 17  1  0  0  0  0
 17 18  2  0  0  0  0
 18 19  1  0  0  0  0
 19  3  1  0  0  0  0
 20 19  2  0  0  0  0
 21 15  1  0  0  0  0
 22 16  1  0  0  0  0
 23 17  1  0  0  0  0
 24 25  1  0  0  0  0
 25 31  1  1  0  0  0
 26 25  1  0  0  0  0
 26 32  1  0  0  0  0
 27 28  1  0  0  0  0
 27 26  1  0  0  0  0
 28 35  1  0  0  0  0
 29 36  1  6  0  0  0
 29 24  1  0  0  0  0
 29 28  1  0  0  0  0
 30 24  1  0  0  0  0
 33 26  1  0  0  0  0
 34 28  1  0  0  0  0
 37 29  1  0  0  0  0
 37 45  1  1  0  0  0
 38 37  1  0  0  0  0
 39 38  1  0  0  0  0
 40 38  1  0  0  0  0
 40 41  1  0  0  0  0
 40 42  1  0  0  0  0
 42 43  1  0  0  0  0
 42 44  1  0  0  0  0
 44 45  1  0  0  0  0
M  END
>  <minimizedAffinity>
-5.82630348

$$$$

 OpenBabel03252509153D

 45 49  0  0  1  0  0  0  0  0999 V2000
   40.6650   29.1930   40.0380 S   0  0  0  0  0  0  0  0  0  0  0  0
   37.4530   28.8840   42.5350 C   0  0  0  0  0  0  0  0  0  0  0  0
   38.3340   29.2990   41.5400 C   0  0  0  0  0  0  0  0  0  0  0  0
   39.5510   28.6590   41.3060 C   0  0  0  0  0  0  0  0  0  0  0  0
   39.9060   27.5620   42.0960 C   0  0  0  0  0  0  0  0  0  0  0  0
   40.9610   26.7260   42.1580 N   0  0  0  0  0  0  0  0  0  0  0  0
   40.7730   25.8220   43.1390 C   0  0  0  0  0  0  0  0  0  0  0  0
   39.5780   26.1210   43.6780 N   0  0  0  0  0  0  0  0  0  0  0  0
   39.0260   27.1740   43.0660 C   0  0  0  0  0  0  0  0  0  0  0  0
   37.8090   27.7860   43.3250 C   0  0  0  0  0  0  0  0  0  0  0  0
   36.5120   29.3890   42.7060 H   0  0  0  0  0  0  0  0  0  0  0  0
   41.7570   26.8290   41.5150 H   0  0  0  0  0  0  0  0  0  0  0  0
   41.5000   25.0670   43.3510 H   0  0  0  0  0  0  0  0  0  0  0  0
   37.1620   27.4150   44.1190 H   0  0  0  0  0  0  0  0  0  0  0  0
   36.9530   31.2880   38.7960 C   0  0  0  0  0  0  0  0  0  0  0  0
   37.3250   32.5930   39.1430 C   0  0  0  0  0  0  0  0  0  0  0  0
   38.0540   32.7730   40.3260 C   0  0  0  0  0  0  0  0  0  0  0  0
   38.3700   31.6780   41.0910 N   0  0  0  0  0  0  0  0  0  0  0  0
   37.9840   30.4360   40.7090 C   0  0  0  0  0  0  0  0  0  0  0  0
   37.2730   30.2040   39.5650 N   0  0  0  0  0  0  0  0  0  0  0  0
   36.3960   31.0840   37.9040 H   0  0  0  0  0  0  0  0  0  0  0  0
   37.0550   33.4240   38.5110 H   0  0  0  0  0  0  0  0  0  0  0  0
   38.3470   33.7630   40.6060 H   0  0  0  0  0  0  0  0  0  0  0  0
   41.3660   31.7280   39.9630 N   0  0  0  0  0  0  0  0  0  0  0  0
   41.8190   30.4850   40.5770 C   0  0  1  0  0  0  0  0  0  0  0  0
   41.7090   30.5360   42.0950 C   0  0  0  0  0  0  0  0  0  0  0  0
   42.1430   31.7330   42.6330 O   0  0  0  0  0  0  0  0  0  0  0  0
   42.7690   32.5850   41.7700 C   0  0  0  0  0  0  0  0  0  0  0  0
   41.8370   32.8930   40.6250 C   0  0  1  0  0  0  0  0  0  0  0  0
   40.3210   31.6770   39.8920 H   0  0  0  0  0  0  0  0  0  0  0  0
   42.8350   30.2030   40.2640 H   0  0  0  0  0  0  0  0  0  0  0  0
   42.3840   29.7940   42.5110 H   0  0  0  0  0  0  0  0  0  0  0  0
   40.6540   30.3730   42.3940 H   0  0  0  0  0  0  0  0  0  0  0  0
   43.0110   33.5030   42.3030 H   0  0  0  0  0  0  0  0  0  0  0  0
   43.6670   32.0680   41.3530 H   0  0  0  0  0  0  0  0  0  0  0  0
   40.9330   33.3620   41.1160 H   0  0  0  0  0  0  0  0  0  0  0  0
   42.3380   33.9340   39.7430 N   0  0  1  0  0  0  0  0  0  0  0  0
   43.7850   33.6960   39.6660 C   0  0  0  0  0  3  0  0  0  0  0  0
   44.1950   33.3600   40.6320 H   0  0  0  0  0  0  0  0  0  0  0  0
   44.1290   32.7350   38.5650 C   0  0  0  0  0  3  0  0  0  0  0  0
   43.5950   31.7750   38.6050 H   0  0  0  0  0  0  0  0  0  0  0  0
   43.8900   33.4290   37.3120 N   0  0  0  0  0  0  0  0  0  0  0  0
   43.9820   32.7350   36.5420 H   0  0  0  0  0  0  0  0  0  0  0  0
   42.6490   34.1610   37.3070 C   0  0  0  0  0  2  0  0  0  0  0  0
   41.7620   33.6970   38.4440 C   0  0  0  0  0  2  0  0  0  0  0  0
  1 25  1  0  0  0  0
  1  4  1  0  0  0  0
  2 11  1  0  0  0  0
  2 10  1  0  0  0  0
  3  2  2  0  0  0  0
  4  3  1  0  0  0  0
  4  5  2  0  0  0  0
  5  6  1  0  0  0  0
  5  9  1  0  0  0  0
  6  7  1  0  0  0  0
  7 13  1  0  0  0  0
  7  8  2  0  0  0  0
  9 10  2  0  0  0  0
  9  8  1  0  0  0  0
 10 14  1  0  0  0  0
 12  6  1  0  0  0  0
 15 16  2  0  0  0  0
 15 20  1  0  0  0  0
 16 17  1  0  0  0  0
 17 23  1  0  0  0  0
 17 18  2  0  0  0  0
 19 18  1  0  0  0  0
 19  3  1  0  0  0  0
 20 19  2  0  0  0  0
 21 15  1  0  0  0  0
 22 16  1  0  0  0  0
 24 25  1  0  0  0  0
 24 29  1  0  0  0  0
 25 31  1  6  0  0  0
 25 26  1  0  0  0  0
 26 33  1  0  0  0  0
 26 32  1  0  0  0  0
 26 27  1  0  0  0  0
 28 34  1  0  0  0  0
 28 27  1  0  0  0  0
 29 36  1  1  0  0  0
 29 28  1  0  0  0  0
 30 24  1  0  0  0  0
 35 28  1  0  0  0  0
 37 45  1  6  0  0  0
 37 29  1  0  0  0  0
 38 37  1  0  0  0  0
 38 39  1  0  0  0  0
 40 41  1  0  0  0  0
 40 38  1  0  0  0  0
 42 40  1  0  0  0  0
 43 42  1  0  0  0  0
 44 42  1  0  0  0  0
 44 45  1  0  0  0  0
M  END
>  <minimizedAffinity>
-5.71902561

$$$$

 OpenBabel03252509153D

 45 49  0  0  1  0  0  0  0  0999 V2000
   39.2070   27.8840   39.0070 S   0  0  0  0  0  0  0  0  0  0  0  0
   35.2810   28.9500   39.3150 C   0  0  0  0  0  0  0  0  0  0  0  0
   36.5820   28.5490   39.6090 C   0  0  0  0  0  0  0  0  0  0  0  0
   37.5560   28.3940   38.6230 C   0  0  0  0  0  0  0  0  0  0  0  0
   37.2220   28.6490   37.2900 C   0  0  0  0  0  0  0  0  0  0  0  0
   37.8760   28.6080   36.1120 N   0  0  0  0  0  0  0  0  0  0  0  0
   37.0450   28.9620   35.1130 C   0  0  0  0  0  0  0  0  0  0  0  0
   35.8650   29.2220   35.7030 N   0  0  0  0  0  0  0  0  0  0  0  0
   35.9400   29.0410   37.0270 C   0  0  0  0  0  0  0  0  0  0  0  0
   34.9480   29.2050   37.9810 C   0  0  0  0  0  0  0  0  0  0  0  0
   34.5340   29.0660   40.0880 H   0  0  0  0  0  0  0  0  0  0  0  0
   38.8670   28.3360   36.0670 H   0  0  0  0  0  0  0  0  0  0  0  0
   37.3740   28.9930   34.0970 H   0  0  0  0  0  0  0  0  0  0  0  0
   33.9470   29.5210   37.6880 H   0  0  0  0  0  0  0  0  0  0  0  0
   37.1660   26.7650   42.7510 C   0  0  0  0  0  0  0  0  0  0  0  0
   37.6420   27.7770   43.5960 C   0  0  0  0  0  0  0  0  0  0  0  0
   37.7550   29.0700   43.0690 C   0  0  0  0  0  0  0  0  0  0  0  0
   37.4020   29.2940   41.7620 N   0  0  0  0  0  0  0  0  0  0  0  0
   36.9480   28.2790   40.9870 C   0  0  0  0  0  0  0  0  0  0  0  0
   36.8160   27.0000   41.4490 N   0  0  0  0  0  0  0  0  0  0  0  0
   37.0550   25.7570   43.0940 H   0  0  0  0  0  0  0  0  0  0  0  0
   37.9070   27.5540   44.6170 H   0  0  0  0  0  0  0  0  0  0  0  0
   38.1170   29.8540   43.7000 H   0  0  0  0  0  0  0  0  0  0  0  0
   40.0460   30.0080   40.3120 N   0  0  0  0  0  0  0  0  0  0  0  0
   40.3890   29.2560   39.1110 C   0  0  1  0  0  0  0  0  0  0  0  0
   41.7650   28.6120   39.2260 C   0  0  0  0  0  0  0  0  0  0  0  0
   42.7160   29.4540   39.7700 O   0  0  0  0  0  0  0  0  0  0  0  0
   42.3400   30.7570   39.9330 C   0  0  0  0  0  0  0  0  0  0  0  0
   41.1130   30.8050   40.8070 C   0  0  1  0  0  0  0  0  0  0  0  0
   39.6700   29.3240   41.0110 H   0  0  0  0  0  0  0  0  0  0  0  0
   40.3110   29.8590   38.1950 H   0  0  0  0  0  0  0  0  0  0  0  0
   42.1300   28.4060   38.2230 H   0  0  0  0  0  0  0  0  0  0  0  0
   41.6950   27.7010   39.8540 H   0  0  0  0  0  0  0  0  0  0  0  0
   43.1550   31.2940   40.4140 H   0  0  0  0  0  0  0  0  0  0  0  0
   42.0670   31.1730   38.9330 H   0  0  0  0  0  0  0  0  0  0  0  0
   41.4390   30.3240   41.7770 H   0  0  0  0  0  0  0  0  0  0  0  0
   40.7370   32.1550   41.1930 N   0  0  1  0  0  0  0  0  0  0  0  0
   41.3440   33.0190   40.1710 C   0  0  0  0  0  3  0  0  0  0  0  0
   42.3310   32.6460   39.8560 H   0  0  0  0  0  0  0  0  0  0  0  0
   40.4320   33.2070   38.9930 C   0  0  0  0  0  3  0  0  0  0  0  0
   40.0770   32.2760   38.5310 H   0  0  0  0  0  0  0  0  0  0  0  0
   39.3290   34.0350   39.4450 N   0  0  0  0  0  0  0  0  0  0  0  0
   38.6160   34.0560   38.6870 H   0  0  0  0  0  0  0  0  0  0  0  0
   38.8180   33.6340   40.7310 C   0  0  0  0  0  2  0  0  0  0  0  0
   39.3040   32.2410   41.0760 C   0  0  0  0  0  2  0  0  0  0  0  0
  1 25  1  0  0  0  0
  2  3  1  0  0  0  0
  2 11  1  0  0  0  0
  3 19  1  0  0  0  0
  4  1  1  0  0  0  0
  4  3  2  0  0  0  0
  5  4  1  0  0  0  0
  6  5  1  0  0  0  0
  7  8  2  0  0  0  0
  7  6  1  0  0  0  0
  8  9  1  0  0  0  0
  9  5  2  0  0  0  0
  9 10  1  0  0  0  0
 10  2  2  0  0  0  0
 12  6  1  0  0  0  0
 13  7  1  0  0  0  0
 14 10  1  0  0  0  0
 15 21  1  0  0  0  0
 15 16  1  0  0  0  0
 16 22  1  0  0  0  0
 17 16  2  0  0  0  0
 17 23  1  0  0  0  0
 18 17  1  0  0  0  0
 19 20  1  0  0  0  0
 19 18  2  0  0  0  0
 20 15  2  0  0  0  0
 24 29  1  0  0  0  0
 24 30  1  0  0  0  0
 25 31  1  6  0  0  0
 25 26  1  0  0  0  0
 25 24  1  0  0  0  0
 26 27  1  0  0  0  0
 26 33  1  0  0  0  0
 27 28  1  0  0  0  0
 28 34  1  0  0  0  0
 28 29  1  0  0  0  0
 29 37  1  0  0  0  0
 29 36  1  1  0  0  0
 32 26  1  0  0  0  0
 35 28  1  0  0  0  0
 37 45  1  6  0  0  0
 38 37  1  0  0  0  0
 39 38  1  0  0  0  0
 40 42  1  0  0  0  0
 40 38  1  0  0  0  0
 41 40  1  0  0  0  0
 42 44  1  0  0  0  0
 43 42  1  0  0  0  0
 44 45  1  0  0  0  0
M  END
>  <minimizedAffinity>
-5.7086277

$$$$

 OpenBabel03252509153D

 45 49  0  0  1  0  0  0  0  0999 V2000
   38.4680   27.3370   39.3560 S   0  0  0  0  0  0  0  0  0  0  0  0
   36.8240   24.0800   41.1800 C   0  0  0  0  0  0  0  0  0  0  0  0
   37.6050   25.1970   40.8950 C   0  0  0  0  0  0  0  0  0  0  0  0
   37.4700   25.9180   39.7100 C   0  0  0  0  0  0  0  0  0  0  0  0
   36.5200   25.5120   38.7690 C   0  0  0  0  0  0  0  0  0  0  0  0
   36.1220   25.9470   37.5570 N   0  0  0  0  0  0  0  0  0  0  0  0
   35.1390   25.1550   37.0860 C   0  0  0  0  0  0  0  0  0  0  0  0
   34.9410   24.2240   38.0350 N   0  0  0  0  0  0  0  0  0  0  0  0
   35.7660   24.4130   39.0710 C   0  0  0  0  0  0  0  0  0  0  0  0
   35.8730   23.6730   40.2390 C   0  0  0  0  0  0  0  0  0  0  0  0
   36.9380   23.5280   42.1040 H   0  0  0  0  0  0  0  0  0  0  0  0
   36.5560   26.7720   37.1230 H   0  0  0  0  0  0  0  0  0  0  0  0
   34.6860   25.3340   36.1340 H   0  0  0  0  0  0  0  0  0  0  0  0
   35.2330   22.8080   40.4040 H   0  0  0  0  0  0  0  0  0  0  0  0
   39.1790   26.9780   43.6790 C   0  0  0  0  0  0  0  0  0  0  0  0
   40.4800   26.4590   43.6800 C   0  0  0  0  0  0  0  0  0  0  0  0
   40.8020   25.4960   42.7140 C   0  0  0  0  0  0  0  0  0  0  0  0
   39.8420   25.1010   41.8160 N   0  0  0  0  0  0  0  0  0  0  0  0
   38.5970   25.6350   41.8590 C   0  0  0  0  0  0  0  0  0  0  0  0
   38.2300   26.5770   42.7780 N   0  0  0  0  0  0  0  0  0  0  0  0
   38.8710   27.7170   44.3890 H   0  0  0  0  0  0  0  0  0  0  0  0
   41.2020   26.7990   44.4050 H   0  0  0  0  0  0  0  0  0  0  0  0
   41.7910   25.0900   42.7010 H   0  0  0  0  0  0  0  0  0  0  0  0
   38.1130   29.9380   39.1850 N   0  0  0  0  0  0  0  0  0  0  0  0
   37.8720   28.8620   40.1380 C   0  0  1  0  0  0  0  0  0  0  0  0
   36.3830   28.6510   40.3820 C   0  0  0  0  0  0  0  0  0  0  0  0
   35.6840   29.8320   40.5330 O   0  0  0  0  0  0  0  0  0  0  0  0
   36.4370   30.9660   40.6350 C   0  0  0  0  0  0  0  0  0  0  0  0
   37.3070   31.0870   39.4100 C   0  0  1  0  0  0  0  0  0  0  0  0
   38.0110   29.5320   38.2250 H   0  0  0  0  0  0  0  0  0  0  0  0
   38.4110   29.0050   41.0860 H   0  0  0  0  0  0  0  0  0  0  0  0
   36.2620   28.1430   41.3350 H   0  0  0  0  0  0  0  0  0  0  0  0
   35.9480   28.0840   39.5350 H   0  0  0  0  0  0  0  0  0  0  0  0
   35.7680   31.8230   40.6960 H   0  0  0  0  0  0  0  0  0  0  0  0
   37.1060   30.8660   41.5240 H   0  0  0  0  0  0  0  0  0  0  0  0
   36.5760   31.1290   38.5490 H   0  0  0  0  0  0  0  0  0  0  0  0
   38.0160   32.3530   39.3330 N   0  0  1  0  0  0  0  0  0  0  0  0
   38.2940   32.7120   40.7300 C   0  0  0  0  0  3  0  0  0  0  0  0
   37.4630   32.4310   41.3960 H   0  0  0  0  0  0  0  0  0  0  0  0
   39.5930   32.1260   41.2030 C   0  0  0  0  0  3  0  0  0  0  0  0
   39.6850   31.0390   41.0720 H   0  0  0  0  0  0  0  0  0  0  0  0
   40.6520   32.8400   40.5120 N   0  0  0  0  0  0  0  0  0  0  0  0
   41.5490   32.3520   40.7150 H   0  0  0  0  0  0  0  0  0  0  0  0
   40.3800   33.0220   39.1090 C   0  0  0  0  0  2  0  0  0  0  0  0
   39.2670   32.0940   38.6660 C   0  0  0  0  0  2  0  0  0  0  0  0
  1  4  1  0  0  0  0
  1 25  1  0  0  0  0
  2 11  1  0  0  0  0
  3  2  1  0  0  0  0
  3 19  1  0  0  0  0
  4  3  2  0  0  0  0
  5  9  2  0  0  0  0
  5  4  1  0  0  0  0
  6  5  1  0  0  0  0
  7  6  1  0  0  0  0
  7  8  2  0  0  0  0
  8  9  1  0  0  0  0
  9 10  1  0  0  0  0
 10 14  1  0  0  0  0
 10  2  2  0  0  0  0
 12  6  1  0  0  0  0
 13  7  1  0  0  0  0
 15 16  1  0  0  0  0
 15 21  1  0  0  0  0
 16 22  1  0  0  0  0
 17 16  2  0  0  0  0
 18 19  2  0  0  0  0
 18 17  1  0  0  0  0
 19 20  1  0  0  0  0
 20 15  2  0  0  0  0
 23 17  1  0  0  0  0
 24 29  1  0  0  0  0
 24 25  1  0  0  0  0
 25 26  1  0  0  0  0
 25 31  1  1  0  0  0
 26 27  1  0  0  0  0
 26 32  1  0  0  0  0
 27 28  1  0  0  0  0
 28 34  1  0  0  0  0
 28 35  1  0  0  0  0
 29 36  1  6  0  0  0
 29 28  1  0  0  0  0
 30 24  1  0  0  0  0
 33 26  1  0  0  0  0
 37 45  1  6  0  0  0
 37 29  1  0  0  0  0
 37 38  1  0  0  0  0
 38 40  1  0  0  0  0
 38 39  1  0  0  0  0
 41 40  1  0  0  0  0
 42 43  1  0  0  0  0
 42 40  1  0  0  0  0
 44 42  1  0  0  0  0
 45 44  1  0  0  0  0
M  END
>  <minimizedAffinity>
-5.64443064

$$$$
