
 OpenBabel03252509073D

 41 44  0  0  1  0  0  0  0  0999 V2000
   47.0060   31.6800   39.2570 C   0  0  0  0  0  0  0  0  0  0  0  0
   46.7280   33.0110   39.1620 C   0  0  0  0  0  0  0  0  0  0  0  0
   47.4900   33.7870   38.3070 C   0  0  0  0  0  0  0  0  0  0  0  0
   48.5030   33.2250   37.5680 C   0  0  0  0  0  0  0  0  0  0  0  0
   48.8000   31.8680   37.6500 C   0  0  0  0  0  0  0  0  0  0  0  0
   48.0300   31.0980   38.5120 C   0  0  0  0  0  0  0  0  0  0  0  0
   47.2940   34.8530   38.2100 H   0  0  0  0  0  0  0  0  0  0  0  0
   49.0650   33.8760   36.9180 H   0  0  0  0  0  0  0  0  0  0  0  0
   49.5830   31.4320   37.0780 H   0  0  0  0  0  0  0  0  0  0  0  0
   48.2680   30.0490   38.5680 H   0  0  0  0  0  0  0  0  0  0  0  0
   45.2510   35.7830   43.2390 Cl  0  0  0  0  0  0  0  0  0  0  0  0
   44.9870   34.9420   41.7380 C   0  0  0  0  0  0  0  0  0  0  0  0
   45.9990   34.3350   41.0880 C   0  0  0  0  0  0  0  0  0  0  0  0
   45.6780   33.6920   39.8980 C   0  0  0  0  0  0  0  0  0  0  0  0
   44.3990   33.6680   39.3990 C   0  0  0  0  0  0  0  0  0  0  0  0
   43.3960   34.2860   40.0740 C   0  0  0  0  0  0  0  0  0  0  0  0
   43.7000   34.9250   41.2520 C   0  0  0  0  0  0  0  0  0  0  0  0
   44.1460   33.1650   38.4640 H   0  0  0  0  0  0  0  0  0  0  0  0
   42.3780   34.2870   39.7140 H   0  0  0  0  0  0  0  0  0  0  0  0
   42.8800   35.4170   41.7830 H   0  0  0  0  0  0  0  0  0  0  0  0
   49.4980   35.4380   41.9760 C   0  0  0  0  0  0  0  0  0  0  0  0
   48.2150   35.4140   41.4220 C   0  0  0  0  0  0  0  0  0  0  0  0
   47.3270   34.3750   41.6490 C   0  0  0  0  0  0  0  0  0  0  0  0
   47.7970   33.3830   42.4510 N   0  0  0  0  0  0  0  0  0  0  0  0
   49.0290   33.4060   42.9820 C   0  0  0  0  0  0  0  0  0  0  0  0
   49.8690   34.4230   42.7470 N   0  0  0  0  0  0  0  0  0  0  0  0
   50.1240   36.2920   41.7420 H   0  0  0  0  0  0  0  0  0  0  0  0
   47.8770   36.2240   40.7890 H   0  0  0  0  0  0  0  0  0  0  0  0
   49.4030   32.6130   43.6220 H   0  0  0  0  0  0  0  0  0  0  0  0
   46.1120   30.6610   40.2560 S   0  0  0  0  0  0  0  0  0  0  0  0
   46.1140   29.2230   39.7850 O   0  0  0  0  0  0  0  0  0  0  0  0
   46.9320   30.6140   41.5790 O   0  0  0  0  0  0  0  0  0  0  0  0
   44.3670   28.9620   41.5760 H   0  0  0  0  0  0  0  0  0  0  0  0
   43.7640   29.6320   41.0880 N   0  0  0  0  0  0  0  0  0  0  0  0
   44.5420   30.8680   40.8380 C   0  0  1  0  0  0  0  0  0  0  0  0
   44.7430   31.2080   42.3620 C   0  0  0  0  0  0  0  0  0  0  0  0
   45.1840   30.3540   42.8810 H   0  0  0  0  0  0  0  0  0  0  0  0
   43.5190   31.6660   42.9370 N   0  0  0  0  0  0  0  0  0  0  0  0
   43.5420   32.6660   43.2160 H   0  0  0  0  0  0  0  0  0  0  0  0
   42.3490   31.3130   42.1860 C   0  0  0  0  0  0  0  0  0  0  0  0
   42.4910   29.9060   41.6630 C   0  0  0  0  0  0  0  0  0  0  0  0
  1 30  1  0  0  0  0
  2  1  1  0  0  0  0
  2 14  1  0  0  0  0
  3  2  2  0  0  0  0
  4  5  2  0  0  0  0
  4  3  1  0  0  0  0
  5  6  1  0  0  0  0
  6 10  1  0  0  0  0
  6  1  2  0  0  0  0
  7  3  1  0  0  0  0
  8  4  1  0  0  0  0
  9  5  1  0  0  0  0
 12 11  1  0  0  0  0
 13 23  1  0  0  0  0
 13 12  2  0  0  0  0
 14 13  1  0  0  0  0
 15 14  2  0  0  0  0
 15 16  1  0  0  0  0
 16 17  2  0  0  0  0
 17 12  1  0  0  0  0
 17 20  1  0  0  0  0
 18 15  1  0  0  0  0
 19 16  1  0  0  0  0
 21 26  1  0  0  0  0
 22 23  1  0  0  0  0
 22 21  2  0  0  0  0
 23 24  2  0  0  0  0
 24 25  1  0  0  0  0
 25 29  1  0  0  0  0
 26 25  2  0  0  0  0
 27 21  1  0  0  0  0
 28 22  1  0  0  0  0
 30 32  2  0  0  0  0
 31 30  2  0  0  0  0
 34 33  1  0  0  0  0
 34 41  1  0  0  0  0
 35 30  1  1  0  0  0
 35 34  1  0  0  0  0
 35 36  1  0  0  0  0
 36 37  1  0  0  0  0
 36 38  1  0  0  0  0
 38 39  1  0  0  0  0
 40 38  1  0  0  0  0
 41 40  1  0  0  0  0
M  END
>  <minimizedAffinity>
-5.0992794

>  <minimizedRMSD>
1.1769737

$$$$
