
 OpenBabel03242511173D

 19 20  0  0  1  0  0  0  0  0999 V2000
   38.9170   28.9570   42.7520 S   0  0  0  0  0  0  0  0  0  0  0  0
   40.3490   25.2760   43.6800 C   0  0  0  0  0  0  0  0  0  0  0  0
   40.1750   26.6810   43.6630 C   0  0  0  0  0  0  0  0  0  0  0  0
   39.1800   27.1920   42.8150 C   0  0  0  0  0  0  0  0  0  0  0  0
   38.4540   26.3220   42.0710 N   0  0  0  0  0  0  0  0  0  0  0  0
   38.6420   24.9970   42.1080 C   0  0  0  0  0  0  0  0  0  0  0  0
   39.5790   24.4760   42.9020 N   0  0  0  0  0  0  0  0  0  0  0  0
   41.1400   24.9520   44.3630 H   0  0  0  0  0  0  0  0  0  0  0  0
   40.7820   27.3340   44.2780 H   0  0  0  0  0  0  0  0  0  0  0  0
   38.0370   24.3350   41.4940 H   0  0  0  0  0  0  0  0  0  0  0  0
   36.9980   27.4850   41.9820 H   0  0  0  0  0  0  0  0  0  0  0  0
   36.3690   28.3410   42.0410 N   0  0  0  0  0  0  0  0  0  0  0  0
   37.2020   29.4110   42.4740 C   0  0  2  0  0  3  0  0  0  0  0  0
   37.1860   30.6160   41.5640 C   0  0  0  0  0  3  0  0  0  0  0  0
   37.6370   31.4800   42.0520 H   0  0  0  0  0  0  0  0  0  0  0  0
   35.8320   30.9050   41.2010 N   0  0  0  0  0  0  0  0  0  0  0  0
   35.2170   31.1780   41.9730 H   0  0  0  0  0  0  0  0  0  0  0  0
   35.3650   29.8520   40.3540 C   0  0  0  0  0  3  0  0  0  0  0  0
   35.7670   28.4740   40.7550 C   0  0  0  0  0  3  0  0  0  0  0  0
  1  4  1  0  0  0  0
  2  8  1  0  0  0  0
  3  2  1  0  0  0  0
  3  9  1  0  0  0  0
  4  3  2  0  0  0  0
  5  6  2  0  0  0  0
  5  4  1  0  0  0  0
  6  7  1  0  0  0  0
  7  2  2  0  0  0  0
 10  6  1  0  0  0  0
 11 12  1  0  0  0  0
 12 13  1  0  0  0  0
 13  1  1  6  0  0  0
 14 15  1  0  0  0  0
 14 13  1  0  0  0  0
 16 14  1  0  0  0  0
 16 17  1  0  0  0  0
 18 19  2  0  0  0  0
 18 16  1  0  0  0  0
 19 12  1  0  0  0  0
M  END
>  <minimizedAffinity>
-4.26570797

$$$$

 OpenBabel03242511173D

 19 20  0  0  1  0  0  0  0  0999 V2000
   37.2600   30.0940   40.0660 S   0  0  0  0  0  0  0  0  0  0  0  0
   37.4400   27.8610   43.4480 C   0  0  0  0  0  0  0  0  0  0  0  0
   37.3770   28.9800   42.5830 C   0  0  0  0  0  0  0  0  0  0  0  0
   37.3400   28.7210   41.2050 C   0  0  0  0  0  0  0  0  0  0  0  0
   37.3680   27.4310   40.7870 N   0  0  0  0  0  0  0  0  0  0  0  0
   37.4280   26.3930   41.6300 C   0  0  0  0  0  0  0  0  0  0  0  0
   37.4650   26.6020   42.9470 N   0  0  0  0  0  0  0  0  0  0  0  0
   37.4660   28.1400   44.5060 H   0  0  0  0  0  0  0  0  0  0  0  0
   37.3570   29.9920   42.9680 H   0  0  0  0  0  0  0  0  0  0  0  0
   37.4500   25.3750   41.2520 H   0  0  0  0  0  0  0  0  0  0  0  0
   36.2240   32.3430   39.5130 H   0  0  0  0  0  0  0  0  0  0  0  0
   36.8110   32.7620   40.2960 N   0  0  0  0  0  0  0  0  0  0  0  0
   37.5590   31.6830   40.8450 C   0  0  2  0  0  3  0  0  0  0  0  0
   39.0520   31.9130   40.8680 C   0  0  0  0  0  3  0  0  0  0  0  0
   39.5500   31.1820   41.5050 H   0  0  0  0  0  0  0  0  0  0  0  0
   39.3090   33.2380   41.3430 N   0  0  0  0  0  0  0  0  0  0  0  0
   39.0220   33.4250   42.3080 H   0  0  0  0  0  0  0  0  0  0  0  0
   38.8540   34.1610   40.3510 C   0  0  0  0  0  3  0  0  0  0  0  0
   37.5540   33.8250   39.7040 C   0  0  0  0  0  3  0  0  0  0  0  0
  1  4  1  0  0  0  0
  2  8  1  0  0  0  0
  3  9  1  0  0  0  0
  3  2  2  0  0  0  0
  4  3  1  0  0  0  0
  5  4  2  0  0  0  0
  5  6  1  0  0  0  0
  6  7  2  0  0  0  0
  7  2  1  0  0  0  0
 10  6  1  0  0  0  0
 11 12  1  0  0  0  0
 12 13  1  0  0  0  0
 13  1  1  6  0  0  0
 13 14  1  0  0  0  0
 14 16  1  0  0  0  0
 14 15  1  0  0  0  0
 16 17  1  0  0  0  0
 18 16  1  0  0  0  0
 19 12  1  0  0  0  0
 19 18  2  0  0  0  0
M  END
>  <minimizedAffinity>
-4.2188201

$$$$

 OpenBabel03242511173D

 19 20  0  0  1  0  0  0  0  0999 V2000
   35.6110   28.9210   40.6280 S   0  0  0  0  0  0  0  0  0  0  0  0
   37.3270   31.5520   38.0610 C   0  0  0  0  0  0  0  0  0  0  0  0
   36.6900   30.3920   38.5630 C   0  0  0  0  0  0  0  0  0  0  0  0
   36.4130   30.3590   39.9390 C   0  0  0  0  0  0  0  0  0  0  0  0
   36.7690   31.4260   40.6960 N   0  0  0  0  0  0  0  0  0  0  0  0
   37.3710   32.5090   40.1930 C   0  0  0  0  0  0  0  0  0  0  0  0
   37.6500   32.5750   38.8890 N   0  0  0  0  0  0  0  0  0  0  0  0
   37.5100   31.5060   36.9830 H   0  0  0  0  0  0  0  0  0  0  0  0
   36.4250   29.5650   37.9150 H   0  0  0  0  0  0  0  0  0  0  0  0
   37.6400   33.3420   40.8360 H   0  0  0  0  0  0  0  0  0  0  0  0
   36.7500   30.2060   42.4960 H   0  0  0  0  0  0  0  0  0  0  0  0
   36.9770   29.2700   42.9490 N   0  0  0  0  0  0  0  0  0  0  0  0
   36.4350   28.2760   42.0860 C   0  0  2  0  0  3  0  0  0  0  0  0
   37.4360   27.2400   41.6300 C   0  0  0  0  0  3  0  0  0  0  0  0
   36.9340   26.3830   41.1810 H   0  0  0  0  0  0  0  0  0  0  0  0
   38.2150   26.8210   42.7560 N   0  0  0  0  0  0  0  0  0  0  0  0
   37.6960   26.3440   43.4990 H   0  0  0  0  0  0  0  0  0  0  0  0
   39.0410   27.9170   43.1560 C   0  0  0  0  0  3  0  0  0  0  0  0
   38.3900   29.2570   43.1400 C   0  0  0  0  0  3  0  0  0  0  0  0
  2  3  2  0  0  0  0
  2  7  1  0  0  0  0
  3  4  1  0  0  0  0
  4  1  1  0  0  0  0
  4  5  2  0  0  0  0
  6  5  1  0  0  0  0
  6 10  1  0  0  0  0
  7  6  2  0  0  0  0
  8  2  1  0  0  0  0
  9  3  1  0  0  0  0
 11 12  1  0  0  0  0
 12 19  1  0  0  0  0
 13  1  1  6  0  0  0
 13 12  1  0  0  0  0
 14 13  1  0  0  0  0
 14 16  1  0  0  0  0
 15 14  1  0  0  0  0
 16 18  1  0  0  0  0
 16 17  1  0  0  0  0
 19 18  2  0  0  0  0
M  END
>  <minimizedAffinity>
-4.16976881

$$$$

 OpenBabel03242511173D

 19 20  0  0  1  0  0  0  0  0999 V2000
   36.5630   29.8280   39.9570 S   0  0  0  0  0  0  0  0  0  0  0  0
   37.8530   33.6730   39.8680 C   0  0  0  0  0  0  0  0  0  0  0  0
   37.0690   32.5180   39.6370 C   0  0  0  0  0  0  0  0  0  0  0  0
   37.5120   31.3190   40.2150 C   0  0  0  0  0  0  0  0  0  0  0  0
   38.6500   31.3370   40.9530 N   0  0  0  0  0  0  0  0  0  0  0  0
   39.3700   32.4460   41.1540 C   0  0  0  0  0  0  0  0  0  0  0  0
   38.9800   33.6050   40.6180 N   0  0  0  0  0  0  0  0  0  0  0  0
   37.4470   34.5690   39.3870 H   0  0  0  0  0  0  0  0  0  0  0  0
   36.1660   32.5560   39.0390 H   0  0  0  0  0  0  0  0  0  0  0  0
   40.2780   32.4160   41.7510 H   0  0  0  0  0  0  0  0  0  0  0  0
   37.1790   30.4320   42.3430 H   0  0  0  0  0  0  0  0  0  0  0  0
   36.8120   29.4780   42.6390 N   0  0  0  0  0  0  0  0  0  0  0  0
   36.3620   28.8450   41.4450 C   0  0  2  0  0  3  0  0  0  0  0  0
   36.9810   27.4910   41.1910 C   0  0  0  0  0  3  0  0  0  0  0  0
   36.4370   26.9520   40.4150 H   0  0  0  0  0  0  0  0  0  0  0  0
   36.9720   26.7410   42.4100 N   0  0  0  0  0  0  0  0  0  0  0  0
   36.0450   26.5160   42.7840 H   0  0  0  0  0  0  0  0  0  0  0  0
   37.8940   27.3550   43.3150 C   0  0  0  0  0  3  0  0  0  0  0  0
   37.8800   28.8450   43.3390 C   0  0  0  0  0  3  0  0  0  0  0  0
  1  4  1  0  0  0  0
  2  7  1  0  0  0  0
  3  2  2  0  0  0  0
  3  4  1  0  0  0  0
  4  5  2  0  0  0  0
  5  6  1  0  0  0  0
  6 10  1  0  0  0  0
  7  6  2  0  0  0  0
  8  2  1  0  0  0  0
  9  3  1  0  0  0  0
 11 12  1  0  0  0  0
 12 19  1  0  0  0  0
 13  1  1  6  0  0  0
 13 12  1  0  0  0  0
 14 13  1  0  0  0  0
 14 16  1  0  0  0  0
 15 14  1  0  0  0  0
 16 17  1  0  0  0  0
 16 18  1  0  0  0  0
 18 19  2  0  0  0  0
M  END
>  <minimizedAffinity>
-4.0752182

$$$$

 OpenBabel03242511173D

 19 20  0  0  1  0  0  0  0  0999 V2000
   38.9230   29.5880   40.2820 S   0  0  0  0  0  0  0  0  0  0  0  0
   38.9850   33.6180   40.7430 C   0  0  0  0  0  0  0  0  0  0  0  0
   39.3260   32.2500   40.8680 C   0  0  0  0  0  0  0  0  0  0  0  0
   38.5390   31.3280   40.1620 C   0  0  0  0  0  0  0  0  0  0  0  0
   37.5110   31.7950   39.4120 N   0  0  0  0  0  0  0  0  0  0  0  0
   37.2120   33.0950   39.3140 C   0  0  0  0  0  0  0  0  0  0  0  0
   37.9390   34.0010   39.9720 N   0  0  0  0  0  0  0  0  0  0  0  0
   39.6420   34.2770   41.3210 H   0  0  0  0  0  0  0  0  0  0  0  0
   40.1600   31.9280   41.4810 H   0  0  0  0  0  0  0  0  0  0  0  0
   36.3770   33.4270   38.7020 H   0  0  0  0  0  0  0  0  0  0  0  0
   38.9180   27.1550   41.0010 H   0  0  0  0  0  0  0  0  0  0  0  0
   38.7050   27.4870   41.9900 N   0  0  0  0  0  0  0  0  0  0  0  0
   38.6380   28.9070   41.9190 C   0  0  2  0  0  3  0  0  0  0  0  0
   37.3490   29.4940   42.4440 C   0  0  0  0  0  3  0  0  0  0  0  0
   37.4410   30.5700   42.5920 H   0  0  0  0  0  0  0  0  0  0  0  0
   37.0170   28.8520   43.6800 N   0  0  0  0  0  0  0  0  0  0  0  0
   37.6800   29.0020   44.4470 H   0  0  0  0  0  0  0  0  0  0  0  0
   36.6650   27.4960   43.3950 C   0  0  0  0  0  3  0  0  0  0  0  0
   37.5170   26.8060   42.3860 C   0  0  0  0  0  3  0  0  0  0  0  0
  2  3  1  0  0  0  0
  2  8  1  0  0  0  0
  3  9  1  0  0  0  0
  4  1  1  0  0  0  0
  4  3  2  0  0  0  0
  5  4  1  0  0  0  0
  6  5  2  0  0  0  0
  6  7  1  0  0  0  0
  7  2  2  0  0  0  0
 10  6  1  0  0  0  0
 11 12  1  0  0  0  0
 12 19  1  0  0  0  0
 13  1  1  6  0  0  0
 13 12  1  0  0  0  0
 13 14  1  0  0  0  0
 14 15  1  0  0  0  0
 14 16  1  0  0  0  0
 16 17  1  0  0  0  0
 18 16  1  0  0  0  0
 19 18  2  0  0  0  0
M  END
>  <minimizedAffinity>
-3.96423674

$$$$

 OpenBabel03242511173D

 19 20  0  0  1  0  0  0  0  0999 V2000
   39.3750   29.9050   39.9320 S   0  0  0  0  0  0  0  0  0  0  0  0
   38.0300   28.5160   43.4980 C   0  0  0  0  0  0  0  0  0  0  0  0
   38.8310   29.1670   42.5300 C   0  0  0  0  0  0  0  0  0  0  0  0
   38.4030   29.1010   41.1960 C   0  0  0  0  0  0  0  0  0  0  0  0
   37.2620   28.4250   40.9150 N   0  0  0  0  0  0  0  0  0  0  0  0
   36.5240   27.8180   41.8520 C   0  0  0  0  0  0  0  0  0  0  0  0
   36.9020   27.8600   43.1320 N   0  0  0  0  0  0  0  0  0  0  0  0
   38.4260   28.6100   44.5140 H   0  0  0  0  0  0  0  0  0  0  0  0
   39.7360   29.6950   42.8070 H   0  0  0  0  0  0  0  0  0  0  0  0
   35.6160   27.2860   41.5830 H   0  0  0  0  0  0  0  0  0  0  0  0
   40.6010   31.9760   39.1280 H   0  0  0  0  0  0  0  0  0  0  0  0
   39.6520   32.4410   38.9990 N   0  0  0  0  0  0  0  0  0  0  0  0
   38.6860   31.4730   39.3930 C   0  0  2  0  0  3  0  0  0  0  0  0
   37.7320   31.9490   40.4630 C   0  0  0  0  0  3  0  0  0  0  0  0
   36.8790   31.2760   40.5540 H   0  0  0  0  0  0  0  0  0  0  0  0
   37.2860   33.2680   40.1320 N   0  0  0  0  0  0  0  0  0  0  0  0
   36.7390   33.3470   39.2700 H   0  0  0  0  0  0  0  0  0  0  0  0
   38.3970   34.1590   40.2670 C   0  0  0  0  0  3  0  0  0  0  0  0
   39.7000   33.6470   39.7570 C   0  0  0  0  0  3  0  0  0  0  0  0
  1  4  1  0  0  0  0
  2  8  1  0  0  0  0
  3  9  1  0  0  0  0
  3  2  2  0  0  0  0
  4  3  1  0  0  0  0
  5  4  2  0  0  0  0
  5  6  1  0  0  0  0
  6  7  2  0  0  0  0
  7  2  1  0  0  0  0
 10  6  1  0  0  0  0
 12 11  1  0  0  0  0
 12 13  1  0  0  0  0
 12 19  1  0  0  0  0
 13  1  1  1  0  0  0
 13 14  1  0  0  0  0
 14 15  1  0  0  0  0
 16 18  1  0  0  0  0
 16 14  1  0  0  0  0
 17 16  1  0  0  0  0
 19 18  2  0  0  0  0
M  END
>  <minimizedAffinity>
-3.88064337

$$$$

 OpenBabel03242511173D

 19 20  0  0  1  0  0  0  0  0999 V2000
   38.7850   28.1090   42.8700 S   0  0  0  0  0  0  0  0  0  0  0  0
   39.3040   24.3790   41.3600 C   0  0  0  0  0  0  0  0  0  0  0  0
   39.5710   25.7070   41.7710 C   0  0  0  0  0  0  0  0  0  0  0  0
   38.5070   26.4290   42.3330 C   0  0  0  0  0  0  0  0  0  0  0  0
   37.3000   25.8200   42.4460 N   0  0  0  0  0  0  0  0  0  0  0  0
   37.0780   24.5630   42.0470 C   0  0  0  0  0  0  0  0  0  0  0  0
   38.0670   23.8460   41.5080 N   0  0  0  0  0  0  0  0  0  0  0  0
   40.1800   23.8800   40.9330 H   0  0  0  0  0  0  0  0  0  0  0  0
   40.5550   26.1480   41.6600 H   0  0  0  0  0  0  0  0  0  0  0  0
   36.0940   24.1130   42.1550 H   0  0  0  0  0  0  0  0  0  0  0  0
   36.4210   27.5050   42.1740 H   0  0  0  0  0  0  0  0  0  0  0  0
   36.2030   28.5460   42.1480 N   0  0  0  0  0  0  0  0  0  0  0  0
   37.4100   29.2070   42.5140 C   0  0  2  0  0  3  0  0  0  0  0  0
   37.8850   30.2310   41.5100 C   0  0  0  0  0  3  0  0  0  0  0  0
   38.6590   30.8680   41.9380 H   0  0  0  0  0  0  0  0  0  0  0  0
   36.7680   31.0230   41.0930 N   0  0  0  0  0  0  0  0  0  0  0  0
   36.3300   31.5900   41.8250 H   0  0  0  0  0  0  0  0  0  0  0  0
   35.8980   30.1910   40.3220 C   0  0  0  0  0  3  0  0  0  0  0  0
   35.6960   28.8090   40.8420 C   0  0  0  0  0  3  0  0  0  0  0  0
  2  7  2  0  0  0  0
  2  3  1  0  0  0  0
  3  4  2  0  0  0  0
  4  5  1  0  0  0  0
  4  1  1  0  0  0  0
  6 10  1  0  0  0  0
  6  5  2  0  0  0  0
  7  6  1  0  0  0  0
  8  2  1  0  0  0  0
  9  3  1  0  0  0  0
 12 11  1  0  0  0  0
 12 13  1  0  0  0  0
 13  1  1  6  0  0  0
 14 15  1  0  0  0  0
 14 13  1  0  0  0  0
 16 14  1  0  0  0  0
 16 17  1  0  0  0  0
 18 19  2  0  0  0  0
 18 16  1  0  0  0  0
 19 12  1  0  0  0  0
M  END
>  <minimizedAffinity>
-3.84340215

$$$$

 OpenBabel03242511173D

 19 20  0  0  1  0  0  0  0  0999 V2000
   39.3200   30.0180   41.8680 S   0  0  0  0  0  0  0  0  0  0  0  0
   40.5140   31.8300   38.4400 C   0  0  0  0  0  0  0  0  0  0  0  0
   40.1300   30.8260   39.3610 C   0  0  0  0  0  0  0  0  0  0  0  0
   39.8110   31.2410   40.6630 C   0  0  0  0  0  0  0  0  0  0  0  0
   39.8880   32.5620   40.9590 N   0  0  0  0  0  0  0  0  0  0  0  0
   40.2550   33.4890   40.0660 C   0  0  0  0  0  0  0  0  0  0  0  0
   40.5660   33.1310   38.8190 N   0  0  0  0  0  0  0  0  0  0  0  0
   40.7470   31.4330   37.4470 H   0  0  0  0  0  0  0  0  0  0  0  0
   40.0830   29.7830   39.0740 H   0  0  0  0  0  0  0  0  0  0  0  0
   40.3050   34.5380   40.3460 H   0  0  0  0  0  0  0  0  0  0  0  0
   37.9240   27.9040   41.7180 H   0  0  0  0  0  0  0  0  0  0  0  0
   37.0630   28.5080   41.8860 N   0  0  0  0  0  0  0  0  0  0  0  0
   37.5400   29.8420   42.0190 C   0  0  2  0  0  3  0  0  0  0  0  0
   36.8970   30.8270   41.0720 C   0  0  0  0  0  3  0  0  0  0  0  0
   37.1110   31.8540   41.3700 H   0  0  0  0  0  0  0  0  0  0  0  0
   35.4830   30.6020   41.0580 N   0  0  0  0  0  0  0  0  0  0  0  0
   35.0000   30.7720   41.9450 H   0  0  0  0  0  0  0  0  0  0  0  0
   35.2410   29.3410   40.4290 C   0  0  0  0  0  3  0  0  0  0  0  0
   36.1810   28.2450   40.7970 C   0  0  0  0  0  3  0  0  0  0  0  0
  2  7  2  0  0  0  0
  2  3  1  0  0  0  0
  3  4  2  0  0  0  0
  4  5  1  0  0  0  0
  4  1  1  0  0  0  0
  6 10  1  0  0  0  0
  6  5  2  0  0  0  0
  7  6  1  0  0  0  0
  8  2  1  0  0  0  0
  9  3  1  0  0  0  0
 11 12  1  0  0  0  0
 12 13  1  0  0  0  0
 13  1  1  6  0  0  0
 14 15  1  0  0  0  0
 14 13  1  0  0  0  0
 16 14  1  0  0  0  0
 16 17  1  0  0  0  0
 18 19  2  0  0  0  0
 18 16  1  0  0  0  0
 19 12  1  0  0  0  0
M  END
>  <minimizedAffinity>
-3.79431272

$$$$

 OpenBabel03242511173D

 19 20  0  0  1  0  0  0  0  0999 V2000
   39.0980   30.2110   38.2210 S   0  0  0  0  0  0  0  0  0  0  0  0
   35.1950   29.2590   38.7840 C   0  0  0  0  0  0  0  0  0  0  0  0
   36.4300   29.5240   38.1470 C   0  0  0  0  0  0  0  0  0  0  0  0
   37.5140   29.8650   38.9700 C   0  0  0  0  0  0  0  0  0  0  0  0
   37.3160   29.9210   40.3100 N   0  0  0  0  0  0  0  0  0  0  0  0
   36.1350   29.6650   40.8840 C   0  0  0  0  0  0  0  0  0  0  0  0
   35.0820   29.3370   40.1320 N   0  0  0  0  0  0  0  0  0  0  0  0
   34.3980   28.9990   38.0790 H   0  0  0  0  0  0  0  0  0  0  0  0
   36.5370   29.4660   37.0700 H   0  0  0  0  0  0  0  0  0  0  0  0
   36.0200   29.7210   41.9630 H   0  0  0  0  0  0  0  0  0  0  0  0
   40.6470   31.3390   36.5580 H   0  0  0  0  0  0  0  0  0  0  0  0
   40.3440   32.2740   36.9680 N   0  0  0  0  0  0  0  0  0  0  0  0
   39.4120   31.9650   37.9990 C   0  0  2  0  0  3  0  0  0  0  0  0
   39.7650   32.5450   39.3480 C   0  0  0  0  0  3  0  0  0  0  0  0
   38.9170   32.4890   40.0310 H   0  0  0  0  0  0  0  0  0  0  0  0
   40.1700   33.9070   39.1750 N   0  0  0  0  0  0  0  0  0  0  0  0
   39.4470   34.5410   38.8210 H   0  0  0  0  0  0  0  0  0  0  0  0
   41.4200   33.9130   38.4810 C   0  0  0  0  0  3  0  0  0  0  0  0
   41.5430   32.9360   37.3630 C   0  0  0  0  0  3  0  0  0  0  0  0
  1  4  1  0  0  0  0
  2  7  1  0  0  0  0
  3  2  2  0  0  0  0
  3  4  1  0  0  0  0
  4  5  2  0  0  0  0
  5  6  1  0  0  0  0
  6 10  1  0  0  0  0
  7  6  2  0  0  0  0
  8  2  1  0  0  0  0
  9  3  1  0  0  0  0
 11 12  1  0  0  0  0
 12 19  1  0  0  0  0
 12 13  1  0  0  0  0
 13  1  1  1  0  0  0
 13 14  1  0  0  0  0
 14 15  1  0  0  0  0
 16 14  1  0  0  0  0
 17 16  1  0  0  0  0
 18 16  1  0  0  0  0
 19 18  2  0  0  0  0
M  END
>  <minimizedAffinity>
-3.75687551

$$$$
