
 OpenBabel03242520523D

 22 23  0  0  0  0  0  0  0  0999 V2000
   35.8870   30.2830   40.7430 C   0  0  0  0  0  0  0  0  0  0  0  0
   35.7330   28.9080   40.8440 C   0  0  0  0  0  0  0  0  0  0  0  0
   36.8320   28.0980   41.0880 C   0  0  0  0  0  0  0  0  0  0  0  0
   38.0240   28.7360   41.2130 N   0  0  0  0  0  0  0  0  0  0  0  0
   38.1630   30.0630   41.1140 C   0  0  0  0  0  0  0  0  0  0  0  0
   37.0890   30.8290   40.8790 N   0  0  0  0  0  0  0  0  0  0  0  0
   34.9470   30.8050   40.5500 H   0  0  0  0  0  0  0  0  0  0  0  0
   34.7970   28.3380   40.7510 H   0  0  0  0  0  0  0  0  0  0  0  0
   39.4620   30.6160   41.2650 N   0  0  0  0  0  0  0  0  0  0  0  0
   40.1720   31.0820   40.0910 C   0  0  0  0  0  3  0  0  0  0  0  0
   39.5210   31.1600   39.2030 H   0  0  0  0  0  0  0  0  0  0  0  0
   40.7070   32.4770   40.3310 C   0  0  0  0  0  3  0  0  0  0  0  0
   39.8970   33.1870   40.1310 H   0  0  0  0  0  0  0  0  0  0  0  0
   41.2570   32.6850   41.6330 N   0  0  0  0  0  0  0  0  0  0  0  0
   40.6570   33.3400   42.1580 H   0  0  0  0  0  0  0  0  0  0  0  0
   41.4410   31.4220   42.3140 C   0  0  0  0  0  2  0  0  0  0  0  0
   40.1130   30.7330   42.5570 C   0  0  0  0  0  2  0  0  0  0  0  0
   36.8440   26.7270   41.2150 O   0  0  0  0  0  0  0  0  0  0  0  0
   37.0060   26.2200   42.5450 C   0  0  0  0  0  0  0  0  0  0  0  0
   36.3140   27.0090   43.4470 F   0  0  0  0  0  0  0  0  0  0  0  0
   36.4620   24.9270   42.5570 F   0  0  0  0  0  0  0  0  0  0  0  0
   38.3670   26.1150   42.8700 F   0  0  0  0  0  0  0  0  0  0  0  0
  1  2  2  0  0  0  0
  1  6  1  0  0  0  0
  2  3  1  0  0  0  0
  3  4  2  0  0  0  0
  3 18  1  0  0  0  0
  5  4  1  0  0  0  0
  5  9  1  0  0  0  0
  6  5  2  0  0  0  0
  7  1  1  0  0  0  0
  8  2  1  0  0  0  0
  9 17  1  0  0  0  0
 10 12  1  0  0  0  0
 10  9  1  0  0  0  0
 11 10  1  0  0  0  0
 12 14  1  0  0  0  0
 13 12  1  0  0  0  0
 14 15  1  0  0  0  0
 14 16  1  0  0  0  0
 16 17  1  0  0  0  0
 18 19  1  0  0  0  0
 19 21  1  0  0  0  0
 19 22  1  0  0  0  0
 19 20  1  0  0  0  0
M  END
>  <minimizedAffinity>
-4.82521152

$$$$

 OpenBabel03242520523D

 22 23  0  0  0  0  0  0  0  0999 V2000
   41.0660   29.1280   42.0790 C   0  0  0  0  0  0  0  0  0  0  0  0
   39.9760   28.7580   42.8530 C   0  0  0  0  0  0  0  0  0  0  0  0
   38.7000   29.1810   42.5110 C   0  0  0  0  0  0  0  0  0  0  0  0
   38.6090   29.9560   41.4010 N   0  0  0  0  0  0  0  0  0  0  0  0
   39.6670   30.3080   40.6600 C   0  0  0  0  0  0  0  0  0  0  0  0
   40.8910   29.8890   41.0060 N   0  0  0  0  0  0  0  0  0  0  0  0
   42.0120   28.7300   42.4550 H   0  0  0  0  0  0  0  0  0  0  0  0
   39.9880   28.1350   43.7600 H   0  0  0  0  0  0  0  0  0  0  0  0
   39.4460   31.1230   39.5180 N   0  0  0  0  0  0  0  0  0  0  0  0
   39.8060   32.5260   39.5710 C   0  0  0  0  0  3  0  0  0  0  0  0
   40.4320   32.7710   40.4470 H   0  0  0  0  0  0  0  0  0  0  0  0
   40.6320   32.8930   38.3590 C   0  0  0  0  0  3  0  0  0  0  0  0
   41.6710   32.6120   38.5620 H   0  0  0  0  0  0  0  0  0  0  0  0
   40.1770   32.3140   37.1340 N   0  0  0  0  0  0  0  0  0  0  0  0
   40.8700   31.6240   36.8040 H   0  0  0  0  0  0  0  0  0  0  0  0
   38.8570   31.7490   37.2990 C   0  0  0  0  0  2  0  0  0  0  0  0
   38.8710   30.6040   38.2910 C   0  0  0  0  0  2  0  0  0  0  0  0
   37.5250   28.9010   43.1720 O   0  0  0  0  0  0  0  0  0  0  0  0
   36.7550   27.8110   42.6510 C   0  0  0  0  0  0  0  0  0  0  0  0
   36.1120   27.1430   43.6780 F   0  0  0  0  0  0  0  0  0  0  0  0
   35.7930   28.3650   41.7930 F   0  0  0  0  0  0  0  0  0  0  0  0
   37.5660   26.9550   41.8900 F   0  0  0  0  0  0  0  0  0  0  0  0
  1  7  1  0  0  0  0
  1  2  1  0  0  0  0
  2  8  1  0  0  0  0
  3  2  2  0  0  0  0
  3 18  1  0  0  0  0
  4  3  1  0  0  0  0
  5  6  1  0  0  0  0
  5  4  2  0  0  0  0
  6  1  2  0  0  0  0
  9 10  1  0  0  0  0
  9  5  1  0  0  0  0
 10 11  1  0  0  0  0
 12 13  1  0  0  0  0
 12 10  1  0  0  0  0
 14 16  1  0  0  0  0
 14 12  1  0  0  0  0
 15 14  1  0  0  0  0
 16 17  1  0  0  0  0
 17  9  1  0  0  0  0
 19 18  1  0  0  0  0
 19 20  1  0  0  0  0
 21 19  1  0  0  0  0
 22 19  1  0  0  0  0
M  END
>  <minimizedAffinity>
-4.72265148

$$$$

 OpenBabel03242520523D

 22 23  0  0  0  0  0  0  0  0999 V2000
   39.1810   29.5160   42.9350 C   0  0  0  0  0  0  0  0  0  0  0  0
   38.5020   28.3530   43.2680 C   0  0  0  0  0  0  0  0  0  0  0  0
   37.4930   27.8740   42.4450 C   0  0  0  0  0  0  0  0  0  0  0  0
   37.2350   28.6070   41.3330 N   0  0  0  0  0  0  0  0  0  0  0  0
   37.8960   29.7280   41.0200 C   0  0  0  0  0  0  0  0  0  0  0  0
   38.8670   30.1750   41.8270 N   0  0  0  0  0  0  0  0  0  0  0  0
   39.9500   29.7850   43.6640 H   0  0  0  0  0  0  0  0  0  0  0  0
   38.6660   27.7200   44.1520 H   0  0  0  0  0  0  0  0  0  0  0  0
   37.5370   30.4090   39.8270 N   0  0  0  0  0  0  0  0  0  0  0  0
   36.7660   31.6340   39.9170 C   0  0  0  0  0  3  0  0  0  0  0  0
   36.7240   32.0340   40.9450 H   0  0  0  0  0  0  0  0  0  0  0  0
   37.4140   32.7140   39.0810 C   0  0  0  0  0  3  0  0  0  0  0  0
   38.2150   33.1670   39.6770 H   0  0  0  0  0  0  0  0  0  0  0  0
   37.9090   32.2690   37.8160 N   0  0  0  0  0  0  0  0  0  0  0  0
   38.9400   32.3160   37.8160 H   0  0  0  0  0  0  0  0  0  0  0  0
   37.4070   30.9470   37.5120 C   0  0  0  0  0  2  0  0  0  0  0  0
   37.9130   29.9260   38.5110 C   0  0  0  0  0  2  0  0  0  0  0  0
   36.7310   26.7430   42.6350 O   0  0  0  0  0  0  0  0  0  0  0  0
   37.1220   25.5880   41.8820 C   0  0  0  0  0  0  0  0  0  0  0  0
   38.4990   25.4630   41.8740 F   0  0  0  0  0  0  0  0  0  0  0  0
   36.5650   24.4740   42.5280 F   0  0  0  0  0  0  0  0  0  0  0  0
   36.5880   25.6420   40.5850 F   0  0  0  0  0  0  0  0  0  0  0  0
  1  2  1  0  0  0  0
  1  7  1  0  0  0  0
  2  8  1  0  0  0  0
  3 18  1  0  0  0  0
  3  2  2  0  0  0  0
  4  3  1  0  0  0  0
  5  4  2  0  0  0  0
  5  6  1  0  0  0  0
  6  1  2  0  0  0  0
  9 10  1  0  0  0  0
  9  5  1  0  0  0  0
 10 11  1  0  0  0  0
 12 13  1  0  0  0  0
 12 10  1  0  0  0  0
 14 12  1  0  0  0  0
 15 14  1  0  0  0  0
 16 14  1  0  0  0  0
 16 17  1  0  0  0  0
 17  9  1  0  0  0  0
 19 21  1  0  0  0  0
 19 18  1  0  0  0  0
 20 19  1  0  0  0  0
 22 19  1  0  0  0  0
M  END
>  <minimizedAffinity>
-4.70479918

$$$$

 OpenBabel03242520523D

 22 23  0  0  0  0  0  0  0  0999 V2000
   37.7190   28.7320   38.3760 C   0  0  0  0  0  0  0  0  0  0  0  0
   36.9890   28.1160   39.3820 C   0  0  0  0  0  0  0  0  0  0  0  0
   36.8390   28.7330   40.6150 C   0  0  0  0  0  0  0  0  0  0  0  0
   37.4410   29.9410   40.7520 N   0  0  0  0  0  0  0  0  0  0  0  0
   38.1440   30.5280   39.7750 C   0  0  0  0  0  0  0  0  0  0  0  0
   38.2770   29.9170   38.5920 N   0  0  0  0  0  0  0  0  0  0  0  0
   37.7610   28.1440   37.4570 H   0  0  0  0  0  0  0  0  0  0  0  0
   36.4810   27.1410   39.3300 H   0  0  0  0  0  0  0  0  0  0  0  0
   38.7280   31.7960   40.0370 N   0  0  0  0  0  0  0  0  0  0  0  0
   40.1570   31.8820   40.2630 C   0  0  0  0  0  3  0  0  0  0  0  0
   40.6880   30.9550   39.9840 H   0  0  0  0  0  0  0  0  0  0  0  0
   40.7510   32.9710   39.3980 C   0  0  0  0  0  3  0  0  0  0  0  0
   40.9270   32.5520   38.4010 H   0  0  0  0  0  0  0  0  0  0  0  0
   39.9640   34.1610   39.3180 N   0  0  0  0  0  0  0  0  0  0  0  0
   39.5930   34.2630   38.3600 H   0  0  0  0  0  0  0  0  0  0  0  0
   38.9250   34.1510   40.3240 C   0  0  0  0  0  2  0  0  0  0  0  0
   37.9470   33.0180   40.0880 C   0  0  0  0  0  2  0  0  0  0  0  0
   36.1490   28.2550   41.7070 O   0  0  0  0  0  0  0  0  0  0  0  0
   36.9480   27.7450   42.7820 C   0  0  0  0  0  0  0  0  0  0  0  0
   37.2450   28.7550   43.6800 F   0  0  0  0  0  0  0  0  0  0  0  0
   36.1810   26.7670   43.4310 F   0  0  0  0  0  0  0  0  0  0  0  0
   38.1040   27.1240   42.2850 F   0  0  0  0  0  0  0  0  0  0  0  0
  1  6  2  0  0  0  0
  1  2  1  0  0  0  0
  2  3  2  0  0  0  0
  3  4  1  0  0  0  0
  3 18  1  0  0  0  0
  5  9  1  0  0  0  0
  5  4  2  0  0  0  0
  6  5  1  0  0  0  0
  7  1  1  0  0  0  0
  8  2  1  0  0  0  0
  9 17  1  0  0  0  0
  9 10  1  0  0  0  0
 11 10  1  0  0  0  0
 12 10  1  0  0  0  0
 13 12  1  0  0  0  0
 14 12  1  0  0  0  0
 14 16  1  0  0  0  0
 15 14  1  0  0  0  0
 17 16  1  0  0  0  0
 18 19  1  0  0  0  0
 19 21  1  0  0  0  0
 19 20  1  0  0  0  0
 22 19  1  0  0  0  0
M  END
>  <minimizedAffinity>
-4.6236639

$$$$

 OpenBabel03242520523D

 22 23  0  0  0  0  0  0  0  0999 V2000
   37.3930   27.9780   43.6790 C   0  0  0  0  0  0  0  0  0  0  0  0
   38.5140   27.1590   43.6800 C   0  0  0  0  0  0  0  0  0  0  0  0
   39.6070   27.4700   42.8850 C   0  0  0  0  0  0  0  0  0  0  0  0
   39.4960   28.5970   42.1360 N   0  0  0  0  0  0  0  0  0  0  0  0
   38.4110   29.3810   42.1430 C   0  0  0  0  0  0  0  0  0  0  0  0
   37.3650   29.0640   42.9170 N   0  0  0  0  0  0  0  0  0  0  0  0
   36.6050   27.6230   44.3460 H   0  0  0  0  0  0  0  0  0  0  0  0
   38.6600   26.2370   44.2620 H   0  0  0  0  0  0  0  0  0  0  0  0
   38.4120   30.5350   41.3160 N   0  0  0  0  0  0  0  0  0  0  0  0
   37.6320   30.5310   40.0940 C   0  0  0  0  0  3  0  0  0  0  0  0
   36.9270   29.6830   40.0440 H   0  0  0  0  0  0  0  0  0  0  0  0
   36.7810   31.7780   40.0200 C   0  0  0  0  0  3  0  0  0  0  0  0
   35.8730   31.6020   40.6080 H   0  0  0  0  0  0  0  0  0  0  0  0
   37.4400   32.9720   40.4460 N   0  0  0  0  0  0  0  0  0  0  0  0
   37.0100   33.3070   41.3220 H   0  0  0  0  0  0  0  0  0  0  0  0
   38.8640   32.7500   40.5690 C   0  0  0  0  0  2  0  0  0  0  0  0
   39.1670   31.7290   41.6470 C   0  0  0  0  0  2  0  0  0  0  0  0
   40.7840   26.7650   42.7760 O   0  0  0  0  0  0  0  0  0  0  0  0
   40.6900   25.4770   42.1560 C   0  0  0  0  0  0  0  0  0  0  0  0
   40.2550   24.5340   43.0700 F   0  0  0  0  0  0  0  0  0  0  0  0
   39.7430   25.5880   41.1270 F   0  0  0  0  0  0  0  0  0  0  0  0
   41.9160   25.1200   41.5720 F   0  0  0  0  0  0  0  0  0  0  0  0
  1  2  1  0  0  0  0
  1  7  1  0  0  0  0
  2  8  1  0  0  0  0
  3  2  2  0  0  0  0
  4  5  2  0  0  0  0
  4  3  1  0  0  0  0
  5  6  1  0  0  0  0
  6  1  2  0  0  0  0
  9 17  1  0  0  0  0
  9  5  1  0  0  0  0
 10  9  1  0  0  0  0
 11 10  1  0  0  0  0
 12 10  1  0  0  0  0
 12 14  1  0  0  0  0
 12 13  1  0  0  0  0
 14 16  1  0  0  0  0
 14 15  1  0  0  0  0
 16 17  1  0  0  0  0
 18  3  1  0  0  0  0
 19 18  1  0  0  0  0
 19 20  1  0  0  0  0
 21 19  1  0  0  0  0
 22 19  1  0  0  0  0
M  END
>  <minimizedAffinity>
-4.5773592

$$$$

 OpenBabel03242520523D

 22 23  0  0  0  0  0  0  0  0999 V2000
   40.2690   27.9870   39.8250 C   0  0  0  0  0  0  0  0  0  0  0  0
   39.6800   27.2570   40.8480 C   0  0  0  0  0  0  0  0  0  0  0  0
   38.9030   27.8940   41.8040 C   0  0  0  0  0  0  0  0  0  0  0  0
   38.7730   29.2380   41.6640 N   0  0  0  0  0  0  0  0  0  0  0  0
   39.3450   29.9340   40.6740 C   0  0  0  0  0  0  0  0  0  0  0  0
   40.0910   29.3000   39.7600 N   0  0  0  0  0  0  0  0  0  0  0  0
   40.8520   27.3680   39.1400 H   0  0  0  0  0  0  0  0  0  0  0  0
   39.7500   26.1710   41.0120 H   0  0  0  0  0  0  0  0  0  0  0  0
   39.1350   31.3380   40.6320 N   0  0  0  0  0  0  0  0  0  0  0  0
   40.2090   32.2250   41.0330 C   0  0  0  0  0  3  0  0  0  0  0  0
   41.1780   31.7050   41.1260 H   0  0  0  0  0  0  0  0  0  0  0  0
   40.4150   33.2940   39.9830 C   0  0  0  0  0  3  0  0  0  0  0  0
   41.0490   32.8730   39.1940 H   0  0  0  0  0  0  0  0  0  0  0  0
   39.2080   33.8280   39.4360 N   0  0  0  0  0  0  0  0  0  0  0  0
   39.1260   33.5450   38.4470 H   0  0  0  0  0  0  0  0  0  0  0  0
   38.0690   33.4280   40.2310 C   0  0  0  0  0  2  0  0  0  0  0  0
   37.8800   31.9240   40.1990 C   0  0  0  0  0  2  0  0  0  0  0  0
   38.2560   27.3150   42.8720 O   0  0  0  0  0  0  0  0  0  0  0  0
   36.9360   26.8210   42.6150 C   0  0  0  0  0  0  0  0  0  0  0  0
   36.4680   27.3070   41.4070 F   0  0  0  0  0  0  0  0  0  0  0  0
   37.0310   25.4240   42.5400 F   0  0  0  0  0  0  0  0  0  0  0  0
   36.0770   27.1360   43.6790 F   0  0  0  0  0  0  0  0  0  0  0  0
  1  2  1  0  0  0  0
  2  8  1  0  0  0  0
  2  3  2  0  0  0  0
  3 18  1  0  0  0  0
  4  3  1  0  0  0  0
  5  4  2  0  0  0  0
  6  1  2  0  0  0  0
  6  5  1  0  0  0  0
  7  1  1  0  0  0  0
  9  5  1  0  0  0  0
  9 10  1  0  0  0  0
 10 11  1  0  0  0  0
 12 10  1  0  0  0  0
 13 12  1  0  0  0  0
 14 12  1  0  0  0  0
 14 16  1  0  0  0  0
 15 14  1  0  0  0  0
 17 16  1  0  0  0  0
 17  9  1  0  0  0  0
 19 18  1  0  0  0  0
 19 22  1  0  0  0  0
 20 19  1  0  0  0  0
 21 19  1  0  0  0  0
M  END
>  <minimizedAffinity>
-4.43738794

$$$$

 OpenBabel03242520523D

 22 23  0  0  0  0  0  0  0  0999 V2000
   39.9440   29.4650   42.6660 C   0  0  0  0  0  0  0  0  0  0  0  0
   39.0950   30.4640   42.2130 C   0  0  0  0  0  0  0  0  0  0  0  0
   37.9200   30.1370   41.5520 C   0  0  0  0  0  0  0  0  0  0  0  0
   37.6780   28.8110   41.3920 N   0  0  0  0  0  0  0  0  0  0  0  0
   38.5040   27.8540   41.8320 C   0  0  0  0  0  0  0  0  0  0  0  0
   39.6330   28.1900   42.4680 N   0  0  0  0  0  0  0  0  0  0  0  0
   40.8320   29.8540   43.1680 H   0  0  0  0  0  0  0  0  0  0  0  0
   39.2380   31.5500   42.3130 H   0  0  0  0  0  0  0  0  0  0  0  0
   38.1430   26.4990   41.6050 N   0  0  0  0  0  0  0  0  0  0  0  0
   38.8320   25.7470   40.5750 C   0  0  0  0  0  3  0  0  0  0  0  0
   39.7400   26.2590   40.2120 H   0  0  0  0  0  0  0  0  0  0  0  0
   39.3000   24.4210   41.1300 C   0  0  0  0  0  3  0  0  0  0  0  0
   40.2500   24.5900   41.6510 H   0  0  0  0  0  0  0  0  0  0  0  0
   38.3590   23.7700   41.9860 N   0  0  0  0  0  0  0  0  0  0  0  0
   38.7230   23.7610   42.9510 H   0  0  0  0  0  0  0  0  0  0  0  0
   37.0600   24.3970   41.8810 C   0  0  0  0  0  2  0  0  0  0  0  0
   37.1040   25.8320   42.3680 C   0  0  0  0  0  2  0  0  0  0  0  0
   36.9800   31.0060   41.0470 O   0  0  0  0  0  0  0  0  0  0  0  0
   37.0880   31.3070   39.6500 C   0  0  0  0  0  0  0  0  0  0  0  0
   38.3510   30.9860   39.1860 F   0  0  0  0  0  0  0  0  0  0  0  0
   36.1410   30.5120   38.9880 F   0  0  0  0  0  0  0  0  0  0  0  0
   36.7620   32.6510   39.4100 F   0  0  0  0  0  0  0  0  0  0  0  0
  1  7  1  0  0  0  0
  2  8  1  0  0  0  0
  2  1  2  0  0  0  0
  3  2  1  0  0  0  0
  4  3  2  0  0  0  0
  4  5  1  0  0  0  0
  5  6  2  0  0  0  0
  6  1  1  0  0  0  0
  9  5  1  0  0  0  0
  9 17  1  0  0  0  0
 10 12  1  0  0  0  0
 10  9  1  0  0  0  0
 11 10  1  0  0  0  0
 12 13  1  0  0  0  0
 12 14  1  0  0  0  0
 14 15  1  0  0  0  0
 16 14  1  0  0  0  0
 16 17  1  0  0  0  0
 18  3  1  0  0  0  0
 19 18  1  0  0  0  0
 20 19  1  0  0  0  0
 21 19  1  0  0  0  0
 22 19  1  0  0  0  0
M  END
>  <minimizedAffinity>
-4.43646002

$$$$

 OpenBabel03242520523D

 22 23  0  0  0  0  0  0  0  0999 V2000
   37.4760   32.0430   38.6360 C   0  0  0  0  0  0  0  0  0  0  0  0
   37.4870   31.3930   37.4100 C   0  0  0  0  0  0  0  0  0  0  0  0
   37.4820   30.0070   37.3540 C   0  0  0  0  0  0  0  0  0  0  0  0
   37.4660   29.3640   38.5490 N   0  0  0  0  0  0  0  0  0  0  0  0
   37.4550   30.0000   39.7270 C   0  0  0  0  0  0  0  0  0  0  0  0
   37.4600   31.3390   39.7600 N   0  0  0  0  0  0  0  0  0  0  0  0
   37.4810   33.1310   38.5430 H   0  0  0  0  0  0  0  0  0  0  0  0
   37.5000   31.8590   36.4130 H   0  0  0  0  0  0  0  0  0  0  0  0
   37.4390   29.2180   40.9120 N   0  0  0  0  0  0  0  0  0  0  0  0
   38.6510   29.0970   41.6970 C   0  0  0  0  0  3  0  0  0  0  0  0
   39.4260   29.8250   41.3960 H   0  0  0  0  0  0  0  0  0  0  0  0
   38.3560   29.3880   43.1510 C   0  0  0  0  0  3  0  0  0  0  0  0
   38.3690   30.4750   43.2860 H   0  0  0  0  0  0  0  0  0  0  0  0
   37.1320   28.8290   43.6310 N   0  0  0  0  0  0  0  0  0  0  0  0
   36.4660   29.5900   43.8380 H   0  0  0  0  0  0  0  0  0  0  0  0
   36.6090   27.8670   42.6870 C   0  0  0  0  0  2  0  0  0  0  0  0
   36.2470   28.5290   41.3730 C   0  0  0  0  0  2  0  0  0  0  0  0
   37.4910   29.2200   36.2240 O   0  0  0  0  0  0  0  0  0  0  0  0
   36.3290   29.3030   35.3900 C   0  0  0  0  0  0  0  0  0  0  0  0
   36.4610   30.3410   34.4850 F   0  0  0  0  0  0  0  0  0  0  0  0
   36.2440   28.0920   34.6880 F   0  0  0  0  0  0  0  0  0  0  0  0
   35.1700   29.4280   36.1710 F   0  0  0  0  0  0  0  0  0  0  0  0
  1  6  1  0  0  0  0
  2  1  2  0  0  0  0
  3  2  1  0  0  0  0
  3  4  2  0  0  0  0
  4  5  1  0  0  0  0
  5  6  2  0  0  0  0
  5  9  1  0  0  0  0
  7  1  1  0  0  0  0
  8  2  1  0  0  0  0
  9 17  1  0  0  0  0
  9 10  1  0  0  0  0
 10 12  1  0  0  0  0
 11 10  1  0  0  0  0
 12 13  1  0  0  0  0
 12 14  1  0  0  0  0
 14 15  1  0  0  0  0
 16 14  1  0  0  0  0
 17 16  1  0  0  0  0
 18  3  1  0  0  0  0
 19 22  1  0  0  0  0
 19 18  1  0  0  0  0
 20 19  1  0  0  0  0
 21 19  1  0  0  0  0
M  END
>  <minimizedAffinity>
-4.37083387

$$$$

 OpenBabel03242520523D

 22 23  0  0  0  0  0  0  0  0999 V2000
   35.7290   26.7910   38.2030 C   0  0  0  0  0  0  0  0  0  0  0  0
   36.3320   25.8040   38.9710 C   0  0  0  0  0  0  0  0  0  0  0  0
   37.2350   26.1470   39.9660 C   0  0  0  0  0  0  0  0  0  0  0  0
   37.4720   27.4740   40.1220 N   0  0  0  0  0  0  0  0  0  0  0  0
   36.8860   28.4190   39.3770 C   0  0  0  0  0  0  0  0  0  0  0  0
   36.0160   28.0690   38.4210 N   0  0  0  0  0  0  0  0  0  0  0  0
   35.0410   26.3910   37.4560 H   0  0  0  0  0  0  0  0  0  0  0  0
   36.1800   24.7180   38.8900 H   0  0  0  0  0  0  0  0  0  0  0  0
   37.2140   29.7770   39.6340 N   0  0  0  0  0  0  0  0  0  0  0  0
   38.0890   30.4790   38.7160 C   0  0  0  0  0  3  0  0  0  0  0  0
   38.2390   29.9310   37.7690 H   0  0  0  0  0  0  0  0  0  0  0  0
   37.4750   31.8060   38.3310 C   0  0  0  0  0  3  0  0  0  0  0  0
   36.7600   31.6240   37.5200 H   0  0  0  0  0  0  0  0  0  0  0  0
   36.8540   32.5080   39.4090 N   0  0  0  0  0  0  0  0  0  0  0  0
   35.8340   32.5340   39.2590 H   0  0  0  0  0  0  0  0  0  0  0  0
   37.2200   31.9170   40.6770 C   0  0  0  0  0  2  0  0  0  0  0  0
   36.7050   30.4960   40.7870 C   0  0  0  0  0  2  0  0  0  0  0  0
   37.9110   25.2920   40.8070 O   0  0  0  0  0  0  0  0  0  0  0  0
   37.1770   24.8140   41.9410 C   0  0  0  0  0  0  0  0  0  0  0  0
   36.6540   25.8760   42.6570 F   0  0  0  0  0  0  0  0  0  0  0  0
   36.1220   24.0340   41.4450 F   0  0  0  0  0  0  0  0  0  0  0  0
   37.9840   23.9870   42.7370 F   0  0  0  0  0  0  0  0  0  0  0  0
  1  6  2  0  0  0  0
  1  2  1  0  0  0  0
  2  3  2  0  0  0  0
  3  4  1  0  0  0  0
  3 18  1  0  0  0  0
  5  9  1  0  0  0  0
  5  4  2  0  0  0  0
  6  5  1  0  0  0  0
  7  1  1  0  0  0  0
  8  2  1  0  0  0  0
  9 17  1  0  0  0  0
 10  9  1  0  0  0  0
 11 10  1  0  0  0  0
 12 10  1  0  0  0  0
 12 14  1  0  0  0  0
 13 12  1  0  0  0  0
 14 16  1  0  0  0  0
 15 14  1  0  0  0  0
 16 17  1  0  0  0  0
 18 19  1  0  0  0  0
 19 20  1  0  0  0  0
 19 22  1  0  0  0  0
 21 19  1  0  0  0  0
M  END
>  <minimizedAffinity>
-4.37032366

$$$$
