
 OpenBabel03252509073D

 41 44  0  0  1  0  0  0  0  0999 V2000
   47.4730   31.7810   38.8510 C   0  0  0  0  0  0  0  0  0  0  0  0
   47.1030   33.0880   38.9560 C   0  0  0  0  0  0  0  0  0  0  0  0
   47.8250   34.0390   38.2580 C   0  0  0  0  0  0  0  0  0  0  0  0
   48.8910   33.6710   37.4730 C   0  0  0  0  0  0  0  0  0  0  0  0
   49.2820   32.3410   37.3510 C   0  0  0  0  0  0  0  0  0  0  0  0
   48.5510   31.3940   38.0570 C   0  0  0  0  0  0  0  0  0  0  0  0
   47.5560   35.0920   38.3230 H   0  0  0  0  0  0  0  0  0  0  0  0
   49.4190   34.4520   36.9510 H   0  0  0  0  0  0  0  0  0  0  0  0
   50.1060   32.0550   36.7430 H   0  0  0  0  0  0  0  0  0  0  0  0
   48.8620   30.3680   37.9550 H   0  0  0  0  0  0  0  0  0  0  0  0
   45.3840   35.4020   43.2200 Cl  0  0  0  0  0  0  0  0  0  0  0  0
   45.1920   34.6120   41.6810 C   0  0  0  0  0  0  0  0  0  0  0  0
   46.2580   34.1920   40.9720 C   0  0  0  0  0  0  0  0  0  0  0  0
   45.9920   33.5720   39.7560 C   0  0  0  0  0  0  0  0  0  0  0  0
   44.7140   33.3920   39.2890 C   0  0  0  0  0  0  0  0  0  0  0  0
   43.6560   33.8230   40.0230 C   0  0  0  0  0  0  0  0  0  0  0  0
   43.9060   34.4370   41.2280 C   0  0  0  0  0  0  0  0  0  0  0  0
   44.5040   32.9070   38.3340 H   0  0  0  0  0  0  0  0  0  0  0  0
   42.6370   33.6980   39.6900 H   0  0  0  0  0  0  0  0  0  0  0  0
   43.0420   34.7780   41.8060 H   0  0  0  0  0  0  0  0  0  0  0  0
   49.5650   35.7600   41.8940 C   0  0  0  0  0  0  0  0  0  0  0  0
   48.2800   35.5830   41.3720 C   0  0  0  0  0  0  0  0  0  0  0  0
   47.5850   34.3910   41.5010 C   0  0  0  0  0  0  0  0  0  0  0  0
   48.2450   33.4110   42.1710 N   0  0  0  0  0  0  0  0  0  0  0  0
   49.4790   33.5820   42.6710 C   0  0  0  0  0  0  0  0  0  0  0  0
   50.1310   34.7440   42.5330 N   0  0  0  0  0  0  0  0  0  0  0  0
   50.0320   36.7280   41.7440 H   0  0  0  0  0  0  0  0  0  0  0  0
   47.7870   36.3890   40.8460 H   0  0  0  0  0  0  0  0  0  0  0  0
   50.0050   32.7970   43.2050 H   0  0  0  0  0  0  0  0  0  0  0  0
   46.6340   30.5590   39.6490 S   0  0  0  0  0  0  0  0  0  0  0  0
   45.1320   30.7010   39.5330 O   0  0  0  0  0  0  0  0  0  0  0  0
   46.9460   29.2800   38.8160 O   0  0  0  0  0  0  0  0  0  0  0  0
   48.0820   31.5240   41.8050 H   0  0  0  0  0  0  0  0  0  0  0  0
   48.0200   30.5130   41.9610 N   0  0  0  0  0  0  0  0  0  0  0  0
   46.8420   29.9950   41.2260 C   0  0  1  0  0  3  0  0  0  0  0  0
   45.7930   30.8190   42.0640 C   0  0  0  0  0  3  0  0  0  0  0  0
   46.0520   31.8790   42.0490 H   0  0  0  0  0  0  0  0  0  0  0  0
   45.6660   30.2740   43.3770 N   0  0  0  0  0  0  0  0  0  0  0  0
   44.7370   29.8420   43.5570 H   0  0  0  0  0  0  0  0  0  0  0  0
   46.7640   29.4410   43.7770 C   0  0  0  0  0  2  0  0  0  0  0  0
   48.0580   30.0540   43.3060 C   0  0  0  0  0  2  0  0  0  0  0  0
  1  2  1  0  0  0  0
  1 30  1  0  0  0  0
  2 14  1  0  0  0  0
  3  7  1  0  0  0  0
  3  2  2  0  0  0  0
  4  3  1  0  0  0  0
  5  4  2  0  0  0  0
  5  6  1  0  0  0  0
  6  1  2  0  0  0  0
  8  4  1  0  0  0  0
  9  5  1  0  0  0  0
 10  6  1  0  0  0  0
 12 11  1  0  0  0  0
 13 23  1  0  0  0  0
 13 12  2  0  0  0  0
 14 13  1  0  0  0  0
 15 14  2  0  0  0  0
 15 16  1  0  0  0  0
 16 17  2  0  0  0  0
 17 12  1  0  0  0  0
 17 20  1  0  0  0  0
 18 15  1  0  0  0  0
 19 16  1  0  0  0  0
 21 26  1  0  0  0  0
 22 23  1  0  0  0  0
 22 21  2  0  0  0  0
 23 24  2  0  0  0  0
 24 25  1  0  0  0  0
 25 29  1  0  0  0  0
 26 25  2  0  0  0  0
 27 21  1  0  0  0  0
 28 22  1  0  0  0  0
 31 30  2  0  0  0  0
 32 30  2  0  0  0  0
 33 34  1  0  0  0  0
 34 41  1  0  0  0  0
 35 30  1  6  0  0  0
 35 34  1  0  0  0  0
 35 36  1  0  0  0  0
 36 38  1  0  0  0  0
 37 36  1  0  0  0  0
 38 39  1  0  0  0  0
 38 40  1  0  0  0  0
 41 40  1  0  0  0  0
M  END
>  <minimizedAffinity>
-4.64820194

>  <minimizedRMSD>
1.52422404

$$$$
