
 OpenBabel03252509103D

 41 44  0  0  1  0  0  0  0  0999 V2000
   36.4970   26.1430   39.5820 C   0  0  0  0  0  0  0  0  0  0  0  0
   37.0350   25.9310   40.8150 C   0  0  0  0  0  0  0  0  0  0  0  0
   37.0640   24.6400   41.3130 C   0  0  0  0  0  0  0  0  0  0  0  0
   36.5610   23.5950   40.5750 C   0  0  0  0  0  0  0  0  0  0  0  0
   36.0090   23.7920   39.3130 C   0  0  0  0  0  0  0  0  0  0  0  0
   35.9850   25.0920   38.8230 C   0  0  0  0  0  0  0  0  0  0  0  0
   37.4860   24.4380   42.2950 H   0  0  0  0  0  0  0  0  0  0  0  0
   36.6080   22.6100   41.0100 H   0  0  0  0  0  0  0  0  0  0  0  0
   35.6210   22.9840   38.7410 H   0  0  0  0  0  0  0  0  0  0  0  0
   35.5550   25.2330   37.8450 H   0  0  0  0  0  0  0  0  0  0  0  0
   41.0520   28.8210   42.2300 Cl  0  0  0  0  0  0  0  0  0  0  0  0
   39.4000   28.2820   42.3250 C   0  0  0  0  0  0  0  0  0  0  0  0
   38.9280   27.3230   41.5040 C   0  0  0  0  0  0  0  0  0  0  0  0
   37.5930   26.9680   41.6650 C   0  0  0  0  0  0  0  0  0  0  0  0
   36.7860   27.5550   42.6070 C   0  0  0  0  0  0  0  0  0  0  0  0
   37.2860   28.5180   43.4240 C   0  0  0  0  0  0  0  0  0  0  0  0
   38.6040   28.8790   43.2750 C   0  0  0  0  0  0  0  0  0  0  0  0
   35.7380   27.2780   42.7330 H   0  0  0  0  0  0  0  0  0  0  0  0
   36.6830   29.0010   44.1770 H   0  0  0  0  0  0  0  0  0  0  0  0
   38.9900   29.6560   43.9410 H   0  0  0  0  0  0  0  0  0  0  0  0
   41.3640   24.9870   39.8140 C   0  0  0  0  0  0  0  0  0  0  0  0
   40.5150   25.5560   40.7690 C   0  0  0  0  0  0  0  0  0  0  0  0
   39.8090   26.7250   40.5330 C   0  0  0  0  0  0  0  0  0  0  0  0
   40.0040   27.2740   39.3050 N   0  0  0  0  0  0  0  0  0  0  0  0
   40.8190   26.7280   38.3890 C   0  0  0  0  0  0  0  0  0  0  0  0
   41.4900   25.5970   38.6420 N   0  0  0  0  0  0  0  0  0  0  0  0
   41.8750   24.0710   40.0890 H   0  0  0  0  0  0  0  0  0  0  0  0
   40.3860   25.0870   41.7350 H   0  0  0  0  0  0  0  0  0  0  0  0
   40.9730   27.1680   37.4100 H   0  0  0  0  0  0  0  0  0  0  0  0
   36.4430   27.6790   38.8940 S   0  0  0  0  0  0  0  0  0  0  0  0
   37.1820   27.7610   37.5760 O   0  0  0  0  0  0  0  0  0  0  0  0
   34.9510   27.8610   38.4890 O   0  0  0  0  0  0  0  0  0  0  0  0
   36.1430   30.2900   38.0200 H   0  0  0  0  0  0  0  0  0  0  0  0
   36.9100   30.3270   38.6990 N   0  0  0  0  0  0  0  0  0  0  0  0
   36.7830   29.1670   39.6130 C   0  0  1  0  0  3  0  0  0  0  0  0
   35.4000   29.6230   40.2120 C   0  0  0  0  0  3  0  0  0  0  0  0
   34.6810   29.7940   39.4080 H   0  0  0  0  0  0  0  0  0  0  0  0
   35.5760   30.7440   41.0780 N   0  0  0  0  0  0  0  0  0  0  0  0
   35.3820   30.5310   42.0760 H   0  0  0  0  0  0  0  0  0  0  0  0
   36.8090   31.4510   40.8800 C   0  0  0  0  0  2  0  0  0  0  0  0
   37.1030   31.5470   39.4050 C   0  0  0  0  0  2  0  0  0  0  0  0
  1  2  1  0  0  0  0
  2  3  2  0  0  0  0
  2 14  1  0  0  0  0
  3  7  1  0  0  0  0
  4  8  1  0  0  0  0
  4  3  1  0  0  0  0
  5  4  2  0  0  0  0
  6  5  1  0  0  0  0
  6  1  2  0  0  0  0
  9  5  1  0  0  0  0
 10  6  1  0  0  0  0
 11 12  1  0  0  0  0
 12 17  1  0  0  0  0
 13 14  1  0  0  0  0
 13 12  2  0  0  0  0
 14 15  2  0  0  0  0
 15 18  1  0  0  0  0
 15 16  1  0  0  0  0
 16 19  1  0  0  0  0
 17 16  2  0  0  0  0
 17 20  1  0  0  0  0
 21 27  1  0  0  0  0
 21 22  1  0  0  0  0
 22 28  1  0  0  0  0
 23 22  2  0  0  0  0
 23 13  1  0  0  0  0
 24 23  1  0  0  0  0
 25 26  1  0  0  0  0
 25 24  2  0  0  0  0
 26 21  2  0  0  0  0
 29 25  1  0  0  0  0
 30  1  1  0  0  0  0
 31 30  2  0  0  0  0
 32 30  2  0  0  0  0
 33 34  1  0  0  0  0
 34 41  1  0  0  0  0
 34 35  1  0  0  0  0
 35 30  1  6  0  0  0
 35 36  1  0  0  0  0
 36 38  1  0  0  0  0
 37 36  1  0  0  0  0
 38 39  1  0  0  0  0
 40 38  1  0  0  0  0
 41 40  1  0  0  0  0
M  END
>  <minimizedAffinity>
-6.40535545

$$$$

 OpenBabel03252509103D

 41 44  0  0  1  0  0  0  0  0999 V2000
   36.4500   30.0180   38.6350 C   0  0  0  0  0  0  0  0  0  0  0  0
   37.2320   30.9990   38.1040 C   0  0  0  0  0  0  0  0  0  0  0  0
   37.3270   31.0980   36.7270 C   0  0  0  0  0  0  0  0  0  0  0  0
   36.6440   30.2250   35.9140 C   0  0  0  0  0  0  0  0  0  0  0  0
   35.8380   29.2190   36.4390 C   0  0  0  0  0  0  0  0  0  0  0  0
   35.7500   29.1280   37.8220 C   0  0  0  0  0  0  0  0  0  0  0  0
   37.9450   31.8690   36.2720 H   0  0  0  0  0  0  0  0  0  0  0  0
   36.7530   30.3470   34.8490 H   0  0  0  0  0  0  0  0  0  0  0  0
   35.3080   28.5440   35.8110 H   0  0  0  0  0  0  0  0  0  0  0  0
   35.1240   28.3460   38.2170 H   0  0  0  0  0  0  0  0  0  0  0  0
   41.6070   32.3630   40.4460 Cl  0  0  0  0  0  0  0  0  0  0  0  0
   39.9560   32.6010   39.9510 C   0  0  0  0  0  0  0  0  0  0  0  0
   39.3030   31.6760   39.2210 C   0  0  0  0  0  0  0  0  0  0  0  0
   37.9870   31.9670   38.8790 C   0  0  0  0  0  0  0  0  0  0  0  0
   37.3720   33.1340   39.2590 C   0  0  0  0  0  0  0  0  0  0  0  0
   38.0510   34.0500   39.9960 C   0  0  0  0  0  0  0  0  0  0  0  0
   39.3520   33.7740   40.3410 C   0  0  0  0  0  0  0  0  0  0  0  0
   36.3390   33.3640   38.9910 H   0  0  0  0  0  0  0  0  0  0  0  0
   37.6000   34.9770   40.3150 H   0  0  0  0  0  0  0  0  0  0  0  0
   39.8840   34.5240   40.9350 H   0  0  0  0  0  0  0  0  0  0  0  0
   41.3420   29.1300   37.3210 C   0  0  0  0  0  0  0  0  0  0  0  0
   40.6870   30.3160   37.6650 C   0  0  0  0  0  0  0  0  0  0  0  0
   39.9810   30.4590   38.8490 C   0  0  0  0  0  0  0  0  0  0  0  0
   39.9740   29.3600   39.6490 N   0  0  0  0  0  0  0  0  0  0  0  0
   40.6020   28.2210   39.3170 C   0  0  0  0  0  0  0  0  0  0  0  0
   41.2780   28.1080   38.1670 N   0  0  0  0  0  0  0  0  0  0  0  0
   41.8690   29.1110   36.3740 H   0  0  0  0  0  0  0  0  0  0  0  0
   40.7180   31.1700   37.0010 H   0  0  0  0  0  0  0  0  0  0  0  0
   40.5940   27.3440   39.9570 H   0  0  0  0  0  0  0  0  0  0  0  0
   36.2610   29.8430   40.2990 S   0  0  0  0  0  0  0  0  0  0  0  0
   35.8700   31.1320   40.9870 O   0  0  0  0  0  0  0  0  0  0  0  0
   34.9940   28.9500   40.4440 O   0  0  0  0  0  0  0  0  0  0  0  0
   35.9220   28.9850   42.9110 H   0  0  0  0  0  0  0  0  0  0  0  0
   36.9200   29.2070   42.8340 N   0  0  0  0  0  0  0  0  0  0  0  0
   37.3110   29.1240   41.4080 C   0  0  1  0  0  3  0  0  0  0  0  0
   37.0050   27.5850   41.2770 C   0  0  0  0  0  3  0  0  0  0  0  0
   35.9820   27.3780   41.5990 H   0  0  0  0  0  0  0  0  0  0  0  0
   37.9940   26.8190   41.9640 N   0  0  0  0  0  0  0  0  0  0  0  0
   38.5940   26.2540   41.3320 H   0  0  0  0  0  0  0  0  0  0  0  0
   38.7410   27.5630   42.9370 C   0  0  0  0  0  2  0  0  0  0  0  0
   37.8160   28.4940   43.6780 C   0  0  0  0  0  2  0  0  0  0  0  0
  1 30  1  0  0  0  0
  2  1  1  0  0  0  0
  2 14  1  0  0  0  0
  3  2  2  0  0  0  0
  4  5  2  0  0  0  0
  4  3  1  0  0  0  0
  5  6  1  0  0  0  0
  6 10  1  0  0  0  0
  6  1  2  0  0  0  0
  7  3  1  0  0  0  0
  8  4  1  0  0  0  0
  9  5  1  0  0  0  0
 12 17  1  0  0  0  0
 12 11  1  0  0  0  0
 13 12  2  0  0  0  0
 14 13  1  0  0  0  0
 14 15  2  0  0  0  0
 15 16  1  0  0  0  0
 16 19  1  0  0  0  0
 16 17  2  0  0  0  0
 17 20  1  0  0  0  0
 18 15  1  0  0  0  0
 21 22  2  0  0  0  0
 21 26  1  0  0  0  0
 22 23  1  0  0  0  0
 23 13  1  0  0  0  0
 23 24  2  0  0  0  0
 25 24  1  0  0  0  0
 25 29  1  0  0  0  0
 26 25  2  0  0  0  0
 27 21  1  0  0  0  0
 28 22  1  0  0  0  0
 30 32  2  0  0  0  0
 30 31  2  0  0  0  0
 34 33  1  0  0  0  0
 34 41  1  0  0  0  0
 35 30  1  6  0  0  0
 35 34  1  0  0  0  0
 36 35  1  0  0  0  0
 36 37  1  0  0  0  0
 36 38  1  0  0  0  0
 38 40  1  0  0  0  0
 39 38  1  0  0  0  0
 40 41  1  0  0  0  0
M  END
>  <minimizedAffinity>
-6.38413715

$$$$

 OpenBabel03252509103D

 41 44  0  0  1  0  0  0  0  0999 V2000
   36.2170   27.6630   38.9680 C   0  0  0  0  0  0  0  0  0  0  0  0
   35.9450   28.3840   40.0920 C   0  0  0  0  0  0  0  0  0  0  0  0
   34.7840   29.1350   40.1320 C   0  0  0  0  0  0  0  0  0  0  0  0
   33.9220   29.1480   39.0610 C   0  0  0  0  0  0  0  0  0  0  0  0
   34.1820   28.4160   37.9070 C   0  0  0  0  0  0  0  0  0  0  0  0
   35.3510   27.6670   37.8760 C   0  0  0  0  0  0  0  0  0  0  0  0
   34.5390   29.7230   41.0140 H   0  0  0  0  0  0  0  0  0  0  0  0
   33.0320   29.7500   39.1460 H   0  0  0  0  0  0  0  0  0  0  0  0
   33.5160   28.4250   37.0780 H   0  0  0  0  0  0  0  0  0  0  0  0
   35.5430   27.1040   36.9780 H   0  0  0  0  0  0  0  0  0  0  0  0
   39.5990   30.7460   42.8410 Cl  0  0  0  0  0  0  0  0  0  0  0  0
   38.4470   29.4790   42.5290 C   0  0  0  0  0  0  0  0  0  0  0  0
   37.6770   29.4900   41.4230 C   0  0  0  0  0  0  0  0  0  0  0  0
   36.7900   28.4300   41.2710 C   0  0  0  0  0  0  0  0  0  0  0  0
   36.6940   27.4170   42.1930 C   0  0  0  0  0  0  0  0  0  0  0  0
   37.4820   27.4280   43.2990 C   0  0  0  0  0  0  0  0  0  0  0  0
   38.3630   28.4710   43.4610 C   0  0  0  0  0  0  0  0  0  0  0  0
   35.9970   26.5850   42.0750 H   0  0  0  0  0  0  0  0  0  0  0  0
   37.4350   26.6490   44.0440 H   0  0  0  0  0  0  0  0  0  0  0  0
   38.9900   28.4630   44.3570 H   0  0  0  0  0  0  0  0  0  0  0  0
   37.2160   32.7680   39.6100 C   0  0  0  0  0  0  0  0  0  0  0  0
   37.0680   31.7320   40.5370 C   0  0  0  0  0  0  0  0  0  0  0  0
   37.8150   30.5670   40.4740 C   0  0  0  0  0  0  0  0  0  0  0  0
   38.7010   30.5080   39.4450 N   0  0  0  0  0  0  0  0  0  0  0  0
   38.8420   31.5030   38.5550 C   0  0  0  0  0  0  0  0  0  0  0  0
   38.1080   32.6200   38.6380 N   0  0  0  0  0  0  0  0  0  0  0  0
   36.5880   33.6430   39.7390 H   0  0  0  0  0  0  0  0  0  0  0  0
   36.3520   31.8190   41.3430 H   0  0  0  0  0  0  0  0  0  0  0  0
   39.5490   31.4530   37.7340 H   0  0  0  0  0  0  0  0  0  0  0  0
   37.5970   26.7060   38.8460 S   0  0  0  0  0  0  0  0  0  0  0  0
   38.1250   26.6090   37.4320 O   0  0  0  0  0  0  0  0  0  0  0  0
   38.6930   27.5260   39.5900 O   0  0  0  0  0  0  0  0  0  0  0  0
   38.0420   25.7570   41.4100 H   0  0  0  0  0  0  0  0  0  0  0  0
   38.4940   25.0740   40.7950 N   0  0  0  0  0  0  0  0  0  0  0  0
   37.8610   25.1560   39.4580 C   0  0  1  0  0  3  0  0  0  0  0  0
   36.4400   24.6970   39.9570 C   0  0  0  0  0  3  0  0  0  0  0  0
   36.1100   25.3320   40.7820 H   0  0  0  0  0  0  0  0  0  0  0  0
   36.4450   23.3040   40.2660 N   0  0  0  0  0  0  0  0  0  0  0  0
   35.8600   22.7350   39.6220 H   0  0  0  0  0  0  0  0  0  0  0  0
   37.7530   22.7540   40.4790 C   0  0  0  0  0  2  0  0  0  0  0  0
   38.5890   23.7330   41.2620 C   0  0  0  0  0  2  0  0  0  0  0  0
  1  2  1  0  0  0  0
  2  3  2  0  0  0  0
  2 14  1  0  0  0  0
  3  7  1  0  0  0  0
  4  8  1  0  0  0  0
  4  3  1  0  0  0  0
  5  4  2  0  0  0  0
  6  5  1  0  0  0  0
  6  1  2  0  0  0  0
  9  5  1  0  0  0  0
 10  6  1  0  0  0  0
 12 11  1  0  0  0  0
 12 17  1  0  0  0  0
 13 12  2  0  0  0  0
 14 13  1  0  0  0  0
 14 15  2  0  0  0  0
 15 16  1  0  0  0  0
 16 17  2  0  0  0  0
 16 19  1  0  0  0  0
 17 20  1  0  0  0  0
 18 15  1  0  0  0  0
 21 27  1  0  0  0  0
 21 22  1  0  0  0  0
 22 28  1  0  0  0  0
 23 22  2  0  0  0  0
 23 13  1  0  0  0  0
 24 23  1  0  0  0  0
 25 26  1  0  0  0  0
 25 24  2  0  0  0  0
 26 21  2  0  0  0  0
 29 25  1  0  0  0  0
 30  1  1  0  0  0  0
 30 32  2  0  0  0  0
 31 30  2  0  0  0  0
 34 41  1  0  0  0  0
 34 33  1  0  0  0  0
 35 30  1  1  0  0  0
 35 36  1  0  0  0  0
 35 34  1  0  0  0  0
 36 38  1  0  0  0  0
 36 37  1  0  0  0  0
 38 40  1  0  0  0  0
 39 38  1  0  0  0  0
 40 41  1  0  0  0  0
M  END
>  <minimizedAffinity>
-6.34940577

$$$$

 OpenBabel03252509103D

 41 44  0  0  1  0  0  0  0  0999 V2000
   36.9960   29.5740   38.5980 C   0  0  0  0  0  0  0  0  0  0  0  0
   36.4770   28.7710   39.5690 C   0  0  0  0  0  0  0  0  0  0  0  0
   35.2610   28.1540   39.3390 C   0  0  0  0  0  0  0  0  0  0  0  0
   34.5930   28.3450   38.1530 C   0  0  0  0  0  0  0  0  0  0  0  0
   35.1080   29.1590   37.1490 C   0  0  0  0  0  0  0  0  0  0  0  0
   36.3290   29.7750   37.3910 C   0  0  0  0  0  0  0  0  0  0  0  0
   34.8200   27.5080   40.0950 H   0  0  0  0  0  0  0  0  0  0  0  0
   33.6490   27.8410   38.0260 H   0  0  0  0  0  0  0  0  0  0  0  0
   34.5920   29.3080   36.2310 H   0  0  0  0  0  0  0  0  0  0  0  0
   36.7190   30.4030   36.6070 H   0  0  0  0  0  0  0  0  0  0  0  0
   39.1180   25.5920   42.6360 Cl  0  0  0  0  0  0  0  0  0  0  0  0
   38.2990   27.0800   42.2560 C   0  0  0  0  0  0  0  0  0  0  0  0
   37.7390   27.2810   41.0470 C   0  0  0  0  0  0  0  0  0  0  0  0
   37.1090   28.5060   40.8490 C   0  0  0  0  0  0  0  0  0  0  0  0
   37.0550   29.4690   41.8260 C   0  0  0  0  0  0  0  0  0  0  0  0
   37.6260   29.2410   43.0360 C   0  0  0  0  0  0  0  0  0  0  0  0
   38.2510   28.0340   43.2450 C   0  0  0  0  0  0  0  0  0  0  0  0
   36.5620   30.4300   41.6710 H   0  0  0  0  0  0  0  0  0  0  0  0
   37.6020   29.9730   43.8290 H   0  0  0  0  0  0  0  0  0  0  0  0
   38.7060   27.8680   44.2260 H   0  0  0  0  0  0  0  0  0  0  0  0
   36.9810   24.2030   38.9990 C   0  0  0  0  0  0  0  0  0  0  0  0
   36.8990   25.2010   39.9750 C   0  0  0  0  0  0  0  0  0  0  0  0
   37.8100   26.2420   40.0510 C   0  0  0  0  0  0  0  0  0  0  0  0
   38.7870   26.2190   39.1060 N   0  0  0  0  0  0  0  0  0  0  0  0
   38.8660   25.2600   38.1700 C   0  0  0  0  0  0  0  0  0  0  0  0
   37.9720   24.2640   38.1180 N   0  0  0  0  0  0  0  0  0  0  0  0
   36.2230   23.4270   39.0180 H   0  0  0  0  0  0  0  0  0  0  0  0
   36.1050   25.1840   40.7090 H   0  0  0  0  0  0  0  0  0  0  0  0
   39.6470   25.2440   37.4180 H   0  0  0  0  0  0  0  0  0  0  0  0
   38.4810   30.3440   38.7890 S   0  0  0  0  0  0  0  0  0  0  0  0
   39.5770   29.4080   39.2450 O   0  0  0  0  0  0  0  0  0  0  0  0
   38.9010   30.7210   37.3370 O   0  0  0  0  0  0  0  0  0  0  0  0
   39.2850   32.8570   37.9430 H   0  0  0  0  0  0  0  0  0  0  0  0
   39.6450   32.7730   38.8990 N   0  0  0  0  0  0  0  0  0  0  0  0
   38.8280   31.7700   39.6220 C   0  0  1  0  0  3  0  0  0  0  0  0
   37.4920   32.5980   39.5310 C   0  0  0  0  0  3  0  0  0  0  0  0
   37.2830   32.8590   38.4910 H   0  0  0  0  0  0  0  0  0  0  0  0
   37.5400   33.7220   40.4100 N   0  0  0  0  0  0  0  0  0  0  0  0
   36.8700   33.6570   41.2020 H   0  0  0  0  0  0  0  0  0  0  0  0
   38.8650   34.0920   40.8180 C   0  0  0  0  0  2  0  0  0  0  0  0
   39.8050   33.9730   39.6460 C   0  0  0  0  0  2  0  0  0  0  0  0
  1 30  1  0  0  0  0
  1  2  1  0  0  0  0
  2 14  1  0  0  0  0
  3  2  2  0  0  0  0
  3  7  1  0  0  0  0
  4  3  1  0  0  0  0
  5  6  1  0  0  0  0
  5  4  2  0  0  0  0
  6  1  2  0  0  0  0
  8  4  1  0  0  0  0
  9  5  1  0  0  0  0
 10  6  1  0  0  0  0
 12 11  1  0  0  0  0
 12 17  1  0  0  0  0
 13 12  2  0  0  0  0
 14 13  1  0  0  0  0
 14 15  2  0  0  0  0
 15 16  1  0  0  0  0
 16 17  2  0  0  0  0
 16 19  1  0  0  0  0
 17 20  1  0  0  0  0
 18 15  1  0  0  0  0
 21 27  1  0  0  0  0
 21 22  1  0  0  0  0
 22 23  2  0  0  0  0
 22 28  1  0  0  0  0
 23 13  1  0  0  0  0
 24 23  1  0  0  0  0
 25 24  2  0  0  0  0
 26 25  1  0  0  0  0
 26 21  2  0  0  0  0
 29 25  1  0  0  0  0
 30 31  2  0  0  0  0
 32 30  2  0  0  0  0
 33 34  1  0  0  0  0
 34 35  1  0  0  0  0
 34 41  1  0  0  0  0
 35 30  1  6  0  0  0
 36 35  1  0  0  0  0
 36 38  1  0  0  0  0
 37 36  1  0  0  0  0
 38 40  1  0  0  0  0
 38 39  1  0  0  0  0
 41 40  1  0  0  0  0
M  END
>  <minimizedAffinity>
-6.13987303

$$$$

 OpenBabel03252509103D

 41 44  0  0  1  0  0  0  0  0999 V2000
   36.2000   27.1490   39.2290 C   0  0  0  0  0  0  0  0  0  0  0  0
   35.9310   28.1610   40.1010 C   0  0  0  0  0  0  0  0  0  0  0  0
   34.9170   29.0500   39.7930 C   0  0  0  0  0  0  0  0  0  0  0  0
   34.1940   28.9110   38.6320 C   0  0  0  0  0  0  0  0  0  0  0  0
   34.4530   27.8830   37.7300 C   0  0  0  0  0  0  0  0  0  0  0  0
   35.4740   26.9970   38.0490 C   0  0  0  0  0  0  0  0  0  0  0  0
   34.6790   29.8690   40.4680 H   0  0  0  0  0  0  0  0  0  0  0  0
   33.4150   29.6310   38.4410 H   0  0  0  0  0  0  0  0  0  0  0  0
   33.8940   27.7740   36.8320 H   0  0  0  0  0  0  0  0  0  0  0  0
   35.6660   26.2050   37.3440 H   0  0  0  0  0  0  0  0  0  0  0  0
   39.5370   30.6850   42.7670 Cl  0  0  0  0  0  0  0  0  0  0  0  0
   38.2660   29.5120   42.5750 C   0  0  0  0  0  0  0  0  0  0  0  0
   37.6360   29.3510   41.3950 C   0  0  0  0  0  0  0  0  0  0  0  0
   36.6350   28.3860   41.3510 C   0  0  0  0  0  0  0  0  0  0  0  0
   36.2970   27.6290   42.4450 C   0  0  0  0  0  0  0  0  0  0  0  0
   36.9490   27.8100   43.6230 C   0  0  0  0  0  0  0  0  0  0  0  0
   37.9400   28.7610   43.6800 C   0  0  0  0  0  0  0  0  0  0  0  0
   35.5120   26.8720   42.4120 H   0  0  0  0  0  0  0  0  0  0  0  0
   36.7130   27.2330   44.5030 H   0  0  0  0  0  0  0  0  0  0  0  0
   38.4550   28.8920   44.6360 H   0  0  0  0  0  0  0  0  0  0  0  0
   37.8770   32.1800   38.9080 C   0  0  0  0  0  0  0  0  0  0  0  0
   37.4850   31.4080   40.0060 C   0  0  0  0  0  0  0  0  0  0  0  0
   38.0250   30.1590   40.2660 C   0  0  0  0  0  0  0  0  0  0  0  0
   38.9640   29.7420   39.3760 N   0  0  0  0  0  0  0  0  0  0  0  0
   39.3390   30.4840   38.3210 C   0  0  0  0  0  0  0  0  0  0  0  0
   38.8010   31.6890   38.0910 N   0  0  0  0  0  0  0  0  0  0  0  0
   37.3980   33.1450   38.7840 H   0  0  0  0  0  0  0  0  0  0  0  0
   36.7350   31.7760   40.6930 H   0  0  0  0  0  0  0  0  0  0  0  0
   40.0870   30.1490   37.6110 H   0  0  0  0  0  0  0  0  0  0  0  0
   37.4020   26.0120   39.5390 S   0  0  0  0  0  0  0  0  0  0  0  0
   36.9510   24.9180   40.4810 O   0  0  0  0  0  0  0  0  0  0  0  0
   37.5840   25.2740   38.1800 O   0  0  0  0  0  0  0  0  0  0  0  0
   38.8770   25.1790   41.7310 H   0  0  0  0  0  0  0  0  0  0  0  0
   39.3230   26.0520   41.4300 N   0  0  0  0  0  0  0  0  0  0  0  0
   39.0040   26.2730   40.0000 C   0  0  1  0  0  3  0  0  0  0  0  0
   39.7580   24.9850   39.4970 C   0  0  0  0  0  3  0  0  0  0  0  0
   39.3940   24.1050   40.0320 H   0  0  0  0  0  0  0  0  0  0  0  0
   41.1710   25.1690   39.5820 N   0  0  0  0  0  0  0  0  0  0  0  0
   41.6400   25.2070   38.6560 H   0  0  0  0  0  0  0  0  0  0  0  0
   41.5740   26.2260   40.4650 C   0  0  0  0  0  2  0  0  0  0  0  0
   40.7110   26.2070   41.7010 C   0  0  0  0  0  2  0  0  0  0  0  0
  1 30  1  0  0  0  0
  1  2  1  0  0  0  0
  2 14  1  0  0  0  0
  3  2  2  0  0  0  0
  3  7  1  0  0  0  0
  4  3  1  0  0  0  0
  5  6  1  0  0  0  0
  5  4  2  0  0  0  0
  6  1  2  0  0  0  0
  8  4  1  0  0  0  0
  9  5  1  0  0  0  0
 10  6  1  0  0  0  0
 12 11  1  0  0  0  0
 12 17  1  0  0  0  0
 13 12  2  0  0  0  0
 14 13  1  0  0  0  0
 14 15  2  0  0  0  0
 15 16  1  0  0  0  0
 16 17  2  0  0  0  0
 16 19  1  0  0  0  0
 17 20  1  0  0  0  0
 18 15  1  0  0  0  0
 21 22  1  0  0  0  0
 22 23  2  0  0  0  0
 22 28  1  0  0  0  0
 23 13  1  0  0  0  0
 24 23  1  0  0  0  0
 25 24  2  0  0  0  0
 26 25  1  0  0  0  0
 26 21  2  0  0  0  0
 27 21  1  0  0  0  0
 29 25  1  0  0  0  0
 30 31  2  0  0  0  0
 32 30  2  0  0  0  0
 34 41  1  0  0  0  0
 34 33  1  0  0  0  0
 35 30  1  1  0  0  0
 35 34  1  0  0  0  0
 36 38  1  0  0  0  0
 36 35  1  0  0  0  0
 36 37  1  0  0  0  0
 38 40  1  0  0  0  0
 39 38  1  0  0  0  0
 40 41  1  0  0  0  0
M  END
>  <minimizedAffinity>
-6.0660553

$$$$

 OpenBabel03252509103D

 41 44  0  0  1  0  0  0  0  0999 V2000
   37.4140   29.1030   39.0730 C   0  0  0  0  0  0  0  0  0  0  0  0
   37.3830   29.1000   40.4340 C   0  0  0  0  0  0  0  0  0  0  0  0
   36.1540   29.0780   41.0690 C   0  0  0  0  0  0  0  0  0  0  0  0
   34.9900   29.0560   40.3390 C   0  0  0  0  0  0  0  0  0  0  0  0
   35.0020   29.0560   38.9470 C   0  0  0  0  0  0  0  0  0  0  0  0
   36.2410   29.0790   38.3200 C   0  0  0  0  0  0  0  0  0  0  0  0
   36.0960   29.0770   42.1550 H   0  0  0  0  0  0  0  0  0  0  0  0
   34.0600   29.0390   40.8840 H   0  0  0  0  0  0  0  0  0  0  0  0
   34.1020   29.0370   38.3810 H   0  0  0  0  0  0  0  0  0  0  0  0
   36.2390   29.0780   37.2430 H   0  0  0  0  0  0  0  0  0  0  0  0
   40.7710   26.5720   43.3700 Cl  0  0  0  0  0  0  0  0  0  0  0  0
   40.0970   27.9950   42.6280 C   0  0  0  0  0  0  0  0  0  0  0  0
   39.0130   27.9210   41.8310 C   0  0  0  0  0  0  0  0  0  0  0  0
   38.5560   29.1190   41.2900 C   0  0  0  0  0  0  0  0  0  0  0  0
   39.1700   30.3200   41.5450 C   0  0  0  0  0  0  0  0  0  0  0  0
   40.2610   30.3670   42.3520 C   0  0  0  0  0  0  0  0  0  0  0  0
   40.7220   29.1910   42.8940 C   0  0  0  0  0  0  0  0  0  0  0  0
   38.8140   31.2590   41.1190 H   0  0  0  0  0  0  0  0  0  0  0  0
   40.7690   31.2920   42.5760 H   0  0  0  0  0  0  0  0  0  0  0  0
   41.6020   29.2480   43.5410 H   0  0  0  0  0  0  0  0  0  0  0  0
   36.8090   24.8760   42.1660 C   0  0  0  0  0  0  0  0  0  0  0  0
   37.4030   26.1180   42.4120 C   0  0  0  0  0  0  0  0  0  0  0  0
   38.3910   26.6420   41.5950 C   0  0  0  0  0  0  0  0  0  0  0  0
   38.7380   25.8600   40.5380 N   0  0  0  0  0  0  0  0  0  0  0  0
   38.1670   24.6680   40.3040 C   0  0  0  0  0  0  0  0  0  0  0  0
   37.2130   24.1830   41.1090 N   0  0  0  0  0  0  0  0  0  0  0  0
   36.0430   24.5460   42.8600 H   0  0  0  0  0  0  0  0  0  0  0  0
   37.0980   26.7110   43.2630 H   0  0  0  0  0  0  0  0  0  0  0  0
   38.4460   24.0450   39.4600 H   0  0  0  0  0  0  0  0  0  0  0  0
   38.8680   29.1060   38.2220 S   0  0  0  0  0  0  0  0  0  0  0  0
   39.7070   27.8750   38.4820 O   0  0  0  0  0  0  0  0  0  0  0  0
   38.4360   28.9480   36.7340 O   0  0  0  0  0  0  0  0  0  0  0  0
   40.5310   29.9320   36.1670 H   0  0  0  0  0  0  0  0  0  0  0  0
   41.0190   30.2040   37.0250 N   0  0  0  0  0  0  0  0  0  0  0  0
   40.0200   30.3340   38.1120 C   0  0  1  0  0  3  0  0  0  0  0  0
   39.2430   31.5240   37.4340 C   0  0  0  0  0  3  0  0  0  0  0  0
   38.9470   31.2490   36.4200 H   0  0  0  0  0  0  0  0  0  0  0  0
   40.0090   32.7260   37.5070 N   0  0  0  0  0  0  0  0  0  0  0  0
   39.5880   33.4490   38.1230 H   0  0  0  0  0  0  0  0  0  0  0  0
   41.4070   32.5170   37.7520 C   0  0  0  0  0  2  0  0  0  0  0  0
   41.8860   31.3300   36.9570 C   0  0  0  0  0  2  0  0  0  0  0  0
  1  2  1  0  0  0  0
  2  3  2  0  0  0  0
  2 14  1  0  0  0  0
  3  7  1  0  0  0  0
  4  8  1  0  0  0  0
  4  3  1  0  0  0  0
  5  4  2  0  0  0  0
  6  5  1  0  0  0  0
  6  1  2  0  0  0  0
  9  5  1  0  0  0  0
 10  6  1  0  0  0  0
 12 17  1  0  0  0  0
 12 11  1  0  0  0  0
 13 12  2  0  0  0  0
 14 15  2  0  0  0  0
 14 13  1  0  0  0  0
 15 16  1  0  0  0  0
 16 19  1  0  0  0  0
 16 17  2  0  0  0  0
 17 20  1  0  0  0  0
 18 15  1  0  0  0  0
 21 22  1  0  0  0  0
 21 27  1  0  0  0  0
 22 28  1  0  0  0  0
 23 13  1  0  0  0  0
 23 22  2  0  0  0  0
 24 23  1  0  0  0  0
 25 24  2  0  0  0  0
 25 26  1  0  0  0  0
 26 21  2  0  0  0  0
 29 25  1  0  0  0  0
 30 31  2  0  0  0  0
 30  1  1  0  0  0  0
 32 30  2  0  0  0  0
 33 34  1  0  0  0  0
 34 35  1  0  0  0  0
 35 30  1  6  0  0  0
 36 38  1  0  0  0  0
 36 35  1  0  0  0  0
 37 36  1  0  0  0  0
 38 40  1  0  0  0  0
 38 39  1  0  0  0  0
 41 34  1  0  0  0  0
 41 40  1  0  0  0  0
M  END
>  <minimizedAffinity>
-6.03365898

$$$$

 OpenBabel03252509103D

 41 44  0  0  1  0  0  0  0  0999 V2000
   36.2590   27.2030   39.2820 C   0  0  0  0  0  0  0  0  0  0  0  0
   36.0090   28.2140   40.1600 C   0  0  0  0  0  0  0  0  0  0  0  0
   34.9810   29.0960   39.8790 C   0  0  0  0  0  0  0  0  0  0  0  0
   34.2270   28.9510   38.7400 C   0  0  0  0  0  0  0  0  0  0  0  0
   34.4660   27.9240   37.8330 C   0  0  0  0  0  0  0  0  0  0  0  0
   35.5010   27.0440   38.1230 C   0  0  0  0  0  0  0  0  0  0  0  0
   34.7570   29.9150   40.5600 H   0  0  0  0  0  0  0  0  0  0  0  0
   33.4380   29.6660   38.5700 H   0  0  0  0  0  0  0  0  0  0  0  0
   33.8820   27.8100   36.9510 H   0  0  0  0  0  0  0  0  0  0  0  0
   35.6770   26.2520   37.4140 H   0  0  0  0  0  0  0  0  0  0  0  0
   39.6440   30.7950   42.7310 Cl  0  0  0  0  0  0  0  0  0  0  0  0
   38.3930   29.5970   42.5690 C   0  0  0  0  0  0  0  0  0  0  0  0
   37.7290   29.4310   41.4080 C   0  0  0  0  0  0  0  0  0  0  0  0
   36.7470   28.4450   41.3880 C   0  0  0  0  0  0  0  0  0  0  0  0
   36.4600   27.6740   42.4870 C   0  0  0  0  0  0  0  0  0  0  0  0
   37.1450   27.8600   43.6450 C   0  0  0  0  0  0  0  0  0  0  0  0
   38.1170   28.8310   43.6780 C   0  0  0  0  0  0  0  0  0  0  0  0
   35.6900   26.9010   42.4730 H   0  0  0  0  0  0  0  0  0  0  0  0
   36.9480   27.2720   44.5280 H   0  0  0  0  0  0  0  0  0  0  0  0
   38.6590   28.9670   44.6190 H   0  0  0  0  0  0  0  0  0  0  0  0
   39.3030   30.6890   38.2170 C   0  0  0  0  0  0  0  0  0  0  0  0
   38.9900   29.8790   39.3130 C   0  0  0  0  0  0  0  0  0  0  0  0
   38.0660   30.2540   40.2740 C   0  0  0  0  0  0  0  0  0  0  0  0
   37.4870   31.4680   40.0710 N   0  0  0  0  0  0  0  0  0  0  0  0
   37.7890   32.2450   39.0190 C   0  0  0  0  0  0  0  0  0  0  0  0
   38.6860   31.8590   38.1030 N   0  0  0  0  0  0  0  0  0  0  0  0
   40.0390   30.3120   37.5150 H   0  0  0  0  0  0  0  0  0  0  0  0
   39.4720   28.9180   39.4380 H   0  0  0  0  0  0  0  0  0  0  0  0
   37.3270   33.2130   38.8600 H   0  0  0  0  0  0  0  0  0  0  0  0
   37.4770   26.0730   39.5590 S   0  0  0  0  0  0  0  0  0  0  0  0
   38.7240   26.6850   40.1580 O   0  0  0  0  0  0  0  0  0  0  0  0
   36.9150   25.1860   40.7090 O   0  0  0  0  0  0  0  0  0  0  0  0
   39.4010   26.1840   37.5690 H   0  0  0  0  0  0  0  0  0  0  0  0
   38.7810   25.4170   37.2930 N   0  0  0  0  0  0  0  0  0  0  0  0
   38.0930   24.9100   38.5040 C   0  0  1  0  0  3  0  0  0  0  0  0
   39.4130   24.4190   39.2080 C   0  0  0  0  0  3  0  0  0  0  0  0
   40.1340   25.2380   39.2650 H   0  0  0  0  0  0  0  0  0  0  0  0
   39.9170   23.2480   38.5660 N   0  0  0  0  0  0  0  0  0  0  0  0
   39.8670   22.3970   39.1590 H   0  0  0  0  0  0  0  0  0  0  0  0
   39.4130   23.0440   37.2380 C   0  0  0  0  0  2  0  0  0  0  0  0
   39.3440   24.3660   36.5170 C   0  0  0  0  0  2  0  0  0  0  0  0
  1 30  1  0  0  0  0
  1  2  1  0  0  0  0
  2 14  1  0  0  0  0
  3  2  2  0  0  0  0
  3  7  1  0  0  0  0
  4  3  1  0  0  0  0
  5  6  1  0  0  0  0
  5  4  2  0  0  0  0
  6  1  2  0  0  0  0
  8  4  1  0  0  0  0
  9  5  1  0  0  0  0
 10  6  1  0  0  0  0
 12 11  1  0  0  0  0
 12 17  1  0  0  0  0
 13 12  2  0  0  0  0
 14 13  1  0  0  0  0
 14 15  2  0  0  0  0
 15 16  1  0  0  0  0
 16 17  2  0  0  0  0
 16 19  1  0  0  0  0
 17 20  1  0  0  0  0
 18 15  1  0  0  0  0
 21 22  1  0  0  0  0
 22 28  1  0  0  0  0
 22 23  2  0  0  0  0
 23 13  1  0  0  0  0
 24 23  1  0  0  0  0
 25 24  2  0  0  0  0
 26 21  2  0  0  0  0
 26 25  1  0  0  0  0
 27 21  1  0  0  0  0
 29 25  1  0  0  0  0
 30 31  2  0  0  0  0
 30 32  2  0  0  0  0
 34 33  1  0  0  0  0
 34 35  1  0  0  0  0
 35 36  1  0  0  0  0
 35 30  1  1  0  0  0
 36 37  1  0  0  0  0
 38 39  1  0  0  0  0
 38 36  1  0  0  0  0
 40 38  1  0  0  0  0
 41 40  1  0  0  0  0
 41 34  1  0  0  0  0
M  END
>  <minimizedAffinity>
-5.88623905

$$$$

 OpenBabel03252509103D

 41 44  0  0  1  0  0  0  0  0999 V2000
   37.9420   29.0790   41.5680 C   0  0  0  0  0  0  0  0  0  0  0  0
   38.9950   28.2830   41.2330 C   0  0  0  0  0  0  0  0  0  0  0  0
   39.3900   27.2990   42.1210 C   0  0  0  0  0  0  0  0  0  0  0  0
   38.7320   27.1280   43.3150 C   0  0  0  0  0  0  0  0  0  0  0  0
   37.6530   27.9300   43.6730 C   0  0  0  0  0  0  0  0  0  0  0  0
   37.2640   28.9160   42.7750 C   0  0  0  0  0  0  0  0  0  0  0  0
   40.2290   26.6470   41.8830 H   0  0  0  0  0  0  0  0  0  0  0  0
   39.0810   26.3470   43.9700 H   0  0  0  0  0  0  0  0  0  0  0  0
   37.1410   27.7980   44.5970 H   0  0  0  0  0  0  0  0  0  0  0  0
   36.4280   29.5310   43.0630 H   0  0  0  0  0  0  0  0  0  0  0  0
   39.9360   26.5970   36.4630 Cl  0  0  0  0  0  0  0  0  0  0  0  0
   40.1960   27.6330   37.8370 C   0  0  0  0  0  0  0  0  0  0  0  0
   39.4590   27.5050   38.9580 C   0  0  0  0  0  0  0  0  0  0  0  0
   39.7490   28.3840   39.9960 C   0  0  0  0  0  0  0  0  0  0  0  0
   40.7320   29.3380   39.8970 C   0  0  0  0  0  0  0  0  0  0  0  0
   41.4610   29.4450   38.7570 C   0  0  0  0  0  0  0  0  0  0  0  0
   41.1840   28.5820   37.7230 C   0  0  0  0  0  0  0  0  0  0  0  0
   40.9590   30.0280   40.7110 H   0  0  0  0  0  0  0  0  0  0  0  0
   42.2420   30.1810   38.6430 H   0  0  0  0  0  0  0  0  0  0  0  0
   41.7820   28.6830   36.8120 H   0  0  0  0  0  0  0  0  0  0  0  0
   37.6940   24.2170   39.5220 C   0  0  0  0  0  0  0  0  0  0  0  0
   38.6930   25.1930   39.4590 C   0  0  0  0  0  0  0  0  0  0  0  0
   38.4420   26.4850   39.0260 C   0  0  0  0  0  0  0  0  0  0  0  0
   37.1540   26.7320   38.6690 N   0  0  0  0  0  0  0  0  0  0  0  0
   36.1960   25.7940   38.7290 C   0  0  0  0  0  0  0  0  0  0  0  0
   36.4640   24.5510   39.1510 N   0  0  0  0  0  0  0  0  0  0  0  0
   37.9830   23.2320   39.8730 H   0  0  0  0  0  0  0  0  0  0  0  0
   39.7070   24.9570   39.7530 H   0  0  0  0  0  0  0  0  0  0  0  0
   35.1680   25.9920   38.4430 H   0  0  0  0  0  0  0  0  0  0  0  0
   37.3820   30.2850   40.5350 S   0  0  0  0  0  0  0  0  0  0  0  0
   36.9410   29.7520   39.1900 O   0  0  0  0  0  0  0  0  0  0  0  0
   36.0540   30.7620   41.1940 O   0  0  0  0  0  0  0  0  0  0  0  0
   36.7910   32.9060   41.2080 H   0  0  0  0  0  0  0  0  0  0  0  0
   37.2780   32.9690   40.3080 N   0  0  0  0  0  0  0  0  0  0  0  0
   38.1110   31.7550   40.1400 C   0  0  1  0  0  3  0  0  0  0  0  0
   39.0400   32.0620   41.3730 C   0  0  0  0  0  3  0  0  0  0  0  0
   38.4350   32.2160   42.2690 H   0  0  0  0  0  0  0  0  0  0  0  0
   39.9220   33.1450   41.0770 N   0  0  0  0  0  0  0  0  0  0  0  0
   40.9200   32.8620   41.0200 H   0  0  0  0  0  0  0  0  0  0  0  0
   39.4990   33.9610   39.9760 C   0  0  0  0  0  2  0  0  0  0  0  0
   38.0070   34.1610   40.0400 C   0  0  0  0  0  2  0  0  0  0  0  0
  1  6  1  0  0  0  0
  2  1  2  0  0  0  0
  2  3  1  0  0  0  0
  3  4  2  0  0  0  0
  4  5  1  0  0  0  0
  4  8  1  0  0  0  0
  5  9  1  0  0  0  0
  6 10  1  0  0  0  0
  6  5  2  0  0  0  0
  7  3  1  0  0  0  0
 11 12  1  0  0  0  0
 12 13  1  0  0  0  0
 13 23  1  0  0  0  0
 13 14  2  0  0  0  0
 14  2  1  0  0  0  0
 15 14  1  0  0  0  0
 15 18  1  0  0  0  0
 16 15  2  0  0  0  0
 17 12  2  0  0  0  0
 17 16  1  0  0  0  0
 19 16  1  0  0  0  0
 20 17  1  0  0  0  0
 21 27  1  0  0  0  0
 22 21  1  0  0  0  0
 22 28  1  0  0  0  0
 23 22  2  0  0  0  0
 24 25  2  0  0  0  0
 24 23  1  0  0  0  0
 25 26  1  0  0  0  0
 26 21  2  0  0  0  0
 29 25  1  0  0  0  0
 30 32  2  0  0  0  0
 30  1  1  0  0  0  0
 31 30  2  0  0  0  0
 34 33  1  0  0  0  0
 35 34  1  0  0  0  0
 35 30  1  1  0  0  0
 35 36  1  0  0  0  0
 36 37  1  0  0  0  0
 38 36  1  0  0  0  0
 39 38  1  0  0  0  0
 40 41  1  0  0  0  0
 40 38  1  0  0  0  0
 41 34  1  0  0  0  0
M  END
>  <minimizedAffinity>
-5.82291985

$$$$

 OpenBabel03252509103D

 41 44  0  0  1  0  0  0  0  0999 V2000
   38.5060   28.5930   41.5330 C   0  0  0  0  0  0  0  0  0  0  0  0
   37.2930   27.9730   41.5200 C   0  0  0  0  0  0  0  0  0  0  0  0
   36.9490   27.1680   42.5920 C   0  0  0  0  0  0  0  0  0  0  0  0
   37.8130   27.0020   43.6480 C   0  0  0  0  0  0  0  0  0  0  0  0
   39.0550   27.6300   43.6790 C   0  0  0  0  0  0  0  0  0  0  0  0
   39.3910   28.4350   42.5980 C   0  0  0  0  0  0  0  0  0  0  0  0
   35.9890   26.6580   42.6110 H   0  0  0  0  0  0  0  0  0  0  0  0
   37.4950   26.3650   44.4560 H   0  0  0  0  0  0  0  0  0  0  0  0
   39.7240   27.5030   44.4960 H   0  0  0  0  0  0  0  0  0  0  0  0
   40.3540   28.9150   42.6330 H   0  0  0  0  0  0  0  0  0  0  0  0
   35.2660   26.1770   37.1440 Cl  0  0  0  0  0  0  0  0  0  0  0  0
   35.3860   27.2980   38.4700 C   0  0  0  0  0  0  0  0  0  0  0  0
   36.3060   27.1370   39.4420 C   0  0  0  0  0  0  0  0  0  0  0  0
   36.3140   28.0900   40.4550 C   0  0  0  0  0  0  0  0  0  0  0  0
   35.4370   29.1460   40.4760 C   0  0  0  0  0  0  0  0  0  0  0  0
   34.5200   29.2860   39.4840 C   0  0  0  0  0  0  0  0  0  0  0  0
   34.5010   28.3510   38.4770 C   0  0  0  0  0  0  0  0  0  0  0  0
   35.4420   29.8930   41.2710 H   0  0  0  0  0  0  0  0  0  0  0  0
   33.8150   30.1030   39.4670 H   0  0  0  0  0  0  0  0  0  0  0  0
   33.7560   28.4800   37.6860 H   0  0  0  0  0  0  0  0  0  0  0  0
   37.8170   23.7010   39.8370 C   0  0  0  0  0  0  0  0  0  0  0  0
   36.9240   24.7740   39.9090 C   0  0  0  0  0  0  0  0  0  0  0  0
   37.2150   26.0210   39.3790 C   0  0  0  0  0  0  0  0  0  0  0  0
   38.4340   26.1200   38.7830 N   0  0  0  0  0  0  0  0  0  0  0  0
   39.2910   25.0890   38.7150 C   0  0  0  0  0  0  0  0  0  0  0  0
   38.9840   23.8940   39.2350 N   0  0  0  0  0  0  0  0  0  0  0  0
   37.5020   22.7630   40.2800 H   0  0  0  0  0  0  0  0  0  0  0  0
   35.9630   24.6540   40.3910 H   0  0  0  0  0  0  0  0  0  0  0  0
   40.2630   25.1710   38.2390 H   0  0  0  0  0  0  0  0  0  0  0  0
   38.9930   29.6070   40.2800 S   0  0  0  0  0  0  0  0  0  0  0  0
   39.5850   30.9090   40.7700 O   0  0  0  0  0  0  0  0  0  0  0  0
   40.2080   28.8670   39.6450 O   0  0  0  0  0  0  0  0  0  0  0  0
   39.4350   31.5610   38.3670 H   0  0  0  0  0  0  0  0  0  0  0  0
   38.4180   31.4280   38.3770 N   0  0  0  0  0  0  0  0  0  0  0  0
   38.1280   30.0750   38.9080 C   0  0  1  0  0  3  0  0  0  0  0  0
   38.8430   29.3140   37.7300 C   0  0  0  0  0  3  0  0  0  0  0  0
   39.8680   29.6740   37.6200 H   0  0  0  0  0  0  0  0  0  0  0  0
   38.0670   29.4040   36.5350 N   0  0  0  0  0  0  0  0  0  0  0  0
   37.6710   28.4930   36.2290 H   0  0  0  0  0  0  0  0  0  0  0  0
   37.1050   30.4680   36.5370 C   0  0  0  0  0  2  0  0  0  0  0  0
   37.7110   31.6930   37.1720 C   0  0  0  0  0  2  0  0  0  0  0  0
  1  6  1  0  0  0  0
  2  1  2  0  0  0  0
  2  3  1  0  0  0  0
  3  7  1  0  0  0  0
  3  4  2  0  0  0  0
  4  5  1  0  0  0  0
  4  8  1  0  0  0  0
  5  9  1  0  0  0  0
  6 10  1  0  0  0  0
  6  5  2  0  0  0  0
 11 12  1  0  0  0  0
 12 17  2  0  0  0  0
 12 13  1  0  0  0  0
 13 14  2  0  0  0  0
 14 15  1  0  0  0  0
 14  2  1  0  0  0  0
 15 18  1  0  0  0  0
 16 15  2  0  0  0  0
 17 16  1  0  0  0  0
 19 16  1  0  0  0  0
 20 17  1  0  0  0  0
 21 22  1  0  0  0  0
 21 27  1  0  0  0  0
 22 28  1  0  0  0  0
 23 13  1  0  0  0  0
 23 22  2  0  0  0  0
 24 23  1  0  0  0  0
 25 24  2  0  0  0  0
 25 26  1  0  0  0  0
 26 21  2  0  0  0  0
 29 25  1  0  0  0  0
 30 31  2  0  0  0  0
 30  1  1  0  0  0  0
 32 30  2  0  0  0  0
 33 34  1  0  0  0  0
 34 35  1  0  0  0  0
 35 30  1  1  0  0  0
 36 35  1  0  0  0  0
 37 36  1  0  0  0  0
 38 40  1  0  0  0  0
 38 36  1  0  0  0  0
 39 38  1  0  0  0  0
 40 41  1  0  0  0  0
 41 34  1  0  0  0  0
M  END
>  <minimizedAffinity>
-5.69976282

$$$$
