
 OpenBabel03252509073D

 41 44  0  0  1  0  0  0  0  0999 V2000
   47.4410   31.7890   38.8240 C   0  0  0  0  0  0  0  0  0  0  0  0
   47.0900   33.0990   38.9490 C   0  0  0  0  0  0  0  0  0  0  0  0
   47.8290   34.0510   38.2690 C   0  0  0  0  0  0  0  0  0  0  0  0
   48.8930   33.6790   37.4830 C   0  0  0  0  0  0  0  0  0  0  0  0
   49.2650   32.3460   37.3420 C   0  0  0  0  0  0  0  0  0  0  0  0
   48.5170   31.3980   38.0290 C   0  0  0  0  0  0  0  0  0  0  0  0
   47.5750   35.1050   38.3490 H   0  0  0  0  0  0  0  0  0  0  0  0
   49.4350   34.4610   36.9760 H   0  0  0  0  0  0  0  0  0  0  0  0
   50.0880   32.0570   36.7320 H   0  0  0  0  0  0  0  0  0  0  0  0
   48.8130   30.3690   37.9120 H   0  0  0  0  0  0  0  0  0  0  0  0
   45.3880   35.4050   43.2230 Cl  0  0  0  0  0  0  0  0  0  0  0  0
   45.1900   34.6230   41.6810 C   0  0  0  0  0  0  0  0  0  0  0  0
   46.2530   34.1990   40.9700 C   0  0  0  0  0  0  0  0  0  0  0  0
   45.9820   33.5870   39.7510 C   0  0  0  0  0  0  0  0  0  0  0  0
   44.7020   33.4170   39.2840 C   0  0  0  0  0  0  0  0  0  0  0  0
   43.6480   33.8520   40.0200 C   0  0  0  0  0  0  0  0  0  0  0  0
   43.9020   34.4580   41.2280 C   0  0  0  0  0  0  0  0  0  0  0  0
   44.4890   32.9380   38.3270 H   0  0  0  0  0  0  0  0  0  0  0  0
   42.6280   33.7350   39.6870 H   0  0  0  0  0  0  0  0  0  0  0  0
   43.0400   34.8020   41.8080 H   0  0  0  0  0  0  0  0  0  0  0  0
   49.5670   35.7440   41.9040 C   0  0  0  0  0  0  0  0  0  0  0  0
   48.2810   35.5770   41.3830 C   0  0  0  0  0  0  0  0  0  0  0  0
   47.5810   34.3870   41.4990 C   0  0  0  0  0  0  0  0  0  0  0  0
   48.2380   33.3970   42.1580 N   0  0  0  0  0  0  0  0  0  0  0  0
   49.4740   33.5580   42.6580 C   0  0  0  0  0  0  0  0  0  0  0  0
   50.1290   34.7190   42.5320 N   0  0  0  0  0  0  0  0  0  0  0  0
   50.0380   36.7120   41.7650 H   0  0  0  0  0  0  0  0  0  0  0  0
   47.7910   36.3910   40.8650 H   0  0  0  0  0  0  0  0  0  0  0  0
   49.9970   32.7650   43.1830 H   0  0  0  0  0  0  0  0  0  0  0  0
   46.5800   30.5660   39.5990 S   0  0  0  0  0  0  0  0  0  0  0  0
   45.0820   30.7060   39.4390 O   0  0  0  0  0  0  0  0  0  0  0  0
   46.9180   29.2870   38.7780 O   0  0  0  0  0  0  0  0  0  0  0  0
   47.9890   31.5190   41.7860 H   0  0  0  0  0  0  0  0  0  0  0  0
   47.9100   30.5100   41.9440 N   0  0  0  0  0  0  0  0  0  0  0  0
   46.7420   30.0050   41.1820 C   0  0  1  0  0  3  0  0  0  0  0  0
   45.6850   30.8460   41.9920 C   0  0  0  0  0  3  0  0  0  0  0  0
   45.9600   31.9030   41.9800 H   0  0  0  0  0  0  0  0  0  0  0  0
   45.5180   30.3070   43.3040 N   0  0  0  0  0  0  0  0  0  0  0  0
   44.5790   29.8890   43.4630 H   0  0  0  0  0  0  0  0  0  0  0  0
   46.5950   29.4620   43.7330 C   0  0  0  0  0  2  0  0  0  0  0  0
   47.9080   30.0540   43.2910 C   0  0  0  0  0  2  0  0  0  0  0  0
  1  2  1  0  0  0  0
  1 30  1  0  0  0  0
  2 14  1  0  0  0  0
  3  7  1  0  0  0  0
  3  2  2  0  0  0  0
  4  3  1  0  0  0  0
  5  4  2  0  0  0  0
  5  6  1  0  0  0  0
  6  1  2  0  0  0  0
  8  4  1  0  0  0  0
  9  5  1  0  0  0  0
 10  6  1  0  0  0  0
 12 11  1  0  0  0  0
 13 23  1  0  0  0  0
 13 12  2  0  0  0  0
 14 13  1  0  0  0  0
 15 14  2  0  0  0  0
 15 16  1  0  0  0  0
 16 17  2  0  0  0  0
 17 12  1  0  0  0  0
 17 20  1  0  0  0  0
 18 15  1  0  0  0  0
 19 16  1  0  0  0  0
 21 26  1  0  0  0  0
 22 23  1  0  0  0  0
 22 21  2  0  0  0  0
 23 24  2  0  0  0  0
 24 25  1  0  0  0  0
 25 29  1  0  0  0  0
 26 25  2  0  0  0  0
 27 21  1  0  0  0  0
 28 22  1  0  0  0  0
 31 30  2  0  0  0  0
 32 30  2  0  0  0  0
 33 34  1  0  0  0  0
 34 41  1  0  0  0  0
 35 30  1  6  0  0  0
 35 34  1  0  0  0  0
 35 36  1  0  0  0  0
 36 38  1  0  0  0  0
 37 36  1  0  0  0  0
 38 39  1  0  0  0  0
 38 40  1  0  0  0  0
 41 40  1  0  0  0  0
M  END
>  <minimizedAffinity>
-4.63799715

>  <minimizedRMSD>
1.46151447

$$$$
