
 OpenBabel03252508273D

 25 27  0  0  1  0  0  0  0  0999 V2000
   38.2190   28.1130   41.9160 C   0  0  0  0  0  0  0  0  0  0  0  0
   37.1860   28.8170   42.5250 C   0  0  0  0  0  0  0  0  0  0  0  0
   36.9350   29.9720   41.7890 C   0  0  0  0  0  0  0  0  0  0  0  0
   37.8050   29.9410   40.7700 N   0  0  0  0  0  0  0  0  0  0  0  0
   38.5510   28.8580   40.8470 N   0  0  0  0  0  0  0  0  0  0  0  0
   36.6880   28.4690   43.4370 H   0  0  0  0  0  0  0  0  0  0  0  0
   36.1550   30.6430   42.1240 H   0  0  0  0  0  0  0  0  0  0  0  0
   40.2570   25.4800   43.6780 C   0  0  0  0  0  0  0  0  0  0  0  0
   39.8090   26.7840   43.3060 C   0  0  0  0  0  0  0  0  0  0  0  0
   38.7750   26.8470   42.3860 C   0  0  0  0  0  0  0  0  0  0  0  0
   38.2460   25.6940   41.8930 N   0  0  0  0  0  0  0  0  0  0  0  0
   38.6960   24.4730   42.2690 C   0  0  0  0  0  0  0  0  0  0  0  0
   39.6900   24.3920   43.1520 N   0  0  0  0  0  0  0  0  0  0  0  0
   41.0700   25.4480   44.4000 H   0  0  0  0  0  0  0  0  0  0  0  0
   40.2380   27.6950   43.7050 H   0  0  0  0  0  0  0  0  0  0  0  0
   38.2200   23.6080   41.8270 H   0  0  0  0  0  0  0  0  0  0  0  0
   39.8510   30.7230   39.5620 H   0  0  0  0  0  0  0  0  0  0  0  0
   39.1930   31.5010   39.6700 N   0  0  0  0  0  0  0  0  0  0  0  0
   37.8380   31.0000   39.7790 C   0  0  2  0  0  3  0  0  0  0  0  0
   36.8640   32.0590   40.2120 C   0  0  0  0  0  3  0  0  0  0  0  0
   36.4600   31.8600   41.2370 H   0  0  0  0  0  0  0  0  0  0  0  0
   37.3970   33.3920   40.2570 N   0  0  0  0  0  0  0  0  0  0  0  0
   37.1680   34.0050   39.4740 H   0  0  0  0  0  0  0  0  0  0  0  0
   38.7150   33.5170   40.7960 C   0  0  0  0  0  2  0  0  0  0  0  0
   39.4450   32.2010   40.9380 C   0  0  0  0  0  2  0  0  0  0  0  0
  1 10  1  0  0  0  0
  1  2  1  0  0  0  0
  2  6  1  0  0  0  0
  3  7  1  0  0  0  0
  3  2  2  0  0  0  0
  4  5  1  0  0  0  0
  4  3  1  0  0  0  0
  5  1  2  0  0  0  0
  8 14  1  0  0  0  0
  9  8  1  0  0  0  0
  9 15  1  0  0  0  0
 10  9  2  0  0  0  0
 11 12  2  0  0  0  0
 11 10  1  0  0  0  0
 12 13  1  0  0  0  0
 13  8  2  0  0  0  0
 16 12  1  0  0  0  0
 17 18  1  0  0  0  0
 18 19  1  0  0  0  0
 18 25  1  0  0  0  0
 19 20  1  0  0  0  0
 19  4  1  1  0  0  0
 20 22  1  0  0  0  0
 20 21  1  0  0  0  0
 22 24  1  0  0  0  0
 23 22  1  0  0  0  0
 24 25  1  0  0  0  0
M  END
>  <minimizedAffinity>
-4.8602457

$$$$

 OpenBabel03252508273D

 25 27  0  0  1  0  0  0  0  0999 V2000
   38.6010   31.6990   39.7690 C   0  0  0  0  0  0  0  0  0  0  0  0
   37.3490   32.2480   40.0170 C   0  0  0  0  0  0  0  0  0  0  0  0
   36.5770   31.3150   40.7050 C   0  0  0  0  0  0  0  0  0  0  0  0
   37.3660   30.2420   40.8550 N   0  0  0  0  0  0  0  0  0  0  0  0
   38.5430   30.4680   40.3090 N   0  0  0  0  0  0  0  0  0  0  0  0
   37.0710   33.2590   39.6980 H   0  0  0  0  0  0  0  0  0  0  0  0
   35.5650   31.5800   40.9810 H   0  0  0  0  0  0  0  0  0  0  0  0
   41.2690   32.6510   37.2870 C   0  0  0  0  0  0  0  0  0  0  0  0
   40.1960   31.9050   37.8620 C   0  0  0  0  0  0  0  0  0  0  0  0
   39.6970   32.3640   39.0690 C   0  0  0  0  0  0  0  0  0  0  0  0
   40.2370   33.4770   39.6380 N   0  0  0  0  0  0  0  0  0  0  0  0
   41.2540   34.1610   39.0630 C   0  0  0  0  0  0  0  0  0  0  0  0
   41.7490   33.7350   37.9020 N   0  0  0  0  0  0  0  0  0  0  0  0
   41.6500   32.2780   36.3400 H   0  0  0  0  0  0  0  0  0  0  0  0
   39.7750   31.0210   37.4000 H   0  0  0  0  0  0  0  0  0  0  0  0
   41.6240   35.0340   39.5840 H   0  0  0  0  0  0  0  0  0  0  0  0
   36.5690   30.1580   43.2250 H   0  0  0  0  0  0  0  0  0  0  0  0
   36.9890   29.2590   42.9670 N   0  0  0  0  0  0  0  0  0  0  0  0
   36.8920   29.0520   41.5370 C   0  0  2  0  0  3  0  0  0  0  0  0
   37.7240   27.8940   41.0630 C   0  0  0  0  0  3  0  0  0  0  0  0
   38.5820   28.2300   40.4260 H   0  0  0  0  0  0  0  0  0  0  0  0
   38.3050   27.0970   42.1070 N   0  0  0  0  0  0  0  0  0  0  0  0
   37.8410   26.2140   42.3230 H   0  0  0  0  0  0  0  0  0  0  0  0
   38.8410   27.8210   43.2170 C   0  0  0  0  0  2  0  0  0  0  0  0
   38.4300   29.2760   43.2540 C   0  0  0  0  0  2  0  0  0  0  0  0
  1  2  1  0  0  0  0
  1  5  2  0  0  0  0
  2  3  2  0  0  0  0
  3  4  1  0  0  0  0
  3  7  1  0  0  0  0
  5  4  1  0  0  0  0
  6  2  1  0  0  0  0
  8  9  2  0  0  0  0
  8 13  1  0  0  0  0
  9 10  1  0  0  0  0
 10 11  2  0  0  0  0
 10  1  1  0  0  0  0
 12 16  1  0  0  0  0
 12 11  1  0  0  0  0
 13 12  2  0  0  0  0
 14  8  1  0  0  0  0
 15  9  1  0  0  0  0
 18 17  1  0  0  0  0
 18 25  1  0  0  0  0
 19  4  1  6  0  0  0
 19 18  1  0  0  0  0
 20 19  1  0  0  0  0
 20 22  1  0  0  0  0
 21 20  1  0  0  0  0
 22 23  1  0  0  0  0
 22 24  1  0  0  0  0
 24 25  1  0  0  0  0
M  END
>  <minimizedAffinity>
-4.80648613

$$$$

 OpenBabel03252508273D

 25 27  0  0  1  0  0  0  0  0999 V2000
   37.8470   29.4520   41.5970 C   0  0  0  0  0  0  0  0  0  0  0  0
   36.5270   29.7530   41.2850 C   0  0  0  0  0  0  0  0  0  0  0  0
   36.4700   31.0490   40.7790 C   0  0  0  0  0  0  0  0  0  0  0  0
   37.7340   31.4940   40.7960 N   0  0  0  0  0  0  0  0  0  0  0  0
   38.5330   30.5630   41.2730 N   0  0  0  0  0  0  0  0  0  0  0  0
   35.7060   29.0440   41.4360 H   0  0  0  0  0  0  0  0  0  0  0  0
   35.5090   31.4500   40.4820 H   0  0  0  0  0  0  0  0  0  0  0  0
   39.5840   26.8250   43.6640 C   0  0  0  0  0  0  0  0  0  0  0  0
   39.2030   28.1270   43.2200 C   0  0  0  0  0  0  0  0  0  0  0  0
   38.3200   28.1870   42.1540 C   0  0  0  0  0  0  0  0  0  0  0  0
   37.8670   27.0320   41.5950 N   0  0  0  0  0  0  0  0  0  0  0  0
   38.2490   25.8130   42.0430 C   0  0  0  0  0  0  0  0  0  0  0  0
   39.0980   25.7350   43.0660 N   0  0  0  0  0  0  0  0  0  0  0  0
   40.2770   26.7950   44.5010 H   0  0  0  0  0  0  0  0  0  0  0  0
   39.5710   29.0390   43.6730 H   0  0  0  0  0  0  0  0  0  0  0  0
   37.8410   24.9470   41.5390 H   0  0  0  0  0  0  0  0  0  0  0  0
   37.1450   32.4310   38.5520 H   0  0  0  0  0  0  0  0  0  0  0  0
   38.0190   32.8500   38.8860 N   0  0  0  0  0  0  0  0  0  0  0  0
   38.0660   32.8280   40.3330 C   0  0  2  0  0  3  0  0  0  0  0  0
   39.4260   33.1720   40.8720 C   0  0  0  0  0  3  0  0  0  0  0  0
   39.9130   32.2930   41.3670 H   0  0  0  0  0  0  0  0  0  0  0  0
   40.3680   33.6350   39.8910 N   0  0  0  0  0  0  0  0  0  0  0  0
   40.5240   34.6430   39.8450 H   0  0  0  0  0  0  0  0  0  0  0  0
   40.3630   32.9350   38.6450 C   0  0  0  0  0  2  0  0  0  0  0  0
   39.1640   32.0350   38.4540 C   0  0  0  0  0  2  0  0  0  0  0  0
  1 10  1  0  0  0  0
  2  6  1  0  0  0  0
  2  1  1  0  0  0  0
  3  4  1  0  0  0  0
  3  2  2  0  0  0  0
  4  5  1  0  0  0  0
  5  1  2  0  0  0  0
  7  3  1  0  0  0  0
  8 14  1  0  0  0  0
  9  8  1  0  0  0  0
  9 15  1  0  0  0  0
 10  9  2  0  0  0  0
 11 12  2  0  0  0  0
 11 10  1  0  0  0  0
 12 13  1  0  0  0  0
 13  8  2  0  0  0  0
 16 12  1  0  0  0  0
 17 18  1  0  0  0  0
 18 19  1  0  0  0  0
 19  4  1  6  0  0  0
 19 20  1  0  0  0  0
 20 21  1  0  0  0  0
 22 20  1  0  0  0  0
 23 22  1  0  0  0  0
 24 22  1  0  0  0  0
 25 24  1  0  0  0  0
 25 18  1  0  0  0  0
M  END
>  <minimizedAffinity>
-4.59477043

$$$$

 OpenBabel03252508273D

 25 27  0  0  1  0  0  0  0  0999 V2000
   39.2210   31.0540   40.4950 C   0  0  0  0  0  0  0  0  0  0  0  0
   39.8240   32.2290   40.9280 C   0  0  0  0  0  0  0  0  0  0  0  0
   40.4410   32.8440   39.8420 C   0  0  0  0  0  0  0  0  0  0  0  0
   40.2010   32.0430   38.7950 N   0  0  0  0  0  0  0  0  0  0  0  0
   39.4910   31.0010   39.1780 N   0  0  0  0  0  0  0  0  0  0  0  0
   39.7870   32.5640   41.9700 H   0  0  0  0  0  0  0  0  0  0  0  0
   40.9640   33.7780   40.0010 H   0  0  0  0  0  0  0  0  0  0  0  0
   38.0160   28.9140   43.3510 C   0  0  0  0  0  0  0  0  0  0  0  0
   38.8370   29.8440   42.6420 C   0  0  0  0  0  0  0  0  0  0  0  0
   38.4720   30.1240   41.3360 C   0  0  0  0  0  0  0  0  0  0  0  0
   37.3770   29.5180   40.8020 N   0  0  0  0  0  0  0  0  0  0  0  0
   36.6210   28.6420   41.5040 C   0  0  0  0  0  0  0  0  0  0  0  0
   36.9550   28.3590   42.7620 N   0  0  0  0  0  0  0  0  0  0  0  0
   38.3160   28.7050   44.3750 H   0  0  0  0  0  0  0  0  0  0  0  0
   39.7060   30.3190   43.0780 H   0  0  0  0  0  0  0  0  0  0  0  0
   35.7670   28.2050   41.0020 H   0  0  0  0  0  0  0  0  0  0  0  0
   40.5450   30.4000   36.9390 H   0  0  0  0  0  0  0  0  0  0  0  0
   41.2220   31.1660   36.8570 N   0  0  0  0  0  0  0  0  0  0  0  0
   40.6980   32.3680   37.4720 C   0  0  2  0  0  3  0  0  0  0  0  0
   41.7410   33.4380   37.6270 C   0  0  0  0  0  3  0  0  0  0  0  0
   41.9880   33.6270   38.7030 H   0  0  0  0  0  0  0  0  0  0  0  0
   42.9950   33.1610   36.9840 N   0  0  0  0  0  0  0  0  0  0  0  0
   43.1650   33.6240   36.0910 H   0  0  0  0  0  0  0  0  0  0  0  0
   43.4740   31.8200   37.1060 C   0  0  0  0  0  2  0  0  0  0  0  0
   42.4380   30.8460   37.6190 C   0  0  0  0  0  2  0  0  0  0  0  0
  1  2  1  0  0  0  0
  1 10  1  0  0  0  0
  2  6  1  0  0  0  0
  3  7  1  0  0  0  0
  3  2  2  0  0  0  0
  4  5  1  0  0  0  0
  4  3  1  0  0  0  0
  5  1  2  0  0  0  0
  8 14  1  0  0  0  0
  9 15  1  0  0  0  0
  9  8  2  0  0  0  0
 10  9  1  0  0  0  0
 11 10  2  0  0  0  0
 11 12  1  0  0  0  0
 12 13  2  0  0  0  0
 13  8  1  0  0  0  0
 16 12  1  0  0  0  0
 18 17  1  0  0  0  0
 18 19  1  0  0  0  0
 18 25  1  0  0  0  0
 19 20  1  0  0  0  0
 19  4  1  1  0  0  0
 20 21  1  0  0  0  0
 22 24  1  0  0  0  0
 22 20  1  0  0  0  0
 23 22  1  0  0  0  0
 24 25  1  0  0  0  0
M  END
>  <minimizedAffinity>
-4.52495432

$$$$

 OpenBabel03252508273D

 25 27  0  0  1  0  0  0  0  0999 V2000
   37.6720   26.4250   41.4930 C   0  0  0  0  0  0  0  0  0  0  0  0
   36.9550   26.5080   42.6800 C   0  0  0  0  0  0  0  0  0  0  0  0
   36.7290   27.8510   42.9750 C   0  0  0  0  0  0  0  0  0  0  0  0
   37.3040   28.5360   41.9770 N   0  0  0  0  0  0  0  0  0  0  0  0
   37.8530   27.7040   41.1160 N   0  0  0  0  0  0  0  0  0  0  0  0
   36.6450   25.6250   43.2490 H   0  0  0  0  0  0  0  0  0  0  0  0
   36.1790   28.1000   43.8730 H   0  0  0  0  0  0  0  0  0  0  0  0
   39.5070   23.8620   39.4300 C   0  0  0  0  0  0  0  0  0  0  0  0
   39.1930   25.1370   39.9920 C   0  0  0  0  0  0  0  0  0  0  0  0
   38.1060   25.1880   40.8480 C   0  0  0  0  0  0  0  0  0  0  0  0
   37.4050   24.0510   41.1100 N   0  0  0  0  0  0  0  0  0  0  0  0
   37.7320   22.8580   40.5590 C   0  0  0  0  0  0  0  0  0  0  0  0
   38.7740   22.7880   39.7320 N   0  0  0  0  0  0  0  0  0  0  0  0
   40.3620   23.8390   38.7590 H   0  0  0  0  0  0  0  0  0  0  0  0
   39.7580   26.0350   39.7760 H   0  0  0  0  0  0  0  0  0  0  0  0
   37.1200   22.0040   40.8210 H   0  0  0  0  0  0  0  0  0  0  0  0
   35.2320   29.9330   42.0790 H   0  0  0  0  0  0  0  0  0  0  0  0
   35.9510   30.4170   41.5320 N   0  0  0  0  0  0  0  0  0  0  0  0
   37.2700   29.9860   41.9460 C   0  0  2  0  0  3  0  0  0  0  0  0
   38.3490   30.4470   41.0070 C   0  0  0  0  0  3  0  0  0  0  0  0
   38.8160   29.5900   40.4560 H   0  0  0  0  0  0  0  0  0  0  0  0
   37.9180   31.3700   39.9940 N   0  0  0  0  0  0  0  0  0  0  0  0
   38.1300   32.3560   40.1520 H   0  0  0  0  0  0  0  0  0  0  0  0
   36.6590   31.0800   39.3830 C   0  0  0  0  0  2  0  0  0  0  0  0
   35.8500   30.0350   40.1170 C   0  0  0  0  0  2  0  0  0  0  0  0
  1  2  1  0  0  0  0
  2  3  2  0  0  0  0
  2  6  1  0  0  0  0
  3  7  1  0  0  0  0
  4  3  1  0  0  0  0
  5  1  2  0  0  0  0
  5  4  1  0  0  0  0
  8 13  2  0  0  0  0
  8  9  1  0  0  0  0
  9 10  2  0  0  0  0
 10 11  1  0  0  0  0
 10  1  1  0  0  0  0
 12 16  1  0  0  0  0
 12 11  2  0  0  0  0
 13 12  1  0  0  0  0
 14  8  1  0  0  0  0
 15  9  1  0  0  0  0
 18 19  1  0  0  0  0
 18 17  1  0  0  0  0
 19  4  1  6  0  0  0
 20 19  1  0  0  0  0
 21 20  1  0  0  0  0
 22 23  1  0  0  0  0
 22 20  1  0  0  0  0
 24 22  1  0  0  0  0
 24 25  1  0  0  0  0
 25 18  1  0  0  0  0
M  END
>  <minimizedAffinity>
-4.51835346

$$$$

 OpenBabel03252508273D

 25 27  0  0  1  0  0  0  0  0999 V2000
   37.4260   29.9850   41.0350 C   0  0  0  0  0  0  0  0  0  0  0  0
   36.5350   29.1400   40.3850 C   0  0  0  0  0  0  0  0  0  0  0  0
   36.5280   27.9080   41.0350 C   0  0  0  0  0  0  0  0  0  0  0  0
   37.4000   28.0340   42.0450 N   0  0  0  0  0  0  0  0  0  0  0  0
   37.9220   29.2430   42.0420 N   0  0  0  0  0  0  0  0  0  0  0  0
   35.9570   29.4490   39.5070 H   0  0  0  0  0  0  0  0  0  0  0  0
   35.8840   27.1250   40.6590 H   0  0  0  0  0  0  0  0  0  0  0  0
   37.3250   33.4170   39.4870 C   0  0  0  0  0  0  0  0  0  0  0  0
   36.9250   32.0760   39.7700 C   0  0  0  0  0  0  0  0  0  0  0  0
   37.7180   31.3650   40.6550 C   0  0  0  0  0  0  0  0  0  0  0  0
   38.8120   31.9610   41.2020 N   0  0  0  0  0  0  0  0  0  0  0  0
   39.1610   33.2360   40.9110 C   0  0  0  0  0  0  0  0  0  0  0  0
   38.4120   33.9370   40.0610 N   0  0  0  0  0  0  0  0  0  0  0  0
   36.6930   33.9620   38.7900 H   0  0  0  0  0  0  0  0  0  0  0  0
   36.0520   31.6120   39.3280 H   0  0  0  0  0  0  0  0  0  0  0  0
   40.0470   33.6320   41.3900 H   0  0  0  0  0  0  0  0  0  0  0  0
   39.4540   27.7780   43.4510 H   0  0  0  0  0  0  0  0  0  0  0  0
   39.0850   26.8540   43.2020 N   0  0  0  0  0  0  0  0  0  0  0  0
   37.6600   26.9340   42.9540 C   0  0  2  0  0  3  0  0  0  0  0  0
   37.1130   25.6840   42.3240 C   0  0  0  0  0  3  0  0  0  0  0  0
   36.7750   25.8610   41.2710 H   0  0  0  0  0  0  0  0  0  0  0  0
   38.0370   24.5860   42.2530 N   0  0  0  0  0  0  0  0  0  0  0  0
   37.9310   23.8510   42.9540 H   0  0  0  0  0  0  0  0  0  0  0  0
   39.3760   24.9220   41.8830 C   0  0  0  0  0  2  0  0  0  0  0  0
   39.6700   26.4040   41.9310 C   0  0  0  0  0  2  0  0  0  0  0  0
  1  5  2  0  0  0  0
  2  3  2  0  0  0  0
  2  1  1  0  0  0  0
  3  4  1  0  0  0  0
  5  4  1  0  0  0  0
  6  2  1  0  0  0  0
  7  3  1  0  0  0  0
  8  9  2  0  0  0  0
  8 13  1  0  0  0  0
  9 10  1  0  0  0  0
 10  1  1  0  0  0  0
 10 11  2  0  0  0  0
 12 11  1  0  0  0  0
 12 16  1  0  0  0  0
 13 12  2  0  0  0  0
 14  8  1  0  0  0  0
 15  9  1  0  0  0  0
 18 17  1  0  0  0  0
 19  4  1  6  0  0  0
 19 18  1  0  0  0  0
 20 19  1  0  0  0  0
 21 20  1  0  0  0  0
 22 20  1  0  0  0  0
 22 23  1  0  0  0  0
 24 25  1  0  0  0  0
 24 22  1  0  0  0  0
 25 18  1  0  0  0  0
M  END
>  <minimizedAffinity>
-4.48993778

$$$$

 OpenBabel03252508273D

 25 27  0  0  1  0  0  0  0  0999 V2000
   37.6610   28.7570   41.0810 C   0  0  0  0  0  0  0  0  0  0  0  0
   36.5790   29.5530   41.4350 C   0  0  0  0  0  0  0  0  0  0  0  0
   36.6670   30.7620   40.7500 C   0  0  0  0  0  0  0  0  0  0  0  0
   37.7800   30.6710   40.0090 N   0  0  0  0  0  0  0  0  0  0  0  0
   38.3570   29.5040   40.2040 N   0  0  0  0  0  0  0  0  0  0  0  0
   35.8110   29.2280   42.1460 H   0  0  0  0  0  0  0  0  0  0  0  0
   35.8980   31.5070   40.9080 H   0  0  0  0  0  0  0  0  0  0  0  0
   37.3640   25.1450   42.1080 C   0  0  0  0  0  0  0  0  0  0  0  0
   36.9690   26.4130   41.5830 C   0  0  0  0  0  0  0  0  0  0  0  0
   37.9280   27.4130   41.5860 C   0  0  0  0  0  0  0  0  0  0  0  0
   39.1700   27.1480   42.0740 N   0  0  0  0  0  0  0  0  0  0  0  0
   39.5110   25.9320   42.5630 C   0  0  0  0  0  0  0  0  0  0  0  0
   38.6020   24.9580   42.5700 N   0  0  0  0  0  0  0  0  0  0  0  0
   36.6000   24.3720   42.0990 H   0  0  0  0  0  0  0  0  0  0  0  0
   35.9770   26.6130   41.1980 H   0  0  0  0  0  0  0  0  0  0  0  0
   40.5200   25.8080   42.9320 H   0  0  0  0  0  0  0  0  0  0  0  0
   40.1530   31.3350   39.5770 H   0  0  0  0  0  0  0  0  0  0  0  0
   39.5450   32.1580   39.5150 N   0  0  0  0  0  0  0  0  0  0  0  0
   38.2010   31.7620   39.1500 C   0  0  2  0  0  3  0  0  0  0  0  0
   37.2070   32.8770   39.3100 C   0  0  0  0  0  3  0  0  0  0  0  0
   36.4790   32.6720   40.1360 H   0  0  0  0  0  0  0  0  0  0  0  0
   37.7790   34.1610   39.6080 N   0  0  0  0  0  0  0  0  0  0  0  0
   37.8560   34.8200   38.8320 H   0  0  0  0  0  0  0  0  0  0  0  0
   38.8530   34.1600   40.5500 C   0  0  0  0  0  2  0  0  0  0  0  0
   39.4130   32.7860   40.8380 C   0  0  0  0  0  2  0  0  0  0  0  0
  1  2  1  0  0  0  0
  1 10  1  0  0  0  0
  2  6  1  0  0  0  0
  3  7  1  0  0  0  0
  3  2  2  0  0  0  0
  4  5  1  0  0  0  0
  4  3  1  0  0  0  0
  5  1  2  0  0  0  0
  8 13  1  0  0  0  0
  9 10  1  0  0  0  0
  9  8  2  0  0  0  0
 10 11  2  0  0  0  0
 11 12  1  0  0  0  0
 12 13  2  0  0  0  0
 12 16  1  0  0  0  0
 14  8  1  0  0  0  0
 15  9  1  0  0  0  0
 18 17  1  0  0  0  0
 18 25  1  0  0  0  0
 19 20  1  0  0  0  0
 19 18  1  0  0  0  0
 19  4  1  1  0  0  0
 20 22  1  0  0  0  0
 20 21  1  0  0  0  0
 22 24  1  0  0  0  0
 23 22  1  0  0  0  0
 24 25  1  0  0  0  0
M  END
>  <minimizedAffinity>
-4.48218393

$$$$

 OpenBabel03252508273D

 25 27  0  0  1  0  0  0  0  0999 V2000
   37.1120   28.1200   41.3020 C   0  0  0  0  0  0  0  0  0  0  0  0
   37.4540   28.0690   42.6480 C   0  0  0  0  0  0  0  0  0  0  0  0
   37.4270   26.7420   43.0690 C   0  0  0  0  0  0  0  0  0  0  0  0
   37.0760   26.0330   41.9870 N   0  0  0  0  0  0  0  0  0  0  0  0
   36.8930   26.8370   40.9610 N   0  0  0  0  0  0  0  0  0  0  0  0
   37.6960   28.9640   43.2320 H   0  0  0  0  0  0  0  0  0  0  0  0
   37.6700   26.5180   44.0990 H   0  0  0  0  0  0  0  0  0  0  0  0
   36.8960   31.6980   40.1450 C   0  0  0  0  0  0  0  0  0  0  0  0
   36.9780   30.5990   41.0530 C   0  0  0  0  0  0  0  0  0  0  0  0
   37.0270   29.3330   40.4930 C   0  0  0  0  0  0  0  0  0  0  0  0
   36.9960   29.1980   39.1390 N   0  0  0  0  0  0  0  0  0  0  0  0
   36.9180   30.2640   38.3080 C   0  0  0  0  0  0  0  0  0  0  0  0
   36.8700   31.4900   38.8270 N   0  0  0  0  0  0  0  0  0  0  0  0
   36.8580   32.6850   40.6000 H   0  0  0  0  0  0  0  0  0  0  0  0
   37.0020   30.7190   42.1290 H   0  0  0  0  0  0  0  0  0  0  0  0
   36.8980   30.0660   37.2440 H   0  0  0  0  0  0  0  0  0  0  0  0
   38.6100   24.4930   43.2260 H   0  0  0  0  0  0  0  0  0  0  0  0
   38.2230   24.0140   42.4070 N   0  0  0  0  0  0  0  0  0  0  0  0
   36.9440   24.5900   42.0470 C   0  0  2  0  0  3  0  0  0  0  0  0
   36.4570   24.1210   40.7050 C   0  0  0  0  0  3  0  0  0  0  0  0
   36.4490   24.9500   39.9510 H   0  0  0  0  0  0  0  0  0  0  0  0
   37.2310   23.0660   40.1130 N   0  0  0  0  0  0  0  0  0  0  0  0
   36.8510   22.1220   40.1830 H   0  0  0  0  0  0  0  0  0  0  0  0
   38.6500   23.1900   40.2390 C   0  0  0  0  0  2  0  0  0  0  0  0
   39.0850   24.2380   41.2380 C   0  0  0  0  0  2  0  0  0  0  0  0
  1  2  1  0  0  0  0
  2  3  2  0  0  0  0
  2  6  1  0  0  0  0
  3  7  1  0  0  0  0
  4  3  1  0  0  0  0
  5  1  2  0  0  0  0
  5  4  1  0  0  0  0
  8 14  1  0  0  0  0
  8  9  1  0  0  0  0
  9 15  1  0  0  0  0
 10  9  2  0  0  0  0
 10  1  1  0  0  0  0
 11 10  1  0  0  0  0
 12 13  1  0  0  0  0
 12 11  2  0  0  0  0
 13  8  2  0  0  0  0
 16 12  1  0  0  0  0
 18 17  1  0  0  0  0
 19  4  1  6  0  0  0
 19 18  1  0  0  0  0
 20 19  1  0  0  0  0
 21 20  1  0  0  0  0
 22 23  1  0  0  0  0
 22 24  1  0  0  0  0
 22 20  1  0  0  0  0
 24 25  1  0  0  0  0
 25 18  1  0  0  0  0
M  END
>  <minimizedAffinity>
-4.47232294

$$$$

 OpenBabel03252508273D

 25 27  0  0  1  0  0  0  0  0999 V2000
   38.4740   28.3490   41.9150 C   0  0  0  0  0  0  0  0  0  0  0  0
   39.2070   29.4830   42.2450 C   0  0  0  0  0  0  0  0  0  0  0  0
   38.5950   30.5960   41.6740 C   0  0  0  0  0  0  0  0  0  0  0  0
   37.5240   30.1180   41.0240 N   0  0  0  0  0  0  0  0  0  0  0  0
   37.4570   28.8110   41.1650 N   0  0  0  0  0  0  0  0  0  0  0  0
   40.1140   29.4440   42.8590 H   0  0  0  0  0  0  0  0  0  0  0  0
   39.0370   31.5710   41.8320 H   0  0  0  0  0  0  0  0  0  0  0  0
   38.4970   24.6080   42.3520 C   0  0  0  0  0  0  0  0  0  0  0  0
   38.0780   25.8860   41.8720 C   0  0  0  0  0  0  0  0  0  0  0  0
   38.7930   26.9830   42.3230 C   0  0  0  0  0  0  0  0  0  0  0  0
   39.8340   26.7980   43.1790 N   0  0  0  0  0  0  0  0  0  0  0  0
   40.2040   25.5700   43.6130 C   0  0  0  0  0  0  0  0  0  0  0  0
   39.5290   24.5020   43.1910 N   0  0  0  0  0  0  0  0  0  0  0  0
   37.9260   23.7570   41.9890 H   0  0  0  0  0  0  0  0  0  0  0  0
   37.2480   26.0210   41.1910 H   0  0  0  0  0  0  0  0  0  0  0  0
   41.0430   25.5140   44.2940 H   0  0  0  0  0  0  0  0  0  0  0  0
   36.0120   29.4250   39.1550 H   0  0  0  0  0  0  0  0  0  0  0  0
   36.3060   30.3980   39.0230 N   0  0  0  0  0  0  0  0  0  0  0  0
   36.6320   31.0020   40.2980 C   0  0  2  0  0  3  0  0  0  0  0  0
   37.3250   32.3270   40.1490 C   0  0  0  0  0  3  0  0  0  0  0  0
   38.3900   32.2820   40.4920 H   0  0  0  0  0  0  0  0  0  0  0  0
   37.3720   32.8400   38.8080 N   0  0  0  0  0  0  0  0  0  0  0  0
   36.6980   33.5690   38.5710 H   0  0  0  0  0  0  0  0  0  0  0  0
   37.6570   31.8820   37.7850 C   0  0  0  0  0  2  0  0  0  0  0  0
   37.5530   30.4460   38.2460 C   0  0  0  0  0  2  0  0  0  0  0  0
  1  2  1  0  0  0  0
  1 10  1  0  0  0  0
  2  6  1  0  0  0  0
  3  7  1  0  0  0  0
  3  2  2  0  0  0  0
  4  5  1  0  0  0  0
  4  3  1  0  0  0  0
  5  1  2  0  0  0  0
  8 13  1  0  0  0  0
  9 10  1  0  0  0  0
  9  8  2  0  0  0  0
 10 11  2  0  0  0  0
 11 12  1  0  0  0  0
 12 16  1  0  0  0  0
 13 12  2  0  0  0  0
 14  8  1  0  0  0  0
 15  9  1  0  0  0  0
 18 17  1  0  0  0  0
 18 19  1  0  0  0  0
 19  4  1  6  0  0  0
 20 19  1  0  0  0  0
 20 21  1  0  0  0  0
 22 20  1  0  0  0  0
 23 22  1  0  0  0  0
 24 25  1  0  0  0  0
 24 22  1  0  0  0  0
 25 18  1  0  0  0  0
M  END
>  <minimizedAffinity>
-4.46651268

$$$$
