
 OpenBabel03252509073D

 41 44  0  0  1  0  0  0  0  0999 V2000
   47.7290   31.8570   38.9360 C   0  0  0  0  0  0  0  0  0  0  0  0
   47.2120   33.1160   38.8930 C   0  0  0  0  0  0  0  0  0  0  0  0
   47.8070   34.0490   38.0630 C   0  0  0  0  0  0  0  0  0  0  0  0
   48.8960   33.7100   37.2970 C   0  0  0  0  0  0  0  0  0  0  0  0
   49.4370   32.4280   37.3260 C   0  0  0  0  0  0  0  0  0  0  0  0
   48.8330   31.4990   38.1630 C   0  0  0  0  0  0  0  0  0  0  0  0
   47.4190   35.0640   38.0070 H   0  0  0  0  0  0  0  0  0  0  0  0
   49.3210   34.4750   36.6680 H   0  0  0  0  0  0  0  0  0  0  0  0
   50.2790   32.1630   36.7320 H   0  0  0  0  0  0  0  0  0  0  0  0
   49.2590   30.5100   38.1780 H   0  0  0  0  0  0  0  0  0  0  0  0
   45.3030   35.3150   43.1370 Cl  0  0  0  0  0  0  0  0  0  0  0  0
   45.1800   34.5540   41.5770 C   0  0  0  0  0  0  0  0  0  0  0  0
   46.2770   34.1650   40.8990 C   0  0  0  0  0  0  0  0  0  0  0  0
   46.0650   33.5670   39.6610 C   0  0  0  0  0  0  0  0  0  0  0  0
   44.8070   33.3770   39.1450 C   0  0  0  0  0  0  0  0  0  0  0  0
   43.7170   33.7770   39.8480 C   0  0  0  0  0  0  0  0  0  0  0  0
   43.9130   34.3690   41.0730 C   0  0  0  0  0  0  0  0  0  0  0  0
   44.6400   32.9100   38.1730 H   0  0  0  0  0  0  0  0  0  0  0  0
   42.7130   33.6430   39.4750 H   0  0  0  0  0  0  0  0  0  0  0  0
   43.0240   34.6850   41.6260 H   0  0  0  0  0  0  0  0  0  0  0  0
   49.5580   35.7370   41.9050 C   0  0  0  0  0  0  0  0  0  0  0  0
   48.2960   35.5510   41.3320 C   0  0  0  0  0  0  0  0  0  0  0  0
   47.5800   34.3740   41.4800 C   0  0  0  0  0  0  0  0  0  0  0  0
   48.1970   33.4160   42.2220 N   0  0  0  0  0  0  0  0  0  0  0  0
   49.4090   33.5960   42.7710 C   0  0  0  0  0  0  0  0  0  0  0  0
   50.0800   34.7440   42.6140 N   0  0  0  0  0  0  0  0  0  0  0  0
   50.0430   36.6930   41.7360 H   0  0  0  0  0  0  0  0  0  0  0  0
   47.8380   36.3380   40.7490 H   0  0  0  0  0  0  0  0  0  0  0  0
   49.8990   32.8300   43.3630 H   0  0  0  0  0  0  0  0  0  0  0  0
   47.0510   30.6560   39.9020 S   0  0  0  0  0  0  0  0  0  0  0  0
   45.6500   30.2780   39.4780 O   0  0  0  0  0  0  0  0  0  0  0  0
   47.8890   29.3860   39.5710 O   0  0  0  0  0  0  0  0  0  0  0  0
   44.9250   30.6890   41.6780 H   0  0  0  0  0  0  0  0  0  0  0  0
   45.7170   31.0630   42.2100 N   0  0  0  0  0  0  0  0  0  0  0  0
   46.9720   30.5790   41.5860 C   0  0  1  0  0  3  0  0  0  0  0  0
   46.6870   29.0590   41.8840 C   0  0  0  0  0  3  0  0  0  0  0  0
   45.7100   28.7770   41.4880 H   0  0  0  0  0  0  0  0  0  0  0  0
   46.8490   28.7850   43.2760 N   0  0  0  0  0  0  0  0  0  0  0  0
   47.6590   28.1680   43.4840 H   0  0  0  0  0  0  0  0  0  0  0  0
   46.7910   29.9480   44.1140 C   0  0  0  0  0  2  0  0  0  0  0  0
   45.7100   30.8730   43.6200 C   0  0  0  0  0  2  0  0  0  0  0  0
  1 30  1  0  0  0  0
  2  1  1  0  0  0  0
  2 14  1  0  0  0  0
  3  2  2  0  0  0  0
  4  5  2  0  0  0  0
  4  3  1  0  0  0  0
  5  6  1  0  0  0  0
  6 10  1  0  0  0  0
  6  1  2  0  0  0  0
  7  3  1  0  0  0  0
  8  4  1  0  0  0  0
  9  5  1  0  0  0  0
 12 11  1  0  0  0  0
 13 23  1  0  0  0  0
 13 12  2  0  0  0  0
 14 13  1  0  0  0  0
 15 14  2  0  0  0  0
 15 16  1  0  0  0  0
 16 17  2  0  0  0  0
 17 12  1  0  0  0  0
 17 20  1  0  0  0  0
 18 15  1  0  0  0  0
 19 16  1  0  0  0  0
 21 26  1  0  0  0  0
 22 23  1  0  0  0  0
 22 21  2  0  0  0  0
 23 24  2  0  0  0  0
 24 25  1  0  0  0  0
 25 29  1  0  0  0  0
 26 25  2  0  0  0  0
 27 21  1  0  0  0  0
 28 22  1  0  0  0  0
 31 30  2  0  0  0  0
 32 30  2  0  0  0  0
 33 34  1  0  0  0  0
 34 41  1  0  0  0  0
 35 30  1  6  0  0  0
 35 36  1  0  0  0  0
 35 34  1  0  0  0  0
 36 38  1  0  0  0  0
 37 36  1  0  0  0  0
 38 39  1  0  0  0  0
 38 40  1  0  0  0  0
 41 40  1  0  0  0  0
M  END
>  <minimizedAffinity>
-4.65085506

>  <minimizedRMSD>
1.2287271

$$$$
