
 OpenBabel03242512503D

 44 48  0  0  1  0  0  0  0  0999 V2000
   47.5050   34.2070   43.0930 N   0  0  0  0  0  0  0  0  0  0  0  0
   48.8680   33.7170   42.8550 C   0  0  0  0  0  0  0  0  0  0  0  0
   49.4320   34.9830   42.2450 C   0  0  0  0  0  0  0  0  0  0  0  0
   48.4020   35.2610   41.1780 C   0  0  0  0  0  0  0  0  0  0  0  0
   47.0930   34.9400   41.8670 C   0  0  1  0  0  0  0  0  0  0  0  0
   48.8090   32.8930   42.1280 H   0  0  0  0  0  0  0  0  0  0  0  0
   49.3590   33.4610   43.7970 H   0  0  0  0  0  0  0  0  0  0  0  0
   49.4350   35.7510   43.0390 H   0  0  0  0  0  0  0  0  0  0  0  0
   50.4230   34.7680   41.8170 H   0  0  0  0  0  0  0  0  0  0  0  0
   48.4790   36.3170   40.8660 H   0  0  0  0  0  0  0  0  0  0  0  0
   48.5960   34.5550   40.3350 H   0  0  0  0  0  0  0  0  0  0  0  0
   46.7010   35.8370   42.2560 H   0  0  0  0  0  0  0  0  0  0  0  0
   44.8680   34.7340   45.6570 C   0  0  0  0  0  0  0  0  0  0  0  0
   45.6430   34.9620   44.5290 C   0  0  0  0  0  0  0  0  0  0  0  0
   46.6620   34.0770   44.2110 C   0  0  0  0  0  0  0  0  0  0  0  0
   46.8620   33.0120   45.0300 N   0  0  0  0  0  0  0  0  0  0  0  0
   46.1000   32.7920   46.1360 C   0  0  0  0  0  0  0  0  0  0  0  0
   45.1060   33.6570   46.4420 N   0  0  0  0  0  0  0  0  0  0  0  0
   44.0590   35.4080   45.9340 H   0  0  0  0  0  0  0  0  0  0  0  0
   45.4400   35.8200   43.9570 H   0  0  0  0  0  0  0  0  0  0  0  0
   46.3450   31.6630   46.9670 N   0  0  0  0  0  0  0  0  0  0  0  0
   45.2530   30.8510   47.4410 C   0  0  0  0  0  0  0  0  0  0  0  0
   44.2770   31.2730   47.1940 H   0  0  0  0  0  0  0  0  0  0  0  0
   45.4840   30.6280   48.9200 C   0  0  0  0  0  0  0  0  0  0  0  0
   45.7260   29.5880   49.1850 H   0  0  0  0  0  0  0  0  0  0  0  0
   46.5120   31.4810   49.4720 N   0  0  0  0  0  0  0  0  0  0  0  0
   46.2120   32.4630   49.5830 H   0  0  0  0  0  0  0  0  0  0  0  0
   47.7930   31.3600   48.8480 C   0  0  0  0  0  0  0  0  0  0  0  0
   47.7080   31.3330   47.3350 C   0  0  0  0  0  0  0  0  0  0  0  0
   46.2630   34.0080   41.1290 C   0  0  0  0  0  0  0  0  0  0  0  0
   46.7810   32.8810   40.5850 N   0  0  0  0  0  0  0  0  0  0  0  0
   46.0750   31.9700   39.8810 C   0  0  0  0  0  0  0  0  0  0  0  0
   44.7640   32.1860   39.7010 N   0  0  0  0  0  0  0  0  0  0  0  0
   44.2050   33.2750   40.2120 C   0  0  0  0  0  0  0  0  0  0  0  0
   42.8440   33.4430   39.9950 C   0  0  0  0  0  0  0  0  0  0  0  0
   42.2650   34.5840   40.5350 C   0  0  0  0  0  0  0  0  0  0  0  0
   42.9370   35.5590   41.2660 C   0  0  0  0  0  0  0  0  0  0  0  0
   44.2850   35.3070   41.4310 C   0  0  0  0  0  0  0  0  0  0  0  0
   44.9220   34.2230   40.9400 C   0  0  0  0  0  0  0  0  0  0  0  0
   46.5790   31.0880   39.4780 H   0  0  0  0  0  0  0  0  0  0  0  0
   42.2420   32.7370   39.4390 H   0  0  0  0  0  0  0  0  0  0  0  0
   41.1930   34.6930   40.3510 H   0  0  0  0  0  0  0  0  0  0  0  0
   42.4000   36.4030   41.6390 H   0  0  0  0  0  0  0  0  0  0  0  0
   44.7800   36.0890   41.9800 H   0  0  0  0  0  0  0  0  0  0  0  0
  1 15  1  0  0  0  0
  2  1  1  0  0  0  0
  2  7  1  0  0  0  0
  3  2  1  0  0  0  0
  3  8  1  0  0  0  0
  4  5  1  0  0  0  0
  4  3  1  0  0  0  0
  5 12  1  1  0  0  0
  5  1  1  0  0  0  0
  6  2  1  0  0  0  0
  9  3  1  0  0  0  0
 10  4  1  0  0  0  0
 11  4  1  0  0  0  0
 13 19  1  0  0  0  0
 13 18  1  0  0  0  0
 14 13  2  0  0  0  0
 15 14  1  0  0  0  0
 15 16  2  0  0  0  0
 16 17  1  0  0  0  0
 17 18  2  0  0  0  0
 17 21  1  0  0  0  0
 20 14  1  0  0  0  0
 21 29  1  0  0  0  0
 21 22  1  0  0  0  0
 22 24  1  0  0  0  0
 23 22  1  0  0  0  0
 24 25  1  0  0  0  0
 24 26  1  0  0  0  0
 26 27  1  0  0  0  0
 28 26  1  0  0  0  0
 29 28  1  0  0  0  0
 30  5  1  0  0  0  0
 31 30  2  0  0  0  0
 32 31  1  0  0  0  0
 33 32  2  0  0  0  0
 33 34  1  0  0  0  0
 34 39  1  0  0  0  0
 35 34  2  0  0  0  0
 35 36  1  0  0  0  0
 36 37  2  0  0  0  0
 37 38  1  0  0  0  0
 37 43  1  0  0  0  0
 38 44  1  0  0  0  0
 39 30  1  0  0  0  0
 39 38  2  0  0  0  0
 40 32  1  0  0  0  0
 41 35  1  0  0  0  0
 42 36  1  0  0  0  0
M  END
>  <minimizedAffinity>
-7.27735853

>  <minimizedRMSD>
1.15323222

$$$$
