
 OpenBabel03252508223D

 48 51  0  0  0  0  0  0  0  0999 V2000
   46.2760   33.9610   40.5070 C   0  0  0  0  0  0  0  0  0  0  0  0
   46.9140   33.7920   39.2980 C   0  0  0  0  0  0  0  0  0  0  0  0
   48.1580   34.2960   39.0000 C   0  0  0  0  0  0  0  0  0  0  0  0
   48.7800   35.0200   40.0260 C   0  0  0  0  0  0  0  0  0  0  0  0
   48.1900   35.2150   41.2430 C   0  0  0  0  0  0  0  0  0  0  0  0
   46.9540   34.6980   41.4980 C   0  0  0  0  0  0  0  0  0  0  0  0
   46.5070   33.2400   38.4670 H   0  0  0  0  0  0  0  0  0  0  0  0
   48.6760   34.1760   38.0600 H   0  0  0  0  0  0  0  0  0  0  0  0
   49.7760   35.4470   39.8440 H   0  0  0  0  0  0  0  0  0  0  0  0
   48.7440   35.7900   41.9830 H   0  0  0  0  0  0  0  0  0  0  0  0
   46.4330   34.9460   42.7820 N   0  0  0  0  0  0  0  0  0  0  0  0
   45.5000   35.9910   43.0870 C   0  0  0  0  0  0  0  0  0  0  0  0
   44.7760   35.7140   44.3890 C   0  0  0  0  0  0  0  0  0  0  0  0
   44.4460   34.3460   44.6090 N   0  0  0  0  0  0  0  0  0  0  0  0
   45.5420   33.4520   44.5000 C   0  0  0  0  0  0  0  0  0  0  0  0
   46.7650   34.1790   43.9920 C   0  0  0  0  0  0  0  0  0  0  0  0
   44.8650   36.3440   42.2740 H   0  0  0  0  0  0  0  0  0  0  0  0
   46.1510   36.8840   43.3330 H   0  0  0  0  0  0  0  0  0  0  0  0
   45.3680   36.0440   45.2850 H   0  0  0  0  0  0  0  0  0  0  0  0
   43.8610   36.3210   44.4160 H   0  0  0  0  0  0  0  0  0  0  0  0
   43.6640   34.0330   44.0020 H   0  0  0  0  0  0  0  0  0  0  0  0
   45.3360   32.5840   43.8220 H   0  0  0  0  0  0  0  0  0  0  0  0
   45.7600   33.0180   45.4800 H   0  0  0  0  0  0  0  0  0  0  0  0
   47.0950   34.8750   44.7990 H   0  0  0  0  0  0  0  0  0  0  0  0
   47.5350   33.4100   43.7710 H   0  0  0  0  0  0  0  0  0  0  0  0
   44.9460   33.4280   40.8180 C   0  0  0  0  0  0  0  0  0  0  0  0
   45.0740   32.3170   40.8900 H   0  0  0  0  0  0  0  0  0  0  0  0
   44.5610   33.7300   41.7990 H   0  0  0  0  0  0  0  0  0  0  0  0
   43.9610   33.7000   39.6990 C   0  0  0  0  0  0  0  0  0  0  0  0
   43.8460   32.7900   39.0370 H   0  0  0  0  0  0  0  0  0  0  0  0
   44.2170   34.5110   39.0340 H   0  0  0  0  0  0  0  0  0  0  0  0
   41.2080   35.2930   41.7230 C   0  0  0  0  0  0  0  0  0  0  0  0
   42.4870   35.0330   41.1800 C   0  0  0  0  0  0  0  0  0  0  0  0
   42.6300   33.9810   40.2770 C   0  0  0  0  0  0  0  0  0  0  0  0
   41.5110   33.2580   39.9690 N   0  0  0  0  0  0  0  0  0  0  0  0
   40.3140   33.5190   40.4920 C   0  0  0  0  0  0  0  0  0  0  0  0
   40.1540   34.5280   41.3640 N   0  0  0  0  0  0  0  0  0  0  0  0
   41.1430   36.1270   42.4260 H   0  0  0  0  0  0  0  0  0  0  0  0
   43.3330   35.6420   41.4650 H   0  0  0  0  0  0  0  0  0  0  0  0
   39.1820   32.7300   40.1340 N   0  0  0  0  0  0  0  0  0  0  0  0
   38.4340   31.9850   41.1290 C   0  0  0  0  0  0  0  0  0  0  0  0
   39.0150   31.6410   41.9810 H   0  0  0  0  0  0  0  0  0  0  0  0
   37.8790   30.7760   40.3680 C   0  0  0  0  0  0  0  0  0  0  0  0
   37.0420   31.0750   39.6990 H   0  0  0  0  0  0  0  0  0  0  0  0
   38.9370   30.3370   39.4610 N   0  0  0  0  0  0  0  0  0  0  0  0
   38.7650   29.3720   39.1050 H   0  0  0  0  0  0  0  0  0  0  0  0
   39.0860   31.2110   38.3380 C   0  0  0  0  0  0  0  0  0  0  0  0
   38.7370   32.6460   38.7540 C   0  0  0  0  0  0  0  0  0  0  0  0
  1 26  1  0  0  0  0
  1  6  1  0  0  0  0
  2  1  2  0  0  0  0
  3  2  1  0  0  0  0
  3  4  2  0  0  0  0
  4  5  1  0  0  0  0
  5  6  2  0  0  0  0
  5 10  1  0  0  0  0
  6 11  1  0  0  0  0
  7  2  1  0  0  0  0
  8  3  1  0  0  0  0
  9  4  1  0  0  0  0
 11 12  1  0  0  0  0
 11 16  1  0  0  0  0
 12 18  1  0  0  0  0
 12 13  1  0  0  0  0
 13 20  1  0  0  0  0
 13 14  1  0  0  0  0
 13 19  1  0  0  0  0
 15 14  1  0  0  0  0
 15 23  1  0  0  0  0
 16 15  1  0  0  0  0
 16 24  1  0  0  0  0
 17 12  1  0  0  0  0
 21 14  1  0  0  0  0
 22 15  1  0  0  0  0
 25 16  1  0  0  0  0
 26 27  1  0  0  0  0
 26 28  1  0  0  0  0
 29 34  1  0  0  0  0
 29 26  1  0  0  0  0
 30 29  1  0  0  0  0
 31 29  1  0  0  0  0
 32 38  1  0  0  0  0
 33 39  1  0  0  0  0
 33 32  2  0  0  0  0
 34 33  1  0  0  0  0
 35 34  2  0  0  0  0
 35 36  1  0  0  0  0
 36 37  2  0  0  0  0
 37 32  1  0  0  0  0
 40 36  1  0  0  0  0
 40 41  1  0  0  0  0
 41 42  1  0  0  0  0
 43 41  1  0  0  0  0
 44 43  1  0  0  0  0
 45 43  1  0  0  0  0
 46 45  1  0  0  0  0
 47 48  1  0  0  0  0
 47 45  1  0  0  0  0
 48 40  1  0  0  0  0
M  END
>  <minimizedAffinity>
-6.28615475

>  <minimizedRMSD>
2.55882502

$$$$
