
 OpenBabel03252509073D

 41 44  0  0  1  0  0  0  0  0999 V2000
   47.8440   32.0520   38.8850 C   0  0  0  0  0  0  0  0  0  0  0  0
   47.4040   33.3260   38.6890 C   0  0  0  0  0  0  0  0  0  0  0  0
   48.2670   34.2450   38.1190 C   0  0  0  0  0  0  0  0  0  0  0  0
   49.5410   33.8780   37.7580 C   0  0  0  0  0  0  0  0  0  0  0  0
   50.0080   32.5810   37.9490 C   0  0  0  0  0  0  0  0  0  0  0  0
   49.1340   31.6660   38.5220 C   0  0  0  0  0  0  0  0  0  0  0  0
   47.9460   35.2710   37.9510 H   0  0  0  0  0  0  0  0  0  0  0  0
   50.1720   34.6330   37.3190 H   0  0  0  0  0  0  0  0  0  0  0  0
   50.9930   32.2940   37.6680 H   0  0  0  0  0  0  0  0  0  0  0  0
   49.5050   30.6650   38.6650 H   0  0  0  0  0  0  0  0  0  0  0  0
   44.0510   34.9130   42.2560 Cl  0  0  0  0  0  0  0  0  0  0  0  0
   44.5420   34.5220   40.6330 C   0  0  0  0  0  0  0  0  0  0  0  0
   45.7900   34.0910   40.3640 C   0  0  0  0  0  0  0  0  0  0  0  0
   46.0780   33.8060   39.0330 C   0  0  0  0  0  0  0  0  0  0  0  0
   45.1470   33.9520   38.0350 C   0  0  0  0  0  0  0  0  0  0  0  0
   43.8950   34.3870   38.3320 C   0  0  0  0  0  0  0  0  0  0  0  0
   43.5980   34.6710   39.6440 C   0  0  0  0  0  0  0  0  0  0  0  0
   45.3720   33.7300   36.9900 H   0  0  0  0  0  0  0  0  0  0  0  0
   43.1370   34.5120   37.5740 H   0  0  0  0  0  0  0  0  0  0  0  0
   42.5850   35.0200   39.8640 H   0  0  0  0  0  0  0  0  0  0  0  0
   48.5860   34.7480   42.8130 C   0  0  0  0  0  0  0  0  0  0  0  0
   47.6770   34.9080   41.7630 C   0  0  0  0  0  0  0  0  0  0  0  0
   46.7370   33.9430   41.4420 C   0  0  0  0  0  0  0  0  0  0  0  0
   46.7640   32.8320   42.2250 N   0  0  0  0  0  0  0  0  0  0  0  0
   47.6370   32.6790   43.2330 C   0  0  0  0  0  0  0  0  0  0  0  0
   48.5370   33.6280   43.5230 N   0  0  0  0  0  0  0  0  0  0  0  0
   49.2860   35.5580   42.9910 H   0  0  0  0  0  0  0  0  0  0  0  0
   47.6870   35.8080   41.1630 H   0  0  0  0  0  0  0  0  0  0  0  0
   47.6570   31.7920   43.8560 H   0  0  0  0  0  0  0  0  0  0  0  0
   46.8510   30.8670   39.5510 S   0  0  0  0  0  0  0  0  0  0  0  0
   47.0910   30.6580   41.0300 O   0  0  0  0  0  0  0  0  0  0  0  0
   45.4260   31.4930   39.4960 O   0  0  0  0  0  0  0  0  0  0  0  0
   47.1920   29.6730   37.0740 H   0  0  0  0  0  0  0  0  0  0  0  0
   46.4370   29.1420   37.5210 N   0  0  0  0  0  0  0  0  0  0  0  0
   46.5550   29.3030   38.9890 C   0  0  1  0  0  3  0  0  0  0  0  0
   47.9580   28.5940   39.0870 C   0  0  0  0  0  3  0  0  0  0  0  0
   48.6650   29.0680   38.4040 H   0  0  0  0  0  0  0  0  0  0  0  0
   47.8190   27.1870   38.8910 N   0  0  0  0  0  0  0  0  0  0  0  0
   48.0250   26.6280   39.7430 H   0  0  0  0  0  0  0  0  0  0  0  0
   46.5990   26.8020   38.2420 C   0  0  0  0  0  2  0  0  0  0  0  0
   46.2810   27.7800   37.1420 C   0  0  0  0  0  2  0  0  0  0  0  0
  1 30  1  0  0  0  0
  2  1  1  0  0  0  0
  2 14  1  0  0  0  0
  3  2  2  0  0  0  0
  4  5  2  0  0  0  0
  4  3  1  0  0  0  0
  5  6  1  0  0  0  0
  6 10  1  0  0  0  0
  6  1  2  0  0  0  0
  7  3  1  0  0  0  0
  8  4  1  0  0  0  0
  9  5  1  0  0  0  0
 12 11  1  0  0  0  0
 13 12  1  0  0  0  0
 13 23  1  0  0  0  0
 14 13  2  0  0  0  0
 15 16  2  0  0  0  0
 15 14  1  0  0  0  0
 16 17  1  0  0  0  0
 17 20  1  0  0  0  0
 17 12  2  0  0  0  0
 18 15  1  0  0  0  0
 19 16  1  0  0  0  0
 21 27  1  0  0  0  0
 21 26  1  0  0  0  0
 22 21  2  0  0  0  0
 23 22  1  0  0  0  0
 23 24  2  0  0  0  0
 24 25  1  0  0  0  0
 25 26  2  0  0  0  0
 25 29  1  0  0  0  0
 28 22  1  0  0  0  0
 30 31  2  0  0  0  0
 32 30  2  0  0  0  0
 33 34  1  0  0  0  0
 34 35  1  0  0  0  0
 35 36  1  0  0  0  0
 35 30  1  6  0  0  0
 37 36  1  0  0  0  0
 38 36  1  0  0  0  0
 38 39  1  0  0  0  0
 40 38  1  0  0  0  0
 41 34  1  0  0  0  0
 41 40  1  0  0  0  0
M  END
>  <minimizedAffinity>
-1.33541095

>  <minimizedRMSD>
2.81538773

$$$$
