
 OpenBabel03252507033D

 47 50  0  0  1  0  0  0  0  0999 V2000
   41.8620   31.7440   42.0310 C   0  0  0  0  0  0  0  0  0  0  0  0
   41.4430   32.0500   43.0130 H   0  0  0  0  0  0  0  0  0  0  0  0
   41.7670   32.6930   41.3990 H   0  0  0  0  0  0  0  0  0  0  0  0
   41.2450   30.6830   41.5030 N   0  0  0  0  0  0  0  0  0  0  0  0
   40.9610   29.4380   42.1400 C   0  0  0  0  0  0  0  0  0  0  0  0
   39.4610   29.6220   42.3540 C   0  0  0  0  0  0  0  0  0  0  0  0
   38.7020   29.8190   41.1310 C   0  0  0  0  0  0  0  0  0  0  0  0
   39.3850   30.3420   39.9680 C   0  0  0  0  0  0  0  0  0  0  0  0
   40.7930   30.8590   40.0950 C   0  0  0  0  0  0  0  0  0  0  0  0
   41.4060   29.4370   43.1630 H   0  0  0  0  0  0  0  0  0  0  0  0
   41.2140   28.5180   41.6420 H   0  0  0  0  0  0  0  0  0  0  0  0
   39.3830   30.4510   43.1130 H   0  0  0  0  0  0  0  0  0  0  0  0
   39.1340   28.7150   42.9190 H   0  0  0  0  0  0  0  0  0  0  0  0
   38.2450   28.8320   40.8300 H   0  0  0  0  0  0  0  0  0  0  0  0
   37.8150   30.4670   41.3290 H   0  0  0  0  0  0  0  0  0  0  0  0
   38.9590   30.4100   39.0200 H   0  0  0  0  0  0  0  0  0  0  0  0
   41.7030   31.5600   38.8160 S   0  0  0  0  0  0  0  0  0  0  0  0
   41.1830   33.8110   36.7910 H   0  0  0  0  0  0  0  0  0  0  0  0
   40.7920   33.8870   37.7410 N   0  0  0  0  0  0  0  0  0  0  0  0
   41.6960   33.3290   38.7300 C   0  0  2  0  0  0  0  0  0  0  0  0
   43.0500   33.9470   38.5400 C   0  0  0  0  0  0  0  0  0  0  0  0
   43.7770   33.1740   38.2390 H   0  0  0  0  0  0  0  0  0  0  0  0
   43.0260   35.0570   37.6180 N   0  0  0  0  0  0  0  0  0  0  0  0
   42.9660   34.7870   36.6170 H   0  0  0  0  0  0  0  0  0  0  0  0
   41.9850   36.0140   37.9560 C   0  0  0  0  0  0  0  0  0  0  0  0
   40.6460   35.3100   38.0360 C   0  0  0  0  0  0  0  0  0  0  0  0
   43.3300   31.5670   42.1920 C   0  0  0  0  0  0  0  0  0  0  0  0
   43.7690   30.8890   41.4030 H   0  0  0  0  0  0  0  0  0  0  0  0
   43.5900   31.1050   43.1640 H   0  0  0  0  0  0  0  0  0  0  0  0
   43.9600   32.8970   42.1340 C   0  0  0  0  0  0  0  0  0  0  0  0
   43.1870   34.0310   42.0380 C   0  0  0  0  0  0  0  0  0  0  0  0
   43.8260   35.2640   41.9790 C   0  0  0  0  0  0  0  0  0  0  0  0
   45.1920   35.2850   42.0210 N   0  0  0  0  0  0  0  0  0  0  0  0
   45.9050   34.1650   42.1160 C   0  0  0  0  0  0  0  0  0  0  0  0
   45.2660   32.9980   42.1690 N   0  0  0  0  0  0  0  0  0  0  0  0
   42.1270   34.2180   42.0090 H   0  0  0  0  0  0  0  0  0  0  0  0
   43.3820   36.2530   41.9000 H   0  0  0  0  0  0  0  0  0  0  0  0
   47.3580   34.2930   42.1900 C   0  0  0  0  0  0  0  0  0  0  0  0
   48.1310   33.2220   42.6340 C   0  0  0  0  0  0  0  0  0  0  0  0
   49.5040   33.3520   42.7200 C   0  0  0  0  0  0  0  0  0  0  0  0
   49.9840   34.5820   42.3380 C   0  0  0  0  0  0  0  0  0  0  0  0
   49.2570   35.6830   41.8880 C   0  0  0  0  0  0  0  0  0  0  0  0
   47.9170   35.4710   41.8350 N   0  0  0  0  0  0  0  0  0  0  0  0
   47.6740   32.2870   42.9150 H   0  0  0  0  0  0  0  0  0  0  0  0
   50.1740   32.5860   43.0480 H   0  0  0  0  0  0  0  0  0  0  0  0
   51.0700   34.7210   42.3930 H   0  0  0  0  0  0  0  0  0  0  0  0
   49.7270   36.5940   41.6170 H   0  0  0  0  0  0  0  0  0  0  0  0
  1 27  1  0  0  0  0
  1  2  1  0  0  0  0
  3  1  1  0  0  0  0
  4  1  1  0  0  0  0
  4  5  1  0  0  0  0
  5  6  1  0  0  0  0
  5 10  1  0  0  0  0
  6 13  1  0  0  0  0
  6 12  1  0  0  0  0
  7 15  1  0  0  0  0
  7  6  1  0  0  0  0
  8  9  2  0  0  0  0
  8  7  1  0  0  0  0
  9  4  1  0  0  0  0
 11  5  1  0  0  0  0
 14  7  1  0  0  0  0
 16  8  1  0  0  0  0
 17  9  1  0  0  0  0
 18 19  1  0  0  0  0
 19 26  1  0  0  0  0
 19 20  1  0  0  0  0
 20 17  1  6  0  0  0
 21 20  1  0  0  0  0
 22 21  1  0  0  0  0
 23 25  1  0  0  0  0
 23 21  1  0  0  0  0
 24 23  1  0  0  0  0
 25 26  1  0  0  0  0
 27 29  1  0  0  0  0
 28 27  1  0  0  0  0
 30 35  1  0  0  0  0
 30 27  1  0  0  0  0
 31 30  2  0  0  0  0
 32 33  2  0  0  0  0
 32 31  1  0  0  0  0
 33 34  1  0  0  0  0
 34 35  2  0  0  0  0
 34 38  1  0  0  0  0
 36 31  1  0  0  0  0
 37 32  1  0  0  0  0
 38 39  1  0  0  0  0
 39 40  2  0  0  0  0
 39 44  1  0  0  0  0
 40 45  1  0  0  0  0
 41 46  1  0  0  0  0
 41 40  1  0  0  0  0
 42 41  2  0  0  0  0
 43 42  1  0  0  0  0
 43 38  2  0  0  0  0
 47 42  1  0  0  0  0
M  END
>  <minimizedAffinity>
-5.23793268

>  <minimizedRMSD>
2.87418079

$$$$
