
 OpenBabel03242517263D

 35 37  0  0  1  0  0  0  0  0999 V2000
   35.5830   28.1070   37.8720 C   0  0  0  0  0  0  0  0  0  0  0  0
   34.2980   28.6770   38.0600 C   0  0  0  0  0  0  0  0  0  0  0  0
   33.9830   29.1740   39.3520 C   0  0  0  0  0  0  0  0  0  0  0  0
   34.9250   29.0740   40.3260 N   0  0  0  0  0  0  0  0  0  0  0  0
   36.1320   28.5260   40.1070 C   0  0  0  0  0  0  0  0  0  0  0  0
   36.4610   28.0440   38.8830 N   0  0  0  0  0  0  0  0  0  0  0  0
   37.0410   28.4620   41.1580 N   0  0  0  0  0  0  0  0  0  0  0  0
   36.7050   27.7570   42.3700 C   0  0  0  0  0  0  0  0  0  0  0  0
   37.5660   28.0950   43.5480 C   0  0  0  0  0  0  0  0  0  0  0  0
   38.9170   28.4260   43.2590 N   0  0  0  0  0  0  0  0  0  0  0  0
   39.2650   28.2610   41.8770 C   0  0  0  0  0  0  0  0  0  0  0  0
   38.3460   29.1000   41.0680 C   0  0  2  0  0  0  0  0  0  0  0  0
   35.7490   27.7510   36.8650 H   0  0  0  0  0  0  0  0  0  0  0  0
   33.5220   28.7840   37.3440 H   0  0  0  0  0  0  0  0  0  0  0  0
   33.0200   29.6210   39.5620 H   0  0  0  0  0  0  0  0  0  0  0  0
   35.6460   27.9880   42.6130 H   0  0  0  0  0  0  0  0  0  0  0  0
   36.7960   26.6680   42.1870 H   0  0  0  0  0  0  0  0  0  0  0  0
   37.5130   27.2210   44.2540 H   0  0  0  0  0  0  0  0  0  0  0  0
   37.0960   28.9490   44.0840 H   0  0  0  0  0  0  0  0  0  0  0  0
   39.2540   29.3360   43.6480 H   0  0  0  0  0  0  0  0  0  0  0  0
   40.3010   28.6340   41.7320 H   0  0  0  0  0  0  0  0  0  0  0  0
   39.1780   27.2040   41.5780 H   0  0  0  0  0  0  0  0  0  0  0  0
   38.6370   28.9800   39.9890 H   0  0  0  0  0  0  0  0  0  0  0  0
   38.3230   30.5350   41.4770 C   0  0  0  0  0  0  0  0  0  0  0  0
   37.2450   30.8640   41.4740 H   0  0  0  0  0  0  0  0  0  0  0  0
   38.6790   30.6280   42.5030 H   0  0  0  0  0  0  0  0  0  0  0  0
   38.9840   31.3900   40.5200 N   0  0  0  0  0  0  0  0  0  0  0  0
   39.1550   32.7380   41.0100 C   0  0  0  0  0  3  0  0  0  0  0  0
   38.7960   32.8560   42.0580 H   0  0  0  0  0  0  0  0  0  0  0  0
   38.3490   33.7010   40.1680 C   0  0  0  0  0  3  0  0  0  0  0  0
   38.8080   33.7030   39.1650 H   0  0  0  0  0  0  0  0  0  0  0  0
   37.0100   33.2180   40.0600 N   0  0  0  0  0  0  0  0  0  0  0  0
   36.6080   33.0100   40.9870 H   0  0  0  0  0  0  0  0  0  0  0  0
   37.0220   32.0500   39.2010 C   0  0  0  0  0  2  0  0  0  0  0  0
   38.3480   31.3360   39.2360 C   0  0  0  0  0  2  0  0  0  0  0  0
  1  2  2  0  0  0  0
  1  6  1  0  0  0  0
  2  3  1  0  0  0  0
  3 15  1  0  0  0  0
  3  4  2  0  0  0  0
  5  4  1  0  0  0  0
  5  7  1  0  0  0  0
  6  5  2  0  0  0  0
  7  8  1  0  0  0  0
  8 16  1  0  0  0  0
  8  9  1  0  0  0  0
  9 19  1  0  0  0  0
  9 18  1  0  0  0  0
 10  9  1  0  0  0  0
 10 20  1  0  0  0  0
 11 10  1  0  0  0  0
 12 23  1  6  0  0  0
 12  7  1  0  0  0  0
 12 24  1  0  0  0  0
 12 11  1  0  0  0  0
 13  1  1  0  0  0  0
 14  2  1  0  0  0  0
 17  8  1  0  0  0  0
 21 11  1  0  0  0  0
 22 11  1  0  0  0  0
 24 26  1  0  0  0  0
 25 24  1  0  0  0  0
 27 28  1  0  0  0  0
 27 24  1  0  0  0  0
 28 29  1  0  0  0  0
 30 28  1  0  0  0  0
 31 30  1  0  0  0  0
 32 30  1  0  0  0  0
 32 33  1  0  0  0  0
 34 35  1  0  0  0  0
 34 32  1  0  0  0  0
 35 27  1  0  0  0  0
M  END
>  <minimizedAffinity>
-5.16816044

$$$$

 OpenBabel03242517263D

 35 37  0  0  1  0  0  0  0  0999 V2000
   41.9050   30.1960   37.3480 C   0  0  0  0  0  0  0  0  0  0  0  0
   43.0770   30.2060   38.1470 C   0  0  0  0  0  0  0  0  0  0  0  0
   43.0310   30.9250   39.3700 C   0  0  0  0  0  0  0  0  0  0  0  0
   41.8740   31.5580   39.7010 N   0  0  0  0  0  0  0  0  0  0  0  0
   40.7850   31.5240   38.9150 C   0  0  0  0  0  0  0  0  0  0  0  0
   40.8000   30.8440   37.7410 N   0  0  0  0  0  0  0  0  0  0  0  0
   39.6400   32.1970   39.3260 N   0  0  0  0  0  0  0  0  0  0  0  0
   39.6790   33.6170   39.5740 C   0  0  0  0  0  0  0  0  0  0  0  0
   38.5320   34.1410   40.3810 C   0  0  0  0  0  0  0  0  0  0  0  0
   37.2890   33.4750   40.2070 N   0  0  0  0  0  0  0  0  0  0  0  0
   37.3150   32.4740   39.1800 C   0  0  0  0  0  0  0  0  0  0  0  0
   38.3800   31.4960   39.5180 C   0  0  2  0  0  0  0  0  0  0  0  0
   42.0170   29.6300   36.4330 H   0  0  0  0  0  0  0  0  0  0  0  0
   44.0070   29.7350   37.9460 H   0  0  0  0  0  0  0  0  0  0  0  0
   43.8900   30.9720   40.0260 H   0  0  0  0  0  0  0  0  0  0  0  0
   40.6310   33.8430   40.1000 H   0  0  0  0  0  0  0  0  0  0  0  0
   39.6780   34.1500   38.6020 H   0  0  0  0  0  0  0  0  0  0  0  0
   38.4340   35.2350   40.1390 H   0  0  0  0  0  0  0  0  0  0  0  0
   38.8170   34.0910   41.4560 H   0  0  0  0  0  0  0  0  0  0  0  0
   36.8300   33.1360   41.0830 H   0  0  0  0  0  0  0  0  0  0  0  0
   36.3380   31.9460   39.1860 H   0  0  0  0  0  0  0  0  0  0  0  0
   37.5150   32.9300   38.1980 H   0  0  0  0  0  0  0  0  0  0  0  0
   38.3800   30.7050   38.7190 H   0  0  0  0  0  0  0  0  0  0  0  0
   38.2430   30.9040   40.8810 C   0  0  0  0  0  0  0  0  0  0  0  0
   39.1960   31.1330   41.4390 H   0  0  0  0  0  0  0  0  0  0  0  0
   37.4350   31.4020   41.4170 H   0  0  0  0  0  0  0  0  0  0  0  0
   38.1590   29.4640   40.8500 N   0  0  0  0  0  0  0  0  0  0  0  0
   36.7940   28.9900   40.8420 C   0  0  0  0  0  3  0  0  0  0  0  0
   36.0580   29.8240   40.8050 H   0  0  0  0  0  0  0  0  0  0  0  0
   36.5070   28.2180   42.1090 C   0  0  0  0  0  3  0  0  0  0  0  0
   37.1250   27.3050   42.0690 H   0  0  0  0  0  0  0  0  0  0  0  0
   36.9140   28.9980   43.2330 N   0  0  0  0  0  0  0  0  0  0  0  0
   36.5090   29.9460   43.2010 H   0  0  0  0  0  0  0  0  0  0  0  0
   38.3630   29.0300   43.2570 C   0  0  0  0  0  2  0  0  0  0  0  0
   38.9550   28.8650   41.8810 C   0  0  0  0  0  2  0  0  0  0  0  0
  1  6  2  0  0  0  0
  1  2  1  0  0  0  0
  2  3  2  0  0  0  0
  3  4  1  0  0  0  0
  3 15  1  0  0  0  0
  5  7  1  0  0  0  0
  5  4  2  0  0  0  0
  6  5  1  0  0  0  0
  7 12  1  0  0  0  0
  7  8  1  0  0  0  0
  8 16  1  0  0  0  0
  8  9  1  0  0  0  0
  9 19  1  0  0  0  0
 10  9  1  0  0  0  0
 10 20  1  0  0  0  0
 11 21  1  0  0  0  0
 11 12  1  0  0  0  0
 11 10  1  0  0  0  0
 12 23  1  6  0  0  0
 12 24  1  0  0  0  0
 13  1  1  0  0  0  0
 14  2  1  0  0  0  0
 17  8  1  0  0  0  0
 18  9  1  0  0  0  0
 22 11  1  0  0  0  0
 24 26  1  0  0  0  0
 24 25  1  0  0  0  0
 27 24  1  0  0  0  0
 27 35  1  0  0  0  0
 28 27  1  0  0  0  0
 28 30  1  0  0  0  0
 29 28  1  0  0  0  0
 30 32  1  0  0  0  0
 31 30  1  0  0  0  0
 32 34  1  0  0  0  0
 33 32  1  0  0  0  0
 35 34  1  0  0  0  0
M  END
>  <minimizedAffinity>
-4.99942684

$$$$

 OpenBabel03242517263D

 35 37  0  0  1  0  0  0  0  0999 V2000
   41.1310   27.6790   38.4790 C   0  0  0  0  0  0  0  0  0  0  0  0
   40.4150   27.5550   37.2610 C   0  0  0  0  0  0  0  0  0  0  0  0
   39.0080   27.7350   37.3060 C   0  0  0  0  0  0  0  0  0  0  0  0
   38.4330   28.0130   38.5060 N   0  0  0  0  0  0  0  0  0  0  0  0
   39.1480   28.1220   39.6380 C   0  0  0  0  0  0  0  0  0  0  0  0
   40.4940   27.9560   39.6250 N   0  0  0  0  0  0  0  0  0  0  0  0
   38.4840   28.4090   40.8260 N   0  0  0  0  0  0  0  0  0  0  0  0
   37.4480   27.5310   41.3120 C   0  0  0  0  0  0  0  0  0  0  0  0
   36.5520   28.1380   42.3470 C   0  0  0  0  0  0  0  0  0  0  0  0
   37.1520   29.0920   43.2120 N   0  0  0  0  0  0  0  0  0  0  0  0
   38.5680   29.2250   43.0240 C   0  0  0  0  0  0  0  0  0  0  0  0
   38.8100   29.5930   41.6060 C   0  0  2  0  0  0  0  0  0  0  0  0
   42.1960   27.5290   38.3650 H   0  0  0  0  0  0  0  0  0  0  0  0
   40.8020   27.3410   36.2960 H   0  0  0  0  0  0  0  0  0  0  0  0
   38.4020   27.6540   36.4120 H   0  0  0  0  0  0  0  0  0  0  0  0
   36.8380   27.2120   40.4410 H   0  0  0  0  0  0  0  0  0  0  0  0
   37.9210   26.6340   41.7600 H   0  0  0  0  0  0  0  0  0  0  0  0
   36.1110   27.2880   42.9370 H   0  0  0  0  0  0  0  0  0  0  0  0
   35.6980   28.6200   41.8220 H   0  0  0  0  0  0  0  0  0  0  0  0
   36.6690   30.0170   43.2720 H   0  0  0  0  0  0  0  0  0  0  0  0
   38.9270   30.0550   43.6690 H   0  0  0  0  0  0  0  0  0  0  0  0
   39.0830   28.2820   43.2660 H   0  0  0  0  0  0  0  0  0  0  0  0
   39.9200   29.7150   41.4710 H   0  0  0  0  0  0  0  0  0  0  0  0
   38.0640   30.8070   41.1630 C   0  0  0  0  0  0  0  0  0  0  0  0
   37.2580   30.4610   40.4540 H   0  0  0  0  0  0  0  0  0  0  0  0
   37.5610   31.2600   42.0180 H   0  0  0  0  0  0  0  0  0  0  0  0
   38.8870   31.7070   40.3910 N   0  0  0  0  0  0  0  0  0  0  0  0
   39.0240   33.0030   41.0160 C   0  0  0  0  0  3  0  0  0  0  0  0
   38.5170   33.0510   42.0060 H   0  0  0  0  0  0  0  0  0  0  0  0
   38.3840   34.0650   40.1510 C   0  0  0  0  0  3  0  0  0  0  0  0
   38.9880   34.1280   39.2300 H   0  0  0  0  0  0  0  0  0  0  0  0
   37.0620   33.6510   39.8060 N   0  0  0  0  0  0  0  0  0  0  0  0
   36.5200   33.3860   40.6430 H   0  0  0  0  0  0  0  0  0  0  0  0
   37.1660   32.5580   38.8600 C   0  0  0  0  0  2  0  0  0  0  0  0
   38.4490   31.7850   39.0280 C   0  0  0  0  0  2  0  0  0  0  0  0
  1  6  1  0  0  0  0
  2  3  1  0  0  0  0
  2  1  2  0  0  0  0
  3  4  2  0  0  0  0
  4  5  1  0  0  0  0
  5  7  1  0  0  0  0
  6  5  2  0  0  0  0
  7  8  1  0  0  0  0
  7 12  1  0  0  0  0
  8 17  1  0  0  0  0
  8  9  1  0  0  0  0
  9 18  1  0  0  0  0
  9 10  1  0  0  0  0
 10 20  1  0  0  0  0
 11 10  1  0  0  0  0
 11 22  1  0  0  0  0
 11 21  1  0  0  0  0
 12 23  1  6  0  0  0
 12 11  1  0  0  0  0
 13  1  1  0  0  0  0
 14  2  1  0  0  0  0
 15  3  1  0  0  0  0
 16  8  1  0  0  0  0
 19  9  1  0  0  0  0
 24 12  1  0  0  0  0
 24 26  1  0  0  0  0
 25 24  1  0  0  0  0
 27 28  1  0  0  0  0
 27 24  1  0  0  0  0
 28 29  1  0  0  0  0
 30 28  1  0  0  0  0
 31 30  1  0  0  0  0
 32 30  1  0  0  0  0
 32 33  1  0  0  0  0
 34 35  1  0  0  0  0
 34 32  1  0  0  0  0
 35 27  1  0  0  0  0
M  END
>  <minimizedAffinity>
-4.85967636

$$$$

 OpenBabel03242517263D

 35 37  0  0  1  0  0  0  0  0999 V2000
   37.5880   28.3800   43.3520 C   0  0  0  0  0  0  0  0  0  0  0  0
   37.3180   27.2170   42.5860 C   0  0  0  0  0  0  0  0  0  0  0  0
   37.2420   27.3620   41.1770 C   0  0  0  0  0  0  0  0  0  0  0  0
   37.4290   28.5990   40.6470 N   0  0  0  0  0  0  0  0  0  0  0  0
   37.6820   29.6770   41.4080 C   0  0  0  0  0  0  0  0  0  0  0  0
   37.7620   29.5680   42.7570 N   0  0  0  0  0  0  0  0  0  0  0  0
   37.8630   30.9090   40.7870 N   0  0  0  0  0  0  0  0  0  0  0  0
   36.8200   31.4700   39.9640 C   0  0  0  0  0  0  0  0  0  0  0  0
   37.2700   32.5640   39.0470 C   0  0  0  0  0  0  0  0  0  0  0  0
   38.3290   33.3830   39.5230 N   0  0  0  0  0  0  0  0  0  0  0  0
   38.7140   33.0930   40.8750 C   0  0  0  0  0  0  0  0  0  0  0  0
   39.0980   31.6610   40.9470 C   0  0  2  0  0  0  0  0  0  0  0  0
   37.6300   28.1910   44.4160 H   0  0  0  0  0  0  0  0  0  0  0  0
   37.1630   26.2270   42.9380 H   0  0  0  0  0  0  0  0  0  0  0  0
   37.0400   26.5140   40.5360 H   0  0  0  0  0  0  0  0  0  0  0  0
   36.3830   30.6450   39.3620 H   0  0  0  0  0  0  0  0  0  0  0  0
   36.0300   31.8850   40.6210 H   0  0  0  0  0  0  0  0  0  0  0  0
   36.3640   33.1860   38.8090 H   0  0  0  0  0  0  0  0  0  0  0  0
   37.5820   32.1010   38.0850 H   0  0  0  0  0  0  0  0  0  0  0  0
   39.1530   33.4750   38.8870 H   0  0  0  0  0  0  0  0  0  0  0  0
   39.6040   33.7090   41.1220 H   0  0  0  0  0  0  0  0  0  0  0  0
   37.8820   33.3000   41.5680 H   0  0  0  0  0  0  0  0  0  0  0  0
   39.4160   31.4470   42.0040 H   0  0  0  0  0  0  0  0  0  0  0  0
   40.1510   31.2700   39.9640 C   0  0  0  0  0  0  0  0  0  0  0  0
   39.7170   30.4510   39.3220 H   0  0  0  0  0  0  0  0  0  0  0  0
   40.3650   32.1110   39.3040 H   0  0  0  0  0  0  0  0  0  0  0  0
   41.3050   30.6820   40.6000 N   0  0  0  0  0  0  0  0  0  0  0  0
   41.2230   30.7240   42.0410 C   0  0  0  0  0  3  0  0  0  0  0  0
   40.2590   31.1520   42.3980 H   0  0  0  0  0  0  0  0  0  0  0  0
   42.3180   31.6070   42.5960 C   0  0  0  0  0  3  0  0  0  0  0  0
   43.2730   31.0990   42.3800 H   0  0  0  0  0  0  0  0  0  0  0  0
   42.3000   32.8590   41.9100 N   0  0  0  0  0  0  0  0  0  0  0  0
   41.3570   33.2790   41.9170 H   0  0  0  0  0  0  0  0  0  0  0  0
   42.7840   32.6400   40.5620 C   0  0  0  0  0  2  0  0  0  0  0  0
   42.5270   31.2330   40.0900 C   0  0  0  0  0  2  0  0  0  0  0  0
  1 13  1  0  0  0  0
  2 14  1  0  0  0  0
  2  1  2  0  0  0  0
  3  2  1  0  0  0  0
  4  3  2  0  0  0  0
  4  5  1  0  0  0  0
  5  6  2  0  0  0  0
  6  1  1  0  0  0  0
  7 12  1  0  0  0  0
  7  5  1  0  0  0  0
  8 17  1  0  0  0  0
  8  7  1  0  0  0  0
  9 10  1  0  0  0  0
  9  8  1  0  0  0  0
 10 11  1  0  0  0  0
 11 12  1  0  0  0  0
 11 21  1  0  0  0  0
 11 22  1  0  0  0  0
 12 23  1  1  0  0  0
 15  3  1  0  0  0  0
 16  8  1  0  0  0  0
 18  9  1  0  0  0  0
 19  9  1  0  0  0  0
 20 10  1  0  0  0  0
 24 27  1  0  0  0  0
 24 12  1  0  0  0  0
 25 24  1  0  0  0  0
 26 24  1  0  0  0  0
 27 28  1  0  0  0  0
 28 29  1  0  0  0  0
 28 30  1  0  0  0  0
 31 30  1  0  0  0  0
 32 33  1  0  0  0  0
 32 30  1  0  0  0  0
 34 32  1  0  0  0  0
 35 34  1  0  0  0  0
 35 27  1  0  0  0  0
M  END
>  <minimizedAffinity>
-4.74521208

$$$$

 OpenBabel03242517263D

 35 37  0  0  1  0  0  0  0  0999 V2000
   39.4060   27.9700   42.0550 C   0  0  0  0  0  0  0  0  0  0  0  0
   38.4090   27.7860   43.0470 C   0  0  0  0  0  0  0  0  0  0  0  0
   37.2550   28.6100   42.9780 C   0  0  0  0  0  0  0  0  0  0  0  0
   37.1740   29.5200   41.9720 N   0  0  0  0  0  0  0  0  0  0  0  0
   38.1420   29.6630   41.0510 C   0  0  0  0  0  0  0  0  0  0  0  0
   39.2550   28.8890   41.0920 N   0  0  0  0  0  0  0  0  0  0  0  0
   37.9830   30.6180   40.0530 N   0  0  0  0  0  0  0  0  0  0  0  0
   37.8080   32.0080   40.3960 C   0  0  0  0  0  0  0  0  0  0  0  0
   37.2520   32.8570   39.2940 C   0  0  0  0  0  0  0  0  0  0  0  0
   37.6120   32.4810   37.9730 N   0  0  0  0  0  0  0  0  0  0  0  0
   38.5620   31.4070   37.9210 C   0  0  0  0  0  0  0  0  0  0  0  0
   37.9850   30.2470   38.6460 C   0  0  2  0  0  0  0  0  0  0  0  0
   40.2530   27.3080   42.1730 H   0  0  0  0  0  0  0  0  0  0  0  0
   38.4120   27.0960   43.8540 H   0  0  0  0  0  0  0  0  0  0  0  0
   36.4580   28.5200   43.7040 H   0  0  0  0  0  0  0  0  0  0  0  0
   37.1310   32.0580   41.2740 H   0  0  0  0  0  0  0  0  0  0  0  0
   38.7920   32.4310   40.6830 H   0  0  0  0  0  0  0  0  0  0  0  0
   37.5670   33.9160   39.5070 H   0  0  0  0  0  0  0  0  0  0  0  0
   36.1430   32.8460   39.3790 H   0  0  0  0  0  0  0  0  0  0  0  0
   36.8180   32.3420   37.3080 H   0  0  0  0  0  0  0  0  0  0  0  0
   38.7050   31.1210   36.8570 H   0  0  0  0  0  0  0  0  0  0  0  0
   39.5150   31.7090   38.3840 H   0  0  0  0  0  0  0  0  0  0  0  0
   38.7260   29.4050   38.5840 H   0  0  0  0  0  0  0  0  0  0  0  0
   36.6390   29.8360   38.1490 C   0  0  0  0  0  0  0  0  0  0  0  0
   35.9240   29.9240   39.0160 H   0  0  0  0  0  0  0  0  0  0  0  0
   36.3000   30.5380   37.3870 H   0  0  0  0  0  0  0  0  0  0  0  0
   36.5970   28.4470   37.7610 N   0  0  0  0  0  0  0  0  0  0  0  0
   37.9150   27.8860   37.5710 C   0  0  0  0  0  3  0  0  0  0  0  0
   38.7220   28.6140   37.8130 H   0  0  0  0  0  0  0  0  0  0  0  0
   38.1060   27.4950   36.1230 C   0  0  0  0  0  3  0  0  0  0  0  0
   37.4120   26.6610   35.9270 H   0  0  0  0  0  0  0  0  0  0  0  0
   37.7460   28.5970   35.2910 N   0  0  0  0  0  0  0  0  0  0  0  0
   38.2340   29.4610   35.5760 H   0  0  0  0  0  0  0  0  0  0  0  0
   36.3050   28.7480   35.3430 C   0  0  0  0  0  2  0  0  0  0  0  0
   35.7300   28.2380   36.6380 C   0  0  0  0  0  2  0  0  0  0  0  0
  1 13  1  0  0  0  0
  1  2  1  0  0  0  0
  2 14  1  0  0  0  0
  3  2  2  0  0  0  0
  3 15  1  0  0  0  0
  4  3  1  0  0  0  0
  5  6  1  0  0  0  0
  5  4  2  0  0  0  0
  6  1  2  0  0  0  0
  7  8  1  0  0  0  0
  7  5  1  0  0  0  0
  8 17  1  0  0  0  0
  8 16  1  0  0  0  0
  9 19  1  0  0  0  0
  9 18  1  0  0  0  0
  9  8  1  0  0  0  0
 10  9  1  0  0  0  0
 11 10  1  0  0  0  0
 11 22  1  0  0  0  0
 11 12  1  0  0  0  0
 12 23  1  6  0  0  0
 12  7  1  0  0  0  0
 20 10  1  0  0  0  0
 21 11  1  0  0  0  0
 24 12  1  0  0  0  0
 24 25  1  0  0  0  0
 26 24  1  0  0  0  0
 27 24  1  0  0  0  0
 28 27  1  0  0  0  0
 28 29  1  0  0  0  0
 30 28  1  0  0  0  0
 31 30  1  0  0  0  0
 32 34  1  0  0  0  0
 32 33  1  0  0  0  0
 32 30  1  0  0  0  0
 34 35  1  0  0  0  0
 35 27  1  0  0  0  0
M  END
>  <minimizedAffinity>
-4.73332691

$$$$

 OpenBabel03242517263D

 35 37  0  0  1  0  0  0  0  0999 V2000
   37.0190   23.6470   40.5590 C   0  0  0  0  0  0  0  0  0  0  0  0
   37.5450   23.6800   39.2420 C   0  0  0  0  0  0  0  0  0  0  0  0
   37.9880   24.9330   38.7430 C   0  0  0  0  0  0  0  0  0  0  0  0
   37.8820   26.0210   39.5520 N   0  0  0  0  0  0  0  0  0  0  0  0
   37.3770   25.9470   40.7950 C   0  0  0  0  0  0  0  0  0  0  0  0
   36.9470   24.7630   41.2970 N   0  0  0  0  0  0  0  0  0  0  0  0
   37.3040   27.1070   41.5590 N   0  0  0  0  0  0  0  0  0  0  0  0
   36.5490   28.2420   41.0890 C   0  0  0  0  0  0  0  0  0  0  0  0
   36.8710   29.5330   41.7760 C   0  0  0  0  0  0  0  0  0  0  0  0
   37.2510   29.4360   43.1420 N   0  0  0  0  0  0  0  0  0  0  0  0
   37.1430   28.1080   43.6740 C   0  0  0  0  0  0  0  0  0  0  0  0
   37.9820   27.2100   42.8420 C   0  0  2  0  0  0  0  0  0  0  0  0
   36.7020   22.6610   40.8680 H   0  0  0  0  0  0  0  0  0  0  0  0
   37.6540   22.8710   38.5640 H   0  0  0  0  0  0  0  0  0  0  0  0
   38.3990   25.0270   37.7470 H   0  0  0  0  0  0  0  0  0  0  0  0
   36.7400   28.3490   40.0000 H   0  0  0  0  0  0  0  0  0  0  0  0
   35.4690   28.0410   41.2400 H   0  0  0  0  0  0  0  0  0  0  0  0
   35.9720   30.1990   41.6600 H   0  0  0  0  0  0  0  0  0  0  0  0
   37.6920   30.0280   41.2110 H   0  0  0  0  0  0  0  0  0  0  0  0
   38.1560   29.8940   43.3940 H   0  0  0  0  0  0  0  0  0  0  0  0
   37.5510   28.1140   44.7070 H   0  0  0  0  0  0  0  0  0  0  0  0
   36.0940   27.7700   43.6620 H   0  0  0  0  0  0  0  0  0  0  0  0
   37.9070   26.1760   43.2770 H   0  0  0  0  0  0  0  0  0  0  0  0
   39.4010   27.6550   42.7180 C   0  0  0  0  0  0  0  0  0  0  0  0
   39.7700   27.3090   41.7100 H   0  0  0  0  0  0  0  0  0  0  0  0
   39.4430   28.7440   42.7140 H   0  0  0  0  0  0  0  0  0  0  0  0
   40.2650   27.0140   43.6800 N   0  0  0  0  0  0  0  0  0  0  0  0
   41.6420   27.4310   43.5500 C   0  0  0  0  0  3  0  0  0  0  0  0
   41.7750   28.2130   42.7690 H   0  0  0  0  0  0  0  0  0  0  0  0
   42.5010   26.2570   43.1370 C   0  0  0  0  0  3  0  0  0  0  0  0
   42.4960   25.5500   43.9820 H   0  0  0  0  0  0  0  0  0  0  0  0
   41.9090   25.6220   42.0030 N   0  0  0  0  0  0  0  0  0  0  0  0
   41.7090   26.3010   41.2520 H   0  0  0  0  0  0  0  0  0  0  0  0
   40.7100   24.9380   42.4470 C   0  0  0  0  0  2  0  0  0  0  0  0
   40.1060   25.5890   43.6640 C   0  0  0  0  0  2  0  0  0  0  0  0
  1 13  1  0  0  0  0
  1  6  1  0  0  0  0
  2  1  2  0  0  0  0
  3  2  1  0  0  0  0
  3  4  2  0  0  0  0
  4  5  1  0  0  0  0
  5  6  2  0  0  0  0
  5  7  1  0  0  0  0
  7 12  1  0  0  0  0
  8 17  1  0  0  0  0
  8  7  1  0  0  0  0
  8  9  1  0  0  0  0
  9 10  1  0  0  0  0
 10 20  1  0  0  0  0
 10 11  1  0  0  0  0
 11 21  1  0  0  0  0
 12 23  1  1  0  0  0
 12 11  1  0  0  0  0
 14  2  1  0  0  0  0
 15  3  1  0  0  0  0
 16  8  1  0  0  0  0
 18  9  1  0  0  0  0
 19  9  1  0  0  0  0
 22 11  1  0  0  0  0
 24 12  1  0  0  0  0
 24 27  1  0  0  0  0
 25 24  1  0  0  0  0
 26 24  1  0  0  0  0
 28 27  1  0  0  0  0
 29 28  1  0  0  0  0
 30 28  1  0  0  0  0
 30 31  1  0  0  0  0
 32 34  1  0  0  0  0
 32 30  1  0  0  0  0
 33 32  1  0  0  0  0
 34 35  1  0  0  0  0
 35 27  1  0  0  0  0
M  END
>  <minimizedAffinity>
-4.66403961

$$$$

 OpenBabel03242517263D

 35 37  0  0  1  0  0  0  0  0999 V2000
   39.3380   31.6700   38.6010 C   0  0  0  0  0  0  0  0  0  0  0  0
   38.6950   32.7780   39.2110 C   0  0  0  0  0  0  0  0  0  0  0  0
   37.3230   32.6370   39.5450 C   0  0  0  0  0  0  0  0  0  0  0  0
   36.7100   31.4570   39.2640 N   0  0  0  0  0  0  0  0  0  0  0  0
   37.3560   30.4310   38.6850 C   0  0  0  0  0  0  0  0  0  0  0  0
   38.6670   30.5370   38.3550 N   0  0  0  0  0  0  0  0  0  0  0  0
   36.6570   29.2560   38.4310 N   0  0  0  0  0  0  0  0  0  0  0  0
   35.4860   29.2720   37.5890 C   0  0  0  0  0  0  0  0  0  0  0  0
   34.6080   28.0660   37.7180 C   0  0  0  0  0  0  0  0  0  0  0  0
   35.2670   26.8420   38.0100 N   0  0  0  0  0  0  0  0  0  0  0  0
   36.6980   26.9480   38.0130 C   0  0  0  0  0  0  0  0  0  0  0  0
   37.0800   27.9870   39.0030 C   0  0  2  0  0  0  0  0  0  0  0  0
   40.3800   31.8530   38.3760 H   0  0  0  0  0  0  0  0  0  0  0  0
   39.1150   33.7220   39.4550 H   0  0  0  0  0  0  0  0  0  0  0  0
   36.7730   33.4450   40.0120 H   0  0  0  0  0  0  0  0  0  0  0  0
   34.8990   30.1810   37.8420 H   0  0  0  0  0  0  0  0  0  0  0  0
   35.8080   29.3430   36.5300 H   0  0  0  0  0  0  0  0  0  0  0  0
   34.0230   27.9840   36.7610 H   0  0  0  0  0  0  0  0  0  0  0  0
   33.8600   28.2680   38.5160 H   0  0  0  0  0  0  0  0  0  0  0  0
   34.9050   26.3190   38.8390 H   0  0  0  0  0  0  0  0  0  0  0  0
   37.1170   25.9750   38.3460 H   0  0  0  0  0  0  0  0  0  0  0  0
   37.0690   27.2200   37.0120 H   0  0  0  0  0  0  0  0  0  0  0  0
   38.2020   28.0500   39.0130 H   0  0  0  0  0  0  0  0  0  0  0  0
   36.5270   27.7490   40.3690 C   0  0  0  0  0  0  0  0  0  0  0  0
   36.1170   28.7330   40.7360 H   0  0  0  0  0  0  0  0  0  0  0  0
   35.6870   27.0580   40.3080 H   0  0  0  0  0  0  0  0  0  0  0  0
   37.5500   27.3860   41.3200 N   0  0  0  0  0  0  0  0  0  0  0  0
   37.0010   26.9500   42.5830 C   0  0  0  0  0  3  0  0  0  0  0  0
   35.8880   26.9210   42.5720 H   0  0  0  0  0  0  0  0  0  0  0  0
   37.3960   27.9140   43.6790 C   0  0  0  0  0  3  0  0  0  0  0  0
   38.4890   27.8250   43.7990 H   0  0  0  0  0  0  0  0  0  0  0  0
   37.0870   29.2440   43.2640 N   0  0  0  0  0  0  0  0  0  0  0  0
   36.1080   29.3230   42.9480 H   0  0  0  0  0  0  0  0  0  0  0  0
   38.0230   29.6190   42.2230 C   0  0  0  0  0  2  0  0  0  0  0  0
   38.5310   28.4220   41.4620 C   0  0  0  0  0  2  0  0  0  0  0  0
  1  2  1  0  0  0  0
  2 14  1  0  0  0  0
  2  3  2  0  0  0  0
  3 15  1  0  0  0  0
  4  3  1  0  0  0  0
  5  4  2  0  0  0  0
  6  1  2  0  0  0  0
  6  5  1  0  0  0  0
  7  5  1  0  0  0  0
  7 12  1  0  0  0  0
  8  9  1  0  0  0  0
  8 16  1  0  0  0  0
  8  7  1  0  0  0  0
  9 10  1  0  0  0  0
  9 19  1  0  0  0  0
 10 11  1  0  0  0  0
 10 20  1  0  0  0  0
 11 21  1  0  0  0  0
 11 12  1  0  0  0  0
 12 23  1  1  0  0  0
 12 24  1  0  0  0  0
 13  1  1  0  0  0  0
 17  8  1  0  0  0  0
 18  9  1  0  0  0  0
 22 11  1  0  0  0  0
 24 25  1  0  0  0  0
 24 27  1  0  0  0  0
 26 24  1  0  0  0  0
 27 35  1  0  0  0  0
 27 28  1  0  0  0  0
 28 30  1  0  0  0  0
 29 28  1  0  0  0  0
 30 31  1  0  0  0  0
 32 30  1  0  0  0  0
 33 32  1  0  0  0  0
 34 32  1  0  0  0  0
 35 34  1  0  0  0  0
M  END
>  <minimizedAffinity>
-4.65292311

$$$$

 OpenBabel03242517263D

 35 37  0  0  1  0  0  0  0  0999 V2000
   37.7050   28.9060   43.2210 C   0  0  0  0  0  0  0  0  0  0  0  0
   38.3470   27.6620   42.9910 C   0  0  0  0  0  0  0  0  0  0  0  0
   38.8180   27.3990   41.6790 C   0  0  0  0  0  0  0  0  0  0  0  0
   38.6280   28.3480   40.7250 N   0  0  0  0  0  0  0  0  0  0  0  0
   38.0140   29.5150   40.9840 C   0  0  0  0  0  0  0  0  0  0  0  0
   37.5540   29.7940   42.2290 N   0  0  0  0  0  0  0  0  0  0  0  0
   37.8590   30.4350   39.9520 N   0  0  0  0  0  0  0  0  0  0  0  0
   37.1360   30.0740   38.7570 C   0  0  0  0  0  0  0  0  0  0  0  0
   37.3800   30.9740   37.5850 C   0  0  0  0  0  0  0  0  0  0  0  0
   37.6360   32.3380   37.8870 N   0  0  0  0  0  0  0  0  0  0  0  0
   37.4960   32.6530   39.2800 C   0  0  0  0  0  0  0  0  0  0  0  0
   38.4170   31.7750   40.0450 C   0  0  2  0  0  0  0  0  0  0  0  0
   37.3730   29.0330   44.2420 H   0  0  0  0  0  0  0  0  0  0  0  0
   38.5260   26.8830   43.6900 H   0  0  0  0  0  0  0  0  0  0  0  0
   39.3170   26.4690   41.4370 H   0  0  0  0  0  0  0  0  0  0  0  0
   37.4230   29.0360   38.4880 H   0  0  0  0  0  0  0  0  0  0  0  0
   36.0490   30.0950   38.9770 H   0  0  0  0  0  0  0  0  0  0  0  0
   36.4870   30.8780   36.9070 H   0  0  0  0  0  0  0  0  0  0  0  0
   38.2420   30.5670   37.0130 H   0  0  0  0  0  0  0  0  0  0  0  0
   38.5100   32.7380   37.4750 H   0  0  0  0  0  0  0  0  0  0  0  0
   37.8090   33.7080   39.4310 H   0  0  0  0  0  0  0  0  0  0  0  0
   36.4570   32.4960   39.6110 H   0  0  0  0  0  0  0  0  0  0  0  0
   38.3150   32.0410   41.1320 H   0  0  0  0  0  0  0  0  0  0  0  0
   39.8360   31.8490   39.5880 C   0  0  0  0  0  0  0  0  0  0  0  0
   40.4810   31.5440   40.4610 H   0  0  0  0  0  0  0  0  0  0  0  0
   40.0050   31.1170   38.7990 H   0  0  0  0  0  0  0  0  0  0  0  0
   40.2420   33.1960   39.2690 N   0  0  0  0  0  0  0  0  0  0  0  0
   41.1680   33.2470   38.1610 C   0  0  0  0  0  3  0  0  0  0  0  0
   41.3550   32.2420   37.7210 H   0  0  0  0  0  0  0  0  0  0  0  0
   42.5070   33.7680   38.6300 C   0  0  0  0  0  3  0  0  0  0  0  0
   42.3520   34.8210   38.9190 H   0  0  0  0  0  0  0  0  0  0  0  0
   42.9180   33.0320   39.7820 N   0  0  0  0  0  0  0  0  0  0  0  0
   42.8820   32.0150   39.6110 H   0  0  0  0  0  0  0  0  0  0  0  0
   42.0710   33.4240   40.8910 C   0  0  0  0  0  2  0  0  0  0  0  0
   40.7160   33.8940   40.4290 C   0  0  0  0  0  2  0  0  0  0  0  0
  1 13  1  0  0  0  0
  2  1  1  0  0  0  0
  2 14  1  0  0  0  0
  3  2  2  0  0  0  0
  4  5  2  0  0  0  0
  4  3  1  0  0  0  0
  5  6  1  0  0  0  0
  6  1  2  0  0  0  0
  7 12  1  0  0  0  0
  7  5  1  0  0  0  0
  8 17  1  0  0  0  0
  8  7  1  0  0  0  0
  9 10  1  0  0  0  0
  9  8  1  0  0  0  0
 10 11  1  0  0  0  0
 11 21  1  0  0  0  0
 11 22  1  0  0  0  0
 11 12  1  0  0  0  0
 12 23  1  1  0  0  0
 15  3  1  0  0  0  0
 16  8  1  0  0  0  0
 18  9  1  0  0  0  0
 19  9  1  0  0  0  0
 20 10  1  0  0  0  0
 24 12  1  0  0  0  0
 24 25  1  0  0  0  0
 26 24  1  0  0  0  0
 27 24  1  0  0  0  0
 27 35  1  0  0  0  0
 28 30  1  0  0  0  0
 28 27  1  0  0  0  0
 29 28  1  0  0  0  0
 30 31  1  0  0  0  0
 30 32  1  0  0  0  0
 32 34  1  0  0  0  0
 33 32  1  0  0  0  0
 35 34  1  0  0  0  0
M  END
>  <minimizedAffinity>
-4.63984442

$$$$

 OpenBabel03242517263D

 35 37  0  0  1  0  0  0  0  0999 V2000
   39.6000   24.6690   39.5390 C   0  0  0  0  0  0  0  0  0  0  0  0
   38.5280   24.0360   38.8580 C   0  0  0  0  0  0  0  0  0  0  0  0
   37.2090   24.4380   39.1950 C   0  0  0  0  0  0  0  0  0  0  0  0
   37.0520   25.3980   40.1440 N   0  0  0  0  0  0  0  0  0  0  0  0
   38.0950   25.9720   40.7670 C   0  0  0  0  0  0  0  0  0  0  0  0
   39.3660   25.6090   40.4650 N   0  0  0  0  0  0  0  0  0  0  0  0
   37.8490   26.9480   41.7270 N   0  0  0  0  0  0  0  0  0  0  0  0
   37.0500   26.6430   42.8880 C   0  0  0  0  0  0  0  0  0  0  0  0
   36.5260   27.8410   43.6170 C   0  0  0  0  0  0  0  0  0  0  0  0
   37.3530   28.9960   43.5960 N   0  0  0  0  0  0  0  0  0  0  0  0
   38.6260   28.7780   42.9710 C   0  0  0  0  0  0  0  0  0  0  0  0
   38.3830   28.2940   41.5890 C   0  0  2  0  0  0  0  0  0  0  0  0
   40.5730   24.3110   39.2300 H   0  0  0  0  0  0  0  0  0  0  0  0
   38.5840   23.2840   38.1110 H   0  0  0  0  0  0  0  0  0  0  0  0
   36.3480   23.9950   38.7130 H   0  0  0  0  0  0  0  0  0  0  0  0
   36.1960   26.0140   42.5560 H   0  0  0  0  0  0  0  0  0  0  0  0
   37.6650   26.0570   43.6000 H   0  0  0  0  0  0  0  0  0  0  0  0
   36.3230   27.5170   44.6750 H   0  0  0  0  0  0  0  0  0  0  0  0
   35.5360   28.1030   43.1830 H   0  0  0  0  0  0  0  0  0  0  0  0
   36.8940   29.8760   43.2680 H   0  0  0  0  0  0  0  0  0  0  0  0
   39.1560   29.7530   42.9140 H   0  0  0  0  0  0  0  0  0  0  0  0
   39.2140   28.0380   43.5360 H   0  0  0  0  0  0  0  0  0  0  0  0
   39.3840   28.1450   41.1000 H   0  0  0  0  0  0  0  0  0  0  0  0
   37.5030   29.1910   40.7830 C   0  0  0  0  0  0  0  0  0  0  0  0
   37.5750   28.8500   39.7110 H   0  0  0  0  0  0  0  0  0  0  0  0
   36.4660   29.0580   41.0890 H   0  0  0  0  0  0  0  0  0  0  0  0
   37.9680   30.5580   40.7780 N   0  0  0  0  0  0  0  0  0  0  0  0
   36.8920   31.5060   40.6050 C   0  0  0  0  0  3  0  0  0  0  0  0
   35.8960   31.0120   40.5620 H   0  0  0  0  0  0  0  0  0  0  0  0
   37.0620   32.2470   39.2980 C   0  0  0  0  0  3  0  0  0  0  0  0
   37.9710   32.8640   39.4000 H   0  0  0  0  0  0  0  0  0  0  0  0
   37.2650   31.3010   38.2480 N   0  0  0  0  0  0  0  0  0  0  0  0
   36.5300   30.5770   38.2450 H   0  0  0  0  0  0  0  0  0  0  0  0
   38.5870   30.7280   38.4100 C   0  0  0  0  0  2  0  0  0  0  0  0
   39.0400   30.7480   39.8460 C   0  0  0  0  0  2  0  0  0  0  0  0
  1  6  1  0  0  0  0
  2  3  1  0  0  0  0
  2  1  2  0  0  0  0
  3  4  2  0  0  0  0
  4  5  1  0  0  0  0
  5  7  1  0  0  0  0
  6  5  2  0  0  0  0
  7  8  1  0  0  0  0
  8 17  1  0  0  0  0
  8  9  1  0  0  0  0
  9 18  1  0  0  0  0
 10  9  1  0  0  0  0
 11 22  1  0  0  0  0
 11 10  1  0  0  0  0
 12 23  1  6  0  0  0
 12  7  1  0  0  0  0
 12 11  1  0  0  0  0
 13  1  1  0  0  0  0
 14  2  1  0  0  0  0
 15  3  1  0  0  0  0
 16  8  1  0  0  0  0
 19  9  1  0  0  0  0
 20 10  1  0  0  0  0
 21 11  1  0  0  0  0
 24 26  1  0  0  0  0
 24 12  1  0  0  0  0
 25 24  1  0  0  0  0
 27 24  1  0  0  0  0
 28 27  1  0  0  0  0
 29 28  1  0  0  0  0
 30 31  1  0  0  0  0
 30 28  1  0  0  0  0
 32 34  1  0  0  0  0
 32 30  1  0  0  0  0
 33 32  1  0  0  0  0
 34 35  1  0  0  0  0
 35 27  1  0  0  0  0
M  END
>  <minimizedAffinity>
-4.55124712

$$$$
