
 OpenBabel03252506403D

 40 43  0  0  1  0  0  0  0  0999 V2000
   49.4140   33.3400   41.4500 N   0  0  1  0  0  0  0  0  0  0  0  0
   50.6870   33.1270   42.1370 C   0  0  0  0  0  0  0  0  0  0  0  0
   51.3030   31.8070   41.8010 C   0  0  0  0  0  0  0  0  0  0  0  0
   50.4690   30.7210   42.4210 C   0  0  0  0  0  0  0  0  0  0  0  0
   49.0070   31.0550   42.2970 C   0  0  0  0  0  0  0  0  0  0  0  0
   48.7760   32.0700   41.2160 C   0  0  2  0  0  0  0  0  0  0  0  0
   50.5870   33.2090   43.2190 H   0  0  0  0  0  0  0  0  0  0  0  0
   51.3780   33.9440   41.8020 H   0  0  0  0  0  0  0  0  0  0  0  0
   52.2820   31.7900   42.3490 H   0  0  0  0  0  0  0  0  0  0  0  0
   51.5520   31.6420   40.7570 H   0  0  0  0  0  0  0  0  0  0  0  0
   50.7130   29.7750   41.9310 H   0  0  0  0  0  0  0  0  0  0  0  0
   50.6940   30.5900   43.5010 H   0  0  0  0  0  0  0  0  0  0  0  0
   48.4860   30.1360   42.0240 H   0  0  0  0  0  0  0  0  0  0  0  0
   48.6020   31.4700   43.2500 H   0  0  0  0  0  0  0  0  0  0  0  0
   47.6750   32.3070   41.3580 H   0  0  0  0  0  0  0  0  0  0  0  0
   48.8830   31.5720   39.8970 N   0  0  1  0  0  0  0  0  0  0  0  0
   48.0050   30.4720   39.6750 C   0  0  0  0  0  0  0  0  0  0  0  0
   47.2970   30.4090   40.5400 H   0  0  0  0  0  0  0  0  0  0  0  0
   47.1150   30.8000   38.4800 C   0  0  0  0  0  0  0  0  0  0  0  0
   46.2940   30.0970   38.3570 H   0  0  0  0  0  0  0  0  0  0  0  0
   48.0280   30.8280   37.3480 N   0  0  0  0  0  0  0  0  0  0  0  0
   47.5200   30.8720   36.4280 H   0  0  0  0  0  0  0  0  0  0  0  0
   48.7760   32.0520   37.4840 C   0  0  0  0  0  0  0  0  0  0  0  0
   49.0080   32.5240   38.8630 C   0  0  0  0  0  0  0  0  0  0  0  0
   47.2420   34.6300   41.9820 C   0  0  1  0  0  0  0  0  0  0  0  0
   48.3540   35.5610   41.7300 C   0  0  0  0  0  0  0  0  0  0  0  0
   48.6470   34.2120   42.2770 C   0  0  2  0  0  0  0  0  0  0  0  0
   46.7460   34.2470   41.0690 H   0  0  0  0  0  0  0  0  0  0  0  0
   48.6550   35.7920   40.6700 H   0  0  0  0  0  0  0  0  0  0  0  0
   48.4740   36.4590   42.3820 H   0  0  0  0  0  0  0  0  0  0  0  0
   48.8720   34.1260   43.3610 H   0  0  0  0  0  0  0  0  0  0  0  0
   45.5200   36.0430   43.1600 C   0  0  0  0  0  0  0  0  0  0  0  0
   46.3220   34.8860   43.1190 C   0  0  0  0  0  0  0  0  0  0  0  0
   46.2120   33.9800   44.1840 C   0  0  0  0  0  0  0  0  0  0  0  0
   45.3430   34.2640   45.1940 N   0  0  0  0  0  0  0  0  0  0  0  0
   44.5860   35.3950   45.1940 C   0  0  0  0  0  0  0  0  0  0  0  0
   44.6750   36.2890   44.1730 N   0  0  0  0  0  0  0  0  0  0  0  0
   45.5680   36.7700   42.3670 H   0  0  0  0  0  0  0  0  0  0  0  0
   46.8010   33.0790   44.2030 H   0  0  0  0  0  0  0  0  0  0  0  0
   43.9650   35.4270   46.0860 H   0  0  0  0  0  0  0  0  0  0  0  0
  1  2  1  1  0  0  0
  1 27  1  0  0  0  0
  2  7  1  0  0  0  0
  3  2  1  0  0  0  0
  3  9  1  0  0  0  0
  3  4  1  0  0  0  0
  4 12  1  0  0  0  0
  5  4  1  0  0  0  0
  5 14  1  0  0  0  0
  6 15  1  1  0  0  0
  6  1  1  0  0  0  0
  6  5  1  0  0  0  0
  8  2  1  0  0  0  0
 10  3  1  0  0  0  0
 11  4  1  0  0  0  0
 13  5  1  0  0  0  0
 16 24  1  6  0  0  0
 16  6  1  0  0  0  0
 17 16  1  0  0  0  0
 17 18  1  0  0  0  0
 19 17  1  0  0  0  0
 20 19  1  0  0  0  0
 21 23  1  0  0  0  0
 21 19  1  0  0  0  0
 22 21  1  0  0  0  0
 23 24  1  0  0  0  0
 25 28  1  6  0  0  0
 25 27  1  0  0  0  0
 25 33  1  0  0  0  0
 26 25  1  0  0  0  0
 26 27  1  0  0  0  0
 26 30  1  0  0  0  0
 27 31  1  1  0  0  0
 29 26  1  0  0  0  0
 32 37  1  0  0  0  0
 33 32  2  0  0  0  0
 33 34  1  0  0  0  0
 34 39  1  0  0  0  0
 34 35  2  0  0  0  0
 35 36  1  0  0  0  0
 36 40  1  0  0  0  0
 37 36  2  0  0  0  0
 38 32  1  0  0  0  0
M  END
>  <minimizedAffinity>
-4.9027648

>  <minimizedRMSD>
0.873089075

$$$$
