
 OpenBabel03252509273D

 30 32  0  0  1  0  0  0  0  0999 V2000
   37.7950   31.7400   40.1630 C   0  0  1  0  0  0  0  0  0  0  0  0
   36.7570   31.4190   39.0580 C   0  0  0  0  0  0  0  0  0  0  0  0
   37.5740   30.3850   39.8590 C   0  0  2  0  0  0  0  0  0  0  0  0
   37.3100   32.2600   40.9930 H   0  0  0  0  0  0  0  0  0  0  0  0
   37.0050   31.6220   38.0160 H   0  0  0  0  0  0  0  0  0  0  0  0
   35.6930   31.4140   39.3250 H   0  0  0  0  0  0  0  0  0  0  0  0
   38.2130   29.7770   39.1600 H   0  0  0  0  0  0  0  0  0  0  0  0
   40.6190   34.1450   39.6320 C   0  0  0  0  0  0  0  0  0  0  0  0
   39.4490   33.5710   40.1970 C   0  0  0  0  0  0  0  0  0  0  0  0
   38.9960   32.4400   39.5890 C   0  0  0  0  0  0  0  0  0  0  0  0
   39.6380   31.9070   38.5020 N   0  0  0  0  0  0  0  0  0  0  0  0
   40.7470   32.4850   37.9950 C   0  0  0  0  0  0  0  0  0  0  0  0
   41.2350   33.6110   38.5700 N   0  0  0  0  0  0  0  0  0  0  0  0
   41.0290   35.0500   40.0760 H   0  0  0  0  0  0  0  0  0  0  0  0
   41.1160   31.9290   37.1440 H   0  0  0  0  0  0  0  0  0  0  0  0
   38.7860   34.1610   41.3030 N   0  0  0  0  0  0  0  0  0  0  0  0
   38.7510   33.8810   42.3040 H   0  0  0  0  0  0  0  0  0  0  0  0
   38.3210   34.9850   40.8330 H   0  0  0  0  0  0  0  0  0  0  0  0
   36.8430   29.4800   40.8280 C   0  0  0  0  0  0  0  0  0  0  0  0
   35.7890   29.3400   40.5680 H   0  0  0  0  0  0  0  0  0  0  0  0
   36.8270   30.0410   41.8090 H   0  0  0  0  0  0  0  0  0  0  0  0
   37.6030   28.3030   41.0800 N   0  0  0  0  0  0  0  0  0  0  0  0
   36.9480   27.3030   41.8710 C   0  0  0  0  0  3  0  0  0  0  0  0
   37.6860   26.4470   41.9300 H   0  0  0  0  0  0  0  0  0  0  0  0
   36.6890   27.7080   43.2900 C   0  0  0  0  0  3  0  0  0  0  0  0
   37.0040   26.9230   44.0290 H   0  0  0  0  0  0  0  0  0  0  0  0
   37.2590   28.9560   43.6790 N   0  0  0  0  0  0  0  0  0  0  0  0
   37.3420   28.9560   44.7310 H   0  0  0  0  0  0  0  0  0  0  0  0
   38.5440   29.2530   43.1250 C   0  0  0  0  0  2  0  0  0  0  0  0
   38.8280   28.6470   41.7920 C   0  0  0  0  0  2  0  0  0  0  0  0
  1  4  1  1  0  0  0
  2  6  1  0  0  0  0
  2  3  1  0  0  0  0
  2  1  1  0  0  0  0
  3  7  1  6  0  0  0
  3  1  1  0  0  0  0
  3 19  1  0  0  0  0
  5  2  1  0  0  0  0
  8 14  1  0  0  0  0
  8  9  1  0  0  0  0
  9 16  1  0  0  0  0
 10  1  1  0  0  0  0
 10  9  2  0  0  0  0
 11 10  1  0  0  0  0
 12 11  2  0  0  0  0
 12 13  1  0  0  0  0
 13  8  2  0  0  0  0
 15 12  1  0  0  0  0
 16 17  1  0  0  0  0
 18 16  1  0  0  0  0
 19 22  1  0  0  0  0
 19 21  1  0  0  0  0
 20 19  1  0  0  0  0
 22 30  1  0  0  0  0
 22 23  1  0  0  0  0
 23 24  1  0  0  0  0
 23 25  1  0  0  0  0
 25 27  1  0  0  0  0
 25 26  1  0  0  0  0
 27 28  1  0  0  0  0
 29 27  1  0  0  0  0
 30 29  1  0  0  0  0
M  END
>  <minimizedAffinity>
-4.9677434

$$$$

 OpenBabel03252509273D

 30 32  0  0  1  0  0  0  0  0999 V2000
   38.1780   29.2990   42.3200 C   0  0  1  0  0  0  0  0  0  0  0  0
   39.5770   29.5930   42.9180 C   0  0  0  0  0  0  0  0  0  0  0  0
   39.0530   30.0910   41.5550 C   0  0  2  0  0  0  0  0  0  0  0  0
   37.4000   29.7110   42.9680 H   0  0  0  0  0  0  0  0  0  0  0  0
   40.3210   28.7960   42.9580 H   0  0  0  0  0  0  0  0  0  0  0  0
   39.6730   30.4010   43.6530 H   0  0  0  0  0  0  0  0  0  0  0  0
   39.7070   29.7000   40.7270 H   0  0  0  0  0  0  0  0  0  0  0  0
   36.9510   25.7590   42.2420 C   0  0  0  0  0  0  0  0  0  0  0  0
   37.0720   27.1170   42.6420 C   0  0  0  0  0  0  0  0  0  0  0  0
   38.0260   27.8390   41.9930 C   0  0  0  0  0  0  0  0  0  0  0  0
   38.8120   27.2750   41.0220 N   0  0  0  0  0  0  0  0  0  0  0  0
   38.6650   25.9800   40.6710 C   0  0  0  0  0  0  0  0  0  0  0  0
   37.7250   25.2240   41.2900 N   0  0  0  0  0  0  0  0  0  0  0  0
   36.2040   25.1330   42.7250 H   0  0  0  0  0  0  0  0  0  0  0  0
   39.3650   25.7100   39.8920 H   0  0  0  0  0  0  0  0  0  0  0  0
   36.2680   27.6670   43.6730 N   0  0  0  0  0  0  0  0  0  0  0  0
   35.4570   28.3170   43.6300 H   0  0  0  0  0  0  0  0  0  0  0  0
   36.7190   27.2320   44.5230 H   0  0  0  0  0  0  0  0  0  0  0  0
   38.8030   31.5740   41.3760 C   0  0  0  0  0  0  0  0  0  0  0  0
   39.0830   32.1630   42.2540 H   0  0  0  0  0  0  0  0  0  0  0  0
   37.6800   31.6820   41.3000 H   0  0  0  0  0  0  0  0  0  0  0  0
   39.3090   32.0150   40.1200 N   0  0  0  0  0  0  0  0  0  0  0  0
   39.4200   33.4360   39.9640 C   0  0  0  0  0  3  0  0  0  0  0  0
   39.8650   33.5830   38.9350 H   0  0  0  0  0  0  0  0  0  0  0  0
   38.1100   34.1610   39.9430 C   0  0  0  0  0  3  0  0  0  0  0  0
   38.0330   34.8930   39.0950 H   0  0  0  0  0  0  0  0  0  0  0  0
   36.9530   33.3250   39.9310 N   0  0  0  0  0  0  0  0  0  0  0  0
   36.1520   33.8940   39.5470 H   0  0  0  0  0  0  0  0  0  0  0  0
   37.0630   32.1230   39.1640 C   0  0  0  0  0  2  0  0  0  0  0  0
   38.4370   31.5550   39.0450 C   0  0  0  0  0  2  0  0  0  0  0  0
  1  2  1  0  0  0  0
  1  4  1  1  0  0  0
  2  5  1  0  0  0  0
  2  6  1  0  0  0  0
  3  7  1  6  0  0  0
  3  1  1  0  0  0  0
  3  2  1  0  0  0  0
  8  9  1  0  0  0  0
  8 14  1  0  0  0  0
  9 16  1  0  0  0  0
 10  1  1  0  0  0  0
 10  9  2  0  0  0  0
 11 10  1  0  0  0  0
 12 11  2  0  0  0  0
 12 13  1  0  0  0  0
 13  8  2  0  0  0  0
 15 12  1  0  0  0  0
 16 18  1  0  0  0  0
 17 16  1  0  0  0  0
 19  3  1  0  0  0  0
 19 20  1  0  0  0  0
 21 19  1  0  0  0  0
 22 19  1  0  0  0  0
 23 22  1  0  0  0  0
 24 23  1  0  0  0  0
 25 23  1  0  0  0  0
 26 25  1  0  0  0  0
 27 25  1  0  0  0  0
 28 27  1  0  0  0  0
 29 27  1  0  0  0  0
 30 29  1  0  0  0  0
 30 22  1  0  0  0  0
M  END
>  <minimizedAffinity>
-4.69939852

$$$$

 OpenBabel03252509273D

 30 32  0  0  1  0  0  0  0  0999 V2000
   37.9670   27.8660   42.3360 C   0  0  1  0  0  0  0  0  0  0  0  0
   37.4060   28.4930   43.6380 C   0  0  0  0  0  0  0  0  0  0  0  0
   38.3490   29.1870   42.6330 C   0  0  2  0  0  0  0  0  0  0  0  0
   37.1460   27.6120   41.6590 H   0  0  0  0  0  0  0  0  0  0  0  0
   37.7890   28.1560   44.6020 H   0  0  0  0  0  0  0  0  0  0  0  0
   36.3930   28.9120   43.6240 H   0  0  0  0  0  0  0  0  0  0  0  0
   39.3100   29.4720   43.1440 H   0  0  0  0  0  0  0  0  0  0  0  0
   39.4470   24.4460   42.7220 C   0  0  0  0  0  0  0  0  0  0  0  0
   38.4830   25.4570   42.4650 C   0  0  0  0  0  0  0  0  0  0  0  0
   38.9110   26.7370   42.6420 C   0  0  0  0  0  0  0  0  0  0  0  0
   40.1910   27.0130   43.0460 N   0  0  0  0  0  0  0  0  0  0  0  0
   41.0760   26.0220   43.2810 C   0  0  0  0  0  0  0  0  0  0  0  0
   40.6940   24.7320   43.1140 N   0  0  0  0  0  0  0  0  0  0  0  0
   39.1630   23.4030   42.5950 H   0  0  0  0  0  0  0  0  0  0  0  0
   42.0320   26.4240   43.5890 H   0  0  0  0  0  0  0  0  0  0  0  0
   37.1540   25.1430   42.0780 N   0  0  0  0  0  0  0  0  0  0  0  0
   36.6800   25.2140   41.1560 H   0  0  0  0  0  0  0  0  0  0  0  0
   36.7600   24.8070   42.9980 H   0  0  0  0  0  0  0  0  0  0  0  0
   37.8130   30.3510   41.8260 C   0  0  0  0  0  0  0  0  0  0  0  0
   37.5040   31.1960   42.4500 H   0  0  0  0  0  0  0  0  0  0  0  0
   36.8570   29.9750   41.3550 H   0  0  0  0  0  0  0  0  0  0  0  0
   38.6820   30.6430   40.7360 N   0  0  0  0  0  0  0  0  0  0  0  0
   39.3600   31.9030   40.8080 C   0  0  0  0  0  3  0  0  0  0  0  0
   40.0170   31.9340   39.8880 H   0  0  0  0  0  0  0  0  0  0  0  0
   38.4630   33.0970   40.7010 C   0  0  0  0  0  3  0  0  0  0  0  0
   38.8390   33.8580   39.9670 H   0  0  0  0  0  0  0  0  0  0  0  0
   37.0990   32.8060   40.3980 N   0  0  0  0  0  0  0  0  0  0  0  0
   36.6700   33.6780   39.9870 H   0  0  0  0  0  0  0  0  0  0  0  0
   36.8820   31.7240   39.4870 C   0  0  0  0  0  2  0  0  0  0  0  0
   37.9250   30.6580   39.4900 C   0  0  0  0  0  2  0  0  0  0  0  0
  1  4  1  6  0  0  0
  1  3  1  0  0  0  0
  1 10  1  0  0  0  0
  1  2  1  0  0  0  0
  2  5  1  0  0  0  0
  3  7  1  1  0  0  0
  3  2  1  0  0  0  0
  6  2  1  0  0  0  0
  8 13  1  0  0  0  0
  9 10  1  0  0  0  0
  9  8  2  0  0  0  0
 10 11  2  0  0  0  0
 11 12  1  0  0  0  0
 12 15  1  0  0  0  0
 13 12  2  0  0  0  0
 14  8  1  0  0  0  0
 16  9  1  0  0  0  0
 16 18  1  0  0  0  0
 17 16  1  0  0  0  0
 19 20  1  0  0  0  0
 19  3  1  0  0  0  0
 21 19  1  0  0  0  0
 22 23  1  0  0  0  0
 22 19  1  0  0  0  0
 24 23  1  0  0  0  0
 25 23  1  0  0  0  0
 26 25  1  0  0  0  0
 27 25  1  0  0  0  0
 28 27  1  0  0  0  0
 29 30  1  0  0  0  0
 29 27  1  0  0  0  0
 30 22  1  0  0  0  0
M  END
>  <minimizedAffinity>
-4.69735813

$$$$

 OpenBabel03252509273D

 30 32  0  0  1  0  0  0  0  0999 V2000
   38.1820   31.4530   40.7940 C   0  0  1  0  0  0  0  0  0  0  0  0
   36.7790   31.4910   40.1370 C   0  0  0  0  0  0  0  0  0  0  0  0
   37.6710   30.2420   40.2920 C   0  0  2  0  0  0  0  0  0  0  0  0
   38.1110   31.7500   41.8450 H   0  0  0  0  0  0  0  0  0  0  0  0
   36.6580   31.9570   39.1590 H   0  0  0  0  0  0  0  0  0  0  0  0
   35.8950   31.4610   40.7860 H   0  0  0  0  0  0  0  0  0  0  0  0
   37.9180   29.8200   39.2790 H   0  0  0  0  0  0  0  0  0  0  0  0
   40.4710   34.1540   39.5680 C   0  0  0  0  0  0  0  0  0  0  0  0
   39.4790   33.5040   40.3500 C   0  0  0  0  0  0  0  0  0  0  0  0
   39.1810   32.2290   39.9810 C   0  0  0  0  0  0  0  0  0  0  0  0
   39.8050   31.6270   38.9200 N   0  0  0  0  0  0  0  0  0  0  0  0
   40.7420   32.2800   38.2010 C   0  0  0  0  0  0  0  0  0  0  0  0
   41.0730   33.5520   38.5350 N   0  0  0  0  0  0  0  0  0  0  0  0
   40.7520   35.1750   39.8160 H   0  0  0  0  0  0  0  0  0  0  0  0
   41.1250   31.6530   37.4070 H   0  0  0  0  0  0  0  0  0  0  0  0
   38.8250   34.1610   41.4250 N   0  0  0  0  0  0  0  0  0  0  0  0
   38.9330   34.0550   42.4530 H   0  0  0  0  0  0  0  0  0  0  0  0
   38.1810   34.8060   40.8920 H   0  0  0  0  0  0  0  0  0  0  0  0
   37.2180   29.1420   41.2290 C   0  0  0  0  0  0  0  0  0  0  0  0
   36.8440   28.2590   40.7000 H   0  0  0  0  0  0  0  0  0  0  0  0
   36.3170   29.5600   41.7680 H   0  0  0  0  0  0  0  0  0  0  0  0
   38.1930   28.9180   42.2420 N   0  0  0  0  0  0  0  0  0  0  0  0
   39.0690   27.8060   42.0200 C   0  0  0  0  0  3  0  0  0  0  0  0
   39.7810   27.8130   42.8990 H   0  0  0  0  0  0  0  0  0  0  0  0
   38.3950   26.4690   42.0610 C   0  0  0  0  0  3  0  0  0  0  0  0
   38.9430   25.7270   42.7010 H   0  0  0  0  0  0  0  0  0  0  0  0
   37.0250   26.4910   42.4580 N   0  0  0  0  0  0  0  0  0  0  0  0
   36.7770   25.5270   42.8070 H   0  0  0  0  0  0  0  0  0  0  0  0
   36.6880   27.4400   43.4750 C   0  0  0  0  0  2  0  0  0  0  0  0
   37.5340   28.6680   43.5180 C   0  0  0  0  0  2  0  0  0  0  0  0
  1  4  1  1  0  0  0
  2  3  1  0  0  0  0
  2  6  1  0  0  0  0
  2  1  1  0  0  0  0
  3  7  1  6  0  0  0
  3  1  1  0  0  0  0
  3 19  1  0  0  0  0
  5  2  1  0  0  0  0
  8 14  1  0  0  0  0
  8  9  1  0  0  0  0
  9 16  1  0  0  0  0
 10  9  2  0  0  0  0
 10  1  1  0  0  0  0
 11 10  1  0  0  0  0
 12 13  1  0  0  0  0
 12 11  2  0  0  0  0
 13  8  2  0  0  0  0
 15 12  1  0  0  0  0
 16 17  1  0  0  0  0
 18 16  1  0  0  0  0
 19 21  1  0  0  0  0
 19 22  1  0  0  0  0
 20 19  1  0  0  0  0
 22 30  1  0  0  0  0
 23 25  1  0  0  0  0
 23 22  1  0  0  0  0
 23 24  1  0  0  0  0
 25 27  1  0  0  0  0
 25 26  1  0  0  0  0
 27 28  1  0  0  0  0
 27 29  1  0  0  0  0
 29 30  1  0  0  0  0
M  END
>  <minimizedAffinity>
-4.64313602

$$$$

 OpenBabel03252509273D

 30 32  0  0  1  0  0  0  0  0999 V2000
   36.4570   28.7090   40.0780 C   0  0  1  0  0  0  0  0  0  0  0  0
   34.9840   29.1590   40.2490 C   0  0  0  0  0  0  0  0  0  0  0  0
   36.1930   29.7040   41.0370 C   0  0  2  0  0  0  0  0  0  0  0  0
   36.7990   28.9250   39.0610 H   0  0  0  0  0  0  0  0  0  0  0  0
   34.2730   28.4890   40.7350 H   0  0  0  0  0  0  0  0  0  0  0  0
   34.5750   29.8920   39.5440 H   0  0  0  0  0  0  0  0  0  0  0  0
   36.0540   29.5070   42.1360 H   0  0  0  0  0  0  0  0  0  0  0  0
   36.7970   24.9780   40.0780 C   0  0  0  0  0  0  0  0  0  0  0  0
   36.5570   26.2920   39.5950 C   0  0  0  0  0  0  0  0  0  0  0  0
   36.6430   27.2850   40.5220 C   0  0  0  0  0  0  0  0  0  0  0  0
   36.9400   27.0150   41.8320 N   0  0  0  0  0  0  0  0  0  0  0  0
   37.1610   25.7520   42.2510 C   0  0  0  0  0  0  0  0  0  0  0  0
   37.0880   24.7310   41.3610 N   0  0  0  0  0  0  0  0  0  0  0  0
   36.7440   24.1430   39.3820 H   0  0  0  0  0  0  0  0  0  0  0  0
   37.3820   25.7300   43.3090 H   0  0  0  0  0  0  0  0  0  0  0  0
   36.2190   26.5400   38.2390 N   0  0  0  0  0  0  0  0  0  0  0  0
   36.7800   26.9400   37.4610 H   0  0  0  0  0  0  0  0  0  0  0  0
   35.2190   26.2020   38.2250 H   0  0  0  0  0  0  0  0  0  0  0  0
   36.6180   31.1390   40.8050 C   0  0  0  0  0  0  0  0  0  0  0  0
   36.8240   31.6780   41.7350 H   0  0  0  0  0  0  0  0  0  0  0  0
   35.7120   31.6530   40.3670 H   0  0  0  0  0  0  0  0  0  0  0  0
   37.6160   31.2050   39.7920 N   0  0  0  0  0  0  0  0  0  0  0  0
   38.9460   31.4730   40.2520 C   0  0  0  0  0  3  0  0  0  0  0  0
   39.5880   31.4520   39.3210 H   0  0  0  0  0  0  0  0  0  0  0  0
   39.1350   32.8390   40.8380 C   0  0  0  0  0  3  0  0  0  0  0  0
   40.0430   33.3620   40.4350 H   0  0  0  0  0  0  0  0  0  0  0  0
   38.0130   33.7120   40.7170 N   0  0  0  0  0  0  0  0  0  0  0  0
   38.3680   34.7020   40.8060 H   0  0  0  0  0  0  0  0  0  0  0  0
   37.2720   33.6050   39.4970 C   0  0  0  0  0  2  0  0  0  0  0  0
   37.2910   32.2650   38.8450 C   0  0  0  0  0  2  0  0  0  0  0  0
  1  4  1  6  0  0  0
  1  2  1  0  0  0  0
  1 10  1  0  0  0  0
  1  3  1  0  0  0  0
  2  5  1  0  0  0  0
  2  3  1  0  0  0  0
  3  7  1  1  0  0  0
  6  2  1  0  0  0  0
  8 13  1  0  0  0  0
  9  8  2  0  0  0  0
  9 10  1  0  0  0  0
 10 11  2  0  0  0  0
 11 12  1  0  0  0  0
 12 15  1  0  0  0  0
 13 12  2  0  0  0  0
 14  8  1  0  0  0  0
 16  9  1  0  0  0  0
 17 16  1  0  0  0  0
 18 16  1  0  0  0  0
 19  3  1  0  0  0  0
 19 20  1  0  0  0  0
 21 19  1  0  0  0  0
 22 23  1  0  0  0  0
 22 19  1  0  0  0  0
 23 25  1  0  0  0  0
 24 23  1  0  0  0  0
 26 25  1  0  0  0  0
 27 28  1  0  0  0  0
 27 25  1  0  0  0  0
 29 27  1  0  0  0  0
 30 29  1  0  0  0  0
 30 22  1  0  0  0  0
M  END
>  <minimizedAffinity>
-4.61053276

$$$$

 OpenBabel03252509273D

 30 32  0  0  1  0  0  0  0  0999 V2000
   37.5580   28.7700   40.5860 C   0  0  1  0  0  0  0  0  0  0  0  0
   36.8090   27.9600   39.4980 C   0  0  0  0  0  0  0  0  0  0  0  0
   38.2600   27.7220   39.9620 C   0  0  2  0  0  0  0  0  0  0  0  0
   37.0470   28.6670   41.5470 H   0  0  0  0  0  0  0  0  0  0  0  0
   36.6150   28.4200   38.5270 H   0  0  0  0  0  0  0  0  0  0  0  0
   36.1280   27.1620   39.8140 H   0  0  0  0  0  0  0  0  0  0  0  0
   38.9670   27.8560   39.0970 H   0  0  0  0  0  0  0  0  0  0  0  0
   37.2490   32.4760   40.1320 C   0  0  0  0  0  0  0  0  0  0  0  0
   36.9310   31.1560   40.5470 C   0  0  0  0  0  0  0  0  0  0  0  0
   37.7950   30.1860   40.1400 C   0  0  0  0  0  0  0  0  0  0  0  0
   38.8950   30.4830   39.3770 N   0  0  0  0  0  0  0  0  0  0  0  0
   39.1610   31.7520   39.0030 C   0  0  0  0  0  0  0  0  0  0  0  0
   38.3280   32.7500   39.3880 N   0  0  0  0  0  0  0  0  0  0  0  0
   36.5950   33.2930   40.4290 H   0  0  0  0  0  0  0  0  0  0  0  0
   40.0640   31.7970   38.4100 H   0  0  0  0  0  0  0  0  0  0  0  0
   35.7690   30.8710   41.3100 N   0  0  0  0  0  0  0  0  0  0  0  0
   35.6570   30.6330   42.3160 H   0  0  0  0  0  0  0  0  0  0  0  0
   35.0230   30.9660   40.5680 H   0  0  0  0  0  0  0  0  0  0  0  0
   38.5770   26.4450   40.7120 C   0  0  0  0  0  0  0  0  0  0  0  0
   39.6090   26.1090   40.5660 H   0  0  0  0  0  0  0  0  0  0  0  0
   37.9410   25.6460   40.2280 H   0  0  0  0  0  0  0  0  0  0  0  0
   38.1160   26.5300   42.0570 N   0  0  0  0  0  0  0  0  0  0  0  0
   39.1090   26.3040   43.0650 C   0  0  0  0  0  3  0  0  0  0  0  0
   38.5660   26.4470   44.0470 H   0  0  0  0  0  0  0  0  0  0  0  0
   39.6470   24.9070   43.1030 C   0  0  0  0  0  3  0  0  0  0  0  0
   39.6670   24.4780   44.1410 H   0  0  0  0  0  0  0  0  0  0  0  0
   38.9920   23.9800   42.2380 N   0  0  0  0  0  0  0  0  0  0  0  0
   39.1790   23.0100   42.6090 H   0  0  0  0  0  0  0  0  0  0  0  0
   37.5770   24.1480   42.1060 C   0  0  0  0  0  2  0  0  0  0  0  0
   37.0710   25.5390   42.2860 C   0  0  0  0  0  2  0  0  0  0  0  0
  1  4  1  1  0  0  0
  2  6  1  0  0  0  0
  2  3  1  0  0  0  0
  2  1  1  0  0  0  0
  3  7  1  6  0  0  0
  3  1  1  0  0  0  0
  3 19  1  0  0  0  0
  5  2  1  0  0  0  0
  8 14  1  0  0  0  0
  8  9  1  0  0  0  0
  9 16  1  0  0  0  0
 10  9  2  0  0  0  0
 10  1  1  0  0  0  0
 11 10  1  0  0  0  0
 12 11  2  0  0  0  0
 12 13  1  0  0  0  0
 13  8  2  0  0  0  0
 15 12  1  0  0  0  0
 16 17  1  0  0  0  0
 18 16  1  0  0  0  0
 19 22  1  0  0  0  0
 20 19  1  0  0  0  0
 21 19  1  0  0  0  0
 22 30  1  0  0  0  0
 22 23  1  0  0  0  0
 23 25  1  0  0  0  0
 23 24  1  0  0  0  0
 25 26  1  0  0  0  0
 27 28  1  0  0  0  0
 27 25  1  0  0  0  0
 29 27  1  0  0  0  0
 29 30  1  0  0  0  0
M  END
>  <minimizedAffinity>
-4.60814762

$$$$

 OpenBabel03252509273D

 30 32  0  0  1  0  0  0  0  0999 V2000
   38.5580   29.0030   42.3830 C   0  0  1  0  0  0  0  0  0  0  0  0
   37.6560   28.8750   43.6360 C   0  0  0  0  0  0  0  0  0  0  0  0
   37.5810   27.9920   42.3740 C   0  0  2  0  0  0  0  0  0  0  0  0
   39.6030   28.8320   42.6550 H   0  0  0  0  0  0  0  0  0  0  0  0
   36.8880   29.6270   43.8220 H   0  0  0  0  0  0  0  0  0  0  0  0
   38.0430   28.3340   44.5080 H   0  0  0  0  0  0  0  0  0  0  0  0
   36.5670   28.0910   41.8970 H   0  0  0  0  0  0  0  0  0  0  0  0
   38.8870   32.4870   41.0440 C   0  0  0  0  0  0  0  0  0  0  0  0
   39.1720   31.3220   41.8040 C   0  0  0  0  0  0  0  0  0  0  0  0
   38.2940   30.2930   41.6560 C   0  0  0  0  0  0  0  0  0  0  0  0
   37.2090   30.3940   40.8250 N   0  0  0  0  0  0  0  0  0  0  0  0
   36.9730   31.5200   40.1210 C   0  0  0  0  0  0  0  0  0  0  0  0
   37.8230   32.5700   40.2360 N   0  0  0  0  0  0  0  0  0  0  0  0
   39.5550   33.3430   41.1210 H   0  0  0  0  0  0  0  0  0  0  0  0
   36.0780   31.4200   39.5210 H   0  0  0  0  0  0  0  0  0  0  0  0
   40.2860   31.2550   42.6810 N   0  0  0  0  0  0  0  0  0  0  0  0
   41.1950   30.7600   42.5890 H   0  0  0  0  0  0  0  0  0  0  0  0
   39.9410   31.8570   43.4770 H   0  0  0  0  0  0  0  0  0  0  0  0
   37.9710   26.5330   42.4900 C   0  0  0  0  0  0  0  0  0  0  0  0
   37.1110   25.8570   42.4510 H   0  0  0  0  0  0  0  0  0  0  0  0
   38.3850   26.4150   43.5350 H   0  0  0  0  0  0  0  0  0  0  0  0
   39.0580   26.2390   41.6180 N   0  0  0  0  0  0  0  0  0  0  0  0
   38.7830   25.2780   40.5910 C   0  0  0  0  0  3  0  0  0  0  0  0
   39.7400   25.2070   39.9930 H   0  0  0  0  0  0  0  0  0  0  0  0
   38.5190   23.8920   41.0940 C   0  0  0  0  0  3  0  0  0  0  0  0
   39.1020   23.1110   40.5360 H   0  0  0  0  0  0  0  0  0  0  0  0
   38.7260   23.7040   42.4930 N   0  0  0  0  0  0  0  0  0  0  0  0
   38.8810   22.6730   42.6580 H   0  0  0  0  0  0  0  0  0  0  0  0
   39.8260   24.4220   43.0610 C   0  0  0  0  0  2  0  0  0  0  0  0
   40.1770   25.7040   42.3850 C   0  0  0  0  0  2  0  0  0  0  0  0
  1  4  1  1  0  0  0
  1  2  1  0  0  0  0
  2  5  1  0  0  0  0
  2  6  1  0  0  0  0
  3  7  1  6  0  0  0
  3  1  1  0  0  0  0
  3 19  1  0  0  0  0
  3  2  1  0  0  0  0
  8 14  1  0  0  0  0
  8  9  1  0  0  0  0
  9 16  1  0  0  0  0
 10  9  2  0  0  0  0
 10  1  1  0  0  0  0
 11 10  1  0  0  0  0
 12 13  1  0  0  0  0
 12 11  2  0  0  0  0
 13  8  2  0  0  0  0
 15 12  1  0  0  0  0
 16 18  1  0  0  0  0
 17 16  1  0  0  0  0
 19 21  1  0  0  0  0
 20 19  1  0  0  0  0
 22 30  1  0  0  0  0
 22 19  1  0  0  0  0
 23 25  1  0  0  0  0
 23 22  1  0  0  0  0
 24 23  1  0  0  0  0
 25 27  1  0  0  0  0
 26 25  1  0  0  0  0
 27 28  1  0  0  0  0
 27 29  1  0  0  0  0
 30 29  1  0  0  0  0
M  END
>  <minimizedAffinity>
-4.53827953

$$$$

 OpenBabel03252509273D

 30 32  0  0  1  0  0  0  0  0999 V2000
   39.3830   30.5910   41.7750 C   0  0  1  0  0  0  0  0  0  0  0  0
   40.5640   31.2100   42.5640 C   0  0  0  0  0  0  0  0  0  0  0  0
   40.6540   30.5520   41.1720 C   0  0  2  0  0  0  0  0  0  0  0  0
   38.6340   31.3580   41.5580 H   0  0  0  0  0  0  0  0  0  0  0  0
   40.9540   30.6890   43.4400 H   0  0  0  0  0  0  0  0  0  0  0  0
   40.7060   32.2970   42.5280 H   0  0  0  0  0  0  0  0  0  0  0  0
   41.3490   29.6690   41.2090 H   0  0  0  0  0  0  0  0  0  0  0  0
   37.0840   27.9930   43.1900 C   0  0  0  0  0  0  0  0  0  0  0  0
   37.5090   29.2010   42.5750 C   0  0  0  0  0  0  0  0  0  0  0  0
   38.8550   29.3640   42.4650 C   0  0  0  0  0  0  0  0  0  0  0  0
   39.7300   28.4140   42.9250 N   0  0  0  0  0  0  0  0  0  0  0  0
   39.2850   27.2800   43.5050 C   0  0  0  0  0  0  0  0  0  0  0  0
   37.9510   27.0750   43.6330 N   0  0  0  0  0  0  0  0  0  0  0  0
   36.0180   27.8070   43.3050 H   0  0  0  0  0  0  0  0  0  0  0  0
   40.1120   26.6500   43.8040 H   0  0  0  0  0  0  0  0  0  0  0  0
   36.5820   30.1820   42.1360 N   0  0  0  0  0  0  0  0  0  0  0  0
   36.2680   30.4400   41.1790 H   0  0  0  0  0  0  0  0  0  0  0  0
   36.2860   30.5950   43.0610 H   0  0  0  0  0  0  0  0  0  0  0  0
   40.9750   31.4280   39.9790 C   0  0  0  0  0  0  0  0  0  0  0  0
   41.7010   32.2140   40.2100 H   0  0  0  0  0  0  0  0  0  0  0  0
   40.0160   31.9790   39.7440 H   0  0  0  0  0  0  0  0  0  0  0  0
   41.2400   30.6280   38.8310 N   0  0  0  0  0  0  0  0  0  0  0  0
   42.2010   31.1640   37.9140 C   0  0  0  0  0  3  0  0  0  0  0  0
   42.2990   30.3820   37.1020 H   0  0  0  0  0  0  0  0  0  0  0  0
   41.7620   32.4150   37.2160 C   0  0  0  0  0  3  0  0  0  0  0  0
   41.9350   32.3760   36.1070 H   0  0  0  0  0  0  0  0  0  0  0  0
   40.4080   32.7990   37.4540 N   0  0  0  0  0  0  0  0  0  0  0  0
   40.1100   33.4280   36.6600 H   0  0  0  0  0  0  0  0  0  0  0  0
   39.4670   31.7260   37.5590 C   0  0  0  0  0  2  0  0  0  0  0  0
   40.0120   30.4350   38.0680 C   0  0  0  0  0  2  0  0  0  0  0  0
  1  4  1  6  0  0  0
  1 10  1  0  0  0  0
  1  2  1  0  0  0  0
  2  5  1  0  0  0  0
  3  7  1  6  0  0  0
  3  1  1  0  0  0  0
  3  2  1  0  0  0  0
  6  2  1  0  0  0  0
  8 14  1  0  0  0  0
  8 13  1  0  0  0  0
  9  8  2  0  0  0  0
 10  9  1  0  0  0  0
 10 11  2  0  0  0  0
 11 12  1  0  0  0  0
 12 13  2  0  0  0  0
 12 15  1  0  0  0  0
 16  9  1  0  0  0  0
 16 18  1  0  0  0  0
 17 16  1  0  0  0  0
 19 20  1  0  0  0  0
 19  3  1  0  0  0  0
 21 19  1  0  0  0  0
 22 19  1  0  0  0  0
 23 22  1  0  0  0  0
 24 23  1  0  0  0  0
 25 27  1  0  0  0  0
 25 23  1  0  0  0  0
 26 25  1  0  0  0  0
 27 29  1  0  0  0  0
 28 27  1  0  0  0  0
 29 30  1  0  0  0  0
 30 22  1  0  0  0  0
M  END
>  <minimizedAffinity>
-4.36166

$$$$

 OpenBabel03252509273D

 30 32  0  0  1  0  0  0  0  0999 V2000
   36.1510   29.2990   40.2050 C   0  0  1  0  0  0  0  0  0  0  0  0
   36.3280   30.8370   40.2570 C   0  0  0  0  0  0  0  0  0  0  0  0
   36.9350   29.8930   39.1990 C   0  0  2  0  0  0  0  0  0  0  0  0
   35.0940   29.0480   40.0780 H   0  0  0  0  0  0  0  0  0  0  0  0
   36.9650   31.2770   41.0250 H   0  0  0  0  0  0  0  0  0  0  0  0
   35.5320   31.4710   39.8490 H   0  0  0  0  0  0  0  0  0  0  0  0
   38.0580   29.9600   39.2240 H   0  0  0  0  0  0  0  0  0  0  0  0
   37.7410   26.7500   42.4440 C   0  0  0  0  0  0  0  0  0  0  0  0
   37.0520   27.2960   41.3280 C   0  0  0  0  0  0  0  0  0  0  0  0
   36.8250   28.6370   41.3740 C   0  0  0  0  0  0  0  0  0  0  0  0
   37.2410   29.3960   42.4370 N   0  0  0  0  0  0  0  0  0  0  0  0
   37.8930   28.8380   43.4790 C   0  0  0  0  0  0  0  0  0  0  0  0
   38.1420   27.5050   43.4740 N   0  0  0  0  0  0  0  0  0  0  0  0
   37.9520   25.6830   42.4620 H   0  0  0  0  0  0  0  0  0  0  0  0
   38.1430   29.5840   44.2200 H   0  0  0  0  0  0  0  0  0  0  0  0
   36.6040   26.4820   40.2550 N   0  0  0  0  0  0  0  0  0  0  0  0
   36.9690   26.3710   39.2880 H   0  0  0  0  0  0  0  0  0  0  0  0
   35.7790   26.0030   40.7070 H   0  0  0  0  0  0  0  0  0  0  0  0
   36.4320   29.9860   37.7740 C   0  0  0  0  0  0  0  0  0  0  0  0
   37.1370   30.4870   37.1040 H   0  0  0  0  0  0  0  0  0  0  0  0
   35.5350   30.6720   37.8160 H   0  0  0  0  0  0  0  0  0  0  0  0
   35.9230   28.7270   37.3430 N   0  0  0  0  0  0  0  0  0  0  0  0
   36.9080   27.7710   36.9340 C   0  0  0  0  0  3  0  0  0  0  0  0
   36.3210   26.8420   36.6660 H   0  0  0  0  0  0  0  0  0  0  0  0
   37.6560   28.1440   35.6910 C   0  0  0  0  0  3  0  0  0  0  0  0
   37.7110   27.3040   34.9500 H   0  0  0  0  0  0  0  0  0  0  0  0
   37.1790   29.3120   35.0240 N   0  0  0  0  0  0  0  0  0  0  0  0
   37.5050   29.2620   34.0210 H   0  0  0  0  0  0  0  0  0  0  0  0
   35.7600   29.4950   35.0300 C   0  0  0  0  0  2  0  0  0  0  0  0
   35.0390   28.9160   36.1990 C   0  0  0  0  0  2  0  0  0  0  0  0
  1  4  1  6  0  0  0
  1  2  1  0  0  0  0
  1 10  1  0  0  0  0
  2  5  1  0  0  0  0
  3  7  1  1  0  0  0
  3  1  1  0  0  0  0
  3  2  1  0  0  0  0
  6  2  1  0  0  0  0
  8 14  1  0  0  0  0
  8 13  1  0  0  0  0
  9 10  1  0  0  0  0
  9  8  2  0  0  0  0
 10 11  2  0  0  0  0
 11 12  1  0  0  0  0
 12 15  1  0  0  0  0
 13 12  2  0  0  0  0
 16 18  1  0  0  0  0
 16  9  1  0  0  0  0
 17 16  1  0  0  0  0
 19 21  1  0  0  0  0
 19  3  1  0  0  0  0
 20 19  1  0  0  0  0
 22 19  1  0  0  0  0
 23 22  1  0  0  0  0
 24 23  1  0  0  0  0
 25 23  1  0  0  0  0
 26 25  1  0  0  0  0
 27 29  1  0  0  0  0
 27 25  1  0  0  0  0
 28 27  1  0  0  0  0
 29 30  1  0  0  0  0
 30 22  1  0  0  0  0
M  END
>  <minimizedAffinity>
-4.15688801

$$$$
