
 OpenBabel03242522373D

 45 48  0  0  0  0  0  0  0  0999 V2000
   43.7280   35.1790   42.2130 C   0  0  0  0  0  0  0  0  0  0  0  0
   42.6370   35.0390   41.3920 C   0  0  0  0  0  0  0  0  0  0  0  0
   42.8340   34.4910   40.1410 C   0  0  0  0  0  0  0  0  0  0  0  0
   44.0660   34.0710   39.6590 C   0  0  0  0  0  0  0  0  0  0  0  0
   45.1580   34.2220   40.5080 C   0  0  0  0  0  0  0  0  0  0  0  0
   44.9660   34.7710   41.7640 C   0  0  0  0  0  0  0  0  0  0  0  0
   41.9830   34.3740   39.4810 H   0  0  0  0  0  0  0  0  0  0  0  0
   44.1650   33.6460   38.6630 H   0  0  0  0  0  0  0  0  0  0  0  0
   46.0970   33.8970   40.1270 H   0  0  0  0  0  0  0  0  0  0  0  0
   41.2810   35.4550   41.8110 C   0  0  0  0  0  0  0  0  0  0  0  0
   41.2350   35.3830   42.9170 H   0  0  0  0  0  0  0  0  0  0  0  0
   41.1060   36.4990   41.4900 H   0  0  0  0  0  0  0  0  0  0  0  0
   39.0100   32.5800   41.2630 C   0  0  0  0  0  0  0  0  0  0  0  0
   38.2710   33.0020   40.1600 C   0  0  0  0  0  0  0  0  0  0  0  0
   38.5600   34.2420   39.6370 C   0  0  0  0  0  0  0  0  0  0  0  0
   39.5300   34.9910   40.1980 N   0  0  0  0  0  0  0  0  0  0  0  0
   40.2360   34.5630   41.2660 C   0  0  0  0  0  0  0  0  0  0  0  0
   39.9600   33.3640   41.7770 N   0  0  0  0  0  0  0  0  0  0  0  0
   38.8890   31.6290   41.7750 H   0  0  0  0  0  0  0  0  0  0  0  0
   37.5210   32.3350   39.7870 H   0  0  0  0  0  0  0  0  0  0  0  0
   37.9870   34.5720   38.7810 H   0  0  0  0  0  0  0  0  0  0  0  0
   43.5840   35.7180   43.4660 O   0  0  0  0  0  0  0  0  0  0  0  0
   44.3190   36.0880   44.0230 H   0  0  0  0  0  0  0  0  0  0  0  0
   46.0780   34.9040   42.5780 O   0  0  0  0  0  0  0  0  0  0  0  0
   46.8550   33.7680   42.8130 C   0  0  0  0  0  0  0  0  0  0  0  0
   46.3910   32.9320   43.8240 C   0  0  0  0  0  0  0  0  0  0  0  0
   47.1170   31.7840   44.1120 C   0  0  0  0  0  0  0  0  0  0  0  0
   48.2670   31.4850   43.4070 C   0  0  0  0  0  0  0  0  0  0  0  0
   48.6870   32.3560   42.4030 C   0  0  0  0  0  0  0  0  0  0  0  0
   47.9870   33.4920   42.1050 C   0  0  0  0  0  0  0  0  0  0  0  0
   45.4860   33.1740   44.3740 H   0  0  0  0  0  0  0  0  0  0  0  0
   46.6990   31.1780   44.9110 H   0  0  0  0  0  0  0  0  0  0  0  0
   48.6990   30.5670   43.7590 H   0  0  0  0  0  0  0  0  0  0  0  0
   49.8830   31.9660   41.7420 N   0  0  0  0  0  0  0  0  0  0  0  0
   50.0600   31.7540   40.3320 C   0  0  0  0  0  0  0  0  0  0  0  0
   49.2380   32.0230   39.6820 H   0  0  0  0  0  0  0  0  0  0  0  0
   50.2570   30.2430   40.1440 C   0  0  0  0  0  0  0  0  0  0  0  0
   50.3490   29.9520   39.0980 H   0  0  0  0  0  0  0  0  0  0  0  0
   51.3670   29.7720   40.9380 N   0  0  0  0  0  0  0  0  0  0  0  0
   51.0650   29.1920   41.7550 H   0  0  0  0  0  0  0  0  0  0  0  0
   52.0690   30.9170   41.4830 C   0  0  0  0  0  0  0  0  0  0  0  0
   51.1520   31.7060   42.4000 C   0  0  0  0  0  0  0  0  0  0  0  0
   48.4210   34.3530   41.0920 N   0  0  0  0  0  0  0  0  0  0  0  0
   48.4210   34.3380   40.0500 H   0  0  0  0  0  0  0  0  0  0  0  0
   48.8130   35.1640   41.6580 H   0  0  0  0  0  0  0  0  0  0  0  0
  1 22  1  0  0  0  0
  2 10  1  0  0  0  0
  2  1  2  0  0  0  0
  3  2  1  0  0  0  0
  4  3  2  0  0  0  0
  4  5  1  0  0  0  0
  5  6  2  0  0  0  0
  6  1  1  0  0  0  0
  6 24  1  0  0  0  0
  7  3  1  0  0  0  0
  8  4  1  0  0  0  0
  9  5  1  0  0  0  0
 10 11  1  0  0  0  0
 12 10  1  0  0  0  0
 13 19  1  0  0  0  0
 13 18  1  0  0  0  0
 14 13  2  0  0  0  0
 15 14  1  0  0  0  0
 15 16  2  0  0  0  0
 16 17  1  0  0  0  0
 17 18  2  0  0  0  0
 17 10  1  0  0  0  0
 20 14  1  0  0  0  0
 21 15  1  0  0  0  0
 22 23  1  0  0  0  0
 24 25  1  0  0  0  0
 25 26  1  0  0  0  0
 26 27  2  0  0  0  0
 26 31  1  0  0  0  0
 27 32  1  0  0  0  0
 28 33  1  0  0  0  0
 28 27  1  0  0  0  0
 29 28  2  0  0  0  0
 30 29  1  0  0  0  0
 30 25  2  0  0  0  0
 34 42  1  0  0  0  0
 34 29  1  0  0  0  0
 35 34  1  0  0  0  0
 36 35  1  0  0  0  0
 37 35  1  0  0  0  0
 37 39  1  0  0  0  0
 38 37  1  0  0  0  0
 39 41  1  0  0  0  0
 39 40  1  0  0  0  0
 41 42  1  0  0  0  0
 43 45  1  0  0  0  0
 43 30  1  0  0  0  0
 44 43  1  0  0  0  0
M  END
>  <minimizedAffinity>
-5.9314599

>  <minimizedRMSD>
1.33429086

$$$$
