
 OpenBabel03252508563D

 24 25  0  0  0  0  0  0  0  0999 V2000
   46.4820   34.8790   41.8530 C   0  0  0  0  0  0  0  0  0  0  0  0
   46.3400   33.9170   41.3240 H   0  0  0  0  0  0  0  0  0  0  0  0
   45.9830   35.6640   41.2510 H   0  0  0  0  0  0  0  0  0  0  0  0
   44.4760   35.9330   44.8790 C   0  0  0  0  0  0  0  0  0  0  0  0
   45.0340   35.9400   43.5740 C   0  0  0  0  0  0  0  0  0  0  0  0
   45.8850   34.9030   43.2010 C   0  0  0  0  0  0  0  0  0  0  0  0
   46.1340   33.9300   44.1310 N   0  0  0  0  0  0  0  0  0  0  0  0
   45.5910   33.9480   45.3640 C   0  0  0  0  0  0  0  0  0  0  0  0
   44.7780   34.9300   45.7320 N   0  0  0  0  0  0  0  0  0  0  0  0
   43.8170   36.7470   45.1520 H   0  0  0  0  0  0  0  0  0  0  0  0
   44.7790   36.7460   42.9150 H   0  0  0  0  0  0  0  0  0  0  0  0
   45.8960   33.1000   45.9680 H   0  0  0  0  0  0  0  0  0  0  0  0
   47.9590   35.2080   41.9720 C   0  0  0  0  0  0  0  0  0  0  0  0
   48.2920   35.0580   43.0150 H   0  0  0  0  0  0  0  0  0  0  0  0
   48.1530   36.2270   41.5800 H   0  0  0  0  0  0  0  0  0  0  0  0
   48.7700   34.3320   41.1230 N   0  0  0  0  0  0  0  0  0  0  0  0
   48.0560   34.2400   39.8870 C   0  0  0  0  0  3  0  0  0  0  0  0
   46.9560   34.1870   40.1140 H   0  0  0  0  0  0  0  0  0  0  0  0
   48.4770   33.1220   38.9830 C   0  0  0  0  0  3  0  0  0  0  0  0
   49.2430   33.5130   38.2820 H   0  0  0  0  0  0  0  0  0  0  0  0
   48.9250   31.9370   39.6510 N   0  0  0  0  0  0  0  0  0  0  0  0
   48.1740   31.3080   39.9550 H   0  0  0  0  0  0  0  0  0  0  0  0
   49.8100   32.2350   40.7470 C   0  0  0  0  0  2  0  0  0  0  0  0
   49.0200   33.0630   41.7490 C   0  0  0  0  0  2  0  0  0  0  0  0
  1 13  1  0  0  0  0
  1  6  1  0  0  0  0
  2  1  1  0  0  0  0
  3  1  1  0  0  0  0
  4 10  1  0  0  0  0
  4  9  1  0  0  0  0
  5  4  2  0  0  0  0
  6  5  1  0  0  0  0
  6  7  2  0  0  0  0
  7  8  1  0  0  0  0
  8  9  2  0  0  0  0
  8 12  1  0  0  0  0
 11  5  1  0  0  0  0
 13 14  1  0  0  0  0
 15 13  1  0  0  0  0
 16 24  1  0  0  0  0
 16 13  1  0  0  0  0
 17 18  1  0  0  0  0
 17 16  1  0  0  0  0
 19 21  1  0  0  0  0
 19 17  1  0  0  0  0
 20 19  1  0  0  0  0
 21 22  1  0  0  0  0
 21 23  1  0  0  0  0
 23 24  1  0  0  0  0
M  END
>  <minimizedAffinity>
-4.05918598

>  <minimizedRMSD>
1.62386405

$$$$
