
 OpenBabel03252508403D

 41 44  0  0  0  0  0  0  0  0999 V2000
   38.7450   27.6460   41.3890 C   0  0  0  0  0  0  0  0  0  0  0  0
   39.1780   27.5870   42.6970 C   0  0  0  0  0  0  0  0  0  0  0  0
   38.2340   27.6780   43.6790 C   0  0  0  0  0  0  0  0  0  0  0  0
   36.8920   27.8240   43.4440 C   0  0  0  0  0  0  0  0  0  0  0  0
   36.4830   27.8810   42.1280 C   0  0  0  0  0  0  0  0  0  0  0  0
   37.3990   27.7930   41.0960 C   0  0  0  0  0  0  0  0  0  0  0  0
   38.6000   27.6290   44.7010 H   0  0  0  0  0  0  0  0  0  0  0  0
   36.2240   27.8870   44.2950 H   0  0  0  0  0  0  0  0  0  0  0  0
   35.4110   27.9960   41.9440 H   0  0  0  0  0  0  0  0  0  0  0  0
   42.5760   26.0810   43.3030 C   0  0  0  0  0  0  0  0  0  0  0  0
   41.1860   26.1760   43.1040 C   0  0  0  0  0  0  0  0  0  0  0  0
   40.6010   27.4290   42.9070 C   0  0  0  0  0  0  0  0  0  0  0  0
   41.4610   28.4890   42.9270 N   0  0  0  0  0  0  0  0  0  0  0  0
   42.7760   28.3730   43.1170 C   0  0  0  0  0  0  0  0  0  0  0  0
   43.3330   27.1730   43.3050 N   0  0  0  0  0  0  0  0  0  0  0  0
   43.1120   24.7840   43.4970 N   0  0  0  0  0  0  0  0  0  0  0  0
   40.5700   25.2810   43.1020 H   0  0  0  0  0  0  0  0  0  0  0  0
   43.4440   29.2250   43.1290 H   0  0  0  0  0  0  0  0  0  0  0  0
   42.8740   23.9830   42.8850 H   0  0  0  0  0  0  0  0  0  0  0  0
   43.7850   24.5520   44.2740 H   0  0  0  0  0  0  0  0  0  0  0  0
   36.8650   27.8650   39.7540 C   0  0  0  0  0  0  0  0  0  0  0  0
   36.3860   26.6680   39.2440 C   0  0  0  0  0  0  0  0  0  0  0  0
   35.8320   26.5360   37.9670 C   0  0  0  0  0  0  0  0  0  0  0  0
   35.7620   27.6580   37.1830 C   0  0  0  0  0  0  0  0  0  0  0  0
   36.2290   28.8480   37.6700 C   0  0  0  0  0  0  0  0  0  0  0  0
   36.7790   28.9640   38.9440 C   0  0  0  0  0  0  0  0  0  0  0  0
   36.4140   25.7400   39.8190 H   0  0  0  0  0  0  0  0  0  0  0  0
   35.4720   25.5780   37.6150 H   0  0  0  0  0  0  0  0  0  0  0  0
   35.3350   27.5680   36.1950 H   0  0  0  0  0  0  0  0  0  0  0  0
   36.1590   29.7150   37.0260 H   0  0  0  0  0  0  0  0  0  0  0  0
   37.2690   30.1940   39.4530 N   0  0  0  0  0  0  0  0  0  0  0  0
   36.7390   31.1630   40.4310 C   0  0  0  0  0  3  0  0  0  0  0  0
   35.6380   31.2030   40.4150 H   0  0  0  0  0  0  0  0  0  0  0  0
   37.3500   32.5350   40.1520 C   0  0  0  0  0  3  0  0  0  0  0  0
   36.6330   33.2800   40.5430 H   0  0  0  0  0  0  0  0  0  0  0  0
   37.4890   32.7710   38.7360 N   0  0  0  0  0  0  0  0  0  0  0  0
   37.7430   33.7690   38.5750 H   0  0  0  0  0  0  0  0  0  0  0  0
   38.3600   31.8340   38.0690 C   0  0  0  0  0  2  0  0  0  0  0  0
   38.5540   30.6280   38.9300 C   0  0  0  0  0  2  0  0  0  0  0  0
   40.4050   27.4920   39.3880 N   0  0  0  0  0  0  0  0  0  0  0  0
   39.6640   27.5600   40.2970 C   0  0  0  0  0  0  0  0  0  0  0  0
  1  2  1  0  0  0  0
  2 12  1  0  0  0  0
  2  3  2  0  0  0  0
  3  7  1  0  0  0  0
  4  3  1  0  0  0  0
  4  8  1  0  0  0  0
  5  4  2  0  0  0  0
  6  1  2  0  0  0  0
  6  5  1  0  0  0  0
  9  5  1  0  0  0  0
 10 15  1  0  0  0  0
 10 16  1  0  0  0  0
 11 10  2  0  0  0  0
 12 13  2  0  0  0  0
 12 11  1  0  0  0  0
 13 14  1  0  0  0  0
 14 18  1  0  0  0  0
 14 15  2  0  0  0  0
 16 20  1  0  0  0  0
 17 11  1  0  0  0  0
 19 16  1  0  0  0  0
 21  6  1  0  0  0  0
 22 21  1  0  0  0  0
 22 27  1  0  0  0  0
 23 22  2  0  0  0  0
 24 25  2  0  0  0  0
 24 23  1  0  0  0  0
 25 26  1  0  0  0  0
 26 31  1  0  0  0  0
 26 21  2  0  0  0  0
 28 23  1  0  0  0  0
 29 24  1  0  0  0  0
 30 25  1  0  0  0  0
 31 32  1  0  0  0  0
 33 32  1  0  0  0  0
 34 32  1  0  0  0  0
 34 35  1  0  0  0  0
 36 34  1  0  0  0  0
 37 36  1  0  0  0  0
 38 36  1  0  0  0  0
 38 39  1  0  0  0  0
 39 31  1  0  0  0  0
 40 41  3  0  0  0  0
 41  1  1  0  0  0  0
M  END
>  <minimizedAffinity>
-6.36012983

$$$$

 OpenBabel03252508403D

 41 44  0  0  0  0  0  0  0  0999 V2000
   37.9610   28.0520   41.1360 C   0  0  0  0  0  0  0  0  0  0  0  0
   37.8460   29.1310   41.9890 C   0  0  0  0  0  0  0  0  0  0  0  0
   37.3300   28.9010   43.2310 C   0  0  0  0  0  0  0  0  0  0  0  0
   36.9240   27.6710   43.6800 C   0  0  0  0  0  0  0  0  0  0  0  0
   37.0490   26.6080   42.8100 C   0  0  0  0  0  0  0  0  0  0  0  0
   37.5650   26.7880   41.5400 C   0  0  0  0  0  0  0  0  0  0  0  0
   37.2500   29.7660   43.8830 H   0  0  0  0  0  0  0  0  0  0  0  0
   36.5280   27.5940   44.6850 H   0  0  0  0  0  0  0  0  0  0  0  0
   36.7250   25.6290   43.1710 H   0  0  0  0  0  0  0  0  0  0  0  0
   37.8860   32.5610   40.4350 C   0  0  0  0  0  0  0  0  0  0  0  0
   37.4010   31.3290   40.9120 C   0  0  0  0  0  0  0  0  0  0  0  0
   38.2880   30.4120   41.4820 C   0  0  0  0  0  0  0  0  0  0  0  0
   39.5930   30.8070   41.5250 N   0  0  0  0  0  0  0  0  0  0  0  0
   40.0280   31.9810   41.0660 C   0  0  0  0  0  0  0  0  0  0  0  0
   39.1790   32.8560   40.5210 N   0  0  0  0  0  0  0  0  0  0  0  0
   36.9390   33.4500   39.8680 N   0  0  0  0  0  0  0  0  0  0  0  0
   36.3440   31.0910   40.8390 H   0  0  0  0  0  0  0  0  0  0  0  0
   41.0690   32.2780   41.1090 H   0  0  0  0  0  0  0  0  0  0  0  0
   36.0390   33.6770   40.3270 H   0  0  0  0  0  0  0  0  0  0  0  0
   37.0900   33.9360   38.9450 H   0  0  0  0  0  0  0  0  0  0  0  0
   37.6520   25.6080   40.7070 C   0  0  0  0  0  0  0  0  0  0  0  0
   36.5750   25.4070   39.8560 C   0  0  0  0  0  0  0  0  0  0  0  0
   36.4760   24.3250   38.9750 C   0  0  0  0  0  0  0  0  0  0  0  0
   37.5030   23.4190   38.9590 C   0  0  0  0  0  0  0  0  0  0  0  0
   38.5740   23.6010   39.7930 C   0  0  0  0  0  0  0  0  0  0  0  0
   38.6590   24.6830   40.6640 C   0  0  0  0  0  0  0  0  0  0  0  0
   35.7270   26.0930   39.8220 H   0  0  0  0  0  0  0  0  0  0  0  0
   35.6140   24.2130   38.3300 H   0  0  0  0  0  0  0  0  0  0  0  0
   37.4370   22.5790   38.2820 H   0  0  0  0  0  0  0  0  0  0  0  0
   39.3680   22.8670   39.7560 H   0  0  0  0  0  0  0  0  0  0  0  0
   39.7630   24.8760   41.5330 N   0  0  0  0  0  0  0  0  0  0  0  0
   39.9470   24.6940   42.9850 C   0  0  0  0  0  3  0  0  0  0  0  0
   39.0210   24.8960   43.5460 H   0  0  0  0  0  0  0  0  0  0  0  0
   41.0890   25.5910   43.4580 C   0  0  0  0  0  3  0  0  0  0  0  0
   40.9050   25.7940   44.5290 H   0  0  0  0  0  0  0  0  0  0  0  0
   41.0810   26.8590   42.7720 N   0  0  0  0  0  0  0  0  0  0  0  0
   41.7560   27.5070   43.2320 H   0  0  0  0  0  0  0  0  0  0  0  0
   41.2580   26.7530   41.3430 C   0  0  0  0  0  2  0  0  0  0  0  0
   40.9860   25.3500   40.9060 C   0  0  0  0  0  2  0  0  0  0  0  0
   38.9220   28.3050   38.7290 N   0  0  0  0  0  0  0  0  0  0  0  0
   38.4890   28.2020   39.8160 C   0  0  0  0  0  0  0  0  0  0  0  0
  1  6  2  0  0  0  0
  1  2  1  0  0  0  0
  2  3  2  0  0  0  0
  3  4  1  0  0  0  0
  3  7  1  0  0  0  0
  4  8  1  0  0  0  0
  5  9  1  0  0  0  0
  5  4  2  0  0  0  0
  6  5  1  0  0  0  0
 10 15  2  0  0  0  0
 10 11  1  0  0  0  0
 11 12  2  0  0  0  0
 12 13  1  0  0  0  0
 12  2  1  0  0  0  0
 14 18  1  0  0  0  0
 14 13  2  0  0  0  0
 15 14  1  0  0  0  0
 16 19  1  0  0  0  0
 16 10  1  0  0  0  0
 17 11  1  0  0  0  0
 20 16  1  0  0  0  0
 21  6  1  0  0  0  0
 22 21  2  0  0  0  0
 23 22  1  0  0  0  0
 24 23  2  0  0  0  0
 24 25  1  0  0  0  0
 25 26  2  0  0  0  0
 26 21  1  0  0  0  0
 26 31  1  0  0  0  0
 27 22  1  0  0  0  0
 28 23  1  0  0  0  0
 29 24  1  0  0  0  0
 30 25  1  0  0  0  0
 31 32  1  0  0  0  0
 32 34  1  0  0  0  0
 32 33  1  0  0  0  0
 34 35  1  0  0  0  0
 36 37  1  0  0  0  0
 36 34  1  0  0  0  0
 38 36  1  0  0  0  0
 39 38  1  0  0  0  0
 39 31  1  0  0  0  0
 40 41  3  0  0  0  0
 41  1  1  0  0  0  0
M  END
>  <minimizedAffinity>
-6.3204608

$$$$

 OpenBabel03252508403D

 41 44  0  0  0  0  0  0  0  0999 V2000
   39.3150   31.2900   40.5970 C   0  0  0  0  0  0  0  0  0  0  0  0
   39.3380   32.5510   40.0380 C   0  0  0  0  0  0  0  0  0  0  0  0
   38.1400   33.1710   39.8290 C   0  0  0  0  0  0  0  0  0  0  0  0
   36.9240   32.6190   40.1400 C   0  0  0  0  0  0  0  0  0  0  0  0
   36.9270   31.3570   40.6990 C   0  0  0  0  0  0  0  0  0  0  0  0
   38.1140   30.6870   40.9300 C   0  0  0  0  0  0  0  0  0  0  0  0
   38.1840   34.1620   39.3880 H   0  0  0  0  0  0  0  0  0  0  0  0
   36.0300   33.1940   39.9350 H   0  0  0  0  0  0  0  0  0  0  0  0
   35.9560   30.9200   40.9460 H   0  0  0  0  0  0  0  0  0  0  0  0
   42.3120   33.9080   38.1680 C   0  0  0  0  0  0  0  0  0  0  0  0
   41.0330   33.3720   38.4140 C   0  0  0  0  0  0  0  0  0  0  0  0
   40.6390   33.1030   39.7260 C   0  0  0  0  0  0  0  0  0  0  0  0
   41.5620   33.3930   40.6890 N   0  0  0  0  0  0  0  0  0  0  0  0
   42.7670   33.9010   40.4300 C   0  0  0  0  0  0  0  0  0  0  0  0
   43.1430   34.1590   39.1740 N   0  0  0  0  0  0  0  0  0  0  0  0
   42.6560   34.1610   36.8170 N   0  0  0  0  0  0  0  0  0  0  0  0
   40.3570   33.1690   37.5890 H   0  0  0  0  0  0  0  0  0  0  0  0
   43.4870   34.1270   41.2070 H   0  0  0  0  0  0  0  0  0  0  0  0
   42.0260   34.6600   36.1630 H   0  0  0  0  0  0  0  0  0  0  0  0
   43.5710   33.8580   36.3920 H   0  0  0  0  0  0  0  0  0  0  0  0
   38.0050   29.3690   41.5170 C   0  0  0  0  0  0  0  0  0  0  0  0
   38.0550   29.3350   42.9030 C   0  0  0  0  0  0  0  0  0  0  0  0
   37.9640   28.1570   43.6520 C   0  0  0  0  0  0  0  0  0  0  0  0
   37.8180   26.9770   42.9710 C   0  0  0  0  0  0  0  0  0  0  0  0
   37.7670   26.9920   41.6030 C   0  0  0  0  0  0  0  0  0  0  0  0
   37.8580   28.1730   40.8710 C   0  0  0  0  0  0  0  0  0  0  0  0
   38.1690   30.2400   43.5010 H   0  0  0  0  0  0  0  0  0  0  0  0
   38.0090   28.1830   44.7330 H   0  0  0  0  0  0  0  0  0  0  0  0
   37.7470   26.0610   43.5400 H   0  0  0  0  0  0  0  0  0  0  0  0
   37.6510   26.0440   41.0960 H   0  0  0  0  0  0  0  0  0  0  0  0
   37.8090   28.1950   39.4530 N   0  0  0  0  0  0  0  0  0  0  0  0
   38.8290   28.4240   38.4130 C   0  0  0  0  0  3  0  0  0  0  0  0
   39.6070   29.1290   38.7480 H   0  0  0  0  0  0  0  0  0  0  0  0
   38.1400   28.9200   37.1430 C   0  0  0  0  0  3  0  0  0  0  0  0
   38.8960   29.5040   36.5860 H   0  0  0  0  0  0  0  0  0  0  0  0
   37.0480   29.8100   37.4500 N   0  0  0  0  0  0  0  0  0  0  0  0
   36.7120   30.2620   36.5720 H   0  0  0  0  0  0  0  0  0  0  0  0
   35.9970   29.1990   38.2280 C   0  0  0  0  0  2  0  0  0  0  0  0
   36.5050   27.9440   38.8620 C   0  0  0  0  0  2  0  0  0  0  0  0
   41.5050   29.9580   41.0580 N   0  0  0  0  0  0  0  0  0  0  0  0
   40.5230   30.5680   40.8500 C   0  0  0  0  0  0  0  0  0  0  0  0
  1 41  1  0  0  0  0
  1  6  1  0  0  0  0
  2  1  2  0  0  0  0
  3  2  1  0  0  0  0
  3  4  2  0  0  0  0
  4  5  1  0  0  0  0
  5  6  2  0  0  0  0
  5  9  1  0  0  0  0
  6 21  1  0  0  0  0
  7  3  1  0  0  0  0
  8  4  1  0  0  0  0
 10 11  2  0  0  0  0
 10 15  1  0  0  0  0
 11 12  1  0  0  0  0
 12  2  1  0  0  0  0
 12 13  2  0  0  0  0
 14 13  1  0  0  0  0
 14 18  1  0  0  0  0
 15 14  2  0  0  0  0
 16 10  1  0  0  0  0
 17 11  1  0  0  0  0
 19 16  1  0  0  0  0
 20 16  1  0  0  0  0
 21 22  1  0  0  0  0
 22 27  1  0  0  0  0
 22 23  2  0  0  0  0
 23 28  1  0  0  0  0
 24 29  1  0  0  0  0
 24 23  1  0  0  0  0
 25 24  2  0  0  0  0
 26 21  2  0  0  0  0
 26 25  1  0  0  0  0
 30 25  1  0  0  0  0
 31 26  1  0  0  0  0
 32 33  1  0  0  0  0
 32 31  1  0  0  0  0
 34 36  1  0  0  0  0
 34 32  1  0  0  0  0
 35 34  1  0  0  0  0
 36 38  1  0  0  0  0
 37 36  1  0  0  0  0
 38 39  1  0  0  0  0
 39 31  1  0  0  0  0
 41 40  3  0  0  0  0
M  END
>  <minimizedAffinity>
-6.31447697

$$$$

 OpenBabel03252508403D

 41 44  0  0  0  0  0  0  0  0999 V2000
   38.5140   27.5190   41.4630 C   0  0  0  0  0  0  0  0  0  0  0  0
   37.4820   26.6820   41.8320 C   0  0  0  0  0  0  0  0  0  0  0  0
   36.7480   27.0310   42.9290 C   0  0  0  0  0  0  0  0  0  0  0  0
   36.9750   28.1550   43.6790 C   0  0  0  0  0  0  0  0  0  0  0  0
   38.0130   28.9770   43.2910 C   0  0  0  0  0  0  0  0  0  0  0  0
   38.7860   28.6680   42.1870 C   0  0  0  0  0  0  0  0  0  0  0  0
   35.9410   26.3560   43.1990 H   0  0  0  0  0  0  0  0  0  0  0  0
   36.3340   28.3430   44.5330 H   0  0  0  0  0  0  0  0  0  0  0  0
   38.1900   29.8730   43.8910 H   0  0  0  0  0  0  0  0  0  0  0  0
   37.6080   23.1630   40.4980 C   0  0  0  0  0  0  0  0  0  0  0  0
   37.8470   24.2730   41.3290 C   0  0  0  0  0  0  0  0  0  0  0  0
   37.2710   25.5070   41.0150 C   0  0  0  0  0  0  0  0  0  0  0  0
   36.5010   25.5260   39.8880 N   0  0  0  0  0  0  0  0  0  0  0  0
   36.2900   24.4590   39.1160 C   0  0  0  0  0  0  0  0  0  0  0  0
   36.8410   23.2800   39.4190 N   0  0  0  0  0  0  0  0  0  0  0  0
   38.2180   21.9380   40.8670 N   0  0  0  0  0  0  0  0  0  0  0  0
   38.4730   24.1740   42.2100 H   0  0  0  0  0  0  0  0  0  0  0  0
   35.6760   24.4920   38.2260 H   0  0  0  0  0  0  0  0  0  0  0  0
   38.1810   21.5630   41.8320 H   0  0  0  0  0  0  0  0  0  0  0  0
   38.7470   21.3330   40.1870 H   0  0  0  0  0  0  0  0  0  0  0  0
   39.8490   29.5950   41.8670 C   0  0  0  0  0  0  0  0  0  0  0  0
   41.0260   29.4090   42.5770 C   0  0  0  0  0  0  0  0  0  0  0  0
   42.1660   30.2020   42.4080 C   0  0  0  0  0  0  0  0  0  0  0  0
   42.1070   31.2160   41.4880 C   0  0  0  0  0  0  0  0  0  0  0  0
   40.9540   31.4140   40.7780 C   0  0  0  0  0  0  0  0  0  0  0  0
   39.8270   30.6160   40.9570 C   0  0  0  0  0  0  0  0  0  0  0  0
   41.1350   28.6190   43.3220 H   0  0  0  0  0  0  0  0  0  0  0  0
   43.0610   30.0170   42.9870 H   0  0  0  0  0  0  0  0  0  0  0  0
   42.9820   31.8350   41.3490 H   0  0  0  0  0  0  0  0  0  0  0  0
   40.9400   32.2230   40.0600 H   0  0  0  0  0  0  0  0  0  0  0  0
   38.6270   30.8180   40.2270 N   0  0  0  0  0  0  0  0  0  0  0  0
   38.1060   30.2530   38.9690 C   0  0  0  0  0  3  0  0  0  0  0  0
   38.9140   30.0190   38.2570 H   0  0  0  0  0  0  0  0  0  0  0  0
   37.1000   31.2310   38.3640 C   0  0  0  0  0  3  0  0  0  0  0  0
   37.0920   31.0370   37.2760 H   0  0  0  0  0  0  0  0  0  0  0  0
   37.5160   32.5990   38.5550 N   0  0  0  0  0  0  0  0  0  0  0  0
   36.9080   33.2280   37.9890 H   0  0  0  0  0  0  0  0  0  0  0  0
   37.6280   32.9890   39.9400 C   0  0  0  0  0  2  0  0  0  0  0  0
   37.6910   31.7690   40.8020 C   0  0  0  0  0  2  0  0  0  0  0  0
   40.0200   27.0080   39.4000 N   0  0  0  0  0  0  0  0  0  0  0  0
   39.3360   27.2300   40.3280 C   0  0  0  0  0  0  0  0  0  0  0  0
  1  2  2  0  0  0  0
  1  6  1  0  0  0  0
  2  3  1  0  0  0  0
  3  7  1  0  0  0  0
  3  4  2  0  0  0  0
  4  8  1  0  0  0  0
  5  4  1  0  0  0  0
  5  9  1  0  0  0  0
  6  5  2  0  0  0  0
 10 16  1  0  0  0  0
 10 11  1  0  0  0  0
 11 17  1  0  0  0  0
 12 11  2  0  0  0  0
 12  2  1  0  0  0  0
 13 12  1  0  0  0  0
 14 15  1  0  0  0  0
 14 13  2  0  0  0  0
 15 10  2  0  0  0  0
 16 19  1  0  0  0  0
 18 14  1  0  0  0  0
 20 16  1  0  0  0  0
 21  6  1  0  0  0  0
 21 22  1  0  0  0  0
 22 27  1  0  0  0  0
 23 22  2  0  0  0  0
 23 28  1  0  0  0  0
 24 23  1  0  0  0  0
 25 26  1  0  0  0  0
 25 24  2  0  0  0  0
 26 21  2  0  0  0  0
 29 24  1  0  0  0  0
 30 25  1  0  0  0  0
 31 39  1  0  0  0  0
 31 26  1  0  0  0  0
 32 31  1  0  0  0  0
 33 32  1  0  0  0  0
 34 36  1  0  0  0  0
 34 32  1  0  0  0  0
 35 34  1  0  0  0  0
 36 38  1  0  0  0  0
 37 36  1  0  0  0  0
 38 39  1  0  0  0  0
 40 41  3  0  0  0  0
 41  1  1  0  0  0  0
M  END
>  <minimizedAffinity>
-6.09994793

$$$$

 OpenBabel03252508403D

 41 44  0  0  0  0  0  0  0  0999 V2000
   39.3580   31.8270   39.0230 C   0  0  0  0  0  0  0  0  0  0  0  0
   39.8130   33.0550   39.4580 C   0  0  0  0  0  0  0  0  0  0  0  0
   38.8860   33.9420   39.9250 C   0  0  0  0  0  0  0  0  0  0  0  0
   37.5410   33.6870   39.9860 C   0  0  0  0  0  0  0  0  0  0  0  0
   37.1100   32.4520   39.5450 C   0  0  0  0  0  0  0  0  0  0  0  0
   38.0090   31.5180   39.0640 C   0  0  0  0  0  0  0  0  0  0  0  0
   39.2690   34.9010   40.2610 H   0  0  0  0  0  0  0  0  0  0  0  0
   36.8870   34.4590   40.3740 H   0  0  0  0  0  0  0  0  0  0  0  0
   36.0370   32.2530   39.5960 H   0  0  0  0  0  0  0  0  0  0  0  0
   43.2640   33.8210   38.1620 C   0  0  0  0  0  0  0  0  0  0  0  0
   41.8730   33.6060   38.1790 C   0  0  0  0  0  0  0  0  0  0  0  0
   41.2390   33.2860   39.3810 C   0  0  0  0  0  0  0  0  0  0  0  0
   42.0550   33.2060   40.4730 N   0  0  0  0  0  0  0  0  0  0  0  0
   43.3710   33.4140   40.4310 C   0  0  0  0  0  0  0  0  0  0  0  0
   43.9760   33.7210   39.2800 N   0  0  0  0  0  0  0  0  0  0  0  0
   43.8520   34.1430   36.9130 N   0  0  0  0  0  0  0  0  0  0  0  0
   41.2950   33.6900   37.2630 H   0  0  0  0  0  0  0  0  0  0  0  0
   44.0030   33.3470   41.3080 H   0  0  0  0  0  0  0  0  0  0  0  0
   43.4620   34.8650   36.2810 H   0  0  0  0  0  0  0  0  0  0  0  0
   44.7190   33.6700   36.5490 H   0  0  0  0  0  0  0  0  0  0  0  0
   37.4520   30.2570   38.6250 C   0  0  0  0  0  0  0  0  0  0  0  0
   36.9680   30.2470   37.3250 C   0  0  0  0  0  0  0  0  0  0  0  0
   36.3950   29.1230   36.7220 C   0  0  0  0  0  0  0  0  0  0  0  0
   36.3110   27.9730   37.4630 C   0  0  0  0  0  0  0  0  0  0  0  0
   36.7840   27.9660   38.7470 C   0  0  0  0  0  0  0  0  0  0  0  0
   37.3530   29.0920   39.3350 C   0  0  0  0  0  0  0  0  0  0  0  0
   37.0070   31.1300   36.6850 H   0  0  0  0  0  0  0  0  0  0  0  0
   36.0320   29.1660   35.7030 H   0  0  0  0  0  0  0  0  0  0  0  0
   35.8710   27.0990   37.0060 H   0  0  0  0  0  0  0  0  0  0  0  0
   36.7030   27.0420   39.3050 H   0  0  0  0  0  0  0  0  0  0  0  0
   37.8410   29.0920   40.6670 N   0  0  0  0  0  0  0  0  0  0  0  0
   39.1820   28.8960   41.2480 C   0  0  0  0  0  3  0  0  0  0  0  0
   39.7910   28.1990   40.6510 H   0  0  0  0  0  0  0  0  0  0  0  0
   39.0330   28.4090   42.6880 C   0  0  0  0  0  3  0  0  0  0  0  0
   39.9540   27.8460   42.9250 H   0  0  0  0  0  0  0  0  0  0  0  0
   37.9240   27.4960   42.8230 N   0  0  0  0  0  0  0  0  0  0  0  0
   37.9530   27.0530   43.7660 H   0  0  0  0  0  0  0  0  0  0  0  0
   36.6450   28.0760   42.4920 C   0  0  0  0  0  2  0  0  0  0  0  0
   36.8500   29.3300   41.7030 C   0  0  0  0  0  2  0  0  0  0  0  0
   41.0010   30.0190   38.1190 N   0  0  0  0  0  0  0  0  0  0  0  0
   40.2580   30.8380   38.5170 C   0  0  0  0  0  0  0  0  0  0  0  0
  1  6  2  0  0  0  0
  1  2  1  0  0  0  0
  2  3  2  0  0  0  0
  3  4  1  0  0  0  0
  3  7  1  0  0  0  0
  4  8  1  0  0  0  0
  5  9  1  0  0  0  0
  5  4  2  0  0  0  0
  6  5  1  0  0  0  0
 10 11  2  0  0  0  0
 10 15  1  0  0  0  0
 11 12  1  0  0  0  0
 12  2  1  0  0  0  0
 12 13  2  0  0  0  0
 14 13  1  0  0  0  0
 14 18  1  0  0  0  0
 15 14  2  0  0  0  0
 16 10  1  0  0  0  0
 17 11  1  0  0  0  0
 19 16  1  0  0  0  0
 20 16  1  0  0  0  0
 21  6  1  0  0  0  0
 21 26  1  0  0  0  0
 22 21  2  0  0  0  0
 23 22  1  0  0  0  0
 23 24  2  0  0  0  0
 24 25  1  0  0  0  0
 25 30  1  0  0  0  0
 25 26  2  0  0  0  0
 26 31  1  0  0  0  0
 27 22  1  0  0  0  0
 28 23  1  0  0  0  0
 29 24  1  0  0  0  0
 31 32  1  0  0  0  0
 31 39  1  0  0  0  0
 32 34  1  0  0  0  0
 33 32  1  0  0  0  0
 34 36  1  0  0  0  0
 34 35  1  0  0  0  0
 36 37  1  0  0  0  0
 38 36  1  0  0  0  0
 39 38  1  0  0  0  0
 40 41  3  0  0  0  0
 41  1  1  0  0  0  0
M  END
>  <minimizedAffinity>
-5.97208309

$$$$

 OpenBabel03252508403D

 41 44  0  0  0  0  0  0  0  0999 V2000
   41.1150   29.2400   39.2740 C   0  0  0  0  0  0  0  0  0  0  0  0
   41.5070   29.4810   37.9730 C   0  0  0  0  0  0  0  0  0  0  0  0
   40.9930   28.6740   37.0000 C   0  0  0  0  0  0  0  0  0  0  0  0
   40.1180   27.6460   37.2360 C   0  0  0  0  0  0  0  0  0  0  0  0
   39.7400   27.4250   38.5440 C   0  0  0  0  0  0  0  0  0  0  0  0
   40.2320   28.2150   39.5670 C   0  0  0  0  0  0  0  0  0  0  0  0
   41.3170   28.8830   35.9840 H   0  0  0  0  0  0  0  0  0  0  0  0
   39.7680   27.0640   36.3920 H   0  0  0  0  0  0  0  0  0  0  0  0
   39.0410   26.6050   38.7280 H   0  0  0  0  0  0  0  0  0  0  0  0
   42.9370   32.8750   37.1890 C   0  0  0  0  0  0  0  0  0  0  0  0
   41.9950   31.8470   37.3810 C   0  0  0  0  0  0  0  0  0  0  0  0
   42.4300   30.5760   37.7620 C   0  0  0  0  0  0  0  0  0  0  0  0
   43.7790   30.4380   37.9200 N   0  0  0  0  0  0  0  0  0  0  0  0
   44.6510   31.4290   37.7320 C   0  0  0  0  0  0  0  0  0  0  0  0
   44.2330   32.6450   37.3670 N   0  0  0  0  0  0  0  0  0  0  0  0
   42.4360   34.1440   36.8030 N   0  0  0  0  0  0  0  0  0  0  0  0
   40.9360   32.0390   37.2350 H   0  0  0  0  0  0  0  0  0  0  0  0
   45.7190   31.3030   37.8620 H   0  0  0  0  0  0  0  0  0  0  0  0
   41.6370   34.5980   37.2800 H   0  0  0  0  0  0  0  0  0  0  0  0
   42.8440   34.7030   36.0100 H   0  0  0  0  0  0  0  0  0  0  0  0
   39.7740   27.8970   40.9020 C   0  0  0  0  0  0  0  0  0  0  0  0
   40.4880   26.8990   41.5480 C   0  0  0  0  0  0  0  0  0  0  0  0
   40.1990   26.4530   42.8420 C   0  0  0  0  0  0  0  0  0  0  0  0
   39.1500   27.0400   43.4990 C   0  0  0  0  0  0  0  0  0  0  0  0
   38.4340   28.0270   42.8770 C   0  0  0  0  0  0  0  0  0  0  0  0
   38.7340   28.4600   41.5880 C   0  0  0  0  0  0  0  0  0  0  0  0
   41.3340   26.3940   41.0770 H   0  0  0  0  0  0  0  0  0  0  0  0
   40.7870   25.6700   43.3030 H   0  0  0  0  0  0  0  0  0  0  0  0
   38.9180   26.7040   44.5000 H   0  0  0  0  0  0  0  0  0  0  0  0
   37.6120   28.4700   43.4230 H   0  0  0  0  0  0  0  0  0  0  0  0
   37.9930   29.4800   40.9360 N   0  0  0  0  0  0  0  0  0  0  0  0
   38.1250   30.9480   40.8890 C   0  0  0  0  0  3  0  0  0  0  0  0
   38.5290   31.3550   41.8290 H   0  0  0  0  0  0  0  0  0  0  0  0
   36.7640   31.5580   40.5590 C   0  0  0  0  0  3  0  0  0  0  0  0
   36.7720   32.5820   40.9760 H   0  0  0  0  0  0  0  0  0  0  0  0
   35.6940   30.8380   41.2030 N   0  0  0  0  0  0  0  0  0  0  0  0
   34.8050   31.3730   41.1020 H   0  0  0  0  0  0  0  0  0  0  0  0
   35.5900   29.4570   40.7970 C   0  0  0  0  0  2  0  0  0  0  0  0
   36.8640   29.0290   40.1410 C   0  0  0  0  0  2  0  0  0  0  0  0
   42.0170   30.6980   41.2340 N   0  0  0  0  0  0  0  0  0  0  0  0
   41.6040   30.0350   40.3570 C   0  0  0  0  0  0  0  0  0  0  0  0
  1  6  1  0  0  0  0
  1 41  1  0  0  0  0
  2  1  2  0  0  0  0
  3  4  2  0  0  0  0
  3  2  1  0  0  0  0
  4  5  1  0  0  0  0
  5  9  1  0  0  0  0
  5  6  2  0  0  0  0
  6 21  1  0  0  0  0
  7  3  1  0  0  0  0
  8  4  1  0  0  0  0
 10 15  2  0  0  0  0
 10 11  1  0  0  0  0
 11 12  2  0  0  0  0
 12 13  1  0  0  0  0
 12  2  1  0  0  0  0
 14 18  1  0  0  0  0
 14 13  2  0  0  0  0
 15 14  1  0  0  0  0
 16 10  1  0  0  0  0
 16 19  1  0  0  0  0
 17 11  1  0  0  0  0
 20 16  1  0  0  0  0
 21 22  2  0  0  0  0
 21 26  1  0  0  0  0
 22 23  1  0  0  0  0
 23 28  1  0  0  0  0
 23 24  2  0  0  0  0
 24 29  1  0  0  0  0
 25 30  1  0  0  0  0
 25 24  1  0  0  0  0
 26 25  2  0  0  0  0
 27 22  1  0  0  0  0
 31 26  1  0  0  0  0
 32 31  1  0  0  0  0
 32 33  1  0  0  0  0
 34 32  1  0  0  0  0
 34 35  1  0  0  0  0
 34 36  1  0  0  0  0
 37 36  1  0  0  0  0
 38 36  1  0  0  0  0
 39 38  1  0  0  0  0
 39 31  1  0  0  0  0
 41 40  3  0  0  0  0
M  END
>  <minimizedAffinity>
-5.90070677

$$$$

 OpenBabel03252508403D

 41 44  0  0  0  0  0  0  0  0999 V2000
   38.7500   31.1720   39.5880 C   0  0  0  0  0  0  0  0  0  0  0  0
   37.6190   31.5620   38.9010 C   0  0  0  0  0  0  0  0  0  0  0  0
   37.2070   32.8550   39.0470 C   0  0  0  0  0  0  0  0  0  0  0  0
   37.8450   33.7820   39.8290 C   0  0  0  0  0  0  0  0  0  0  0  0
   38.9740   33.3690   40.5060 C   0  0  0  0  0  0  0  0  0  0  0  0
   39.4330   32.0700   40.3920 C   0  0  0  0  0  0  0  0  0  0  0  0
   36.3140   33.1380   38.4960 H   0  0  0  0  0  0  0  0  0  0  0  0
   37.4370   34.7840   39.8770 H   0  0  0  0  0  0  0  0  0  0  0  0
   39.4810   34.1110   41.1280 H   0  0  0  0  0  0  0  0  0  0  0  0
   36.7590   29.2620   36.0460 C   0  0  0  0  0  0  0  0  0  0  0  0
   37.4250   30.2490   36.7980 C   0  0  0  0  0  0  0  0  0  0  0  0
   36.9740   30.5570   38.0830 C   0  0  0  0  0  0  0  0  0  0  0  0
   35.8880   29.8500   38.5110 N   0  0  0  0  0  0  0  0  0  0  0  0
   35.2750   28.9200   37.7800 C   0  0  0  0  0  0  0  0  0  0  0  0
   35.7070   28.6260   36.5500 N   0  0  0  0  0  0  0  0  0  0  0  0
   37.2620   28.9920   34.7490 N   0  0  0  0  0  0  0  0  0  0  0  0
   38.2840   30.7670   36.3830 H   0  0  0  0  0  0  0  0  0  0  0  0
   34.4140   28.3670   38.1350 H   0  0  0  0  0  0  0  0  0  0  0  0
   38.2680   28.8390   34.5600 H   0  0  0  0  0  0  0  0  0  0  0  0
   36.6460   28.9310   33.8970 H   0  0  0  0  0  0  0  0  0  0  0  0
   40.6240   31.7400   41.1450 C   0  0  0  0  0  0  0  0  0  0  0  0
   40.3960   31.1430   42.3760 C   0  0  0  0  0  0  0  0  0  0  0  0
   41.4170   30.7500   43.2470 C   0  0  0  0  0  0  0  0  0  0  0  0
   42.7110   30.9720   42.8550 C   0  0  0  0  0  0  0  0  0  0  0  0
   42.9540   31.5600   41.6430 C   0  0  0  0  0  0  0  0  0  0  0  0
   41.9270   31.9450   40.7860 C   0  0  0  0  0  0  0  0  0  0  0  0
   39.3880   30.9400   42.7440 H   0  0  0  0  0  0  0  0  0  0  0  0
   41.1870   30.2880   44.1980 H   0  0  0  0  0  0  0  0  0  0  0  0
   43.5080   30.6720   43.5200 H   0  0  0  0  0  0  0  0  0  0  0  0
   43.9870   31.7210   41.3630 H   0  0  0  0  0  0  0  0  0  0  0  0
   42.1730   32.5590   39.5310 N   0  0  0  0  0  0  0  0  0  0  0  0
   42.1110   33.9560   39.0630 C   0  0  0  0  0  3  0  0  0  0  0  0
   41.3310   34.5310   39.5880 H   0  0  0  0  0  0  0  0  0  0  0  0
   41.8830   33.9640   37.5520 C   0  0  0  0  0  3  0  0  0  0  0  0
   41.3910   34.9250   37.3150 H   0  0  0  0  0  0  0  0  0  0  0  0
   40.9870   32.9090   37.1490 N   0  0  0  0  0  0  0  0  0  0  0  0
   40.7180   33.0450   36.1510 H   0  0  0  0  0  0  0  0  0  0  0  0
   41.4730   31.5830   37.4450 C   0  0  0  0  0  2  0  0  0  0  0  0
   42.5700   31.6640   38.4570 C   0  0  0  0  0  2  0  0  0  0  0  0
   39.6560   28.7350   39.4350 N   0  0  0  0  0  0  0  0  0  0  0  0
   39.2530   29.8370   39.4950 C   0  0  0  0  0  0  0  0  0  0  0  0
  1  6  1  0  0  0  0
  2  3  1  0  0  0  0
  2  1  2  0  0  0  0
  3  4  2  0  0  0  0
  4  8  1  0  0  0  0
  4  5  1  0  0  0  0
  5  9  1  0  0  0  0
  6  5  2  0  0  0  0
  6 21  1  0  0  0  0
  7  3  1  0  0  0  0
 10 15  2  0  0  0  0
 10 11  1  0  0  0  0
 11 12  2  0  0  0  0
 12 13  1  0  0  0  0
 12  2  1  0  0  0  0
 14 18  1  0  0  0  0
 14 13  2  0  0  0  0
 15 14  1  0  0  0  0
 16 10  1  0  0  0  0
 17 11  1  0  0  0  0
 19 16  1  0  0  0  0
 20 16  1  0  0  0  0
 21 22  1  0  0  0  0
 22 27  1  0  0  0  0
 22 23  2  0  0  0  0
 23 28  1  0  0  0  0
 24 23  1  0  0  0  0
 24 29  1  0  0  0  0
 25 24  2  0  0  0  0
 26 21  2  0  0  0  0
 26 25  1  0  0  0  0
 30 25  1  0  0  0  0
 31 26  1  0  0  0  0
 32 31  1  0  0  0  0
 32 33  1  0  0  0  0
 34 32  1  0  0  0  0
 35 34  1  0  0  0  0
 36 38  1  0  0  0  0
 36 34  1  0  0  0  0
 37 36  1  0  0  0  0
 38 39  1  0  0  0  0
 39 31  1  0  0  0  0
 40 41  3  0  0  0  0
 41  1  1  0  0  0  0
M  END
>  <minimizedAffinity>
-5.88023281

$$$$

 OpenBabel03252508403D

 41 44  0  0  0  0  0  0  0  0999 V2000
   38.7310   28.5840   40.0980 C   0  0  0  0  0  0  0  0  0  0  0  0
   39.1350   27.3100   39.7590 C   0  0  0  0  0  0  0  0  0  0  0  0
   39.9750   27.1770   38.6920 C   0  0  0  0  0  0  0  0  0  0  0  0
   40.4370   28.2270   37.9410 C   0  0  0  0  0  0  0  0  0  0  0  0
   40.0190   29.4930   38.2990 C   0  0  0  0  0  0  0  0  0  0  0  0
   39.1680   29.6810   39.3730 C   0  0  0  0  0  0  0  0  0  0  0  0
   40.2790   26.1640   38.4450 H   0  0  0  0  0  0  0  0  0  0  0  0
   41.1010   28.0160   37.1130 H   0  0  0  0  0  0  0  0  0  0  0  0
   40.3890   30.3270   37.6990 H   0  0  0  0  0  0  0  0  0  0  0  0
   38.8800   24.5390   42.2970 C   0  0  0  0  0  0  0  0  0  0  0  0
   39.4240   25.5880   41.5310 C   0  0  0  0  0  0  0  0  0  0  0  0
   38.6300   26.2270   40.5760 C   0  0  0  0  0  0  0  0  0  0  0  0
   37.3520   25.7600   40.4650 N   0  0  0  0  0  0  0  0  0  0  0  0
   36.8610   24.7650   41.2030 C   0  0  0  0  0  0  0  0  0  0  0  0
   37.6210   24.1540   42.1170 N   0  0  0  0  0  0  0  0  0  0  0  0
   39.7330   23.9290   43.2510 N   0  0  0  0  0  0  0  0  0  0  0  0
   40.4530   25.9000   41.6810 H   0  0  0  0  0  0  0  0  0  0  0  0
   35.8440   24.4070   41.1040 H   0  0  0  0  0  0  0  0  0  0  0  0
   40.3110   24.4750   43.9150 H   0  0  0  0  0  0  0  0  0  0  0  0
   39.8340   22.8850   43.3440 H   0  0  0  0  0  0  0  0  0  0  0  0
   38.7890   31.0470   39.6620 C   0  0  0  0  0  0  0  0  0  0  0  0
   37.6800   31.5100   38.9700 C   0  0  0  0  0  0  0  0  0  0  0  0
   37.1600   32.8000   39.1150 C   0  0  0  0  0  0  0  0  0  0  0  0
   37.7890   33.6470   39.9900 C   0  0  0  0  0  0  0  0  0  0  0  0
   38.8850   33.2060   40.6810 C   0  0  0  0  0  0  0  0  0  0  0  0
   39.3900   31.9190   40.5270 C   0  0  0  0  0  0  0  0  0  0  0  0
   37.1370   30.8830   38.2600 H   0  0  0  0  0  0  0  0  0  0  0  0
   36.2910   33.1140   38.5510 H   0  0  0  0  0  0  0  0  0  0  0  0
   37.3950   34.6460   40.1090 H   0  0  0  0  0  0  0  0  0  0  0  0
   39.3570   33.9000   41.3650 H   0  0  0  0  0  0  0  0  0  0  0  0
   40.5280   31.4580   41.2380 N   0  0  0  0  0  0  0  0  0  0  0  0
   40.6960   30.7490   42.5210 C   0  0  0  0  0  3  0  0  0  0  0  0
   39.9170   31.0250   43.2480 H   0  0  0  0  0  0  0  0  0  0  0  0
   42.0930   31.0380   43.0680 C   0  0  0  0  0  3  0  0  0  0  0  0
   42.0300   30.9130   44.1650 H   0  0  0  0  0  0  0  0  0  0  0  0
   42.4880   32.4010   42.8100 N   0  0  0  0  0  0  0  0  0  0  0  0
   43.3610   32.6140   43.3400 H   0  0  0  0  0  0  0  0  0  0  0  0
   42.5620   32.7330   41.4080 C   0  0  0  0  0  2  0  0  0  0  0  0
   41.8130   31.7150   40.6100 C   0  0  0  0  0  2  0  0  0  0  0  0
   37.1240   28.9880   42.1080 N   0  0  0  0  0  0  0  0  0  0  0  0
   37.8510   28.8160   41.2010 C   0  0  0  0  0  0  0  0  0  0  0  0
  1 41  1  0  0  0  0
  2  1  1  0  0  0  0
  2 12  1  0  0  0  0
  3  2  2  0  0  0  0
  4  5  2  0  0  0  0
  4  3  1  0  0  0  0
  5  6  1  0  0  0  0
  6 21  1  0  0  0  0
  6  1  2  0  0  0  0
  7  3  1  0  0  0  0
  8  4  1  0  0  0  0
  9  5  1  0  0  0  0
 10 16  1  0  0  0  0
 11 17  1  0  0  0  0
 11 10  2  0  0  0  0
 12 11  1  0  0  0  0
 13 12  2  0  0  0  0
 13 14  1  0  0  0  0
 14 15  2  0  0  0  0
 15 10  1  0  0  0  0
 16 20  1  0  0  0  0
 16 19  1  0  0  0  0
 18 14  1  0  0  0  0
 21 26  1  0  0  0  0
 22 23  1  0  0  0  0
 22 21  2  0  0  0  0
 23 24  2  0  0  0  0
 24 29  1  0  0  0  0
 24 25  1  0  0  0  0
 25 30  1  0  0  0  0
 26 25  2  0  0  0  0
 26 31  1  0  0  0  0
 27 22  1  0  0  0  0
 28 23  1  0  0  0  0
 31 32  1  0  0  0  0
 32 34  1  0  0  0  0
 32 33  1  0  0  0  0
 34 35  1  0  0  0  0
 36 34  1  0  0  0  0
 36 37  1  0  0  0  0
 38 36  1  0  0  0  0
 39 31  1  0  0  0  0
 39 38  1  0  0  0  0
 41 40  3  0  0  0  0
M  END
>  <minimizedAffinity>
-5.87270117

$$$$

 OpenBabel03252508403D

 41 44  0  0  0  0  0  0  0  0999 V2000
   37.8800   28.9640   40.1450 C   0  0  0  0  0  0  0  0  0  0  0  0
   37.7310   30.3320   40.0510 C   0  0  0  0  0  0  0  0  0  0  0  0
   36.4840   30.8470   40.2610 C   0  0  0  0  0  0  0  0  0  0  0  0
   35.3800   30.0910   40.5580 C   0  0  0  0  0  0  0  0  0  0  0  0
   35.5540   28.7250   40.6470 C   0  0  0  0  0  0  0  0  0  0  0  0
   36.7960   28.1540   40.4430 C   0  0  0  0  0  0  0  0  0  0  0  0
   36.3930   31.9270   40.1820 H   0  0  0  0  0  0  0  0  0  0  0  0
   34.4340   30.5980   40.7070 H   0  0  0  0  0  0  0  0  0  0  0  0
   34.6710   28.1260   40.8840 H   0  0  0  0  0  0  0  0  0  0  0  0
   40.3960   32.2320   38.1890 C   0  0  0  0  0  0  0  0  0  0  0  0
   39.2260   31.4880   38.4340 C   0  0  0  0  0  0  0  0  0  0  0  0
   38.9190   31.0970   39.7400 C   0  0  0  0  0  0  0  0  0  0  0  0
   39.8140   31.4840   40.6950 N   0  0  0  0  0  0  0  0  0  0  0  0
   40.9160   32.1880   40.4370 C   0  0  0  0  0  0  0  0  0  0  0  0
   41.2080   32.5620   39.1880 N   0  0  0  0  0  0  0  0  0  0  0  0
   40.6550   32.6010   36.8450 N   0  0  0  0  0  0  0  0  0  0  0  0
   38.5650   31.2210   37.6160 H   0  0  0  0  0  0  0  0  0  0  0  0
   41.6150   32.4870   41.2080 H   0  0  0  0  0  0  0  0  0  0  0  0
   39.9350   33.0240   36.2330 H   0  0  0  0  0  0  0  0  0  0  0  0
   41.5930   32.4680   36.3850 H   0  0  0  0  0  0  0  0  0  0  0  0
   36.8680   26.7140   40.5570 C   0  0  0  0  0  0  0  0  0  0  0  0
   37.0540   26.2330   41.8450 C   0  0  0  0  0  0  0  0  0  0  0  0
   37.1470   24.8730   42.1580 C   0  0  0  0  0  0  0  0  0  0  0  0
   37.0490   23.9730   41.1290 C   0  0  0  0  0  0  0  0  0  0  0  0
   36.8650   24.4300   39.8520 C   0  0  0  0  0  0  0  0  0  0  0  0
   36.7740   25.7870   39.5560 C   0  0  0  0  0  0  0  0  0  0  0  0
   37.1390   26.8990   42.7060 H   0  0  0  0  0  0  0  0  0  0  0  0
   37.2920   24.5480   43.1800 H   0  0  0  0  0  0  0  0  0  0  0  0
   37.1190   22.9200   41.3600 H   0  0  0  0  0  0  0  0  0  0  0  0
   36.7920   23.6940   39.0620 H   0  0  0  0  0  0  0  0  0  0  0  0
   36.5880   26.2670   38.2340 N   0  0  0  0  0  0  0  0  0  0  0  0
   37.4960   26.8830   37.2480 C   0  0  0  0  0  3  0  0  0  0  0  0
   38.2820   27.4850   37.7320 H   0  0  0  0  0  0  0  0  0  0  0  0
   36.6740   27.7240   36.2730 C   0  0  0  0  0  3  0  0  0  0  0  0
   37.3550   28.5010   35.8800 H   0  0  0  0  0  0  0  0  0  0  0  0
   35.5910   28.3990   36.9440 N   0  0  0  0  0  0  0  0  0  0  0  0
   35.1590   29.0910   36.2950 H   0  0  0  0  0  0  0  0  0  0  0  0
   34.6380   27.5070   37.5610 C   0  0  0  0  0  2  0  0  0  0  0  0
   35.2420   26.1460   37.7010 C   0  0  0  0  0  2  0  0  0  0  0  0
   40.1830   27.8090   39.7630 N   0  0  0  0  0  0  0  0  0  0  0  0
   39.1490   28.3390   39.9390 C   0  0  0  0  0  0  0  0  0  0  0  0
  1  6  1  0  0  0  0
  2  1  2  0  0  0  0
  2  3  1  0  0  0  0
  3  4  2  0  0  0  0
  4  5  1  0  0  0  0
  4  8  1  0  0  0  0
  5  9  1  0  0  0  0
  6 21  1  0  0  0  0
  6  5  2  0  0  0  0
  7  3  1  0  0  0  0
 10 11  2  0  0  0  0
 10 15  1  0  0  0  0
 11 12  1  0  0  0  0
 12  2  1  0  0  0  0
 12 13  2  0  0  0  0
 14 13  1  0  0  0  0
 14 18  1  0  0  0  0
 15 14  2  0  0  0  0
 16 10  1  0  0  0  0
 17 11  1  0  0  0  0
 19 16  1  0  0  0  0
 20 16  1  0  0  0  0
 21 22  1  0  0  0  0
 22 23  2  0  0  0  0
 22 27  1  0  0  0  0
 23 28  1  0  0  0  0
 24 29  1  0  0  0  0
 24 23  1  0  0  0  0
 25 24  2  0  0  0  0
 26 25  1  0  0  0  0
 26 21  2  0  0  0  0
 30 25  1  0  0  0  0
 31 26  1  0  0  0  0
 32 33  1  0  0  0  0
 32 31  1  0  0  0  0
 34 36  1  0  0  0  0
 34 32  1  0  0  0  0
 35 34  1  0  0  0  0
 36 38  1  0  0  0  0
 37 36  1  0  0  0  0
 38 39  1  0  0  0  0
 39 31  1  0  0  0  0
 40 41  3  0  0  0  0
 41  1  1  0  0  0  0
M  END
>  <minimizedAffinity>
-5.82510996

$$$$
