
 OpenBabel03252508343D

 35 37  0  0  1  0  0  0  0  0999 V2000
   44.8680   34.3760   41.4640 N   0  0  0  0  0  0  0  0  0  0  0  0
   45.9410   33.6800   40.8080 C   0  0  1  0  0  0  0  0  0  0  0  0
   45.8010   33.5460   39.3370 C   0  0  0  0  0  0  0  0  0  0  0  0
   44.5040   33.3020   38.8850 N   0  0  0  0  0  0  0  0  0  0  0  0
   43.4170   33.8280   39.5890 C   0  0  0  0  0  0  0  0  0  0  0  0
   43.8710   34.8870   40.5780 C   0  0  0  0  0  0  0  0  0  0  0  0
   46.0070   32.6750   41.2570 H   0  0  0  0  0  0  0  0  0  0  0  0
   46.1630   34.4970   38.8760 H   0  0  0  0  0  0  0  0  0  0  0  0
   46.4680   32.7250   38.9880 H   0  0  0  0  0  0  0  0  0  0  0  0
   44.3340   32.6680   38.1160 H   0  0  0  0  0  0  0  0  0  0  0  0
   42.7040   34.3240   38.8970 H   0  0  0  0  0  0  0  0  0  0  0  0
   42.7920   33.0670   40.1290 H   0  0  0  0  0  0  0  0  0  0  0  0
   44.1700   35.8100   40.0400 H   0  0  0  0  0  0  0  0  0  0  0  0
   42.9740   35.1510   41.1930 H   0  0  0  0  0  0  0  0  0  0  0  0
   44.5850   35.7350   43.3900 C   0  0  0  0  0  0  0  0  0  0  0  0
   44.9150   34.4770   42.8650 C   0  0  0  0  0  0  0  0  0  0  0  0
   45.2530   33.4530   43.7530 C   0  0  0  0  0  0  0  0  0  0  0  0
   45.2530   33.7050   45.0880 N   0  0  0  0  0  0  0  0  0  0  0  0
   44.9330   34.9150   45.5670 C   0  0  0  0  0  0  0  0  0  0  0  0
   44.6070   35.9110   44.7470 N   0  0  0  0  0  0  0  0  0  0  0  0
   44.3110   36.5780   42.7550 H   0  0  0  0  0  0  0  0  0  0  0  0
   45.4980   32.5060   43.3080 H   0  0  0  0  0  0  0  0  0  0  0  0
   44.9350   35.1150   46.6480 H   0  0  0  0  0  0  0  0  0  0  0  0
   47.2350   34.4320   41.0710 C   0  0  0  0  0  0  0  0  0  0  0  0
   47.0200   35.3550   41.6390 H   0  0  0  0  0  0  0  0  0  0  0  0
   47.6820   34.7810   40.1090 H   0  0  0  0  0  0  0  0  0  0  0  0
   48.2000   33.6750   41.8040 N   0  0  0  0  0  0  0  0  0  0  0  0
   48.8360   34.4380   42.8410 C   0  0  0  0  0  0  0  0  0  0  0  0
   48.6850   33.9590   43.8410 H   0  0  0  0  0  0  0  0  0  0  0  0
   50.3160   34.6400   42.6110 C   0  0  0  0  0  0  0  0  0  0  0  0
   50.6800   35.2350   43.4910 H   0  0  0  0  0  0  0  0  0  0  0  0
   51.0190   33.3920   42.5230 N   0  0  0  0  0  0  0  0  0  0  0  0
   52.0060   33.5990   42.2340 H   0  0  0  0  0  0  0  0  0  0  0  0
   50.3510   32.5120   41.6080 C   0  0  0  0  0  0  0  0  0  0  0  0
   49.2010   33.1850   40.8940 C   0  0  0  0  0  0  0  0  0  0  0  0
  1 16  1  0  0  0  0
  2 24  1  0  0  0  0
  2  7  1  1  0  0  0
  2  1  1  0  0  0  0
  3  2  1  0  0  0  0
  4  3  1  0  0  0  0
  4  5  1  0  0  0  0
  5 12  1  0  0  0  0
  5  6  1  0  0  0  0
  6 14  1  0  0  0  0
  6  1  1  0  0  0  0
  8  3  1  0  0  0  0
  9  3  1  0  0  0  0
 10  4  1  0  0  0  0
 11  5  1  0  0  0  0
 13  6  1  0  0  0  0
 15 20  1  0  0  0  0
 16 15  2  0  0  0  0
 16 17  1  0  0  0  0
 17 18  2  0  0  0  0
 18 19  1  0  0  0  0
 19 23  1  0  0  0  0
 20 19  2  0  0  0  0
 21 15  1  0  0  0  0
 22 17  1  0  0  0  0
 24 25  1  0  0  0  0
 24 27  1  0  0  0  0
 26 24  1  0  0  0  0
 27 28  1  0  0  0  0
 28 29  1  0  0  0  0
 30 28  1  0  0  0  0
 30 31  1  0  0  0  0
 32 30  1  0  0  0  0
 33 32  1  0  0  0  0
 34 32  1  0  0  0  0
 35 34  1  0  0  0  0
 35 27  1  0  0  0  0
M  END
>  <minimizedAffinity>
-4.84161615

>  <minimizedRMSD>
1.5429318

$$$$
