
 OpenBabel03252508483D

 45 47  0  0  0  0  0  0  0  0999 V2000
   36.5680   32.2180   40.4630 N   0  0  0  0  0  0  0  0  0  0  0  0
   35.9660   32.8430   41.0290 H   0  0  0  0  0  0  0  0  0  0  0  0
   36.5790   30.8600   40.9430 C   0  0  0  0  0  0  0  0  0  0  0  0
   37.5040   30.5830   41.4850 H   0  0  0  0  0  0  0  0  0  0  0  0
   35.7450   30.7550   41.6880 H   0  0  0  0  0  0  0  0  0  0  0  0
   36.7170   28.5000   40.1110 C   0  0  0  0  0  0  0  0  0  0  0  0
   36.3680   29.8310   39.8790 C   0  0  0  0  0  0  0  0  0  0  0  0
   35.8330   30.1630   38.6680 C   0  0  0  0  0  0  0  0  0  0  0  0
   35.6430   29.2170   37.7010 C   0  0  0  0  0  0  0  0  0  0  0  0
   35.9750   27.9020   37.9010 C   0  0  0  0  0  0  0  0  0  0  0  0
   36.5170   27.5910   39.1410 C   0  0  0  0  0  0  0  0  0  0  0  0
   35.5450   31.1870   38.4330 H   0  0  0  0  0  0  0  0  0  0  0  0
   35.2200   29.4390   36.7260 H   0  0  0  0  0  0  0  0  0  0  0  0
   35.8390   27.1200   37.1600 H   0  0  0  0  0  0  0  0  0  0  0  0
   36.8060   26.5720   39.3750 H   0  0  0  0  0  0  0  0  0  0  0  0
   37.1880   27.5380   43.7390 C   0  0  0  0  0  0  0  0  0  0  0  0
   36.5300   27.8040   42.5180 C   0  0  0  0  0  0  0  0  0  0  0  0
   37.2860   28.1990   41.4210 C   0  0  0  0  0  0  0  0  0  0  0  0
   38.6230   28.3050   41.5890 N   0  0  0  0  0  0  0  0  0  0  0  0
   39.2400   28.0480   42.7640 C   0  0  0  0  0  0  0  0  0  0  0  0
   38.5120   27.6680   43.8220 N   0  0  0  0  0  0  0  0  0  0  0  0
   36.5160   27.2400   44.5320 H   0  0  0  0  0  0  0  0  0  0  0  0
   35.4670   27.7320   42.3380 H   0  0  0  0  0  0  0  0  0  0  0  0
   40.3080   28.1280   42.9110 H   0  0  0  0  0  0  0  0  0  0  0  0
   38.1450   32.8620   40.2930 S   0  0  0  0  0  0  0  0  0  0  0  0
   38.1820   34.3160   40.6820 O   0  0  0  0  0  0  0  0  0  0  0  0
   38.6620   34.6630   41.4690 H   0  0  0  0  0  0  0  0  0  0  0  0
   38.6410   32.6880   38.9000 O   0  0  0  0  0  0  0  0  0  0  0  0
   38.6320   33.4650   38.2620 H   0  0  0  0  0  0  0  0  0  0  0  0
   39.1430   31.9940   41.3170 O   0  0  0  0  0  0  0  0  0  0  0  0
   40.2500   31.5600   40.6100 C   0  0  0  0  0  0  0  0  0  0  0  0
   39.9770   31.5090   39.5330 H   0  0  0  0  0  0  0  0  0  0  0  0
   40.6350   30.5830   40.9040 H   0  0  0  0  0  0  0  0  0  0  0  0
   41.3350   32.6420   40.7050 C   0  0  0  0  0  0  0  0  0  0  0  0
   42.1630   32.1390   41.2660 H   0  0  0  0  0  0  0  0  0  0  0  0
   40.9970   33.4570   41.3560 H   0  0  0  0  0  0  0  0  0  0  0  0
   41.8010   33.1350   39.4940 N   0  0  0  0  0  0  0  0  0  0  0  0
   41.6340   34.4690   39.1190 C   0  0  0  0  0  3  0  0  0  0  0  0
   41.8790   35.1610   39.9420 H   0  0  0  0  0  0  0  0  0  0  0  0
   42.6090   34.7710   37.9820 C   0  0  0  0  0  3  0  0  0  0  0  0
   43.6580   34.5790   38.3080 H   0  0  0  0  0  0  0  0  0  0  0  0
   42.3420   33.9590   36.8130 N   0  0  0  0  0  0  0  0  0  0  0  0
   43.2510   33.8320   36.3130 H   0  0  0  0  0  0  0  0  0  0  0  0
   41.8750   32.6340   37.1620 C   0  0  0  0  0  2  0  0  0  0  0  0
   42.3720   32.2390   38.5600 C   0  0  0  0  0  2  0  0  0  0  0  0
  1  3  1  0  0  0  0
  1  2  1  0  0  0  0
  3  4  1  0  0  0  0
  3  5  1  0  0  0  0
  6 18  1  0  0  0  0
  7  6  1  0  0  0  0
  7  3  1  0  0  0  0
  8  7  2  0  0  0  0
  9 10  2  0  0  0  0
  9  8  1  0  0  0  0
 10 11  1  0  0  0  0
 11 15  1  0  0  0  0
 11  6  2  0  0  0  0
 12  8  1  0  0  0  0
 13  9  1  0  0  0  0
 14 10  1  0  0  0  0
 16 21  1  0  0  0  0
 16 22  1  0  0  0  0
 17 16  2  0  0  0  0
 18 19  2  0  0  0  0
 18 17  1  0  0  0  0
 19 20  1  0  0  0  0
 20 24  1  0  0  0  0
 20 21  2  0  0  0  0
 23 17  1  0  0  0  0
 25  1  1  0  0  0  0
 25 26  1  0  0  0  0
 25 30  1  0  0  0  0
 26 27  1  0  0  0  0
 28 25  1  0  0  0  0
 29 28  1  0  0  0  0
 31 34  1  0  0  0  0
 31 33  1  0  0  0  0
 31 30  1  0  0  0  0
 32 31  1  0  0  0  0
 34 35  1  0  0  0  0
 34 36  1  0  0  0  0
 37 34  1  0  0  0  0
 38 37  1  0  0  0  0
 38 39  1  0  0  0  0
 40 41  1  0  0  0  0
 40 38  1  0  0  0  0
 42 44  1  0  0  0  0
 42 40  1  0  0  0  0
 43 42  1  0  0  0  0
 44 45  1  0  0  0  0
 45 37  1  0  0  0  0
M  END
>  <minimizedAffinity>
-6.12739515

$$$$

 OpenBabel03252508483D

 45 47  0  0  0  0  0  0  0  0999 V2000
   35.9170   31.0180   41.1590 N   0  0  0  0  0  0  0  0  0  0  0  0
   36.2180   30.7460   42.1120 H   0  0  0  0  0  0  0  0  0  0  0  0
   35.3490   29.9240   40.4130 C   0  0  0  0  0  0  0  0  0  0  0  0
   34.2600   29.7920   40.5700 H   0  0  0  0  0  0  0  0  0  0  0  0
   35.4750   30.1550   39.3210 H   0  0  0  0  0  0  0  0  0  0  0  0
   36.1920   27.6980   39.6290 C   0  0  0  0  0  0  0  0  0  0  0  0
   35.9950   28.6020   40.6750 C   0  0  0  0  0  0  0  0  0  0  0  0
   36.4050   28.2480   41.9280 C   0  0  0  0  0  0  0  0  0  0  0  0
   36.9950   27.0380   42.1570 C   0  0  0  0  0  0  0  0  0  0  0  0
   37.2030   26.1320   41.1510 C   0  0  0  0  0  0  0  0  0  0  0  0
   36.7770   26.5150   39.8870 C   0  0  0  0  0  0  0  0  0  0  0  0
   36.2730   28.9140   42.7800 H   0  0  0  0  0  0  0  0  0  0  0  0
   37.3360   26.7200   43.1380 H   0  0  0  0  0  0  0  0  0  0  0  0
   37.6690   25.1610   41.2910 H   0  0  0  0  0  0  0  0  0  0  0  0
   36.9060   25.8530   39.0380 H   0  0  0  0  0  0  0  0  0  0  0  0
   34.1210   28.3430   36.5300 C   0  0  0  0  0  0  0  0  0  0  0  0
   34.4550   27.8840   37.8240 C   0  0  0  0  0  0  0  0  0  0  0  0
   35.7340   28.1240   38.3100 C   0  0  0  0  0  0  0  0  0  0  0  0
   36.5930   28.7920   37.5080 N   0  0  0  0  0  0  0  0  0  0  0  0
   36.2600   29.2260   36.2720 C   0  0  0  0  0  0  0  0  0  0  0  0
   35.0280   28.9940   35.8020 N   0  0  0  0  0  0  0  0  0  0  0  0
   33.1060   28.1070   36.2410 H   0  0  0  0  0  0  0  0  0  0  0  0
   33.8030   27.3480   38.4980 H   0  0  0  0  0  0  0  0  0  0  0  0
   36.9370   29.7610   35.6210 H   0  0  0  0  0  0  0  0  0  0  0  0
   37.1820   31.7980   40.3080 S   0  0  0  0  0  0  0  0  0  0  0  0
   37.0910   33.2940   40.4530 O   0  0  0  0  0  0  0  0  0  0  0  0
   37.7500   33.8400   40.9390 H   0  0  0  0  0  0  0  0  0  0  0  0
   37.1660   31.4180   38.8680 O   0  0  0  0  0  0  0  0  0  0  0  0
   36.7860   32.0500   38.1850 H   0  0  0  0  0  0  0  0  0  0  0  0
   38.6220   31.2680   40.9750 O   0  0  0  0  0  0  0  0  0  0  0  0
   39.5710   31.1590   39.9740 C   0  0  0  0  0  0  0  0  0  0  0  0
   39.1680   31.6440   39.0580 H   0  0  0  0  0  0  0  0  0  0  0  0
   39.8580   30.1400   39.7150 H   0  0  0  0  0  0  0  0  0  0  0  0
   40.7920   32.0000   40.3760 C   0  0  0  0  0  0  0  0  0  0  0  0
   41.5080   31.2460   40.7910 H   0  0  0  0  0  0  0  0  0  0  0  0
   40.5360   32.6530   41.2190 H   0  0  0  0  0  0  0  0  0  0  0  0
   41.3890   32.7220   39.3530 N   0  0  0  0  0  0  0  0  0  0  0  0
   40.9870   34.0160   39.0200 C   0  0  0  0  0  3  0  0  0  0  0  0
   40.8530   34.6470   39.9150 H   0  0  0  0  0  0  0  0  0  0  0  0
   42.0940   34.6610   38.1870 C   0  0  0  0  0  3  0  0  0  0  0  0
   43.0510   34.6770   38.7580 H   0  0  0  0  0  0  0  0  0  0  0  0
   42.3170   33.9490   36.9450 N   0  0  0  0  0  0  0  0  0  0  0  0
   43.3210   34.0910   36.6870 H   0  0  0  0  0  0  0  0  0  0  0  0
   42.1280   32.5220   37.0920 C   0  0  0  0  0  2  0  0  0  0  0  0
   42.3670   32.0930   38.5460 C   0  0  0  0  0  2  0  0  0  0  0  0
  1  2  1  0  0  0  0
  3  4  1  0  0  0  0
  3  7  1  0  0  0  0
  3  1  1  0  0  0  0
  5  3  1  0  0  0  0
  6 11  2  0  0  0  0
  6  7  1  0  0  0  0
  7  8  2  0  0  0  0
  8  9  1  0  0  0  0
  8 12  1  0  0  0  0
  9 13  1  0  0  0  0
 10 14  1  0  0  0  0
 10  9  2  0  0  0  0
 11 10  1  0  0  0  0
 15 11  1  0  0  0  0
 16 17  1  0  0  0  0
 17 18  2  0  0  0  0
 17 23  1  0  0  0  0
 18  6  1  0  0  0  0
 19 18  1  0  0  0  0
 20 19  2  0  0  0  0
 21 20  1  0  0  0  0
 21 16  2  0  0  0  0
 22 16  1  0  0  0  0
 24 20  1  0  0  0  0
 25 26  1  0  0  0  0
 25 30  1  0  0  0  0
 25  1  1  0  0  0  0
 26 27  1  0  0  0  0
 28 25  1  0  0  0  0
 29 28  1  0  0  0  0
 31 34  1  0  0  0  0
 31 30  1  0  0  0  0
 32 31  1  0  0  0  0
 33 31  1  0  0  0  0
 34 35  1  0  0  0  0
 34 36  1  0  0  0  0
 37 34  1  0  0  0  0
 38 37  1  0  0  0  0
 38 39  1  0  0  0  0
 40 41  1  0  0  0  0
 40 38  1  0  0  0  0
 42 44  1  0  0  0  0
 42 40  1  0  0  0  0
 43 42  1  0  0  0  0
 44 45  1  0  0  0  0
 45 37  1  0  0  0  0
M  END
>  <minimizedAffinity>
-6.11553335

$$$$

 OpenBabel03252508483D

 45 47  0  0  0  0  0  0  0  0999 V2000
   36.6400   28.6390   43.0220 N   0  0  0  0  0  0  0  0  0  0  0  0
   37.2620   28.9020   43.8080 H   0  0  0  0  0  0  0  0  0  0  0  0
   36.7060   27.2380   42.6960 C   0  0  0  0  0  0  0  0  0  0  0  0
   35.9920   26.6100   43.2650 H   0  0  0  0  0  0  0  0  0  0  0  0
   36.4180   27.1250   41.6160 H   0  0  0  0  0  0  0  0  0  0  0  0
   38.4830   25.6040   42.0220 C   0  0  0  0  0  0  0  0  0  0  0  0
   38.0610   26.6300   42.8690 C   0  0  0  0  0  0  0  0  0  0  0  0
   38.9100   27.0590   43.8480 C   0  0  0  0  0  0  0  0  0  0  0  0
   40.1470   26.4980   43.9980 C   0  0  0  0  0  0  0  0  0  0  0  0
   40.5890   25.4910   43.1810 C   0  0  0  0  0  0  0  0  0  0  0  0
   39.7060   25.0730   42.1950 C   0  0  0  0  0  0  0  0  0  0  0  0
   38.6310   27.8540   44.5370 H   0  0  0  0  0  0  0  0  0  0  0  0
   40.8520   26.8110   44.7620 H   0  0  0  0  0  0  0  0  0  0  0  0
   41.5640   25.0200   43.2670 H   0  0  0  0  0  0  0  0  0  0  0  0
   39.9820   24.2800   41.5090 H   0  0  0  0  0  0  0  0  0  0  0  0
   35.8350   23.7530   40.0550 C   0  0  0  0  0  0  0  0  0  0  0  0
   36.7150   24.0680   41.1140 C   0  0  0  0  0  0  0  0  0  0  0  0
   37.5360   25.1820   40.9950 C   0  0  0  0  0  0  0  0  0  0  0  0
   37.4430   25.9080   39.8580 N   0  0  0  0  0  0  0  0  0  0  0  0
   36.5960   25.5950   38.8520 C   0  0  0  0  0  0  0  0  0  0  0  0
   35.8050   24.5210   38.9660 N   0  0  0  0  0  0  0  0  0  0  0  0
   35.2390   22.8690   40.2410 H   0  0  0  0  0  0  0  0  0  0  0  0
   36.8220   23.5170   42.0380 H   0  0  0  0  0  0  0  0  0  0  0  0
   36.5120   26.1680   37.9400 H   0  0  0  0  0  0  0  0  0  0  0  0
   36.9100   29.6390   41.6580 S   0  0  0  0  0  0  0  0  0  0  0  0
   35.8540   30.7050   41.5490 O   0  0  0  0  0  0  0  0  0  0  0  0
   36.0280   31.6660   41.6670 H   0  0  0  0  0  0  0  0  0  0  0  0
   36.9560   28.8280   40.4080 O   0  0  0  0  0  0  0  0  0  0  0  0
   36.1590   28.8020   39.7970 H   0  0  0  0  0  0  0  0  0  0  0  0
   38.4030   30.3630   41.8680 O   0  0  0  0  0  0  0  0  0  0  0  0
   39.3530   29.6620   41.1460 C   0  0  0  0  0  0  0  0  0  0  0  0
   38.8530   29.2090   40.2610 H   0  0  0  0  0  0  0  0  0  0  0  0
   39.8540   28.8630   41.6920 H   0  0  0  0  0  0  0  0  0  0  0  0
   40.3610   30.6690   40.5740 C   0  0  0  0  0  0  0  0  0  0  0  0
   41.2980   30.0670   40.4560 H   0  0  0  0  0  0  0  0  0  0  0  0
   40.5970   31.4310   41.3250 H   0  0  0  0  0  0  0  0  0  0  0  0
   40.0080   31.2540   39.3660 N   0  0  0  0  0  0  0  0  0  0  0  0
   39.2290   30.5900   38.4170 C   0  0  0  0  0  3  0  0  0  0  0  0
   38.3600   30.0890   38.8760 H   0  0  0  0  0  0  0  0  0  0  0  0
   38.6740   31.6290   37.4440 C   0  0  0  0  0  3  0  0  0  0  0  0
   38.0700   32.3920   37.9900 H   0  0  0  0  0  0  0  0  0  0  0  0
   39.7310   32.3140   36.7270 N   0  0  0  0  0  0  0  0  0  0  0  0
   39.3740   33.2700   36.4950 H   0  0  0  0  0  0  0  0  0  0  0  0
   40.9110   32.5040   37.5450 C   0  0  0  0  0  2  0  0  0  0  0  0
   40.5380   32.5220   39.0340 C   0  0  0  0  0  2  0  0  0  0  0  0
  1  2  1  0  0  0  0
  3  7  1  0  0  0  0
  3  1  1  0  0  0  0
  3  4  1  0  0  0  0
  5  3  1  0  0  0  0
  6 11  2  0  0  0  0
  6  7  1  0  0  0  0
  7  8  2  0  0  0  0
  8  9  1  0  0  0  0
  8 12  1  0  0  0  0
  9 13  1  0  0  0  0
 10 14  1  0  0  0  0
 10  9  2  0  0  0  0
 11 10  1  0  0  0  0
 15 11  1  0  0  0  0
 16 22  1  0  0  0  0
 16 17  1  0  0  0  0
 17 23  1  0  0  0  0
 18 17  2  0  0  0  0
 18  6  1  0  0  0  0
 19 18  1  0  0  0  0
 20 21  1  0  0  0  0
 20 19  2  0  0  0  0
 21 16  2  0  0  0  0
 24 20  1  0  0  0  0
 25 30  1  0  0  0  0
 25  1  1  0  0  0  0
 26 25  1  0  0  0  0
 26 27  1  0  0  0  0
 28 25  1  0  0  0  0
 29 28  1  0  0  0  0
 31 33  1  0  0  0  0
 31 30  1  0  0  0  0
 32 31  1  0  0  0  0
 34 31  1  0  0  0  0
 34 36  1  0  0  0  0
 35 34  1  0  0  0  0
 37 34  1  0  0  0  0
 38 39  1  0  0  0  0
 38 37  1  0  0  0  0
 40 41  1  0  0  0  0
 40 38  1  0  0  0  0
 42 40  1  0  0  0  0
 42 44  1  0  0  0  0
 43 42  1  0  0  0  0
 44 45  1  0  0  0  0
 45 37  1  0  0  0  0
M  END
>  <minimizedAffinity>
-6.04952908

$$$$

 OpenBabel03252508483D

 45 47  0  0  0  0  0  0  0  0999 V2000
   38.4270   31.2660   41.2150 N   0  0  0  0  0  0  0  0  0  0  0  0
   39.0320   30.6380   40.6550 H   0  0  0  0  0  0  0  0  0  0  0  0
   37.1350   30.6970   41.5010 C   0  0  0  0  0  0  0  0  0  0  0  0
   36.5770   31.2270   42.2980 H   0  0  0  0  0  0  0  0  0  0  0  0
   36.5080   30.7920   40.5740 H   0  0  0  0  0  0  0  0  0  0  0  0
   36.9250   28.2690   40.9140 C   0  0  0  0  0  0  0  0  0  0  0  0
   37.1710   29.2500   41.8760 C   0  0  0  0  0  0  0  0  0  0  0  0
   37.4450   28.8560   43.1540 C   0  0  0  0  0  0  0  0  0  0  0  0
   37.4770   27.5320   43.4880 C   0  0  0  0  0  0  0  0  0  0  0  0
   37.2400   26.5470   42.5650 C   0  0  0  0  0  0  0  0  0  0  0  0
   36.9640   26.9740   41.2730 C   0  0  0  0  0  0  0  0  0  0  0  0
   37.6420   29.5790   43.9440 H   0  0  0  0  0  0  0  0  0  0  0  0
   37.6910   27.1770   44.4920 H   0  0  0  0  0  0  0  0  0  0  0  0
   37.2570   25.4840   42.7890 H   0  0  0  0  0  0  0  0  0  0  0  0
   36.7660   26.2550   40.4860 H   0  0  0  0  0  0  0  0  0  0  0  0
   35.2000   29.2410   37.6910 C   0  0  0  0  0  0  0  0  0  0  0  0
   35.3630   28.7580   39.0080 C   0  0  0  0  0  0  0  0  0  0  0  0
   36.6360   28.7450   39.5650 C   0  0  0  0  0  0  0  0  0  0  0  0
   37.6560   29.2000   38.8030 N   0  0  0  0  0  0  0  0  0  0  0  0
   37.4860   29.6590   37.5440 C   0  0  0  0  0  0  0  0  0  0  0  0
   36.2590   29.6720   37.0060 N   0  0  0  0  0  0  0  0  0  0  0  0
   34.1750   29.2100   37.3470 H   0  0  0  0  0  0  0  0  0  0  0  0
   34.5790   28.3860   39.6520 H   0  0  0  0  0  0  0  0  0  0  0  0
   38.2920   30.0260   36.9250 H   0  0  0  0  0  0  0  0  0  0  0  0
   38.3110   32.8170   40.4980 S   0  0  0  0  0  0  0  0  0  0  0  0
   38.7840   33.8880   41.4440 O   0  0  0  0  0  0  0  0  0  0  0  0
   39.5940   34.4290   41.3020 H   0  0  0  0  0  0  0  0  0  0  0  0
   36.9150   33.0950   40.0600 O   0  0  0  0  0  0  0  0  0  0  0  0
   36.3230   33.6900   40.6130 H   0  0  0  0  0  0  0  0  0  0  0  0
   39.2940   32.8070   39.1450 O   0  0  0  0  0  0  0  0  0  0  0  0
   40.2520   33.7970   39.2730 C   0  0  0  0  0  0  0  0  0  0  0  0
   40.1600   34.2400   40.2880 H   0  0  0  0  0  0  0  0  0  0  0  0
   40.1820   34.6070   38.5460 H   0  0  0  0  0  0  0  0  0  0  0  0
   41.6360   33.1330   39.2420 C   0  0  0  0  0  0  0  0  0  0  0  0
   42.1830   33.6980   38.4440 H   0  0  0  0  0  0  0  0  0  0  0  0
   41.5510   32.1070   38.8650 H   0  0  0  0  0  0  0  0  0  0  0  0
   42.3470   33.1670   40.4330 N   0  0  0  0  0  0  0  0  0  0  0  0
   42.0110   32.3660   41.5240 C   0  0  0  0  0  3  0  0  0  0  0  0
   41.8070   31.3240   41.2220 H   0  0  0  0  0  0  0  0  0  0  0  0
   43.2080   32.3230   42.4730 C   0  0  0  0  0  3  0  0  0  0  0  0
   44.1070   31.9230   41.9480 H   0  0  0  0  0  0  0  0  0  0  0  0
   43.5320   33.6370   42.9900 N   0  0  0  0  0  0  0  0  0  0  0  0
   44.5590   33.6450   43.1880 H   0  0  0  0  0  0  0  0  0  0  0  0
   43.2940   34.6820   42.0160 C   0  0  0  0  0  2  0  0  0  0  0  0
   43.3810   34.1190   40.5900 C   0  0  0  0  0  2  0  0  0  0  0  0
  1  3  1  0  0  0  0
  2  1  1  0  0  0  0
  3  7  1  0  0  0  0
  3  4  1  0  0  0  0
  5  3  1  0  0  0  0
  6 11  2  0  0  0  0
  6  7  1  0  0  0  0
  7  8  2  0  0  0  0
  8  9  1  0  0  0  0
  8 12  1  0  0  0  0
  9 13  1  0  0  0  0
 10 14  1  0  0  0  0
 10  9  2  0  0  0  0
 11 10  1  0  0  0  0
 15 11  1  0  0  0  0
 16 17  1  0  0  0  0
 17 18  2  0  0  0  0
 17 23  1  0  0  0  0
 18  6  1  0  0  0  0
 19 18  1  0  0  0  0
 20 19  2  0  0  0  0
 21 20  1  0  0  0  0
 21 16  2  0  0  0  0
 22 16  1  0  0  0  0
 24 20  1  0  0  0  0
 25  1  1  0  0  0  0
 25 26  1  0  0  0  0
 27 26  1  0  0  0  0
 28 25  1  0  0  0  0
 28 29  1  0  0  0  0
 30 31  1  0  0  0  0
 30 25  1  0  0  0  0
 31 32  1  0  0  0  0
 33 31  1  0  0  0  0
 34 31  1  0  0  0  0
 34 37  1  0  0  0  0
 35 34  1  0  0  0  0
 36 34  1  0  0  0  0
 37 45  1  0  0  0  0
 37 38  1  0  0  0  0
 38 40  1  0  0  0  0
 39 38  1  0  0  0  0
 40 42  1  0  0  0  0
 41 40  1  0  0  0  0
 42 43  1  0  0  0  0
 44 42  1  0  0  0  0
 45 44  1  0  0  0  0
M  END
>  <minimizedAffinity>
-5.93711901

$$$$

 OpenBabel03252508483D

 45 47  0  0  0  0  0  0  0  0999 V2000
   35.9280   29.5490   41.5450 N   0  0  0  0  0  0  0  0  0  0  0  0
   35.3880   28.8810   40.9660 H   0  0  0  0  0  0  0  0  0  0  0  0
   36.3930   30.6920   40.8030 C   0  0  0  0  0  0  0  0  0  0  0  0
   35.7750   31.6010   40.9430 H   0  0  0  0  0  0  0  0  0  0  0  0
   37.4150   30.9550   41.1860 H   0  0  0  0  0  0  0  0  0  0  0  0
   37.3740   31.2420   38.5630 C   0  0  0  0  0  0  0  0  0  0  0  0
   36.5070   30.4620   39.3300 C   0  0  0  0  0  0  0  0  0  0  0  0
   35.7760   29.4930   38.7050 C   0  0  0  0  0  0  0  0  0  0  0  0
   35.8880   29.2890   37.3590 C   0  0  0  0  0  0  0  0  0  0  0  0
   36.7310   30.0380   36.5810 C   0  0  0  0  0  0  0  0  0  0  0  0
   37.4630   31.0160   37.2400 C   0  0  0  0  0  0  0  0  0  0  0  0
   35.0830   28.8580   39.2550 H   0  0  0  0  0  0  0  0  0  0  0  0
   35.3250   28.5290   36.8240 H   0  0  0  0  0  0  0  0  0  0  0  0
   36.8500   29.9070   35.5090 H   0  0  0  0  0  0  0  0  0  0  0  0
   38.1520   31.6510   36.6940 H   0  0  0  0  0  0  0  0  0  0  0  0
   38.4530   34.4360   40.2780 C   0  0  0  0  0  0  0  0  0  0  0  0
   37.6300   33.5250   39.5790 C   0  0  0  0  0  0  0  0  0  0  0  0
   38.1310   32.2640   39.2790 C   0  0  0  0  0  0  0  0  0  0  0  0
   39.3900   31.9790   39.6810 N   0  0  0  0  0  0  0  0  0  0  0  0
   40.1660   32.8610   40.3490 C   0  0  0  0  0  0  0  0  0  0  0  0
   39.6850   34.0770   40.6380 N   0  0  0  0  0  0  0  0  0  0  0  0
   37.9760   35.3900   40.4620 H   0  0  0  0  0  0  0  0  0  0  0  0
   36.6210   33.7090   39.2390 H   0  0  0  0  0  0  0  0  0  0  0  0
   41.1730   32.6460   40.6760 H   0  0  0  0  0  0  0  0  0  0  0  0
   37.1940   28.7590   42.3850 S   0  0  0  0  0  0  0  0  0  0  0  0
   37.0740   27.2640   42.2640 O   0  0  0  0  0  0  0  0  0  0  0  0
   37.7150   26.6990   41.7750 H   0  0  0  0  0  0  0  0  0  0  0  0
   37.2090   29.1600   43.8200 O   0  0  0  0  0  0  0  0  0  0  0  0
   36.8300   28.5450   44.5180 H   0  0  0  0  0  0  0  0  0  0  0  0
   38.6300   29.2540   41.6870 O   0  0  0  0  0  0  0  0  0  0  0  0
   39.4960   29.6760   42.6810 C   0  0  0  0  0  0  0  0  0  0  0  0
   39.0790   29.3590   43.6620 H   0  0  0  0  0  0  0  0  0  0  0  0
   39.6680   30.7510   42.7210 H   0  0  0  0  0  0  0  0  0  0  0  0
   40.8140   28.9010   42.5300 C   0  0  0  0  0  0  0  0  0  0  0  0
   41.4660   29.3290   43.3340 H   0  0  0  0  0  0  0  0  0  0  0  0
   41.3010   29.1710   41.5860 H   0  0  0  0  0  0  0  0  0  0  0  0
   40.7210   27.5240   42.6650 N   0  0  0  0  0  0  0  0  0  0  0  0
   40.4380   26.9120   43.8870 C   0  0  0  0  0  3  0  0  0  0  0  0
   39.6080   27.4130   44.4140 H   0  0  0  0  0  0  0  0  0  0  0  0
   39.9850   25.4800   43.6110 C   0  0  0  0  0  3  0  0  0  0  0  0
   39.0880   25.4750   42.9490 H   0  0  0  0  0  0  0  0  0  0  0  0
   41.0260   24.6990   42.9730 N   0  0  0  0  0  0  0  0  0  0  0  0
   40.5500   23.9730   42.3890 H   0  0  0  0  0  0  0  0  0  0  0  0
   41.8270   25.4950   42.0660 C   0  0  0  0  0  2  0  0  0  0  0  0
   41.0250   26.7000   41.5550 C   0  0  0  0  0  2  0  0  0  0  0  0
  1 25  1  0  0  0  0
  2  1  1  0  0  0  0
  3  4  1  0  0  0  0
  3  5  1  0  0  0  0
  3  1  1  0  0  0  0
  6 18  1  0  0  0  0
  6  7  1  0  0  0  0
  7  3  1  0  0  0  0
  8 12  1  0  0  0  0
  8  7  2  0  0  0  0
  9  8  1  0  0  0  0
 10 11  1  0  0  0  0
 10  9  2  0  0  0  0
 11  6  2  0  0  0  0
 13  9  1  0  0  0  0
 14 10  1  0  0  0  0
 15 11  1  0  0  0  0
 16 22  1  0  0  0  0
 16 21  1  0  0  0  0
 17 16  2  0  0  0  0
 18 17  1  0  0  0  0
 18 19  2  0  0  0  0
 19 20  1  0  0  0  0
 20 21  2  0  0  0  0
 20 24  1  0  0  0  0
 23 17  1  0  0  0  0
 25 28  1  0  0  0  0
 26 25  1  0  0  0  0
 27 26  1  0  0  0  0
 28 29  1  0  0  0  0
 30 25  1  0  0  0  0
 30 31  1  0  0  0  0
 31 33  1  0  0  0  0
 31 32  1  0  0  0  0
 34 37  1  0  0  0  0
 34 31  1  0  0  0  0
 34 35  1  0  0  0  0
 36 34  1  0  0  0  0
 37 38  1  0  0  0  0
 38 39  1  0  0  0  0
 40 38  1  0  0  0  0
 41 40  1  0  0  0  0
 42 40  1  0  0  0  0
 43 42  1  0  0  0  0
 44 42  1  0  0  0  0
 45 44  1  0  0  0  0
 45 37  1  0  0  0  0
M  END
>  <minimizedAffinity>
-5.91467953

$$$$

 OpenBabel03252508483D

 45 47  0  0  0  0  0  0  0  0999 V2000
   36.1490   28.4020   40.6070 N   0  0  0  0  0  0  0  0  0  0  0  0
   35.4290   27.9280   41.1820 H   0  0  0  0  0  0  0  0  0  0  0  0
   37.2620   27.5470   40.2810 C   0  0  0  0  0  0  0  0  0  0  0  0
   37.8180   27.8600   39.3750 H   0  0  0  0  0  0  0  0  0  0  0  0
   37.9970   27.6080   41.1270 H   0  0  0  0  0  0  0  0  0  0  0  0
   37.4000   25.1420   40.9720 C   0  0  0  0  0  0  0  0  0  0  0  0
   36.8980   26.1090   40.0990 C   0  0  0  0  0  0  0  0  0  0  0  0
   36.0740   25.7080   39.0870 C   0  0  0  0  0  0  0  0  0  0  0  0
   35.7460   24.3920   38.9290 C   0  0  0  0  0  0  0  0  0  0  0  0
   36.2230   23.4210   39.7710 C   0  0  0  0  0  0  0  0  0  0  0  0
   37.0580   23.8540   40.7910 C   0  0  0  0  0  0  0  0  0  0  0  0
   35.6560   26.4200   38.3760 H   0  0  0  0  0  0  0  0  0  0  0  0
   35.0940   24.0320   38.1380 H   0  0  0  0  0  0  0  0  0  0  0  0
   35.9850   22.3650   39.6800 H   0  0  0  0  0  0  0  0  0  0  0  0
   37.4760   23.1460   41.4980 H   0  0  0  0  0  0  0  0  0  0  0  0
   40.3190   25.6730   43.3170 C   0  0  0  0  0  0  0  0  0  0  0  0
   39.5580   25.1330   42.2580 C   0  0  0  0  0  0  0  0  0  0  0  0
   38.2770   25.6230   42.0350 C   0  0  0  0  0  0  0  0  0  0  0  0
   37.8300   26.6000   42.8550 N   0  0  0  0  0  0  0  0  0  0  0  0
   38.5700   27.1080   43.8650 C   0  0  0  0  0  0  0  0  0  0  0  0
   39.8050   26.6370   44.0820 N   0  0  0  0  0  0  0  0  0  0  0  0
   41.3010   25.2270   43.4110 H   0  0  0  0  0  0  0  0  0  0  0  0
   39.8740   24.3530   41.5790 H   0  0  0  0  0  0  0  0  0  0  0  0
   38.2250   27.8900   44.5270 H   0  0  0  0  0  0  0  0  0  0  0  0
   36.6470   29.8740   41.3260 S   0  0  0  0  0  0  0  0  0  0  0  0
   37.0680   29.6640   42.7550 O   0  0  0  0  0  0  0  0  0  0  0  0
   37.9920   29.7700   43.0770 H   0  0  0  0  0  0  0  0  0  0  0  0
   35.5620   30.8930   41.2510 O   0  0  0  0  0  0  0  0  0  0  0  0
   35.0010   31.0900   42.0620 H   0  0  0  0  0  0  0  0  0  0  0  0
   37.9530   30.4340   40.4440 O   0  0  0  0  0  0  0  0  0  0  0  0
   39.0820   30.4140   41.2450 C   0  0  0  0  0  0  0  0  0  0  0  0
   39.8200   29.7200   40.7880 H   0  0  0  0  0  0  0  0  0  0  0  0
   38.9150   30.0950   42.2740 H   0  0  0  0  0  0  0  0  0  0  0  0
   39.7370   31.8020   41.1860 C   0  0  0  0  0  0  0  0  0  0  0  0
   40.6500   31.6910   41.8250 H   0  0  0  0  0  0  0  0  0  0  0  0
   39.1080   32.5360   41.7030 H   0  0  0  0  0  0  0  0  0  0  0  0
   40.0850   32.2490   39.9200 N   0  0  0  0  0  0  0  0  0  0  0  0
   40.6330   31.4030   38.9550 C   0  0  0  0  0  3  0  0  0  0  0  0
   40.0900   30.4440   38.8940 H   0  0  0  0  0  0  0  0  0  0  0  0
   40.4900   32.0770   37.5910 C   0  0  0  0  0  3  0  0  0  0  0  0
   39.4170   32.2870   37.3710 H   0  0  0  0  0  0  0  0  0  0  0  0
   41.2210   33.3260   37.5290 N   0  0  0  0  0  0  0  0  0  0  0  0
   40.7210   33.9400   36.8460 H   0  0  0  0  0  0  0  0  0  0  0  0
   41.2120   34.0280   38.7960 C   0  0  0  0  0  2  0  0  0  0  0  0
   39.9820   33.6290   39.6240 C   0  0  0  0  0  2  0  0  0  0  0  0
  1  2  1  0  0  0  0
  1 25  1  0  0  0  0
  3  1  1  0  0  0  0
  3  5  1  0  0  0  0
  4  3  1  0  0  0  0
  6 18  1  0  0  0  0
  7  3  1  0  0  0  0
  7  6  2  0  0  0  0
  8  7  1  0  0  0  0
  9  8  2  0  0  0  0
  9 10  1  0  0  0  0
 10 11  2  0  0  0  0
 11  6  1  0  0  0  0
 11 15  1  0  0  0  0
 12  8  1  0  0  0  0
 13  9  1  0  0  0  0
 14 10  1  0  0  0  0
 16 22  1  0  0  0  0
 16 21  1  0  0  0  0
 17 16  2  0  0  0  0
 18 17  1  0  0  0  0
 18 19  2  0  0  0  0
 19 20  1  0  0  0  0
 20 21  2  0  0  0  0
 20 24  1  0  0  0  0
 23 17  1  0  0  0  0
 25 26  1  0  0  0  0
 26 27  1  0  0  0  0
 28 25  1  0  0  0  0
 28 29  1  0  0  0  0
 30 31  1  0  0  0  0
 30 25  1  0  0  0  0
 31 33  1  0  0  0  0
 32 31  1  0  0  0  0
 34 31  1  0  0  0  0
 34 36  1  0  0  0  0
 34 35  1  0  0  0  0
 37 34  1  0  0  0  0
 38 37  1  0  0  0  0
 39 38  1  0  0  0  0
 40 38  1  0  0  0  0
 41 40  1  0  0  0  0
 42 40  1  0  0  0  0
 42 44  1  0  0  0  0
 43 42  1  0  0  0  0
 44 45  1  0  0  0  0
 45 37  1  0  0  0  0
M  END
>  <minimizedAffinity>
-5.9019599

$$$$

 OpenBabel03252508483D

 45 47  0  0  0  0  0  0  0  0999 V2000
   37.0020   28.6850   40.7160 N   0  0  0  0  0  0  0  0  0  0  0  0
   37.2940   28.2140   39.8410 H   0  0  0  0  0  0  0  0  0  0  0  0
   36.6060   27.7620   41.7490 C   0  0  0  0  0  0  0  0  0  0  0  0
   36.0020   28.2220   42.5560 H   0  0  0  0  0  0  0  0  0  0  0  0
   35.9440   26.9870   41.2770 H   0  0  0  0  0  0  0  0  0  0  0  0
   38.1180   25.7750   41.9690 C   0  0  0  0  0  0  0  0  0  0  0  0
   37.7450   27.0480   42.4030 C   0  0  0  0  0  0  0  0  0  0  0  0
   38.4420   27.6170   43.4300 C   0  0  0  0  0  0  0  0  0  0  0  0
   39.4820   26.9580   44.0210 C   0  0  0  0  0  0  0  0  0  0  0  0
   39.8710   25.7080   43.6150 C   0  0  0  0  0  0  0  0  0  0  0  0
   39.1460   25.1520   42.5700 C   0  0  0  0  0  0  0  0  0  0  0  0
   38.1920   28.6070   43.8090 H   0  0  0  0  0  0  0  0  0  0  0  0
   40.0630   27.3750   44.8390 H   0  0  0  0  0  0  0  0  0  0  0  0
   40.6920   25.1510   44.0580 H   0  0  0  0  0  0  0  0  0  0  0  0
   39.3930   24.1660   42.1920 H   0  0  0  0  0  0  0  0  0  0  0  0
   35.7410   23.6960   39.8850 C   0  0  0  0  0  0  0  0  0  0  0  0
   36.4420   24.1610   41.0200 C   0  0  0  0  0  0  0  0  0  0  0  0
   37.3380   25.2120   40.8700 C   0  0  0  0  0  0  0  0  0  0  0  0
   37.4880   25.7350   39.6320 N   0  0  0  0  0  0  0  0  0  0  0  0
   36.8100   25.2800   38.5550 C   0  0  0  0  0  0  0  0  0  0  0  0
   35.9460   24.2670   38.6980 N   0  0  0  0  0  0  0  0  0  0  0  0
   35.0700   22.8760   40.1030 H   0  0  0  0  0  0  0  0  0  0  0  0
   36.3550   23.7750   42.0260 H   0  0  0  0  0  0  0  0  0  0  0  0
   36.9190   25.6900   37.5610 H   0  0  0  0  0  0  0  0  0  0  0  0
   35.8070   29.8740   40.4120 S   0  0  0  0  0  0  0  0  0  0  0  0
   35.7630   30.8930   41.5180 O   0  0  0  0  0  0  0  0  0  0  0  0
   36.0210   31.8370   41.4080 H   0  0  0  0  0  0  0  0  0  0  0  0
   34.4680   29.2460   40.2350 O   0  0  0  0  0  0  0  0  0  0  0  0
   33.8000   29.2660   40.9860 H   0  0  0  0  0  0  0  0  0  0  0  0
   36.2240   30.6330   38.9820 O   0  0  0  0  0  0  0  0  0  0  0  0
   37.5640   30.4040   38.7200 C   0  0  0  0  0  0  0  0  0  0  0  0
   37.6420   29.8610   37.7530 H   0  0  0  0  0  0  0  0  0  0  0  0
   38.0900   29.8210   39.4760 H   0  0  0  0  0  0  0  0  0  0  0  0
   38.2450   31.7600   38.4820 C   0  0  0  0  0  0  0  0  0  0  0  0
   37.4030   32.4950   38.5500 H   0  0  0  0  0  0  0  0  0  0  0  0
   38.6020   31.8230   37.4470 H   0  0  0  0  0  0  0  0  0  0  0  0
   39.2510   32.0930   39.3770 N   0  0  0  0  0  0  0  0  0  0  0  0
   39.2200   31.6960   40.7140 C   0  0  0  0  0  3  0  0  0  0  0  0
   38.9400   30.6330   40.8200 H   0  0  0  0  0  0  0  0  0  0  0  0
   40.6290   31.8390   41.2880 C   0  0  0  0  0  3  0  0  0  0  0  0
   41.3520   31.2200   40.7060 H   0  0  0  0  0  0  0  0  0  0  0  0
   41.0840   33.2140   41.2600 N   0  0  0  0  0  0  0  0  0  0  0  0
   42.1260   33.1910   41.1770 H   0  0  0  0  0  0  0  0  0  0  0  0
   40.5940   33.9290   40.1010 C   0  0  0  0  0  2  0  0  0  0  0  0
   40.2920   32.9530   38.9550 C   0  0  0  0  0  2  0  0  0  0  0  0
  1  3  1  0  0  0  0
  2  1  1  0  0  0  0
  3  7  1  0  0  0  0
  3  4  1  0  0  0  0
  5  3  1  0  0  0  0
  6  7  2  0  0  0  0
  6 11  1  0  0  0  0
  7  8  1  0  0  0  0
  8 12  1  0  0  0  0
  8  9  2  0  0  0  0
  9 13  1  0  0  0  0
 10  9  1  0  0  0  0
 10 14  1  0  0  0  0
 11 10  2  0  0  0  0
 15 11  1  0  0  0  0
 16 22  1  0  0  0  0
 16 17  1  0  0  0  0
 17 23  1  0  0  0  0
 18 17  2  0  0  0  0
 18  6  1  0  0  0  0
 19 18  1  0  0  0  0
 20 21  1  0  0  0  0
 20 19  2  0  0  0  0
 21 16  2  0  0  0  0
 24 20  1  0  0  0  0
 25  1  1  0  0  0  0
 25 26  1  0  0  0  0
 27 26  1  0  0  0  0
 28 25  1  0  0  0  0
 28 29  1  0  0  0  0
 30 25  1  0  0  0  0
 31 30  1  0  0  0  0
 31 33  1  0  0  0  0
 32 31  1  0  0  0  0
 34 35  1  0  0  0  0
 34 31  1  0  0  0  0
 34 37  1  0  0  0  0
 36 34  1  0  0  0  0
 37 38  1  0  0  0  0
 38 39  1  0  0  0  0
 38 40  1  0  0  0  0
 41 40  1  0  0  0  0
 42 40  1  0  0  0  0
 43 42  1  0  0  0  0
 44 42  1  0  0  0  0
 45 37  1  0  0  0  0
 45 44  1  0  0  0  0
M  END
>  <minimizedAffinity>
-5.85931873

$$$$

 OpenBabel03252508483D

 45 47  0  0  0  0  0  0  0  0999 V2000
   36.7880   29.1970   42.9210 N   0  0  0  0  0  0  0  0  0  0  0  0
   36.5190   29.8480   43.6810 H   0  0  0  0  0  0  0  0  0  0  0  0
   38.0490   28.5430   43.1590 C   0  0  0  0  0  0  0  0  0  0  0  0
   38.9110   29.0380   42.6690 H   0  0  0  0  0  0  0  0  0  0  0  0
   38.2550   28.5910   44.2620 H   0  0  0  0  0  0  0  0  0  0  0  0
   39.3000   26.4680   42.5160 C   0  0  0  0  0  0  0  0  0  0  0  0
   38.0800   27.1040   42.7540 C   0  0  0  0  0  0  0  0  0  0  0  0
   36.9300   26.3830   42.6100 C   0  0  0  0  0  0  0  0  0  0  0  0
   36.9680   25.0680   42.2410 C   0  0  0  0  0  0  0  0  0  0  0  0
   38.1500   24.4180   42.0020 C   0  0  0  0  0  0  0  0  0  0  0  0
   39.3040   25.1730   42.1550 C   0  0  0  0  0  0  0  0  0  0  0  0
   35.9520   26.8300   42.7820 H   0  0  0  0  0  0  0  0  0  0  0  0
   36.0770   24.4600   42.1170 H   0  0  0  0  0  0  0  0  0  0  0  0
   38.2230   23.3750   41.7080 H   0  0  0  0  0  0  0  0  0  0  0  0
   40.2790   24.7300   41.9830 H   0  0  0  0  0  0  0  0  0  0  0  0
   42.4090   28.1290   43.8880 C   0  0  0  0  0  0  0  0  0  0  0  0
   41.2670   27.2990   43.8390 C   0  0  0  0  0  0  0  0  0  0  0  0
   40.4980   27.2840   42.6820 C   0  0  0  0  0  0  0  0  0  0  0  0
   40.8940   28.0750   41.6590 N   0  0  0  0  0  0  0  0  0  0  0  0
   41.9890   28.8650   41.7200 C   0  0  0  0  0  0  0  0  0  0  0  0
   42.7300   28.8800   42.8340 N   0  0  0  0  0  0  0  0  0  0  0  0
   42.9400   28.0720   44.8290 H   0  0  0  0  0  0  0  0  0  0  0  0
   40.9140   26.6520   44.6300 H   0  0  0  0  0  0  0  0  0  0  0  0
   42.3160   29.5000   40.9090 H   0  0  0  0  0  0  0  0  0  0  0  0
   36.7320   29.9690   41.3940 S   0  0  0  0  0  0  0  0  0  0  0  0
   35.7520   31.1110   41.4000 O   0  0  0  0  0  0  0  0  0  0  0  0
   36.0090   32.0570   41.3140 H   0  0  0  0  0  0  0  0  0  0  0  0
   36.3840   28.9960   40.3210 O   0  0  0  0  0  0  0  0  0  0  0  0
   35.4490   28.9670   39.9520 H   0  0  0  0  0  0  0  0  0  0  0  0
   38.2650   30.5620   41.0870 O   0  0  0  0  0  0  0  0  0  0  0  0
   38.6150   30.2590   39.7830 C   0  0  0  0  0  0  0  0  0  0  0  0
   37.9110   29.4870   39.4040 H   0  0  0  0  0  0  0  0  0  0  0  0
   39.6290   29.8800   39.6510 H   0  0  0  0  0  0  0  0  0  0  0  0
   38.3630   31.5010   38.9170 C   0  0  0  0  0  0  0  0  0  0  0  0
   37.2480   31.6080   38.9250 H   0  0  0  0  0  0  0  0  0  0  0  0
   38.6270   31.2910   37.8740 H   0  0  0  0  0  0  0  0  0  0  0  0
   38.9640   32.6720   39.3550 N   0  0  0  0  0  0  0  0  0  0  0  0
   40.3500   32.8090   39.4490 C   0  0  0  0  0  3  0  0  0  0  0  0
   40.8620   32.4200   38.5530 H   0  0  0  0  0  0  0  0  0  0  0  0
   40.6780   34.2980   39.5330 C   0  0  0  0  0  3  0  0  0  0  0  0
   40.2870   34.8350   38.6370 H   0  0  0  0  0  0  0  0  0  0  0  0
   40.1070   34.9110   40.7150 N   0  0  0  0  0  0  0  0  0  0  0  0
   39.9260   35.9140   40.4840 H   0  0  0  0  0  0  0  0  0  0  0  0
   38.8260   34.3330   41.0640 C   0  0  0  0  0  2  0  0  0  0  0  0
   38.1510   33.7300   39.8250 C   0  0  0  0  0  2  0  0  0  0  0  0
  1  3  1  0  0  0  0
  1  2  1  0  0  0  0
  3  5  1  0  0  0  0
  4  3  1  0  0  0  0
  6 18  1  0  0  0  0
  6  7  1  0  0  0  0
  7  3  1  0  0  0  0
  8  7  2  0  0  0  0
  8 12  1  0  0  0  0
  9  8  1  0  0  0  0
 10 11  1  0  0  0  0
 10  9  2  0  0  0  0
 11  6  2  0  0  0  0
 13  9  1  0  0  0  0
 14 10  1  0  0  0  0
 15 11  1  0  0  0  0
 16 22  1  0  0  0  0
 17 16  1  0  0  0  0
 17 23  1  0  0  0  0
 18 17  2  0  0  0  0
 19 20  2  0  0  0  0
 19 18  1  0  0  0  0
 20 21  1  0  0  0  0
 21 16  2  0  0  0  0
 24 20  1  0  0  0  0
 25 26  1  0  0  0  0
 25  1  1  0  0  0  0
 27 26  1  0  0  0  0
 28 25  1  0  0  0  0
 29 28  1  0  0  0  0
 30 25  1  0  0  0  0
 31 30  1  0  0  0  0
 32 31  1  0  0  0  0
 33 31  1  0  0  0  0
 34 35  1  0  0  0  0
 34 37  1  0  0  0  0
 34 31  1  0  0  0  0
 36 34  1  0  0  0  0
 37 38  1  0  0  0  0
 37 45  1  0  0  0  0
 38 40  1  0  0  0  0
 39 38  1  0  0  0  0
 40 42  1  0  0  0  0
 41 40  1  0  0  0  0
 42 44  1  0  0  0  0
 43 42  1  0  0  0  0
 45 44  1  0  0  0  0
M  END
>  <minimizedAffinity>
-5.8465209

$$$$

 OpenBabel03252508483D

 45 47  0  0  0  0  0  0  0  0999 V2000
   36.8950   32.0670   40.6730 N   0  0  0  0  0  0  0  0  0  0  0  0
   36.5960   32.2570   41.6470 H   0  0  0  0  0  0  0  0  0  0  0  0
   37.5550   30.7950   40.5230 C   0  0  0  0  0  0  0  0  0  0  0  0
   38.5840   30.8680   40.1200 H   0  0  0  0  0  0  0  0  0  0  0  0
   37.6580   30.3430   41.5450 H   0  0  0  0  0  0  0  0  0  0  0  0
   36.7160   28.4800   40.0560 C   0  0  0  0  0  0  0  0  0  0  0  0
   36.8150   29.8170   39.6680 C   0  0  0  0  0  0  0  0  0  0  0  0
   36.2230   30.2020   38.4990 C   0  0  0  0  0  0  0  0  0  0  0  0
   35.5490   29.3020   37.7250 C   0  0  0  0  0  0  0  0  0  0  0  0
   35.4340   27.9840   38.0810 C   0  0  0  0  0  0  0  0  0  0  0  0
   36.0450   27.6180   39.2720 C   0  0  0  0  0  0  0  0  0  0  0  0
   36.2720   31.2320   38.1480 H   0  0  0  0  0  0  0  0  0  0  0  0
   35.0640   29.5680   36.7900 H   0  0  0  0  0  0  0  0  0  0  0  0
   34.9060   27.2380   37.4940 H   0  0  0  0  0  0  0  0  0  0  0  0
   35.9990   26.5920   39.6220 H   0  0  0  0  0  0  0  0  0  0  0  0
   37.4510   27.7420   43.6920 C   0  0  0  0  0  0  0  0  0  0  0  0
   36.7200   28.1070   42.5400 C   0  0  0  0  0  0  0  0  0  0  0  0
   37.3680   28.1200   41.3110 C   0  0  0  0  0  0  0  0  0  0  0  0
   38.6760   27.7790   41.2900 N   0  0  0  0  0  0  0  0  0  0  0  0
   39.3640   27.4310   42.4010 C   0  0  0  0  0  0  0  0  0  0  0  0
   38.7400   27.4190   43.5860 N   0  0  0  0  0  0  0  0  0  0  0  0
   36.8610   27.7630   44.5990 H   0  0  0  0  0  0  0  0  0  0  0  0
   35.6760   28.3870   42.5100 H   0  0  0  0  0  0  0  0  0  0  0  0
   40.4080   27.1560   42.3980 H   0  0  0  0  0  0  0  0  0  0  0  0
   37.8250   33.3610   40.0460 S   0  0  0  0  0  0  0  0  0  0  0  0
   38.5230   34.1110   41.1480 O   0  0  0  0  0  0  0  0  0  0  0  0
   39.5000   34.1240   41.2720 H   0  0  0  0  0  0  0  0  0  0  0  0
   36.9730   34.2890   39.2510 O   0  0  0  0  0  0  0  0  0  0  0  0
   36.6680   35.1590   39.6500 H   0  0  0  0  0  0  0  0  0  0  0  0
   38.9690   32.6940   39.0240 O   0  0  0  0  0  0  0  0  0  0  0  0
   40.2080   33.2350   39.3180 C   0  0  0  0  0  0  0  0  0  0  0  0
   40.1530   33.7070   40.3230 H   0  0  0  0  0  0  0  0  0  0  0  0
   40.5650   33.9870   38.6140 H   0  0  0  0  0  0  0  0  0  0  0  0
   41.2120   32.0820   39.4640 C   0  0  0  0  0  0  0  0  0  0  0  0
   42.0260   32.3460   38.7420 H   0  0  0  0  0  0  0  0  0  0  0  0
   40.7750   31.1520   39.0820 H   0  0  0  0  0  0  0  0  0  0  0  0
   41.7360   31.8980   40.7360 N   0  0  0  0  0  0  0  0  0  0  0  0
   40.9360   31.5690   41.8310 C   0  0  0  0  0  3  0  0  0  0  0  0
   40.2150   30.7700   41.5870 H   0  0  0  0  0  0  0  0  0  0  0  0
   41.8390   31.0250   42.9360 C   0  0  0  0  0  3  0  0  0  0  0  0
   42.4040   30.1330   42.5750 H   0  0  0  0  0  0  0  0  0  0  0  0
   42.7950   32.0160   43.3870 N   0  0  0  0  0  0  0  0  0  0  0  0
   43.6390   31.4970   43.7240 H   0  0  0  0  0  0  0  0  0  0  0  0
   43.2430   32.8720   42.3090 C   0  0  0  0  0  2  0  0  0  0  0  0
   43.1090   32.1540   40.9590 C   0  0  0  0  0  2  0  0  0  0  0  0
  1  2  1  0  0  0  0
  3  1  1  0  0  0  0
  3  5  1  0  0  0  0
  4  3  1  0  0  0  0
  6 18  1  0  0  0  0
  7  6  1  0  0  0  0
  7  3  1  0  0  0  0
  8  7  2  0  0  0  0
  9 10  2  0  0  0  0
  9  8  1  0  0  0  0
 10 11  1  0  0  0  0
 11 15  1  0  0  0  0
 11  6  2  0  0  0  0
 12  8  1  0  0  0  0
 13  9  1  0  0  0  0
 14 10  1  0  0  0  0
 16 22  1  0  0  0  0
 17 16  2  0  0  0  0
 18 17  1  0  0  0  0
 19 18  2  0  0  0  0
 19 20  1  0  0  0  0
 20 21  2  0  0  0  0
 21 16  1  0  0  0  0
 23 17  1  0  0  0  0
 24 20  1  0  0  0  0
 25  1  1  0  0  0  0
 25 26  1  0  0  0  0
 26 27  1  0  0  0  0
 28 29  1  0  0  0  0
 28 25  1  0  0  0  0
 30 31  1  0  0  0  0
 30 25  1  0  0  0  0
 31 34  1  0  0  0  0
 31 32  1  0  0  0  0
 33 31  1  0  0  0  0
 34 37  1  0  0  0  0
 35 34  1  0  0  0  0
 36 34  1  0  0  0  0
 37 45  1  0  0  0  0
 37 38  1  0  0  0  0
 38 40  1  0  0  0  0
 39 38  1  0  0  0  0
 40 42  1  0  0  0  0
 41 40  1  0  0  0  0
 42 43  1  0  0  0  0
 44 42  1  0  0  0  0
 45 44  1  0  0  0  0
M  END
>  <minimizedAffinity>
-5.84023762

$$$$
