
 OpenBabel03242511033D

 25 27  0  0  1  0  0  0  0  0999 V2000
   45.9870   32.6040   44.9290 C   0  0  1  0  0  0  0  0  0  0  0  0
   47.2650   31.9840   44.5090 C   0  0  0  0  0  0  0  0  0  0  0  0
   47.0510   32.4440   45.9500 C   0  0  2  0  0  0  0  0  0  0  0  0
   45.1180   31.9260   44.9390 H   0  0  0  0  0  0  0  0  0  0  0  0
   47.2640   30.9320   44.2500 H   0  0  0  0  0  0  0  0  0  0  0  0
   47.9230   32.5900   43.8410 H   0  0  0  0  0  0  0  0  0  0  0  0
   47.6060   33.4090   46.1550 H   0  0  0  0  0  0  0  0  0  0  0  0
   44.5390   36.0160   44.8100 C   0  0  0  0  0  0  0  0  0  0  0  0
   44.9460   36.4620   43.5230 C   0  0  0  0  0  0  0  0  0  0  0  0
   45.7180   35.5760   42.7310 C   0  0  0  0  0  0  0  0  0  0  0  0
   46.0320   34.3630   43.2190 N   0  0  0  0  0  0  0  0  0  0  0  0
   45.6200   33.9710   44.4640 C   0  0  0  0  0  0  0  0  0  0  0  0
   44.8840   34.7950   45.2420 N   0  0  0  0  0  0  0  0  0  0  0  0
   43.9520   36.7050   45.3980 H   0  0  0  0  0  0  0  0  0  0  0  0
   44.7040   37.4160   43.1280 H   0  0  0  0  0  0  0  0  0  0  0  0
   46.0500   35.8740   41.7440 H   0  0  0  0  0  0  0  0  0  0  0  0
   46.9130   31.5130   47.0150 N   0  0  2  0  0  0  0  0  0  0  0  0
   45.5220   31.4320   47.3790 C   0  0  0  0  0  0  0  0  0  0  0  0
   44.9770   30.9780   46.5260 H   0  0  0  0  0  0  0  0  0  0  0  0
   45.2750   30.6340   48.6250 C   0  0  0  0  0  0  0  0  0  0  0  0
   44.2330   30.8410   48.9480 H   0  0  0  0  0  0  0  0  0  0  0  0
   46.1600   31.0750   49.6830 N   0  0  0  0  0  0  0  0  0  0  0  0
   46.0650   32.1110   49.7510 H   0  0  0  0  0  0  0  0  0  0  0  0
   47.5190   30.7320   49.2380 C   0  0  0  0  0  0  0  0  0  0  0  0
   47.8060   31.6880   48.0990 C   0  0  0  0  0  0  0  0  0  0  0  0
  1  4  1  1  0  0  0
  1  3  1  0  0  0  0
  2  1  1  0  0  0  0
  2  3  1  0  0  0  0
  3  7  1  1  0  0  0
  3 17  1  0  0  0  0
  5  2  1  0  0  0  0
  6  2  1  0  0  0  0
  8 13  1  0  0  0  0
  8 14  1  0  0  0  0
  9  8  2  0  0  0  0
 10 11  2  0  0  0  0
 10  9  1  0  0  0  0
 11 12  1  0  0  0  0
 12  1  1  0  0  0  0
 12 13  2  0  0  0  0
 15  9  1  0  0  0  0
 16 10  1  0  0  0  0
 17 18  1  0  0  0  0
 17 25  1  1  0  0  0
 18 20  1  0  0  0  0
 19 18  1  0  0  0  0
 20 21  1  0  0  0  0
 20 22  1  0  0  0  0
 22 23  1  0  0  0  0
 24 22  1  0  0  0  0
 25 24  1  0  0  0  0
M  END
>  <minimizedAffinity>
-4.65690136

>  <minimizedRMSD>
1.85017705

$$$$
