
 OpenBabel03242514013D

 27 29  0  0  0  0  0  0  0  0999 V2000
   46.7340   34.6810   42.0900 C   0  0  0  0  0  0  0  0  0  0  0  0
   47.9470   35.3210   41.9060 C   0  0  0  0  0  0  0  0  0  0  0  0
   48.6950   35.2760   40.7510 C   0  0  0  0  0  0  0  0  0  0  0  0
   48.1180   34.5030   39.7250 C   0  0  0  0  0  0  0  0  0  0  0  0
   46.9060   33.8610   39.9030 C   0  0  0  0  0  0  0  0  0  0  0  0
   46.2390   33.9630   41.0780 N   0  0  0  0  0  0  0  0  0  0  0  0
   48.3180   35.8960   42.7490 H   0  0  0  0  0  0  0  0  0  0  0  0
   49.6290   35.7810   40.6410 H   0  0  0  0  0  0  0  0  0  0  0  0
   48.6530   34.4230   38.7880 H   0  0  0  0  0  0  0  0  0  0  0  0
   46.2980   33.0760   38.8930 N   0  0  0  0  0  0  0  0  0  0  0  0
   45.2140   32.1390   39.0520 C   0  0  0  0  0  0  0  0  0  0  0  0
   45.6330   31.1400   38.7740 H   0  0  0  0  0  0  0  0  0  0  0  0
   44.0690   32.4590   38.1140 C   0  0  0  0  0  0  0  0  0  0  0  0
   43.7720   33.5040   38.3200 H   0  0  0  0  0  0  0  0  0  0  0  0
   44.5030   32.3460   36.7510 N   0  0  0  0  0  0  0  0  0  0  0  0
   43.7360   32.6540   36.1070 H   0  0  0  0  0  0  0  0  0  0  0  0
   45.5670   33.3320   36.5620 C   0  0  0  0  0  0  0  0  0  0  0  0
   46.6990   33.1120   37.5220 C   0  0  0  0  0  0  0  0  0  0  0  0
   45.5660   33.9670   45.4890 C   0  0  0  0  0  0  0  0  0  0  0  0
   44.6850   35.0390   45.7450 C   0  0  0  0  0  0  0  0  0  0  0  0
   44.5070   36.0040   44.7250 C   0  0  0  0  0  0  0  0  0  0  0  0
   45.1990   35.8390   43.5510 N   0  0  0  0  0  0  0  0  0  0  0  0
   46.0260   34.8000   43.3600 C   0  0  0  0  0  0  0  0  0  0  0  0
   46.2150   33.8700   44.3060 N   0  0  0  0  0  0  0  0  0  0  0  0
   45.7020   33.2300   46.2670 H   0  0  0  0  0  0  0  0  0  0  0  0
   44.1520   35.1430   46.6790 H   0  0  0  0  0  0  0  0  0  0  0  0
   43.8460   36.8520   44.8540 H   0  0  0  0  0  0  0  0  0  0  0  0
  1 23  1  0  0  0  0
  2  1  1  0  0  0  0
  2  7  1  0  0  0  0
  3  2  2  0  0  0  0
  4  5  2  0  0  0  0
  4  3  1  0  0  0  0
  5  6  1  0  0  0  0
  6  1  2  0  0  0  0
  8  3  1  0  0  0  0
  9  4  1  0  0  0  0
 10 11  1  0  0  0  0
 10  5  1  0  0  0  0
 12 11  1  0  0  0  0
 13 14  1  0  0  0  0
 13 11  1  0  0  0  0
 15 13  1  0  0  0  0
 16 15  1  0  0  0  0
 17 15  1  0  0  0  0
 17 18  1  0  0  0  0
 18 10  1  0  0  0  0
 19 20  1  0  0  0  0
 19 25  1  0  0  0  0
 20 26  1  0  0  0  0
 21 27  1  0  0  0  0
 21 20  2  0  0  0  0
 22 21  1  0  0  0  0
 23 22  2  0  0  0  0
 23 24  1  0  0  0  0
 24 19  2  0  0  0  0
M  END
>  <minimizedAffinity>
-5.79673386

>  <minimizedRMSD>
0.166822717

$$$$
