
 OpenBabel03252504253D

 21 22  0  0  0  0  0  0  0  0999 V2000
   37.9300   31.2610   40.6600 C   0  0  0  0  0  0  0  0  0  0  0  0
   37.0990   31.9670   40.7810 H   0  0  0  0  0  0  0  0  0  0  0  0
   38.8520   31.8400   40.9430 H   0  0  0  0  0  0  0  0  0  0  0  0
   36.6760   29.2910   41.2930 C   0  0  0  0  0  0  0  0  0  0  0  0
   37.7800   30.1200   41.5640 C   0  0  0  0  0  0  0  0  0  0  0  0
   38.5910   29.7710   42.6370 C   0  0  0  0  0  0  0  0  0  0  0  0
   38.2760   28.6700   43.3500 N   0  0  0  0  0  0  0  0  0  0  0  0
   37.2060   27.8920   43.0660 C   0  0  0  0  0  0  0  0  0  0  0  0
   36.3820   28.1820   42.0320 N   0  0  0  0  0  0  0  0  0  0  0  0
   35.9420   29.4240   40.4880 H   0  0  0  0  0  0  0  0  0  0  0  0
   39.4130   30.4170   42.8120 H   0  0  0  0  0  0  0  0  0  0  0  0
   37.0770   27.0380   43.7250 H   0  0  0  0  0  0  0  0  0  0  0  0
   38.0610   30.9510   39.2760 N   0  0  0  0  0  0  0  0  0  0  0  0
   37.2840   31.7750   38.4030 C   0  0  0  0  0  3  0  0  0  0  0  0
   37.3830   32.8340   38.7770 H   0  0  0  0  0  0  0  0  0  0  0  0
   37.8170   31.7200   36.9850 C   0  0  0  0  0  3  0  0  0  0  0  0
   37.1330   32.3280   36.3580 H   0  0  0  0  0  0  0  0  0  0  0  0
   39.1600   32.1960   36.9190 N   0  0  0  0  0  0  0  0  0  0  0  0
   39.6870   31.6520   36.1930 H   0  0  0  0  0  0  0  0  0  0  0  0
   39.8680   32.0190   38.1730 C   0  0  0  0  0  2  0  0  0  0  0  0
   39.3810   30.7070   38.7950 C   0  0  0  0  0  2  0  0  0  0  0  0
  1  2  1  0  0  0  0
  1  3  1  0  0  0  0
  1  5  1  0  0  0  0
  4  5  2  0  0  0  0
  4  9  1  0  0  0  0
  5  6  1  0  0  0  0
  6 11  1  0  0  0  0
  6  7  2  0  0  0  0
  8  7  1  0  0  0  0
  8 12  1  0  0  0  0
  9  8  2  0  0  0  0
 10  4  1  0  0  0  0
 13  1  1  0  0  0  0
 14 15  1  0  0  0  0
 14 13  1  0  0  0  0
 16 14  1  0  0  0  0
 17 16  1  0  0  0  0
 18 16  1  0  0  0  0
 18 20  1  0  0  0  0
 19 18  1  0  0  0  0
 20 21  1  0  0  0  0
 21 13  1  0  0  0  0
M  END
>  <minimizedAffinity>
-3.87559772

$$$$

 OpenBabel03252504253D

 21 22  0  0  0  0  0  0  0  0999 V2000
   38.8160   30.2790   40.9070 C   0  0  0  0  0  0  0  0  0  0  0  0
   39.8920   30.3500   41.1100 H   0  0  0  0  0  0  0  0  0  0  0  0
   38.7400   29.9900   39.8220 H   0  0  0  0  0  0  0  0  0  0  0  0
   37.6640   28.1530   41.0060 C   0  0  0  0  0  0  0  0  0  0  0  0
   38.1980   29.2370   41.7280 C   0  0  0  0  0  0  0  0  0  0  0  0
   38.0820   29.2000   43.1120 C   0  0  0  0  0  0  0  0  0  0  0  0
   37.4710   28.1380   43.6780 N   0  0  0  0  0  0  0  0  0  0  0  0
   36.9670   27.1100   42.9570 C   0  0  0  0  0  0  0  0  0  0  0  0
   37.0520   27.0920   41.6070 N   0  0  0  0  0  0  0  0  0  0  0  0
   37.6730   28.0290   39.9160 H   0  0  0  0  0  0  0  0  0  0  0  0
   38.4950   30.0320   43.6240 H   0  0  0  0  0  0  0  0  0  0  0  0
   36.5040   26.3250   43.5480 H   0  0  0  0  0  0  0  0  0  0  0  0
   38.2480   31.5810   41.0160 N   0  0  0  0  0  0  0  0  0  0  0  0
   39.1660   32.6540   40.7830 C   0  0  0  0  0  3  0  0  0  0  0  0
   39.7920   32.3610   39.8920 H   0  0  0  0  0  0  0  0  0  0  0  0
   38.4300   33.9350   40.4450 C   0  0  0  0  0  3  0  0  0  0  0  0
   39.1960   34.7300   40.3400 H   0  0  0  0  0  0  0  0  0  0  0  0
   37.6520   33.7880   39.2580 N   0  0  0  0  0  0  0  0  0  0  0  0
   36.7710   34.3510   39.3470 H   0  0  0  0  0  0  0  0  0  0  0  0
   37.2500   32.4120   39.0320 C   0  0  0  0  0  2  0  0  0  0  0  0
   36.9780   31.7810   40.4010 C   0  0  0  0  0  2  0  0  0  0  0  0
  1 13  1  0  0  0  0
  1  2  1  0  0  0  0
  1  5  1  0  0  0  0
  3  1  1  0  0  0  0
  4  9  2  0  0  0  0
  4  5  1  0  0  0  0
  5  6  2  0  0  0  0
  6 11  1  0  0  0  0
  6  7  1  0  0  0  0
  8 12  1  0  0  0  0
  8  7  2  0  0  0  0
  9  8  1  0  0  0  0
 10  4  1  0  0  0  0
 14 13  1  0  0  0  0
 15 14  1  0  0  0  0
 16 14  1  0  0  0  0
 17 16  1  0  0  0  0
 18 19  1  0  0  0  0
 18 16  1  0  0  0  0
 20 18  1  0  0  0  0
 20 21  1  0  0  0  0
 21 13  1  0  0  0  0
M  END
>  <minimizedAffinity>
-3.86820245

$$$$

 OpenBabel03252504253D

 21 22  0  0  0  0  0  0  0  0999 V2000
   36.7700   30.5200   41.3840 C   0  0  0  0  0  0  0  0  0  0  0  0
   35.7150   30.4870   41.0880 H   0  0  0  0  0  0  0  0  0  0  0  0
   36.8370   31.3480   42.1430 H   0  0  0  0  0  0  0  0  0  0  0  0
   38.4090   29.3050   42.6860 C   0  0  0  0  0  0  0  0  0  0  0  0
   37.1770   29.2600   42.0080 C   0  0  0  0  0  0  0  0  0  0  0  0
   36.4950   28.0500   42.0040 C   0  0  0  0  0  0  0  0  0  0  0  0
   37.0480   26.9990   42.6450 N   0  0  0  0  0  0  0  0  0  0  0  0
   38.2350   27.0720   43.2890 C   0  0  0  0  0  0  0  0  0  0  0  0
   38.9430   28.2250   43.3260 N   0  0  0  0  0  0  0  0  0  0  0  0
   39.0680   30.1780   42.7830 H   0  0  0  0  0  0  0  0  0  0  0  0
   35.5710   28.0520   41.4840 H   0  0  0  0  0  0  0  0  0  0  0  0
   38.5560   26.1470   43.7590 H   0  0  0  0  0  0  0  0  0  0  0  0
   37.5420   30.9420   40.2630 N   0  0  0  0  0  0  0  0  0  0  0  0
   36.9070   30.7500   38.9960 C   0  0  0  0  0  3  0  0  0  0  0  0
   35.8310   31.0650   39.1170 H   0  0  0  0  0  0  0  0  0  0  0  0
   37.5410   31.6250   37.9320 C   0  0  0  0  0  3  0  0  0  0  0  0
   37.0440   31.3800   36.9720 H   0  0  0  0  0  0  0  0  0  0  0  0
   37.4120   33.0080   38.2570 N   0  0  0  0  0  0  0  0  0  0  0  0
   38.2650   33.5240   37.9290 H   0  0  0  0  0  0  0  0  0  0  0  0
   37.3110   33.2310   39.6870 C   0  0  0  0  0  2  0  0  0  0  0  0
   38.2070   32.1980   40.3770 C   0  0  0  0  0  2  0  0  0  0  0  0
  1  5  1  0  0  0  0
  1  3  1  0  0  0  0
  2  1  1  0  0  0  0
  4 10  1  0  0  0  0
  4  9  1  0  0  0  0
  5  4  2  0  0  0  0
  6  5  1  0  0  0  0
  6  7  2  0  0  0  0
  7  8  1  0  0  0  0
  8  9  2  0  0  0  0
  8 12  1  0  0  0  0
 11  6  1  0  0  0  0
 13 21  1  0  0  0  0
 13  1  1  0  0  0  0
 14 15  1  0  0  0  0
 14 13  1  0  0  0  0
 16 18  1  0  0  0  0
 16 14  1  0  0  0  0
 17 16  1  0  0  0  0
 18 20  1  0  0  0  0
 19 18  1  0  0  0  0
 20 21  1  0  0  0  0
M  END
>  <minimizedAffinity>
-3.85797262

$$$$

 OpenBabel03252504253D

 21 22  0  0  0  0  0  0  0  0999 V2000
   38.9160   30.3190   40.8740 C   0  0  0  0  0  0  0  0  0  0  0  0
   39.9420   30.3840   41.2560 H   0  0  0  0  0  0  0  0  0  0  0  0
   39.0260   30.1010   39.7750 H   0  0  0  0  0  0  0  0  0  0  0  0
   38.1350   29.2870   42.9180 C   0  0  0  0  0  0  0  0  0  0  0  0
   38.1900   29.2210   41.5140 C   0  0  0  0  0  0  0  0  0  0  0  0
   37.5610   28.1440   40.9000 C   0  0  0  0  0  0  0  0  0  0  0  0
   36.9420   27.2330   41.6790 N   0  0  0  0  0  0  0  0  0  0  0  0
   36.9060   27.3230   43.0290 C   0  0  0  0  0  0  0  0  0  0  0  0
   37.5000   28.3500   43.6800 N   0  0  0  0  0  0  0  0  0  0  0  0
   38.5760   30.0660   43.5520 H   0  0  0  0  0  0  0  0  0  0  0  0
   37.6230   28.1270   39.8420 H   0  0  0  0  0  0  0  0  0  0  0  0
   36.3710   26.5170   43.5240 H   0  0  0  0  0  0  0  0  0  0  0  0
   38.3150   31.6070   40.9680 N   0  0  0  0  0  0  0  0  0  0  0  0
   39.2080   32.7010   40.7390 C   0  0  0  0  0  3  0  0  0  0  0  0
   39.8520   32.4190   39.8570 H   0  0  0  0  0  0  0  0  0  0  0  0
   38.4440   33.9610   40.3860 C   0  0  0  0  0  3  0  0  0  0  0  0
   39.1910   34.7740   40.2850 H   0  0  0  0  0  0  0  0  0  0  0  0
   37.6840   33.7880   39.1910 N   0  0  0  0  0  0  0  0  0  0  0  0
   36.7890   34.3290   39.2670 H   0  0  0  0  0  0  0  0  0  0  0  0
   37.3190   32.4020   38.9680 C   0  0  0  0  0  2  0  0  0  0  0  0
   37.0470   31.7720   40.3380 C   0  0  0  0  0  2  0  0  0  0  0  0
  1 13  1  0  0  0  0
  1  2  1  0  0  0  0
  1  5  1  0  0  0  0
  3  1  1  0  0  0  0
  4 10  1  0  0  0  0
  4  9  1  0  0  0  0
  5  4  2  0  0  0  0
  6  5  1  0  0  0  0
  6  7  2  0  0  0  0
  7  8  1  0  0  0  0
  8 12  1  0  0  0  0
  8  9  2  0  0  0  0
 11  6  1  0  0  0  0
 14 13  1  0  0  0  0
 15 14  1  0  0  0  0
 16 14  1  0  0  0  0
 17 16  1  0  0  0  0
 18 19  1  0  0  0  0
 18 16  1  0  0  0  0
 20 18  1  0  0  0  0
 20 21  1  0  0  0  0
 21 13  1  0  0  0  0
M  END
>  <minimizedAffinity>
-3.83845973

$$$$

 OpenBabel03252504253D

 21 22  0  0  0  0  0  0  0  0999 V2000
   37.2810   27.4460   42.8870 C   0  0  0  0  0  0  0  0  0  0  0  0
   37.4560   27.8070   43.9080 H   0  0  0  0  0  0  0  0  0  0  0  0
   36.4260   26.7200   42.9740 H   0  0  0  0  0  0  0  0  0  0  0  0
   37.7320   29.6740   42.0580 C   0  0  0  0  0  0  0  0  0  0  0  0
   36.8920   28.5460   42.0040 C   0  0  0  0  0  0  0  0  0  0  0  0
   35.8090   28.5990   41.1360 C   0  0  0  0  0  0  0  0  0  0  0  0
   35.6260   29.7170   40.4040 N   0  0  0  0  0  0  0  0  0  0  0  0
   36.4510   30.7870   40.4780 C   0  0  0  0  0  0  0  0  0  0  0  0
   37.5220   30.7910   41.3050 N   0  0  0  0  0  0  0  0  0  0  0  0
   38.6240   29.7930   42.6870 H   0  0  0  0  0  0  0  0  0  0  0  0
   35.1980   27.7330   41.1210 H   0  0  0  0  0  0  0  0  0  0  0  0
   36.1800   31.6160   39.8290 H   0  0  0  0  0  0  0  0  0  0  0  0
   38.4130   26.6840   42.4780 N   0  0  0  0  0  0  0  0  0  0  0  0
   39.2820   26.2860   43.5420 C   0  0  0  0  0  3  0  0  0  0  0  0
   38.6250   25.9460   44.3920 H   0  0  0  0  0  0  0  0  0  0  0  0
   40.1580   25.1220   43.1230 C   0  0  0  0  0  3  0  0  0  0  0  0
   40.8420   24.9110   43.9690 H   0  0  0  0  0  0  0  0  0  0  0  0
   39.3720   23.9820   42.7800 N   0  0  0  0  0  0  0  0  0  0  0  0
   39.8360   23.4620   41.9950 H   0  0  0  0  0  0  0  0  0  0  0  0
   38.0470   24.3460   42.3160 C   0  0  0  0  0  2  0  0  0  0  0  0
   38.1800   25.6500   41.5230 C   0  0  0  0  0  2  0  0  0  0  0  0
  1  3  1  0  0  0  0
  1  2  1  0  0  0  0
  4 10  1  0  0  0  0
  5  4  1  0  0  0  0
  5  1  1  0  0  0  0
  6  5  2  0  0  0  0
  7  8  2  0  0  0  0
  7  6  1  0  0  0  0
  8  9  1  0  0  0  0
  9  4  2  0  0  0  0
 11  6  1  0  0  0  0
 12  8  1  0  0  0  0
 13  1  1  0  0  0  0
 13 14  1  0  0  0  0
 14 15  1  0  0  0  0
 16 14  1  0  0  0  0
 16 17  1  0  0  0  0
 18 16  1  0  0  0  0
 19 18  1  0  0  0  0
 20 18  1  0  0  0  0
 21 20  1  0  0  0  0
 21 13  1  0  0  0  0
M  END
>  <minimizedAffinity>
-3.80417967

$$$$

 OpenBabel03252504253D

 21 22  0  0  0  0  0  0  0  0999 V2000
   38.7860   27.9860   41.0120 C   0  0  0  0  0  0  0  0  0  0  0  0
   39.6840   28.5630   40.7580 H   0  0  0  0  0  0  0  0  0  0  0  0
   38.3690   27.6420   40.0250 H   0  0  0  0  0  0  0  0  0  0  0  0
   38.8550   25.5760   41.2210 C   0  0  0  0  0  0  0  0  0  0  0  0
   39.1290   26.8180   41.8240 C   0  0  0  0  0  0  0  0  0  0  0  0
   39.6840   26.7990   43.0980 C   0  0  0  0  0  0  0  0  0  0  0  0
   39.9250   25.6050   43.6760 N   0  0  0  0  0  0  0  0  0  0  0  0
   39.6500   24.4260   43.0720 C   0  0  0  0  0  0  0  0  0  0  0  0
   39.1100   24.3830   41.8310 N   0  0  0  0  0  0  0  0  0  0  0  0
   38.4200   25.4160   40.2260 H   0  0  0  0  0  0  0  0  0  0  0  0
   39.8770   27.7520   43.5210 H   0  0  0  0  0  0  0  0  0  0  0  0
   39.8970   23.5460   43.6580 H   0  0  0  0  0  0  0  0  0  0  0  0
   37.8200   28.8740   41.5670 N   0  0  0  0  0  0  0  0  0  0  0  0
   37.7320   30.1430   40.9150 C   0  0  0  0  0  3  0  0  0  0  0  0
   37.7750   29.9460   39.8050 H   0  0  0  0  0  0  0  0  0  0  0  0
   36.4130   30.8240   41.2250 C   0  0  0  0  0  3  0  0  0  0  0  0
   36.4410   31.8200   40.7410 H   0  0  0  0  0  0  0  0  0  0  0  0
   35.3090   30.0440   40.7680 N   0  0  0  0  0  0  0  0  0  0  0  0
   34.5060   30.1530   41.4350 H   0  0  0  0  0  0  0  0  0  0  0  0
   35.6210   28.6280   40.7150 C   0  0  0  0  0  2  0  0  0  0  0  0
   36.5490   28.3170   41.8940 C   0  0  0  0  0  2  0  0  0  0  0  0
  1 13  1  0  0  0  0
  1  5  1  0  0  0  0
  2  1  1  0  0  0  0
  3  1  1  0  0  0  0
  4  5  2  0  0  0  0
  4  9  1  0  0  0  0
  5  6  1  0  0  0  0
  6 11  1  0  0  0  0
  6  7  2  0  0  0  0
  8 12  1  0  0  0  0
  8  7  1  0  0  0  0
  9  8  2  0  0  0  0
 10  4  1  0  0  0  0
 13 21  1  0  0  0  0
 14 16  1  0  0  0  0
 14 13  1  0  0  0  0
 15 14  1  0  0  0  0
 17 16  1  0  0  0  0
 18 16  1  0  0  0  0
 18 19  1  0  0  0  0
 20 18  1  0  0  0  0
 20 21  1  0  0  0  0
M  END
>  <minimizedAffinity>
-3.78666401

$$$$

 OpenBabel03252504253D

 21 22  0  0  0  0  0  0  0  0999 V2000
   37.3710   29.6680   39.5040 C   0  0  0  0  0  0  0  0  0  0  0  0
   37.6330   28.8670   38.8020 H   0  0  0  0  0  0  0  0  0  0  0  0
   36.3020   29.9290   39.2670 H   0  0  0  0  0  0  0  0  0  0  0  0
   36.8930   27.9310   41.1190 C   0  0  0  0  0  0  0  0  0  0  0  0
   37.4580   29.1990   40.8870 C   0  0  0  0  0  0  0  0  0  0  0  0
   38.0270   29.8520   41.9740 C   0  0  0  0  0  0  0  0  0  0  0  0
   38.0030   29.2400   43.1760 N   0  0  0  0  0  0  0  0  0  0  0  0
   37.4510   28.0200   43.3690 C   0  0  0  0  0  0  0  0  0  0  0  0
   36.8850   27.3370   42.3470 N   0  0  0  0  0  0  0  0  0  0  0  0
   36.4080   27.2870   40.3740 H   0  0  0  0  0  0  0  0  0  0  0  0
   38.4430   30.8040   41.7630 H   0  0  0  0  0  0  0  0  0  0  0  0
   37.5050   27.6520   44.3900 H   0  0  0  0  0  0  0  0  0  0  0  0
   38.1450   30.8200   39.1830 N   0  0  0  0  0  0  0  0  0  0  0  0
   39.4280   30.5400   38.6170 C   0  0  0  0  0  3  0  0  0  0  0  0
   39.2810   29.7070   37.8700 H   0  0  0  0  0  0  0  0  0  0  0  0
   39.9740   31.7470   37.8810 C   0  0  0  0  0  3  0  0  0  0  0  0
   40.9880   31.4780   37.5250 H   0  0  0  0  0  0  0  0  0  0  0  0
   39.1180   32.1270   36.8040 N   0  0  0  0  0  0  0  0  0  0  0  0
   39.1270   33.1710   36.7040 H   0  0  0  0  0  0  0  0  0  0  0  0
   37.7390   31.7390   37.0350 C   0  0  0  0  0  2  0  0  0  0  0  0
   37.4630   31.8910   38.5340 C   0  0  0  0  0  2  0  0  0  0  0  0
  1  5  1  0  0  0  0
  2  1  1  0  0  0  0
  3  1  1  0  0  0  0
  4  9  1  0  0  0  0
  5  4  2  0  0  0  0
  5  6  1  0  0  0  0
  6  7  2  0  0  0  0
  7  8  1  0  0  0  0
  8 12  1  0  0  0  0
  9  8  2  0  0  0  0
 10  4  1  0  0  0  0
 11  6  1  0  0  0  0
 13  1  1  0  0  0  0
 14 13  1  0  0  0  0
 15 14  1  0  0  0  0
 16 14  1  0  0  0  0
 17 16  1  0  0  0  0
 18 20  1  0  0  0  0
 18 16  1  0  0  0  0
 19 18  1  0  0  0  0
 20 21  1  0  0  0  0
 21 13  1  0  0  0  0
M  END
>  <minimizedAffinity>
-3.74615455

$$$$

 OpenBabel03252504253D

 21 22  0  0  0  0  0  0  0  0999 V2000
   38.2790   29.9810   40.6670 C   0  0  0  0  0  0  0  0  0  0  0  0
   37.7560   29.5360   39.8120 H   0  0  0  0  0  0  0  0  0  0  0  0
   39.3130   29.5370   40.6430 H   0  0  0  0  0  0  0  0  0  0  0  0
   37.2870   32.0360   39.8630 C   0  0  0  0  0  0  0  0  0  0  0  0
   38.3750   31.4350   40.5210 C   0  0  0  0  0  0  0  0  0  0  0  0
   39.4000   32.2680   40.9530 C   0  0  0  0  0  0  0  0  0  0  0  0
   39.2930   33.5920   40.7170 N   0  0  0  0  0  0  0  0  0  0  0  0
   38.2340   34.1430   40.0800 C   0  0  0  0  0  0  0  0  0  0  0  0
   37.2070   33.3800   39.6390 N   0  0  0  0  0  0  0  0  0  0  0  0
   36.4020   31.5240   39.4620 H   0  0  0  0  0  0  0  0  0  0  0  0
   40.2030   31.7810   41.4440 H   0  0  0  0  0  0  0  0  0  0  0  0
   38.2850   35.2210   39.9610 H   0  0  0  0  0  0  0  0  0  0  0  0
   37.6690   29.5110   41.8650 N   0  0  0  0  0  0  0  0  0  0  0  0
   36.8510   28.3490   41.7020 C   0  0  0  0  0  3  0  0  0  0  0  0
   37.4080   27.6490   41.0160 H   0  0  0  0  0  0  0  0  0  0  0  0
   36.6360   27.6450   43.0270 C   0  0  0  0  0  3  0  0  0  0  0  0
   35.9480   26.7970   42.8350 H   0  0  0  0  0  0  0  0  0  0  0  0
   37.8730   27.2060   43.5850 N   0  0  0  0  0  0  0  0  0  0  0  0
   37.8300   27.2840   44.6310 H   0  0  0  0  0  0  0  0  0  0  0  0
   38.9920   28.0210   43.1510 C   0  0  0  0  0  2  0  0  0  0  0  0
   38.4910   29.4630   43.0290 C   0  0  0  0  0  2  0  0  0  0  0  0
  1 13  1  0  0  0  0
  2  1  1  0  0  0  0
  3  1  1  0  0  0  0
  4  5  1  0  0  0  0
  5  1  1  0  0  0  0
  5  6  2  0  0  0  0
  6 11  1  0  0  0  0
  7  6  1  0  0  0  0
  8  7  2  0  0  0  0
  9  4  2  0  0  0  0
  9  8  1  0  0  0  0
 10  4  1  0  0  0  0
 12  8  1  0  0  0  0
 13 21  1  0  0  0  0
 14 13  1  0  0  0  0
 14 16  1  0  0  0  0
 15 14  1  0  0  0  0
 16 18  1  0  0  0  0
 17 16  1  0  0  0  0
 18 19  1  0  0  0  0
 20 18  1  0  0  0  0
 21 20  1  0  0  0  0
M  END
>  <minimizedAffinity>
-3.71183181

$$$$

 OpenBabel03252504253D

 21 22  0  0  0  0  0  0  0  0999 V2000
   39.1690   29.2110   42.3090 C   0  0  0  0  0  0  0  0  0  0  0  0
   38.9250   29.7180   43.2510 H   0  0  0  0  0  0  0  0  0  0  0  0
   40.1720   29.6220   42.0060 H   0  0  0  0  0  0  0  0  0  0  0  0
   40.3160   27.3650   43.3740 C   0  0  0  0  0  0  0  0  0  0  0  0
   39.2800   27.7660   42.5090 C   0  0  0  0  0  0  0  0  0  0  0  0
   38.4930   26.7660   41.9520 C   0  0  0  0  0  0  0  0  0  0  0  0
   38.7640   25.4820   42.2690 N   0  0  0  0  0  0  0  0  0  0  0  0
   39.7680   25.1280   43.1030 C   0  0  0  0  0  0  0  0  0  0  0  0
   40.5660   26.0590   43.6760 N   0  0  0  0  0  0  0  0  0  0  0  0
   41.0240   28.0240   43.8930 H   0  0  0  0  0  0  0  0  0  0  0  0
   37.7230   27.1030   41.3060 H   0  0  0  0  0  0  0  0  0  0  0  0
   39.8680   24.0580   43.2660 H   0  0  0  0  0  0  0  0  0  0  0  0
   38.2440   29.6360   41.3130 N   0  0  0  0  0  0  0  0  0  0  0  0
   36.9440   29.9680   41.8090 C   0  0  0  0  0  3  0  0  0  0  0  0
   37.0950   30.5600   42.7570 H   0  0  0  0  0  0  0  0  0  0  0  0
   36.1910   30.8380   40.8210 C   0  0  0  0  0  3  0  0  0  0  0  0
   35.1780   31.0020   41.2410 H   0  0  0  0  0  0  0  0  0  0  0  0
   36.8750   32.0690   40.5910 N   0  0  0  0  0  0  0  0  0  0  0  0
   36.7410   32.3590   39.5920 H   0  0  0  0  0  0  0  0  0  0  0  0
   38.3050   31.9520   40.8060 C   0  0  0  0  0  2  0  0  0  0  0  0
   38.7280   30.5560   40.3380 C   0  0  0  0  0  2  0  0  0  0  0  0
  1  5  1  0  0  0  0
  1  2  1  0  0  0  0
  3  1  1  0  0  0  0
  4  9  1  0  0  0  0
  4 10  1  0  0  0  0
  5  4  2  0  0  0  0
  6  7  2  0  0  0  0
  6  5  1  0  0  0  0
  7  8  1  0  0  0  0
  8 12  1  0  0  0  0
  8  9  2  0  0  0  0
 11  6  1  0  0  0  0
 13 14  1  0  0  0  0
 13  1  1  0  0  0  0
 14 15  1  0  0  0  0
 16 17  1  0  0  0  0
 16 14  1  0  0  0  0
 18 20  1  0  0  0  0
 18 16  1  0  0  0  0
 19 18  1  0  0  0  0
 21 20  1  0  0  0  0
 21 13  1  0  0  0  0
M  END
>  <minimizedAffinity>
-3.66387057

$$$$
