
 OpenBabel03252505263D

 43 46  0  0  1  0  0  0  0  0999 V2000
   38.0200   28.2660   39.4750 F   0  0  0  0  0  0  0  0  0  0  0  0
   37.9110   28.2210   40.8280 C   0  0  0  0  0  0  0  0  0  0  0  0
   37.9890   29.4040   41.5200 C   0  0  0  0  0  0  0  0  0  0  0  0
   37.8790   29.3590   42.8900 C   0  0  0  0  0  0  0  0  0  0  0  0
   37.6970   28.1400   43.5170 C   0  0  0  0  0  0  0  0  0  0  0  0
   37.6190   26.9570   42.8230 C   0  0  0  0  0  0  0  0  0  0  0  0
   37.7330   27.0190   41.4330 C   0  0  0  0  0  0  0  0  0  0  0  0
   37.9330   30.2650   43.4900 H   0  0  0  0  0  0  0  0  0  0  0  0
   37.6130   28.1400   44.6000 H   0  0  0  0  0  0  0  0  0  0  0  0
   37.4760   26.0240   43.3530 H   0  0  0  0  0  0  0  0  0  0  0  0
   37.6460   25.7740   40.7680 N   0  0  0  0  0  0  0  0  0  0  0  0
   38.5630   24.6680   40.7010 C   0  0  0  0  0  0  0  0  0  0  0  0
   37.6640   23.4620   41.0300 C   0  0  0  0  0  0  0  0  0  0  0  0
   36.2830   23.9370   40.6630 C   0  0  0  0  0  0  0  0  0  0  0  0
   36.5740   25.2250   39.9320 C   0  0  2  0  0  0  0  0  0  0  0  0
   39.2400   24.7770   41.5920 H   0  0  0  0  0  0  0  0  0  0  0  0
   39.1220   24.5510   39.7820 H   0  0  0  0  0  0  0  0  0  0  0  0
   37.9880   22.5780   40.4680 H   0  0  0  0  0  0  0  0  0  0  0  0
   37.6600   23.2570   42.1280 H   0  0  0  0  0  0  0  0  0  0  0  0
   35.7460   23.2270   40.0070 H   0  0  0  0  0  0  0  0  0  0  0  0
   35.6600   24.1560   41.5500 H   0  0  0  0  0  0  0  0  0  0  0  0
   35.6800   25.8950   40.0740 H   0  0  0  0  0  0  0  0  0  0  0  0
   36.9350   25.0560   38.5040 C   0  0  0  0  0  0  0  0  0  0  0  0
   37.9760   25.3060   38.2510 H   0  0  0  0  0  0  0  0  0  0  0  0
   36.2870   25.7250   37.8940 H   0  0  0  0  0  0  0  0  0  0  0  0
   36.6510   24.0100   38.2020 H   0  0  0  0  0  0  0  0  0  0  0  0
   37.3320   32.6910   40.0380 C   0  0  0  0  0  0  0  0  0  0  0  0
   38.5810   33.0480   39.4710 C   0  0  0  0  0  0  0  0  0  0  0  0
   39.5920   32.1150   39.6380 C   0  0  0  0  0  0  0  0  0  0  0  0
   39.3480   30.9720   40.2990 N   0  0  0  0  0  0  0  0  0  0  0  0
   38.1810   30.6630   40.8160 C   0  0  0  0  0  0  0  0  0  0  0  0
   37.1660   31.5200   40.6890 N   0  0  0  0  0  0  0  0  0  0  0  0
   36.5230   33.4090   39.9190 H   0  0  0  0  0  0  0  0  0  0  0  0
   38.7600   33.9540   38.9520 H   0  0  0  0  0  0  0  0  0  0  0  0
   40.9050   32.2960   39.1430 N   0  0  0  0  0  0  0  0  0  0  0  0
   41.8370   33.3670   39.4130 C   0  0  0  0  0  3  0  0  0  0  0  0
   41.4050   34.0050   40.2080 H   0  0  0  0  0  0  0  0  0  0  0  0
   41.9660   34.1610   38.1560 C   0  0  0  0  0  3  0  0  0  0  0  0
   42.8250   34.8610   38.2860 H   0  0  0  0  0  0  0  0  0  0  0  0
   42.1470   33.4270   36.9650 N   0  0  0  0  0  0  0  0  0  0  0  0
   41.6740   33.8770   36.1600 H   0  0  0  0  0  0  0  0  0  0  0  0
   42.0440   32.0200   36.9890 C   0  0  0  0  0  2  0  0  0  0  0  0
   41.5420   31.3740   38.2380 C   0  0  0  0  0  2  0  0  0  0  0  0
  1  2  1  0  0  0  0
  2  7  2  0  0  0  0
  2  3  1  0  0  0  0
  3  4  2  0  0  0  0
  4  8  1  0  0  0  0
  4  5  1  0  0  0  0
  5  9  1  0  0  0  0
  6 10  1  0  0  0  0
  6  5  2  0  0  0  0
  7  6  1  0  0  0  0
 11  7  1  0  0  0  0
 12 11  1  0  0  0  0
 12 13  1  0  0  0  0
 12 16  1  0  0  0  0
 13 19  1  0  0  0  0
 14 13  1  0  0  0  0
 14 21  1  0  0  0  0
 15 22  1  1  0  0  0
 15 14  1  0  0  0  0
 15 11  1  0  0  0  0
 17 12  1  0  0  0  0
 18 13  1  0  0  0  0
 20 14  1  0  0  0  0
 23 15  1  0  0  0  0
 24 23  1  0  0  0  0
 25 23  1  0  0  0  0
 26 23  1  0  0  0  0
 27 32  1  0  0  0  0
 28 29  1  0  0  0  0
 28 27  2  0  0  0  0
 29 30  2  0  0  0  0
 30 31  1  0  0  0  0
 31  3  1  0  0  0  0
 32 31  2  0  0  0  0
 33 27  1  0  0  0  0
 34 28  1  0  0  0  0
 35 36  1  0  0  0  0
 35 29  1  0  0  0  0
 36 37  1  0  0  0  0
 38 39  1  0  0  0  0
 38 36  1  0  0  0  0
 40 42  1  0  0  0  0
 40 38  1  0  0  0  0
 41 40  1  0  0  0  0
 42 43  1  0  0  0  0
 43 35  1  0  0  0  0
M  END
>  <minimizedAffinity>
-6.24832582

$$$$

 OpenBabel03252505263D

 43 46  0  0  1  0  0  0  0  0999 V2000
   39.6590   27.6520   40.5440 F   0  0  0  0  0  0  0  0  0  0  0  0
   38.7960   27.7330   41.5900 C   0  0  0  0  0  0  0  0  0  0  0  0
   38.8690   28.8390   42.3990 C   0  0  0  0  0  0  0  0  0  0  0  0
   37.9950   28.9230   43.4590 C   0  0  0  0  0  0  0  0  0  0  0  0
   37.0860   27.9040   43.6710 C   0  0  0  0  0  0  0  0  0  0  0  0
   37.0140   26.7970   42.8590 C   0  0  0  0  0  0  0  0  0  0  0  0
   37.9070   26.7270   41.7890 C   0  0  0  0  0  0  0  0  0  0  0  0
   38.0080   29.7760   44.1330 H   0  0  0  0  0  0  0  0  0  0  0  0
   36.4100   28.0010   44.5160 H   0  0  0  0  0  0  0  0  0  0  0  0
   36.2860   26.0210   43.0600 H   0  0  0  0  0  0  0  0  0  0  0  0
   37.7900   25.5680   40.9860 N   0  0  0  0  0  0  0  0  0  0  0  0
   38.6470   24.4230   40.8440 C   0  0  0  0  0  0  0  0  0  0  0  0
   37.6660   23.2450   40.9900 C   0  0  0  0  0  0  0  0  0  0  0  0
   36.3360   23.8400   40.6070 C   0  0  0  0  0  0  0  0  0  0  0  0
   36.7400   25.1800   40.0400 C   0  0  2  0  0  0  0  0  0  0  0  0
   39.2760   24.3930   41.7750 H   0  0  0  0  0  0  0  0  0  0  0  0
   39.2510   24.3720   39.9470 H   0  0  0  0  0  0  0  0  0  0  0  0
   37.9730   22.4080   40.3510 H   0  0  0  0  0  0  0  0  0  0  0  0
   37.5870   22.9240   42.0570 H   0  0  0  0  0  0  0  0  0  0  0  0
   35.8000   23.2390   39.8490 H   0  0  0  0  0  0  0  0  0  0  0  0
   35.6760   24.0000   41.4800 H   0  0  0  0  0  0  0  0  0  0  0  0
   35.8770   25.8840   40.2090 H   0  0  0  0  0  0  0  0  0  0  0  0
   37.1730   25.1440   38.6230 C   0  0  0  0  0  0  0  0  0  0  0  0
   38.2390   25.3550   38.4530 H   0  0  0  0  0  0  0  0  0  0  0  0
   36.6000   25.9130   38.0580 H   0  0  0  0  0  0  0  0  0  0  0  0
   36.8500   24.1560   38.1920 H   0  0  0  0  0  0  0  0  0  0  0  0
   41.8150   30.9990   42.7010 C   0  0  0  0  0  0  0  0  0  0  0  0
   41.6770   31.8910   41.6100 C   0  0  0  0  0  0  0  0  0  0  0  0
   40.5560   31.6910   40.8210 C   0  0  0  0  0  0  0  0  0  0  0  0
   39.6940   30.7040   41.1190 N   0  0  0  0  0  0  0  0  0  0  0  0
   39.8430   29.8870   42.1370 C   0  0  0  0  0  0  0  0  0  0  0  0
   40.9040   30.0290   42.9340 N   0  0  0  0  0  0  0  0  0  0  0  0
   42.6900   31.1380   43.3340 H   0  0  0  0  0  0  0  0  0  0  0  0
   42.3640   32.6660   41.3860 H   0  0  0  0  0  0  0  0  0  0  0  0
   40.2500   32.4810   39.6890 N   0  0  0  0  0  0  0  0  0  0  0  0
   38.9950   32.6070   38.9830 C   0  0  0  0  0  3  0  0  0  0  0  0
   38.2220   32.0630   39.5580 H   0  0  0  0  0  0  0  0  0  0  0  0
   39.1750   31.9530   37.6530 C   0  0  0  0  0  3  0  0  0  0  0  0
   38.2910   32.2170   37.0260 H   0  0  0  0  0  0  0  0  0  0  0  0
   40.3530   32.2780   36.9480 N   0  0  0  0  0  0  0  0  0  0  0  0
   40.7140   31.4680   36.4100 H   0  0  0  0  0  0  0  0  0  0  0  0
   41.3510   33.0540   37.5740 C   0  0  0  0  0  2  0  0  0  0  0  0
   41.2120   33.3300   39.0350 C   0  0  0  0  0  2  0  0  0  0  0  0
  1  2  1  0  0  0  0
  2  7  2  0  0  0  0
  2  3  1  0  0  0  0
  3  4  2  0  0  0  0
  4  5  1  0  0  0  0
  4  8  1  0  0  0  0
  5  9  1  0  0  0  0
  6 10  1  0  0  0  0
  6  5  2  0  0  0  0
  7  6  1  0  0  0  0
 11  7  1  0  0  0  0
 12 11  1  0  0  0  0
 12 13  1  0  0  0  0
 12 16  1  0  0  0  0
 13 19  1  0  0  0  0
 14 13  1  0  0  0  0
 14 21  1  0  0  0  0
 15 22  1  1  0  0  0
 15 14  1  0  0  0  0
 15 11  1  0  0  0  0
 17 12  1  0  0  0  0
 18 13  1  0  0  0  0
 20 14  1  0  0  0  0
 23 15  1  0  0  0  0
 24 23  1  0  0  0  0
 25 23  1  0  0  0  0
 26 23  1  0  0  0  0
 27 32  1  0  0  0  0
 27 33  1  0  0  0  0
 28 27  2  0  0  0  0
 29 30  2  0  0  0  0
 29 28  1  0  0  0  0
 30 31  1  0  0  0  0
 31  3  1  0  0  0  0
 31 32  2  0  0  0  0
 34 28  1  0  0  0  0
 35 29  1  0  0  0  0
 36 37  1  0  0  0  0
 36 35  1  0  0  0  0
 38 36  1  0  0  0  0
 39 38  1  0  0  0  0
 40 42  1  0  0  0  0
 40 38  1  0  0  0  0
 41 40  1  0  0  0  0
 42 43  1  0  0  0  0
 43 35  1  0  0  0  0
M  END
>  <minimizedAffinity>
-6.19431114

$$$$

 OpenBabel03252505263D

 43 46  0  0  1  0  0  0  0  0999 V2000
   38.1290   28.1950   39.7000 F   0  0  0  0  0  0  0  0  0  0  0  0
   37.7950   28.0210   41.0040 C   0  0  0  0  0  0  0  0  0  0  0  0
   37.8190   29.1210   41.8270 C   0  0  0  0  0  0  0  0  0  0  0  0
   37.4810   28.9460   43.1480 C   0  0  0  0  0  0  0  0  0  0  0  0
   37.1340   27.6860   43.5990 C   0  0  0  0  0  0  0  0  0  0  0  0
   37.1110   26.5860   42.7750 C   0  0  0  0  0  0  0  0  0  0  0  0
   37.4560   26.7810   41.4370 C   0  0  0  0  0  0  0  0  0  0  0  0
   37.4820   29.7810   43.8450 H   0  0  0  0  0  0  0  0  0  0  0  0
   36.8720   27.5820   44.6490 H   0  0  0  0  0  0  0  0  0  0  0  0
   36.8320   25.6170   43.1690 H   0  0  0  0  0  0  0  0  0  0  0  0
   37.4160   25.6170   40.6330 N   0  0  0  0  0  0  0  0  0  0  0  0
   38.3400   24.5250   40.4980 C   0  0  0  0  0  0  0  0  0  0  0  0
   37.4300   23.2900   40.6350 C   0  0  0  0  0  0  0  0  0  0  0  0
   36.0710   23.8050   40.2420 C   0  0  0  0  0  0  0  0  0  0  0  0
   36.3980   25.1670   39.6780 C   0  0  2  0  0  0  0  0  0  0  0  0
   38.9630   24.5320   41.4340 H   0  0  0  0  0  0  0  0  0  0  0  0
   38.9540   24.5110   39.6050 H   0  0  0  0  0  0  0  0  0  0  0  0
   37.7920   22.4740   39.9990 H   0  0  0  0  0  0  0  0  0  0  0  0
   37.3620   22.9640   41.7010 H   0  0  0  0  0  0  0  0  0  0  0  0
   35.5770   23.1740   39.4800 H   0  0  0  0  0  0  0  0  0  0  0  0
   35.3960   23.9250   41.1090 H   0  0  0  0  0  0  0  0  0  0  0  0
   35.4940   25.8180   39.8400 H   0  0  0  0  0  0  0  0  0  0  0  0
   36.8440   25.1580   38.2650 C   0  0  0  0  0  0  0  0  0  0  0  0
   37.8970   25.4330   38.1030 H   0  0  0  0  0  0  0  0  0  0  0  0
   36.2300   25.8920   37.6950 H   0  0  0  0  0  0  0  0  0  0  0  0
   36.5840   24.1530   37.8310 H   0  0  0  0  0  0  0  0  0  0  0  0
   37.5850   32.4710   40.3590 C   0  0  0  0  0  0  0  0  0  0  0  0
   38.9330   32.9050   40.3230 C   0  0  0  0  0  0  0  0  0  0  0  0
   39.8580   31.9990   40.8160 C   0  0  0  0  0  0  0  0  0  0  0  0
   39.4480   30.8080   41.2830 N   0  0  0  0  0  0  0  0  0  0  0  0
   38.1910   30.4270   41.3060 C   0  0  0  0  0  0  0  0  0  0  0  0
   37.2520   31.2560   40.8450 N   0  0  0  0  0  0  0  0  0  0  0  0
   36.8410   33.1670   39.9760 H   0  0  0  0  0  0  0  0  0  0  0  0
   39.2440   33.8480   39.9520 H   0  0  0  0  0  0  0  0  0  0  0  0
   41.2490   32.2550   40.8620 N   0  0  0  0  0  0  0  0  0  0  0  0
   42.3120   31.4020   41.3420 C   0  0  0  0  0  3  0  0  0  0  0  0
   41.8800   30.4080   41.5690 H   0  0  0  0  0  0  0  0  0  0  0  0
   42.8290   32.0160   42.6010 C   0  0  0  0  0  3  0  0  0  0  0  0
   43.7730   31.4850   42.8700 H   0  0  0  0  0  0  0  0  0  0  0  0
   43.0750   33.4040   42.5680 N   0  0  0  0  0  0  0  0  0  0  0  0
   42.8600   33.8540   43.4770 H   0  0  0  0  0  0  0  0  0  0  0  0
   42.6860   34.1560   41.4390 C   0  0  0  0  0  2  0  0  0  0  0  0
   41.8410   33.4860   40.4060 C   0  0  0  0  0  2  0  0  0  0  0  0
  1  2  1  0  0  0  0
  2  7  2  0  0  0  0
  2  3  1  0  0  0  0
  3  4  2  0  0  0  0
  4  5  1  0  0  0  0
  4  8  1  0  0  0  0
  5  9  1  0  0  0  0
  6 10  1  0  0  0  0
  6  5  2  0  0  0  0
  7  6  1  0  0  0  0
 11  7  1  0  0  0  0
 12 11  1  0  0  0  0
 12 13  1  0  0  0  0
 12 16  1  0  0  0  0
 13 19  1  0  0  0  0
 14 13  1  0  0  0  0
 14 21  1  0  0  0  0
 15 22  1  1  0  0  0
 15 14  1  0  0  0  0
 15 11  1  0  0  0  0
 17 12  1  0  0  0  0
 18 13  1  0  0  0  0
 20 14  1  0  0  0  0
 23 15  1  0  0  0  0
 24 23  1  0  0  0  0
 25 23  1  0  0  0  0
 26 23  1  0  0  0  0
 27 32  1  0  0  0  0
 28 27  2  0  0  0  0
 28 29  1  0  0  0  0
 29 35  1  0  0  0  0
 29 30  2  0  0  0  0
 30 31  1  0  0  0  0
 31  3  1  0  0  0  0
 32 31  2  0  0  0  0
 33 27  1  0  0  0  0
 34 28  1  0  0  0  0
 35 36  1  0  0  0  0
 36 37  1  0  0  0  0
 36 38  1  0  0  0  0
 38 39  1  0  0  0  0
 40 38  1  0  0  0  0
 40 41  1  0  0  0  0
 42 40  1  0  0  0  0
 43 35  1  0  0  0  0
 43 42  1  0  0  0  0
M  END
>  <minimizedAffinity>
-6.17563534

$$$$

 OpenBabel03252505263D

 43 46  0  0  1  0  0  0  0  0999 V2000
   39.2370   29.8430   41.5930 F   0  0  0  0  0  0  0  0  0  0  0  0
   38.0850   29.7460   40.8800 C   0  0  0  0  0  0  0  0  0  0  0  0
   37.7520   30.7880   40.0510 C   0  0  0  0  0  0  0  0  0  0  0  0
   36.5850   30.6900   39.3290 C   0  0  0  0  0  0  0  0  0  0  0  0
   35.7970   29.5630   39.4610 C   0  0  0  0  0  0  0  0  0  0  0  0
   36.1320   28.5200   40.2920 C   0  0  0  0  0  0  0  0  0  0  0  0
   37.3180   28.6340   41.0170 C   0  0  0  0  0  0  0  0  0  0  0  0
   36.2710   31.4860   38.6560 H   0  0  0  0  0  0  0  0  0  0  0  0
   34.8820   29.5180   38.8760 H   0  0  0  0  0  0  0  0  0  0  0  0
   35.4860   27.6540   40.3660 H   0  0  0  0  0  0  0  0  0  0  0  0
   37.6160   27.5350   41.8560 N   0  0  0  0  0  0  0  0  0  0  0  0
   36.7880   26.7740   42.7520 C   0  0  0  0  0  0  0  0  0  0  0  0
   37.1070   25.3200   42.3570 C   0  0  0  0  0  0  0  0  0  0  0  0
   38.4700   25.4140   41.7260 C   0  0  0  0  0  0  0  0  0  0  0  0
   38.8820   26.8260   42.0670 C   0  0  2  0  0  0  0  0  0  0  0  0
   35.7310   26.9420   42.4110 H   0  0  0  0  0  0  0  0  0  0  0  0
   36.9060   26.9690   43.8110 H   0  0  0  0  0  0  0  0  0  0  0  0
   37.0740   24.6680   43.2380 H   0  0  0  0  0  0  0  0  0  0  0  0
   36.4030   24.9600   41.5680 H   0  0  0  0  0  0  0  0  0  0  0  0
   39.1880   24.6850   42.1450 H   0  0  0  0  0  0  0  0  0  0  0  0
   38.4370   25.3020   40.6260 H   0  0  0  0  0  0  0  0  0  0  0  0
   39.5830   27.1710   41.2560 H   0  0  0  0  0  0  0  0  0  0  0  0
   39.4580   26.9900   43.4220 C   0  0  0  0  0  0  0  0  0  0  0  0
   38.8450   27.5720   44.1260 H   0  0  0  0  0  0  0  0  0  0  0  0
   40.4330   27.5200   43.3310 H   0  0  0  0  0  0  0  0  0  0  0  0
   39.7140   25.9650   43.8100 H   0  0  0  0  0  0  0  0  0  0  0  0
   39.2180   34.0910   40.6630 C   0  0  0  0  0  0  0  0  0  0  0  0
   40.2690   34.1610   39.7150 C   0  0  0  0  0  0  0  0  0  0  0  0
   40.4110   33.0440   38.9080 C   0  0  0  0  0  0  0  0  0  0  0  0
   39.5810   31.9980   39.0580 N   0  0  0  0  0  0  0  0  0  0  0  0
   38.6130   31.9550   39.9450 C   0  0  0  0  0  0  0  0  0  0  0  0
   38.4250   33.0010   40.7520 N   0  0  0  0  0  0  0  0  0  0  0  0
   39.0870   34.9580   41.3080 H   0  0  0  0  0  0  0  0  0  0  0  0
   40.9160   34.9930   39.6070 H   0  0  0  0  0  0  0  0  0  0  0  0
   41.4030   32.9300   37.9060 N   0  0  0  0  0  0  0  0  0  0  0  0
   41.7330   31.7890   37.0830 C   0  0  0  0  0  3  0  0  0  0  0  0
   40.9740   31.0040   37.2640 H   0  0  0  0  0  0  0  0  0  0  0  0
   43.0700   31.2990   37.5310 C   0  0  0  0  0  3  0  0  0  0  0  0
   43.4240   30.5540   36.7790 H   0  0  0  0  0  0  0  0  0  0  0  0
   44.0680   32.2780   37.7140 N   0  0  0  0  0  0  0  0  0  0  0  0
   44.6960   32.0430   38.5050 H   0  0  0  0  0  0  0  0  0  0  0  0
   43.7320   33.6450   37.6240 C   0  0  0  0  0  2  0  0  0  0  0  0
   42.2850   34.0080   37.5420 C   0  0  0  0  0  2  0  0  0  0  0  0
  2  7  1  0  0  0  0
  2  1  1  0  0  0  0
  3  2  2  0  0  0  0
  4  5  2  0  0  0  0
  4  3  1  0  0  0  0
  5  6  1  0  0  0  0
  6 10  1  0  0  0  0
  6  7  2  0  0  0  0
  7 11  1  0  0  0  0
  8  4  1  0  0  0  0
  9  5  1  0  0  0  0
 11 15  1  0  0  0  0
 11 12  1  0  0  0  0
 12 17  1  0  0  0  0
 13 12  1  0  0  0  0
 13 18  1  0  0  0  0
 14 15  1  0  0  0  0
 14 20  1  0  0  0  0
 14 13  1  0  0  0  0
 15 22  1  6  0  0  0
 15 23  1  0  0  0  0
 16 12  1  0  0  0  0
 19 13  1  0  0  0  0
 21 14  1  0  0  0  0
 23 26  1  0  0  0  0
 23 24  1  0  0  0  0
 25 23  1  0  0  0  0
 27 32  1  0  0  0  0
 27 33  1  0  0  0  0
 28 27  2  0  0  0  0
 29 30  2  0  0  0  0
 29 28  1  0  0  0  0
 30 31  1  0  0  0  0
 31  3  1  0  0  0  0
 31 32  2  0  0  0  0
 34 28  1  0  0  0  0
 35 29  1  0  0  0  0
 36 37  1  0  0  0  0
 36 38  1  0  0  0  0
 36 35  1  0  0  0  0
 38 40  1  0  0  0  0
 39 38  1  0  0  0  0
 40 41  1  0  0  0  0
 42 40  1  0  0  0  0
 43 42  1  0  0  0  0
 43 35  1  0  0  0  0
M  END
>  <minimizedAffinity>
-6.06032228

$$$$

 OpenBabel03252505263D

 43 46  0  0  1  0  0  0  0  0999 V2000
   32.6840   29.3710   39.4010 F   0  0  0  0  0  0  0  0  0  0  0  0
   33.1740   29.2250   38.1430 C   0  0  0  0  0  0  0  0  0  0  0  0
   34.5010   28.9010   38.0030 C   0  0  0  0  0  0  0  0  0  0  0  0
   34.9990   28.7520   36.7300 C   0  0  0  0  0  0  0  0  0  0  0  0
   34.1580   28.9310   35.6470 C   0  0  0  0  0  0  0  0  0  0  0  0
   32.8300   29.2550   35.7880 C   0  0  0  0  0  0  0  0  0  0  0  0
   32.3410   29.4020   37.0870 C   0  0  0  0  0  0  0  0  0  0  0  0
   36.0420   28.4960   36.5590 H   0  0  0  0  0  0  0  0  0  0  0  0
   34.5830   28.8060   34.6550 H   0  0  0  0  0  0  0  0  0  0  0  0
   32.2060   29.3860   34.9140 H   0  0  0  0  0  0  0  0  0  0  0  0
   30.9680   29.7350   37.1750 N   0  0  0  0  0  0  0  0  0  0  0  0
   29.7930   29.0430   36.7220 C   0  0  0  0  0  0  0  0  0  0  0  0
   28.8860   29.0640   37.9660 C   0  0  0  0  0  0  0  0  0  0  0  0
   29.3890   30.2450   38.7540 C   0  0  0  0  0  0  0  0  0  0  0  0
   30.3210   30.9090   37.7680 C   0  0  2  0  0  0  0  0  0  0  0  0
   30.0970   27.9680   36.6030 H   0  0  0  0  0  0  0  0  0  0  0  0
   29.3120   29.4270   35.8310 H   0  0  0  0  0  0  0  0  0  0  0  0
   27.8330   29.1490   37.6720 H   0  0  0  0  0  0  0  0  0  0  0  0
   29.0520   28.1560   38.5940 H   0  0  0  0  0  0  0  0  0  0  0  0
   28.5800   30.9360   39.0550 H   0  0  0  0  0  0  0  0  0  0  0  0
   29.9630   29.9440   39.6490 H   0  0  0  0  0  0  0  0  0  0  0  0
   31.1090   31.4440   38.3690 H   0  0  0  0  0  0  0  0  0  0  0  0
   29.6510   31.8000   36.7910 C   0  0  0  0  0  0  0  0  0  0  0  0
   29.6680   31.4500   35.7480 H   0  0  0  0  0  0  0  0  0  0  0  0
   30.1620   32.7890   36.8050 H   0  0  0  0  0  0  0  0  0  0  0  0
   28.6100   31.9990   37.1680 H   0  0  0  0  0  0  0  0  0  0  0  0
   36.2340   29.5440   41.1680 C   0  0  0  0  0  0  0  0  0  0  0  0
   36.9670   28.3510   41.3860 C   0  0  0  0  0  0  0  0  0  0  0  0
   36.8170   27.3800   40.4100 C   0  0  0  0  0  0  0  0  0  0  0  0
   36.0180   27.6080   39.3540 N   0  0  0  0  0  0  0  0  0  0  0  0
   35.3470   28.7230   39.1730 C   0  0  0  0  0  0  0  0  0  0  0  0
   35.4510   29.6970   40.0780 N   0  0  0  0  0  0  0  0  0  0  0  0
   36.3380   30.3220   41.9230 H   0  0  0  0  0  0  0  0  0  0  0  0
   37.5930   28.1840   42.2240 H   0  0  0  0  0  0  0  0  0  0  0  0
   37.4670   26.1250   40.4550 N   0  0  0  0  0  0  0  0  0  0  0  0
   37.0090   24.8470   39.9580 C   0  0  0  0  0  3  0  0  0  0  0  0
   36.0750   25.0150   39.3890 H   0  0  0  0  0  0  0  0  0  0  0  0
   36.7180   23.9950   41.1480 C   0  0  0  0  0  3  0  0  0  0  0  0
   36.5600   22.9520   40.7840 H   0  0  0  0  0  0  0  0  0  0  0  0
   37.6940   23.9840   42.1660 N   0  0  0  0  0  0  0  0  0  0  0  0
   37.2660   23.9090   43.1080 H   0  0  0  0  0  0  0  0  0  0  0  0
   38.7900   24.8690   42.0940 C   0  0  0  0  0  2  0  0  0  0  0  0
   38.7670   25.9300   41.0430 C   0  0  0  0  0  2  0  0  0  0  0  0
  2  1  1  0  0  0  0
  3  2  1  0  0  0  0
  3 31  1  0  0  0  0
  4  3  2  0  0  0  0
  5  6  2  0  0  0  0
  5  4  1  0  0  0  0
  6  7  1  0  0  0  0
  7 11  1  0  0  0  0
  7  2  2  0  0  0  0
  8  4  1  0  0  0  0
  9  5  1  0  0  0  0
 10  6  1  0  0  0  0
 11 15  1  0  0  0  0
 12 11  1  0  0  0  0
 12 13  1  0  0  0  0
 13 19  1  0  0  0  0
 13 14  1  0  0  0  0
 14 20  1  0  0  0  0
 14 21  1  0  0  0  0
 15 22  1  1  0  0  0
 15 14  1  0  0  0  0
 16 12  1  0  0  0  0
 17 12  1  0  0  0  0
 18 13  1  0  0  0  0
 23 25  1  0  0  0  0
 23 26  1  0  0  0  0
 23 15  1  0  0  0  0
 24 23  1  0  0  0  0
 27 28  1  0  0  0  0
 27 33  1  0  0  0  0
 28 34  1  0  0  0  0
 29 35  1  0  0  0  0
 29 28  2  0  0  0  0
 30 29  1  0  0  0  0
 31 30  2  0  0  0  0
 31 32  1  0  0  0  0
 32 27  2  0  0  0  0
 35 43  1  0  0  0  0
 36 35  1  0  0  0  0
 36 38  1  0  0  0  0
 37 36  1  0  0  0  0
 38 40  1  0  0  0  0
 39 38  1  0  0  0  0
 40 41  1  0  0  0  0
 42 40  1  0  0  0  0
 43 42  1  0  0  0  0
M  END
>  <minimizedAffinity>
-5.88990784

$$$$

 OpenBabel03252505263D

 43 46  0  0  1  0  0  0  0  0999 V2000
   35.5810   26.4890   38.1240 F   0  0  0  0  0  0  0  0  0  0  0  0
   35.7140   27.4420   39.0830 C   0  0  0  0  0  0  0  0  0  0  0  0
   35.0530   28.6320   38.9040 C   0  0  0  0  0  0  0  0  0  0  0  0
   35.1870   29.5970   39.8740 C   0  0  0  0  0  0  0  0  0  0  0  0
   35.9730   29.3410   40.9830 C   0  0  0  0  0  0  0  0  0  0  0  0
   36.6340   28.1490   41.1600 C   0  0  0  0  0  0  0  0  0  0  0  0
   36.4870   27.1800   40.1670 C   0  0  0  0  0  0  0  0  0  0  0  0
   34.6870   30.5590   39.7860 H   0  0  0  0  0  0  0  0  0  0  0  0
   36.0570   30.1250   41.7300 H   0  0  0  0  0  0  0  0  0  0  0  0
   37.2390   27.9890   42.0430 H   0  0  0  0  0  0  0  0  0  0  0  0
   37.1880   25.9730   40.3990 N   0  0  0  0  0  0  0  0  0  0  0  0
   38.5960   25.6880   40.4460 C   0  0  0  0  0  0  0  0  0  0  0  0
   38.7370   24.8940   41.7580 C   0  0  0  0  0  0  0  0  0  0  0  0
   37.3600   24.3260   41.9800 C   0  0  0  0  0  0  0  0  0  0  0  0
   36.6780   24.6250   40.6670 C   0  0  2  0  0  0  0  0  0  0  0  0
   39.1020   26.6710   40.6470 H   0  0  0  0  0  0  0  0  0  0  0  0
   39.0220   25.1830   39.5890 H   0  0  0  0  0  0  0  0  0  0  0  0
   39.5180   24.1290   41.6610 H   0  0  0  0  0  0  0  0  0  0  0  0
   38.9530   25.5770   42.6150 H   0  0  0  0  0  0  0  0  0  0  0  0
   37.3720   23.2370   42.1760 H   0  0  0  0  0  0  0  0  0  0  0  0
   36.8170   24.8380   42.7960 H   0  0  0  0  0  0  0  0  0  0  0  0
   35.5780   24.7330   40.8830 H   0  0  0  0  0  0  0  0  0  0  0  0
   36.9510   23.6410   39.5920 C   0  0  0  0  0  0  0  0  0  0  0  0
   37.5490   24.0200   38.7500 H   0  0  0  0  0  0  0  0  0  0  0  0
   35.9790   23.3020   39.1680 H   0  0  0  0  0  0  0  0  0  0  0  0
   37.3990   22.7280   40.0720 H   0  0  0  0  0  0  0  0  0  0  0  0
   34.0310   28.9560   35.3990 C   0  0  0  0  0  0  0  0  0  0  0  0
   32.6570   29.2900   35.4900 C   0  0  0  0  0  0  0  0  0  0  0  0
   32.1580   29.3850   36.7790 C   0  0  0  0  0  0  0  0  0  0  0  0
   32.9650   29.1650   37.8300 N   0  0  0  0  0  0  0  0  0  0  0  0
   34.2370   28.8560   37.7200 C   0  0  0  0  0  0  0  0  0  0  0  0
   34.7780   28.7500   36.5050 N   0  0  0  0  0  0  0  0  0  0  0  0
   34.4450   28.8760   34.3950 H   0  0  0  0  0  0  0  0  0  0  0  0
   32.0310   29.4610   34.6530 H   0  0  0  0  0  0  0  0  0  0  0  0
   30.8110   29.7080   37.0690 N   0  0  0  0  0  0  0  0  0  0  0  0
   30.2920   30.6420   38.0410 C   0  0  0  0  0  3  0  0  0  0  0  0
   31.1450   31.2010   38.4710 H   0  0  0  0  0  0  0  0  0  0  0  0
   29.6360   29.8370   39.1130 C   0  0  0  0  0  3  0  0  0  0  0  0
   29.0610   30.5420   39.7590 H   0  0  0  0  0  0  0  0  0  0  0  0
   28.7800   28.8010   38.6870 N   0  0  0  0  0  0  0  0  0  0  0  0
   28.8250   27.9800   39.3190 H   0  0  0  0  0  0  0  0  0  0  0  0
   28.7050   28.4770   37.3150 C   0  0  0  0  0  2  0  0  0  0  0  0
   29.6920   29.1080   36.3900 C   0  0  0  0  0  2  0  0  0  0  0  0
  1  2  1  0  0  0  0
  2  7  1  0  0  0  0
  3  2  2  0  0  0  0
  3  4  1  0  0  0  0
  4  5  2  0  0  0  0
  5  6  1  0  0  0  0
  5  9  1  0  0  0  0
  6 10  1  0  0  0  0
  7 11  1  0  0  0  0
  7  6  2  0  0  0  0
  8  4  1  0  0  0  0
 11 12  1  0  0  0  0
 11 15  1  0  0  0  0
 12 16  1  0  0  0  0
 12 13  1  0  0  0  0
 13 14  1  0  0  0  0
 13 19  1  0  0  0  0
 14 20  1  0  0  0  0
 14 21  1  0  0  0  0
 15 22  1  1  0  0  0
 15 14  1  0  0  0  0
 17 12  1  0  0  0  0
 18 13  1  0  0  0  0
 23 26  1  0  0  0  0
 23 15  1  0  0  0  0
 24 23  1  0  0  0  0
 25 23  1  0  0  0  0
 27 28  2  0  0  0  0
 27 32  1  0  0  0  0
 28 29  1  0  0  0  0
 29 35  1  0  0  0  0
 29 30  2  0  0  0  0
 31 30  1  0  0  0  0
 31  3  1  0  0  0  0
 32 31  2  0  0  0  0
 33 27  1  0  0  0  0
 34 28  1  0  0  0  0
 35 36  1  0  0  0  0
 36 37  1  0  0  0  0
 36 38  1  0  0  0  0
 38 39  1  0  0  0  0
 40 38  1  0  0  0  0
 40 41  1  0  0  0  0
 42 40  1  0  0  0  0
 43 35  1  0  0  0  0
 43 42  1  0  0  0  0
M  END
>  <minimizedAffinity>
-5.85390711

$$$$

 OpenBabel03252505263D

 43 46  0  0  1  0  0  0  0  0999 V2000
   40.1720   30.5290   41.3310 F   0  0  0  0  0  0  0  0  0  0  0  0
   39.1040   31.1600   40.7790 C   0  0  0  0  0  0  0  0  0  0  0  0
   37.8670   30.5850   40.9340 C   0  0  0  0  0  0  0  0  0  0  0  0
   36.7840   31.2240   40.3770 C   0  0  0  0  0  0  0  0  0  0  0  0
   36.9740   32.4070   39.6870 C   0  0  0  0  0  0  0  0  0  0  0  0
   38.2130   32.9810   39.5330 C   0  0  0  0  0  0  0  0  0  0  0  0
   39.3010   32.3210   40.1050 C   0  0  0  0  0  0  0  0  0  0  0  0
   35.7800   30.8140   40.4680 H   0  0  0  0  0  0  0  0  0  0  0  0
   36.0970   32.8850   39.2590 H   0  0  0  0  0  0  0  0  0  0  0  0
   38.3180   33.9090   38.9860 H   0  0  0  0  0  0  0  0  0  0  0  0
   40.5520   32.9550   39.9170 N   0  0  0  0  0  0  0  0  0  0  0  0
   41.1340   34.1100   40.5440 C   0  0  0  0  0  0  0  0  0  0  0  0
   42.5360   33.6110   40.9410 C   0  0  0  0  0  0  0  0  0  0  0  0
   42.7890   32.4690   39.9910 C   0  0  0  0  0  0  0  0  0  0  0  0
   41.6520   32.6160   39.0090 C   0  0  2  0  0  0  0  0  0  0  0  0
   40.5860   34.2400   41.5160 H   0  0  0  0  0  0  0  0  0  0  0  0
   41.1510   35.0250   39.9640 H   0  0  0  0  0  0  0  0  0  0  0  0
   43.2690   34.4220   40.8580 H   0  0  0  0  0  0  0  0  0  0  0  0
   42.5270   33.1840   41.9730 H   0  0  0  0  0  0  0  0  0  0  0  0
   43.7650   32.5480   39.4760 H   0  0  0  0  0  0  0  0  0  0  0  0
   42.7160   31.4830   40.4850 H   0  0  0  0  0  0  0  0  0  0  0  0
   41.4310   31.5890   38.6030 H   0  0  0  0  0  0  0  0  0  0  0  0
   41.8900   33.6100   37.9350 C   0  0  0  0  0  0  0  0  0  0  0  0
   41.2560   34.5080   37.9780 H   0  0  0  0  0  0  0  0  0  0  0  0
   41.6920   33.1240   36.9530 H   0  0  0  0  0  0  0  0  0  0  0  0
   42.9890   33.8510   37.9300 H   0  0  0  0  0  0  0  0  0  0  0  0
   37.3420   28.2090   43.6750 C   0  0  0  0  0  0  0  0  0  0  0  0
   37.4350   26.9480   43.0350 C   0  0  0  0  0  0  0  0  0  0  0  0
   37.6770   26.9950   41.6720 C   0  0  0  0  0  0  0  0  0  0  0  0
   37.8060   28.1810   41.0540 N   0  0  0  0  0  0  0  0  0  0  0  0
   37.7160   29.3380   41.6690 C   0  0  0  0  0  0  0  0  0  0  0  0
   37.4840   29.3600   42.9820 N   0  0  0  0  0  0  0  0  0  0  0  0
   37.1520   28.1960   44.7470 H   0  0  0  0  0  0  0  0  0  0  0  0
   37.3310   26.0200   43.5340 H   0  0  0  0  0  0  0  0  0  0  0  0
   37.8000   25.8410   40.8630 N   0  0  0  0  0  0  0  0  0  0  0  0
   36.7980   25.1930   40.0490 C   0  0  0  0  0  3  0  0  0  0  0  0
   35.8940   25.8330   40.0430 H   0  0  0  0  0  0  0  0  0  0  0  0
   36.4780   23.8910   40.7050 C   0  0  0  0  0  3  0  0  0  0  0  0
   35.8630   23.2960   39.9890 H   0  0  0  0  0  0  0  0  0  0  0  0
   37.5760   23.1120   41.1240 N   0  0  0  0  0  0  0  0  0  0  0  0
   37.3710   22.5990   42.0010 H   0  0  0  0  0  0  0  0  0  0  0  0
   38.8800   23.6470   41.0540 C   0  0  0  0  0  2  0  0  0  0  0  0
   39.0270   25.0980   40.7290 C   0  0  0  0  0  2  0  0  0  0  0  0
  2  3  1  0  0  0  0
  2  1  1  0  0  0  0
  3 31  1  0  0  0  0
  4  8  1  0  0  0  0
  4  3  2  0  0  0  0
  5  4  1  0  0  0  0
  6  5  2  0  0  0  0
  6  7  1  0  0  0  0
  7  2  2  0  0  0  0
  9  5  1  0  0  0  0
 10  6  1  0  0  0  0
 11  7  1  0  0  0  0
 11 12  1  0  0  0  0
 12 13  1  0  0  0  0
 12 16  1  0  0  0  0
 13 19  1  0  0  0  0
 14 21  1  0  0  0  0
 14 13  1  0  0  0  0
 15 22  1  6  0  0  0
 15 11  1  0  0  0  0
 15 14  1  0  0  0  0
 17 12  1  0  0  0  0
 18 13  1  0  0  0  0
 20 14  1  0  0  0  0
 23 24  1  0  0  0  0
 23 15  1  0  0  0  0
 25 23  1  0  0  0  0
 26 23  1  0  0  0  0
 27 33  1  0  0  0  0
 28 34  1  0  0  0  0
 28 27  1  0  0  0  0
 29 28  2  0  0  0  0
 30 31  2  0  0  0  0
 30 29  1  0  0  0  0
 31 32  1  0  0  0  0
 32 27  2  0  0  0  0
 35 29  1  0  0  0  0
 36 38  1  0  0  0  0
 36 35  1  0  0  0  0
 37 36  1  0  0  0  0
 38 40  1  0  0  0  0
 39 38  1  0  0  0  0
 40 41  1  0  0  0  0
 42 40  1  0  0  0  0
 43 35  1  0  0  0  0
 43 42  1  0  0  0  0
M  END
>  <minimizedAffinity>
-5.83217096

$$$$

 OpenBabel03252505263D

 43 46  0  0  1  0  0  0  0  0999 V2000
   32.6300   29.2480   38.7780 F   0  0  0  0  0  0  0  0  0  0  0  0
   32.9810   29.2000   37.4670 C   0  0  0  0  0  0  0  0  0  0  0  0
   34.2110   28.6810   37.1490 C   0  0  0  0  0  0  0  0  0  0  0  0
   34.5680   28.6320   35.8210 C   0  0  0  0  0  0  0  0  0  0  0  0
   33.6880   29.1020   34.8640 C   0  0  0  0  0  0  0  0  0  0  0  0
   32.4560   29.6220   35.1840 C   0  0  0  0  0  0  0  0  0  0  0  0
   32.1100   29.6640   36.5350 C   0  0  0  0  0  0  0  0  0  0  0  0
   35.5300   28.2310   35.5110 H   0  0  0  0  0  0  0  0  0  0  0  0
   34.0010   29.0490   33.8250 H   0  0  0  0  0  0  0  0  0  0  0  0
   31.7970   29.9790   34.4030 H   0  0  0  0  0  0  0  0  0  0  0  0
   30.8330   30.2080   36.8090 N   0  0  0  0  0  0  0  0  0  0  0  0
   29.6300   29.6000   37.3080 C   0  0  0  0  0  0  0  0  0  0  0  0
   29.2130   30.5530   38.4430 C   0  0  0  0  0  0  0  0  0  0  0  0
   29.8660   31.8580   38.0690 C   0  0  0  0  0  0  0  0  0  0  0  0
   30.3430   31.5820   36.6640 C   0  0  2  0  0  0  0  0  0  0  0  0
   29.9550   28.6570   37.8270 H   0  0  0  0  0  0  0  0  0  0  0  0
   28.8410   29.4130   36.5900 H   0  0  0  0  0  0  0  0  0  0  0  0
   28.1200   30.6130   38.5110 H   0  0  0  0  0  0  0  0  0  0  0  0
   29.6560   30.2310   39.4160 H   0  0  0  0  0  0  0  0  0  0  0  0
   29.1610   32.7100   38.0840 H   0  0  0  0  0  0  0  0  0  0  0  0
   30.7370   32.0940   38.7080 H   0  0  0  0  0  0  0  0  0  0  0  0
   31.2480   32.2300   36.4890 H   0  0  0  0  0  0  0  0  0  0  0  0
   29.3100   31.7580   35.6160 C   0  0  0  0  0  0  0  0  0  0  0  0
   28.9900   30.8340   35.1120 H   0  0  0  0  0  0  0  0  0  0  0  0
   29.7160   32.4290   34.8260 H   0  0  0  0  0  0  0  0  0  0  0  0
   28.4520   32.3240   36.0740 H   0  0  0  0  0  0  0  0  0  0  0  0
   36.2900   26.4530   39.1860 C   0  0  0  0  0  0  0  0  0  0  0  0
   36.8020   27.3130   40.1880 C   0  0  0  0  0  0  0  0  0  0  0  0
   36.3920   28.6330   40.0990 C   0  0  0  0  0  0  0  0  0  0  0  0
   35.5670   29.0140   39.1100 N   0  0  0  0  0  0  0  0  0  0  0  0
   35.1040   28.1980   38.1910 C   0  0  0  0  0  0  0  0  0  0  0  0
   35.4620   26.9130   38.2230 N   0  0  0  0  0  0  0  0  0  0  0  0
   36.5990   25.4100   39.2360 H   0  0  0  0  0  0  0  0  0  0  0  0
   37.4540   27.0000   40.9630 H   0  0  0  0  0  0  0  0  0  0  0  0
   36.8000   29.6370   41.0080 N   0  0  0  0  0  0  0  0  0  0  0  0
   36.4720   31.0440   41.0130 C   0  0  0  0  0  3  0  0  0  0  0  0
   35.7080   31.2210   40.2310 H   0  0  0  0  0  0  0  0  0  0  0  0
   37.7190   31.7850   40.6630 C   0  0  0  0  0  3  0  0  0  0  0  0
   37.5340   32.8680   40.8580 H   0  0  0  0  0  0  0  0  0  0  0  0
   38.8940   31.3910   41.3360 N   0  0  0  0  0  0  0  0  0  0  0  0
   39.7290   31.4630   40.7250 H   0  0  0  0  0  0  0  0  0  0  0  0
   38.8750   30.2490   42.1640 C   0  0  0  0  0  2  0  0  0  0  0  0
   37.6600   29.3800   42.1350 C   0  0  0  0  0  2  0  0  0  0  0  0
  2  1  1  0  0  0  0
  3  2  1  0  0  0  0
  3 31  1  0  0  0  0
  4  3  2  0  0  0  0
  5  6  2  0  0  0  0
  5  4  1  0  0  0  0
  6  7  1  0  0  0  0
  7 11  1  0  0  0  0
  7  2  2  0  0  0  0
  8  4  1  0  0  0  0
  9  5  1  0  0  0  0
 10  6  1  0  0  0  0
 11 12  1  0  0  0  0
 12 16  1  0  0  0  0
 12 13  1  0  0  0  0
 13 18  1  0  0  0  0
 13 19  1  0  0  0  0
 14 20  1  0  0  0  0
 14 13  1  0  0  0  0
 14 21  1  0  0  0  0
 15 22  1  6  0  0  0
 15 11  1  0  0  0  0
 15 14  1  0  0  0  0
 17 12  1  0  0  0  0
 23 26  1  0  0  0  0
 23 15  1  0  0  0  0
 24 23  1  0  0  0  0
 25 23  1  0  0  0  0
 27 33  1  0  0  0  0
 27 28  1  0  0  0  0
 28 34  1  0  0  0  0
 29 28  2  0  0  0  0
 29 35  1  0  0  0  0
 30 29  1  0  0  0  0
 31 32  1  0  0  0  0
 31 30  2  0  0  0  0
 32 27  2  0  0  0  0
 35 36  1  0  0  0  0
 35 43  1  0  0  0  0
 37 36  1  0  0  0  0
 38 39  1  0  0  0  0
 38 36  1  0  0  0  0
 38 40  1  0  0  0  0
 40 42  1  0  0  0  0
 41 40  1  0  0  0  0
 43 42  1  0  0  0  0
M  END
>  <minimizedAffinity>
-5.80210018

$$$$

 OpenBabel03252505263D

 43 46  0  0  1  0  0  0  0  0999 V2000
   38.1630   27.2860   39.6940 F   0  0  0  0  0  0  0  0  0  0  0  0
   37.9950   27.8660   40.9100 C   0  0  0  0  0  0  0  0  0  0  0  0
   37.8650   29.2320   40.9590 C   0  0  0  0  0  0  0  0  0  0  0  0
   37.6950   29.8200   42.1900 C   0  0  0  0  0  0  0  0  0  0  0  0
   37.6610   29.0280   43.3230 C   0  0  0  0  0  0  0  0  0  0  0  0
   37.7910   27.6610   43.2720 C   0  0  0  0  0  0  0  0  0  0  0  0
   37.9630   27.0790   42.0150 C   0  0  0  0  0  0  0  0  0  0  0  0
   37.5860   30.8980   42.2900 H   0  0  0  0  0  0  0  0  0  0  0  0
   37.5250   29.5250   44.2790 H   0  0  0  0  0  0  0  0  0  0  0  0
   37.7590   27.0770   44.1830 H   0  0  0  0  0  0  0  0  0  0  0  0
   38.0920   25.6700   42.0200 N   0  0  0  0  0  0  0  0  0  0  0  0
   37.1090   24.6280   42.1460 C   0  0  0  0  0  0  0  0  0  0  0  0
   37.4590   23.6890   40.9760 C   0  0  0  0  0  0  0  0  0  0  0  0
   38.9110   23.9830   40.7060 C   0  0  0  0  0  0  0  0  0  0  0  0
   39.2890   24.8330   41.8950 C   0  0  2  0  0  0  0  0  0  0  0  0
   36.1280   25.0960   41.8590 H   0  0  0  0  0  0  0  0  0  0  0  0
   37.0520   24.1230   43.1010 H   0  0  0  0  0  0  0  0  0  0  0  0
   37.2650   22.6460   41.2510 H   0  0  0  0  0  0  0  0  0  0  0  0
   36.8900   23.9720   40.0570 H   0  0  0  0  0  0  0  0  0  0  0  0
   39.5330   23.0690   40.6640 H   0  0  0  0  0  0  0  0  0  0  0  0
   39.0600   24.5680   39.7800 H   0  0  0  0  0  0  0  0  0  0  0  0
   40.1240   25.5130   41.5630 H   0  0  0  0  0  0  0  0  0  0  0  0
   39.6330   24.0680   43.1160 C   0  0  0  0  0  0  0  0  0  0  0  0
   38.9230   24.1710   43.9500 H   0  0  0  0  0  0  0  0  0  0  0  0
   40.6200   24.4220   43.4900 H   0  0  0  0  0  0  0  0  0  0  0  0
   39.7980   22.9970   42.8120 H   0  0  0  0  0  0  0  0  0  0  0  0
   36.9150   30.7130   37.7440 C   0  0  0  0  0  0  0  0  0  0  0  0
   38.0190   31.5440   37.4300 C   0  0  0  0  0  0  0  0  0  0  0  0
   39.0430   31.5420   38.3630 C   0  0  0  0  0  0  0  0  0  0  0  0
   38.9410   30.7870   39.4690 N   0  0  0  0  0  0  0  0  0  0  0  0
   37.9070   30.0240   39.7400 C   0  0  0  0  0  0  0  0  0  0  0  0
   36.8880   29.9820   38.8800 N   0  0  0  0  0  0  0  0  0  0  0  0
   36.0980   30.6990   37.0240 H   0  0  0  0  0  0  0  0  0  0  0  0
   38.0870   32.1350   36.5530 H   0  0  0  0  0  0  0  0  0  0  0  0
   40.2240   32.3080   38.2220 N   0  0  0  0  0  0  0  0  0  0  0  0
   41.2500   32.2160   37.2080 C   0  0  0  0  0  3  0  0  0  0  0  0
   40.9040   31.5030   36.4350 H   0  0  0  0  0  0  0  0  0  0  0  0
   42.4720   31.6720   37.8720 C   0  0  0  0  0  3  0  0  0  0  0  0
   43.3210   31.7850   37.1560 H   0  0  0  0  0  0  0  0  0  0  0  0
   42.8290   32.2550   39.1050 N   0  0  0  0  0  0  0  0  0  0  0  0
   43.2380   31.5590   39.7550 H   0  0  0  0  0  0  0  0  0  0  0  0
   41.9600   33.1840   39.7170 C   0  0  0  0  0  2  0  0  0  0  0  0
   40.5970   33.3590   39.1340 C   0  0  0  0  0  2  0  0  0  0  0  0
  1  2  1  0  0  0  0
  2  3  2  0  0  0  0
  2  7  1  0  0  0  0
  3  4  1  0  0  0  0
  4  8  1  0  0  0  0
  4  5  2  0  0  0  0
  5  9  1  0  0  0  0
  6  5  1  0  0  0  0
  6 10  1  0  0  0  0
  7 11  1  0  0  0  0
  7  6  2  0  0  0  0
 11 12  1  0  0  0  0
 12 17  1  0  0  0  0
 13 18  1  0  0  0  0
 13 12  1  0  0  0  0
 14 13  1  0  0  0  0
 14 15  1  0  0  0  0
 15 22  1  6  0  0  0
 15 11  1  0  0  0  0
 15 23  1  0  0  0  0
 16 12  1  0  0  0  0
 19 13  1  0  0  0  0
 20 14  1  0  0  0  0
 21 14  1  0  0  0  0
 23 25  1  0  0  0  0
 23 24  1  0  0  0  0
 26 23  1  0  0  0  0
 27 32  1  0  0  0  0
 28 27  2  0  0  0  0
 28 29  1  0  0  0  0
 29 30  2  0  0  0  0
 30 31  1  0  0  0  0
 31  3  1  0  0  0  0
 32 31  2  0  0  0  0
 33 27  1  0  0  0  0
 34 28  1  0  0  0  0
 35 29  1  0  0  0  0
 35 43  1  0  0  0  0
 36 38  1  0  0  0  0
 36 35  1  0  0  0  0
 37 36  1  0  0  0  0
 38 40  1  0  0  0  0
 39 38  1  0  0  0  0
 40 42  1  0  0  0  0
 40 41  1  0  0  0  0
 43 42  1  0  0  0  0
M  END
>  <minimizedAffinity>
-5.79937744

$$$$
