
 OpenBabel03242518143D

 31 33  0  0  0  0  0  0  0  0999 V2000
   38.5240   29.0680   42.6580 C   0  0  0  0  0  0  0  0  0  0  0  0
   39.3150   30.2380   42.9080 C   0  0  0  0  0  0  0  0  0  0  0  0
   39.5930   31.0860   41.9100 C   0  0  0  0  0  0  0  0  0  0  0  0
   39.0790   30.7980   40.5770 C   0  0  0  0  0  0  0  0  0  0  0  0
   38.1710   29.2430   40.8130 S   0  0  0  0  0  0  0  0  0  0  0  0
   39.6650   30.3840   43.9140 H   0  0  0  0  0  0  0  0  0  0  0  0
   40.1690   31.9860   41.9830 H   0  0  0  0  0  0  0  0  0  0  0  0
   39.1030   31.3290   39.3710 N   0  0  0  0  0  0  0  0  0  0  0  0
   39.8500   32.4870   38.9240 C   0  0  0  0  0  3  0  0  0  0  0  0
   40.6970   32.7100   39.6020 H   0  0  0  0  0  0  0  0  0  0  0  0
   40.3360   32.1390   37.5200 C   0  0  0  0  0  3  0  0  0  0  0  0
   40.6760   31.0780   37.5530 H   0  0  0  0  0  0  0  0  0  0  0  0
   39.1790   32.1920   36.6620 N   0  0  0  0  0  0  0  0  0  0  0  0
   39.0520   33.2020   36.3800 H   0  0  0  0  0  0  0  0  0  0  0  0
   37.9940   31.6470   37.2570 C   0  0  0  0  0  2  0  0  0  0  0  0
   38.2760   30.6580   38.3640 C   0  0  0  0  0  2  0  0  0  0  0  0
   38.0210   27.9640   43.4070 C   0  0  0  0  0  0  0  0  0  0  0  0
   37.5510   28.3750   44.3540 H   0  0  0  0  0  0  0  0  0  0  0  0
   38.8960   27.3730   43.7830 H   0  0  0  0  0  0  0  0  0  0  0  0
   36.9720   27.1330   42.7550 C   0  0  0  0  0  0  0  0  0  0  0  0
   36.5010   27.7050   41.9550 H   0  0  0  0  0  0  0  0  0  0  0  0
   36.1760   26.8880   43.4880 H   0  0  0  0  0  0  0  0  0  0  0  0
   37.5630   25.8830   42.2710 C   0  0  0  0  0  0  0  0  0  0  0  0
   36.9060   25.0590   41.3660 C   0  0  0  0  0  0  0  0  0  0  0  0
   37.5430   23.8970   40.9590 C   0  0  0  0  0  0  0  0  0  0  0  0
   38.7780   23.6220   41.4640 N   0  0  0  0  0  0  0  0  0  0  0  0
   39.3800   24.4390   42.3340 C   0  0  0  0  0  0  0  0  0  0  0  0
   38.7760   25.5490   42.7260 N   0  0  0  0  0  0  0  0  0  0  0  0
   35.9390   25.3140   41.0000 H   0  0  0  0  0  0  0  0  0  0  0  0
   37.0680   23.2220   40.2560 H   0  0  0  0  0  0  0  0  0  0  0  0
   40.3610   24.1270   42.6720 H   0  0  0  0  0  0  0  0  0  0  0  0
  1  2  2  0  0  0  0
  1 17  1  0  0  0  0
  2  6  1  0  0  0  0
  3  7  1  0  0  0  0
  3  2  1  0  0  0  0
  4  5  1  0  0  0  0
  4  3  2  0  0  0  0
  5  1  1  0  0  0  0
  8  4  1  0  0  0  0
  9  8  1  0  0  0  0
  9 10  1  0  0  0  0
 11 12  1  0  0  0  0
 11  9  1  0  0  0  0
 13 15  1  0  0  0  0
 13 11  1  0  0  0  0
 14 13  1  0  0  0  0
 15 16  1  0  0  0  0
 16  8  1  0  0  0  0
 17 19  1  0  0  0  0
 17 18  1  0  0  0  0
 20 17  1  0  0  0  0
 20 22  1  0  0  0  0
 21 20  1  0  0  0  0
 23 28  1  0  0  0  0
 23 20  1  0  0  0  0
 24 23  2  0  0  0  0
 25 24  1  0  0  0  0
 25 26  2  0  0  0  0
 26 27  1  0  0  0  0
 27 31  1  0  0  0  0
 27 28  2  0  0  0  0
 29 24  1  0  0  0  0
 30 25  1  0  0  0  0
M  END
>  <minimizedAffinity>
-5.12572336

$$$$

 OpenBabel03242518143D

 31 33  0  0  0  0  0  0  0  0999 V2000
   36.6090   28.4080   42.0730 C   0  0  0  0  0  0  0  0  0  0  0  0
   35.7590   28.9410   41.0490 C   0  0  0  0  0  0  0  0  0  0  0  0
   36.0930   30.0770   40.4240 C   0  0  0  0  0  0  0  0  0  0  0  0
   37.3280   30.7530   40.8010 C   0  0  0  0  0  0  0  0  0  0  0  0
   38.0000   29.6820   42.1060 S   0  0  0  0  0  0  0  0  0  0  0  0
   34.8620   28.3940   40.8260 H   0  0  0  0  0  0  0  0  0  0  0  0
   35.5360   30.5620   39.6480 H   0  0  0  0  0  0  0  0  0  0  0  0
   38.0090   31.8300   40.4670 N   0  0  0  0  0  0  0  0  0  0  0  0
   39.3940   32.1340   40.7670 C   0  0  0  0  0  3  0  0  0  0  0  0
   39.9660   31.2190   41.0170 H   0  0  0  0  0  0  0  0  0  0  0  0
   39.9430   32.8090   39.5140 C   0  0  0  0  0  3  0  0  0  0  0  0
   39.5410   32.2410   38.6420 H   0  0  0  0  0  0  0  0  0  0  0  0
   39.3590   34.1270   39.4700 N   0  0  0  0  0  0  0  0  0  0  0  0
   39.9580   34.7480   40.0800 H   0  0  0  0  0  0  0  0  0  0  0  0
   37.9800   34.1600   39.8590 C   0  0  0  0  0  2  0  0  0  0  0  0
   37.2740   32.8330   39.6920 C   0  0  0  0  0  2  0  0  0  0  0  0
   36.6210   27.2760   42.9410 C   0  0  0  0  0  0  0  0  0  0  0  0
   35.9830   26.4690   42.4640 H   0  0  0  0  0  0  0  0  0  0  0  0
   36.0550   27.5470   43.8690 H   0  0  0  0  0  0  0  0  0  0  0  0
   37.9440   26.6490   43.2070 C   0  0  0  0  0  0  0  0  0  0  0  0
   37.9720   26.2790   44.2330 H   0  0  0  0  0  0  0  0  0  0  0  0
   38.7470   27.4100   43.1180 H   0  0  0  0  0  0  0  0  0  0  0  0
   38.1950   25.5890   42.2280 C   0  0  0  0  0  0  0  0  0  0  0  0
   37.2980   24.5480   42.0220 C   0  0  0  0  0  0  0  0  0  0  0  0
   37.6150   23.5910   41.0700 C   0  0  0  0  0  0  0  0  0  0  0  0
   38.7860   23.7190   40.3850 N   0  0  0  0  0  0  0  0  0  0  0  0
   39.6240   24.7360   40.6090 C   0  0  0  0  0  0  0  0  0  0  0  0
   39.3260   25.6510   41.5170 N   0  0  0  0  0  0  0  0  0  0  0  0
   36.3960   24.4880   42.5840 H   0  0  0  0  0  0  0  0  0  0  0  0
   36.9480   22.7590   40.8770 H   0  0  0  0  0  0  0  0  0  0  0  0
   40.5260   24.7440   40.0090 H   0  0  0  0  0  0  0  0  0  0  0  0
  1  5  1  0  0  0  0
  1 17  1  0  0  0  0
  2  1  2  0  0  0  0
  3  4  2  0  0  0  0
  3  2  1  0  0  0  0
  4  5  1  0  0  0  0
  6  2  1  0  0  0  0
  7  3  1  0  0  0  0
  8  9  1  0  0  0  0
  8  4  1  0  0  0  0
  9 10  1  0  0  0  0
 11  9  1  0  0  0  0
 12 11  1  0  0  0  0
 13 11  1  0  0  0  0
 13 15  1  0  0  0  0
 13 14  1  0  0  0  0
 16 15  1  0  0  0  0
 16  8  1  0  0  0  0
 17 20  1  0  0  0  0
 17 19  1  0  0  0  0
 18 17  1  0  0  0  0
 20 21  1  0  0  0  0
 22 20  1  0  0  0  0
 23 20  1  0  0  0  0
 24 23  1  0  0  0  0
 24 29  1  0  0  0  0
 25 24  2  0  0  0  0
 26 27  2  0  0  0  0
 26 25  1  0  0  0  0
 27 28  1  0  0  0  0
 28 23  2  0  0  0  0
 30 25  1  0  0  0  0
 31 27  1  0  0  0  0
M  END
>  <minimizedAffinity>
-5.08690691

$$$$

 OpenBabel03242518143D

 31 33  0  0  0  0  0  0  0  0999 V2000
   36.7250   29.0100   41.5650 C   0  0  0  0  0  0  0  0  0  0  0  0
   35.9500   29.6070   40.5170 C   0  0  0  0  0  0  0  0  0  0  0  0
   36.4290   30.6630   39.8470 C   0  0  0  0  0  0  0  0  0  0  0  0
   37.7420   31.1850   40.2000 C   0  0  0  0  0  0  0  0  0  0  0  0
   38.2710   30.0910   41.5510 S   0  0  0  0  0  0  0  0  0  0  0  0
   34.9880   29.1730   40.3140 H   0  0  0  0  0  0  0  0  0  0  0  0
   35.9400   31.1840   39.0490 H   0  0  0  0  0  0  0  0  0  0  0  0
   38.5590   32.1490   39.8240 N   0  0  0  0  0  0  0  0  0  0  0  0
   38.3510   33.5800   39.9230 C   0  0  0  0  0  3  0  0  0  0  0  0
   37.5730   33.8260   40.6720 H   0  0  0  0  0  0  0  0  0  0  0  0
   39.7060   34.1610   40.3130 C   0  0  0  0  0  3  0  0  0  0  0  0
   40.1380   33.4780   41.0820 H   0  0  0  0  0  0  0  0  0  0  0  0
   40.5430   34.0700   39.1420 N   0  0  0  0  0  0  0  0  0  0  0  0
   40.3360   34.9210   38.5500 H   0  0  0  0  0  0  0  0  0  0  0  0
   40.3770   32.8510   38.4080 C   0  0  0  0  0  2  0  0  0  0  0  0
   39.8320   31.7140   39.2420 C   0  0  0  0  0  2  0  0  0  0  0  0
   36.5890   27.9230   42.4790 C   0  0  0  0  0  0  0  0  0  0  0  0
   36.6340   26.9610   41.8810 H   0  0  0  0  0  0  0  0  0  0  0  0
   35.5420   27.9370   42.8790 H   0  0  0  0  0  0  0  0  0  0  0  0
   37.6320   27.8010   43.5340 C   0  0  0  0  0  0  0  0  0  0  0  0
   37.1540   27.7280   44.5110 H   0  0  0  0  0  0  0  0  0  0  0  0
   38.2600   28.7150   43.5510 H   0  0  0  0  0  0  0  0  0  0  0  0
   38.4900   26.6480   43.2490 C   0  0  0  0  0  0  0  0  0  0  0  0
   39.8100   26.5870   43.6790 C   0  0  0  0  0  0  0  0  0  0  0  0
   40.5460   25.4540   43.3680 C   0  0  0  0  0  0  0  0  0  0  0  0
   39.9420   24.4610   42.6570 N   0  0  0  0  0  0  0  0  0  0  0  0
   38.6690   24.5550   42.2600 C   0  0  0  0  0  0  0  0  0  0  0  0
   37.9620   25.6340   42.5550 N   0  0  0  0  0  0  0  0  0  0  0  0
   40.2400   27.3900   44.2300 H   0  0  0  0  0  0  0  0  0  0  0  0
   41.5800   25.3630   43.6800 H   0  0  0  0  0  0  0  0  0  0  0  0
   38.2860   23.7080   41.7030 H   0  0  0  0  0  0  0  0  0  0  0  0
  1 17  1  0  0  0  0
  2  1  2  0  0  0  0
  3  4  2  0  0  0  0
  3  2  1  0  0  0  0
  4  5  1  0  0  0  0
  5  1  1  0  0  0  0
  6  2  1  0  0  0  0
  7  3  1  0  0  0  0
  8  9  1  0  0  0  0
  8  4  1  0  0  0  0
  9 11  1  0  0  0  0
  9 10  1  0  0  0  0
 11 12  1  0  0  0  0
 13 11  1  0  0  0  0
 14 13  1  0  0  0  0
 15 13  1  0  0  0  0
 15 16  1  0  0  0  0
 16  8  1  0  0  0  0
 17 19  1  0  0  0  0
 17 20  1  0  0  0  0
 18 17  1  0  0  0  0
 20 22  1  0  0  0  0
 20 21  1  0  0  0  0
 23 20  1  0  0  0  0
 23 24  1  0  0  0  0
 24 29  1  0  0  0  0
 25 24  2  0  0  0  0
 25 30  1  0  0  0  0
 26 25  1  0  0  0  0
 27 28  1  0  0  0  0
 27 26  2  0  0  0  0
 28 23  2  0  0  0  0
 31 27  1  0  0  0  0
M  END
>  <minimizedAffinity>
-4.98949957

$$$$

 OpenBabel03242518143D

 31 33  0  0  0  0  0  0  0  0999 V2000
   37.4760   29.6740   41.7220 C   0  0  0  0  0  0  0  0  0  0  0  0
   36.7070   30.7230   41.1190 C   0  0  0  0  0  0  0  0  0  0  0  0
   36.5860   30.7850   39.7870 C   0  0  0  0  0  0  0  0  0  0  0  0
   37.2450   29.7730   38.9710 C   0  0  0  0  0  0  0  0  0  0  0  0
   38.0570   28.7150   40.2050 S   0  0  0  0  0  0  0  0  0  0  0  0
   36.2530   31.4370   41.7800 H   0  0  0  0  0  0  0  0  0  0  0  0
   36.0380   31.5200   39.2320 H   0  0  0  0  0  0  0  0  0  0  0  0
   37.3830   29.4630   37.6980 N   0  0  0  0  0  0  0  0  0  0  0  0
   38.6090   29.1660   36.9830 C   0  0  0  0  0  3  0  0  0  0  0  0
   39.4220   28.8740   37.6760 H   0  0  0  0  0  0  0  0  0  0  0  0
   38.2560   28.0300   36.0280 C   0  0  0  0  0  3  0  0  0  0  0  0
   37.6070   27.3230   36.5960 H   0  0  0  0  0  0  0  0  0  0  0  0
   37.4450   28.6090   34.9850 N   0  0  0  0  0  0  0  0  0  0  0  0
   38.1090   29.0180   34.2720 H   0  0  0  0  0  0  0  0  0  0  0  0
   36.5030   29.5790   35.4590 C   0  0  0  0  0  2  0  0  0  0  0  0
   36.1440   29.4080   36.9180 C   0  0  0  0  0  2  0  0  0  0  0  0
   37.8350   29.2640   43.0400 C   0  0  0  0  0  0  0  0  0  0  0  0
   37.5460   30.0970   43.7520 H   0  0  0  0  0  0  0  0  0  0  0  0
   38.9540   29.2410   43.1020 H   0  0  0  0  0  0  0  0  0  0  0  0
   37.1810   28.0330   43.5610 C   0  0  0  0  0  0  0  0  0  0  0  0
   36.1730   27.9560   43.1520 H   0  0  0  0  0  0  0  0  0  0  0  0
   37.0760   28.1000   44.6640 H   0  0  0  0  0  0  0  0  0  0  0  0
   38.0020   26.8630   43.2400 C   0  0  0  0  0  0  0  0  0  0  0  0
   39.3150   26.7410   43.6780 C   0  0  0  0  0  0  0  0  0  0  0  0
   40.0150   25.5960   43.3310 C   0  0  0  0  0  0  0  0  0  0  0  0
   39.3840   24.6500   42.5810 N   0  0  0  0  0  0  0  0  0  0  0  0
   38.1180   24.8020   42.1780 C   0  0  0  0  0  0  0  0  0  0  0  0
   37.4460   25.8930   42.5060 N   0  0  0  0  0  0  0  0  0  0  0  0
   39.7670   27.5080   44.2610 H   0  0  0  0  0  0  0  0  0  0  0  0
   41.0420   25.4580   43.6480 H   0  0  0  0  0  0  0  0  0  0  0  0
   37.7110   23.9900   41.5870 H   0  0  0  0  0  0  0  0  0  0  0  0
  1 17  1  0  0  0  0
  2  1  2  0  0  0  0
  2  6  1  0  0  0  0
  3  2  1  0  0  0  0
  4  3  2  0  0  0  0
  4  5  1  0  0  0  0
  5  1  1  0  0  0  0
  7  3  1  0  0  0  0
  8  4  1  0  0  0  0
  9 10  1  0  0  0  0
  9  8  1  0  0  0  0
 11 12  1  0  0  0  0
 11  9  1  0  0  0  0
 13 15  1  0  0  0  0
 13 11  1  0  0  0  0
 14 13  1  0  0  0  0
 15 16  1  0  0  0  0
 16  8  1  0  0  0  0
 17 19  1  0  0  0  0
 17 20  1  0  0  0  0
 17 18  1  0  0  0  0
 20 22  1  0  0  0  0
 21 20  1  0  0  0  0
 23 20  1  0  0  0  0
 23 24  1  0  0  0  0
 24 29  1  0  0  0  0
 25 30  1  0  0  0  0
 25 24  2  0  0  0  0
 26 25  1  0  0  0  0
 27 28  1  0  0  0  0
 27 26  2  0  0  0  0
 28 23  2  0  0  0  0
 31 27  1  0  0  0  0
M  END
>  <minimizedAffinity>
-4.95530081

$$$$

 OpenBabel03242518143D

 31 33  0  0  0  0  0  0  0  0999 V2000
   36.3930   29.1320   39.5740 C   0  0  0  0  0  0  0  0  0  0  0  0
   35.8810   29.1460   40.9130 C   0  0  0  0  0  0  0  0  0  0  0  0
   36.2520   28.1990   41.7830 C   0  0  0  0  0  0  0  0  0  0  0  0
   37.1800   27.1640   41.3460 C   0  0  0  0  0  0  0  0  0  0  0  0
   37.5020   27.6070   39.6140 S   0  0  0  0  0  0  0  0  0  0  0  0
   35.1970   29.9360   41.1660 H   0  0  0  0  0  0  0  0  0  0  0  0
   35.9350   28.1130   42.8030 H   0  0  0  0  0  0  0  0  0  0  0  0
   37.7820   26.1010   41.8390 N   0  0  0  0  0  0  0  0  0  0  0  0
   37.2220   24.7820   42.0570 C   0  0  0  0  0  3  0  0  0  0  0  0
   36.3120   24.6220   41.4460 H   0  0  0  0  0  0  0  0  0  0  0  0
   38.3290   23.8030   41.6770 C   0  0  0  0  0  3  0  0  0  0  0  0
   38.8020   24.2000   40.7480 H   0  0  0  0  0  0  0  0  0  0  0  0
   39.3170   23.8750   42.7250 N   0  0  0  0  0  0  0  0  0  0  0  0
   38.9940   23.2280   43.4960 H   0  0  0  0  0  0  0  0  0  0  0  0
   39.5540   25.2050   43.2040 C   0  0  0  0  0  2  0  0  0  0  0  0
   39.1910   26.2790   42.2040 C   0  0  0  0  0  2  0  0  0  0  0  0
   36.2590   29.9200   38.3930 C   0  0  0  0  0  0  0  0  0  0  0  0
   35.5440   30.7690   38.6240 H   0  0  0  0  0  0  0  0  0  0  0  0
   35.7080   29.3110   37.6310 H   0  0  0  0  0  0  0  0  0  0  0  0
   37.4980   30.5580   37.8690 C   0  0  0  0  0  0  0  0  0  0  0  0
   37.3130   30.9390   36.8640 H   0  0  0  0  0  0  0  0  0  0  0  0
   38.3040   29.8010   37.7820 H   0  0  0  0  0  0  0  0  0  0  0  0
   37.9410   31.6080   38.7890 C   0  0  0  0  0  0  0  0  0  0  0  0
   37.1980   32.7630   39.0030 C   0  0  0  0  0  0  0  0  0  0  0  0
   37.6910   33.7010   39.8960 C   0  0  0  0  0  0  0  0  0  0  0  0
   38.8770   33.4460   40.5180 N   0  0  0  0  0  0  0  0  0  0  0  0
   39.5640   32.3220   40.2870 C   0  0  0  0  0  0  0  0  0  0  0  0
   39.0970   31.4240   39.4360 N   0  0  0  0  0  0  0  0  0  0  0  0
   36.2770   32.9200   38.4910 H   0  0  0  0  0  0  0  0  0  0  0  0
   37.1480   34.6170   40.0930 H   0  0  0  0  0  0  0  0  0  0  0  0
   40.4930   32.2180   40.8350 H   0  0  0  0  0  0  0  0  0  0  0  0
  1  5  1  0  0  0  0
  1  2  2  0  0  0  0
  2  6  1  0  0  0  0
  2  3  1  0  0  0  0
  3  7  1  0  0  0  0
  4  3  2  0  0  0  0
  4  8  1  0  0  0  0
  5  4  1  0  0  0  0
  8  9  1  0  0  0  0
  8 16  1  0  0  0  0
 10  9  1  0  0  0  0
 11  9  1  0  0  0  0
 11 13  1  0  0  0  0
 12 11  1  0  0  0  0
 13 15  1  0  0  0  0
 13 14  1  0  0  0  0
 16 15  1  0  0  0  0
 17 18  1  0  0  0  0
 17  1  1  0  0  0  0
 19 17  1  0  0  0  0
 20 17  1  0  0  0  0
 20 23  1  0  0  0  0
 21 20  1  0  0  0  0
 22 20  1  0  0  0  0
 23 24  2  0  0  0  0
 23 28  1  0  0  0  0
 24 25  1  0  0  0  0
 25 30  1  0  0  0  0
 25 26  2  0  0  0  0
 27 26  1  0  0  0  0
 27 31  1  0  0  0  0
 28 27  2  0  0  0  0
 29 24  1  0  0  0  0
M  END
>  <minimizedAffinity>
-4.82126856

$$$$

 OpenBabel03242518143D

 31 33  0  0  0  0  0  0  0  0999 V2000
   37.5110   27.9330   42.5680 C   0  0  0  0  0  0  0  0  0  0  0  0
   38.4560   28.7410   43.2800 C   0  0  0  0  0  0  0  0  0  0  0  0
   38.8190   29.9350   42.7930 C   0  0  0  0  0  0  0  0  0  0  0  0
   38.2380   30.3900   41.5380 C   0  0  0  0  0  0  0  0  0  0  0  0
   37.1360   29.0220   41.0740 S   0  0  0  0  0  0  0  0  0  0  0  0
   38.8490   28.3410   44.1970 H   0  0  0  0  0  0  0  0  0  0  0  0
   39.5120   30.6190   43.2400 H   0  0  0  0  0  0  0  0  0  0  0  0
   38.3000   31.4370   40.7390 N   0  0  0  0  0  0  0  0  0  0  0  0
   37.5120   31.6970   39.5510 C   0  0  0  0  0  3  0  0  0  0  0  0
   36.5810   31.0960   39.5420 H   0  0  0  0  0  0  0  0  0  0  0  0
   37.2110   33.1920   39.5830 C   0  0  0  0  0  3  0  0  0  0  0  0
   36.9590   33.4450   40.6390 H   0  0  0  0  0  0  0  0  0  0  0  0
   38.4450   33.8650   39.2650 N   0  0  0  0  0  0  0  0  0  0  0  0
   38.5180   33.8910   38.2110 H   0  0  0  0  0  0  0  0  0  0  0  0
   39.6000   33.2680   39.8680 C   0  0  0  0  0  2  0  0  0  0  0  0
   39.2830   32.4600   41.1060 C   0  0  0  0  0  2  0  0  0  0  0  0
   36.8840   26.6620   42.7340 C   0  0  0  0  0  0  0  0  0  0  0  0
   35.7690   26.8050   42.5870 H   0  0  0  0  0  0  0  0  0  0  0  0
   36.9730   26.3710   43.8130 H   0  0  0  0  0  0  0  0  0  0  0  0
   37.2890   25.5860   41.7890 C   0  0  0  0  0  0  0  0  0  0  0  0
   36.9130   25.8190   40.7920 H   0  0  0  0  0  0  0  0  0  0  0  0
   36.8240   24.6250   42.0910 H   0  0  0  0  0  0  0  0  0  0  0  0
   38.7450   25.4290   41.8120 C   0  0  0  0  0  0  0  0  0  0  0  0
   39.4220   24.9930   42.9440 C   0  0  0  0  0  0  0  0  0  0  0  0
   40.8010   24.8680   42.8730 C   0  0  0  0  0  0  0  0  0  0  0  0
   41.4220   25.1780   41.7010 N   0  0  0  0  0  0  0  0  0  0  0  0
   40.7370   25.5950   40.6310 C   0  0  0  0  0  0  0  0  0  0  0  0
   39.4210   25.7150   40.6940 N   0  0  0  0  0  0  0  0  0  0  0  0
   38.8930   24.7650   43.8390 H   0  0  0  0  0  0  0  0  0  0  0  0
   41.3710   24.5340   43.7320 H   0  0  0  0  0  0  0  0  0  0  0  0
   41.3280   25.8130   39.7490 H   0  0  0  0  0  0  0  0  0  0  0  0
  1 17  1  0  0  0  0
  1  2  2  0  0  0  0
  2  6  1  0  0  0  0
  3  7  1  0  0  0  0
  3  2  1  0  0  0  0
  4  3  2  0  0  0  0
  5  4  1  0  0  0  0
  5  1  1  0  0  0  0
  8 16  1  0  0  0  0
  8  4  1  0  0  0  0
  9 11  1  0  0  0  0
  9  8  1  0  0  0  0
 10  9  1  0  0  0  0
 11 12  1  0  0  0  0
 13 11  1  0  0  0  0
 13 15  1  0  0  0  0
 14 13  1  0  0  0  0
 15 16  1  0  0  0  0
 17 19  1  0  0  0  0
 18 17  1  0  0  0  0
 20 23  1  0  0  0  0
 20 22  1  0  0  0  0
 20 17  1  0  0  0  0
 21 20  1  0  0  0  0
 23 24  1  0  0  0  0
 24 29  1  0  0  0  0
 25 24  2  0  0  0  0
 25 30  1  0  0  0  0
 26 25  1  0  0  0  0
 27 28  1  0  0  0  0
 27 26  2  0  0  0  0
 28 23  2  0  0  0  0
 31 27  1  0  0  0  0
M  END
>  <minimizedAffinity>
-4.78966141

$$$$

 OpenBabel03242518143D

 31 33  0  0  0  0  0  0  0  0999 V2000
   37.2800   30.7240   39.4970 C   0  0  0  0  0  0  0  0  0  0  0  0
   36.9480   32.0910   39.7720 C   0  0  0  0  0  0  0  0  0  0  0  0
   37.8970   33.0350   39.7200 C   0  0  0  0  0  0  0  0  0  0  0  0
   39.2600   32.6470   39.3810 C   0  0  0  0  0  0  0  0  0  0  0  0
   39.1280   30.8520   39.1370 S   0  0  0  0  0  0  0  0  0  0  0  0
   35.9250   32.3040   40.0200 H   0  0  0  0  0  0  0  0  0  0  0  0
   37.7620   34.0810   39.9050 H   0  0  0  0  0  0  0  0  0  0  0  0
   40.4390   33.2120   39.2200 N   0  0  0  0  0  0  0  0  0  0  0  0
   41.1090   34.1410   40.1090 C   0  0  0  0  0  3  0  0  0  0  0  0
   40.6990   34.0860   41.1370 H   0  0  0  0  0  0  0  0  0  0  0  0
   42.5820   33.7450   40.0750 C   0  0  0  0  0  3  0  0  0  0  0  0
   42.6150   32.6310   40.0990 H   0  0  0  0  0  0  0  0  0  0  0  0
   43.0870   34.1590   38.7890 N   0  0  0  0  0  0  0  0  0  0  0  0
   43.3510   35.1790   38.8770 H   0  0  0  0  0  0  0  0  0  0  0  0
   42.1710   33.9330   37.7100 C   0  0  0  0  0  2  0  0  0  0  0  0
   41.1580   32.8480   37.9960 C   0  0  0  0  0  2  0  0  0  0  0  0
   36.6000   29.4710   39.4440 C   0  0  0  0  0  0  0  0  0  0  0  0
   37.3760   28.6640   39.2650 H   0  0  0  0  0  0  0  0  0  0  0  0
   35.9810   29.4530   38.5100 H   0  0  0  0  0  0  0  0  0  0  0  0
   35.8550   29.0600   40.6650 C   0  0  0  0  0  0  0  0  0  0  0  0
   35.0040   28.4400   40.3800 H   0  0  0  0  0  0  0  0  0  0  0  0
   35.4430   29.9560   41.1740 H   0  0  0  0  0  0  0  0  0  0  0  0
   36.7600   28.3720   41.5880 C   0  0  0  0  0  0  0  0  0  0  0  0
   37.3710   29.0290   42.6490 C   0  0  0  0  0  0  0  0  0  0  0  0
   38.2090   28.2970   43.4760 C   0  0  0  0  0  0  0  0  0  0  0  0
   38.3910   26.9740   43.2090 N   0  0  0  0  0  0  0  0  0  0  0  0
   37.7850   26.3750   42.1780 C   0  0  0  0  0  0  0  0  0  0  0  0
   36.9850   27.0690   41.3870 N   0  0  0  0  0  0  0  0  0  0  0  0
   37.2000   30.0670   42.8170 H   0  0  0  0  0  0  0  0  0  0  0  0
   38.7090   28.7680   44.3140 H   0  0  0  0  0  0  0  0  0  0  0  0
   37.9970   25.3190   42.0570 H   0  0  0  0  0  0  0  0  0  0  0  0
  1  2  2  0  0  0  0
  2  6  1  0  0  0  0
  3  2  1  0  0  0  0
  3  7  1  0  0  0  0
  4  3  2  0  0  0  0
  5  4  1  0  0  0  0
  5  1  1  0  0  0  0
  8  4  1  0  0  0  0
  8  9  1  0  0  0  0
  9 10  1  0  0  0  0
 11 12  1  0  0  0  0
 11  9  1  0  0  0  0
 13 14  1  0  0  0  0
 13 11  1  0  0  0  0
 15 16  1  0  0  0  0
 15 13  1  0  0  0  0
 16  8  1  0  0  0  0
 17  1  1  0  0  0  0
 17 20  1  0  0  0  0
 18 17  1  0  0  0  0
 19 17  1  0  0  0  0
 20 22  1  0  0  0  0
 20 23  1  0  0  0  0
 21 20  1  0  0  0  0
 23 24  1  0  0  0  0
 24 29  1  0  0  0  0
 24 25  2  0  0  0  0
 25 30  1  0  0  0  0
 26 25  1  0  0  0  0
 27 26  2  0  0  0  0
 28 23  2  0  0  0  0
 28 27  1  0  0  0  0
 31 27  1  0  0  0  0
M  END
>  <minimizedAffinity>
-4.71688795

$$$$

 OpenBabel03242518143D

 31 33  0  0  0  0  0  0  0  0999 V2000
   36.7140   28.9350   41.4440 C   0  0  0  0  0  0  0  0  0  0  0  0
   35.4330   29.1820   40.8490 C   0  0  0  0  0  0  0  0  0  0  0  0
   35.3110   29.2380   39.5170 C   0  0  0  0  0  0  0  0  0  0  0  0
   36.4960   29.0430   38.6920 C   0  0  0  0  0  0  0  0  0  0  0  0
   37.8110   28.7740   39.9170 S   0  0  0  0  0  0  0  0  0  0  0  0
   34.6040   29.3220   41.5180 H   0  0  0  0  0  0  0  0  0  0  0  0
   34.4080   29.4140   38.9680 H   0  0  0  0  0  0  0  0  0  0  0  0
   36.8200   29.0130   37.4150 N   0  0  0  0  0  0  0  0  0  0  0  0
   38.1200   28.7410   36.8330 C   0  0  0  0  0  3  0  0  0  0  0  0
   38.7790   28.2070   37.5450 H   0  0  0  0  0  0  0  0  0  0  0  0
   37.8410   27.8990   35.5920 C   0  0  0  0  0  3  0  0  0  0  0  0
   37.0510   27.1640   35.8750 H   0  0  0  0  0  0  0  0  0  0  0  0
   37.2660   28.7890   34.6140 N   0  0  0  0  0  0  0  0  0  0  0  0
   38.0710   29.2660   34.1230 H   0  0  0  0  0  0  0  0  0  0  0  0
   36.3390   29.7320   35.1670 C   0  0  0  0  0  2  0  0  0  0  0  0
   35.7290   29.2820   36.4750 C   0  0  0  0  0  2  0  0  0  0  0  0
   37.2500   28.8010   42.7580 C   0  0  0  0  0  0  0  0  0  0  0  0
   36.8570   29.6620   43.3810 H   0  0  0  0  0  0  0  0  0  0  0  0
   38.3520   28.9970   42.7030 H   0  0  0  0  0  0  0  0  0  0  0  0
   36.8980   27.5610   43.5030 C   0  0  0  0  0  0  0  0  0  0  0  0
   35.8180   27.4130   43.4740 H   0  0  0  0  0  0  0  0  0  0  0  0
   37.1790   27.6710   44.5710 H   0  0  0  0  0  0  0  0  0  0  0  0
   37.6310   26.4230   42.9420 C   0  0  0  0  0  0  0  0  0  0  0  0
   36.9860   25.3830   42.2850 C   0  0  0  0  0  0  0  0  0  0  0  0
   37.7600   24.3490   41.7810 C   0  0  0  0  0  0  0  0  0  0  0  0
   39.1100   24.4040   41.9550 N   0  0  0  0  0  0  0  0  0  0  0  0
   39.6960   25.4220   42.5930 C   0  0  0  0  0  0  0  0  0  0  0  0
   38.9620   26.4110   43.0750 N   0  0  0  0  0  0  0  0  0  0  0  0
   35.9270   25.3820   42.1760 H   0  0  0  0  0  0  0  0  0  0  0  0
   37.3010   23.5150   41.2630 H   0  0  0  0  0  0  0  0  0  0  0  0
   40.7760   25.3690   42.6740 H   0  0  0  0  0  0  0  0  0  0  0  0
  1 17  1  0  0  0  0
  2  1  2  0  0  0  0
  2  6  1  0  0  0  0
  3  2  1  0  0  0  0
  4  3  2  0  0  0  0
  4  5  1  0  0  0  0
  5  1  1  0  0  0  0
  7  3  1  0  0  0  0
  8  4  1  0  0  0  0
  9  8  1  0  0  0  0
  9 10  1  0  0  0  0
 11 12  1  0  0  0  0
 11  9  1  0  0  0  0
 13 15  1  0  0  0  0
 13 11  1  0  0  0  0
 14 13  1  0  0  0  0
 15 16  1  0  0  0  0
 16  8  1  0  0  0  0
 17 18  1  0  0  0  0
 17 20  1  0  0  0  0
 19 17  1  0  0  0  0
 20 22  1  0  0  0  0
 21 20  1  0  0  0  0
 23 28  1  0  0  0  0
 23 20  1  0  0  0  0
 24 23  2  0  0  0  0
 25 26  2  0  0  0  0
 25 24  1  0  0  0  0
 26 27  1  0  0  0  0
 27 31  1  0  0  0  0
 27 28  2  0  0  0  0
 29 24  1  0  0  0  0
 30 25  1  0  0  0  0
M  END
>  <minimizedAffinity>
-4.70333385

$$$$

 OpenBabel03242518143D

 31 33  0  0  0  0  0  0  0  0999 V2000
   37.3740   27.0570   42.4720 C   0  0  0  0  0  0  0  0  0  0  0  0
   37.8710   28.0440   43.3860 C   0  0  0  0  0  0  0  0  0  0  0  0
   38.1740   29.2720   42.9470 C   0  0  0  0  0  0  0  0  0  0  0  0
   37.9880   29.5820   41.5360 C   0  0  0  0  0  0  0  0  0  0  0  0
   37.3550   28.0230   40.8520 S   0  0  0  0  0  0  0  0  0  0  0  0
   37.9880   27.7440   44.4110 H   0  0  0  0  0  0  0  0  0  0  0  0
   38.5490   30.0830   43.5380 H   0  0  0  0  0  0  0  0  0  0  0  0
   38.1440   30.6030   40.7170 N   0  0  0  0  0  0  0  0  0  0  0  0
   39.3730   31.0780   40.1120 C   0  0  0  0  0  3  0  0  0  0  0  0
   40.1540   30.2940   40.1130 H   0  0  0  0  0  0  0  0  0  0  0  0
   38.9940   31.4860   38.6920 C   0  0  0  0  0  3  0  0  0  0  0  0
   38.3010   30.7010   38.3070 H   0  0  0  0  0  0  0  0  0  0  0  0
   38.2360   32.7070   38.8050 N   0  0  0  0  0  0  0  0  0  0  0  0
   38.9350   33.4980   38.8580 H   0  0  0  0  0  0  0  0  0  0  0  0
   37.3250   32.7200   39.9110 C   0  0  0  0  0  2  0  0  0  0  0  0
   36.9230   31.3390   40.3770 C   0  0  0  0  0  2  0  0  0  0  0  0
   36.9490   25.6970   42.5290 C   0  0  0  0  0  0  0  0  0  0  0  0
   36.1010   25.5690   41.7870 H   0  0  0  0  0  0  0  0  0  0  0  0
   36.4580   25.5290   43.5220 H   0  0  0  0  0  0  0  0  0  0  0  0
   37.9610   24.6630   42.1780 C   0  0  0  0  0  0  0  0  0  0  0  0
   38.2310   24.1010   43.0720 H   0  0  0  0  0  0  0  0  0  0  0  0
   38.8870   25.1520   41.8130 H   0  0  0  0  0  0  0  0  0  0  0  0
   37.4380   23.8000   41.1160 C   0  0  0  0  0  0  0  0  0  0  0  0
   38.1840   22.7600   40.5760 C   0  0  0  0  0  0  0  0  0  0  0  0
   37.6060   21.9910   39.5780 C   0  0  0  0  0  0  0  0  0  0  0  0
   36.3390   22.2920   39.1770 N   0  0  0  0  0  0  0  0  0  0  0  0
   35.6500   23.3000   39.7210 C   0  0  0  0  0  0  0  0  0  0  0  0
   36.1980   24.0370   40.6740 N   0  0  0  0  0  0  0  0  0  0  0  0
   39.1730   22.5650   40.9190 H   0  0  0  0  0  0  0  0  0  0  0  0
   38.1510   21.1710   39.1250 H   0  0  0  0  0  0  0  0  0  0  0  0
   34.6510   23.4520   39.3310 H   0  0  0  0  0  0  0  0  0  0  0  0
  1 17  1  0  0  0  0
  1  2  2  0  0  0  0
  2  6  1  0  0  0  0
  3  2  1  0  0  0  0
  3  7  1  0  0  0  0
  4  3  2  0  0  0  0
  5  4  1  0  0  0  0
  5  1  1  0  0  0  0
  8  4  1  0  0  0  0
  9 10  1  0  0  0  0
  9  8  1  0  0  0  0
 11 13  1  0  0  0  0
 11  9  1  0  0  0  0
 12 11  1  0  0  0  0
 13 14  1  0  0  0  0
 13 15  1  0  0  0  0
 15 16  1  0  0  0  0
 16  8  1  0  0  0  0
 17 19  1  0  0  0  0
 18 17  1  0  0  0  0
 20 17  1  0  0  0  0
 20 21  1  0  0  0  0
 22 20  1  0  0  0  0
 23 20  1  0  0  0  0
 24 29  1  0  0  0  0
 24 23  2  0  0  0  0
 25 24  1  0  0  0  0
 26 25  2  0  0  0  0
 26 27  1  0  0  0  0
 27 28  2  0  0  0  0
 28 23  1  0  0  0  0
 30 25  1  0  0  0  0
 31 27  1  0  0  0  0
M  END
>  <minimizedAffinity>
-4.68413639

$$$$
