
 OpenBabel03252502453D

 31 33  0  0  1  0  0  0  0  0999 V2000
   36.7340   28.9560   40.9820 C   0  0  1  0  0  0  0  0  0  0  0  0
   35.5850   29.7340   40.4270 C   0  0  0  0  0  0  0  0  0  0  0  0
   36.6490   30.4030   41.2230 C   0  0  2  0  0  0  0  0  0  0  0  0
   37.4860   28.5070   40.2730 H   0  0  0  0  0  0  0  0  0  0  0  0
   35.5840   29.7900   39.3190 H   0  0  0  0  0  0  0  0  0  0  0  0
   34.5460   29.6070   40.7790 H   0  0  0  0  0  0  0  0  0  0  0  0
   36.5990   30.9790   42.1110 H   0  0  0  0  0  0  0  0  0  0  0  0
   37.5850   31.1430   40.3780 N   0  0  2  0  0  0  0  0  0  0  0  0
   38.7110   31.6660   41.0410 C   0  0  0  0  0  3  0  0  0  0  0  0
   39.3950   30.8160   41.3320 H   0  0  0  0  0  0  0  0  0  0  0  0
   39.4920   32.4310   39.9850 C   0  0  0  0  0  3  0  0  0  0  0  0
   39.8630   31.7370   39.2020 H   0  0  0  0  0  0  0  0  0  0  0  0
   38.7560   33.5400   39.4700 N   0  0  0  0  0  0  0  0  0  0  0  0
   39.0360   34.4550   39.8910 H   0  0  0  0  0  0  0  0  0  0  0  0
   37.3240   33.3710   39.5280 C   0  0  0  0  0  2  0  0  0  0  0  0
   36.9740   31.8970   39.3500 C   0  0  0  0  0  2  0  0  0  0  0  0
   36.4600   28.0480   42.1360 C   0  0  0  0  0  0  0  0  0  0  0  0
   35.5520   28.4860   42.6410 H   0  0  0  0  0  0  0  0  0  0  0  0
   36.2840   27.0060   41.8040 H   0  0  0  0  0  0  0  0  0  0  0  0
   37.6700   28.1410   43.0380 C   0  0  0  0  0  0  0  0  0  0  0  0
   38.2940   29.0080   42.8820 H   0  0  0  0  0  0  0  0  0  0  0  0
   37.2690   28.0260   44.0940 H   0  0  0  0  0  0  0  0  0  0  0  0
   40.2630   25.4920   43.6260 C   0  0  0  0  0  0  0  0  0  0  0  0
   39.5880   26.7430   43.6790 C   0  0  0  0  0  0  0  0  0  0  0  0
   38.3800   26.8310   43.0410 C   0  0  0  0  0  0  0  0  0  0  0  0
   37.8820   25.7400   42.3960 N   0  0  0  0  0  0  0  0  0  0  0  0
   38.5240   24.5840   42.3560 C   0  0  0  0  0  0  0  0  0  0  0  0
   39.7080   24.4480   42.9630 N   0  0  0  0  0  0  0  0  0  0  0  0
   41.2150   25.2970   44.0840 H   0  0  0  0  0  0  0  0  0  0  0  0
   40.1580   27.4480   44.2520 H   0  0  0  0  0  0  0  0  0  0  0  0
   38.0710   23.7590   41.8250 H   0  0  0  0  0  0  0  0  0  0  0  0
  1  4  1  6  0  0  0
  1  3  1  0  0  0  0
  1 17  1  0  0  0  0
  2  6  1  0  0  0  0
  2  1  1  0  0  0  0
  2  3  1  0  0  0  0
  3  7  1  1  0  0  0
  5  2  1  0  0  0  0
  8 16  1  1  0  0  0
  8  9  1  0  0  0  0
  8  3  1  0  0  0  0
  9 10  1  0  0  0  0
 11  9  1  0  0  0  0
 12 11  1  0  0  0  0
 13 15  1  0  0  0  0
 13 14  1  0  0  0  0
 13 11  1  0  0  0  0
 16 15  1  0  0  0  0
 17 18  1  0  0  0  0
 17 20  1  0  0  0  0
 19 17  1  0  0  0  0
 20 25  1  0  0  0  0
 20 22  1  0  0  0  0
 21 20  1  0  0  0  0
 23 24  1  0  0  0  0
 23 29  1  0  0  0  0
 24 30  1  0  0  0  0
 25 24  2  0  0  0  0
 26 25  1  0  0  0  0
 27 26  2  0  0  0  0
 27 28  1  0  0  0  0
 28 23  2  0  0  0  0
 31 27  1  0  0  0  0
M  END
>  <minimizedAffinity>
-4.87041235

$$$$

 OpenBabel03252502453D

 31 33  0  0  1  0  0  0  0  0999 V2000
   37.9930   27.8080   43.1570 C   0  0  1  0  0  0  0  0  0  0  0  0
   36.6150   27.2530   43.3260 C   0  0  0  0  0  0  0  0  0  0  0  0
   37.2600   27.3080   41.9870 C   0  0  2  0  0  0  0  0  0  0  0  0
   38.8670   27.2530   43.6020 H   0  0  0  0  0  0  0  0  0  0  0  0
   36.5890   26.3080   43.9060 H   0  0  0  0  0  0  0  0  0  0  0  0
   35.7490   27.8730   43.6150 H   0  0  0  0  0  0  0  0  0  0  0  0
   36.9540   27.7690   41.0830 H   0  0  0  0  0  0  0  0  0  0  0  0
   37.7570   26.0010   41.5610 N   0  0  2  0  0  0  0  0  0  0  0  0
   36.8850   24.9200   41.7950 C   0  0  0  0  0  3  0  0  0  0  0  0
   36.0080   24.9960   41.0880 H   0  0  0  0  0  0  0  0  0  0  0  0
   37.6340   23.6810   41.3310 C   0  0  0  0  0  3  0  0  0  0  0  0
   37.8160   23.7270   40.2370 H   0  0  0  0  0  0  0  0  0  0  0  0
   38.8110   23.4430   42.1020 N   0  0  0  0  0  0  0  0  0  0  0  0
   38.6850   22.7100   42.8370 H   0  0  0  0  0  0  0  0  0  0  0  0
   39.3900   24.6370   42.6690 C   0  0  0  0  0  2  0  0  0  0  0  0
   39.1480   25.8180   41.7360 C   0  0  0  0  0  2  0  0  0  0  0  0
   38.1630   29.2870   43.2850 C   0  0  0  0  0  0  0  0  0  0  0  0
   37.1500   29.7170   43.0400 H   0  0  0  0  0  0  0  0  0  0  0  0
   38.4980   29.5740   44.3000 H   0  0  0  0  0  0  0  0  0  0  0  0
   39.1790   29.6830   42.2380 C   0  0  0  0  0  0  0  0  0  0  0  0
   40.2020   29.7190   42.5810 H   0  0  0  0  0  0  0  0  0  0  0  0
   38.9950   28.9880   41.3590 H   0  0  0  0  0  0  0  0  0  0  0  0
   37.0710   32.0160   40.1890 C   0  0  0  0  0  0  0  0  0  0  0  0
   37.4830   30.8550   40.8990 C   0  0  0  0  0  0  0  0  0  0  0  0
   38.6990   30.9010   41.5250 C   0  0  0  0  0  0  0  0  0  0  0  0
   39.4510   32.0340   41.4470 N   0  0  0  0  0  0  0  0  0  0  0  0
   39.0530   33.1060   40.7820 C   0  0  0  0  0  0  0  0  0  0  0  0
   37.8730   33.1090   40.1520 N   0  0  0  0  0  0  0  0  0  0  0  0
   36.1430   32.1040   39.6570 H   0  0  0  0  0  0  0  0  0  0  0  0
   36.7280   30.0950   40.8360 H   0  0  0  0  0  0  0  0  0  0  0  0
   39.6990   33.9710   40.7610 H   0  0  0  0  0  0  0  0  0  0  0  0
  1 17  1  0  0  0  0
  1  2  1  0  0  0  0
  1  4  1  1  0  0  0
  2  6  1  0  0  0  0
  2  5  1  0  0  0  0
  3  7  1  6  0  0  0
  3  1  1  0  0  0  0
  3  2  1  0  0  0  0
  8 16  1  1  0  0  0
  8  9  1  0  0  0  0
  8  3  1  0  0  0  0
 10  9  1  0  0  0  0
 11  9  1  0  0  0  0
 11 13  1  0  0  0  0
 12 11  1  0  0  0  0
 13 15  1  0  0  0  0
 13 14  1  0  0  0  0
 16 15  1  0  0  0  0
 17 19  1  0  0  0  0
 18 17  1  0  0  0  0
 20 21  1  0  0  0  0
 20 17  1  0  0  0  0
 22 20  1  0  0  0  0
 23 24  1  0  0  0  0
 24 25  2  0  0  0  0
 25 20  1  0  0  0  0
 26 25  1  0  0  0  0
 27 26  2  0  0  0  0
 28 23  2  0  0  0  0
 28 27  1  0  0  0  0
 29 23  1  0  0  0  0
 30 24  1  0  0  0  0
 31 27  1  0  0  0  0
M  END
>  <minimizedAffinity>
-4.7242403

$$$$

 OpenBabel03252502453D

 31 33  0  0  1  0  0  0  0  0999 V2000
   38.8430   29.5220   42.6790 C   0  0  1  0  0  0  0  0  0  0  0  0
   40.2210   30.0930   42.5680 C   0  0  0  0  0  0  0  0  0  0  0  0
   39.4620   29.6810   41.3560 C   0  0  2  0  0  0  0  0  0  0  0  0
   38.0020   30.1830   43.0330 H   0  0  0  0  0  0  0  0  0  0  0  0
   40.2810   31.1600   42.8650 H   0  0  0  0  0  0  0  0  0  0  0  0
   41.1200   29.5690   42.9350 H   0  0  0  0  0  0  0  0  0  0  0  0
   39.6960   28.9900   40.5880 H   0  0  0  0  0  0  0  0  0  0  0  0
   38.9070   30.8270   40.6390 N   0  0  2  0  0  0  0  0  0  0  0  0
   39.0750   32.0730   41.2720 C   0  0  0  0  0  3  0  0  0  0  0  0
   40.1640   32.3660   41.2230 H   0  0  0  0  0  0  0  0  0  0  0  0
   38.3750   33.0860   40.3790 C   0  0  0  0  0  3  0  0  0  0  0  0
   38.8810   33.1450   39.3930 H   0  0  0  0  0  0  0  0  0  0  0  0
   36.9700   32.8460   40.2930 N   0  0  0  0  0  0  0  0  0  0  0  0
   36.4040   33.4690   40.9130 H   0  0  0  0  0  0  0  0  0  0  0  0
   36.5990   31.4650   40.4850 C   0  0  0  0  0  2  0  0  0  0  0  0
   37.7020   30.5580   39.9490 C   0  0  0  0  0  2  0  0  0  0  0  0
   38.7120   28.1350   43.2160 C   0  0  0  0  0  0  0  0  0  0  0  0
   39.3040   27.4900   42.5050 H   0  0  0  0  0  0  0  0  0  0  0  0
   39.0930   28.0600   44.2540 H   0  0  0  0  0  0  0  0  0  0  0  0
   37.2410   27.7960   43.1450 C   0  0  0  0  0  0  0  0  0  0  0  0
   36.7800   27.5510   44.0910 H   0  0  0  0  0  0  0  0  0  0  0  0
   36.7580   28.6590   42.5880 H   0  0  0  0  0  0  0  0  0  0  0  0
   36.9410   24.5630   41.2620 C   0  0  0  0  0  0  0  0  0  0  0  0
   37.1140   25.4770   42.3380 C   0  0  0  0  0  0  0  0  0  0  0  0
   37.0170   26.8110   42.0490 C   0  0  0  0  0  0  0  0  0  0  0  0
   36.7630   27.2030   40.7690 N   0  0  0  0  0  0  0  0  0  0  0  0
   36.6060   26.3390   39.7800 C   0  0  0  0  0  0  0  0  0  0  0  0
   36.6920   25.0250   40.0120 N   0  0  0  0  0  0  0  0  0  0  0  0
   36.9940   23.4950   41.3600 H   0  0  0  0  0  0  0  0  0  0  0  0
   37.2880   24.9440   43.2520 H   0  0  0  0  0  0  0  0  0  0  0  0
   36.4060   26.7190   38.7890 H   0  0  0  0  0  0  0  0  0  0  0  0
  1  4  1  1  0  0  0
  1 17  1  0  0  0  0
  2  1  1  0  0  0  0
  2  5  1  0  0  0  0
  2  6  1  0  0  0  0
  3  7  1  6  0  0  0
  3  2  1  0  0  0  0
  3  1  1  0  0  0  0
  8 16  1  1  0  0  0
  8  9  1  0  0  0  0
  8  3  1  0  0  0  0
 10  9  1  0  0  0  0
 11  9  1  0  0  0  0
 12 11  1  0  0  0  0
 13 11  1  0  0  0  0
 13 15  1  0  0  0  0
 13 14  1  0  0  0  0
 16 15  1  0  0  0  0
 17 19  1  0  0  0  0
 18 17  1  0  0  0  0
 20 17  1  0  0  0  0
 20 21  1  0  0  0  0
 22 20  1  0  0  0  0
 23 29  1  0  0  0  0
 23 24  1  0  0  0  0
 24 30  1  0  0  0  0
 25 24  2  0  0  0  0
 25 20  1  0  0  0  0
 26 25  1  0  0  0  0
 27 28  1  0  0  0  0
 27 26  2  0  0  0  0
 28 23  2  0  0  0  0
 31 27  1  0  0  0  0
M  END
>  <minimizedAffinity>
-4.71820307

$$$$

 OpenBabel03252502453D

 31 33  0  0  1  0  0  0  0  0999 V2000
   37.7060   29.7660   42.3730 C   0  0  1  0  0  0  0  0  0  0  0  0
   39.0190   30.4170   42.0760 C   0  0  0  0  0  0  0  0  0  0  0  0
   38.3360   29.5700   41.0610 C   0  0  2  0  0  0  0  0  0  0  0  0
   36.7930   30.4110   42.5120 H   0  0  0  0  0  0  0  0  0  0  0  0
   38.9610   31.5240   42.0240 H   0  0  0  0  0  0  0  0  0  0  0  0
   39.9590   30.1320   42.5790 H   0  0  0  0  0  0  0  0  0  0  0  0
   38.6590   28.7030   40.5450 H   0  0  0  0  0  0  0  0  0  0  0  0
   37.6810   30.3690   40.0270 N   0  0  2  0  0  0  0  0  0  0  0  0
   38.4250   30.5520   38.8460 C   0  0  0  0  0  3  0  0  0  0  0  0
   38.4710   29.5730   38.2860 H   0  0  0  0  0  0  0  0  0  0  0  0
   37.5760   31.4500   37.9600 C   0  0  0  0  0  3  0  0  0  0  0  0
   36.6330   30.9350   37.6810 H   0  0  0  0  0  0  0  0  0  0  0  0
   37.3790   32.7410   38.5350 N   0  0  0  0  0  0  0  0  0  0  0  0
   38.0100   33.4740   38.1380 H   0  0  0  0  0  0  0  0  0  0  0  0
   37.4310   32.7550   39.9770 C   0  0  0  0  0  2  0  0  0  0  0  0
   36.8950   31.4350   40.5220 C   0  0  0  0  0  2  0  0  0  0  0  0
   37.7080   28.6100   43.3190 C   0  0  0  0  0  0  0  0  0  0  0  0
   38.7810   28.2690   43.3600 H   0  0  0  0  0  0  0  0  0  0  0  0
   37.3290   28.8980   44.3190 H   0  0  0  0  0  0  0  0  0  0  0  0
   36.8360   27.5500   42.6850 C   0  0  0  0  0  0  0  0  0  0  0  0
   35.8710   27.4110   43.1490 H   0  0  0  0  0  0  0  0  0  0  0  0
   36.8010   27.8080   41.5800 H   0  0  0  0  0  0  0  0  0  0  0  0
   37.8040   24.0320   41.8060 C   0  0  0  0  0  0  0  0  0  0  0  0
   37.0260   25.2150   41.9390 C   0  0  0  0  0  0  0  0  0  0  0  0
   37.6380   26.3090   42.4880 C   0  0  0  0  0  0  0  0  0  0  0  0
   38.9400   26.2240   42.8770 N   0  0  0  0  0  0  0  0  0  0  0  0
   39.6490   25.1150   42.7460 C   0  0  0  0  0  0  0  0  0  0  0  0
   39.0960   24.0190   42.2160 N   0  0  0  0  0  0  0  0  0  0  0  0
   37.4390   23.1100   41.3930 H   0  0  0  0  0  0  0  0  0  0  0  0
   36.0380   25.0540   41.5550 H   0  0  0  0  0  0  0  0  0  0  0  0
   40.6780   25.1180   43.0750 H   0  0  0  0  0  0  0  0  0  0  0  0
  1  4  1  1  0  0  0
  1 17  1  0  0  0  0
  2  1  1  0  0  0  0
  2  6  1  0  0  0  0
  3  7  1  6  0  0  0
  3  2  1  0  0  0  0
  3  1  1  0  0  0  0
  5  2  1  0  0  0  0
  8 16  1  1  0  0  0
  8  3  1  0  0  0  0
  9  8  1  0  0  0  0
 10  9  1  0  0  0  0
 11 13  1  0  0  0  0
 11  9  1  0  0  0  0
 12 11  1  0  0  0  0
 13 15  1  0  0  0  0
 14 13  1  0  0  0  0
 15 16  1  0  0  0  0
 17 18  1  0  0  0  0
 17 19  1  0  0  0  0
 20 21  1  0  0  0  0
 20 17  1  0  0  0  0
 22 20  1  0  0  0  0
 23 24  2  0  0  0  0
 23 28  1  0  0  0  0
 24 25  1  0  0  0  0
 25 20  1  0  0  0  0
 25 26  2  0  0  0  0
 27 26  1  0  0  0  0
 27 31  1  0  0  0  0
 28 27  2  0  0  0  0
 29 23  1  0  0  0  0
 30 24  1  0  0  0  0
M  END
>  <minimizedAffinity>
-4.66287804

$$$$

 OpenBabel03252502453D

 31 33  0  0  1  0  0  0  0  0999 V2000
   37.6240   28.5040   42.2770 C   0  0  1  0  0  0  0  0  0  0  0  0
   37.5200   27.9030   43.6420 C   0  0  0  0  0  0  0  0  0  0  0  0
   36.8770   27.2530   42.4680 C   0  0  2  0  0  0  0  0  0  0  0  0
   38.6280   28.5330   41.7650 H   0  0  0  0  0  0  0  0  0  0  0  0
   38.4890   27.5340   44.0360 H   0  0  0  0  0  0  0  0  0  0  0  0
   36.9560   28.3750   44.4650 H   0  0  0  0  0  0  0  0  0  0  0  0
   35.8690   26.9870   42.2830 H   0  0  0  0  0  0  0  0  0  0  0  0
   37.6370   26.0980   41.9950 N   0  0  2  0  0  0  0  0  0  0  0  0
   37.0010   24.8520   42.1550 C   0  0  0  0  0  3  0  0  0  0  0  0
   36.1380   24.7840   41.4310 H   0  0  0  0  0  0  0  0  0  0  0  0
   37.9940   23.8160   41.6530 C   0  0  0  0  0  3  0  0  0  0  0  0
   38.1790   23.9540   40.5670 H   0  0  0  0  0  0  0  0  0  0  0  0
   39.1830   23.7840   42.4420 N   0  0  0  0  0  0  0  0  0  0  0  0
   39.1980   23.0040   43.1380 H   0  0  0  0  0  0  0  0  0  0  0  0
   39.4970   25.0400   43.0790 C   0  0  0  0  0  2  0  0  0  0  0  0
   39.0330   26.1930   42.1960 C   0  0  0  0  0  2  0  0  0  0  0  0
   36.8350   29.7430   42.0060 C   0  0  0  0  0  0  0  0  0  0  0  0
   36.1560   29.8560   42.8980 H   0  0  0  0  0  0  0  0  0  0  0  0
   37.4920   30.6250   41.8740 H   0  0  0  0  0  0  0  0  0  0  0  0
   36.0330   29.4640   40.7550 C   0  0  0  0  0  0  0  0  0  0  0  0
   35.9170   28.4190   40.5070 H   0  0  0  0  0  0  0  0  0  0  0  0
   35.0600   30.0340   40.8870 H   0  0  0  0  0  0  0  0  0  0  0  0
   37.2370   30.6210   37.3940 C   0  0  0  0  0  0  0  0  0  0  0  0
   36.7200   29.7770   38.4150 C   0  0  0  0  0  0  0  0  0  0  0  0
   36.5290   30.3340   39.6510 C   0  0  0  0  0  0  0  0  0  0  0  0
   36.8330   31.6460   39.8490 N   0  0  0  0  0  0  0  0  0  0  0  0
   37.3140   32.4170   38.8870 C   0  0  0  0  0  0  0  0  0  0  0  0
   37.5190   31.9190   37.6640 N   0  0  0  0  0  0  0  0  0  0  0  0
   37.4320   30.3030   36.3860 H   0  0  0  0  0  0  0  0  0  0  0  0
   36.5420   28.7930   38.0280 H   0  0  0  0  0  0  0  0  0  0  0  0
   37.5330   33.4500   39.1140 H   0  0  0  0  0  0  0  0  0  0  0  0
  1  4  1  6  0  0  0
  1  3  1  0  0  0  0
  1  2  1  0  0  0  0
  2  5  1  0  0  0  0
  2  6  1  0  0  0  0
  3  7  1  6  0  0  0
  3  2  1  0  0  0  0
  8  9  1  0  0  0  0
  8 16  1  1  0  0  0
  8  3  1  0  0  0  0
 10  9  1  0  0  0  0
 11  9  1  0  0  0  0
 11 13  1  0  0  0  0
 12 11  1  0  0  0  0
 13 15  1  0  0  0  0
 13 14  1  0  0  0  0
 16 15  1  0  0  0  0
 17  1  1  0  0  0  0
 17 18  1  0  0  0  0
 19 17  1  0  0  0  0
 20 22  1  0  0  0  0
 20 17  1  0  0  0  0
 21 20  1  0  0  0  0
 23 28  2  0  0  0  0
 23 24  1  0  0  0  0
 24 25  2  0  0  0  0
 25 26  1  0  0  0  0
 25 20  1  0  0  0  0
 27 31  1  0  0  0  0
 27 26  2  0  0  0  0
 28 27  1  0  0  0  0
 29 23  1  0  0  0  0
 30 24  1  0  0  0  0
M  END
>  <minimizedAffinity>
-4.54084873

$$$$

 OpenBabel03252502453D

 31 33  0  0  1  0  0  0  0  0999 V2000
   38.0230   27.1020   42.3330 C   0  0  1  0  0  0  0  0  0  0  0  0
   39.2520   27.9490   42.4150 C   0  0  0  0  0  0  0  0  0  0  0  0
   38.5450   27.7480   41.1210 C   0  0  2  0  0  0  0  0  0  0  0  0
   37.0810   27.4510   42.8430 H   0  0  0  0  0  0  0  0  0  0  0  0
   39.1090   28.8790   43.0030 H   0  0  0  0  0  0  0  0  0  0  0  0
   40.2520   27.5380   42.6360 H   0  0  0  0  0  0  0  0  0  0  0  0
   38.8820   27.3630   40.1940 H   0  0  0  0  0  0  0  0  0  0  0  0
   37.7430   28.9110   40.7470 N   0  0  2  0  0  0  0  0  0  0  0  0
   37.6530   29.9210   41.7230 C   0  0  0  0  0  3  0  0  0  0  0  0
   38.6520   30.4370   41.8110 H   0  0  0  0  0  0  0  0  0  0  0  0
   36.7340   30.9810   41.1360 C   0  0  0  0  0  3  0  0  0  0  0  0
   37.1960   31.4340   40.2340 H   0  0  0  0  0  0  0  0  0  0  0  0
   35.4130   30.4870   40.9200 N   0  0  0  0  0  0  0  0  0  0  0  0
   34.7380   30.7650   41.6690 H   0  0  0  0  0  0  0  0  0  0  0  0
   35.3500   29.0660   40.6830 C   0  0  0  0  0  2  0  0  0  0  0  0
   36.6100   28.6110   39.9550 C   0  0  0  0  0  2  0  0  0  0  0  0
   38.1950   25.6230   42.4540 C   0  0  0  0  0  0  0  0  0  0  0  0
   38.9190   25.3460   41.6350 H   0  0  0  0  0  0  0  0  0  0  0  0
   38.5740   25.3350   43.4540 H   0  0  0  0  0  0  0  0  0  0  0  0
   36.8340   25.0210   42.1880 C   0  0  0  0  0  0  0  0  0  0  0  0
   36.2860   24.7160   43.0670 H   0  0  0  0  0  0  0  0  0  0  0  0
   36.2950   25.7700   41.5260 H   0  0  0  0  0  0  0  0  0  0  0  0
   38.2540   22.4030   39.9040 C   0  0  0  0  0  0  0  0  0  0  0  0
   38.1540   23.3490   40.9610 C   0  0  0  0  0  0  0  0  0  0  0  0
   36.9550   23.9890   41.1180 C   0  0  0  0  0  0  0  0  0  0  0  0
   35.9250   23.7010   40.2740 N   0  0  0  0  0  0  0  0  0  0  0  0
   36.0360   22.8190   39.2950 C   0  0  0  0  0  0  0  0  0  0  0  0
   37.1870   22.1680   39.1000 N   0  0  0  0  0  0  0  0  0  0  0  0
   39.1390   21.8370   39.6770 H   0  0  0  0  0  0  0  0  0  0  0  0
   39.0800   23.3990   41.5010 H   0  0  0  0  0  0  0  0  0  0  0  0
   35.1780   22.6390   38.6630 H   0  0  0  0  0  0  0  0  0  0  0  0
  1  2  1  0  0  0  0
  1 17  1  0  0  0  0
  1  4  1  1  0  0  0
  2  6  1  0  0  0  0
  2  5  1  0  0  0  0
  3  7  1  6  0  0  0
  3  1  1  0  0  0  0
  3  2  1  0  0  0  0
  8 16  1  1  0  0  0
  8  3  1  0  0  0  0
  8  9  1  0  0  0  0
  9 10  1  0  0  0  0
 11  9  1  0  0  0  0
 12 11  1  0  0  0  0
 13 11  1  0  0  0  0
 13 14  1  0  0  0  0
 15 13  1  0  0  0  0
 16 15  1  0  0  0  0
 17 19  1  0  0  0  0
 18 17  1  0  0  0  0
 20 17  1  0  0  0  0
 20 21  1  0  0  0  0
 22 20  1  0  0  0  0
 23 24  1  0  0  0  0
 24 25  2  0  0  0  0
 24 30  1  0  0  0  0
 25 20  1  0  0  0  0
 26 25  1  0  0  0  0
 27 26  2  0  0  0  0
 28 27  1  0  0  0  0
 28 23  2  0  0  0  0
 29 23  1  0  0  0  0
 31 27  1  0  0  0  0
M  END
>  <minimizedAffinity>
-4.41015148

$$$$

 OpenBabel03252502453D

 31 33  0  0  1  0  0  0  0  0999 V2000
   37.4760   30.6070   38.7050 C   0  0  1  0  0  0  0  0  0  0  0  0
   37.6500   31.3710   37.4310 C   0  0  0  0  0  0  0  0  0  0  0  0
   37.2900   32.0640   38.6970 C   0  0  2  0  0  0  0  0  0  0  0  0
   38.3740   30.1180   39.1770 H   0  0  0  0  0  0  0  0  0  0  0  0
   38.6950   31.3740   37.0580 H   0  0  0  0  0  0  0  0  0  0  0  0
   36.9640   31.2710   36.5720 H   0  0  0  0  0  0  0  0  0  0  0  0
   36.4660   32.6820   38.9450 H   0  0  0  0  0  0  0  0  0  0  0  0
   38.4340   32.7540   39.2910 N   0  0  2  0  0  0  0  0  0  0  0  0
   39.6880   32.4220   38.7430 C   0  0  0  0  0  3  0  0  0  0  0  0
   39.7620   32.8560   37.7040 H   0  0  0  0  0  0  0  0  0  0  0  0
   40.7100   33.2080   39.5500 C   0  0  0  0  0  3  0  0  0  0  0  0
   40.5630   34.2980   39.4000 H   0  0  0  0  0  0  0  0  0  0  0  0
   40.7330   32.8120   40.9200 N   0  0  0  0  0  0  0  0  0  0  0  0
   41.5170   32.1590   41.1500 H   0  0  0  0  0  0  0  0  0  0  0  0
   39.4780   32.2860   41.3990 C   0  0  0  0  0  2  0  0  0  0  0  0
   38.3240   32.9790   40.6820 C   0  0  0  0  0  2  0  0  0  0  0  0
   36.2560   29.7570   38.8390 C   0  0  0  0  0  0  0  0  0  0  0  0
   35.5330   30.1630   38.0750 H   0  0  0  0  0  0  0  0  0  0  0  0
   36.4810   28.6870   38.6650 H   0  0  0  0  0  0  0  0  0  0  0  0
   35.7370   29.9890   40.2400 C   0  0  0  0  0  0  0  0  0  0  0  0
   35.6250   31.0240   40.5230 H   0  0  0  0  0  0  0  0  0  0  0  0
   34.7900   29.3670   40.3180 H   0  0  0  0  0  0  0  0  0  0  0  0
   37.2080   27.0010   41.9710 C   0  0  0  0  0  0  0  0  0  0  0  0
   36.4990   27.7850   41.0190 C   0  0  0  0  0  0  0  0  0  0  0  0
   36.5090   29.1430   41.1940 C   0  0  0  0  0  0  0  0  0  0  0  0
   37.1830   29.6780   42.2490 N   0  0  0  0  0  0  0  0  0  0  0  0
   37.8360   28.9330   43.1260 C   0  0  0  0  0  0  0  0  0  0  0  0
   37.8550   27.6030   42.9990 N   0  0  0  0  0  0  0  0  0  0  0  0
   37.2740   25.9290   41.9450 H   0  0  0  0  0  0  0  0  0  0  0  0
   36.0610   27.1530   40.2720 H   0  0  0  0  0  0  0  0  0  0  0  0
   38.3500   29.4240   43.9400 H   0  0  0  0  0  0  0  0  0  0  0  0
  1 17  1  0  0  0  0
  1  4  1  1  0  0  0
  2  3  1  0  0  0  0
  2  1  1  0  0  0  0
  3  1  1  0  0  0  0
  3  7  1  1  0  0  0
  3  8  1  0  0  0  0
  5  2  1  0  0  0  0
  6  2  1  0  0  0  0
  8 16  1  1  0  0  0
  9  8  1  0  0  0  0
  9 11  1  0  0  0  0
 10  9  1  0  0  0  0
 11 13  1  0  0  0  0
 12 11  1  0  0  0  0
 13 14  1  0  0  0  0
 13 15  1  0  0  0  0
 16 15  1  0  0  0  0
 17 20  1  0  0  0  0
 18 17  1  0  0  0  0
 19 17  1  0  0  0  0
 20 22  1  0  0  0  0
 20 21  1  0  0  0  0
 20 25  1  0  0  0  0
 23 28  1  0  0  0  0
 24 25  1  0  0  0  0
 24 23  2  0  0  0  0
 25 26  2  0  0  0  0
 26 27  1  0  0  0  0
 27 31  1  0  0  0  0
 28 27  2  0  0  0  0
 29 23  1  0  0  0  0
 30 24  1  0  0  0  0
M  END
>  <minimizedAffinity>
-4.39344168

$$$$

 OpenBabel03252502453D

 31 33  0  0  1  0  0  0  0  0999 V2000
   36.9800   29.6700   39.3080 C   0  0  1  0  0  0  0  0  0  0  0  0
   36.6100   30.5880   38.1870 C   0  0  0  0  0  0  0  0  0  0  0  0
   36.5540   31.0450   39.6010 C   0  0  2  0  0  0  0  0  0  0  0  0
   38.0510   29.3370   39.4130 H   0  0  0  0  0  0  0  0  0  0  0  0
   37.4680   30.8570   37.5360 H   0  0  0  0  0  0  0  0  0  0  0  0
   35.7170   30.4370   37.5560 H   0  0  0  0  0  0  0  0  0  0  0  0
   35.7560   31.4400   40.1760 H   0  0  0  0  0  0  0  0  0  0  0  0
   37.6900   31.8960   39.9500 N   0  0  2  0  0  0  0  0  0  0  0  0
   37.4770   33.2790   39.7950 C   0  0  0  0  0  3  0  0  0  0  0  0
   36.7620   33.6320   40.5930 H   0  0  0  0  0  0  0  0  0  0  0  0
   38.7970   33.9410   40.1560 C   0  0  0  0  0  3  0  0  0  0  0  0
   39.0390   33.7620   41.2250 H   0  0  0  0  0  0  0  0  0  0  0  0
   39.8460   33.5750   39.2590 N   0  0  0  0  0  0  0  0  0  0  0  0
   40.0400   34.2990   38.5310 H   0  0  0  0  0  0  0  0  0  0  0  0
   39.6700   32.2780   38.6520 C   0  0  0  0  0  2  0  0  0  0  0  0
   38.9520   31.3480   39.6240 C   0  0  0  0  0  2  0  0  0  0  0  0
   36.0280   28.5680   39.6400 C   0  0  0  0  0  0  0  0  0  0  0  0
   35.0920   28.8080   39.0610 H   0  0  0  0  0  0  0  0  0  0  0  0
   36.4390   27.5760   39.3660 H   0  0  0  0  0  0  0  0  0  0  0  0
   35.7760   28.6670   41.1270 C   0  0  0  0  0  0  0  0  0  0  0  0
   35.4680   29.6400   41.4780 H   0  0  0  0  0  0  0  0  0  0  0  0
   35.0560   27.8230   41.3680 H   0  0  0  0  0  0  0  0  0  0  0  0
   38.1930   26.1420   42.4960 C   0  0  0  0  0  0  0  0  0  0  0  0
   37.1200   26.7040   41.7500 C   0  0  0  0  0  0  0  0  0  0  0  0
   36.9210   28.0540   41.8600 C   0  0  0  0  0  0  0  0  0  0  0  0
   37.7410   28.7900   42.6610 N   0  0  0  0  0  0  0  0  0  0  0  0
   38.7330   28.2500   43.3480 C   0  0  0  0  0  0  0  0  0  0  0  0
   38.9680   26.9360   43.2750 N   0  0  0  0  0  0  0  0  0  0  0  0
   38.4500   25.0990   42.4960 H   0  0  0  0  0  0  0  0  0  0  0  0
   36.6240   25.9420   41.1830 H   0  0  0  0  0  0  0  0  0  0  0  0
   39.3450   28.8940   43.9640 H   0  0  0  0  0  0  0  0  0  0  0  0
  1  4  1  1  0  0  0
  1  3  1  0  0  0  0
  1 17  1  0  0  0  0
  2  1  1  0  0  0  0
  2  3  1  0  0  0  0
  3  8  1  0  0  0  0
  3  7  1  1  0  0  0
  5  2  1  0  0  0  0
  6  2  1  0  0  0  0
  8 16  1  6  0  0  0
  9  8  1  0  0  0  0
  9 11  1  0  0  0  0
  9 10  1  0  0  0  0
 11 12  1  0  0  0  0
 13 11  1  0  0  0  0
 14 13  1  0  0  0  0
 15 13  1  0  0  0  0
 15 16  1  0  0  0  0
 17 20  1  0  0  0  0
 18 17  1  0  0  0  0
 19 17  1  0  0  0  0
 20 22  1  0  0  0  0
 20 21  1  0  0  0  0
 20 25  1  0  0  0  0
 23 29  1  0  0  0  0
 23 28  1  0  0  0  0
 24 25  1  0  0  0  0
 24 23  2  0  0  0  0
 25 26  2  0  0  0  0
 26 27  1  0  0  0  0
 27 31  1  0  0  0  0
 28 27  2  0  0  0  0
 30 24  1  0  0  0  0
M  END
>  <minimizedAffinity>
-4.37921429

$$$$

 OpenBabel03252502453D

 31 33  0  0  1  0  0  0  0  0999 V2000
   36.5330   27.7280   41.0480 C   0  0  1  0  0  0  0  0  0  0  0  0
   36.9640   26.7430   40.0090 C   0  0  0  0  0  0  0  0  0  0  0  0
   37.9450   27.3320   40.9590 C   0  0  2  0  0  0  0  0  0  0  0  0
   35.8630   27.3830   41.8860 H   0  0  0  0  0  0  0  0  0  0  0  0
   36.5560   25.7230   40.1710 H   0  0  0  0  0  0  0  0  0  0  0  0
   36.9490   26.9650   38.9270 H   0  0  0  0  0  0  0  0  0  0  0  0
   38.8340   27.8840   40.7920 H   0  0  0  0  0  0  0  0  0  0  0  0
   38.3080   26.3990   42.0240 N   0  0  2  0  0  0  0  0  0  0  0  0
   39.6900   26.2460   42.2460 C   0  0  0  0  0  3  0  0  0  0  0  0
   40.0930   27.1900   42.7160 H   0  0  0  0  0  0  0  0  0  0  0  0
   39.8170   25.1990   43.3410 C   0  0  0  0  0  3  0  0  0  0  0  0
   39.3700   25.5730   44.2860 H   0  0  0  0  0  0  0  0  0  0  0  0
   39.3150   23.9270   42.9300 N   0  0  0  0  0  0  0  0  0  0  0  0
   40.0650   23.2600   42.6370 H   0  0  0  0  0  0  0  0  0  0  0  0
   38.2820   24.0020   41.9260 C   0  0  0  0  0  2  0  0  0  0  0  0
   37.4610   25.2710   42.1280 C   0  0  0  0  0  2  0  0  0  0  0  0
   36.1720   29.1020   40.5880 C   0  0  0  0  0  0  0  0  0  0  0  0
   36.6830   29.2190   39.5900 H   0  0  0  0  0  0  0  0  0  0  0  0
   35.0750   29.2320   40.5070 H   0  0  0  0  0  0  0  0  0  0  0  0
   36.7640   30.0520   41.6050 C   0  0  0  0  0  0  0  0  0  0  0  0
   36.0910   30.3660   42.3880 H   0  0  0  0  0  0  0  0  0  0  0  0
   37.7170   29.5520   41.9670 H   0  0  0  0  0  0  0  0  0  0  0  0
   39.4440   32.4330   40.4920 C   0  0  0  0  0  0  0  0  0  0  0  0
   38.8040   31.3480   41.1520 C   0  0  0  0  0  0  0  0  0  0  0  0
   37.4750   31.1520   40.8920 C   0  0  0  0  0  0  0  0  0  0  0  0
   36.8310   31.9850   40.0280 N   0  0  0  0  0  0  0  0  0  0  0  0
   37.4420   32.9900   39.4230 C   0  0  0  0  0  0  0  0  0  0  0  0
   38.7390   33.2230   39.6450 N   0  0  0  0  0  0  0  0  0  0  0  0
   40.4800   32.6900   40.6130 H   0  0  0  0  0  0  0  0  0  0  0  0
   39.5080   30.8230   41.7690 H   0  0  0  0  0  0  0  0  0  0  0  0
   36.8700   33.6120   38.7490 H   0  0  0  0  0  0  0  0  0  0  0  0
  1  4  1  1  0  0  0
  2  5  1  0  0  0  0
  2  3  1  0  0  0  0
  2  1  1  0  0  0  0
  3  7  1  6  0  0  0
  3  1  1  0  0  0  0
  3  8  1  0  0  0  0
  6  2  1  0  0  0  0
  8 16  1  6  0  0  0
  8  9  1  0  0  0  0
  9 10  1  0  0  0  0
  9 11  1  0  0  0  0
 11 12  1  0  0  0  0
 13 11  1  0  0  0  0
 14 13  1  0  0  0  0
 15 16  1  0  0  0  0
 15 13  1  0  0  0  0
 17  1  1  0  0  0  0
 17 20  1  0  0  0  0
 18 17  1  0  0  0  0
 19 17  1  0  0  0  0
 20 22  1  0  0  0  0
 20 21  1  0  0  0  0
 23 29  1  0  0  0  0
 23 24  1  0  0  0  0
 24 30  1  0  0  0  0
 25 24  2  0  0  0  0
 25 20  1  0  0  0  0
 26 25  1  0  0  0  0
 27 28  1  0  0  0  0
 27 26  2  0  0  0  0
 28 23  2  0  0  0  0
 31 27  1  0  0  0  0
M  END
>  <minimizedAffinity>
-4.30232573

$$$$
