
 OpenBabel03252508333D

 32 34  0  0  1  0  0  0  0  0999 V2000
   36.6200   29.2250   40.3320 N   0  0  0  0  0  0  0  0  0  0  0  0
   37.3130   29.9270   39.3130 C   0  0  1  0  0  0  0  0  0  0  0  0
   36.4690   30.3800   38.1680 C   0  0  0  0  0  0  0  0  0  0  0  0
   35.5060   29.4540   37.7340 N   0  0  0  0  0  0  0  0  0  0  0  0
   34.8310   28.7220   38.7410 C   0  0  0  0  0  0  0  0  0  0  0  0
   35.1970   29.1900   40.1380 C   0  0  0  0  0  0  0  0  0  0  0  0
   38.0530   29.2040   38.8700 H   0  0  0  0  0  0  0  0  0  0  0  0
   35.9050   31.2960   38.5110 H   0  0  0  0  0  0  0  0  0  0  0  0
   37.1040   30.7150   37.3350 H   0  0  0  0  0  0  0  0  0  0  0  0
   35.9590   28.7710   37.0650 H   0  0  0  0  0  0  0  0  0  0  0  0
   34.9360   27.6130   38.6810 H   0  0  0  0  0  0  0  0  0  0  0  0
   33.7430   28.9290   38.6160 H   0  0  0  0  0  0  0  0  0  0  0  0
   34.7700   30.2360   40.2160 H   0  0  0  0  0  0  0  0  0  0  0  0
   34.6210   28.6150   40.8610 H   0  0  0  0  0  0  0  0  0  0  0  0
   38.1190   27.5320   41.1090 C   0  0  0  0  0  0  0  0  0  0  0  0
   37.3400   28.6500   41.3930 C   0  0  0  0  0  0  0  0  0  0  0  0
   37.3410   29.0960   42.7010 C   0  0  0  0  0  0  0  0  0  0  0  0
   38.0740   28.4620   43.6500 N   0  0  0  0  0  0  0  0  0  0  0  0
   38.8240   27.3710   43.3310 C   0  0  0  0  0  0  0  0  0  0  0  0
   38.8410   26.9160   42.0720 N   0  0  0  0  0  0  0  0  0  0  0  0
   38.2530   27.0340   40.1610 H   0  0  0  0  0  0  0  0  0  0  0  0
   36.7480   29.9610   42.9510 H   0  0  0  0  0  0  0  0  0  0  0  0
   39.3760   26.9280   44.1480 H   0  0  0  0  0  0  0  0  0  0  0  0
   38.0730   31.0660   39.7050 N   0  0  2  0  0  0  0  0  0  0  0  0
   37.3780   32.0970   40.4100 C   0  0  0  0  0  3  0  0  0  0  0  0
   36.3990   31.8520   40.7960 H   0  0  0  0  0  0  0  0  0  0  0  0
   37.4300   33.3770   39.6020 C   0  0  0  0  0  3  0  0  0  0  0  0
   36.8000   34.1500   40.1170 H   0  0  0  0  0  0  0  0  0  0  0  0
   38.7980   33.8530   39.5180 N   0  0  0  0  0  0  0  0  0  0  0  0
   38.8760   34.4510   38.6570 H   0  0  0  0  0  0  0  0  0  0  0  0
   39.7110   32.7520   39.3170 C   0  0  0  0  0  2  0  0  0  0  0  0
   38.9690   31.5610   38.6950 C   0  0  0  0  0  2  0  0  0  0  0  0
  1 16  1  0  0  0  0
  2  7  1  6  0  0  0
  2 24  1  0  0  0  0
  2  1  1  0  0  0  0
  3  8  1  0  0  0  0
  3  2  1  0  0  0  0
  4  3  1  0  0  0  0
  4  5  1  0  0  0  0
  5  6  1  0  0  0  0
  6 13  1  0  0  0  0
  6  1  1  0  0  0  0
  6 14  1  0  0  0  0
  9  3  1  0  0  0  0
 10  4  1  0  0  0  0
 11  5  1  0  0  0  0
 12  5  1  0  0  0  0
 15 16  2  0  0  0  0
 15 20  1  0  0  0  0
 16 17  1  0  0  0  0
 17 22  1  0  0  0  0
 17 18  2  0  0  0  0
 19 18  1  0  0  0  0
 19 23  1  0  0  0  0
 20 19  2  0  0  0  0
 21 15  1  0  0  0  0
 24 32  1  6  0  0  0
 24 25  1  0  0  0  0
 25 26  1  0  0  0  0
 27 28  1  0  0  0  0
 27 25  1  0  0  0  0
 29 27  1  0  0  0  0
 30 29  1  0  0  0  0
 31 29  1  0  0  0  0
 32 31  1  0  0  0  0
M  END
>  <minimizedAffinity>
-4.69867849

$$$$

 OpenBabel03252508333D

 32 34  0  0  1  0  0  0  0  0999 V2000
   37.0810   29.3980   38.9550 N   0  0  0  0  0  0  0  0  0  0  0  0
   38.0230   30.4280   38.6980 C   0  0  1  0  0  0  0  0  0  0  0  0
   37.8150   31.1730   37.4210 C   0  0  0  0  0  0  0  0  0  0  0  0
   37.4510   30.3790   36.3210 N   0  0  0  0  0  0  0  0  0  0  0  0
   36.5380   29.3280   36.5710 C   0  0  0  0  0  0  0  0  0  0  0  0
   36.0140   29.3450   37.9960 C   0  0  0  0  0  0  0  0  0  0  0  0
   39.0250   29.9270   38.5910 H   0  0  0  0  0  0  0  0  0  0  0  0
   36.9660   31.8970   37.5920 H   0  0  0  0  0  0  0  0  0  0  0  0
   38.6950   31.7920   37.1940 H   0  0  0  0  0  0  0  0  0  0  0  0
   38.3250   29.9730   35.8820 H   0  0  0  0  0  0  0  0  0  0  0  0
   36.9040   28.3040   36.3230 H   0  0  0  0  0  0  0  0  0  0  0  0
   35.6570   29.5000   35.9110 H   0  0  0  0  0  0  0  0  0  0  0  0
   35.3860   30.2850   38.0640 H   0  0  0  0  0  0  0  0  0  0  0  0
   35.2940   28.5370   38.1130 H   0  0  0  0  0  0  0  0  0  0  0  0
   36.3230   28.6470   41.0940 C   0  0  0  0  0  0  0  0  0  0  0  0
   37.2570   28.5570   40.0670 C   0  0  0  0  0  0  0  0  0  0  0  0
   38.2820   27.6450   40.2340 C   0  0  0  0  0  0  0  0  0  0  0  0
   38.3580   26.8820   41.3520 N   0  0  0  0  0  0  0  0  0  0  0  0
   37.4220   27.0010   42.3360 C   0  0  0  0  0  0  0  0  0  0  0  0
   36.4190   27.8770   42.2010 N   0  0  0  0  0  0  0  0  0  0  0  0
   35.4560   29.2880   41.1560 H   0  0  0  0  0  0  0  0  0  0  0  0
   39.0200   27.5520   39.4530 H   0  0  0  0  0  0  0  0  0  0  0  0
   37.5590   26.3550   43.1910 H   0  0  0  0  0  0  0  0  0  0  0  0
   38.1930   31.4230   39.7020 N   0  0  2  0  0  0  0  0  0  0  0  0
   37.0570   32.2340   40.0090 C   0  0  0  0  0  3  0  0  0  0  0  0
   36.0990   31.8980   39.6370 H   0  0  0  0  0  0  0  0  0  0  0  0
   37.3760   33.6810   39.6960 C   0  0  0  0  0  3  0  0  0  0  0  0
   36.4480   34.2920   39.8470 H   0  0  0  0  0  0  0  0  0  0  0  0
   38.4160   34.1610   40.5860 N   0  0  0  0  0  0  0  0  0  0  0  0
   38.8990   34.9630   40.1090 H   0  0  0  0  0  0  0  0  0  0  0  0
   39.4300   33.1510   40.7810 C   0  0  0  0  0  2  0  0  0  0  0  0
   39.4210   32.1640   39.6040 C   0  0  0  0  0  2  0  0  0  0  0  0
  1 16  1  0  0  0  0
  2  7  1  6  0  0  0
  2  1  1  0  0  0  0
  2 24  1  0  0  0  0
  3  8  1  0  0  0  0
  3  2  1  0  0  0  0
  4  5  1  0  0  0  0
  4  3  1  0  0  0  0
  5  6  1  0  0  0  0
  6 13  1  0  0  0  0
  6 14  1  0  0  0  0
  6  1  1  0  0  0  0
  9  3  1  0  0  0  0
 10  4  1  0  0  0  0
 11  5  1  0  0  0  0
 12  5  1  0  0  0  0
 15 21  1  0  0  0  0
 15 20  1  0  0  0  0
 16 17  1  0  0  0  0
 16 15  2  0  0  0  0
 17 18  2  0  0  0  0
 18 19  1  0  0  0  0
 19 23  1  0  0  0  0
 20 19  2  0  0  0  0
 22 17  1  0  0  0  0
 24 32  1  6  0  0  0
 24 25  1  0  0  0  0
 26 25  1  0  0  0  0
 27 28  1  0  0  0  0
 27 25  1  0  0  0  0
 27 29  1  0  0  0  0
 29 31  1  0  0  0  0
 30 29  1  0  0  0  0
 32 31  1  0  0  0  0
M  END
>  <minimizedAffinity>
-4.65975571

$$$$

 OpenBabel03252508333D

 32 34  0  0  1  0  0  0  0  0999 V2000
   37.7250   29.0400   39.5600 N   0  0  0  0  0  0  0  0  0  0  0  0
   38.5970   30.1280   39.2940 C   0  0  1  0  0  0  0  0  0  0  0  0
   38.6450   30.5660   37.8670 C   0  0  0  0  0  0  0  0  0  0  0  0
   38.6490   29.5260   36.9240 N   0  0  0  0  0  0  0  0  0  0  0  0
   37.8100   28.4190   37.1950 C   0  0  0  0  0  0  0  0  0  0  0  0
   36.9440   28.6390   38.4240 C   0  0  0  0  0  0  0  0  0  0  0  0
   39.6370   29.7720   39.5320 H   0  0  0  0  0  0  0  0  0  0  0  0
   37.7140   31.1740   37.6740 H   0  0  0  0  0  0  0  0  0  0  0  0
   39.4890   31.2530   37.7090 H   0  0  0  0  0  0  0  0  0  0  0  0
   39.6410   29.1760   36.7970 H   0  0  0  0  0  0  0  0  0  0  0  0
   38.3250   27.4330   37.2760 H   0  0  0  0  0  0  0  0  0  0  0  0
   37.1110   28.3240   36.3320 H   0  0  0  0  0  0  0  0  0  0  0  0
   36.2310   29.4690   38.1320 H   0  0  0  0  0  0  0  0  0  0  0  0
   36.3000   27.7720   38.5570 H   0  0  0  0  0  0  0  0  0  0  0  0
   38.8920   27.9690   41.3520 C   0  0  0  0  0  0  0  0  0  0  0  0
   37.6960   28.4710   40.8450 C   0  0  0  0  0  0  0  0  0  0  0  0
   36.5810   28.3620   41.6530 C   0  0  0  0  0  0  0  0  0  0  0  0
   36.6650   27.7910   42.8800 N   0  0  0  0  0  0  0  0  0  0  0  0
   37.8560   27.3120   43.3400 C   0  0  0  0  0  0  0  0  0  0  0  0
   38.9520   27.4030   42.5780 N   0  0  0  0  0  0  0  0  0  0  0  0
   39.8650   27.9590   40.8840 H   0  0  0  0  0  0  0  0  0  0  0  0
   35.6410   28.7430   41.2880 H   0  0  0  0  0  0  0  0  0  0  0  0
   37.8320   26.8720   44.3270 H   0  0  0  0  0  0  0  0  0  0  0  0
   38.4100   31.3150   40.0560 N   0  0  2  0  0  0  0  0  0  0  0  0
   37.1120   31.9140   40.0170 C   0  0  0  0  0  3  0  0  0  0  0  0
   36.3090   31.3150   39.6100 H   0  0  0  0  0  0  0  0  0  0  0  0
   37.2190   33.3040   39.4250 C   0  0  0  0  0  3  0  0  0  0  0  0
   36.1860   33.7230   39.3090 H   0  0  0  0  0  0  0  0  0  0  0  0
   37.9870   34.1590   40.3100 N   0  0  0  0  0  0  0  0  0  0  0  0
   38.3960   34.9340   39.7300 H   0  0  0  0  0  0  0  0  0  0  0  0
   39.1140   33.4440   40.8630 C   0  0  0  0  0  2  0  0  0  0  0  0
   39.4850   32.2650   39.9530 C   0  0  0  0  0  2  0  0  0  0  0  0
  1 16  1  0  0  0  0
  2  7  1  1  0  0  0
  2  1  1  0  0  0  0
  2 24  1  0  0  0  0
  3  2  1  0  0  0  0
  4  5  1  0  0  0  0
  4  3  1  0  0  0  0
  5 11  1  0  0  0  0
  5  6  1  0  0  0  0
  6 14  1  0  0  0  0
  6  1  1  0  0  0  0
  8  3  1  0  0  0  0
  9  3  1  0  0  0  0
 10  4  1  0  0  0  0
 12  5  1  0  0  0  0
 13  6  1  0  0  0  0
 15 20  1  0  0  0  0
 16 15  2  0  0  0  0
 16 17  1  0  0  0  0
 17 18  2  0  0  0  0
 18 19  1  0  0  0  0
 19 23  1  0  0  0  0
 20 19  2  0  0  0  0
 21 15  1  0  0  0  0
 22 17  1  0  0  0  0
 24 32  1  6  0  0  0
 25 24  1  0  0  0  0
 26 25  1  0  0  0  0
 27 25  1  0  0  0  0
 27 29  1  0  0  0  0
 28 27  1  0  0  0  0
 29 31  1  0  0  0  0
 30 29  1  0  0  0  0
 32 31  1  0  0  0  0
M  END
>  <minimizedAffinity>
-4.59572506

$$$$

 OpenBabel03252508333D

 32 34  0  0  1  0  0  0  0  0999 V2000
   40.4710   30.2690   41.7670 N   0  0  0  0  0  0  0  0  0  0  0  0
   40.4290   31.4570   40.9920 C   0  0  1  0  0  0  0  0  0  0  0  0
   41.6340   32.3310   41.1070 C   0  0  0  0  0  0  0  0  0  0  0  0
   42.1560   32.4590   42.4040 N   0  0  0  0  0  0  0  0  0  0  0  0
   42.1730   31.2880   43.1990 C   0  0  0  0  0  0  0  0  0  0  0  0
   41.7300   30.0580   42.4260 C   0  0  0  0  0  0  0  0  0  0  0  0
   39.5760   32.0710   41.3910 H   0  0  0  0  0  0  0  0  0  0  0  0
   42.4460   31.8650   40.4750 H   0  0  0  0  0  0  0  0  0  0  0  0
   41.4340   33.3150   40.6580 H   0  0  0  0  0  0  0  0  0  0  0  0
   41.6220   33.2120   42.9200 H   0  0  0  0  0  0  0  0  0  0  0  0
   41.6030   31.3490   44.1560 H   0  0  0  0  0  0  0  0  0  0  0  0
   43.2330   31.1100   43.4910 H   0  0  0  0  0  0  0  0  0  0  0  0
   42.5450   29.8890   41.6590 H   0  0  0  0  0  0  0  0  0  0  0  0
   41.7980   29.1910   43.0810 H   0  0  0  0  0  0  0  0  0  0  0  0
   39.5180   28.0900   41.5270 C   0  0  0  0  0  0  0  0  0  0  0  0
   39.3400   29.4370   41.8260 C   0  0  0  0  0  0  0  0  0  0  0  0
   38.0600   29.8400   42.1540 C   0  0  0  0  0  0  0  0  0  0  0  0
   37.0360   28.9510   42.1790 N   0  0  0  0  0  0  0  0  0  0  0  0
   37.2530   27.6390   41.8790 C   0  0  0  0  0  0  0  0  0  0  0  0
   38.4830   27.2210   41.5570 N   0  0  0  0  0  0  0  0  0  0  0  0
   40.4290   27.5800   41.2520 H   0  0  0  0  0  0  0  0  0  0  0  0
   37.8920   30.8780   42.3920 H   0  0  0  0  0  0  0  0  0  0  0  0
   36.3810   27.0010   41.9230 H   0  0  0  0  0  0  0  0  0  0  0  0
   40.1860   31.3160   39.5960 N   0  0  2  0  0  0  0  0  0  0  0  0
   41.3060   31.4800   38.7230 C   0  0  0  0  0  3  0  0  0  0  0  0
   42.2870   31.4690   39.1770 H   0  0  0  0  0  0  0  0  0  0  0  0
   41.0560   32.6570   37.8030 C   0  0  0  0  0  3  0  0  0  0  0  0
   41.9790   32.8360   37.1920 H   0  0  0  0  0  0  0  0  0  0  0  0
   39.9440   32.3640   36.9180 N   0  0  0  0  0  0  0  0  0  0  0  0
   39.5310   33.2800   36.6100 H   0  0  0  0  0  0  0  0  0  0  0  0
   38.8920   31.6760   37.6270 C   0  0  0  0  0  2  0  0  0  0  0  0
   38.9930   31.9700   39.1310 C   0  0  0  0  0  2  0  0  0  0  0  0
  1 16  1  0  0  0  0
  1  6  1  0  0  0  0
  2  3  1  0  0  0  0
  2  7  1  1  0  0  0
  2  1  1  0  0  0  0
  3  4  1  0  0  0  0
  4 10  1  0  0  0  0
  4  5  1  0  0  0  0
  5 12  1  0  0  0  0
  5 11  1  0  0  0  0
  6 14  1  0  0  0  0
  6  5  1  0  0  0  0
  8  3  1  0  0  0  0
  9  3  1  0  0  0  0
 13  6  1  0  0  0  0
 15 20  2  0  0  0  0
 15 16  1  0  0  0  0
 16 17  2  0  0  0  0
 17 18  1  0  0  0  0
 17 22  1  0  0  0  0
 19 23  1  0  0  0  0
 19 18  2  0  0  0  0
 20 19  1  0  0  0  0
 21 15  1  0  0  0  0
 24 32  1  6  0  0  0
 24  2  1  0  0  0  0
 25 26  1  0  0  0  0
 25 24  1  0  0  0  0
 27 25  1  0  0  0  0
 28 27  1  0  0  0  0
 29 31  1  0  0  0  0
 29 27  1  0  0  0  0
 30 29  1  0  0  0  0
 31 32  1  0  0  0  0
M  END
>  <minimizedAffinity>
-4.55920744

$$$$

 OpenBabel03252508333D

 32 34  0  0  1  0  0  0  0  0999 V2000
   36.5770   28.4320   40.9840 N   0  0  0  0  0  0  0  0  0  0  0  0
   37.0980   29.6910   41.3830 C   0  0  1  0  0  0  0  0  0  0  0  0
   37.8750   29.6800   42.6580 C   0  0  0  0  0  0  0  0  0  0  0  0
   37.3330   28.8840   43.6800 N   0  0  0  0  0  0  0  0  0  0  0  0
   36.7800   27.6410   43.2900 C   0  0  0  0  0  0  0  0  0  0  0  0
   37.0050   27.3440   41.8180 C   0  0  0  0  0  0  0  0  0  0  0  0
   36.2130   30.3570   41.5790 H   0  0  0  0  0  0  0  0  0  0  0  0
   38.8940   29.2540   42.4230 H   0  0  0  0  0  0  0  0  0  0  0  0
   38.0530   30.7080   43.0030 H   0  0  0  0  0  0  0  0  0  0  0  0
   36.5930   29.4380   44.1950 H   0  0  0  0  0  0  0  0  0  0  0  0
   35.7010   27.4960   43.5360 H   0  0  0  0  0  0  0  0  0  0  0  0
   37.3270   26.8520   43.8560 H   0  0  0  0  0  0  0  0  0  0  0  0
   38.1240   27.1980   41.7190 H   0  0  0  0  0  0  0  0  0  0  0  0
   36.5900   26.3640   41.5910 H   0  0  0  0  0  0  0  0  0  0  0  0
   36.0870   27.4710   38.8500 C   0  0  0  0  0  0  0  0  0  0  0  0
   35.7290   28.3530   39.8660 C   0  0  0  0  0  0  0  0  0  0  0  0
   34.5680   29.0790   39.6830 C   0  0  0  0  0  0  0  0  0  0  0  0
   33.8230   28.9260   38.5600 N   0  0  0  0  0  0  0  0  0  0  0  0
   34.2080   28.0510   37.5880 C   0  0  0  0  0  0  0  0  0  0  0  0
   35.3300   27.3360   37.7390 N   0  0  0  0  0  0  0  0  0  0  0  0
   36.9470   26.8200   38.8020 H   0  0  0  0  0  0  0  0  0  0  0  0
   34.2650   29.7690   40.4540 H   0  0  0  0  0  0  0  0  0  0  0  0
   33.5570   27.9930   36.7280 H   0  0  0  0  0  0  0  0  0  0  0  0
   37.9080   30.3890   40.4430 N   0  0  2  0  0  0  0  0  0  0  0  0
   39.2990   30.5120   40.7510 C   0  0  0  0  0  3  0  0  0  0  0  0
   39.6830   29.8830   41.5410 H   0  0  0  0  0  0  0  0  0  0  0  0
   39.6530   31.9780   40.8900 C   0  0  0  0  0  3  0  0  0  0  0  0
   40.7190   32.0580   41.2270 H   0  0  0  0  0  0  0  0  0  0  0  0
   39.5030   32.6460   39.6100 N   0  0  0  0  0  0  0  0  0  0  0  0
   39.3390   33.6660   39.8000 H   0  0  0  0  0  0  0  0  0  0  0  0
   38.3220   32.1780   38.9240 C   0  0  0  0  0  2  0  0  0  0  0  0
   37.3210   31.5990   39.9350 C   0  0  0  0  0  2  0  0  0  0  0  0
  1  2  1  0  0  0  0
  1  6  1  0  0  0  0
  2  7  1  1  0  0  0
  2  3  1  0  0  0  0
  3  9  1  0  0  0  0
  3  4  1  0  0  0  0
  4 10  1  0  0  0  0
  5 11  1  0  0  0  0
  5  4  1  0  0  0  0
  5 12  1  0  0  0  0
  6  5  1  0  0  0  0
  8  3  1  0  0  0  0
 13  6  1  0  0  0  0
 14  6  1  0  0  0  0
 15 16  1  0  0  0  0
 16  1  1  0  0  0  0
 17 16  2  0  0  0  0
 17 22  1  0  0  0  0
 18 17  1  0  0  0  0
 19 20  1  0  0  0  0
 19 18  2  0  0  0  0
 20 15  2  0  0  0  0
 21 15  1  0  0  0  0
 23 19  1  0  0  0  0
 24 32  1  1  0  0  0
 24 25  1  0  0  0  0
 24  2  1  0  0  0  0
 25 27  1  0  0  0  0
 25 26  1  0  0  0  0
 27 28  1  0  0  0  0
 29 30  1  0  0  0  0
 29 27  1  0  0  0  0
 31 29  1  0  0  0  0
 31 32  1  0  0  0  0
M  END
>  <minimizedAffinity>
-4.54043674

$$$$

 OpenBabel03252508333D

 32 34  0  0  1  0  0  0  0  0999 V2000
   38.3310   30.8030   39.4340 N   0  0  0  0  0  0  0  0  0  0  0  0
   39.6420   31.2900   39.1910 C   0  0  1  0  0  0  0  0  0  0  0  0
   39.7580   32.2610   38.0630 C   0  0  0  0  0  0  0  0  0  0  0  0
   38.9940   31.9500   36.9270 N   0  0  0  0  0  0  0  0  0  0  0  0
   37.6970   31.4320   37.1570 C   0  0  0  0  0  0  0  0  0  0  0  0
   37.3250   31.4380   38.6300 C   0  0  0  0  0  0  0  0  0  0  0  0
   40.2630   30.4030   38.8850 H   0  0  0  0  0  0  0  0  0  0  0  0
   39.3840   33.2570   38.4420 H   0  0  0  0  0  0  0  0  0  0  0  0
   40.8150   32.4180   37.8040 H   0  0  0  0  0  0  0  0  0  0  0  0
   39.5310   31.2650   36.3250 H   0  0  0  0  0  0  0  0  0  0  0  0
   37.5000   30.4210   36.7290 H   0  0  0  0  0  0  0  0  0  0  0  0
   36.9800   32.1190   36.6500 H   0  0  0  0  0  0  0  0  0  0  0  0
   37.2450   32.5330   38.9050 H   0  0  0  0  0  0  0  0  0  0  0  0
   36.3090   31.0630   38.7350 H   0  0  0  0  0  0  0  0  0  0  0  0
   37.5010   30.1520   41.5800 C   0  0  0  0  0  0  0  0  0  0  0  0
   38.1310   29.7940   40.3920 C   0  0  0  0  0  0  0  0  0  0  0  0
   38.5090   28.4710   40.2590 C   0  0  0  0  0  0  0  0  0  0  0  0
   38.2680   27.5780   41.2510 N   0  0  0  0  0  0  0  0  0  0  0  0
   37.6480   27.9690   42.3990 C   0  0  0  0  0  0  0  0  0  0  0  0
   37.2720   29.2440   42.5540 N   0  0  0  0  0  0  0  0  0  0  0  0
   37.1310   31.1230   41.8740 H   0  0  0  0  0  0  0  0  0  0  0  0
   38.9990   28.1640   39.3490 H   0  0  0  0  0  0  0  0  0  0  0  0
   37.4960   27.1920   43.1350 H   0  0  0  0  0  0  0  0  0  0  0  0
   40.3310   31.8850   40.2850 N   0  0  2  0  0  0  0  0  0  0  0  0
   39.9130   33.1930   40.6810 C   0  0  0  0  0  3  0  0  0  0  0  0
   38.9700   33.5460   40.2870 H   0  0  0  0  0  0  0  0  0  0  0  0
   41.0650   34.1610   40.5070 C   0  0  0  0  0  3  0  0  0  0  0  0
   40.6970   35.1970   40.7260 H   0  0  0  0  0  0  0  0  0  0  0  0
   42.1340   33.8270   41.4300 N   0  0  0  0  0  0  0  0  0  0  0  0
   43.0300   34.2010   41.0290 H   0  0  0  0  0  0  0  0  0  0  0  0
   42.3080   32.3960   41.5150 C   0  0  0  0  0  2  0  0  0  0  0  0
   41.7600   31.7240   40.2480 C   0  0  0  0  0  2  0  0  0  0  0  0
  1 16  1  0  0  0  0
  2  7  1  6  0  0  0
  2  1  1  0  0  0  0
  2 24  1  0  0  0  0
  3  8  1  0  0  0  0
  3  2  1  0  0  0  0
  4  5  1  0  0  0  0
  4  3  1  0  0  0  0
  5  6  1  0  0  0  0
  6 14  1  0  0  0  0
  6 13  1  0  0  0  0
  6  1  1  0  0  0  0
  9  3  1  0  0  0  0
 10  4  1  0  0  0  0
 11  5  1  0  0  0  0
 12  5  1  0  0  0  0
 15 21  1  0  0  0  0
 15 20  1  0  0  0  0
 16 15  2  0  0  0  0
 17 16  1  0  0  0  0
 17 18  2  0  0  0  0
 18 19  1  0  0  0  0
 19 20  2  0  0  0  0
 19 23  1  0  0  0  0
 22 17  1  0  0  0  0
 24 32  1  6  0  0  0
 24 25  1  0  0  0  0
 26 25  1  0  0  0  0
 27 25  1  0  0  0  0
 27 28  1  0  0  0  0
 27 29  1  0  0  0  0
 29 31  1  0  0  0  0
 30 29  1  0  0  0  0
 32 31  1  0  0  0  0
M  END
>  <minimizedAffinity>
-4.52981758

$$$$

 OpenBabel03252508333D

 32 34  0  0  1  0  0  0  0  0999 V2000
   37.9620   30.2900   39.7340 N   0  0  0  0  0  0  0  0  0  0  0  0
   39.1870   30.8650   39.3070 C   0  0  1  0  0  0  0  0  0  0  0  0
   39.1110   31.6490   38.0390 C   0  0  0  0  0  0  0  0  0  0  0  0
   38.3120   31.0810   37.0340 N   0  0  0  0  0  0  0  0  0  0  0  0
   37.1040   30.4740   37.4510 C   0  0  0  0  0  0  0  0  0  0  0  0
   36.8360   30.6780   38.9320 C   0  0  0  0  0  0  0  0  0  0  0  0
   39.8850   30.0100   39.0870 H   0  0  0  0  0  0  0  0  0  0  0  0
   38.6500   32.6480   38.2920 H   0  0  0  0  0  0  0  0  0  0  0  0
   40.1220   31.8720   37.6680 H   0  0  0  0  0  0  0  0  0  0  0  0
   38.8830   30.3680   36.4990 H   0  0  0  0  0  0  0  0  0  0  0  0
   36.9980   29.3920   37.2000 H   0  0  0  0  0  0  0  0  0  0  0  0
   36.2780   30.9910   36.9090 H   0  0  0  0  0  0  0  0  0  0  0  0
   36.6470   31.7880   39.0430 H   0  0  0  0  0  0  0  0  0  0  0  0
   35.8810   30.2200   39.1800 H   0  0  0  0  0  0  0  0  0  0  0  0
   38.6100   28.2130   40.7270 C   0  0  0  0  0  0  0  0  0  0  0  0
   37.9480   29.4320   40.8470 C   0  0  0  0  0  0  0  0  0  0  0  0
   37.3300   29.6910   42.0560 C   0  0  0  0  0  0  0  0  0  0  0  0
   37.3770   28.7880   43.0670 N   0  0  0  0  0  0  0  0  0  0  0  0
   38.0360   27.6060   42.9090 C   0  0  0  0  0  0  0  0  0  0  0  0
   38.6430   27.3290   41.7490 N   0  0  0  0  0  0  0  0  0  0  0  0
   39.1500   27.8270   39.8760 H   0  0  0  0  0  0  0  0  0  0  0  0
   36.8110   30.6280   42.1780 H   0  0  0  0  0  0  0  0  0  0  0  0
   38.0230   26.9470   43.7650 H   0  0  0  0  0  0  0  0  0  0  0  0
   39.8760   31.6970   40.2350 N   0  0  2  0  0  0  0  0  0  0  0  0
   39.1610   32.8230   40.7510 C   0  0  0  0  0  3  0  0  0  0  0  0
   38.0930   32.8410   40.5880 H   0  0  0  0  0  0  0  0  0  0  0  0
   39.8760   34.0960   40.3490 C   0  0  0  0  0  3  0  0  0  0  0  0
   39.2560   34.9720   40.6740 H   0  0  0  0  0  0  0  0  0  0  0  0
   41.1720   34.1600   40.9980 N   0  0  0  0  0  0  0  0  0  0  0  0
   41.7910   34.7800   40.4160 H   0  0  0  0  0  0  0  0  0  0  0  0
   41.8070   32.8630   41.0030 C   0  0  0  0  0  2  0  0  0  0  0  0
   41.2350   31.9950   39.8730 C   0  0  0  0  0  2  0  0  0  0  0  0
  1 16  1  0  0  0  0
  2  7  1  6  0  0  0
  2  1  1  0  0  0  0
  2 24  1  0  0  0  0
  3  8  1  0  0  0  0
  3  2  1  0  0  0  0
  4  5  1  0  0  0  0
  4  3  1  0  0  0  0
  5  6  1  0  0  0  0
  6 13  1  0  0  0  0
  6 14  1  0  0  0  0
  6  1  1  0  0  0  0
  9  3  1  0  0  0  0
 10  4  1  0  0  0  0
 11  5  1  0  0  0  0
 12  5  1  0  0  0  0
 15 16  2  0  0  0  0
 15 20  1  0  0  0  0
 16 17  1  0  0  0  0
 17 22  1  0  0  0  0
 17 18  2  0  0  0  0
 19 18  1  0  0  0  0
 19 23  1  0  0  0  0
 20 19  2  0  0  0  0
 21 15  1  0  0  0  0
 24 32  1  6  0  0  0
 24 25  1  0  0  0  0
 26 25  1  0  0  0  0
 27 28  1  0  0  0  0
 27 25  1  0  0  0  0
 27 29  1  0  0  0  0
 29 31  1  0  0  0  0
 30 29  1  0  0  0  0
 32 31  1  0  0  0  0
M  END
>  <minimizedAffinity>
-4.51095247

$$$$

 OpenBabel03252508333D

 32 34  0  0  1  0  0  0  0  0999 V2000
   38.3740   30.6220   40.9860 N   0  0  0  0  0  0  0  0  0  0  0  0
   37.1590   30.7180   40.2580 C   0  0  1  0  0  0  0  0  0  0  0  0
   36.9600   32.0040   39.5250 C   0  0  0  0  0  0  0  0  0  0  0  0
   37.3540   33.1560   40.2250 N   0  0  0  0  0  0  0  0  0  0  0  0
   38.5460   33.0620   40.9820 C   0  0  0  0  0  0  0  0  0  0  0  0
   39.2570   31.7360   40.7790 C   0  0  0  0  0  0  0  0  0  0  0  0
   36.3270   30.6740   41.0130 H   0  0  0  0  0  0  0  0  0  0  0  0
   37.5960   31.9590   38.5930 H   0  0  0  0  0  0  0  0  0  0  0  0
   35.9220   32.0850   39.1740 H   0  0  0  0  0  0  0  0  0  0  0  0
   36.5680   33.4580   40.8660 H   0  0  0  0  0  0  0  0  0  0  0  0
   38.4380   33.2610   42.0750 H   0  0  0  0  0  0  0  0  0  0  0  0
   39.2360   33.8490   40.5990 H   0  0  0  0  0  0  0  0  0  0  0  0
   39.6080   31.7560   39.7030 H   0  0  0  0  0  0  0  0  0  0  0  0
   40.1780   31.7410   41.3580 H   0  0  0  0  0  0  0  0  0  0  0  0
   37.6940   29.2630   42.8320 C   0  0  0  0  0  0  0  0  0  0  0  0
   38.6040   29.5050   41.8080 C   0  0  0  0  0  0  0  0  0  0  0  0
   39.6610   28.6230   41.6910 C   0  0  0  0  0  0  0  0  0  0  0  0
   39.7900   27.5760   42.5430 N   0  0  0  0  0  0  0  0  0  0  0  0
   38.8760   27.3740   43.5330 C   0  0  0  0  0  0  0  0  0  0  0  0
   37.8420   28.2130   43.6700 N   0  0  0  0  0  0  0  0  0  0  0  0
   36.8090   29.8270   43.0880 H   0  0  0  0  0  0  0  0  0  0  0  0
   40.3830   28.7850   40.9050 H   0  0  0  0  0  0  0  0  0  0  0  0
   39.0560   26.5160   44.1650 H   0  0  0  0  0  0  0  0  0  0  0  0
   36.8810   29.6890   39.3140 N   0  0  2  0  0  0  0  0  0  0  0  0
   37.7200   29.6250   38.1580 C   0  0  0  0  0  3  0  0  0  0  0  0
   38.6350   30.2000   38.1840 H   0  0  0  0  0  0  0  0  0  0  0  0
   36.8790   29.8440   36.9170 C   0  0  0  0  0  3  0  0  0  0  0  0
   37.5600   29.8900   36.0280 H   0  0  0  0  0  0  0  0  0  0  0  0
   35.9470   28.7440   36.7520 N   0  0  0  0  0  0  0  0  0  0  0  0
   35.1370   29.0950   36.1820 H   0  0  0  0  0  0  0  0  0  0  0  0
   35.3920   28.3470   38.0240 C   0  0  0  0  0  2  0  0  0  0  0  0
   35.4840   29.5100   39.0230 C   0  0  0  0  0  2  0  0  0  0  0  0
  1 16  1  0  0  0  0
  2  1  1  0  0  0  0
  2  7  1  1  0  0  0
  3  4  1  0  0  0  0
  3  2  1  0  0  0  0
  4 10  1  0  0  0  0
  4  5  1  0  0  0  0
  5 11  1  0  0  0  0
  6  5  1  0  0  0  0
  6  1  1  0  0  0  0
  6 14  1  0  0  0  0
  8  3  1  0  0  0  0
  9  3  1  0  0  0  0
 12  5  1  0  0  0  0
 13  6  1  0  0  0  0
 15 21  1  0  0  0  0
 15 20  1  0  0  0  0
 16 15  2  0  0  0  0
 17 16  1  0  0  0  0
 17 18  2  0  0  0  0
 18 19  1  0  0  0  0
 19 20  2  0  0  0  0
 19 23  1  0  0  0  0
 22 17  1  0  0  0  0
 24 32  1  6  0  0  0
 24  2  1  0  0  0  0
 25 26  1  0  0  0  0
 25 24  1  0  0  0  0
 27 25  1  0  0  0  0
 28 27  1  0  0  0  0
 29 27  1  0  0  0  0
 29 31  1  0  0  0  0
 30 29  1  0  0  0  0
 31 32  1  0  0  0  0
M  END
>  <minimizedAffinity>
-4.44935226

$$$$

 OpenBabel03252508333D

 32 34  0  0  1  0  0  0  0  0999 V2000
   39.3670   29.8960   41.7250 N   0  0  0  0  0  0  0  0  0  0  0  0
   38.7870   31.1400   41.3620 C   0  0  1  0  0  0  0  0  0  0  0  0
   39.7610   32.2150   41.0110 C   0  0  0  0  0  0  0  0  0  0  0  0
   40.8980   32.2800   41.8330 N   0  0  0  0  0  0  0  0  0  0  0  0
   41.4660   31.0460   42.2300 C   0  0  0  0  0  0  0  0  0  0  0  0
   40.7930   29.8600   41.5620 C   0  0  0  0  0  0  0  0  0  0  0  0
   38.2400   31.5170   42.2700 H   0  0  0  0  0  0  0  0  0  0  0  0
   40.1300   32.0030   39.9660 H   0  0  0  0  0  0  0  0  0  0  0  0
   39.2510   33.1880   40.9570 H   0  0  0  0  0  0  0  0  0  0  0  0
   40.6680   32.8420   42.7000 H   0  0  0  0  0  0  0  0  0  0  0  0
   41.5170   30.8720   43.3310 H   0  0  0  0  0  0  0  0  0  0  0  0
   42.5230   31.0480   41.8750 H   0  0  0  0  0  0  0  0  0  0  0  0
   41.0600   29.9530   40.4660 H   0  0  0  0  0  0  0  0  0  0  0  0
   41.2960   28.9480   41.8800 H   0  0  0  0  0  0  0  0  0  0  0  0
   38.5550   27.6620   41.4730 C   0  0  0  0  0  0  0  0  0  0  0  0
   38.5450   28.8550   42.1890 C   0  0  0  0  0  0  0  0  0  0  0  0
   37.7220   28.9120   43.2980 C   0  0  0  0  0  0  0  0  0  0  0  0
   36.9660   27.8450   43.6570 N   0  0  0  0  0  0  0  0  0  0  0  0
   37.0040   26.6930   42.9280 C   0  0  0  0  0  0  0  0  0  0  0  0
   37.7920   26.6110   41.8490 N   0  0  0  0  0  0  0  0  0  0  0  0
   39.1240   27.4170   40.5890 H   0  0  0  0  0  0  0  0  0  0  0  0
   37.6950   29.8230   43.8730 H   0  0  0  0  0  0  0  0  0  0  0  0
   36.3700   25.8940   43.2850 H   0  0  0  0  0  0  0  0  0  0  0  0
   37.8280   31.1300   40.3090 N   0  0  2  0  0  0  0  0  0  0  0  0
   36.4510   31.0580   40.6870 C   0  0  0  0  0  3  0  0  0  0  0  0
   36.2180   31.2460   41.7250 H   0  0  0  0  0  0  0  0  0  0  0  0
   35.8450   29.7870   40.1300 C   0  0  0  0  0  3  0  0  0  0  0  0
   34.7960   29.6930   40.5130 H   0  0  0  0  0  0  0  0  0  0  0  0
   35.8220   29.8450   38.6800 N   0  0  0  0  0  0  0  0  0  0  0  0
   35.8070   28.8580   38.3210 H   0  0  0  0  0  0  0  0  0  0  0  0
   37.0400   30.4310   38.1710 C   0  0  0  0  0  2  0  0  0  0  0  0
   38.1670   30.2770   39.2030 C   0  0  0  0  0  2  0  0  0  0  0  0
  1 16  1  0  0  0  0
  2  1  1  0  0  0  0
  2  7  1  1  0  0  0
  3  2  1  0  0  0  0
  3  4  1  0  0  0  0
  4  5  1  0  0  0  0
  4 10  1  0  0  0  0
  5 11  1  0  0  0  0
  6  1  1  0  0  0  0
  6 14  1  0  0  0  0
  6  5  1  0  0  0  0
  8  3  1  0  0  0  0
  9  3  1  0  0  0  0
 12  5  1  0  0  0  0
 13  6  1  0  0  0  0
 15 20  2  0  0  0  0
 15 16  1  0  0  0  0
 16 17  2  0  0  0  0
 17 18  1  0  0  0  0
 17 22  1  0  0  0  0
 19 23  1  0  0  0  0
 19 18  2  0  0  0  0
 20 19  1  0  0  0  0
 21 15  1  0  0  0  0
 24 32  1  6  0  0  0
 24 25  1  0  0  0  0
 24  2  1  0  0  0  0
 25 26  1  0  0  0  0
 27 28  1  0  0  0  0
 27 25  1  0  0  0  0
 29 27  1  0  0  0  0
 30 29  1  0  0  0  0
 31 29  1  0  0  0  0
 31 32  1  0  0  0  0
M  END
>  <minimizedAffinity>
-4.37759066

$$$$
