
 OpenBabel03252502223D

 33 35  0  0  1  0  0  0  0  0999 V2000
   36.6270   28.4950   40.9310 N   0  0  0  0  0  0  0  0  0  0  0  0
   36.9550   27.2630   41.6360 C   0  0  0  0  0  0  0  0  0  0  0  0
   36.7930   27.6150   43.1290 C   0  0  0  0  0  0  0  0  0  0  0  0
   37.8130   28.6250   43.5230 C   0  0  0  0  0  0  0  0  0  0  0  0
   38.0720   29.6850   42.5300 C   0  0  0  0  0  0  0  0  0  0  0  0
   37.0750   29.7640   41.4170 C   0  0  1  0  0  0  0  0  0  0  0  0
   36.2420   26.4800   41.3690 H   0  0  0  0  0  0  0  0  0  0  0  0
   38.0140   26.9640   41.5270 H   0  0  0  0  0  0  0  0  0  0  0  0
   36.8380   26.7270   43.7700 H   0  0  0  0  0  0  0  0  0  0  0  0
   35.7940   28.1340   43.1800 H   0  0  0  0  0  0  0  0  0  0  0  0
   38.7760   28.0620   43.6750 H   0  0  0  0  0  0  0  0  0  0  0  0
   37.5170   29.0160   44.5350 H   0  0  0  0  0  0  0  0  0  0  0  0
   38.0410   30.6780   43.0690 H   0  0  0  0  0  0  0  0  0  0  0  0
   39.1100   29.6490   42.0980 H   0  0  0  0  0  0  0  0  0  0  0  0
   36.1610   30.2530   41.8680 H   0  0  0  0  0  0  0  0  0  0  0  0
   33.8790   28.9760   38.4500 C   0  0  0  0  0  0  0  0  0  0  0  0
   34.5740   29.0310   39.6600 C   0  0  0  0  0  0  0  0  0  0  0  0
   35.8580   28.4800   39.7440 C   0  0  0  0  0  0  0  0  0  0  0  0
   36.3530   27.9140   38.6140 N   0  0  0  0  0  0  0  0  0  0  0  0
   35.6600   27.8710   37.4490 C   0  0  0  0  0  0  0  0  0  0  0  0
   34.4190   28.4060   37.3780 N   0  0  0  0  0  0  0  0  0  0  0  0
   32.9000   29.4360   38.5170 H   0  0  0  0  0  0  0  0  0  0  0  0
   34.2170   29.4710   40.5770 H   0  0  0  0  0  0  0  0  0  0  0  0
   36.1210   27.4040   36.5960 H   0  0  0  0  0  0  0  0  0  0  0  0
   37.4820   30.5920   40.3420 N   0  0  2  0  0  0  0  0  0  0  0  0
   38.8660   30.5420   40.0070 C   0  0  0  0  0  3  0  0  0  0  0  0
   39.2200   29.5100   39.8970 H   0  0  0  0  0  0  0  0  0  0  0  0
   39.0120   31.2550   38.6680 C   0  0  0  0  0  3  0  0  0  0  0  0
   38.1680   30.9790   38.0310 H   0  0  0  0  0  0  0  0  0  0  0  0
   38.8390   32.6810   38.9570 N   0  0  0  0  0  0  0  0  0  0  0  0
   38.6300   33.2520   38.1330 H   0  0  0  0  0  0  0  0  0  0  0  0
   38.0140   32.9200   40.1020 C   0  0  0  0  0  2  0  0  0  0  0  0
   36.9340   31.9100   40.3040 C   0  0  0  0  0  2  0  0  0  0  0  0
  1  6  1  0  0  0  0
  1  2  1  0  0  0  0
  2  3  1  0  0  0  0
  3 10  1  0  0  0  0
  3  4  1  0  0  0  0
  3  9  1  0  0  0  0
  4 11  1  0  0  0  0
  4 12  1  0  0  0  0
  5 13  1  0  0  0  0
  5  4  1  0  0  0  0
  6 15  1  1  0  0  0
  6  5  1  0  0  0  0
  7  2  1  0  0  0  0
  8  2  1  0  0  0  0
 14  5  1  0  0  0  0
 16 22  1  0  0  0  0
 16 17  1  0  0  0  0
 17 18  2  0  0  0  0
 17 23  1  0  0  0  0
 18  1  1  0  0  0  0
 19 18  1  0  0  0  0
 20 19  2  0  0  0  0
 21 20  1  0  0  0  0
 21 16  2  0  0  0  0
 24 20  1  0  0  0  0
 25 33  1  1  0  0  0
 25  6  1  0  0  0  0
 26 25  1  0  0  0  0
 27 26  1  0  0  0  0
 28 30  1  0  0  0  0
 28 26  1  0  0  0  0
 29 28  1  0  0  0  0
 30 32  1  0  0  0  0
 31 30  1  0  0  0  0
 32 33  1  0  0  0  0
M  END
>  <minimizedAffinity>
-4.82205248

$$$$

 OpenBabel03252502223D

 33 35  0  0  1  0  0  0  0  0999 V2000
   38.1670   30.6160   40.9450 N   0  0  0  0  0  0  0  0  0  0  0  0
   39.2620   31.5700   40.8320 C   0  0  0  0  0  0  0  0  0  0  0  0
   38.5800   32.9530   40.8960 C   0  0  0  0  0  0  0  0  0  0  0  0
   37.7140   33.1430   39.6990 C   0  0  0  0  0  0  0  0  0  0  0  0
   36.9530   31.9530   39.2720 C   0  0  0  0  0  0  0  0  0  0  0  0
   36.9280   30.8310   40.2620 C   0  0  1  0  0  0  0  0  0  0  0  0
   39.9390   31.4620   41.6830 H   0  0  0  0  0  0  0  0  0  0  0  0
   39.7660   31.5460   39.8490 H   0  0  0  0  0  0  0  0  0  0  0  0
   39.3060   33.7670   40.9990 H   0  0  0  0  0  0  0  0  0  0  0  0
   37.8880   32.8750   41.7810 H   0  0  0  0  0  0  0  0  0  0  0  0
   38.4000   33.4260   38.8530 H   0  0  0  0  0  0  0  0  0  0  0  0
   37.0720   34.0450   39.8960 H   0  0  0  0  0  0  0  0  0  0  0  0
   35.8800   32.2700   39.1090 H   0  0  0  0  0  0  0  0  0  0  0  0
   37.2690   31.5570   38.2680 H   0  0  0  0  0  0  0  0  0  0  0  0
   36.1960   31.1530   41.0610 H   0  0  0  0  0  0  0  0  0  0  0  0
   37.8150   28.0940   43.6750 C   0  0  0  0  0  0  0  0  0  0  0  0
   37.6430   29.2800   42.9600 C   0  0  0  0  0  0  0  0  0  0  0  0
   38.2910   29.4450   41.7300 C   0  0  0  0  0  0  0  0  0  0  0  0
   39.0630   28.4140   41.3050 N   0  0  0  0  0  0  0  0  0  0  0  0
   39.2170   27.2700   42.0160 C   0  0  0  0  0  0  0  0  0  0  0  0
   38.5870   27.1190   43.2040 N   0  0  0  0  0  0  0  0  0  0  0  0
   37.2640   28.0910   44.6070 H   0  0  0  0  0  0  0  0  0  0  0  0
   37.0390   30.1200   43.2630 H   0  0  0  0  0  0  0  0  0  0  0  0
   39.8470   26.4960   41.6110 H   0  0  0  0  0  0  0  0  0  0  0  0
   36.4350   29.6130   39.7340 N   0  0  2  0  0  0  0  0  0  0  0  0
   36.8210   29.3120   38.3960 C   0  0  0  0  0  3  0  0  0  0  0  0
   37.9010   29.4230   38.2510 H   0  0  0  0  0  0  0  0  0  0  0  0
   36.4390   27.8570   38.1540 C   0  0  0  0  0  3  0  0  0  0  0  0
   36.6710   27.2800   39.0530 H   0  0  0  0  0  0  0  0  0  0  0  0
   34.9790   27.8420   38.0400 N   0  0  0  0  0  0  0  0  0  0  0  0
   34.5590   26.9160   38.1590 H   0  0  0  0  0  0  0  0  0  0  0  0
   34.3540   28.9030   38.7700 C   0  0  0  0  0  2  0  0  0  0  0  0
   35.0710   29.2960   40.0180 C   0  0  0  0  0  2  0  0  0  0  0  0
  1 18  1  0  0  0  0
  2  3  1  0  0  0  0
  2  1  1  0  0  0  0
  2  7  1  0  0  0  0
  3  9  1  0  0  0  0
  3 10  1  0  0  0  0
  4 12  1  0  0  0  0
  4  3  1  0  0  0  0
  5  4  1  0  0  0  0
  5  6  1  0  0  0  0
  6  1  1  0  0  0  0
  6 15  1  1  0  0  0
  8  2  1  0  0  0  0
 11  4  1  0  0  0  0
 13  5  1  0  0  0  0
 14  5  1  0  0  0  0
 16 22  1  0  0  0  0
 17 23  1  0  0  0  0
 17 16  2  0  0  0  0
 18 17  1  0  0  0  0
 19 18  2  0  0  0  0
 19 20  1  0  0  0  0
 20 21  2  0  0  0  0
 21 16  1  0  0  0  0
 24 20  1  0  0  0  0
 25 33  1  6  0  0  0
 25  6  1  0  0  0  0
 26 25  1  0  0  0  0
 27 26  1  0  0  0  0
 28 26  1  0  0  0  0
 28 29  1  0  0  0  0
 30 28  1  0  0  0  0
 30 31  1  0  0  0  0
 30 32  1  0  0  0  0
 32 33  1  0  0  0  0
M  END
>  <minimizedAffinity>
-4.52623987

$$$$

 OpenBabel03252502223D

 33 35  0  0  1  0  0  0  0  0999 V2000
   37.1140   30.2280   38.9540 N   0  0  0  0  0  0  0  0  0  0  0  0
   36.7460   29.8680   37.5910 C   0  0  0  0  0  0  0  0  0  0  0  0
   35.2980   29.3490   37.7040 C   0  0  0  0  0  0  0  0  0  0  0  0
   35.2720   28.0950   38.5060 C   0  0  0  0  0  0  0  0  0  0  0  0
   36.1670   28.0730   39.6790 C   0  0  0  0  0  0  0  0  0  0  0  0
   36.7370   29.4030   40.0620 C   0  0  1  0  0  0  0  0  0  0  0  0
   36.7640   30.7560   36.9550 H   0  0  0  0  0  0  0  0  0  0  0  0
   37.3240   29.0150   37.1920 H   0  0  0  0  0  0  0  0  0  0  0  0
   34.8320   29.2080   36.7230 H   0  0  0  0  0  0  0  0  0  0  0  0
   34.7750   30.1330   38.3230 H   0  0  0  0  0  0  0  0  0  0  0  0
   35.6030   27.2700   37.8150 H   0  0  0  0  0  0  0  0  0  0  0  0
   34.1960   27.8820   38.7530 H   0  0  0  0  0  0  0  0  0  0  0  0
   35.5660   27.7070   40.5640 H   0  0  0  0  0  0  0  0  0  0  0  0
   37.0000   27.3230   39.5930 H   0  0  0  0  0  0  0  0  0  0  0  0
   35.8930   29.9540   40.5730 H   0  0  0  0  0  0  0  0  0  0  0  0
   38.0910   33.6620   40.0420 C   0  0  0  0  0  0  0  0  0  0  0  0
   37.2900   32.5450   39.8000 C   0  0  0  0  0  0  0  0  0  0  0  0
   37.8570   31.3990   39.2300 C   0  0  0  0  0  0  0  0  0  0  0  0
   39.1820   31.4540   38.9430 N   0  0  0  0  0  0  0  0  0  0  0  0
   39.9420   32.5500   39.1860 C   0  0  0  0  0  0  0  0  0  0  0  0
   39.3850   33.6530   39.7370 N   0  0  0  0  0  0  0  0  0  0  0  0
   37.5350   34.4800   40.4840 H   0  0  0  0  0  0  0  0  0  0  0  0
   36.2370   32.4630   40.0140 H   0  0  0  0  0  0  0  0  0  0  0  0
   40.9870   32.5160   38.9300 H   0  0  0  0  0  0  0  0  0  0  0  0
   37.7910   29.3240   41.0030 N   0  0  2  0  0  0  0  0  0  0  0  0
   38.7080   28.2470   40.8240 C   0  0  0  0  0  3  0  0  0  0  0  0
   39.0660   28.1880   39.7900 H   0  0  0  0  0  0  0  0  0  0  0  0
   39.8930   28.5330   41.7380 C   0  0  0  0  0  3  0  0  0  0  0  0
   40.1150   29.6030   41.6990 H   0  0  0  0  0  0  0  0  0  0  0  0
   39.4150   28.2770   43.0990 N   0  0  0  0  0  0  0  0  0  0  0  0
   39.9990   28.6910   43.8320 H   0  0  0  0  0  0  0  0  0  0  0  0
   38.0070   28.4820   43.2410 C   0  0  0  0  0  2  0  0  0  0  0  0
   37.4500   29.5590   42.3710 C   0  0  0  0  0  2  0  0  0  0  0  0
  1 18  1  0  0  0  0
  1  6  1  0  0  0  0
  2  3  1  0  0  0  0
  2  1  1  0  0  0  0
  3 10  1  0  0  0  0
  3  4  1  0  0  0  0
  4 12  1  0  0  0  0
  4  5  1  0  0  0  0
  5  6  1  0  0  0  0
  5 13  1  0  0  0  0
  6 15  1  1  0  0  0
  6 25  1  0  0  0  0
  7  2  1  0  0  0  0
  8  2  1  0  0  0  0
  9  3  1  0  0  0  0
 11  4  1  0  0  0  0
 14  5  1  0  0  0  0
 16 22  1  0  0  0  0
 17 23  1  0  0  0  0
 17 16  1  0  0  0  0
 18 17  2  0  0  0  0
 19 20  2  0  0  0  0
 19 18  1  0  0  0  0
 20 21  1  0  0  0  0
 21 16  2  0  0  0  0
 24 20  1  0  0  0  0
 25 33  1  1  0  0  0
 26 25  1  0  0  0  0
 26 28  1  0  0  0  0
 27 26  1  0  0  0  0
 28 30  1  0  0  0  0
 29 28  1  0  0  0  0
 30 32  1  0  0  0  0
 30 31  1  0  0  0  0
 33 32  1  0  0  0  0
M  END
>  <minimizedAffinity>
-4.48695421

$$$$

 OpenBabel03252502223D

 33 35  0  0  1  0  0  0  0  0999 V2000
   38.7070   29.3310   42.0440 N   0  0  0  0  0  0  0  0  0  0  0  0
   38.2430   28.7400   43.2920 C   0  0  0  0  0  0  0  0  0  0  0  0
   37.4470   27.4920   42.8580 C   0  0  0  0  0  0  0  0  0  0  0  0
   36.2350   27.9070   42.0990 C   0  0  0  0  0  0  0  0  0  0  0  0
   36.4270   29.0330   41.1640 C   0  0  0  0  0  0  0  0  0  0  0  0
   37.8550   29.3940   40.8960 C   0  0  1  0  0  0  0  0  0  0  0  0
   39.0990   28.4300   43.8970 H   0  0  0  0  0  0  0  0  0  0  0  0
   37.5140   29.3700   43.8320 H   0  0  0  0  0  0  0  0  0  0  0  0
   37.1870   26.8520   43.7080 H   0  0  0  0  0  0  0  0  0  0  0  0
   38.1250   26.9780   42.1200 H   0  0  0  0  0  0  0  0  0  0  0  0
   35.4750   28.2290   42.8640 H   0  0  0  0  0  0  0  0  0  0  0  0
   35.8170   26.9830   41.6140 H   0  0  0  0  0  0  0  0  0  0  0  0
   35.9710   28.7400   40.1720 H   0  0  0  0  0  0  0  0  0  0  0  0
   35.8580   29.9580   41.4560 H   0  0  0  0  0  0  0  0  0  0  0  0
   38.2380   28.5970   40.1930 H   0  0  0  0  0  0  0  0  0  0  0  0
   41.7500   31.4540   42.4610 C   0  0  0  0  0  0  0  0  0  0  0  0
   40.4450   30.9890   42.6350 C   0  0  0  0  0  0  0  0  0  0  0  0
   40.0120   29.8640   41.9240 C   0  0  0  0  0  0  0  0  0  0  0  0
   40.9140   29.2870   41.0900 N   0  0  0  0  0  0  0  0  0  0  0  0
   42.1760   29.7550   40.9360 C   0  0  0  0  0  0  0  0  0  0  0  0
   42.5860   30.8430   41.6280 N   0  0  0  0  0  0  0  0  0  0  0  0
   41.9600   32.3280   43.0660 H   0  0  0  0  0  0  0  0  0  0  0  0
   39.7010   31.4190   43.2860 H   0  0  0  0  0  0  0  0  0  0  0  0
   42.8330   29.2410   40.2550 H   0  0  0  0  0  0  0  0  0  0  0  0
   38.0150   30.6310   40.2260 N   0  0  2  0  0  0  0  0  0  0  0  0
   37.0790   31.6500   40.5650 C   0  0  0  0  0  3  0  0  0  0  0  0
   36.9880   31.7720   41.6510 H   0  0  0  0  0  0  0  0  0  0  0  0
   37.6170   32.9450   39.9690 C   0  0  0  0  0  3  0  0  0  0  0  0
   38.7010   32.9710   40.1090 H   0  0  0  0  0  0  0  0  0  0  0  0
   37.4070   32.8340   38.5230 N   0  0  0  0  0  0  0  0  0  0  0  0
   37.9650   33.4900   37.9680 H   0  0  0  0  0  0  0  0  0  0  0  0
   37.4070   31.4790   38.0640 C   0  0  0  0  0  2  0  0  0  0  0  0
   38.3100   30.5700   38.8300 C   0  0  0  0  0  2  0  0  0  0  0  0
  1  2  1  0  0  0  0
  2  8  1  0  0  0  0
  2  7  1  0  0  0  0
  3  2  1  0  0  0  0
  3  9  1  0  0  0  0
  4  3  1  0  0  0  0
  4 11  1  0  0  0  0
  5 14  1  0  0  0  0
  5  4  1  0  0  0  0
  6 15  1  6  0  0  0
  6  5  1  0  0  0  0
  6  1  1  0  0  0  0
 10  3  1  0  0  0  0
 12  4  1  0  0  0  0
 13  5  1  0  0  0  0
 16 17  1  0  0  0  0
 16 22  1  0  0  0  0
 17 23  1  0  0  0  0
 18  1  1  0  0  0  0
 18 17  2  0  0  0  0
 19 18  1  0  0  0  0
 20 19  2  0  0  0  0
 20 21  1  0  0  0  0
 21 16  2  0  0  0  0
 24 20  1  0  0  0  0
 25 33  1  6  0  0  0
 25 26  1  0  0  0  0
 25  6  1  0  0  0  0
 26 27  1  0  0  0  0
 28 29  1  0  0  0  0
 28 26  1  0  0  0  0
 30 28  1  0  0  0  0
 31 30  1  0  0  0  0
 32 30  1  0  0  0  0
 32 33  1  0  0  0  0
M  END
>  <minimizedAffinity>
-4.44054794

$$$$

 OpenBabel03252502223D

 33 35  0  0  1  0  0  0  0  0999 V2000
   37.7330   29.6760   40.8930 N   0  0  0  0  0  0  0  0  0  0  0  0
   36.8980   29.3750   42.0480 C   0  0  0  0  0  0  0  0  0  0  0  0
   37.5310   28.1110   42.6660 C   0  0  0  0  0  0  0  0  0  0  0  0
   37.3950   26.9670   41.7230 C   0  0  0  0  0  0  0  0  0  0  0  0
   37.6090   27.2890   40.2990 C   0  0  0  0  0  0  0  0  0  0  0  0
   38.2170   28.6320   40.0410 C   0  0  1  0  0  0  0  0  0  0  0  0
   36.9510   30.1950   42.7680 H   0  0  0  0  0  0  0  0  0  0  0  0
   35.8680   29.0760   41.7790 H   0  0  0  0  0  0  0  0  0  0  0  0
   37.1060   27.8740   43.6480 H   0  0  0  0  0  0  0  0  0  0  0  0
   38.6300   28.3530   42.7160 H   0  0  0  0  0  0  0  0  0  0  0  0
   36.3390   26.5910   41.8290 H   0  0  0  0  0  0  0  0  0  0  0  0
   38.0580   26.1430   42.1050 H   0  0  0  0  0  0  0  0  0  0  0  0
   38.3200   26.5200   39.8740 H   0  0  0  0  0  0  0  0  0  0  0  0
   36.6830   27.1730   39.6700 H   0  0  0  0  0  0  0  0  0  0  0  0
   39.3120   28.5190   40.2970 H   0  0  0  0  0  0  0  0  0  0  0  0
   37.6060   33.2460   39.8100 C   0  0  0  0  0  0  0  0  0  0  0  0
   37.1730   31.9520   40.1040 C   0  0  0  0  0  0  0  0  0  0  0  0
   38.0920   31.0060   40.5710 C   0  0  0  0  0  0  0  0  0  0  0  0
   39.3760   31.4210   40.7090 N   0  0  0  0  0  0  0  0  0  0  0  0
   39.7760   32.6830   40.4160 C   0  0  0  0  0  0  0  0  0  0  0  0
   38.8800   33.5910   39.9650 N   0  0  0  0  0  0  0  0  0  0  0  0
   36.8010   33.8800   39.4580 H   0  0  0  0  0  0  0  0  0  0  0  0
   36.1630   31.5850   40.0090 H   0  0  0  0  0  0  0  0  0  0  0  0
   40.8140   32.9360   40.5520 H   0  0  0  0  0  0  0  0  0  0  0  0
   38.1620   29.0330   38.6840 N   0  0  2  0  0  0  0  0  0  0  0  0
   36.9460   28.7500   37.9990 C   0  0  0  0  0  3  0  0  0  0  0  0
   36.0710   29.0840   38.5680 H   0  0  0  0  0  0  0  0  0  0  0  0
   37.0010   29.5210   36.6860 C   0  0  0  0  0  3  0  0  0  0  0  0
   37.4370   30.5050   36.8760 H   0  0  0  0  0  0  0  0  0  0  0  0
   37.9720   28.8130   35.8490 N   0  0  0  0  0  0  0  0  0  0  0  0
   38.3230   29.3630   35.0590 H   0  0  0  0  0  0  0  0  0  0  0  0
   38.9650   28.1230   36.6130 C   0  0  0  0  0  2  0  0  0  0  0  0
   39.3290   28.7930   37.8960 C   0  0  0  0  0  2  0  0  0  0  0  0
  1  2  1  0  0  0  0
  2  3  1  0  0  0  0
  2  7  1  0  0  0  0
  3 10  1  0  0  0  0
  3  9  1  0  0  0  0
  4 11  1  0  0  0  0
  4 12  1  0  0  0  0
  4  3  1  0  0  0  0
  5  4  1  0  0  0  0
  6 15  1  1  0  0  0
  6  5  1  0  0  0  0
  6  1  1  0  0  0  0
  8  2  1  0  0  0  0
 13  5  1  0  0  0  0
 14  5  1  0  0  0  0
 16 21  2  0  0  0  0
 16 17  1  0  0  0  0
 17 18  2  0  0  0  0
 18 19  1  0  0  0  0
 18  1  1  0  0  0  0
 20 24  1  0  0  0  0
 20 19  2  0  0  0  0
 21 20  1  0  0  0  0
 22 16  1  0  0  0  0
 23 17  1  0  0  0  0
 25 33  1  6  0  0  0
 25  6  1  0  0  0  0
 26 27  1  0  0  0  0
 26 25  1  0  0  0  0
 28 29  1  0  0  0  0
 28 26  1  0  0  0  0
 30 32  1  0  0  0  0
 30 28  1  0  0  0  0
 31 30  1  0  0  0  0
 32 33  1  0  0  0  0
M  END
>  <minimizedAffinity>
-4.38772583

$$$$

 OpenBabel03252502223D

 33 35  0  0  1  0  0  0  0  0999 V2000
   38.2020   27.7790   39.5090 N   0  0  0  0  0  0  0  0  0  0  0  0
   37.8080   26.6960   38.6170 C   0  0  0  0  0  0  0  0  0  0  0  0
   38.8200   26.7620   37.4550 C   0  0  0  0  0  0  0  0  0  0  0  0
   38.6400   28.0330   36.7000 C   0  0  0  0  0  0  0  0  0  0  0  0
   38.3700   29.2270   37.5240 C   0  0  0  0  0  0  0  0  0  0  0  0
   38.6110   29.0490   38.9910 C   0  0  1  0  0  0  0  0  0  0  0  0
   37.9070   25.7370   39.1300 H   0  0  0  0  0  0  0  0  0  0  0  0
   36.8210   26.8550   38.1450 H   0  0  0  0  0  0  0  0  0  0  0  0
   38.7490   25.8900   36.7950 H   0  0  0  0  0  0  0  0  0  0  0  0
   39.8200   26.8360   37.9680 H   0  0  0  0  0  0  0  0  0  0  0  0
   37.7500   27.8800   36.0280 H   0  0  0  0  0  0  0  0  0  0  0  0
   39.5290   28.1430   36.0210 H   0  0  0  0  0  0  0  0  0  0  0  0
   39.0620   30.0500   37.1760 H   0  0  0  0  0  0  0  0  0  0  0  0
   37.3430   29.6580   37.3660 H   0  0  0  0  0  0  0  0  0  0  0  0
   39.7340   29.0770   39.1150 H   0  0  0  0  0  0  0  0  0  0  0  0
   37.1050   27.1850   43.0270 C   0  0  0  0  0  0  0  0  0  0  0  0
   37.0310   27.3340   41.6410 C   0  0  0  0  0  0  0  0  0  0  0  0
   38.1930   27.6140   40.9130 C   0  0  0  0  0  0  0  0  0  0  0  0
   39.3440   27.7250   41.6240 N   0  0  0  0  0  0  0  0  0  0  0  0
   39.3940   27.5760   42.9700 C   0  0  0  0  0  0  0  0  0  0  0  0
   38.2640   27.3060   43.6650 N   0  0  0  0  0  0  0  0  0  0  0  0
   36.1400   26.9720   43.4710 H   0  0  0  0  0  0  0  0  0  0  0  0
   36.1380   27.2530   41.0420 H   0  0  0  0  0  0  0  0  0  0  0  0
   40.3460   27.6790   43.4620 H   0  0  0  0  0  0  0  0  0  0  0  0
   38.0930   30.0990   39.7870 N   0  0  2  0  0  0  0  0  0  0  0  0
   36.7290   30.4390   39.5600 C   0  0  0  0  0  3  0  0  0  0  0  0
   36.0830   29.5540   39.5670 H   0  0  0  0  0  0  0  0  0  0  0  0
   36.3170   31.3560   40.7050 C   0  0  0  0  0  3  0  0  0  0  0  0
   36.7570   30.9780   41.6320 H   0  0  0  0  0  0  0  0  0  0  0  0
   36.9770   32.6380   40.4460 N   0  0  0  0  0  0  0  0  0  0  0  0
   37.0260   33.2550   41.2620 H   0  0  0  0  0  0  0  0  0  0  0  0
   38.1910   32.4960   39.7030 C   0  0  0  0  0  2  0  0  0  0  0  0
   38.9390   31.2350   39.9790 C   0  0  0  0  0  2  0  0  0  0  0  0
  1 18  1  0  0  0  0
  2  7  1  0  0  0  0
  2  1  1  0  0  0  0
  3 10  1  0  0  0  0
  3  2  1  0  0  0  0
  4  3  1  0  0  0  0
  4  5  1  0  0  0  0
  5  6  1  0  0  0  0
  6 15  1  1  0  0  0
  6  1  1  0  0  0  0
  6 25  1  0  0  0  0
  8  2  1  0  0  0  0
  9  3  1  0  0  0  0
 11  4  1  0  0  0  0
 12  4  1  0  0  0  0
 13  5  1  0  0  0  0
 14  5  1  0  0  0  0
 16 22  1  0  0  0  0
 16 21  1  0  0  0  0
 17 16  2  0  0  0  0
 18 19  2  0  0  0  0
 18 17  1  0  0  0  0
 19 20  1  0  0  0  0
 20 24  1  0  0  0  0
 20 21  2  0  0  0  0
 23 17  1  0  0  0  0
 25 33  1  6  0  0  0
 26 27  1  0  0  0  0
 26 25  1  0  0  0  0
 26 28  1  0  0  0  0
 28 29  1  0  0  0  0
 30 28  1  0  0  0  0
 30 31  1  0  0  0  0
 32 33  1  0  0  0  0
 32 30  1  0  0  0  0
M  END
>  <minimizedAffinity>
-4.38089609

$$$$

 OpenBabel03252502223D

 33 35  0  0  1  0  0  0  0  0999 V2000
   39.9560   29.7320   42.1330 N   0  0  0  0  0  0  0  0  0  0  0  0
   41.3580   29.4740   42.4340 C   0  0  0  0  0  0  0  0  0  0  0  0
   41.8860   30.8060   43.0050 C   0  0  0  0  0  0  0  0  0  0  0  0
   41.8550   31.8550   41.9490 C   0  0  0  0  0  0  0  0  0  0  0  0
   40.6700   31.8360   41.0710 C   0  0  0  0  0  0  0  0  0  0  0  0
   39.5440   30.9720   41.5480 C   0  0  1  0  0  0  0  0  0  0  0  0
   41.4370   28.6960   43.1970 H   0  0  0  0  0  0  0  0  0  0  0  0
   41.9720   29.2860   41.5340 H   0  0  0  0  0  0  0  0  0  0  0  0
   42.8860   30.7020   43.4390 H   0  0  0  0  0  0  0  0  0  0  0  0
   41.1110   31.1000   43.7690 H   0  0  0  0  0  0  0  0  0  0  0  0
   42.7580   31.6790   41.3010 H   0  0  0  0  0  0  0  0  0  0  0  0
   42.0250   32.8420   42.4590 H   0  0  0  0  0  0  0  0  0  0  0  0
   40.2690   32.8910   41.0090 H   0  0  0  0  0  0  0  0  0  0  0  0
   40.9090   31.5790   40.0020 H   0  0  0  0  0  0  0  0  0  0  0  0
   39.0560   31.5520   42.3850 H   0  0  0  0  0  0  0  0  0  0  0  0
   37.0580   27.9250   43.6390 C   0  0  0  0  0  0  0  0  0  0  0  0
   38.0150   28.9200   43.4320 C   0  0  0  0  0  0  0  0  0  0  0  0
   38.9560   28.7700   42.4070 C   0  0  0  0  0  0  0  0  0  0  0  0
   38.8730   27.6380   41.6650 N   0  0  0  0  0  0  0  0  0  0  0  0
   37.9350   26.6830   41.8830 C   0  0  0  0  0  0  0  0  0  0  0  0
   37.0300   26.8370   42.8770 N   0  0  0  0  0  0  0  0  0  0  0  0
   36.3900   28.1590   44.4590 H   0  0  0  0  0  0  0  0  0  0  0  0
   38.1130   29.8320   43.9990 H   0  0  0  0  0  0  0  0  0  0  0  0
   37.9350   25.8120   41.2500 H   0  0  0  0  0  0  0  0  0  0  0  0
   38.5400   30.7510   40.5740 N   0  0  2  0  0  0  0  0  0  0  0  0
   39.0020   30.4820   39.2530 C   0  0  0  0  0  3  0  0  0  0  0  0
   39.7710   29.7010   39.2430 H   0  0  0  0  0  0  0  0  0  0  0  0
   37.7930   29.9890   38.4670 C   0  0  0  0  0  3  0  0  0  0  0  0
   37.2050   29.3270   39.1080 H   0  0  0  0  0  0  0  0  0  0  0  0
   36.9560   31.1700   38.2420 N   0  0  0  0  0  0  0  0  0  0  0  0
   35.9900   30.9540   37.9800 H   0  0  0  0  0  0  0  0  0  0  0  0
   37.1150   32.1640   39.2580 C   0  0  0  0  0  2  0  0  0  0  0  0
   37.4050   31.6170   40.6150 C   0  0  0  0  0  2  0  0  0  0  0  0
  1 18  1  0  0  0  0
  1  2  1  0  0  0  0
  2  3  1  0  0  0  0
  2  7  1  0  0  0  0
  3  9  1  0  0  0  0
  3 10  1  0  0  0  0
  4 12  1  0  0  0  0
  4  3  1  0  0  0  0
  5  6  1  0  0  0  0
  5  4  1  0  0  0  0
  6  1  1  0  0  0  0
  6 15  1  1  0  0  0
  8  2  1  0  0  0  0
 11  4  1  0  0  0  0
 13  5  1  0  0  0  0
 14  5  1  0  0  0  0
 16 22  1  0  0  0  0
 17 16  1  0  0  0  0
 17 23  1  0  0  0  0
 18 17  2  0  0  0  0
 19 20  2  0  0  0  0
 19 18  1  0  0  0  0
 20 21  1  0  0  0  0
 21 16  2  0  0  0  0
 24 20  1  0  0  0  0
 25 33  1  6  0  0  0
 25  6  1  0  0  0  0
 26 25  1  0  0  0  0
 27 26  1  0  0  0  0
 28 29  1  0  0  0  0
 28 26  1  0  0  0  0
 30 28  1  0  0  0  0
 30 32  1  0  0  0  0
 31 30  1  0  0  0  0
 32 33  1  0  0  0  0
M  END
>  <minimizedAffinity>
-4.36180782

$$$$

 OpenBabel03252502223D

 33 35  0  0  1  0  0  0  0  0999 V2000
   38.0550   30.5270   40.7430 N   0  0  0  0  0  0  0  0  0  0  0  0
   38.8650   31.7360   40.6960 C   0  0  0  0  0  0  0  0  0  0  0  0
   37.8620   32.8650   40.3820 C   0  0  0  0  0  0  0  0  0  0  0  0
   37.2940   32.6700   39.0200 C   0  0  0  0  0  0  0  0  0  0  0  0
   36.9860   31.2740   38.6540 C   0  0  0  0  0  0  0  0  0  0  0  0
   37.0070   30.3040   39.7940 C   0  0  1  0  0  0  0  0  0  0  0  0
   39.3200   31.9180   41.6730 H   0  0  0  0  0  0  0  0  0  0  0  0
   39.5830   31.7510   39.8550 H   0  0  0  0  0  0  0  0  0  0  0  0
   38.3090   33.8580   40.4920 H   0  0  0  0  0  0  0  0  0  0  0  0
   37.0170   32.6880   41.1070 H   0  0  0  0  0  0  0  0  0  0  0  0
   38.0700   33.0450   38.2950 H   0  0  0  0  0  0  0  0  0  0  0  0
   36.4160   33.3660   38.9250 H   0  0  0  0  0  0  0  0  0  0  0  0
   35.9410   31.2510   38.2240 H   0  0  0  0  0  0  0  0  0  0  0  0
   37.6270   30.8780   37.8180 H   0  0  0  0  0  0  0  0  0  0  0  0
   36.0460   30.4870   40.3590 H   0  0  0  0  0  0  0  0  0  0  0  0
   39.5780   27.7860   42.7690 C   0  0  0  0  0  0  0  0  0  0  0  0
   39.4350   28.7480   41.7670 C   0  0  0  0  0  0  0  0  0  0  0  0
   38.2760   29.5310   41.7230 C   0  0  0  0  0  0  0  0  0  0  0  0
   37.3450   29.2960   42.6820 N   0  0  0  0  0  0  0  0  0  0  0  0
   37.5050   28.3550   43.6460 C   0  0  0  0  0  0  0  0  0  0  0  0
   38.6280   27.6020   43.6800 N   0  0  0  0  0  0  0  0  0  0  0  0
   40.5160   27.2480   42.6920 H   0  0  0  0  0  0  0  0  0  0  0  0
   40.1500   28.9650   40.9900 H   0  0  0  0  0  0  0  0  0  0  0  0
   36.7190   28.2280   44.3720 H   0  0  0  0  0  0  0  0  0  0  0  0
   36.9820   28.9470   39.3910 N   0  0  2  0  0  0  0  0  0  0  0  0
   37.7690   28.6210   38.2490 C   0  0  0  0  0  3  0  0  0  0  0  0
   38.7890   29.0130   38.3330 H   0  0  0  0  0  0  0  0  0  0  0  0
   37.8310   27.1000   38.1870 C   0  0  0  0  0  3  0  0  0  0  0  0
   37.9500   26.7130   39.2030 H   0  0  0  0  0  0  0  0  0  0  0  0
   36.5010   26.6650   37.7510 N   0  0  0  0  0  0  0  0  0  0  0  0
   36.3040   25.6770   37.9340 H   0  0  0  0  0  0  0  0  0  0  0  0
   35.4680   27.5820   38.1240 C   0  0  0  0  0  2  0  0  0  0  0  0
   35.7110   28.2940   39.4120 C   0  0  0  0  0  2  0  0  0  0  0  0
  1 18  1  0  0  0  0
  2  1  1  0  0  0  0
  2  7  1  0  0  0  0
  3  9  1  0  0  0  0
  3  2  1  0  0  0  0
  3 10  1  0  0  0  0
  4  3  1  0  0  0  0
  5  4  1  0  0  0  0
  5  6  1  0  0  0  0
  6 15  1  1  0  0  0
  6  1  1  0  0  0  0
  8  2  1  0  0  0  0
 11  4  1  0  0  0  0
 12  4  1  0  0  0  0
 13  5  1  0  0  0  0
 14  5  1  0  0  0  0
 16 21  1  0  0  0  0
 17 16  2  0  0  0  0
 18 17  1  0  0  0  0
 18 19  2  0  0  0  0
 19 20  1  0  0  0  0
 20 21  2  0  0  0  0
 20 24  1  0  0  0  0
 22 16  1  0  0  0  0
 23 17  1  0  0  0  0
 25 33  1  6  0  0  0
 25  6  1  0  0  0  0
 26 27  1  0  0  0  0
 26 25  1  0  0  0  0
 28 26  1  0  0  0  0
 28 29  1  0  0  0  0
 30 31  1  0  0  0  0
 30 32  1  0  0  0  0
 30 28  1  0  0  0  0
 32 33  1  0  0  0  0
M  END
>  <minimizedAffinity>
-4.32563066

$$$$

 OpenBabel03252502223D

 33 35  0  0  1  0  0  0  0  0999 V2000
   36.7150   28.9200   40.1700 N   0  0  0  0  0  0  0  0  0  0  0  0
   35.2790   28.8530   39.9380 C   0  0  0  0  0  0  0  0  0  0  0  0
   35.1420   28.5180   38.4390 C   0  0  0  0  0  0  0  0  0  0  0  0
   35.6600   29.6490   37.6200 C   0  0  0  0  0  0  0  0  0  0  0  0
   36.8850   30.2940   38.1330 C   0  0  0  0  0  0  0  0  0  0  0  0
   37.5870   29.5400   39.2190 C   0  0  1  0  0  0  0  0  0  0  0  0
   34.8440   28.0440   40.5300 H   0  0  0  0  0  0  0  0  0  0  0  0
   34.7690   29.8260   40.0610 H   0  0  0  0  0  0  0  0  0  0  0  0
   34.1120   28.2640   38.1640 H   0  0  0  0  0  0  0  0  0  0  0  0
   35.8550   27.6600   38.2840 H   0  0  0  0  0  0  0  0  0  0  0  0
   34.8490   30.4290   37.6060 H   0  0  0  0  0  0  0  0  0  0  0  0
   35.7540   29.2760   36.5630 H   0  0  0  0  0  0  0  0  0  0  0  0
   37.6130   30.3850   37.2730 H   0  0  0  0  0  0  0  0  0  0  0  0
   36.7260   31.3580   38.4620 H   0  0  0  0  0  0  0  0  0  0  0  0
   38.1180   28.6890   38.6980 H   0  0  0  0  0  0  0  0  0  0  0  0
   38.5660   26.7110   42.5430 C   0  0  0  0  0  0  0  0  0  0  0  0
   38.0210   27.1800   41.3470 C   0  0  0  0  0  0  0  0  0  0  0  0
   37.2980   28.3780   41.3390 C   0  0  0  0  0  0  0  0  0  0  0  0
   37.1700   29.0200   42.5280 N   0  0  0  0  0  0  0  0  0  0  0  0
   37.7070   28.5460   43.6800 C   0  0  0  0  0  0  0  0  0  0  0  0
   38.4050   27.3870   43.6760 N   0  0  0  0  0  0  0  0  0  0  0  0
   39.1000   25.7780   42.4150 H   0  0  0  0  0  0  0  0  0  0  0  0
   38.1010   26.7010   40.3840 H   0  0  0  0  0  0  0  0  0  0  0  0
   37.5620   29.1130   44.5840 H   0  0  0  0  0  0  0  0  0  0  0  0
   38.5890   30.2910   39.8800 N   0  0  2  0  0  0  0  0  0  0  0  0
   38.2710   31.6540   40.1490 C   0  0  0  0  0  3  0  0  0  0  0  0
   37.2900   31.7550   40.6270 H   0  0  0  0  0  0  0  0  0  0  0  0
   39.3390   32.1640   41.1090 C   0  0  0  0  0  3  0  0  0  0  0  0
   39.5570   31.3810   41.8390 H   0  0  0  0  0  0  0  0  0  0  0  0
   40.5570   32.3080   40.3080 N   0  0  0  0  0  0  0  0  0  0  0  0
   41.4170   32.3690   40.8610 H   0  0  0  0  0  0  0  0  0  0  0  0
   40.5990   31.4100   39.1950 C   0  0  0  0  0  2  0  0  0  0  0  0
   39.9330   30.0970   39.4380 C   0  0  0  0  0  2  0  0  0  0  0  0
  1 18  1  0  0  0  0
  2  8  1  0  0  0  0
  2  1  1  0  0  0  0
  2  7  1  0  0  0  0
  3  2  1  0  0  0  0
  4  5  1  0  0  0  0
  4  3  1  0  0  0  0
  5 14  1  0  0  0  0
  5  6  1  0  0  0  0
  6 15  1  6  0  0  0
  6 25  1  0  0  0  0
  6  1  1  0  0  0  0
  9  3  1  0  0  0  0
 10  3  1  0  0  0  0
 11  4  1  0  0  0  0
 12  4  1  0  0  0  0
 13  5  1  0  0  0  0
 16 21  1  0  0  0  0
 17 16  2  0  0  0  0
 18 17  1  0  0  0  0
 18 19  2  0  0  0  0
 19 20  1  0  0  0  0
 20 24  1  0  0  0  0
 21 20  2  0  0  0  0
 22 16  1  0  0  0  0
 23 17  1  0  0  0  0
 25 33  1  6  0  0  0
 25 26  1  0  0  0  0
 26 27  1  0  0  0  0
 26 28  1  0  0  0  0
 28 29  1  0  0  0  0
 30 31  1  0  0  0  0
 30 28  1  0  0  0  0
 32 33  1  0  0  0  0
 32 30  1  0  0  0  0
M  END
>  <minimizedAffinity>
-4.32053375

$$$$
