
 OpenBabel03252501243D

 35 38  0  0  0  0  0  0  0  0999 V2000
   45.0240   32.4860   40.6100 F   0  0  0  0  0  0  0  0  0  0  0  0
   44.7090   33.6490   41.2220 C   0  0  0  0  0  0  0  0  0  0  0  0
   45.2520   33.9420   42.4400 C   0  0  0  0  0  0  0  0  0  0  0  0
   44.9340   35.1310   43.0720 C   0  0  0  0  0  0  0  0  0  0  0  0
   44.0720   36.0520   42.5100 C   0  0  0  0  0  0  0  0  0  0  0  0
   43.5400   35.7380   41.2900 C   0  0  0  0  0  0  0  0  0  0  0  0
   43.8430   34.5560   40.6380 C   0  0  0  0  0  0  0  0  0  0  0  0
   45.3520   35.3930   44.0480 H   0  0  0  0  0  0  0  0  0  0  0  0
   43.8380   36.9720   43.0200 H   0  0  0  0  0  0  0  0  0  0  0  0
   42.8640   36.4760   40.8650 H   0  0  0  0  0  0  0  0  0  0  0  0
   43.2470   34.2910   39.3570 N   0  0  0  0  0  0  0  0  0  0  0  0
   42.1560   34.9470   38.6480 C   0  0  0  0  0  0  0  0  0  0  0  0
   42.5020   35.5220   37.7610 H   0  0  0  0  0  0  0  0  0  0  0  0
   41.0470   33.9830   38.3060 C   0  0  0  0  0  0  0  0  0  0  0  0
   40.4410   34.4640   37.5020 H   0  0  0  0  0  0  0  0  0  0  0  0
   41.4760   32.7100   37.8450 N   0  0  0  0  0  0  0  0  0  0  0  0
   41.4030   32.5130   36.8440 H   0  0  0  0  0  0  0  0  0  0  0  0
   42.6450   32.1650   38.4700 C   0  0  0  0  0  0  0  0  0  0  0  0
   43.7500   33.1970   38.5490 C   0  0  0  0  0  0  0  0  0  0  0  0
   46.9710   32.0800   44.8840 C   0  0  0  0  0  0  0  0  0  0  0  0
   47.7100   31.7600   43.7480 C   0  0  0  0  0  0  0  0  0  0  0  0
   47.1780   32.4060   42.6730 C   0  0  0  0  0  0  0  0  0  0  0  0
   46.1400   33.1060   43.1300 N   0  0  0  0  0  0  0  0  0  0  0  0
   46.0220   32.9050   44.4580 N   0  0  0  0  0  0  0  0  0  0  0  0
   48.5750   31.1010   43.7120 H   0  0  0  0  0  0  0  0  0  0  0  0
   47.4570   32.4210   41.6270 H   0  0  0  0  0  0  0  0  0  0  0  0
   47.7810   29.8220   47.6540 C   0  0  0  0  0  0  0  0  0  0  0  0
   47.7270   30.6900   48.7650 C   0  0  0  0  0  0  0  0  0  0  0  0
   47.4150   32.0400   48.5540 C   0  0  0  0  0  0  0  0  0  0  0  0
   47.1870   32.3960   47.2730 N   0  0  0  0  0  0  0  0  0  0  0  0
   47.2360   31.5820   46.2210 C   0  0  0  0  0  0  0  0  0  0  0  0
   47.5360   30.2720   46.3990 N   0  0  0  0  0  0  0  0  0  0  0  0
   48.0270   28.7860   47.8660 H   0  0  0  0  0  0  0  0  0  0  0  0
   47.9200   30.3410   49.7540 H   0  0  0  0  0  0  0  0  0  0  0  0
   47.3650   32.7350   49.3820 H   0  0  0  0  0  0  0  0  0  0  0  0
  1  2  1  0  0  0  0
  2  3  1  0  0  0  0
  3  4  2  0  0  0  0
  3 23  1  0  0  0  0
  4  8  1  0  0  0  0
  5  9  1  0  0  0  0
  5  4  1  0  0  0  0
  6  5  2  0  0  0  0
  7  2  2  0  0  0  0
  7  6  1  0  0  0  0
 10  6  1  0  0  0  0
 11  7  1  0  0  0  0
 12 11  1  0  0  0  0
 13 12  1  0  0  0  0
 14 12  1  0  0  0  0
 15 14  1  0  0  0  0
 16 14  1  0  0  0  0
 16 18  1  0  0  0  0
 17 16  1  0  0  0  0
 18 19  1  0  0  0  0
 19 11  1  0  0  0  0
 20 31  1  0  0  0  0
 21 20  1  0  0  0  0
 22 23  1  0  0  0  0
 22 21  2  0  0  0  0
 23 24  1  0  0  0  0
 24 20  2  0  0  0  0
 25 21  1  0  0  0  0
 26 22  1  0  0  0  0
 27 33  1  0  0  0  0
 27 28  1  0  0  0  0
 28 34  1  0  0  0  0
 29 28  2  0  0  0  0
 29 35  1  0  0  0  0
 30 29  1  0  0  0  0
 31 32  1  0  0  0  0
 31 30  2  0  0  0  0
 32 27  2  0  0  0  0
M  END
>  <minimizedAffinity>
-5.11008453

>  <minimizedRMSD>
1.6070503

$$$$
