
 OpenBabel03252508303D

 32 34  0  0  1  0  0  0  0  0999 V2000
   44.6550   34.5090   41.9990 N   0  0  0  0  0  0  0  0  0  0  0  0
   45.1300   33.5590   41.0570 C   0  0  1  0  0  0  0  0  0  0  0  0
   44.7050   33.7980   39.6460 C   0  0  0  0  0  0  0  0  0  0  0  0
   43.3720   34.2110   39.4880 N   0  0  0  0  0  0  0  0  0  0  0  0
   42.8750   35.1330   40.4400 C   0  0  0  0  0  0  0  0  0  0  0  0
   43.9520   35.6090   41.3990 C   0  0  0  0  0  0  0  0  0  0  0  0
   44.6770   32.5700   41.3420 H   0  0  0  0  0  0  0  0  0  0  0  0
   45.3510   34.6290   39.2390 H   0  0  0  0  0  0  0  0  0  0  0  0
   44.9260   32.9160   39.0280 H   0  0  0  0  0  0  0  0  0  0  0  0
   42.7430   33.3600   39.4800 H   0  0  0  0  0  0  0  0  0  0  0  0
   41.9860   34.7910   41.0210 H   0  0  0  0  0  0  0  0  0  0  0  0
   42.5390   36.0330   39.8750 H   0  0  0  0  0  0  0  0  0  0  0  0
   44.6620   36.2180   40.7600 H   0  0  0  0  0  0  0  0  0  0  0  0
   43.5170   36.3380   42.0800 H   0  0  0  0  0  0  0  0  0  0  0  0
   44.5450   35.3390   44.2380 C   0  0  0  0  0  0  0  0  0  0  0  0
   44.8950   34.3100   43.3690 C   0  0  0  0  0  0  0  0  0  0  0  0
   45.4540   33.1790   43.9330 C   0  0  0  0  0  0  0  0  0  0  0  0
   45.6440   33.0920   45.2730 N   0  0  0  0  0  0  0  0  0  0  0  0
   45.2870   34.1220   46.0900 C   0  0  0  0  0  0  0  0  0  0  0  0
   44.7450   35.2310   45.5710 N   0  0  0  0  0  0  0  0  0  0  0  0
   44.1000   36.2930   44.0000 H   0  0  0  0  0  0  0  0  0  0  0  0
   45.7340   32.3640   43.2840 H   0  0  0  0  0  0  0  0  0  0  0  0
   45.4750   33.9690   47.1430 H   0  0  0  0  0  0  0  0  0  0  0  0
   46.5360   33.3400   41.0040 N   0  0  2  0  0  0  0  0  0  0  0  0
   47.3610   34.4840   40.7670 C   0  0  0  0  0  3  0  0  0  0  0  0
   46.8960   35.4540   40.8740 H   0  0  0  0  0  0  0  0  0  0  0  0
   48.1210   34.2940   39.4700 C   0  0  0  0  0  3  0  0  0  0  0  0
   48.6870   35.2350   39.2460 H   0  0  0  0  0  0  0  0  0  0  0  0
   49.0560   33.1920   39.6020 N   0  0  0  0  0  0  0  0  0  0  0  0
   49.2450   32.8170   38.6400 H   0  0  0  0  0  0  0  0  0  0  0  0
   48.4610   32.1010   40.3400 C   0  0  0  0  0  2  0  0  0  0  0  0
   46.9300   32.1800   40.2500 C   0  0  0  0  0  2  0  0  0  0  0  0
  1 16  1  0  0  0  0
  2  7  1  1  0  0  0
  2  1  1  0  0  0  0
  3  2  1  0  0  0  0
  4  3  1  0  0  0  0
  4  5  1  0  0  0  0
  5 11  1  0  0  0  0
  5  6  1  0  0  0  0
  6  1  1  0  0  0  0
  6 14  1  0  0  0  0
  8  3  1  0  0  0  0
  9  3  1  0  0  0  0
 10  4  1  0  0  0  0
 12  5  1  0  0  0  0
 13  6  1  0  0  0  0
 15 20  1  0  0  0  0
 16 17  1  0  0  0  0
 16 15  2  0  0  0  0
 17 18  2  0  0  0  0
 18 19  1  0  0  0  0
 19 23  1  0  0  0  0
 20 19  2  0  0  0  0
 21 15  1  0  0  0  0
 22 17  1  0  0  0  0
 24 32  1  6  0  0  0
 24  2  1  0  0  0  0
 25 26  1  0  0  0  0
 25 24  1  0  0  0  0
 27 29  1  0  0  0  0
 27 25  1  0  0  0  0
 28 27  1  0  0  0  0
 29 31  1  0  0  0  0
 30 29  1  0  0  0  0
 32 31  1  0  0  0  0
M  END
>  <minimizedAffinity>
-4.50836849

>  <minimizedRMSD>
0.899209738

$$$$
