
 OpenBabel03252505223D

 28 30  0  0  0  0  0  0  0  0999 V2000
   40.2820   30.2750   40.1200 F   0  0  0  0  0  0  0  0  0  0  0  0
   39.1900   31.0700   40.0180 C   0  0  0  0  0  0  0  0  0  0  0  0
   38.0360   30.6820   40.6820 C   0  0  0  0  0  0  0  0  0  0  0  0
   36.9290   31.4690   40.5900 C   0  0  0  0  0  0  0  0  0  0  0  0
   36.9500   32.6350   39.8500 C   0  0  0  0  0  0  0  0  0  0  0  0
   38.0740   33.0430   39.1860 C   0  0  0  0  0  0  0  0  0  0  0  0
   39.2030   32.2400   39.2770 C   0  0  0  0  0  0  0  0  0  0  0  0
   35.9900   31.2390   41.0780 H   0  0  0  0  0  0  0  0  0  0  0  0
   36.1020   33.2970   39.7430 H   0  0  0  0  0  0  0  0  0  0  0  0
   38.2430   33.9110   38.5790 H   0  0  0  0  0  0  0  0  0  0  0  0
   38.0600   28.4030   43.5510 C   0  0  0  0  0  0  0  0  0  0  0  0
   37.9840   27.1320   42.9480 C   0  0  0  0  0  0  0  0  0  0  0  0
   37.9250   27.0880   41.5580 C   0  0  0  0  0  0  0  0  0  0  0  0
   37.9440   28.2610   40.8660 N   0  0  0  0  0  0  0  0  0  0  0  0
   38.0170   29.4530   41.4620 C   0  0  0  0  0  0  0  0  0  0  0  0
   38.0760   29.5170   42.8080 N   0  0  0  0  0  0  0  0  0  0  0  0
   38.1040   28.3930   44.6330 H   0  0  0  0  0  0  0  0  0  0  0  0
   37.9650   26.1840   43.4260 H   0  0  0  0  0  0  0  0  0  0  0  0
   37.8630   26.2260   40.9090 H   0  0  0  0  0  0  0  0  0  0  0  0
   40.4390   32.5430   38.6380 N   0  0  0  0  0  0  0  0  0  0  0  0
   41.3020   33.5380   39.2360 C   0  0  0  0  0  3  0  0  0  0  0  0
   40.6330   34.3250   39.6530 H   0  0  0  0  0  0  0  0  0  0  0  0
   42.2440   34.1610   38.2480 C   0  0  0  0  0  3  0  0  0  0  0  0
   43.2970   34.0690   38.5950 H   0  0  0  0  0  0  0  0  0  0  0  0
   42.1980   33.5840   36.9300 N   0  0  0  0  0  0  0  0  0  0  0  0
   43.0580   33.8730   36.4200 H   0  0  0  0  0  0  0  0  0  0  0  0
   42.0850   32.1550   36.9310 C   0  0  0  0  0  2  0  0  0  0  0  0
   40.7020   31.7980   37.4210 C   0  0  0  0  0  2  0  0  0  0  0  0
  2  1  1  0  0  0  0
  2  3  1  0  0  0  0
  3 15  1  0  0  0  0
  4  3  2  0  0  0  0
  4  8  1  0  0  0  0
  5  4  1  0  0  0  0
  6  7  1  0  0  0  0
  6  5  2  0  0  0  0
  7  2  2  0  0  0  0
  9  5  1  0  0  0  0
 10  6  1  0  0  0  0
 11 17  1  0  0  0  0
 12 18  1  0  0  0  0
 12 11  1  0  0  0  0
 13 12  2  0  0  0  0
 14 15  2  0  0  0  0
 14 13  1  0  0  0  0
 15 16  1  0  0  0  0
 16 11  2  0  0  0  0
 19 13  1  0  0  0  0
 20 21  1  0  0  0  0
 20  7  1  0  0  0  0
 21 22  1  0  0  0  0
 23 24  1  0  0  0  0
 23 21  1  0  0  0  0
 25 27  1  0  0  0  0
 25 23  1  0  0  0  0
 26 25  1  0  0  0  0
 27 28  1  0  0  0  0
 28 20  1  0  0  0  0
M  END
>  <minimizedAffinity>
-5.15534782

$$$$

 OpenBabel03252505223D

 28 30  0  0  0  0  0  0  0  0999 V2000
   37.9070   28.1750   39.6730 F   0  0  0  0  0  0  0  0  0  0  0  0
   37.6700   28.0600   41.0010 C   0  0  0  0  0  0  0  0  0  0  0  0
   37.4470   26.7910   41.5170 C   0  0  0  0  0  0  0  0  0  0  0  0
   37.2060   26.6560   42.8500 C   0  0  0  0  0  0  0  0  0  0  0  0
   37.1840   27.7610   43.6800 C   0  0  0  0  0  0  0  0  0  0  0  0
   37.4010   29.0230   43.1990 C   0  0  0  0  0  0  0  0  0  0  0  0
   37.6450   29.1620   41.8390 C   0  0  0  0  0  0  0  0  0  0  0  0
   37.0240   25.7040   43.3300 H   0  0  0  0  0  0  0  0  0  0  0  0
   36.9980   27.7120   44.7430 H   0  0  0  0  0  0  0  0  0  0  0  0
   37.4150   29.9650   43.7110 H   0  0  0  0  0  0  0  0  0  0  0  0
   38.6220   23.7740   39.8010 C   0  0  0  0  0  0  0  0  0  0  0  0
   37.5290   23.4280   38.9830 C   0  0  0  0  0  0  0  0  0  0  0  0
   36.4050   24.2460   39.0400 C   0  0  0  0  0  0  0  0  0  0  0  0
   36.4220   25.3230   39.8730 N   0  0  0  0  0  0  0  0  0  0  0  0
   37.4710   25.6290   40.6400 C   0  0  0  0  0  0  0  0  0  0  0  0
   38.5710   24.8490   40.5980 N   0  0  0  0  0  0  0  0  0  0  0  0
   39.4760   23.1130   39.7260 H   0  0  0  0  0  0  0  0  0  0  0  0
   37.4510   22.6070   38.3140 H   0  0  0  0  0  0  0  0  0  0  0  0
   35.4730   24.1570   38.5000 H   0  0  0  0  0  0  0  0  0  0  0  0
   37.8860   30.4150   41.2060 N   0  0  0  0  0  0  0  0  0  0  0  0
   39.2460   30.9060   41.1420 C   0  0  0  0  0  3  0  0  0  0  0  0
   39.7320   30.6140   42.1000 H   0  0  0  0  0  0  0  0  0  0  0  0
   39.3180   32.3960   40.9830 C   0  0  0  0  0  3  0  0  0  0  0  0
   39.9310   32.6690   40.0950 H   0  0  0  0  0  0  0  0  0  0  0  0
   38.0440   33.0440   40.8120 N   0  0  0  0  0  0  0  0  0  0  0  0
   38.2140   33.9980   40.4300 H   0  0  0  0  0  0  0  0  0  0  0  0
   37.1450   32.3270   39.9550 C   0  0  0  0  0  2  0  0  0  0  0  0
   36.7070   31.0780   40.6820 C   0  0  0  0  0  2  0  0  0  0  0  0
  1  2  1  0  0  0  0
  2  3  2  0  0  0  0
  2  7  1  0  0  0  0
  3  4  1  0  0  0  0
  4  8  1  0  0  0  0
  4  5  2  0  0  0  0
  5  9  1  0  0  0  0
  6  5  1  0  0  0  0
  6 10  1  0  0  0  0
  7  6  2  0  0  0  0
 11 16  1  0  0  0  0
 12 13  1  0  0  0  0
 12 11  2  0  0  0  0
 13 14  2  0  0  0  0
 14 15  1  0  0  0  0
 15  3  1  0  0  0  0
 16 15  2  0  0  0  0
 17 11  1  0  0  0  0
 18 12  1  0  0  0  0
 19 13  1  0  0  0  0
 20  7  1  0  0  0  0
 21 20  1  0  0  0  0
 21 22  1  0  0  0  0
 23 21  1  0  0  0  0
 24 23  1  0  0  0  0
 25 23  1  0  0  0  0
 26 25  1  0  0  0  0
 27 28  1  0  0  0  0
 27 25  1  0  0  0  0
 28 20  1  0  0  0  0
M  END
>  <minimizedAffinity>
-5.03614807

$$$$

 OpenBabel03252505223D

 28 30  0  0  0  0  0  0  0  0999 V2000
   39.5980   29.4070   40.8800 F   0  0  0  0  0  0  0  0  0  0  0  0
   38.2450   29.3840   40.8050 C   0  0  0  0  0  0  0  0  0  0  0  0
   37.5820   28.2790   41.3190 C   0  0  0  0  0  0  0  0  0  0  0  0
   36.2230   28.2390   41.2520 C   0  0  0  0  0  0  0  0  0  0  0  0
   35.5120   29.2780   40.6830 C   0  0  0  0  0  0  0  0  0  0  0  0
   36.1400   30.3790   40.1690 C   0  0  0  0  0  0  0  0  0  0  0  0
   37.5260   30.4210   40.2360 C   0  0  0  0  0  0  0  0  0  0  0  0
   35.6300   27.4160   41.6300 H   0  0  0  0  0  0  0  0  0  0  0  0
   34.4350   29.2990   40.6030 H   0  0  0  0  0  0  0  0  0  0  0  0
   35.7310   31.2540   39.7020 H   0  0  0  0  0  0  0  0  0  0  0  0
   39.6470   26.3850   43.6800 C   0  0  0  0  0  0  0  0  0  0  0  0
   39.7610   25.1240   43.0620 C   0  0  0  0  0  0  0  0  0  0  0  0
   39.1190   24.9530   41.8390 C   0  0  0  0  0  0  0  0  0  0  0  0
   38.4260   26.0000   41.3120 N   0  0  0  0  0  0  0  0  0  0  0  0
   38.3340   27.1860   41.9190 C   0  0  0  0  0  0  0  0  0  0  0  0
   38.9490   27.3730   43.1050 N   0  0  0  0  0  0  0  0  0  0  0  0
   40.1610   26.4760   44.6290 H   0  0  0  0  0  0  0  0  0  0  0  0
   40.2830   24.2700   43.4160 H   0  0  0  0  0  0  0  0  0  0  0  0
   39.0830   24.0750   41.2090 H   0  0  0  0  0  0  0  0  0  0  0  0
   38.3070   31.5040   39.7400 N   0  0  0  0  0  0  0  0  0  0  0  0
   38.8120   31.4300   38.3870 C   0  0  0  0  0  3  0  0  0  0  0  0
   39.0840   30.3650   38.2100 H   0  0  0  0  0  0  0  0  0  0  0  0
   40.0210   32.2920   38.1700 C   0  0  0  0  0  3  0  0  0  0  0  0
   39.8630   32.9870   37.3160 H   0  0  0  0  0  0  0  0  0  0  0  0
   40.3850   33.1110   39.2980 N   0  0  0  0  0  0  0  0  0  0  0  0
   41.0280   33.8570   38.9630 H   0  0  0  0  0  0  0  0  0  0  0  0
   39.2610   33.6970   39.9680 C   0  0  0  0  0  2  0  0  0  0  0  0
   38.5130   32.5930   40.6770 C   0  0  0  0  0  2  0  0  0  0  0  0
  2  1  1  0  0  0  0
  2  3  1  0  0  0  0
  3 15  1  0  0  0  0
  4  3  2  0  0  0  0
  4  8  1  0  0  0  0
  5  4  1  0  0  0  0
  6  7  1  0  0  0  0
  6  5  2  0  0  0  0
  7  2  2  0  0  0  0
  9  5  1  0  0  0  0
 10  6  1  0  0  0  0
 11 17  1  0  0  0  0
 12 18  1  0  0  0  0
 12 11  2  0  0  0  0
 13 12  1  0  0  0  0
 14 13  2  0  0  0  0
 14 15  1  0  0  0  0
 15 16  2  0  0  0  0
 16 11  1  0  0  0  0
 19 13  1  0  0  0  0
 20  7  1  0  0  0  0
 20 28  1  0  0  0  0
 21 20  1  0  0  0  0
 22 21  1  0  0  0  0
 23 21  1  0  0  0  0
 23 25  1  0  0  0  0
 24 23  1  0  0  0  0
 25 27  1  0  0  0  0
 26 25  1  0  0  0  0
 27 28  1  0  0  0  0
M  END
>  <minimizedAffinity>
-4.83572102

$$$$

 OpenBabel03252505223D

 28 30  0  0  0  0  0  0  0  0999 V2000
   40.2000   29.3350   40.5310 F   0  0  0  0  0  0  0  0  0  0  0  0
   38.9510   29.8350   40.6890 C   0  0  0  0  0  0  0  0  0  0  0  0
   38.0490   29.1080   41.4510 C   0  0  0  0  0  0  0  0  0  0  0  0
   36.7890   29.5950   41.6200 C   0  0  0  0  0  0  0  0  0  0  0  0
   36.4110   30.7930   41.0460 C   0  0  0  0  0  0  0  0  0  0  0  0
   37.2800   31.5310   40.2900 C   0  0  0  0  0  0  0  0  0  0  0  0
   38.5650   31.0350   40.1160 C   0  0  0  0  0  0  0  0  0  0  0  0
   36.0260   29.0910   42.2000 H   0  0  0  0  0  0  0  0  0  0  0  0
   35.4260   31.2260   41.1470 H   0  0  0  0  0  0  0  0  0  0  0  0
   37.1360   32.4670   39.7860 H   0  0  0  0  0  0  0  0  0  0  0  0
   38.3090   25.5120   42.1080 C   0  0  0  0  0  0  0  0  0  0  0  0
   39.2030   25.4510   43.1940 C   0  0  0  0  0  0  0  0  0  0  0  0
   39.7000   26.6580   43.6790 C   0  0  0  0  0  0  0  0  0  0  0  0
   39.3000   27.8160   43.0850 N   0  0  0  0  0  0  0  0  0  0  0  0
   38.4500   27.8460   42.0560 C   0  0  0  0  0  0  0  0  0  0  0  0
   37.9570   26.6880   41.5710 N   0  0  0  0  0  0  0  0  0  0  0  0
   37.9460   24.5530   41.7610 H   0  0  0  0  0  0  0  0  0  0  0  0
   39.5540   24.5870   43.7010 H   0  0  0  0  0  0  0  0  0  0  0  0
   40.3880   26.8280   44.4950 H   0  0  0  0  0  0  0  0  0  0  0  0
   39.5690   31.6990   39.3550 N   0  0  0  0  0  0  0  0  0  0  0  0
   40.4090   32.6720   40.0190 C   0  0  0  0  0  3  0  0  0  0  0  0
   39.7580   33.2060   40.7470 H   0  0  0  0  0  0  0  0  0  0  0  0
   41.0080   33.6670   39.0690 C   0  0  0  0  0  3  0  0  0  0  0  0
   42.1150   33.6940   39.1720 H   0  0  0  0  0  0  0  0  0  0  0  0
   40.7360   33.4090   37.6790 N   0  0  0  0  0  0  0  0  0  0  0  0
   41.4100   33.9600   37.1090 H   0  0  0  0  0  0  0  0  0  0  0  0
   40.8140   32.0220   37.3260 C   0  0  0  0  0  2  0  0  0  0  0  0
   39.6400   31.3130   37.9580 C   0  0  0  0  0  2  0  0  0  0  0  0
  1  2  1  0  0  0  0
  2  3  1  0  0  0  0
  3  4  2  0  0  0  0
  3 15  1  0  0  0  0
  4  8  1  0  0  0  0
  5  9  1  0  0  0  0
  5  4  1  0  0  0  0
  6  5  2  0  0  0  0
  7  6  1  0  0  0  0
  7  2  2  0  0  0  0
 10  6  1  0  0  0  0
 11 12  1  0  0  0  0
 12 13  2  0  0  0  0
 12 18  1  0  0  0  0
 13 19  1  0  0  0  0
 14 13  1  0  0  0  0
 15 14  2  0  0  0  0
 16 15  1  0  0  0  0
 16 11  2  0  0  0  0
 17 11  1  0  0  0  0
 20 21  1  0  0  0  0
 20  7  1  0  0  0  0
 21 22  1  0  0  0  0
 23 24  1  0  0  0  0
 23 21  1  0  0  0  0
 25 23  1  0  0  0  0
 26 25  1  0  0  0  0
 27 25  1  0  0  0  0
 27 28  1  0  0  0  0
 28 20  1  0  0  0  0
M  END
>  <minimizedAffinity>
-4.82846594

$$$$

 OpenBabel03252505223D

 28 30  0  0  0  0  0  0  0  0999 V2000
   40.2880   30.2780   41.2480 F   0  0  0  0  0  0  0  0  0  0  0  0
   39.3510   31.1400   40.7850 C   0  0  0  0  0  0  0  0  0  0  0  0
   38.0160   30.8230   40.9880 C   0  0  0  0  0  0  0  0  0  0  0  0
   37.0610   31.6780   40.5290 C   0  0  0  0  0  0  0  0  0  0  0  0
   37.4100   32.8420   39.8730 C   0  0  0  0  0  0  0  0  0  0  0  0
   38.7180   33.1800   39.6590 C   0  0  0  0  0  0  0  0  0  0  0  0
   39.6940   32.3080   40.1250 C   0  0  0  0  0  0  0  0  0  0  0  0
   35.9990   31.5060   40.6470 H   0  0  0  0  0  0  0  0  0  0  0  0
   36.6950   33.5550   39.4890 H   0  0  0  0  0  0  0  0  0  0  0  0
   39.1420   34.0370   39.1730 H   0  0  0  0  0  0  0  0  0  0  0  0
   36.7560   27.4370   41.5990 C   0  0  0  0  0  0  0  0  0  0  0  0
   36.9550   27.2690   42.9830 C   0  0  0  0  0  0  0  0  0  0  0  0
   37.5230   28.3320   43.6790 C   0  0  0  0  0  0  0  0  0  0  0  0
   37.8510   29.4620   42.9940 N   0  0  0  0  0  0  0  0  0  0  0  0
   37.6510   29.5960   41.6810 C   0  0  0  0  0  0  0  0  0  0  0  0
   37.1010   28.5780   40.9870 N   0  0  0  0  0  0  0  0  0  0  0  0
   36.3120   26.5880   41.0950 H   0  0  0  0  0  0  0  0  0  0  0  0
   36.7240   26.4180   43.5760 H   0  0  0  0  0  0  0  0  0  0  0  0
   37.7570   28.4040   44.7330 H   0  0  0  0  0  0  0  0  0  0  0  0
   41.0910   32.5350   39.9720 N   0  0  0  0  0  0  0  0  0  0  0  0
   41.7800   33.3150   40.9770 C   0  0  0  0  0  3  0  0  0  0  0  0
   41.0730   34.1160   41.2930 H   0  0  0  0  0  0  0  0  0  0  0  0
   43.0410   33.9420   40.4620 C   0  0  0  0  0  3  0  0  0  0  0  0
   43.9090   33.6670   41.1020 H   0  0  0  0  0  0  0  0  0  0  0  0
   43.3930   33.5680   39.1170 N   0  0  0  0  0  0  0  0  0  0  0  0
   44.3930   33.8100   38.9640 H   0  0  0  0  0  0  0  0  0  0  0  0
   43.1760   32.1790   38.8330 C   0  0  0  0  0  2  0  0  0  0  0  0
   41.6860   31.9390   38.7900 C   0  0  0  0  0  2  0  0  0  0  0  0
  2  3  1  0  0  0  0
  2  1  1  0  0  0  0
  3 15  1  0  0  0  0
  4  8  1  0  0  0  0
  4  3  2  0  0  0  0
  5  4  1  0  0  0  0
  6  5  2  0  0  0  0
  6  7  1  0  0  0  0
  7  2  2  0  0  0  0
  9  5  1  0  0  0  0
 10  6  1  0  0  0  0
 11 12  1  0  0  0  0
 12 18  1  0  0  0  0
 12 13  2  0  0  0  0
 13 19  1  0  0  0  0
 14 13  1  0  0  0  0
 15 14  2  0  0  0  0
 16 11  2  0  0  0  0
 16 15  1  0  0  0  0
 17 11  1  0  0  0  0
 20  7  1  0  0  0  0
 20 21  1  0  0  0  0
 21 22  1  0  0  0  0
 23 21  1  0  0  0  0
 23 24  1  0  0  0  0
 25 23  1  0  0  0  0
 26 25  1  0  0  0  0
 27 25  1  0  0  0  0
 28 27  1  0  0  0  0
 28 20  1  0  0  0  0
M  END
>  <minimizedAffinity>
-4.77918148

$$$$

 OpenBabel03252505223D

 28 30  0  0  0  0  0  0  0  0999 V2000
   40.3400   29.2560   41.0590 F   0  0  0  0  0  0  0  0  0  0  0  0
   39.3830   28.8570   41.9300 C   0  0  0  0  0  0  0  0  0  0  0  0
   38.2140   29.5990   41.9990 C   0  0  0  0  0  0  0  0  0  0  0  0
   37.2400   29.2120   42.8690 C   0  0  0  0  0  0  0  0  0  0  0  0
   37.4100   28.1000   43.6710 C   0  0  0  0  0  0  0  0  0  0  0  0
   38.5520   27.3490   43.6230 C   0  0  0  0  0  0  0  0  0  0  0  0
   39.5460   27.7430   42.7370 C   0  0  0  0  0  0  0  0  0  0  0  0
   36.3000   29.7360   42.9840 H   0  0  0  0  0  0  0  0  0  0  0  0
   36.6720   27.7490   44.3770 H   0  0  0  0  0  0  0  0  0  0  0  0
   38.8270   26.4710   44.1740 H   0  0  0  0  0  0  0  0  0  0  0  0
   38.6130   32.9790   40.6400 C   0  0  0  0  0  0  0  0  0  0  0  0
   37.7120   32.9940   39.5570 C   0  0  0  0  0  0  0  0  0  0  0  0
   36.9820   31.8330   39.3180 C   0  0  0  0  0  0  0  0  0  0  0  0
   37.1770   30.7590   40.1320 N   0  0  0  0  0  0  0  0  0  0  0  0
   38.0380   30.7710   41.1530 C   0  0  0  0  0  0  0  0  0  0  0  0
   38.7540   31.8860   41.4020 N   0  0  0  0  0  0  0  0  0  0  0  0
   39.1600   33.9000   40.7920 H   0  0  0  0  0  0  0  0  0  0  0  0
   37.5130   33.7930   38.8870 H   0  0  0  0  0  0  0  0  0  0  0  0
   36.2490   31.6400   38.5480 H   0  0  0  0  0  0  0  0  0  0  0  0
   40.7830   27.0550   42.5840 N   0  0  0  0  0  0  0  0  0  0  0  0
   40.9910   26.2630   41.3910 C   0  0  0  0  0  3  0  0  0  0  0  0
   40.0100   25.7950   41.1490 H   0  0  0  0  0  0  0  0  0  0  0  0
   42.0200   25.1870   41.5800 C   0  0  0  0  0  3  0  0  0  0  0  0
   42.8180   25.2650   40.8080 H   0  0  0  0  0  0  0  0  0  0  0  0
   42.6850   25.2100   42.8560 N   0  0  0  0  0  0  0  0  0  0  0  0
   43.5500   24.6360   42.7820 H   0  0  0  0  0  0  0  0  0  0  0  0
   43.0120   26.5310   43.3100 C   0  0  0  0  0  2  0  0  0  0  0  0
   41.7250   27.2300   43.6740 C   0  0  0  0  0  2  0  0  0  0  0  0
  1  2  1  0  0  0  0
  2  3  2  0  0  0  0
  2  7  1  0  0  0  0
  3  4  1  0  0  0  0
  4  8  1  0  0  0  0
  4  5  2  0  0  0  0
  5  9  1  0  0  0  0
  6  5  1  0  0  0  0
  6 10  1  0  0  0  0
  7  6  2  0  0  0  0
 11 17  1  0  0  0  0
 11 16  1  0  0  0  0
 12 11  2  0  0  0  0
 13 12  1  0  0  0  0
 13 14  2  0  0  0  0
 14 15  1  0  0  0  0
 15 16  2  0  0  0  0
 15  3  1  0  0  0  0
 18 12  1  0  0  0  0
 19 13  1  0  0  0  0
 20  7  1  0  0  0  0
 20 28  1  0  0  0  0
 21 23  1  0  0  0  0
 21 20  1  0  0  0  0
 22 21  1  0  0  0  0
 23 25  1  0  0  0  0
 24 23  1  0  0  0  0
 25 27  1  0  0  0  0
 26 25  1  0  0  0  0
 27 28  1  0  0  0  0
M  END
>  <minimizedAffinity>
-4.76677704

$$$$

 OpenBabel03252505223D

 28 30  0  0  0  0  0  0  0  0999 V2000
   37.9920   26.7820   39.5050 F   0  0  0  0  0  0  0  0  0  0  0  0
   38.4150   26.6930   40.7890 C   0  0  0  0  0  0  0  0  0  0  0  0
   39.1490   25.5750   41.1580 C   0  0  0  0  0  0  0  0  0  0  0  0
   39.5820   25.4690   42.4440 C   0  0  0  0  0  0  0  0  0  0  0  0
   39.2980   26.4540   43.3700 C   0  0  0  0  0  0  0  0  0  0  0  0
   38.5770   27.5660   43.0340 C   0  0  0  0  0  0  0  0  0  0  0  0
   38.1330   27.6760   41.7230 C   0  0  0  0  0  0  0  0  0  0  0  0
   40.1600   24.6310   42.8120 H   0  0  0  0  0  0  0  0  0  0  0  0
   39.6160   26.4210   44.4020 H   0  0  0  0  0  0  0  0  0  0  0  0
   38.2800   28.4060   43.6320 H   0  0  0  0  0  0  0  0  0  0  0  0
   40.8150   23.7380   38.4600 C   0  0  0  0  0  0  0  0  0  0  0  0
   40.0200   22.5840   38.3240 C   0  0  0  0  0  0  0  0  0  0  0  0
   38.9210   22.4620   39.1700 C   0  0  0  0  0  0  0  0  0  0  0  0
   38.6770   23.4530   40.0710 N   0  0  0  0  0  0  0  0  0  0  0  0
   39.4470   24.5390   40.1800 C   0  0  0  0  0  0  0  0  0  0  0  0
   40.5170   24.6760   39.3690 N   0  0  0  0  0  0  0  0  0  0  0  0
   41.6590   23.7940   37.7840 H   0  0  0  0  0  0  0  0  0  0  0  0
   40.1540   21.7770   37.6460 H   0  0  0  0  0  0  0  0  0  0  0  0
   38.1940   21.6640   39.2260 H   0  0  0  0  0  0  0  0  0  0  0  0
   37.3740   28.7790   41.2370 N   0  0  0  0  0  0  0  0  0  0  0  0
   38.0690   30.0010   40.8970 C   0  0  0  0  0  3  0  0  0  0  0  0
   38.8850   30.1180   41.6460 H   0  0  0  0  0  0  0  0  0  0  0  0
   37.1790   31.2080   40.9430 C   0  0  0  0  0  3  0  0  0  0  0  0
   37.2110   31.7590   39.9770 H   0  0  0  0  0  0  0  0  0  0  0  0
   35.7920   30.9210   41.2000 N   0  0  0  0  0  0  0  0  0  0  0  0
   35.2320   31.7560   40.9310 H   0  0  0  0  0  0  0  0  0  0  0  0
   35.3060   29.7620   40.5090 C   0  0  0  0  0  2  0  0  0  0  0  0
   35.9450   28.5450   41.1350 C   0  0  0  0  0  2  0  0  0  0  0  0
  1  2  1  0  0  0  0
  2  3  2  0  0  0  0
  2  7  1  0  0  0  0
  3  4  1  0  0  0  0
  4  8  1  0  0  0  0
  4  5  2  0  0  0  0
  5  9  1  0  0  0  0
  6  5  1  0  0  0  0
  6 10  1  0  0  0  0
  7  6  2  0  0  0  0
 11 16  1  0  0  0  0
 12 11  2  0  0  0  0
 12 13  1  0  0  0  0
 13 19  1  0  0  0  0
 13 14  2  0  0  0  0
 14 15  1  0  0  0  0
 15  3  1  0  0  0  0
 16 15  2  0  0  0  0
 17 11  1  0  0  0  0
 18 12  1  0  0  0  0
 20  7  1  0  0  0  0
 21 23  1  0  0  0  0
 21 20  1  0  0  0  0
 21 22  1  0  0  0  0
 23 25  1  0  0  0  0
 24 23  1  0  0  0  0
 26 25  1  0  0  0  0
 27 28  1  0  0  0  0
 27 25  1  0  0  0  0
 28 20  1  0  0  0  0
M  END
>  <minimizedAffinity>
-4.72141743

$$$$

 OpenBabel03252505223D

 28 30  0  0  0  0  0  0  0  0999 V2000
   39.7900   29.5390   40.2310 F   0  0  0  0  0  0  0  0  0  0  0  0
   38.6650   29.7020   39.4950 C   0  0  0  0  0  0  0  0  0  0  0  0
   38.7760   30.3250   38.2610 C   0  0  0  0  0  0  0  0  0  0  0  0
   37.6550   30.4970   37.5080 C   0  0  0  0  0  0  0  0  0  0  0  0
   36.4250   30.0610   37.9610 C   0  0  0  0  0  0  0  0  0  0  0  0
   36.2860   29.4430   39.1730 C   0  0  0  0  0  0  0  0  0  0  0  0
   37.4280   29.2680   39.9430 C   0  0  0  0  0  0  0  0  0  0  0  0
   37.6560   30.9720   36.5350 H   0  0  0  0  0  0  0  0  0  0  0  0
   35.5050   30.1710   37.4060 H   0  0  0  0  0  0  0  0  0  0  0  0
   35.4100   29.0540   39.6550 H   0  0  0  0  0  0  0  0  0  0  0  0
   41.5370   32.5540   37.3440 C   0  0  0  0  0  0  0  0  0  0  0  0
   42.5270   31.6620   36.8880 C   0  0  0  0  0  0  0  0  0  0  0  0
   42.2200   30.3040   36.9070 C   0  0  0  0  0  0  0  0  0  0  0  0
   40.9960   29.9170   37.3580 N   0  0  0  0  0  0  0  0  0  0  0  0
   40.0740   30.7830   37.7860 C   0  0  0  0  0  0  0  0  0  0  0  0
   40.3510   32.1040   37.7750 N   0  0  0  0  0  0  0  0  0  0  0  0
   41.8150   33.6000   37.3130 H   0  0  0  0  0  0  0  0  0  0  0  0
   43.4970   31.8970   36.5240 H   0  0  0  0  0  0  0  0  0  0  0  0
   42.8330   29.4670   36.6030 H   0  0  0  0  0  0  0  0  0  0  0  0
   37.4280   28.6420   41.2220 N   0  0  0  0  0  0  0  0  0  0  0  0
   37.4460   27.1970   41.2850 C   0  0  0  0  0  3  0  0  0  0  0  0
   36.8150   26.8370   40.4410 H   0  0  0  0  0  0  0  0  0  0  0  0
   36.8970   26.6640   42.5760 C   0  0  0  0  0  3  0  0  0  0  0  0
   37.6300   25.9850   43.0660 H   0  0  0  0  0  0  0  0  0  0  0  0
   36.5640   27.6730   43.5480 N   0  0  0  0  0  0  0  0  0  0  0  0
   36.4750   27.2110   44.4760 H   0  0  0  0  0  0  0  0  0  0  0  0
   37.5210   28.7390   43.6210 C   0  0  0  0  0  2  0  0  0  0  0  0
   37.4100   29.5510   42.3530 C   0  0  0  0  0  2  0  0  0  0  0  0
  2  7  1  0  0  0  0
  2  1  1  0  0  0  0
  3  2  2  0  0  0  0
  4  5  2  0  0  0  0
  4  3  1  0  0  0  0
  5  6  1  0  0  0  0
  6 10  1  0  0  0  0
  6  7  2  0  0  0  0
  7 20  1  0  0  0  0
  8  4  1  0  0  0  0
  9  5  1  0  0  0  0
 11 16  1  0  0  0  0
 12 13  1  0  0  0  0
 12 11  2  0  0  0  0
 13 14  2  0  0  0  0
 14 15  1  0  0  0  0
 15  3  1  0  0  0  0
 16 15  2  0  0  0  0
 17 11  1  0  0  0  0
 18 12  1  0  0  0  0
 19 13  1  0  0  0  0
 20 21  1  0  0  0  0
 20 28  1  0  0  0  0
 21 23  1  0  0  0  0
 22 21  1  0  0  0  0
 23 24  1  0  0  0  0
 23 25  1  0  0  0  0
 25 27  1  0  0  0  0
 25 26  1  0  0  0  0
 28 27  1  0  0  0  0
M  END
>  <minimizedAffinity>
-4.71397018

$$$$

 OpenBabel03252505223D

 28 30  0  0  0  0  0  0  0  0999 V2000
   38.7180   29.5340   41.0590 F   0  0  0  0  0  0  0  0  0  0  0  0
   37.8470   29.6390   40.0270 C   0  0  0  0  0  0  0  0  0  0  0  0
   37.0110   28.5640   39.7660 C   0  0  0  0  0  0  0  0  0  0  0  0
   36.1300   28.6520   38.7320 C   0  0  0  0  0  0  0  0  0  0  0  0
   36.0650   29.7920   37.9540 C   0  0  0  0  0  0  0  0  0  0  0  0
   36.8760   30.8670   38.1890 C   0  0  0  0  0  0  0  0  0  0  0  0
   37.7770   30.7780   39.2420 C   0  0  0  0  0  0  0  0  0  0  0  0
   35.4430   27.8600   38.4630 H   0  0  0  0  0  0  0  0  0  0  0  0
   35.3860   29.9160   37.1220 H   0  0  0  0  0  0  0  0  0  0  0  0
   36.9430   31.8090   37.6790 H   0  0  0  0  0  0  0  0  0  0  0  0
   36.8630   26.3560   42.6870 C   0  0  0  0  0  0  0  0  0  0  0  0
   37.2120   25.1000   42.1540 C   0  0  0  0  0  0  0  0  0  0  0  0
   37.4920   25.0410   40.7920 C   0  0  0  0  0  0  0  0  0  0  0  0
   37.4150   26.1850   40.0580 N   0  0  0  0  0  0  0  0  0  0  0  0
   37.0810   27.3640   40.5880 C   0  0  0  0  0  0  0  0  0  0  0  0
   36.8060   27.4440   41.9070 N   0  0  0  0  0  0  0  0  0  0  0  0
   36.6530   26.3600   43.7490 H   0  0  0  0  0  0  0  0  0  0  0  0
   37.2900   24.1740   42.6680 H   0  0  0  0  0  0  0  0  0  0  0  0
   37.7760   24.1850   40.1950 H   0  0  0  0  0  0  0  0  0  0  0  0
   38.6790   31.8210   39.5980 N   0  0  0  0  0  0  0  0  0  0  0  0
   40.0340   31.7650   39.0940 C   0  0  0  0  0  3  0  0  0  0  0  0
   40.3270   30.6910   39.0970 H   0  0  0  0  0  0  0  0  0  0  0  0
   41.0000   32.5440   39.9370 C   0  0  0  0  0  3  0  0  0  0  0  0
   41.5570   33.2830   39.3190 H   0  0  0  0  0  0  0  0  0  0  0  0
   40.3950   33.2880   41.0120 N   0  0  0  0  0  0  0  0  0  0  0  0
   41.0810   33.9980   41.3410 H   0  0  0  0  0  0  0  0  0  0  0  0
   39.1650   33.9270   40.6470 C   0  0  0  0  0  2  0  0  0  0  0  0
   38.1220   32.8530   40.4520 C   0  0  0  0  0  2  0  0  0  0  0  0
  2  1  1  0  0  0  0
  3  2  1  0  0  0  0
  3 15  1  0  0  0  0
  4  3  2  0  0  0  0
  5  6  2  0  0  0  0
  5  4  1  0  0  0  0
  6  7  1  0  0  0  0
  7 20  1  0  0  0  0
  7  2  2  0  0  0  0
  8  4  1  0  0  0  0
  9  5  1  0  0  0  0
 10  6  1  0  0  0  0
 11 17  1  0  0  0  0
 12 18  1  0  0  0  0
 12 11  1  0  0  0  0
 13 12  2  0  0  0  0
 14 15  2  0  0  0  0
 14 13  1  0  0  0  0
 15 16  1  0  0  0  0
 16 11  2  0  0  0  0
 19 13  1  0  0  0  0
 20 28  1  0  0  0  0
 21 22  1  0  0  0  0
 21 20  1  0  0  0  0
 21 23  1  0  0  0  0
 23 25  1  0  0  0  0
 24 23  1  0  0  0  0
 25 26  1  0  0  0  0
 27 25  1  0  0  0  0
 28 27  1  0  0  0  0
M  END
>  <minimizedAffinity>
-4.71352339

$$$$
