
 OpenBabel03252509283D

 21 22  0  0  0  0  0  0  0  0999 V2000
   47.0080   34.3230   42.3580 C   0  0  0  0  0  0  0  0  0  0  0  0
   47.0600   35.2530   41.7570 H   0  0  0  0  0  0  0  0  0  0  0  0
   46.4300   33.6090   41.7120 H   0  0  0  0  0  0  0  0  0  0  0  0
   44.5290   35.9000   44.6350 C   0  0  0  0  0  0  0  0  0  0  0  0
   45.3250   35.6590   43.4880 C   0  0  0  0  0  0  0  0  0  0  0  0
   46.1900   34.5630   43.5500 C   0  0  0  0  0  0  0  0  0  0  0  0
   46.2400   33.7920   44.6670 N   0  0  0  0  0  0  0  0  0  0  0  0
   45.4460   34.0790   45.7410 C   0  0  0  0  0  0  0  0  0  0  0  0
   44.6060   35.1170   45.7200 N   0  0  0  0  0  0  0  0  0  0  0  0
   43.8320   36.7250   44.6760 H   0  0  0  0  0  0  0  0  0  0  0  0
   45.2300   36.3160   42.6340 H   0  0  0  0  0  0  0  0  0  0  0  0
   45.4850   33.4630   46.6380 H   0  0  0  0  0  0  0  0  0  0  0  0
   48.2760   33.7150   42.6020 N   0  0  0  0  0  0  0  0  0  0  0  0
   48.3480   32.5000   41.8110 C   0  0  0  0  0  3  0  0  0  0  0  0
   48.6070   31.6230   42.4490 H   0  0  0  0  0  0  0  0  0  0  0  0
   49.4180   32.5840   40.7470 C   0  0  0  0  0  3  0  0  0  0  0  0
   49.2390   33.3980   40.0230 H   0  0  0  0  0  0  0  0  0  0  0  0
   50.6950   32.6940   41.3890 N   0  0  0  0  0  0  0  0  0  0  0  0
   50.9540   31.7980   41.8460 H   0  0  0  0  0  0  0  0  0  0  0  0
   50.6690   33.7240   42.4180 C   0  0  0  0  0  2  0  0  0  0  0  0
   49.3950   34.5630   42.3050 C   0  0  0  0  0  2  0  0  0  0  0  0
  1 13  1  0  0  0  0
  1  6  1  0  0  0  0
  2  1  1  0  0  0  0
  3  1  1  0  0  0  0
  4 10  1  0  0  0  0
  4  9  1  0  0  0  0
  5  6  1  0  0  0  0
  5  4  2  0  0  0  0
  6  7  2  0  0  0  0
  7  8  1  0  0  0  0
  8 12  1  0  0  0  0
  9  8  2  0  0  0  0
 11  5  1  0  0  0  0
 14 15  1  0  0  0  0
 14 13  1  0  0  0  0
 16 18  1  0  0  0  0
 16 14  1  0  0  0  0
 17 16  1  0  0  0  0
 18 19  1  0  0  0  0
 18 20  1  0  0  0  0
 21 20  1  0  0  0  0
 21 13  1  0  0  0  0
M  END
>  <minimizedAffinity>
-4.19851828

>  <minimizedRMSD>
1.66892207

$$$$
