
 OpenBabel03252503583D

 20 21  0  0  0  0  0  0  0  0999 V2000
   38.5590   25.4900   42.4220 C   0  0  0  0  0  0  0  0  0  0  0  0
   39.5920   25.7870   43.3140 C   0  0  0  0  0  0  0  0  0  0  0  0
   39.8520   27.1410   43.5640 C   0  0  0  0  0  0  0  0  0  0  0  0
   39.0820   28.0770   42.9220 N   0  0  0  0  0  0  0  0  0  0  0  0
   38.0930   27.7410   42.0680 C   0  0  0  0  0  0  0  0  0  0  0  0
   37.8420   26.4410   41.8260 N   0  0  0  0  0  0  0  0  0  0  0  0
   40.2090   25.0610   43.8290 H   0  0  0  0  0  0  0  0  0  0  0  0
   40.6400   27.4160   44.2450 H   0  0  0  0  0  0  0  0  0  0  0  0
   37.3480   28.7840   41.4500 N   0  0  0  0  0  0  0  0  0  0  0  0
   36.1000   28.4100   40.8140 C   0  0  0  0  0  3  0  0  0  0  0  0
   35.4900   27.8680   41.5840 H   0  0  0  0  0  0  0  0  0  0  0  0
   35.2860   29.5670   40.3610 C   0  0  0  0  0  3  0  0  0  0  0  0
   35.4470   29.7900   39.2770 H   0  0  0  0  0  0  0  0  0  0  0  0
   35.5610   30.7530   41.1510 N   0  0  0  0  0  0  0  0  0  0  0  0
   35.3480   30.5570   42.1360 H   0  0  0  0  0  0  0  0  0  0  0  0
   36.9480   31.1550   40.9720 C   0  0  0  0  0  2  0  0  0  0  0  0
   37.8870   30.1260   41.5030 C   0  0  0  0  0  2  0  0  0  0  0  0
   38.3370   24.0850   42.2040 C   0  0  0  0  0  0  0  0  0  0  0  0
   37.4850   23.5840   41.4020 O   0  0  0  0  0  0  0  0  0  0  0  0
   39.0400   23.5760   42.8590 H   0  0  0  0  0  0  0  0  0  0  0  0
  1  2  1  0  0  0  0
  2  3  2  0  0  0  0
  2  7  1  0  0  0  0
  3  8  1  0  0  0  0
  4  3  1  0  0  0  0
  5  4  2  0  0  0  0
  6  5  1  0  0  0  0
  6  1  2  0  0  0  0
  9 17  1  0  0  0  0
  9  5  1  0  0  0  0
 10  9  1  0  0  0  0
 10 11  1  0  0  0  0
 12 10  1  0  0  0  0
 12 14  1  0  0  0  0
 13 12  1  0  0  0  0
 14 15  1  0  0  0  0
 16 14  1  0  0  0  0
 16 17  1  0  0  0  0
 18  1  1  0  0  0  0
 18 20  1  0  0  0  0
 19 18  2  0  0  0  0
M  END
>  <minimizedAffinity>
-4.62904406

$$$$

 OpenBabel03252503583D

 20 21  0  0  0  0  0  0  0  0999 V2000
   38.0560   28.2240   42.6620 C   0  0  0  0  0  0  0  0  0  0  0  0
   36.8620   27.6460   42.2230 C   0  0  0  0  0  0  0  0  0  0  0  0
   36.0830   28.3870   41.3240 C   0  0  0  0  0  0  0  0  0  0  0  0
   36.5410   29.6210   40.9390 N   0  0  0  0  0  0  0  0  0  0  0  0
   37.7020   30.1380   41.3900 C   0  0  0  0  0  0  0  0  0  0  0  0
   38.4510   29.4280   42.2530 N   0  0  0  0  0  0  0  0  0  0  0  0
   36.4870   26.6730   42.5180 H   0  0  0  0  0  0  0  0  0  0  0  0
   35.1560   27.9800   40.9600 H   0  0  0  0  0  0  0  0  0  0  0  0
   38.0930   31.4280   40.9310 N   0  0  0  0  0  0  0  0  0  0  0  0
   39.4720   31.8130   41.1560 C   0  0  0  0  0  3  0  0  0  0  0  0
   40.1140   31.0070   40.7130 H   0  0  0  0  0  0  0  0  0  0  0  0
   39.8590   33.0820   40.4860 C   0  0  0  0  0  3  0  0  0  0  0  0
   39.7950   33.9560   41.1820 H   0  0  0  0  0  0  0  0  0  0  0  0
   39.0450   33.3320   39.3100 N   0  0  0  0  0  0  0  0  0  0  0  0
   39.1620   32.5550   38.6500 H   0  0  0  0  0  0  0  0  0  0  0  0
   37.6540   33.5020   39.6990 C   0  0  0  0  0  2  0  0  0  0  0  0
   37.0930   32.2490   40.2810 C   0  0  0  0  0  2  0  0  0  0  0  0
   38.8130   27.4190   43.5820 C   0  0  0  0  0  0  0  0  0  0  0  0
   39.2070   26.2270   43.3750 O   0  0  0  0  0  0  0  0  0  0  0  0
   38.9600   28.0430   44.4600 H   0  0  0  0  0  0  0  0  0  0  0  0
  1 18  1  0  0  0  0
  2  7  1  0  0  0  0
  2  1  2  0  0  0  0
  3  2  1  0  0  0  0
  4  3  2  0  0  0  0
  4  5  1  0  0  0  0
  5  6  2  0  0  0  0
  6  1  1  0  0  0  0
  8  3  1  0  0  0  0
  9 10  1  0  0  0  0
  9  5  1  0  0  0  0
 11 10  1  0  0  0  0
 12 10  1  0  0  0  0
 12 13  1  0  0  0  0
 14 16  1  0  0  0  0
 14 12  1  0  0  0  0
 15 14  1  0  0  0  0
 16 17  1  0  0  0  0
 17  9  1  0  0  0  0
 18 20  1  0  0  0  0
 19 18  2  0  0  0  0
M  END
>  <minimizedAffinity>
-4.26810503

$$$$

 OpenBabel03252503583D

 20 21  0  0  0  0  0  0  0  0999 V2000
   39.8490   33.1640   40.5880 C   0  0  0  0  0  0  0  0  0  0  0  0
   38.9020   33.9290   39.9020 C   0  0  0  0  0  0  0  0  0  0  0  0
   37.6080   33.4000   39.7940 C   0  0  0  0  0  0  0  0  0  0  0  0
   37.3600   32.1780   40.3640 N   0  0  0  0  0  0  0  0  0  0  0  0
   38.3090   31.4760   41.0170 C   0  0  0  0  0  0  0  0  0  0  0  0
   39.5510   31.9810   41.1220 N   0  0  0  0  0  0  0  0  0  0  0  0
   39.0820   34.8950   39.4470 H   0  0  0  0  0  0  0  0  0  0  0  0
   36.8470   33.9560   39.2740 H   0  0  0  0  0  0  0  0  0  0  0  0
   37.9540   30.2150   41.5760 N   0  0  0  0  0  0  0  0  0  0  0  0
   38.8730   29.6450   42.5420 C   0  0  0  0  0  3  0  0  0  0  0  0
   39.0310   30.4180   43.3390 H   0  0  0  0  0  0  0  0  0  0  0  0
   38.3510   28.4320   43.2230 C   0  0  0  0  0  3  0  0  0  0  0  0
   38.7200   27.4920   42.7390 H   0  0  0  0  0  0  0  0  0  0  0  0
   36.9010   28.4260   43.2620 N   0  0  0  0  0  0  0  0  0  0  0  0
   36.5750   29.2590   43.7660 H   0  0  0  0  0  0  0  0  0  0  0  0
   36.3690   28.3750   41.9090 C   0  0  0  0  0  2  0  0  0  0  0  0
   36.7160   29.6040   41.1400 C   0  0  0  0  0  2  0  0  0  0  0  0
   41.1580   33.7560   40.6670 C   0  0  0  0  0  0  0  0  0  0  0  0
   42.1600   33.2620   41.2760 O   0  0  0  0  0  0  0  0  0  0  0  0
   41.0890   34.6860   40.1080 H   0  0  0  0  0  0  0  0  0  0  0  0
  1 18  1  0  0  0  0
  1  6  1  0  0  0  0
  2  1  2  0  0  0  0
  3  2  1  0  0  0  0
  3  4  2  0  0  0  0
  4  5  1  0  0  0  0
  5  6  2  0  0  0  0
  5  9  1  0  0  0  0
  7  2  1  0  0  0  0
  8  3  1  0  0  0  0
  9 10  1  0  0  0  0
 10 12  1  0  0  0  0
 10 11  1  0  0  0  0
 12 14  1  0  0  0  0
 13 12  1  0  0  0  0
 14 15  1  0  0  0  0
 16 14  1  0  0  0  0
 17  9  1  0  0  0  0
 17 16  1  0  0  0  0
 18 19  2  0  0  0  0
 20 18  1  0  0  0  0
M  END
>  <minimizedAffinity>
-4.18995094

$$$$

 OpenBabel03252503583D

 20 21  0  0  0  0  0  0  0  0999 V2000
   37.5730   27.3440   41.4460 C   0  0  0  0  0  0  0  0  0  0  0  0
   38.1230   27.1790   42.7200 C   0  0  0  0  0  0  0  0  0  0  0  0
   38.6640   28.3150   43.3360 C   0  0  0  0  0  0  0  0  0  0  0  0
   38.6160   29.5040   42.6540 N   0  0  0  0  0  0  0  0  0  0  0  0
   38.0730   29.6150   41.4240 C   0  0  0  0  0  0  0  0  0  0  0  0
   37.5550   28.5240   40.8310 N   0  0  0  0  0  0  0  0  0  0  0  0
   38.1680   26.2480   43.2710 H   0  0  0  0  0  0  0  0  0  0  0  0
   39.0980   28.2340   44.3180 H   0  0  0  0  0  0  0  0  0  0  0  0
   38.0710   30.8920   40.7970 N   0  0  0  0  0  0  0  0  0  0  0  0
   37.2020   31.0560   39.6480 C   0  0  0  0  0  3  0  0  0  0  0  0
   36.1710   30.7560   39.9720 H   0  0  0  0  0  0  0  0  0  0  0  0
   37.1040   32.4580   39.1640 C   0  0  0  0  0  3  0  0  0  0  0  0
   37.8010   32.6530   38.3110 H   0  0  0  0  0  0  0  0  0  0  0  0
   37.3580   33.4080   40.2320 N   0  0  0  0  0  0  0  0  0  0  0  0
   36.6720   33.2630   40.9800 H   0  0  0  0  0  0  0  0  0  0  0  0
   38.7210   33.2550   40.7160 C   0  0  0  0  0  2  0  0  0  0  0  0
   38.9290   31.9200   41.3480 C   0  0  0  0  0  2  0  0  0  0  0  0
   37.0340   26.1440   40.8630 C   0  0  0  0  0  0  0  0  0  0  0  0
   36.9700   25.0070   41.4300 O   0  0  0  0  0  0  0  0  0  0  0  0
   36.7100   26.4280   39.8640 H   0  0  0  0  0  0  0  0  0  0  0  0
  1  2  1  0  0  0  0
  2  7  1  0  0  0  0
  2  3  2  0  0  0  0
  3  8  1  0  0  0  0
  4  3  1  0  0  0  0
  5  4  2  0  0  0  0
  6  5  1  0  0  0  0
  6  1  2  0  0  0  0
  9 17  1  0  0  0  0
  9  5  1  0  0  0  0
 10 11  1  0  0  0  0
 10  9  1  0  0  0  0
 12 10  1  0  0  0  0
 12 14  1  0  0  0  0
 13 12  1  0  0  0  0
 14 16  1  0  0  0  0
 14 15  1  0  0  0  0
 16 17  1  0  0  0  0
 18 19  2  0  0  0  0
 18  1  1  0  0  0  0
 20 18  1  0  0  0  0
M  END
>  <minimizedAffinity>
-4.18902493

$$$$

 OpenBabel03252503583D

 20 21  0  0  0  0  0  0  0  0999 V2000
   37.7180   32.2570   39.8560 C   0  0  0  0  0  0  0  0  0  0  0  0
   37.3310   32.0300   38.5330 C   0  0  0  0  0  0  0  0  0  0  0  0
   36.9920   30.7170   38.1800 C   0  0  0  0  0  0  0  0  0  0  0  0
   37.0620   29.7500   39.1490 N   0  0  0  0  0  0  0  0  0  0  0  0
   37.4410   30.0170   40.4160 C   0  0  0  0  0  0  0  0  0  0  0  0
   37.7670   31.2770   40.7560 N   0  0  0  0  0  0  0  0  0  0  0  0
   37.2710   32.7830   37.7560 H   0  0  0  0  0  0  0  0  0  0  0  0
   36.6890   30.4980   37.1710 H   0  0  0  0  0  0  0  0  0  0  0  0
   37.4820   28.9450   41.3520 N   0  0  0  0  0  0  0  0  0  0  0  0
   37.5610   29.3020   42.7540 C   0  0  0  0  0  3  0  0  0  0  0  0
   36.7070   29.9990   42.9640 H   0  0  0  0  0  0  0  0  0  0  0  0
   37.4070   28.1480   43.6780 C   0  0  0  0  0  3  0  0  0  0  0  0
   38.3960   27.7480   44.0130 H   0  0  0  0  0  0  0  0  0  0  0  0
   36.6270   27.0840   43.0730 N   0  0  0  0  0  0  0  0  0  0  0  0
   35.6980   27.4460   42.8300 H   0  0  0  0  0  0  0  0  0  0  0  0
   37.3230   26.5620   41.9080 C   0  0  0  0  0  2  0  0  0  0  0  0
   37.4410   27.5930   40.8360 C   0  0  0  0  0  2  0  0  0  0  0  0
   38.0540   33.6220   40.1600 C   0  0  0  0  0  0  0  0  0  0  0  0
   39.0980   34.0100   40.7760 O   0  0  0  0  0  0  0  0  0  0  0  0
   37.2380   34.2180   39.7570 H   0  0  0  0  0  0  0  0  0  0  0  0
  1 18  1  0  0  0  0
  1  6  1  0  0  0  0
  2  1  2  0  0  0  0
  3  2  1  0  0  0  0
  3  4  2  0  0  0  0
  4  5  1  0  0  0  0
  5  6  2  0  0  0  0
  5  9  1  0  0  0  0
  7  2  1  0  0  0  0
  8  3  1  0  0  0  0
  9 10  1  0  0  0  0
 10 11  1  0  0  0  0
 10 12  1  0  0  0  0
 12 13  1  0  0  0  0
 14 12  1  0  0  0  0
 15 14  1  0  0  0  0
 16 14  1  0  0  0  0
 17  9  1  0  0  0  0
 17 16  1  0  0  0  0
 18 19  2  0  0  0  0
 20 18  1  0  0  0  0
M  END
>  <minimizedAffinity>
-4.08604336

$$$$

 OpenBabel03252503583D

 20 21  0  0  0  0  0  0  0  0999 V2000
   36.9140   28.7700   41.7950 C   0  0  0  0  0  0  0  0  0  0  0  0
   35.7290   28.7960   41.0560 C   0  0  0  0  0  0  0  0  0  0  0  0
   35.5190   29.9020   40.2210 C   0  0  0  0  0  0  0  0  0  0  0  0
   36.4830   30.8760   40.1850 N   0  0  0  0  0  0  0  0  0  0  0  0
   37.6140   30.8060   40.9170 C   0  0  0  0  0  0  0  0  0  0  0  0
   37.8160   29.7460   41.7200 N   0  0  0  0  0  0  0  0  0  0  0  0
   34.9580   28.0350   41.0740 H   0  0  0  0  0  0  0  0  0  0  0  0
   34.6190   29.9630   39.6340 H   0  0  0  0  0  0  0  0  0  0  0  0
   38.5560   31.8680   40.8110 N   0  0  0  0  0  0  0  0  0  0  0  0
   39.8850   31.6180   41.3330 C   0  0  0  0  0  3  0  0  0  0  0  0
   40.2610   30.6840   40.8390 H   0  0  0  0  0  0  0  0  0  0  0  0
   40.8660   32.6900   41.0190 C   0  0  0  0  0  3  0  0  0  0  0  0
   40.9750   33.4150   41.8640 H   0  0  0  0  0  0  0  0  0  0  0  0
   40.5040   33.4020   39.8070 N   0  0  0  0  0  0  0  0  0  0  0  0
   40.4710   32.7380   39.0250 H   0  0  0  0  0  0  0  0  0  0  0  0
   39.2300   34.0780   39.9920 C   0  0  0  0  0  2  0  0  0  0  0  0
   38.1200   33.1040   40.1970 C   0  0  0  0  0  2  0  0  0  0  0  0
   37.0750   27.6130   42.6340 C   0  0  0  0  0  0  0  0  0  0  0  0
   36.2820   27.2520   43.5620 O   0  0  0  0  0  0  0  0  0  0  0  0
   37.9970   27.1400   42.3020 H   0  0  0  0  0  0  0  0  0  0  0  0
  1 18  1  0  0  0  0
  2  7  1  0  0  0  0
  2  1  2  0  0  0  0
  3  2  1  0  0  0  0
  4  3  2  0  0  0  0
  4  5  1  0  0  0  0
  5  6  2  0  0  0  0
  6  1  1  0  0  0  0
  8  3  1  0  0  0  0
  9  5  1  0  0  0  0
  9 10  1  0  0  0  0
 11 10  1  0  0  0  0
 12 10  1  0  0  0  0
 12 13  1  0  0  0  0
 14 16  1  0  0  0  0
 14 12  1  0  0  0  0
 15 14  1  0  0  0  0
 16 17  1  0  0  0  0
 17  9  1  0  0  0  0
 18 19  2  0  0  0  0
 20 18  1  0  0  0  0
M  END
>  <minimizedAffinity>
-4.08330679

$$$$

 OpenBabel03252503583D

 20 21  0  0  0  0  0  0  0  0999 V2000
   37.6090   29.8380   41.6750 C   0  0  0  0  0  0  0  0  0  0  0  0
   38.7940   30.5540   41.8610 C   0  0  0  0  0  0  0  0  0  0  0  0
   39.9230   29.8310   42.2710 C   0  0  0  0  0  0  0  0  0  0  0  0
   39.7900   28.4800   42.4600 N   0  0  0  0  0  0  0  0  0  0  0  0
   38.6240   27.8310   42.2660 C   0  0  0  0  0  0  0  0  0  0  0  0
   37.5390   28.5230   41.8730 N   0  0  0  0  0  0  0  0  0  0  0  0
   38.9150   31.6210   41.7160 H   0  0  0  0  0  0  0  0  0  0  0  0
   40.8570   30.3440   42.4260 H   0  0  0  0  0  0  0  0  0  0  0  0
   38.5860   26.4250   42.4870 N   0  0  0  0  0  0  0  0  0  0  0  0
   37.4400   25.7090   41.9600 C   0  0  0  0  0  3  0  0  0  0  0  0
   37.3750   25.9550   40.8680 H   0  0  0  0  0  0  0  0  0  0  0  0
   37.5580   24.2310   42.0580 C   0  0  0  0  0  3  0  0  0  0  0  0
   37.0370   23.8310   42.9630 H   0  0  0  0  0  0  0  0  0  0  0  0
   38.9470   23.8080   42.0640 N   0  0  0  0  0  0  0  0  0  0  0  0
   39.3980   24.1240   41.1980 H   0  0  0  0  0  0  0  0  0  0  0  0
   39.6180   24.3330   43.2430 C   0  0  0  0  0  2  0  0  0  0  0  0
   39.6830   25.8230   43.2150 C   0  0  0  0  0  2  0  0  0  0  0  0
   36.4850   30.6310   41.2550 C   0  0  0  0  0  0  0  0  0  0  0  0
   36.2590   31.0280   40.0670 O   0  0  0  0  0  0  0  0  0  0  0  0
   35.9010   30.8040   42.1550 H   0  0  0  0  0  0  0  0  0  0  0  0
  1  2  2  0  0  0  0
  1  6  1  0  0  0  0
  2  3  1  0  0  0  0
  3  8  1  0  0  0  0
  3  4  2  0  0  0  0
  5  4  1  0  0  0  0
  5  9  1  0  0  0  0
  6  5  2  0  0  0  0
  7  2  1  0  0  0  0
  9 17  1  0  0  0  0
 10 12  1  0  0  0  0
 10  9  1  0  0  0  0
 11 10  1  0  0  0  0
 12 14  1  0  0  0  0
 12 13  1  0  0  0  0
 14 16  1  0  0  0  0
 15 14  1  0  0  0  0
 17 16  1  0  0  0  0
 18  1  1  0  0  0  0
 18 20  1  0  0  0  0
 19 18  2  0  0  0  0
M  END
>  <minimizedAffinity>
-4.04843855

$$$$

 OpenBabel03252503583D

 20 21  0  0  0  0  0  0  0  0999 V2000
   37.1840   24.4300   40.7540 C   0  0  0  0  0  0  0  0  0  0  0  0
   38.1040   24.0960   41.7510 C   0  0  0  0  0  0  0  0  0  0  0  0
   38.6520   25.1490   42.4960 C   0  0  0  0  0  0  0  0  0  0  0  0
   38.2520   26.4260   42.2000 N   0  0  0  0  0  0  0  0  0  0  0  0
   37.3600   26.7000   41.2260 C   0  0  0  0  0  0  0  0  0  0  0  0
   36.8330   25.6910   40.5090 N   0  0  0  0  0  0  0  0  0  0  0  0
   38.4290   23.0930   41.9980 H   0  0  0  0  0  0  0  0  0  0  0  0
   39.3640   24.9360   43.2750 H   0  0  0  0  0  0  0  0  0  0  0  0
   37.0080   28.0600   40.9930 N   0  0  0  0  0  0  0  0  0  0  0  0
   35.8230   28.3010   40.1920 C   0  0  0  0  0  3  0  0  0  0  0  0
   34.9820   27.7350   40.6720 H   0  0  0  0  0  0  0  0  0  0  0  0
   35.4070   29.7270   40.1500 C   0  0  0  0  0  3  0  0  0  0  0  0
   35.7890   30.2450   39.2340 H   0  0  0  0  0  0  0  0  0  0  0  0
   35.8420   30.4430   41.3350 N   0  0  0  0  0  0  0  0  0  0  0  0
   35.4330   29.9990   42.1640 H   0  0  0  0  0  0  0  0  0  0  0  0
   37.2950   30.4610   41.3970 C   0  0  0  0  0  2  0  0  0  0  0  0
   37.8500   29.0870   41.5670 C   0  0  0  0  0  2  0  0  0  0  0  0
   36.6560   23.3100   40.0220 C   0  0  0  0  0  0  0  0  0  0  0  0
   35.4390   23.1500   39.6860 O   0  0  0  0  0  0  0  0  0  0  0  0
   37.5070   22.6600   39.8330 H   0  0  0  0  0  0  0  0  0  0  0  0
  1  2  1  0  0  0  0
  2  7  1  0  0  0  0
  2  3  2  0  0  0  0
  3  8  1  0  0  0  0
  4  3  1  0  0  0  0
  5  4  2  0  0  0  0
  6  1  2  0  0  0  0
  6  5  1  0  0  0  0
  9  5  1  0  0  0  0
  9 17  1  0  0  0  0
 10 11  1  0  0  0  0
 10  9  1  0  0  0  0
 12 10  1  0  0  0  0
 12 14  1  0  0  0  0
 13 12  1  0  0  0  0
 14 16  1  0  0  0  0
 14 15  1  0  0  0  0
 16 17  1  0  0  0  0
 18  1  1  0  0  0  0
 19 18  2  0  0  0  0
 20 18  1  0  0  0  0
M  END
>  <minimizedAffinity>
-3.9831264

$$$$

 OpenBabel03252503583D

 20 21  0  0  0  0  0  0  0  0999 V2000
   36.7300   29.2800   41.4380 C   0  0  0  0  0  0  0  0  0  0  0  0
   37.0440   28.5440   42.5840 C   0  0  0  0  0  0  0  0  0  0  0  0
   38.2520   28.8440   43.2280 C   0  0  0  0  0  0  0  0  0  0  0  0
   39.0390   29.8320   42.6950 N   0  0  0  0  0  0  0  0  0  0  0  0
   38.6930   30.5170   41.5860 C   0  0  0  0  0  0  0  0  0  0  0  0
   37.5340   30.2300   40.9660 N   0  0  0  0  0  0  0  0  0  0  0  0
   36.4330   27.7600   43.0170 H   0  0  0  0  0  0  0  0  0  0  0  0
   38.5330   28.3010   44.1140 H   0  0  0  0  0  0  0  0  0  0  0  0
   39.5770   31.5260   41.1090 N   0  0  0  0  0  0  0  0  0  0  0  0
   39.0430   32.4590   40.1370 C   0  0  0  0  0  3  0  0  0  0  0  0
   38.1150   32.9030   40.5850 H   0  0  0  0  0  0  0  0  0  0  0  0
   39.9520   33.5940   39.8300 C   0  0  0  0  0  3  0  0  0  0  0  0
   40.5520   33.4070   38.9040 H   0  0  0  0  0  0  0  0  0  0  0  0
   40.8420   33.8780   40.9410 N   0  0  0  0  0  0  0  0  0  0  0  0
   40.2820   34.1110   41.7680 H   0  0  0  0  0  0  0  0  0  0  0  0
   41.7090   32.7350   41.1850 C   0  0  0  0  0  2  0  0  0  0  0  0
   40.9290   31.5430   41.6270 C   0  0  0  0  0  2  0  0  0  0  0  0
   35.4790   28.9280   40.8200 C   0  0  0  0  0  0  0  0  0  0  0  0
   35.0200   29.4210   39.7400 O   0  0  0  0  0  0  0  0  0  0  0  0
   35.0380   28.1740   41.4680 H   0  0  0  0  0  0  0  0  0  0  0  0
  1  2  1  0  0  0  0
  2  7  1  0  0  0  0
  2  3  2  0  0  0  0
  3  8  1  0  0  0  0
  4  3  1  0  0  0  0
  5  4  2  0  0  0  0
  6  1  2  0  0  0  0
  6  5  1  0  0  0  0
  9  5  1  0  0  0  0
  9 17  1  0  0  0  0
 10 11  1  0  0  0  0
 10  9  1  0  0  0  0
 12 10  1  0  0  0  0
 12 14  1  0  0  0  0
 13 12  1  0  0  0  0
 14 16  1  0  0  0  0
 14 15  1  0  0  0  0
 16 17  1  0  0  0  0
 18  1  1  0  0  0  0
 18 20  1  0  0  0  0
 19 18  2  0  0  0  0
M  END
>  <minimizedAffinity>
-3.88918853

$$$$
