
 OpenBabel03252509213D

 25 27  0  0  0  0  0  0  0  0999 V2000
   39.0360   30.3760   42.1790 C   0  0  0  0  0  0  0  0  0  0  0  0
   38.0900   30.6690   41.1800 C   0  0  0  0  0  0  0  0  0  0  0  0
   36.9590   29.8610   41.2010 C   0  0  0  0  0  0  0  0  0  0  0  0
   36.8110   28.8580   42.1470 N   0  0  0  0  0  0  0  0  0  0  0  0
   37.7480   28.6290   43.0740 C   0  0  0  0  0  0  0  0  0  0  0  0
   38.8610   29.3910   43.0850 N   0  0  0  0  0  0  0  0  0  0  0  0
   39.9450   30.9650   42.2220 H   0  0  0  0  0  0  0  0  0  0  0  0
   37.4640   27.8160   43.7220 H   0  0  0  0  0  0  0  0  0  0  0  0
   38.3330   31.7090   40.2760 N   0  0  0  0  0  0  0  0  0  0  0  0
   37.8590   33.0940   40.2540 C   0  0  0  0  0  3  0  0  0  0  0  0
   37.2350   33.3150   39.3730 H   0  0  0  0  0  0  0  0  0  0  0  0
   39.0890   33.9940   40.1780 C   0  0  0  0  0  3  0  0  0  0  0  0
   39.7000   33.8210   41.1020 H   0  0  0  0  0  0  0  0  0  0  0  0
   39.8880   33.6880   39.0310 N   0  0  0  0  0  0  0  0  0  0  0  0
   39.3800   33.8230   38.1490 H   0  0  0  0  0  0  0  0  0  0  0  0
   40.3740   32.3250   39.2040 C   0  0  0  0  0  2  0  0  0  0  0  0
   39.1960   31.3960   39.1560 C   0  0  0  0  0  2  0  0  0  0  0  0
   35.8540   30.1810   40.2150 C   0  0  0  0  0  0  0  0  0  0  0  0
   35.9760   29.2750   38.9750 C   0  0  0  0  0  0  0  0  0  0  0  0
   34.8260   29.1950   40.0270 C   0  0  0  0  0  0  0  0  0  0  0  0
   35.8080   31.2330   39.8960 H   0  0  0  0  0  0  0  0  0  0  0  0
   36.7250   28.4930   38.9900 H   0  0  0  0  0  0  0  0  0  0  0  0
   35.7210   29.7880   38.0340 H   0  0  0  0  0  0  0  0  0  0  0  0
   33.8260   29.3910   39.5950 H   0  0  0  0  0  0  0  0  0  0  0  0
   34.8550   28.2330   40.6020 H   0  0  0  0  0  0  0  0  0  0  0  0
  1  7  1  0  0  0  0
  1  6  1  0  0  0  0
  2  3  1  0  0  0  0
  2  1  2  0  0  0  0
  3  4  2  0  0  0  0
  4  5  1  0  0  0  0
  5  6  2  0  0  0  0
  5  8  1  0  0  0  0
  9  2  1  0  0  0  0
 10  9  1  0  0  0  0
 11 10  1  0  0  0  0
 12 10  1  0  0  0  0
 12 13  1  0  0  0  0
 14 16  1  0  0  0  0
 14 12  1  0  0  0  0
 15 14  1  0  0  0  0
 17 16  1  0  0  0  0
 17  9  1  0  0  0  0
 18  3  1  0  0  0  0
 19 22  1  0  0  0  0
 19 20  1  0  0  0  0
 19 18  1  0  0  0  0
 20 18  1  0  0  0  0
 20 25  1  0  0  0  0
 21 18  1  0  0  0  0
 23 19  1  0  0  0  0
 24 20  1  0  0  0  0
M  END
>  <minimizedAffinity>
-4.35315895

$$$$

 OpenBabel03252509213D

 25 27  0  0  0  0  0  0  0  0999 V2000
   38.3060   29.0780   39.1510 C   0  0  0  0  0  0  0  0  0  0  0  0
   37.9670   29.3910   40.4800 C   0  0  0  0  0  0  0  0  0  0  0  0
   37.5940   28.2990   41.2530 C   0  0  0  0  0  0  0  0  0  0  0  0
   37.5720   27.0170   40.7230 N   0  0  0  0  0  0  0  0  0  0  0  0
   37.9070   26.7840   39.4490 C   0  0  0  0  0  0  0  0  0  0  0  0
   38.2730   27.8180   38.6660 N   0  0  0  0  0  0  0  0  0  0  0  0
   38.6060   29.8820   38.4880 H   0  0  0  0  0  0  0  0  0  0  0  0
   37.8330   25.7340   39.2130 H   0  0  0  0  0  0  0  0  0  0  0  0
   38.0290   30.7190   40.9180 N   0  0  0  0  0  0  0  0  0  0  0  0
   39.1000   31.4620   41.5850 C   0  0  0  0  0  3  0  0  0  0  0  0
   38.8180   31.7990   42.5940 H   0  0  0  0  0  0  0  0  0  0  0  0
   39.3770   32.7070   40.7480 C   0  0  0  0  0  3  0  0  0  0  0  0
   39.7250   32.3720   39.7350 H   0  0  0  0  0  0  0  0  0  0  0  0
   38.1980   33.5020   40.5910 N   0  0  0  0  0  0  0  0  0  0  0  0
   37.8260   33.8360   41.4880 H   0  0  0  0  0  0  0  0  0  0  0  0
   37.2400   32.6970   39.8430 C   0  0  0  0  0  2  0  0  0  0  0  0
   36.8470   31.5240   40.6920 C   0  0  0  0  0  2  0  0  0  0  0  0
   37.3070   28.5470   42.7200 C   0  0  0  0  0  0  0  0  0  0  0  0
   36.5490   27.3480   43.3190 C   0  0  0  0  0  0  0  0  0  0  0  0
   38.0140   27.7460   43.6800 C   0  0  0  0  0  0  0  0  0  0  0  0
   36.7520   29.4730   42.9330 H   0  0  0  0  0  0  0  0  0  0  0  0
   36.4060   26.4750   42.6940 H   0  0  0  0  0  0  0  0  0  0  0  0
   35.7840   27.6400   44.0570 H   0  0  0  0  0  0  0  0  0  0  0  0
   38.1450   28.0000   44.7490 H   0  0  0  0  0  0  0  0  0  0  0  0
   38.7510   26.9740   43.3370 H   0  0  0  0  0  0  0  0  0  0  0  0
  1  2  1  0  0  0  0
  2  9  1  0  0  0  0
  2  3  2  0  0  0  0
  3 18  1  0  0  0  0
  4  3  1  0  0  0  0
  5  4  2  0  0  0  0
  6  1  2  0  0  0  0
  6  5  1  0  0  0  0
  7  1  1  0  0  0  0
  8  5  1  0  0  0  0
  9 10  1  0  0  0  0
 10 11  1  0  0  0  0
 12 10  1  0  0  0  0
 13 12  1  0  0  0  0
 14 12  1  0  0  0  0
 14 15  1  0  0  0  0
 16 14  1  0  0  0  0
 16 17  1  0  0  0  0
 17  9  1  0  0  0  0
 18 21  1  0  0  0  0
 18 19  1  0  0  0  0
 18 20  1  0  0  0  0
 19 20  1  0  0  0  0
 19 23  1  0  0  0  0
 20 24  1  0  0  0  0
 22 19  1  0  0  0  0
 25 20  1  0  0  0  0
M  END
>  <minimizedAffinity>
-4.27809858

$$$$

 OpenBabel03252509213D

 25 27  0  0  0  0  0  0  0  0999 V2000
   38.5300   29.6860   42.5420 C   0  0  0  0  0  0  0  0  0  0  0  0
   37.9230   29.9350   41.2970 C   0  0  0  0  0  0  0  0  0  0  0  0
   36.8100   29.1480   41.0290 C   0  0  0  0  0  0  0  0  0  0  0  0
   36.3610   28.2050   41.9410 N   0  0  0  0  0  0  0  0  0  0  0  0
   36.9820   28.0150   43.1110 C   0  0  0  0  0  0  0  0  0  0  0  0
   38.0670   28.7590   43.4070 N   0  0  0  0  0  0  0  0  0  0  0  0
   39.4050   30.2630   42.8170 H   0  0  0  0  0  0  0  0  0  0  0  0
   36.4960   27.2460   43.6900 H   0  0  0  0  0  0  0  0  0  0  0  0
   38.4520   30.9160   40.4500 N   0  0  0  0  0  0  0  0  0  0  0  0
   39.3640   30.8100   39.3090 C   0  0  0  0  0  3  0  0  0  0  0  0
   40.3180   31.3330   39.4790 H   0  0  0  0  0  0  0  0  0  0  0  0
   38.6820   31.4820   38.1210 C   0  0  0  0  0  3  0  0  0  0  0  0
   37.7380   30.9170   37.9010 H   0  0  0  0  0  0  0  0  0  0  0  0
   38.3500   32.8420   38.4100 N   0  0  0  0  0  0  0  0  0  0  0  0
   39.1760   33.4120   38.6260 H   0  0  0  0  0  0  0  0  0  0  0  0
   37.3770   32.8200   39.4960 C   0  0  0  0  0  2  0  0  0  0  0  0
   38.0530   32.2810   40.7220 C   0  0  0  0  0  2  0  0  0  0  0  0
   36.0500   29.4260   39.7480 C   0  0  0  0  0  0  0  0  0  0  0  0
   35.6300   28.1010   39.0850 C   0  0  0  0  0  0  0  0  0  0  0  0
   34.6450   29.1250   39.7320 C   0  0  0  0  0  0  0  0  0  0  0  0
   36.5870   30.0470   39.0160 H   0  0  0  0  0  0  0  0  0  0  0  0
   35.8220   27.1810   39.6250 H   0  0  0  0  0  0  0  0  0  0  0  0
   35.6850   28.1270   37.9860 H   0  0  0  0  0  0  0  0  0  0  0  0
   33.9140   29.5390   39.0110 H   0  0  0  0  0  0  0  0  0  0  0  0
   34.1470   28.7050   40.6440 H   0  0  0  0  0  0  0  0  0  0  0  0
  1  7  1  0  0  0  0
  1  6  1  0  0  0  0
  2  1  2  0  0  0  0
  3  2  1  0  0  0  0
  3  4  2  0  0  0  0
  4  5  1  0  0  0  0
  5  6  2  0  0  0  0
  5  8  1  0  0  0  0
  9 17  1  0  0  0  0
  9  2  1  0  0  0  0
 10 11  1  0  0  0  0
 10  9  1  0  0  0  0
 12 14  1  0  0  0  0
 12 10  1  0  0  0  0
 13 12  1  0  0  0  0
 14 15  1  0  0  0  0
 14 16  1  0  0  0  0
 16 17  1  0  0  0  0
 18  3  1  0  0  0  0
 19 22  1  0  0  0  0
 19 20  1  0  0  0  0
 19 18  1  0  0  0  0
 20 18  1  0  0  0  0
 20 25  1  0  0  0  0
 21 18  1  0  0  0  0
 23 19  1  0  0  0  0
 24 20  1  0  0  0  0
M  END
>  <minimizedAffinity>
-4.22028971

$$$$

 OpenBabel03252509213D

 25 27  0  0  0  0  0  0  0  0999 V2000
   36.1030   27.3120   38.9360 C   0  0  0  0  0  0  0  0  0  0  0  0
   36.7660   26.9030   40.1070 C   0  0  0  0  0  0  0  0  0  0  0  0
   36.6240   27.7700   41.1840 C   0  0  0  0  0  0  0  0  0  0  0  0
   35.8790   28.9350   41.0750 N   0  0  0  0  0  0  0  0  0  0  0  0
   35.2710   29.2690   39.9320 C   0  0  0  0  0  0  0  0  0  0  0  0
   35.3860   28.4540   38.8640 N   0  0  0  0  0  0  0  0  0  0  0  0
   36.1710   26.6850   38.0540 H   0  0  0  0  0  0  0  0  0  0  0  0
   34.7390   30.2020   40.0310 H   0  0  0  0  0  0  0  0  0  0  0  0
   37.4870   25.7040   40.1140 N   0  0  0  0  0  0  0  0  0  0  0  0
   38.9130   25.4390   39.9070 C   0  0  0  0  0  3  0  0  0  0  0  0
   39.1040   24.8210   39.0160 H   0  0  0  0  0  0  0  0  0  0  0  0
   39.4090   24.6570   41.1200 C   0  0  0  0  0  3  0  0  0  0  0  0
   39.2750   25.3050   42.0270 H   0  0  0  0  0  0  0  0  0  0  0  0
   38.6660   23.4490   41.3010 N   0  0  0  0  0  0  0  0  0  0  0  0
   38.7450   22.8130   40.4990 H   0  0  0  0  0  0  0  0  0  0  0  0
   37.2890   23.8360   41.5850 C   0  0  0  0  0  2  0  0  0  0  0  0
   36.7250   24.4990   40.3620 C   0  0  0  0  0  2  0  0  0  0  0  0
   37.2320   27.3470   42.5060 C   0  0  0  0  0  0  0  0  0  0  0  0
   37.4580   28.5800   43.4010 C   0  0  0  0  0  0  0  0  0  0  0  0
   36.4110   27.4560   43.6790 C   0  0  0  0  0  0  0  0  0  0  0  0
   38.1710   26.7790   42.4230 H   0  0  0  0  0  0  0  0  0  0  0  0
   37.0860   29.5350   43.0510 H   0  0  0  0  0  0  0  0  0  0  0  0
   38.3820   28.5230   43.9970 H   0  0  0  0  0  0  0  0  0  0  0  0
   36.5880   26.9220   44.6330 H   0  0  0  0  0  0  0  0  0  0  0  0
   35.3600   27.8370   43.5990 H   0  0  0  0  0  0  0  0  0  0  0  0
  1  2  1  0  0  0  0
  2  9  1  0  0  0  0
  2  3  2  0  0  0  0
  3 18  1  0  0  0  0
  4  3  1  0  0  0  0
  5  8  1  0  0  0  0
  5  4  2  0  0  0  0
  6  1  2  0  0  0  0
  6  5  1  0  0  0  0
  7  1  1  0  0  0  0
  9 17  1  0  0  0  0
 10  9  1  0  0  0  0
 10 12  1  0  0  0  0
 11 10  1  0  0  0  0
 12 14  1  0  0  0  0
 12 13  1  0  0  0  0
 14 16  1  0  0  0  0
 15 14  1  0  0  0  0
 17 16  1  0  0  0  0
 18 19  1  0  0  0  0
 18 20  1  0  0  0  0
 19 20  1  0  0  0  0
 19 23  1  0  0  0  0
 20 24  1  0  0  0  0
 21 18  1  0  0  0  0
 22 19  1  0  0  0  0
 25 20  1  0  0  0  0
M  END
>  <minimizedAffinity>
-4.19293785

$$$$

 OpenBabel03252509213D

 25 27  0  0  0  0  0  0  0  0999 V2000
   37.0430   30.7030   40.9670 C   0  0  0  0  0  0  0  0  0  0  0  0
   38.1370   30.1880   41.6870 C   0  0  0  0  0  0  0  0  0  0  0  0
   39.2300   31.0430   41.7680 C   0  0  0  0  0  0  0  0  0  0  0  0
   39.2050   32.2980   41.1770 N   0  0  0  0  0  0  0  0  0  0  0  0
   38.1320   32.7320   40.5060 C   0  0  0  0  0  0  0  0  0  0  0  0
   37.0530   31.9300   40.4030 N   0  0  0  0  0  0  0  0  0  0  0  0
   36.1560   30.0890   40.8610 H   0  0  0  0  0  0  0  0  0  0  0  0
   38.2910   33.7250   40.1170 H   0  0  0  0  0  0  0  0  0  0  0  0
   38.0580   28.9100   42.2510 N   0  0  0  0  0  0  0  0  0  0  0  0
   37.6440   28.4730   43.5860 C   0  0  0  0  0  3  0  0  0  0  0  0
   38.4590   27.9850   44.1440 H   0  0  0  0  0  0  0  0  0  0  0  0
   36.5350   27.4410   43.4020 C   0  0  0  0  0  3  0  0  0  0  0  0
   35.6750   27.9460   42.8890 H   0  0  0  0  0  0  0  0  0  0  0  0
   36.9740   26.3430   42.5970 N   0  0  0  0  0  0  0  0  0  0  0  0
   37.7670   25.8410   43.0130 H   0  0  0  0  0  0  0  0  0  0  0  0
   37.2730   26.8800   41.2740 C   0  0  0  0  0  2  0  0  0  0  0  0
   38.4460   27.8070   41.3970 C   0  0  0  0  0  2  0  0  0  0  0  0
   40.4080   30.5940   42.6080 C   0  0  0  0  0  0  0  0  0  0  0  0
   41.5050   30.0020   41.7030 C   0  0  0  0  0  0  0  0  0  0  0  0
   41.6280   31.3420   42.4930 C   0  0  0  0  0  0  0  0  0  0  0  0
   40.1620   29.8740   43.4030 H   0  0  0  0  0  0  0  0  0  0  0  0
   41.3650   30.0640   40.6300 H   0  0  0  0  0  0  0  0  0  0  0  0
   42.0210   29.1390   42.1510 H   0  0  0  0  0  0  0  0  0  0  0  0
   42.4510   31.3360   43.2340 H   0  0  0  0  0  0  0  0  0  0  0  0
   41.6870   32.2260   41.8070 H   0  0  0  0  0  0  0  0  0  0  0  0
  1  2  1  0  0  0  0
  2  3  2  0  0  0  0
  2  9  1  0  0  0  0
  3 18  1  0  0  0  0
  4  3  1  0  0  0  0
  5  4  2  0  0  0  0
  6  5  1  0  0  0  0
  6  1  2  0  0  0  0
  7  1  1  0  0  0  0
  8  5  1  0  0  0  0
  9 10  1  0  0  0  0
 10 11  1  0  0  0  0
 12 10  1  0  0  0  0
 13 12  1  0  0  0  0
 14 15  1  0  0  0  0
 14 12  1  0  0  0  0
 16 17  1  0  0  0  0
 16 14  1  0  0  0  0
 17  9  1  0  0  0  0
 18 21  1  0  0  0  0
 19 23  1  0  0  0  0
 19 20  1  0  0  0  0
 19 18  1  0  0  0  0
 20 18  1  0  0  0  0
 20 24  1  0  0  0  0
 22 19  1  0  0  0  0
 25 20  1  0  0  0  0
M  END
>  <minimizedAffinity>
-4.05677319

$$$$

 OpenBabel03252509213D

 25 27  0  0  0  0  0  0  0  0999 V2000
   38.7620   31.3720   41.2720 C   0  0  0  0  0  0  0  0  0  0  0  0
   37.9210   30.2540   41.4310 C   0  0  0  0  0  0  0  0  0  0  0  0
   36.7270   30.3250   40.7250 C   0  0  0  0  0  0  0  0  0  0  0  0
   36.4240   31.4230   39.9340 N   0  0  0  0  0  0  0  0  0  0  0  0
   37.2670   32.4560   39.8220 C   0  0  0  0  0  0  0  0  0  0  0  0
   38.4360   32.4260   40.4940 N   0  0  0  0  0  0  0  0  0  0  0  0
   39.7100   31.3870   41.7960 H   0  0  0  0  0  0  0  0  0  0  0  0
   36.8680   33.2150   39.1680 H   0  0  0  0  0  0  0  0  0  0  0  0
   38.3250   29.1930   42.2490 N   0  0  0  0  0  0  0  0  0  0  0  0
   37.8800   28.7850   43.5830 C   0  0  0  0  0  3  0  0  0  0  0  0
   38.6820   28.8470   44.3350 H   0  0  0  0  0  0  0  0  0  0  0  0
   37.4520   27.3230   43.4910 C   0  0  0  0  0  3  0  0  0  0  0  0
   36.5920   27.2600   42.7730 H   0  0  0  0  0  0  0  0  0  0  0  0
   38.5170   26.4980   43.0120 N   0  0  0  0  0  0  0  0  0  0  0  0
   39.3390   26.5170   43.6270 H   0  0  0  0  0  0  0  0  0  0  0  0
   38.8140   26.9350   41.6530 C   0  0  0  0  0  2  0  0  0  0  0  0
   39.3600   28.3320   41.7170 C   0  0  0  0  0  2  0  0  0  0  0  0
   35.8150   29.1160   40.7730 C   0  0  0  0  0  0  0  0  0  0  0  0
   34.7150   29.2410   39.7020 C   0  0  0  0  0  0  0  0  0  0  0  0
   35.8730   28.1950   39.6730 C   0  0  0  0  0  0  0  0  0  0  0  0
   35.3500   28.9250   41.7530 H   0  0  0  0  0  0  0  0  0  0  0  0
   34.7740   30.0740   39.0110 H   0  0  0  0  0  0  0  0  0  0  0  0
   33.7380   28.8560   40.0330 H   0  0  0  0  0  0  0  0  0  0  0  0
   35.5140   27.1480   39.6980 H   0  0  0  0  0  0  0  0  0  0  0  0
   36.5780   28.3780   38.8200 H   0  0  0  0  0  0  0  0  0  0  0  0
  1  2  1  0  0  0  0
  1  7  1  0  0  0  0
  2  9  1  0  0  0  0
  3 18  1  0  0  0  0
  3  2  2  0  0  0  0
  4  3  1  0  0  0  0
  5  4  2  0  0  0  0
  5  6  1  0  0  0  0
  6  1  2  0  0  0  0
  8  5  1  0  0  0  0
  9 10  1  0  0  0  0
 10 11  1  0  0  0  0
 12 10  1  0  0  0  0
 13 12  1  0  0  0  0
 14 12  1  0  0  0  0
 14 15  1  0  0  0  0
 16 17  1  0  0  0  0
 16 14  1  0  0  0  0
 17  9  1  0  0  0  0
 18 21  1  0  0  0  0
 19 23  1  0  0  0  0
 19 18  1  0  0  0  0
 20 24  1  0  0  0  0
 20 19  1  0  0  0  0
 20 18  1  0  0  0  0
 22 19  1  0  0  0  0
 25 20  1  0  0  0  0
M  END
>  <minimizedAffinity>
-4.05581999

$$$$

 OpenBabel03252509213D

 25 27  0  0  0  0  0  0  0  0999 V2000
   39.5740   29.4130   39.6150 C   0  0  0  0  0  0  0  0  0  0  0  0
   38.7930   30.3760   40.2820 C   0  0  0  0  0  0  0  0  0  0  0  0
   39.0540   31.6890   39.9090 C   0  0  0  0  0  0  0  0  0  0  0  0
   40.0110   31.9870   38.9510 N   0  0  0  0  0  0  0  0  0  0  0  0
   40.7210   31.0250   38.3520 C   0  0  0  0  0  0  0  0  0  0  0  0
   40.4990   29.7380   38.6880 N   0  0  0  0  0  0  0  0  0  0  0  0
   39.4260   28.3670   39.8570 H   0  0  0  0  0  0  0  0  0  0  0  0
   41.4150   31.4400   37.6380 H   0  0  0  0  0  0  0  0  0  0  0  0
   37.8470   29.9680   41.2290 N   0  0  0  0  0  0  0  0  0  0  0  0
   36.4120   29.7070   41.1030 C   0  0  0  0  0  3  0  0  0  0  0  0
   35.8010   30.3930   41.7100 H   0  0  0  0  0  0  0  0  0  0  0  0
   36.1610   28.2940   41.6200 C   0  0  0  0  0  3  0  0  0  0  0  0
   36.7310   27.5810   40.9680 H   0  0  0  0  0  0  0  0  0  0  0  0
   36.6100   28.1460   42.9700 N   0  0  0  0  0  0  0  0  0  0  0  0
   36.1270   28.7780   43.6180 H   0  0  0  0  0  0  0  0  0  0  0  0
   38.0550   28.3390   42.9600 C   0  0  0  0  0  2  0  0  0  0  0  0
   38.3360   29.7630   42.5760 C   0  0  0  0  0  2  0  0  0  0  0  0
   38.1860   32.7720   40.5160 C   0  0  0  0  0  0  0  0  0  0  0  0
   38.7350   34.1610   40.1410 C   0  0  0  0  0  0  0  0  0  0  0  0
   37.3900   33.5650   39.6200 C   0  0  0  0  0  0  0  0  0  0  0  0
   38.0630   32.7100   41.6080 H   0  0  0  0  0  0  0  0  0  0  0  0
   39.5650   34.2060   39.4460 H   0  0  0  0  0  0  0  0  0  0  0  0
   38.6430   34.9000   40.9520 H   0  0  0  0  0  0  0  0  0  0  0  0
   36.5070   34.1640   39.9130 H   0  0  0  0  0  0  0  0  0  0  0  0
   37.4200   33.3710   38.5160 H   0  0  0  0  0  0  0  0  0  0  0  0
  1  7  1  0  0  0  0
  1  2  1  0  0  0  0
  2  9  1  0  0  0  0
  3  2  2  0  0  0  0
  3 18  1  0  0  0  0
  4  3  1  0  0  0  0
  5  6  1  0  0  0  0
  5  4  2  0  0  0  0
  6  1  2  0  0  0  0
  8  5  1  0  0  0  0
  9 17  1  0  0  0  0
 10  9  1  0  0  0  0
 10 12  1  0  0  0  0
 10 11  1  0  0  0  0
 12 14  1  0  0  0  0
 13 12  1  0  0  0  0
 14 15  1  0  0  0  0
 16 14  1  0  0  0  0
 17 16  1  0  0  0  0
 18 21  1  0  0  0  0
 19 18  1  0  0  0  0
 19 23  1  0  0  0  0
 20 24  1  0  0  0  0
 20 19  1  0  0  0  0
 20 18  1  0  0  0  0
 22 19  1  0  0  0  0
 25 20  1  0  0  0  0
M  END
>  <minimizedAffinity>
-4.03819036

$$$$

 OpenBabel03252509213D

 25 27  0  0  0  0  0  0  0  0999 V2000
   38.2890   27.7690   38.7390 C   0  0  0  0  0  0  0  0  0  0  0  0
   37.9280   27.4820   40.0690 C   0  0  0  0  0  0  0  0  0  0  0  0
   38.2750   26.2070   40.4990 C   0  0  0  0  0  0  0  0  0  0  0  0
   38.9260   25.3180   39.6580 N   0  0  0  0  0  0  0  0  0  0  0  0
   39.2430   25.6500   38.4010 C   0  0  0  0  0  0  0  0  0  0  0  0
   38.9220   26.8780   37.9460 N   0  0  0  0  0  0  0  0  0  0  0  0
   38.0480   28.7450   38.3350 H   0  0  0  0  0  0  0  0  0  0  0  0
   39.7430   24.8390   37.8980 H   0  0  0  0  0  0  0  0  0  0  0  0
   37.2780   28.4550   40.8370 N   0  0  0  0  0  0  0  0  0  0  0  0
   37.8110   29.5120   41.6990 C   0  0  0  0  0  3  0  0  0  0  0  0
   37.5230   29.3840   42.7550 H   0  0  0  0  0  0  0  0  0  0  0  0
   37.2130   30.8320   41.2200 C   0  0  0  0  0  3  0  0  0  0  0  0
   37.5520   31.0010   40.1650 H   0  0  0  0  0  0  0  0  0  0  0  0
   35.7830   30.7960   41.2460 N   0  0  0  0  0  0  0  0  0  0  0  0
   35.4100   30.6370   42.1890 H   0  0  0  0  0  0  0  0  0  0  0  0
   35.3670   29.7750   40.2920 C   0  0  0  0  0  2  0  0  0  0  0  0
   35.8310   28.4410   40.7990 C   0  0  0  0  0  2  0  0  0  0  0  0
   38.0030   25.8620   41.9490 C   0  0  0  0  0  0  0  0  0  0  0  0
   36.9190   24.7710   42.0370 C   0  0  0  0  0  0  0  0  0  0  0  0
   38.4210   24.5680   42.4130 C   0  0  0  0  0  0  0  0  0  0  0  0
   37.7160   26.7150   42.5830 H   0  0  0  0  0  0  0  0  0  0  0  0
   36.5700   24.3280   41.1120 H   0  0  0  0  0  0  0  0  0  0  0  0
   36.2330   24.9060   42.8880 H   0  0  0  0  0  0  0  0  0  0  0  0
   38.5700   24.2890   43.4740 H   0  0  0  0  0  0  0  0  0  0  0  0
   38.9320   23.8550   41.7140 H   0  0  0  0  0  0  0  0  0  0  0  0
  1  2  1  0  0  0  0
  2  3  2  0  0  0  0
  2  9  1  0  0  0  0
  3 18  1  0  0  0  0
  4  3  1  0  0  0  0
  5  4  2  0  0  0  0
  6  5  1  0  0  0  0
  6  1  2  0  0  0  0
  7  1  1  0  0  0  0
  8  5  1  0  0  0  0
  9 10  1  0  0  0  0
 10 11  1  0  0  0  0
 12 14  1  0  0  0  0
 12 10  1  0  0  0  0
 13 12  1  0  0  0  0
 14 15  1  0  0  0  0
 16 17  1  0  0  0  0
 16 14  1  0  0  0  0
 17  9  1  0  0  0  0
 18 19  1  0  0  0  0
 18 20  1  0  0  0  0
 18 21  1  0  0  0  0
 19 20  1  0  0  0  0
 19 23  1  0  0  0  0
 20 24  1  0  0  0  0
 22 19  1  0  0  0  0
 25 20  1  0  0  0  0
M  END
>  <minimizedAffinity>
-4.00342751

$$$$

 OpenBabel03252509213D

 25 27  0  0  0  0  0  0  0  0999 V2000
   38.0230   31.2010   37.5710 C   0  0  0  0  0  0  0  0  0  0  0  0
   37.4260   31.0920   38.8410 C   0  0  0  0  0  0  0  0  0  0  0  0
   36.3070   30.2680   38.8840 C   0  0  0  0  0  0  0  0  0  0  0  0
   35.8480   29.6200   37.7470 N   0  0  0  0  0  0  0  0  0  0  0  0
   36.4610   29.7640   36.5670 C   0  0  0  0  0  0  0  0  0  0  0  0
   37.5490   30.5560   36.4840 N   0  0  0  0  0  0  0  0  0  0  0  0
   38.8990   31.8290   37.4620 H   0  0  0  0  0  0  0  0  0  0  0  0
   35.9680   29.1880   35.7990 H   0  0  0  0  0  0  0  0  0  0  0  0
   37.9730   31.7830   39.9270 N   0  0  0  0  0  0  0  0  0  0  0  0
   38.8890   31.3450   40.9820 C   0  0  0  0  0  3  0  0  0  0  0  0
   38.4340   31.3920   41.9850 H   0  0  0  0  0  0  0  0  0  0  0  0
   40.0790   32.2990   40.9750 C   0  0  0  0  0  3  0  0  0  0  0  0
   40.5860   32.2110   39.9780 H   0  0  0  0  0  0  0  0  0  0  0  0
   39.6620   33.6540   41.1640 N   0  0  0  0  0  0  0  0  0  0  0  0
   39.1850   33.7980   42.0610 H   0  0  0  0  0  0  0  0  0  0  0  0
   38.8330   34.0070   40.0170 C   0  0  0  0  0  2  0  0  0  0  0  0
   37.5870   33.1720   40.0630 C   0  0  0  0  0  2  0  0  0  0  0  0
   35.6690   30.0280   40.2370 C   0  0  0  0  0  0  0  0  0  0  0  0
   34.4750   29.0650   40.0940 C   0  0  0  0  0  0  0  0  0  0  0  0
   35.8150   28.7220   40.8180 C   0  0  0  0  0  0  0  0  0  0  0  0
   35.3440   30.9380   40.7640 H   0  0  0  0  0  0  0  0  0  0  0  0
   34.3010   28.6160   39.1240 H   0  0  0  0  0  0  0  0  0  0  0  0
   33.6310   29.3160   40.7550 H   0  0  0  0  0  0  0  0  0  0  0  0
   35.6810   28.4830   41.8900 H   0  0  0  0  0  0  0  0  0  0  0  0
   36.3880   27.9240   40.2770 H   0  0  0  0  0  0  0  0  0  0  0  0
  1  2  1  0  0  0  0
  2  3  2  0  0  0  0
  2  9  1  0  0  0  0
  3 18  1  0  0  0  0
  4  3  1  0  0  0  0
  5  4  2  0  0  0  0
  6  5  1  0  0  0  0
  6  1  2  0  0  0  0
  7  1  1  0  0  0  0
  8  5  1  0  0  0  0
  9 17  1  0  0  0  0
  9 10  1  0  0  0  0
 10 11  1  0  0  0  0
 12 10  1  0  0  0  0
 12 14  1  0  0  0  0
 13 12  1  0  0  0  0
 14 15  1  0  0  0  0
 16 17  1  0  0  0  0
 16 14  1  0  0  0  0
 18 21  1  0  0  0  0
 18 20  1  0  0  0  0
 19 18  1  0  0  0  0
 19 23  1  0  0  0  0
 19 20  1  0  0  0  0
 20 24  1  0  0  0  0
 22 19  1  0  0  0  0
 25 20  1  0  0  0  0
M  END
>  <minimizedAffinity>
-3.96431065

$$$$
