
 OpenBabel03252501263D

 35 38  0  0  0  0  0  0  0  0999 V2000
   40.9050   31.6120   40.9890 F   0  0  0  0  0  0  0  0  0  0  0  0
   39.7350   32.1720   40.6120 C   0  0  0  0  0  0  0  0  0  0  0  0
   38.5640   31.5090   40.8400 C   0  0  0  0  0  0  0  0  0  0  0  0
   37.3610   32.0760   40.4560 C   0  0  0  0  0  0  0  0  0  0  0  0
   37.2960   33.3100   39.8410 C   0  0  0  0  0  0  0  0  0  0  0  0
   38.4810   33.9560   39.6220 C   0  0  0  0  0  0  0  0  0  0  0  0
   39.6960   33.4100   39.9970 C   0  0  0  0  0  0  0  0  0  0  0  0
   36.4070   31.5690   40.6250 H   0  0  0  0  0  0  0  0  0  0  0  0
   36.3480   33.7320   39.5500 H   0  0  0  0  0  0  0  0  0  0  0  0
   38.4080   34.9260   39.1360 H   0  0  0  0  0  0  0  0  0  0  0  0
   40.9030   34.1450   39.7370 N   0  0  0  0  0  0  0  0  0  0  0  0
   41.8160   34.1280   38.6000 C   0  0  0  0  0  3  0  0  0  0  0  0
   41.7630   35.0570   37.9910 H   0  0  0  0  0  0  0  0  0  0  0  0
   43.2280   33.7980   39.0160 C   0  0  0  0  0  3  0  0  0  0  0  0
   43.8930   34.1300   38.1840 H   0  0  0  0  0  0  0  0  0  0  0  0
   43.6630   34.4220   40.2160 N   0  0  0  0  0  0  0  0  0  0  0  0
   44.3050   35.2140   40.1390 H   0  0  0  0  0  0  0  0  0  0  0  0
   42.6890   34.5520   41.2590 C   0  0  0  0  0  2  0  0  0  0  0  0
   41.3840   35.0980   40.7190 C   0  0  0  0  0  2  0  0  0  0  0  0
   37.9570   28.1240   41.5920 C   0  0  0  0  0  0  0  0  0  0  0  0
   38.5510   28.5480   42.7780 C   0  0  0  0  0  0  0  0  0  0  0  0
   38.8640   29.8700   42.6700 C   0  0  0  0  0  0  0  0  0  0  0  0
   38.4740   30.2530   41.4540 N   0  0  0  0  0  0  0  0  0  0  0  0
   37.9300   29.1970   40.8130 N   0  0  0  0  0  0  0  0  0  0  0  0
   38.7420   27.9340   43.6550 H   0  0  0  0  0  0  0  0  0  0  0  0
   39.3300   30.5620   43.3610 H   0  0  0  0  0  0  0  0  0  0  0  0
   36.5940   25.1920   39.8670 C   0  0  0  0  0  0  0  0  0  0  0  0
   36.6140   24.2170   40.8860 C   0  0  0  0  0  0  0  0  0  0  0  0
   37.0960   24.5720   42.1530 C   0  0  0  0  0  0  0  0  0  0  0  0
   37.5060   25.8510   42.2870 N   0  0  0  0  0  0  0  0  0  0  0  0
   37.4880   26.7750   41.3300 C   0  0  0  0  0  0  0  0  0  0  0  0
   37.0280   26.4550   40.0960 N   0  0  0  0  0  0  0  0  0  0  0  0
   36.2130   24.8700   38.9020 H   0  0  0  0  0  0  0  0  0  0  0  0
   36.2740   23.2200   40.7100 H   0  0  0  0  0  0  0  0  0  0  0  0
   37.1260   23.8500   42.9590 H   0  0  0  0  0  0  0  0  0  0  0  0
  2  3  1  0  0  0  0
  2  1  1  0  0  0  0
  3 23  1  0  0  0  0
  4  8  1  0  0  0  0
  4  3  2  0  0  0  0
  5  4  1  0  0  0  0
  6  5  2  0  0  0  0
  6  7  1  0  0  0  0
  7  2  2  0  0  0  0
  9  5  1  0  0  0  0
 10  6  1  0  0  0  0
 11  7  1  0  0  0  0
 11 19  1  0  0  0  0
 12 14  1  0  0  0  0
 12 11  1  0  0  0  0
 13 12  1  0  0  0  0
 14 16  1  0  0  0  0
 15 14  1  0  0  0  0
 16 18  1  0  0  0  0
 17 16  1  0  0  0  0
 19 18  1  0  0  0  0
 20 21  1  0  0  0  0
 21 25  1  0  0  0  0
 22 21  2  0  0  0  0
 22 26  1  0  0  0  0
 23 22  1  0  0  0  0
 24 23  1  0  0  0  0
 24 20  2  0  0  0  0
 27 32  2  0  0  0  0
 27 28  1  0  0  0  0
 28 29  2  0  0  0  0
 29 30  1  0  0  0  0
 29 35  1  0  0  0  0
 31 20  1  0  0  0  0
 31 30  2  0  0  0  0
 32 31  1  0  0  0  0
 33 27  1  0  0  0  0
 34 28  1  0  0  0  0
M  END
>  <minimizedAffinity>
-6.0152545

$$$$

 OpenBabel03252501263D

 35 38  0  0  0  0  0  0  0  0999 V2000
   38.1740   28.2380   39.4090 F   0  0  0  0  0  0  0  0  0  0  0  0
   37.9050   28.2540   40.7330 C   0  0  0  0  0  0  0  0  0  0  0  0
   37.8340   29.4460   41.3940 C   0  0  0  0  0  0  0  0  0  0  0  0
   37.5600   29.4710   42.7500 C   0  0  0  0  0  0  0  0  0  0  0  0
   37.3510   28.3150   43.4760 C   0  0  0  0  0  0  0  0  0  0  0  0
   37.4280   27.1330   42.7940 C   0  0  0  0  0  0  0  0  0  0  0  0
   37.7000   27.0830   41.4390 C   0  0  0  0  0  0  0  0  0  0  0  0
   37.4970   30.4100   43.3070 H   0  0  0  0  0  0  0  0  0  0  0  0
   37.1400   28.3580   44.5320 H   0  0  0  0  0  0  0  0  0  0  0  0
   37.2610   26.2350   43.3840 H   0  0  0  0  0  0  0  0  0  0  0  0
   37.7650   25.8040   40.7850 N   0  0  0  0  0  0  0  0  0  0  0  0
   36.7490   25.0270   40.0850 C   0  0  0  0  0  3  0  0  0  0  0  0
   36.9160   24.9890   38.9860 H   0  0  0  0  0  0  0  0  0  0  0  0
   36.5800   23.6530   40.6840 C   0  0  0  0  0  3  0  0  0  0  0  0
   36.0620   23.0310   39.9170 H   0  0  0  0  0  0  0  0  0  0  0  0
   37.7890   23.0020   41.0500 N   0  0  0  0  0  0  0  0  0  0  0  0
   38.1290   22.2500   40.4450 H   0  0  0  0  0  0  0  0  0  0  0  0
   38.8200   23.8310   41.5990 C   0  0  0  0  0  2  0  0  0  0  0  0
   39.0200   25.0770   40.7630 C   0  0  0  0  0  2  0  0  0  0  0  0
   39.1670   32.3030   39.8260 C   0  0  0  0  0  0  0  0  0  0  0  0
   37.8300   32.6710   39.9380 C   0  0  0  0  0  0  0  0  0  0  0  0
   37.1390   31.6620   40.5380 C   0  0  0  0  0  0  0  0  0  0  0  0
   38.0230   30.6970   40.7900 N   0  0  0  0  0  0  0  0  0  0  0  0
   39.2390   31.0900   40.3590 N   0  0  0  0  0  0  0  0  0  0  0  0
   37.3930   33.6110   39.6050 H   0  0  0  0  0  0  0  0  0  0  0  0
   36.0930   31.5580   40.8030 H   0  0  0  0  0  0  0  0  0  0  0  0
   41.4510   35.0990   39.1930 C   0  0  0  0  0  0  0  0  0  0  0  0
   42.1940   34.6260   38.0920 C   0  0  0  0  0  0  0  0  0  0  0  0
   41.9080   33.3550   37.5770 C   0  0  0  0  0  0  0  0  0  0  0  0
   40.9180   32.6800   38.1980 N   0  0  0  0  0  0  0  0  0  0  0  0
   40.2120   33.1210   39.2380 C   0  0  0  0  0  0  0  0  0  0  0  0
   40.4710   34.3470   39.7530 N   0  0  0  0  0  0  0  0  0  0  0  0
   41.7090   36.0880   39.5580 H   0  0  0  0  0  0  0  0  0  0  0  0
   42.9660   35.2140   37.6480 H   0  0  0  0  0  0  0  0  0  0  0  0
   42.4580   32.9600   36.7330 H   0  0  0  0  0  0  0  0  0  0  0  0
  1  2  1  0  0  0  0
  2  3  2  0  0  0  0
  2  7  1  0  0  0  0
  3  4  1  0  0  0  0
  4  8  1  0  0  0  0
  4  5  2  0  0  0  0
  5  9  1  0  0  0  0
  6 10  1  0  0  0  0
  6  5  1  0  0  0  0
  7  6  2  0  0  0  0
 11  7  1  0  0  0  0
 12 14  1  0  0  0  0
 12 11  1  0  0  0  0
 13 12  1  0  0  0  0
 14 16  1  0  0  0  0
 15 14  1  0  0  0  0
 16 18  1  0  0  0  0
 17 16  1  0  0  0  0
 19 11  1  0  0  0  0
 19 18  1  0  0  0  0
 20 21  1  0  0  0  0
 20 24  2  0  0  0  0
 21 22  2  0  0  0  0
 22 23  1  0  0  0  0
 22 26  1  0  0  0  0
 23  3  1  0  0  0  0
 24 23  1  0  0  0  0
 25 21  1  0  0  0  0
 27 33  1  0  0  0  0
 27 32  1  0  0  0  0
 28 27  2  0  0  0  0
 29 28  1  0  0  0  0
 29 30  2  0  0  0  0
 30 31  1  0  0  0  0
 31 32  2  0  0  0  0
 31 20  1  0  0  0  0
 34 28  1  0  0  0  0
 35 29  1  0  0  0  0
M  END
>  <minimizedAffinity>
-5.99329662

$$$$

 OpenBabel03252501263D

 35 38  0  0  0  0  0  0  0  0999 V2000
   37.4460   29.2990   39.5810 F   0  0  0  0  0  0  0  0  0  0  0  0
   38.1910   29.7630   40.6080 C   0  0  0  0  0  0  0  0  0  0  0  0
   38.3560   28.9960   41.7250 C   0  0  0  0  0  0  0  0  0  0  0  0
   39.1170   29.4650   42.7810 C   0  0  0  0  0  0  0  0  0  0  0  0
   39.7290   30.7030   42.7500 C   0  0  0  0  0  0  0  0  0  0  0  0
   39.5490   31.4540   41.6230 C   0  0  0  0  0  0  0  0  0  0  0  0
   38.7940   31.0070   40.5540 C   0  0  0  0  0  0  0  0  0  0  0  0
   39.2680   28.8740   43.6880 H   0  0  0  0  0  0  0  0  0  0  0  0
   40.3170   31.0480   43.5850 H   0  0  0  0  0  0  0  0  0  0  0  0
   40.0380   32.4250   41.6190 H   0  0  0  0  0  0  0  0  0  0  0  0
   38.6480   31.8500   39.3990 N   0  0  0  0  0  0  0  0  0  0  0  0
   37.5020   32.1140   38.5380 C   0  0  0  0  0  3  0  0  0  0  0  0
   37.0930   33.1410   38.6650 H   0  0  0  0  0  0  0  0  0  0  0  0
   37.7970   31.7930   37.0930 C   0  0  0  0  0  3  0  0  0  0  0  0
   37.0270   32.3230   36.4840 H   0  0  0  0  0  0  0  0  0  0  0  0
   39.0830   32.1900   36.6390 N   0  0  0  0  0  0  0  0  0  0  0  0
   39.1450   33.0190   36.0430 H   0  0  0  0  0  0  0  0  0  0  0  0
   40.1610   32.0520   37.5720 C   0  0  0  0  0  2  0  0  0  0  0  0
   39.7850   32.6160   38.9260 C   0  0  0  0  0  2  0  0  0  0  0  0
   37.3810   25.6310   41.3740 C   0  0  0  0  0  0  0  0  0  0  0  0
   36.7540   25.9580   42.5740 C   0  0  0  0  0  0  0  0  0  0  0  0
   37.0250   27.2570   42.8790 C   0  0  0  0  0  0  0  0  0  0  0  0
   37.7980   27.7220   41.8970 N   0  0  0  0  0  0  0  0  0  0  0  0
   38.0070   26.7390   40.9980 N   0  0  0  0  0  0  0  0  0  0  0  0
   36.1430   25.2920   43.1800 H   0  0  0  0  0  0  0  0  0  0  0  0
   36.7300   27.8820   43.7130 H   0  0  0  0  0  0  0  0  0  0  0  0
   38.2840   22.2580   40.2610 C   0  0  0  0  0  0  0  0  0  0  0  0
   37.1630   21.8950   39.4870 C   0  0  0  0  0  0  0  0  0  0  0  0
   36.1080   22.8080   39.3530 C   0  0  0  0  0  0  0  0  0  0  0  0
   36.2670   23.9850   39.9960 N   0  0  0  0  0  0  0  0  0  0  0  0
   37.3220   24.3330   40.7280 C   0  0  0  0  0  0  0  0  0  0  0  0
   38.3550   23.4670   40.8710 N   0  0  0  0  0  0  0  0  0  0  0  0
   39.0760   21.5190   40.3360 H   0  0  0  0  0  0  0  0  0  0  0  0
   37.1030   20.9450   39.0050 H   0  0  0  0  0  0  0  0  0  0  0  0
   35.2320   22.5650   38.7670 H   0  0  0  0  0  0  0  0  0  0  0  0
  1  2  1  0  0  0  0
  2  3  1  0  0  0  0
  3 23  1  0  0  0  0
  3  4  2  0  0  0  0
  4  8  1  0  0  0  0
  5  4  1  0  0  0  0
  5  9  1  0  0  0  0
  6  5  2  0  0  0  0
  7  2  2  0  0  0  0
  7  6  1  0  0  0  0
 10  6  1  0  0  0  0
 11  7  1  0  0  0  0
 12 13  1  0  0  0  0
 12 11  1  0  0  0  0
 14 12  1  0  0  0  0
 15 14  1  0  0  0  0
 16 14  1  0  0  0  0
 16 18  1  0  0  0  0
 17 16  1  0  0  0  0
 18 19  1  0  0  0  0
 19 11  1  0  0  0  0
 20 21  1  0  0  0  0
 21 22  2  0  0  0  0
 21 25  1  0  0  0  0
 22 26  1  0  0  0  0
 23 22  1  0  0  0  0
 24 20  2  0  0  0  0
 24 23  1  0  0  0  0
 27 33  1  0  0  0  0
 27 32  1  0  0  0  0
 28 27  2  0  0  0  0
 29 28  1  0  0  0  0
 29 30  2  0  0  0  0
 30 31  1  0  0  0  0
 31 32  2  0  0  0  0
 31 20  1  0  0  0  0
 34 28  1  0  0  0  0
 35 29  1  0  0  0  0
M  END
>  <minimizedAffinity>
-5.84490204

$$$$

 OpenBabel03252501263D

 35 38  0  0  0  0  0  0  0  0999 V2000
   38.1620   27.7390   40.0040 F   0  0  0  0  0  0  0  0  0  0  0  0
   37.8830   27.8060   41.3250 C   0  0  0  0  0  0  0  0  0  0  0  0
   37.6750   29.0200   41.9120 C   0  0  0  0  0  0  0  0  0  0  0  0
   37.3900   29.0960   43.2640 C   0  0  0  0  0  0  0  0  0  0  0  0
   37.3050   27.9700   44.0590 C   0  0  0  0  0  0  0  0  0  0  0  0
   37.5180   26.7640   43.4500 C   0  0  0  0  0  0  0  0  0  0  0  0
   37.8040   26.6630   42.1000 C   0  0  0  0  0  0  0  0  0  0  0  0
   37.2180   30.0530   43.7630 H   0  0  0  0  0  0  0  0  0  0  0  0
   37.0820   28.0530   45.1100 H   0  0  0  0  0  0  0  0  0  0  0  0
   37.4470   25.8910   44.0930 H   0  0  0  0  0  0  0  0  0  0  0  0
   38.0160   25.3630   41.5260 N   0  0  0  0  0  0  0  0  0  0  0  0
   39.2340   24.6870   41.0950 C   0  0  0  0  0  3  0  0  0  0  0  0
   39.5150   23.8410   41.7600 H   0  0  0  0  0  0  0  0  0  0  0  0
   39.1660   24.2750   39.6450 C   0  0  0  0  0  3  0  0  0  0  0  0
   39.9520   23.4970   39.4970 H   0  0  0  0  0  0  0  0  0  0  0  0
   37.9180   23.7390   39.2290 N   0  0  0  0  0  0  0  0  0  0  0  0
   37.8520   22.7270   39.0960 H   0  0  0  0  0  0  0  0  0  0  0  0
   36.7450   24.3380   39.7920 C   0  0  0  0  0  2  0  0  0  0  0  0
   36.8800   24.4920   41.2920 C   0  0  0  0  0  2  0  0  0  0  0  0
   38.6990   31.9970   40.3370 C   0  0  0  0  0  0  0  0  0  0  0  0
   37.3190   32.0810   40.1730 C   0  0  0  0  0  0  0  0  0  0  0  0
   36.7370   30.9850   40.7350 C   0  0  0  0  0  0  0  0  0  0  0  0
   37.7280   30.2450   41.2330 N   0  0  0  0  0  0  0  0  0  0  0  0
   38.9030   30.8600   40.9900 N   0  0  0  0  0  0  0  0  0  0  0  0
   36.7800   32.8860   39.6780 H   0  0  0  0  0  0  0  0  0  0  0  0
   35.7020   30.6780   40.8180 H   0  0  0  0  0  0  0  0  0  0  0  0
   40.6310   35.0970   40.0330 C   0  0  0  0  0  0  0  0  0  0  0  0
   41.4810   34.8070   38.9460 C   0  0  0  0  0  0  0  0  0  0  0  0
   41.3850   33.5540   38.3270 C   0  0  0  0  0  0  0  0  0  0  0  0
   40.4620   32.7150   38.8430 N   0  0  0  0  0  0  0  0  0  0  0  0
   39.6570   32.9820   39.8690 C   0  0  0  0  0  0  0  0  0  0  0  0
   39.7310   34.1890   40.4830 N   0  0  0  0  0  0  0  0  0  0  0  0
   40.7420   36.0800   40.4810 H   0  0  0  0  0  0  0  0  0  0  0  0
   42.1910   35.5200   38.5890 H   0  0  0  0  0  0  0  0  0  0  0  0
   42.0210   33.2960   37.4900 H   0  0  0  0  0  0  0  0  0  0  0  0
  1  2  1  0  0  0  0
  2  3  2  0  0  0  0
  2  7  1  0  0  0  0
  3  4  1  0  0  0  0
  4  8  1  0  0  0  0
  4  5  2  0  0  0  0
  5  9  1  0  0  0  0
  6  5  1  0  0  0  0
  6 10  1  0  0  0  0
  7  6  2  0  0  0  0
 11  7  1  0  0  0  0
 12 11  1  0  0  0  0
 12 13  1  0  0  0  0
 14 12  1  0  0  0  0
 15 14  1  0  0  0  0
 16 14  1  0  0  0  0
 16 18  1  0  0  0  0
 17 16  1  0  0  0  0
 18 19  1  0  0  0  0
 19 11  1  0  0  0  0
 20 24  2  0  0  0  0
 21 20  1  0  0  0  0
 21 22  2  0  0  0  0
 22 26  1  0  0  0  0
 22 23  1  0  0  0  0
 23  3  1  0  0  0  0
 24 23  1  0  0  0  0
 25 21  1  0  0  0  0
 27 33  1  0  0  0  0
 27 32  1  0  0  0  0
 28 27  2  0  0  0  0
 29 30  2  0  0  0  0
 29 28  1  0  0  0  0
 30 31  1  0  0  0  0
 31 20  1  0  0  0  0
 31 32  2  0  0  0  0
 34 28  1  0  0  0  0
 35 29  1  0  0  0  0
M  END
>  <minimizedAffinity>
-5.77565908

$$$$

 OpenBabel03252501263D

 35 38  0  0  0  0  0  0  0  0999 V2000
   40.8870   31.6570   38.9900 F   0  0  0  0  0  0  0  0  0  0  0  0
   40.2370   32.7640   39.4120 C   0  0  0  0  0  0  0  0  0  0  0  0
   38.9160   32.6860   39.7490 C   0  0  0  0  0  0  0  0  0  0  0  0
   38.2440   33.8160   40.1810 C   0  0  0  0  0  0  0  0  0  0  0  0
   38.8670   35.0440   40.2870 C   0  0  0  0  0  0  0  0  0  0  0  0
   40.1890   35.0990   39.9420 C   0  0  0  0  0  0  0  0  0  0  0  0
   40.8830   33.9830   39.5090 C   0  0  0  0  0  0  0  0  0  0  0  0
   37.1870   33.7850   40.4580 H   0  0  0  0  0  0  0  0  0  0  0  0
   38.3240   35.9100   40.6250 H   0  0  0  0  0  0  0  0  0  0  0  0
   40.6610   36.0740   40.0320 H   0  0  0  0  0  0  0  0  0  0  0  0
   42.2720   34.1140   39.1640 N   0  0  0  0  0  0  0  0  0  0  0  0
   42.9390   34.2090   37.8710 C   0  0  0  0  0  3  0  0  0  0  0  0
   43.3550   35.2220   37.6740 H   0  0  0  0  0  0  0  0  0  0  0  0
   43.9700   33.1240   37.6880 C   0  0  0  0  0  3  0  0  0  0  0  0
   44.6430   33.4580   36.8630 H   0  0  0  0  0  0  0  0  0  0  0  0
   44.7640   32.8470   38.8330 N   0  0  0  0  0  0  0  0  0  0  0  0
   45.7260   33.1940   38.8430 H   0  0  0  0  0  0  0  0  0  0  0  0
   44.1000   32.9090   40.1010 C   0  0  0  0  0  2  0  0  0  0  0  0
   43.2670   34.1680   40.2180 C   0  0  0  0  0  2  0  0  0  0  0  0
   37.4710   29.5350   40.3620 C   0  0  0  0  0  0  0  0  0  0  0  0
   36.7940   29.9080   39.2040 C   0  0  0  0  0  0  0  0  0  0  0  0
   37.2330   31.1350   38.8070 C   0  0  0  0  0  0  0  0  0  0  0  0
   38.1550   31.5110   39.6940 N   0  0  0  0  0  0  0  0  0  0  0  0
   38.2920   30.5440   40.6240 N   0  0  0  0  0  0  0  0  0  0  0  0
   36.0350   29.3230   38.6890 H   0  0  0  0  0  0  0  0  0  0  0  0
   36.9620   31.7650   37.9690 H   0  0  0  0  0  0  0  0  0  0  0  0
   37.2970   25.9570   41.1350 C   0  0  0  0  0  0  0  0  0  0  0  0
   36.8820   25.9680   42.4820 C   0  0  0  0  0  0  0  0  0  0  0  0
   36.6660   27.2000   43.1140 C   0  0  0  0  0  0  0  0  0  0  0  0
   36.8810   28.2940   42.3540 N   0  0  0  0  0  0  0  0  0  0  0  0
   37.2720   28.2900   41.0810 C   0  0  0  0  0  0  0  0  0  0  0  0
   37.4870   27.1100   40.4490 N   0  0  0  0  0  0  0  0  0  0  0  0
   37.4510   24.9790   40.6880 H   0  0  0  0  0  0  0  0  0  0  0  0
   36.7310   25.0620   43.0260 H   0  0  0  0  0  0  0  0  0  0  0  0
   36.3480   27.2470   44.1470 H   0  0  0  0  0  0  0  0  0  0  0  0
  1  2  1  0  0  0  0
  2  7  2  0  0  0  0
  2  3  1  0  0  0  0
  3  4  2  0  0  0  0
  4  5  1  0  0  0  0
  4  8  1  0  0  0  0
  5  9  1  0  0  0  0
  6 10  1  0  0  0  0
  6  5  2  0  0  0  0
  7  6  1  0  0  0  0
 11  7  1  0  0  0  0
 11 19  1  0  0  0  0
 12 11  1  0  0  0  0
 13 12  1  0  0  0  0
 14 12  1  0  0  0  0
 14 16  1  0  0  0  0
 15 14  1  0  0  0  0
 16 17  1  0  0  0  0
 16 18  1  0  0  0  0
 18 19  1  0  0  0  0
 20 24  2  0  0  0  0
 20 31  1  0  0  0  0
 21 20  1  0  0  0  0
 22 21  2  0  0  0  0
 22 23  1  0  0  0  0
 23  3  1  0  0  0  0
 23 24  1  0  0  0  0
 25 21  1  0  0  0  0
 26 22  1  0  0  0  0
 27 28  1  0  0  0  0
 28 34  1  0  0  0  0
 28 29  2  0  0  0  0
 29 35  1  0  0  0  0
 30 29  1  0  0  0  0
 31 30  2  0  0  0  0
 32 31  1  0  0  0  0
 32 27  2  0  0  0  0
 33 27  1  0  0  0  0
M  END
>  <minimizedAffinity>
-5.74578047

$$$$

 OpenBabel03252501263D

 35 38  0  0  0  0  0  0  0  0999 V2000
   40.2020   30.4850   38.6400 F   0  0  0  0  0  0  0  0  0  0  0  0
   39.5840   31.5740   39.1470 C   0  0  0  0  0  0  0  0  0  0  0  0
   38.2740   31.4950   39.5230 C   0  0  0  0  0  0  0  0  0  0  0  0
   37.6340   32.6060   40.0420 C   0  0  0  0  0  0  0  0  0  0  0  0
   38.2790   33.8170   40.1990 C   0  0  0  0  0  0  0  0  0  0  0  0
   39.5900   33.8730   39.8160 C   0  0  0  0  0  0  0  0  0  0  0  0
   40.2520   32.7760   39.2940 C   0  0  0  0  0  0  0  0  0  0  0  0
   36.5850   32.5730   40.3520 H   0  0  0  0  0  0  0  0  0  0  0  0
   37.7600   34.6690   40.6050 H   0  0  0  0  0  0  0  0  0  0  0  0
   40.0800   34.8350   39.9470 H   0  0  0  0  0  0  0  0  0  0  0  0
   41.6310   32.9080   38.9120 N   0  0  0  0  0  0  0  0  0  0  0  0
   42.8620   32.7360   39.6740 C   0  0  0  0  0  3  0  0  0  0  0  0
   43.4300   31.8270   39.3760 H   0  0  0  0  0  0  0  0  0  0  0  0
   43.7190   33.9770   39.6480 C   0  0  0  0  0  3  0  0  0  0  0  0
   44.7470   33.6630   39.9460 H   0  0  0  0  0  0  0  0  0  0  0  0
   43.7950   34.6300   38.3880 N   0  0  0  0  0  0  0  0  0  0  0  0
   44.6530   34.5210   37.8430 H   0  0  0  0  0  0  0  0  0  0  0  0
   42.5960   34.6480   37.6040 C   0  0  0  0  0  2  0  0  0  0  0  0
   41.9620   33.2740   37.5480 C   0  0  0  0  0  2  0  0  0  0  0  0
   36.9290   28.2580   39.8530 C   0  0  0  0  0  0  0  0  0  0  0  0
   36.0210   28.8240   38.9630 C   0  0  0  0  0  0  0  0  0  0  0  0
   36.3890   30.1110   38.7100 C   0  0  0  0  0  0  0  0  0  0  0  0
   37.4930   30.3350   39.4230 N   0  0  0  0  0  0  0  0  0  0  0  0
   37.8100   29.2170   40.1070 N   0  0  0  0  0  0  0  0  0  0  0  0
   35.1530   28.3300   38.5310 H   0  0  0  0  0  0  0  0  0  0  0  0
   35.9530   30.8790   38.0820 H   0  0  0  0  0  0  0  0  0  0  0  0
   36.4400   24.6290   40.0150 C   0  0  0  0  0  0  0  0  0  0  0  0
   36.7630   24.3500   41.3590 C   0  0  0  0  0  0  0  0  0  0  0  0
   37.1460   25.4060   42.1970 C   0  0  0  0  0  0  0  0  0  0  0  0
   37.1710   26.6280   41.6250 N   0  0  0  0  0  0  0  0  0  0  0  0
   36.8660   26.8980   40.3580 C   0  0  0  0  0  0  0  0  0  0  0  0
   36.4930   25.8930   39.5290 N   0  0  0  0  0  0  0  0  0  0  0  0
   36.1490   23.7800   39.4050 H   0  0  0  0  0  0  0  0  0  0  0  0
   36.7230   23.3560   41.7470 H   0  0  0  0  0  0  0  0  0  0  0  0
   37.4010   25.2290   43.2340 H   0  0  0  0  0  0  0  0  0  0  0  0
  1  2  1  0  0  0  0
  2  7  2  0  0  0  0
  2  3  1  0  0  0  0
  3  4  2  0  0  0  0
  4  5  1  0  0  0  0
  4  8  1  0  0  0  0
  5  9  1  0  0  0  0
  6 10  1  0  0  0  0
  6  5  2  0  0  0  0
  7  6  1  0  0  0  0
 11  7  1  0  0  0  0
 11 12  1  0  0  0  0
 13 12  1  0  0  0  0
 14 12  1  0  0  0  0
 14 15  1  0  0  0  0
 16 14  1  0  0  0  0
 17 16  1  0  0  0  0
 18 16  1  0  0  0  0
 19 18  1  0  0  0  0
 19 11  1  0  0  0  0
 20 24  2  0  0  0  0
 20 31  1  0  0  0  0
 21 20  1  0  0  0  0
 22 21  2  0  0  0  0
 22 23  1  0  0  0  0
 23  3  1  0  0  0  0
 23 24  1  0  0  0  0
 25 21  1  0  0  0  0
 26 22  1  0  0  0  0
 27 28  1  0  0  0  0
 28 34  1  0  0  0  0
 28 29  2  0  0  0  0
 29 35  1  0  0  0  0
 30 29  1  0  0  0  0
 31 30  2  0  0  0  0
 32 27  2  0  0  0  0
 32 31  1  0  0  0  0
 33 27  1  0  0  0  0
M  END
>  <minimizedAffinity>
-5.72200727

$$$$

 OpenBabel03252501263D

 35 38  0  0  0  0  0  0  0  0999 V2000
   39.3020   27.0910   40.8540 F   0  0  0  0  0  0  0  0  0  0  0  0
   38.4510   27.3360   41.8740 C   0  0  0  0  0  0  0  0  0  0  0  0
   38.5850   28.4800   42.6070 C   0  0  0  0  0  0  0  0  0  0  0  0
   37.7180   28.7360   43.6540 C   0  0  0  0  0  0  0  0  0  0  0  0
   36.7020   27.8650   43.9950 C   0  0  0  0  0  0  0  0  0  0  0  0
   36.5870   26.7250   43.2480 C   0  0  0  0  0  0  0  0  0  0  0  0
   37.4420   26.4470   42.1960 C   0  0  0  0  0  0  0  0  0  0  0  0
   37.7990   29.6430   44.2590 H   0  0  0  0  0  0  0  0  0  0  0  0
   36.0380   28.0850   44.8150 H   0  0  0  0  0  0  0  0  0  0  0  0
   35.7820   26.0530   43.5330 H   0  0  0  0  0  0  0  0  0  0  0  0
   37.2630   25.2300   41.4530 N   0  0  0  0  0  0  0  0  0  0  0  0
   37.6810   23.8610   41.7310 C   0  0  0  0  0  3  0  0  0  0  0  0
   36.8290   23.1930   41.9840 H   0  0  0  0  0  0  0  0  0  0  0  0
   38.5370   23.2990   40.6240 C   0  0  0  0  0  3  0  0  0  0  0  0
   38.5270   22.1890   40.7430 H   0  0  0  0  0  0  0  0  0  0  0  0
   38.1050   23.6140   39.3080 N   0  0  0  0  0  0  0  0  0  0  0  0
   37.6410   22.8790   38.7680 H   0  0  0  0  0  0  0  0  0  0  0  0
   37.5610   24.9240   39.1100 C   0  0  0  0  0  2  0  0  0  0  0  0
   36.5530   25.2640   40.1880 C   0  0  0  0  0  2  0  0  0  0  0  0
   40.3620   31.3510   41.6120 C   0  0  0  0  0  0  0  0  0  0  0  0
   41.3640   30.6440   42.2720 C   0  0  0  0  0  0  0  0  0  0  0  0
   40.8480   29.4720   42.7380 C   0  0  0  0  0  0  0  0  0  0  0  0
   39.5650   29.4540   42.3780 N   0  0  0  0  0  0  0  0  0  0  0  0
   39.2820   30.5870   41.7010 N   0  0  0  0  0  0  0  0  0  0  0  0
   42.3960   30.9640   42.4010 H   0  0  0  0  0  0  0  0  0  0  0  0
   41.2930   28.6560   43.2950 H   0  0  0  0  0  0  0  0  0  0  0  0
   41.9240   34.3380   40.1720 C   0  0  0  0  0  0  0  0  0  0  0  0
   40.8010   35.0980   39.7870 C   0  0  0  0  0  0  0  0  0  0  0  0
   39.5200   34.5810   40.0220 C   0  0  0  0  0  0  0  0  0  0  0  0
   39.4760   33.3690   40.6150 N   0  0  0  0  0  0  0  0  0  0  0  0
   40.5330   32.6470   40.9810 C   0  0  0  0  0  0  0  0  0  0  0  0
   41.7820   33.1260   40.7630 N   0  0  0  0  0  0  0  0  0  0  0  0
   42.8950   34.7780   39.9690 H   0  0  0  0  0  0  0  0  0  0  0  0
   40.9080   36.0530   39.3210 H   0  0  0  0  0  0  0  0  0  0  0  0
   38.6350   35.1370   39.7400 H   0  0  0  0  0  0  0  0  0  0  0  0
  1  2  1  0  0  0  0
  2  7  2  0  0  0  0
  2  3  1  0  0  0  0
  3  4  2  0  0  0  0
  4  5  1  0  0  0  0
  4  8  1  0  0  0  0
  5  9  1  0  0  0  0
  6 10  1  0  0  0  0
  6  5  2  0  0  0  0
  7  6  1  0  0  0  0
 11 12  1  0  0  0  0
 11  7  1  0  0  0  0
 12 13  1  0  0  0  0
 14 15  1  0  0  0  0
 14 12  1  0  0  0  0
 16 14  1  0  0  0  0
 17 16  1  0  0  0  0
 18 16  1  0  0  0  0
 18 19  1  0  0  0  0
 19 11  1  0  0  0  0
 20 24  2  0  0  0  0
 20 21  1  0  0  0  0
 21 25  1  0  0  0  0
 21 22  2  0  0  0  0
 22 26  1  0  0  0  0
 23  3  1  0  0  0  0
 23 22  1  0  0  0  0
 24 23  1  0  0  0  0
 27 32  1  0  0  0  0
 28 29  1  0  0  0  0
 28 27  2  0  0  0  0
 29 30  2  0  0  0  0
 30 31  1  0  0  0  0
 31 20  1  0  0  0  0
 32 31  2  0  0  0  0
 33 27  1  0  0  0  0
 34 28  1  0  0  0  0
 35 29  1  0  0  0  0
M  END
>  <minimizedAffinity>
-5.6122551

$$$$

 OpenBabel03252501263D

 35 38  0  0  0  0  0  0  0  0999 V2000
   39.4440   29.5660   41.6220 F   0  0  0  0  0  0  0  0  0  0  0  0
   38.1500   29.5510   41.2340 C   0  0  0  0  0  0  0  0  0  0  0  0
   37.6220   30.6350   40.5950 C   0  0  0  0  0  0  0  0  0  0  0  0
   36.2980   30.6270   40.1960 C   0  0  0  0  0  0  0  0  0  0  0  0
   35.4710   29.5440   40.4220 C   0  0  0  0  0  0  0  0  0  0  0  0
   36.0200   28.4690   41.0640 C   0  0  0  0  0  0  0  0  0  0  0  0
   37.3420   28.4540   41.4720 C   0  0  0  0  0  0  0  0  0  0  0  0
   35.8460   31.4800   39.6820 H   0  0  0  0  0  0  0  0  0  0  0  0
   34.4420   29.5590   40.1020 H   0  0  0  0  0  0  0  0  0  0  0  0
   35.3530   27.6270   41.2320 H   0  0  0  0  0  0  0  0  0  0  0  0
   37.8540   27.2890   42.1420 N   0  0  0  0  0  0  0  0  0  0  0  0
   38.3470   27.0980   43.5000 C   0  0  0  0  0  3  0  0  0  0  0  0
   37.6600   26.4880   44.1270 H   0  0  0  0  0  0  0  0  0  0  0  0
   39.7580   26.5640   43.5160 C   0  0  0  0  0  3  0  0  0  0  0  0
   39.9280   26.1390   44.5340 H   0  0  0  0  0  0  0  0  0  0  0  0
   40.0320   25.5550   42.5550 N   0  0  0  0  0  0  0  0  0  0  0  0
   40.0970   24.5880   42.8820 H   0  0  0  0  0  0  0  0  0  0  0  0
   39.4060   25.7050   41.2750 C   0  0  0  0  0  2  0  0  0  0  0  0
   37.9350   26.0310   41.4240 C   0  0  0  0  0  2  0  0  0  0  0  0
   40.0710   32.9720   39.6280 C   0  0  0  0  0  0  0  0  0  0  0  0
   39.0280   33.8240   39.9830 C   0  0  0  0  0  0  0  0  0  0  0  0
   37.9650   33.0780   40.3950 C   0  0  0  0  0  0  0  0  0  0  0  0
   38.3390   31.8020   40.2980 N   0  0  0  0  0  0  0  0  0  0  0  0
   39.6050   31.7480   39.8370 N   0  0  0  0  0  0  0  0  0  0  0  0
   39.0470   34.9110   39.9430 H   0  0  0  0  0  0  0  0  0  0  0  0
   36.9790   33.3560   40.7460 H   0  0  0  0  0  0  0  0  0  0  0  0
   42.7510   34.0700   37.3820 C   0  0  0  0  0  0  0  0  0  0  0  0
   43.8400   34.2050   38.2690 C   0  0  0  0  0  0  0  0  0  0  0  0
   43.6460   33.9200   39.6270 C   0  0  0  0  0  0  0  0  0  0  0  0
   42.4000   33.5300   39.9720 N   0  0  0  0  0  0  0  0  0  0  0  0
   41.3690   33.4000   39.1400 C   0  0  0  0  0  0  0  0  0  0  0  0
   41.5330   33.6710   37.8220 N   0  0  0  0  0  0  0  0  0  0  0  0
   42.9490   34.3020   36.3400 H   0  0  0  0  0  0  0  0  0  0  0  0
   44.8010   34.5190   37.9270 H   0  0  0  0  0  0  0  0  0  0  0  0
   44.4570   34.0120   40.3370 H   0  0  0  0  0  0  0  0  0  0  0  0
  2  7  1  0  0  0  0
  2  1  1  0  0  0  0
  3  2  2  0  0  0  0
  4  5  2  0  0  0  0
  4  3  1  0  0  0  0
  5  6  1  0  0  0  0
  6 10  1  0  0  0  0
  6  7  2  0  0  0  0
  7 11  1  0  0  0  0
  8  4  1  0  0  0  0
  9  5  1  0  0  0  0
 11 12  1  0  0  0  0
 12 14  1  0  0  0  0
 12 13  1  0  0  0  0
 14 15  1  0  0  0  0
 16 17  1  0  0  0  0
 16 14  1  0  0  0  0
 18 19  1  0  0  0  0
 18 16  1  0  0  0  0
 19 11  1  0  0  0  0
 20 24  2  0  0  0  0
 20 21  1  0  0  0  0
 21 22  2  0  0  0  0
 22 26  1  0  0  0  0
 23 22  1  0  0  0  0
 23  3  1  0  0  0  0
 24 23  1  0  0  0  0
 25 21  1  0  0  0  0
 27 32  2  0  0  0  0
 27 28  1  0  0  0  0
 28 29  2  0  0  0  0
 29 30  1  0  0  0  0
 29 35  1  0  0  0  0
 31 20  1  0  0  0  0
 31 30  2  0  0  0  0
 32 31  1  0  0  0  0
 33 27  1  0  0  0  0
 34 28  1  0  0  0  0
M  END
>  <minimizedAffinity>
-5.60712957

$$$$

 OpenBabel03252501263D

 35 38  0  0  0  0  0  0  0  0999 V2000
   41.0940   31.4160   39.6380 F   0  0  0  0  0  0  0  0  0  0  0  0
   39.9170   32.0690   39.7470 C   0  0  0  0  0  0  0  0  0  0  0  0
   38.7590   31.3590   39.8820 C   0  0  0  0  0  0  0  0  0  0  0  0
   37.5490   32.0220   39.9940 C   0  0  0  0  0  0  0  0  0  0  0  0
   37.4640   33.4000   39.9750 C   0  0  0  0  0  0  0  0  0  0  0  0
   38.6360   34.0910   39.8390 C   0  0  0  0  0  0  0  0  0  0  0  0
   39.8570   33.4510   39.7250 C   0  0  0  0  0  0  0  0  0  0  0  0
   36.6050   31.4810   40.1020 H   0  0  0  0  0  0  0  0  0  0  0  0
   36.5110   33.8950   40.0630 H   0  0  0  0  0  0  0  0  0  0  0  0
   38.5480   35.1740   39.8250 H   0  0  0  0  0  0  0  0  0  0  0  0
   41.0500   34.2400   39.5860 N   0  0  0  0  0  0  0  0  0  0  0  0
   41.9840   34.3880   38.4750 C   0  0  0  0  0  3  0  0  0  0  0  0
   41.9180   35.3850   37.9870 H   0  0  0  0  0  0  0  0  0  0  0  0
   43.3960   34.0400   38.8770 C   0  0  0  0  0  3  0  0  0  0  0  0
   44.0670   34.4900   38.1070 H   0  0  0  0  0  0  0  0  0  0  0  0
   43.7930   34.5170   40.1550 N   0  0  0  0  0  0  0  0  0  0  0  0
   44.4170   35.3270   40.1910 H   0  0  0  0  0  0  0  0  0  0  0  0
   42.7970   34.4920   41.1840 C   0  0  0  0  0  2  0  0  0  0  0  0
   41.4890   35.0730   40.6900 C   0  0  0  0  0  2  0  0  0  0  0  0
   38.9360   27.9660   40.8010 C   0  0  0  0  0  0  0  0  0  0  0  0
   38.4000   27.8580   39.5210 C   0  0  0  0  0  0  0  0  0  0  0  0
   38.2560   29.1050   38.9920 C   0  0  0  0  0  0  0  0  0  0  0  0
   38.6900   29.9600   39.9180 N   0  0  0  0  0  0  0  0  0  0  0  0
   39.0970   29.2670   41.0010 N   0  0  0  0  0  0  0  0  0  0  0  0
   38.1340   26.9330   39.0130 H   0  0  0  0  0  0  0  0  0  0  0  0
   37.8800   29.4470   38.0350 H   0  0  0  0  0  0  0  0  0  0  0  0
   39.9750   26.0310   43.7350 C   0  0  0  0  0  0  0  0  0  0  0  0
   39.7760   24.7050   43.2970 C   0  0  0  0  0  0  0  0  0  0  0  0
   39.2870   24.4860   42.0030 C   0  0  0  0  0  0  0  0  0  0  0  0
   39.0450   25.5950   41.2720 N   0  0  0  0  0  0  0  0  0  0  0  0
   39.2320   26.8480   41.6790 C   0  0  0  0  0  0  0  0  0  0  0  0
   39.7040   27.0850   42.9270 N   0  0  0  0  0  0  0  0  0  0  0  0
   40.3550   26.1510   44.7450 H   0  0  0  0  0  0  0  0  0  0  0  0
   39.9880   23.8720   43.9300 H   0  0  0  0  0  0  0  0  0  0  0  0
   39.1210   23.4830   41.6330 H   0  0  0  0  0  0  0  0  0  0  0  0
  1  2  1  0  0  0  0
  2  3  1  0  0  0  0
  3 23  1  0  0  0  0
  3  4  2  0  0  0  0
  4  8  1  0  0  0  0
  5  4  1  0  0  0  0
  5  9  1  0  0  0  0
  6  5  2  0  0  0  0
  7  2  2  0  0  0  0
  7  6  1  0  0  0  0
 10  6  1  0  0  0  0
 11  7  1  0  0  0  0
 11 19  1  0  0  0  0
 12 14  1  0  0  0  0
 12 11  1  0  0  0  0
 13 12  1  0  0  0  0
 14 16  1  0  0  0  0
 15 14  1  0  0  0  0
 16 17  1  0  0  0  0
 16 18  1  0  0  0  0
 19 18  1  0  0  0  0
 20 24  2  0  0  0  0
 20 31  1  0  0  0  0
 21 20  1  0  0  0  0
 22 21  2  0  0  0  0
 22 23  1  0  0  0  0
 23 24  1  0  0  0  0
 25 21  1  0  0  0  0
 26 22  1  0  0  0  0
 27 33  1  0  0  0  0
 28 27  1  0  0  0  0
 28 34  1  0  0  0  0
 29 28  2  0  0  0  0
 30 31  2  0  0  0  0
 30 29  1  0  0  0  0
 31 32  1  0  0  0  0
 32 27  2  0  0  0  0
 35 29  1  0  0  0  0
M  END
>  <minimizedAffinity>
-5.53229475

$$$$
