
 OpenBabel03252508433D

 31 33  0  0  0  0  0  0  0  0999 V2000
   44.7550   34.0320   41.0310 C   0  0  0  0  0  0  0  0  0  0  0  0
   45.9570   33.7780   40.4160 C   0  0  0  0  0  0  0  0  0  0  0  0
   45.9980   33.2580   39.1370 C   0  0  0  0  0  0  0  0  0  0  0  0
   44.8060   33.0080   38.5100 C   0  0  0  0  0  0  0  0  0  0  0  0
   43.5790   33.2480   39.0850 C   0  0  0  0  0  0  0  0  0  0  0  0
   43.6060   33.7720   40.3770 C   0  0  0  0  0  0  0  0  0  0  0  0
   46.9540   33.0630   38.6670 H   0  0  0  0  0  0  0  0  0  0  0  0
   44.7700   32.5990   37.5000 H   0  0  0  0  0  0  0  0  0  0  0  0
   42.6110   33.0880   38.6800 H   0  0  0  0  0  0  0  0  0  0  0  0
   42.6960   33.9960   40.9190 H   0  0  0  0  0  0  0  0  0  0  0  0
   44.7830   36.3670   44.0170 C   0  0  0  0  0  0  0  0  0  0  0  0
   44.7100   35.9250   42.6820 C   0  0  0  0  0  0  0  0  0  0  0  0
   44.8190   34.5800   42.3800 C   0  0  0  0  0  0  0  0  0  0  0  0
   44.9950   33.7470   43.4230 N   0  0  0  0  0  0  0  0  0  0  0  0
   45.0670   34.1530   44.7100 C   0  0  0  0  0  0  0  0  0  0  0  0
   44.9600   35.4640   45.0040 N   0  0  0  0  0  0  0  0  0  0  0  0
   44.6960   37.4220   44.2300 H   0  0  0  0  0  0  0  0  0  0  0  0
   44.5710   36.6020   41.8760 H   0  0  0  0  0  0  0  0  0  0  0  0
   45.2090   33.4520   45.5310 H   0  0  0  0  0  0  0  0  0  0  0  0
   47.2580   34.0580   41.1210 C   0  0  0  0  0  0  0  0  0  0  0  0
   47.1210   34.8230   41.9180 H   0  0  0  0  0  0  0  0  0  0  0  0
   48.0120   34.3900   40.3650 H   0  0  0  0  0  0  0  0  0  0  0  0
   47.6720   32.8520   41.7560 N   0  0  0  0  0  0  0  0  0  0  0  0
   48.4110   32.9960   42.9700 C   0  0  0  0  0  3  0  0  0  0  0  0
   47.8830   33.4760   43.8010 H   0  0  0  0  0  0  0  0  0  0  0  0
   49.7110   33.7020   42.6520 C   0  0  0  0  0  3  0  0  0  0  0  0
   49.5180   34.7890   42.7700 H   0  0  0  0  0  0  0  0  0  0  0  0
   50.1430   33.4890   41.2960 N   0  0  0  0  0  0  0  0  0  0  0  0
   51.2040   33.4550   41.3180 H   0  0  0  0  0  0  0  0  0  0  0  0
   49.7390   32.2280   40.7460 C   0  0  0  0  0  2  0  0  0  0  0  0
   48.2990   31.8760   40.9300 C   0  0  0  0  0  2  0  0  0  0  0  0
  1 13  1  0  0  0  0
  2  1  1  0  0  0  0
  2 20  1  0  0  0  0
  3  2  2  0  0  0  0
  4  5  2  0  0  0  0
  4  3  1  0  0  0  0
  5  6  1  0  0  0  0
  6 10  1  0  0  0  0
  6  1  2  0  0  0  0
  7  3  1  0  0  0  0
  8  4  1  0  0  0  0
  9  5  1  0  0  0  0
 11 17  1  0  0  0  0
 11 16  1  0  0  0  0
 12 11  2  0  0  0  0
 13 12  1  0  0  0  0
 13 14  2  0  0  0  0
 14 15  1  0  0  0  0
 15 16  2  0  0  0  0
 15 19  1  0  0  0  0
 18 12  1  0  0  0  0
 20 23  1  0  0  0  0
 20 21  1  0  0  0  0
 22 20  1  0  0  0  0
 23 24  1  0  0  0  0
 24 25  1  0  0  0  0
 26 27  1  0  0  0  0
 26 24  1  0  0  0  0
 28 29  1  0  0  0  0
 28 26  1  0  0  0  0
 30 31  1  0  0  0  0
 30 28  1  0  0  0  0
 31 23  1  0  0  0  0
M  END
>  <minimizedAffinity>
-4.3569169

>  <minimizedRMSD>
2.10930729

$$$$
