
 OpenBabel03252508433D

 31 33  0  0  0  0  0  0  0  0999 V2000
   44.7750   34.0390   41.0420 C   0  0  0  0  0  0  0  0  0  0  0  0
   45.9800   33.7990   40.4310 C   0  0  0  0  0  0  0  0  0  0  0  0
   46.0310   33.2780   39.1520 C   0  0  0  0  0  0  0  0  0  0  0  0
   44.8430   33.0130   38.5230 C   0  0  0  0  0  0  0  0  0  0  0  0
   43.6120   33.2380   39.0950 C   0  0  0  0  0  0  0  0  0  0  0  0
   43.6300   33.7640   40.3860 C   0  0  0  0  0  0  0  0  0  0  0  0
   46.9900   33.0940   38.6850 H   0  0  0  0  0  0  0  0  0  0  0  0
   44.8150   32.6010   37.5140 H   0  0  0  0  0  0  0  0  0  0  0  0
   42.6470   33.0660   38.6890 H   0  0  0  0  0  0  0  0  0  0  0  0
   42.7160   33.9780   40.9260 H   0  0  0  0  0  0  0  0  0  0  0  0
   44.7800   36.3800   44.0240 C   0  0  0  0  0  0  0  0  0  0  0  0
   44.7160   35.9350   42.6900 C   0  0  0  0  0  0  0  0  0  0  0  0
   44.8290   34.5900   42.3910 C   0  0  0  0  0  0  0  0  0  0  0  0
   44.9990   33.7590   43.4360 N   0  0  0  0  0  0  0  0  0  0  0  0
   45.0620   34.1670   44.7230 C   0  0  0  0  0  0  0  0  0  0  0  0
   44.9520   35.4780   45.0140 N   0  0  0  0  0  0  0  0  0  0  0  0
   44.6900   37.4350   44.2350 H   0  0  0  0  0  0  0  0  0  0  0  0
   44.5820   36.6100   41.8820 H   0  0  0  0  0  0  0  0  0  0  0  0
   45.1990   33.4680   45.5460 H   0  0  0  0  0  0  0  0  0  0  0  0
   47.2770   34.0960   41.1380 C   0  0  0  0  0  0  0  0  0  0  0  0
   47.1340   34.8790   41.9150 H   0  0  0  0  0  0  0  0  0  0  0  0
   48.0360   34.4100   40.3800 H   0  0  0  0  0  0  0  0  0  0  0  0
   47.6860   32.9050   41.8040 N   0  0  0  0  0  0  0  0  0  0  0  0
   48.4380   33.0780   43.0060 C   0  0  0  0  0  3  0  0  0  0  0  0
   47.9190   33.5860   43.8270 H   0  0  0  0  0  0  0  0  0  0  0  0
   49.7400   33.7630   42.6580 C   0  0  0  0  0  3  0  0  0  0  0  0
   49.5580   34.8550   42.7450 H   0  0  0  0  0  0  0  0  0  0  0  0
   50.1580   33.5070   41.3050 N   0  0  0  0  0  0  0  0  0  0  0  0
   51.2200   33.4650   41.3180 H   0  0  0  0  0  0  0  0  0  0  0  0
   49.7390   32.2340   40.7950 C   0  0  0  0  0  2  0  0  0  0  0  0
   48.2980   31.9000   41.0020 C   0  0  0  0  0  2  0  0  0  0  0  0
  1 13  1  0  0  0  0
  2  1  1  0  0  0  0
  2 20  1  0  0  0  0
  3  2  2  0  0  0  0
  4  5  2  0  0  0  0
  4  3  1  0  0  0  0
  5  6  1  0  0  0  0
  6 10  1  0  0  0  0
  6  1  2  0  0  0  0
  7  3  1  0  0  0  0
  8  4  1  0  0  0  0
  9  5  1  0  0  0  0
 11 17  1  0  0  0  0
 11 16  1  0  0  0  0
 12 11  2  0  0  0  0
 13 12  1  0  0  0  0
 13 14  2  0  0  0  0
 14 15  1  0  0  0  0
 15 16  2  0  0  0  0
 15 19  1  0  0  0  0
 18 12  1  0  0  0  0
 20 23  1  0  0  0  0
 20 21  1  0  0  0  0
 22 20  1  0  0  0  0
 23 24  1  0  0  0  0
 24 25  1  0  0  0  0
 26 27  1  0  0  0  0
 26 24  1  0  0  0  0
 28 29  1  0  0  0  0
 28 26  1  0  0  0  0
 30 31  1  0  0  0  0
 30 28  1  0  0  0  0
 31 23  1  0  0  0  0
M  END
>  <minimizedAffinity>
-4.36194277

>  <minimizedRMSD>
2.19706392

$$$$
