
 OpenBabel03242515303D

 40 43  0  0  1  0  0  0  0  0999 V2000
   47.0420   34.3160   42.4630 N   0  0  0  0  0  0  0  0  0  0  0  0
   48.3660   33.7650   42.3880 C   0  0  0  0  0  0  0  0  0  0  0  0
   48.9500   34.7110   41.3730 C   0  0  0  0  0  0  0  0  0  0  0  0
   47.8860   34.5510   40.2710 C   0  0  0  0  0  0  0  0  0  0  0  0
   46.6360   34.5780   41.0770 C   0  0  1  0  0  0  0  0  0  0  0  0
   48.8370   33.8590   43.3810 H   0  0  0  0  0  0  0  0  0  0  0  0
   48.4160   32.7490   41.9480 H   0  0  0  0  0  0  0  0  0  0  0  0
   49.9300   34.3190   41.0490 H   0  0  0  0  0  0  0  0  0  0  0  0
   48.9580   35.7530   41.7260 H   0  0  0  0  0  0  0  0  0  0  0  0
   48.0770   33.5760   39.7740 H   0  0  0  0  0  0  0  0  0  0  0  0
   48.0120   35.4210   39.6020 H   0  0  0  0  0  0  0  0  0  0  0  0
   46.2510   35.6320   41.1310 H   0  0  0  0  0  0  0  0  0  0  0  0
   43.9180   35.3800   40.9010 F   0  0  0  0  0  0  0  0  0  0  0  0
   44.2280   34.1000   40.5200 C   0  0  0  0  0  0  0  0  0  0  0  0
   45.5440   33.7160   40.6190 C   0  0  0  0  0  0  0  0  0  0  0  0
   45.8030   32.4240   40.2230 C   0  0  0  0  0  0  0  0  0  0  0  0
   44.8030   31.5890   39.7630 C   0  0  0  0  0  0  0  0  0  0  0  0
   43.4730   32.0420   39.6870 C   0  0  0  0  0  0  0  0  0  0  0  0
   43.1840   33.3600   40.0860 C   0  0  0  0  0  0  0  0  0  0  0  0
   46.7830   31.9880   40.2460 H   0  0  0  0  0  0  0  0  0  0  0  0
   44.9970   30.5720   39.4500 H   0  0  0  0  0  0  0  0  0  0  0  0
   42.7120   31.3900   39.3310 H   0  0  0  0  0  0  0  0  0  0  0  0
   41.8500   33.8600   40.0240 N   0  0  0  0  0  0  0  0  0  0  0  0
   40.6250   33.0630   39.8660 C   0  0  0  0  0  0  0  0  0  0  0  0
   40.7370   32.0350   40.2510 H   0  0  0  0  0  0  0  0  0  0  0  0
   39.5700   33.7700   40.7240 C   0  0  0  0  0  0  0  0  0  0  0  0
   38.7990   33.0780   41.0860 H   0  0  0  0  0  0  0  0  0  0  0  0
   40.1940   34.4090   41.8700 N   0  0  0  0  0  0  0  0  0  0  0  0
   40.7610   33.7030   42.3660 H   0  0  0  0  0  0  0  0  0  0  0  0
   40.9720   35.5620   41.4590 C   0  0  0  0  0  0  0  0  0  0  0  0
   41.5620   35.2870   40.1190 C   0  0  0  0  0  0  0  0  0  0  0  0
   44.5740   35.9350   44.7330 C   0  0  0  0  0  0  0  0  0  0  0  0
   45.3610   35.7220   43.6100 C   0  0  0  0  0  0  0  0  0  0  0  0
   46.2050   34.6060   43.5670 C   0  0  0  0  0  0  0  0  0  0  0  0
   46.2000   33.7930   44.6360 N   0  0  0  0  0  0  0  0  0  0  0  0
   45.4350   34.0020   45.7250 C   0  0  0  0  0  0  0  0  0  0  0  0
   44.6150   35.0860   45.7690 N   0  0  0  0  0  0  0  0  0  0  0  0
   43.9160   36.8060   44.7650 H   0  0  0  0  0  0  0  0  0  0  0  0
   45.3500   36.3900   42.7580 H   0  0  0  0  0  0  0  0  0  0  0  0
   45.4790   33.3110   46.5490 H   0  0  0  0  0  0  0  0  0  0  0  0
  1 34  1  0  0  0  0
  2  1  1  0  0  0  0
  2  6  1  0  0  0  0
  3  9  1  0  0  0  0
  3  2  1  0  0  0  0
  4  5  1  0  0  0  0
  4  3  1  0  0  0  0
  5 12  1  6  0  0  0
  5  1  1  0  0  0  0
  7  2  1  0  0  0  0
  8  3  1  0  0  0  0
 10  4  1  0  0  0  0
 11  4  1  0  0  0  0
 14 15  1  0  0  0  0
 14 13  1  0  0  0  0
 15  5  1  0  0  0  0
 16 20  1  0  0  0  0
 16 15  2  0  0  0  0
 17 16  1  0  0  0  0
 18 17  2  0  0  0  0
 18 19  1  0  0  0  0
 19 14  2  0  0  0  0
 21 17  1  0  0  0  0
 22 18  1  0  0  0  0
 23 19  1  0  0  0  0
 23 31  1  0  0  0  0
 24 23  1  0  0  0  0
 24 25  1  0  0  0  0
 24 26  1  0  0  0  0
 26 27  1  0  0  0  0
 26 28  1  0  0  0  0
 28 29  1  0  0  0  0
 30 28  1  0  0  0  0
 31 30  1  0  0  0  0
 32 38  1  0  0  0  0
 32 37  1  0  0  0  0
 33 32  2  0  0  0  0
 34 33  1  0  0  0  0
 34 35  2  0  0  0  0
 35 36  1  0  0  0  0
 36 37  2  0  0  0  0
 36 40  1  0  0  0  0
 39 33  1  0  0  0  0
M  END
>  <minimizedAffinity>
-6.43707943

>  <minimizedRMSD>
0.764644861

$$$$
