
 OpenBabel03252508573D

 39 41  0  0  1  0  0  0  0  0999 V2000
   50.2930   32.2440   41.1780 N   0  0  0  0  0  0  0  0  0  0  0  0
   50.7850   31.6560   39.9820 C   0  0  0  0  0  0  0  0  0  0  0  0
   49.7860   31.2400   38.9570 C   0  0  0  0  0  0  0  0  0  0  0  0
   48.5070   32.0200   38.9450 C   0  0  0  0  0  0  0  0  0  0  0  0
   48.5290   33.1710   39.9180 C   0  0  0  0  0  0  0  0  0  0  0  0
   48.9250   32.5290   41.2570 C   0  0  2  0  0  0  0  0  0  0  0  0
   51.5100   32.3870   39.5220 H   0  0  0  0  0  0  0  0  0  0  0  0
   51.4000   30.7690   40.2540 H   0  0  0  0  0  0  0  0  0  0  0  0
   49.5940   30.1430   39.0220 H   0  0  0  0  0  0  0  0  0  0  0  0
   50.2560   31.3810   37.9390 H   0  0  0  0  0  0  0  0  0  0  0  0
   47.6930   31.3320   39.3150 H   0  0  0  0  0  0  0  0  0  0  0  0
   48.1840   32.3380   37.9390 H   0  0  0  0  0  0  0  0  0  0  0  0
   49.2460   33.9610   39.6320 H   0  0  0  0  0  0  0  0  0  0  0  0
   47.4770   33.5050   39.9990 H   0  0  0  0  0  0  0  0  0  0  0  0
   48.2150   31.6940   41.3550 H   0  0  0  0  0  0  0  0  0  0  0  0
   48.6700   33.5250   42.2580 N   0  0  2  0  0  0  0  0  0  0  0  0
   47.9550   33.0770   43.3970 C   0  0  0  0  0  3  0  0  0  0  0  0
   48.1080   31.9630   43.5120 H   0  0  0  0  0  0  0  0  0  0  0  0
   46.5130   33.4470   43.4790 C   0  0  0  0  0  3  0  0  0  0  0  0
   46.2890   34.0550   44.4050 H   0  0  0  0  0  0  0  0  0  0  0  0
   46.0110   34.2300   42.3880 N   0  0  0  0  0  0  0  0  0  0  0  0
   45.1060   34.6330   42.6650 H   0  0  0  0  0  0  0  0  0  0  0  0
   46.9740   35.3160   42.2070 C   0  0  0  0  0  2  0  0  0  0  0  0
   48.3060   34.7970   41.7430 C   0  0  0  0  0  2  0  0  0  0  0  0
   50.9750   31.8330   42.3620 C   0  0  0  0  0  0  0  0  0  0  0  0
   52.0630   31.8960   42.1470 H   0  0  0  0  0  0  0  0  0  0  0  0
   50.7930   32.5040   43.2240 H   0  0  0  0  0  0  0  0  0  0  0  0
   50.5780   30.4450   42.7460 C   0  0  0  0  0  0  0  0  0  0  0  0
   50.4370   29.8030   41.8250 H   0  0  0  0  0  0  0  0  0  0  0  0
   49.6620   30.4050   43.3530 H   0  0  0  0  0  0  0  0  0  0  0  0
   52.5700   28.6460   45.3730 C   0  0  0  0  0  0  0  0  0  0  0  0
   51.4960   29.2810   44.7160 C   0  0  0  0  0  0  0  0  0  0  0  0
   51.6880   29.7870   43.4460 C   0  0  0  0  0  0  0  0  0  0  0  0
   52.9110   29.6410   42.8970 N   0  0  0  0  0  0  0  0  0  0  0  0
   53.9400   29.0300   43.5280 C   0  0  0  0  0  0  0  0  0  0  0  0
   53.7740   28.5350   44.7590 N   0  0  0  0  0  0  0  0  0  0  0  0
   52.3870   28.2560   46.3790 H   0  0  0  0  0  0  0  0  0  0  0  0
   50.5180   29.3850   45.1840 H   0  0  0  0  0  0  0  0  0  0  0  0
   54.9020   28.9590   42.9970 H   0  0  0  0  0  0  0  0  0  0  0  0
  1  6  1  0  0  0  0
  1 25  1  0  0  0  0
  2  8  1  0  0  0  0
  2  1  1  0  0  0  0
  3  9  1  0  0  0  0
  3  2  1  0  0  0  0
  4  3  1  0  0  0  0
  4 11  1  0  0  0  0
  4  5  1  0  0  0  0
  5 14  1  0  0  0  0
  5  6  1  0  0  0  0
  6 15  1  1  0  0  0
  6 16  1  0  0  0  0
  7  2  1  0  0  0  0
 10  3  1  0  0  0  0
 12  4  1  0  0  0  0
 13  5  1  0  0  0  0
 16 24  1  6  0  0  0
 16 17  1  0  0  0  0
 17 19  1  0  0  0  0
 17 18  1  0  0  0  0
 19 20  1  0  0  0  0
 21 22  1  0  0  0  0
 21 19  1  0  0  0  0
 23 21  1  0  0  0  0
 24 23  1  0  0  0  0
 25 28  1  0  0  0  0
 25 27  1  0  0  0  0
 26 25  1  0  0  0  0
 28 30  1  0  0  0  0
 28 33  1  0  0  0  0
 29 28  1  0  0  0  0
 31 37  1  0  0  0  0
 32 38  1  0  0  0  0
 32 31  2  0  0  0  0
 33 32  1  0  0  0  0
 34 33  2  0  0  0  0
 34 35  1  0  0  0  0
 35 36  2  0  0  0  0
 36 31  1  0  0  0  0
 39 35  1  0  0  0  0
M  END
>  <minimizedAffinity>
-2.90935612

>  <minimizedRMSD>
6.29094315

$$$$
