
 OpenBabel03242520173D

 25 27  0  0  0  0  0  0  0  0999 V2000
   36.9330   28.5750   41.3720 C   0  0  0  0  0  0  0  0  0  0  0  0
   37.3900   28.3870   40.0530 C   0  0  0  0  0  0  0  0  0  0  0  0
   37.3860   29.4570   39.1520 C   0  0  0  0  0  0  0  0  0  0  0  0
   36.9270   30.6490   39.6170 N   0  0  0  0  0  0  0  0  0  0  0  0
   36.4940   30.7920   40.8950 C   0  0  0  0  0  0  0  0  0  0  0  0
   36.4950   29.7760   41.7620 N   0  0  0  0  0  0  0  0  0  0  0  0
   37.7530   27.4340   39.6960 H   0  0  0  0  0  0  0  0  0  0  0  0
   36.1500   31.7730   41.1710 H   0  0  0  0  0  0  0  0  0  0  0  0
   37.8200   29.3860   37.8060 N   0  0  0  0  0  0  0  0  0  0  0  0
   37.2470   30.2370   36.7820 C   0  0  0  0  0  3  0  0  0  0  0  0
   36.5130   30.9050   37.2600 H   0  0  0  0  0  0  0  0  0  0  0  0
   36.5460   29.3300   35.7920 C   0  0  0  0  0  3  0  0  0  0  0  0
   36.0510   29.8970   34.9970 H   0  0  0  0  0  0  0  0  0  0  0  0
   37.5790   28.5340   35.1610 N   0  0  0  0  0  0  0  0  0  0  0  0
   38.1580   29.1850   34.5880 H   0  0  0  0  0  0  0  0  0  0  0  0
   38.3270   27.7440   36.0830 C   0  0  0  0  0  2  0  0  0  0  0  0
   38.8390   28.5040   37.2890 C   0  0  0  0  0  2  0  0  0  0  0  0
   36.9530   27.4120   42.2850 C   0  0  0  0  0  0  0  0  0  0  0  0
   38.0360   27.5450   43.3890 C   0  0  0  0  0  0  0  0  0  0  0  0
   36.5680   27.4820   43.6770 C   0  0  0  0  0  0  0  0  0  0  0  0
   36.9480   26.4390   41.7480 H   0  0  0  0  0  0  0  0  0  0  0  0
   38.5800   28.4920   43.4730 H   0  0  0  0  0  0  0  0  0  0  0  0
   38.6510   26.6340   43.5020 H   0  0  0  0  0  0  0  0  0  0  0  0
   36.1580   28.3830   44.1710 H   0  0  0  0  0  0  0  0  0  0  0  0
   36.2560   26.5090   44.1550 H   0  0  0  0  0  0  0  0  0  0  0  0
  1  6  1  0  0  0  0
  1 18  1  0  0  0  0
  2  1  2  0  0  0  0
  3  4  2  0  0  0  0
  3  2  1  0  0  0  0
  4  5  1  0  0  0  0
  5  8  1  0  0  0  0
  5  6  2  0  0  0  0
  7  2  1  0  0  0  0
  9  3  1  0  0  0  0
 10 11  1  0  0  0  0
 10  9  1  0  0  0  0
 12 10  1  0  0  0  0
 13 12  1  0  0  0  0
 14 12  1  0  0  0  0
 14 16  1  0  0  0  0
 15 14  1  0  0  0  0
 16 17  1  0  0  0  0
 17  9  1  0  0  0  0
 18 19  1  0  0  0  0
 18 20  1  0  0  0  0
 19 22  1  0  0  0  0
 19 23  1  0  0  0  0
 19 20  1  0  0  0  0
 20 25  1  0  0  0  0
 20 24  1  0  0  0  0
 21 18  1  0  0  0  0
M  END
>  <minimizedAffinity>
-4.68359089

$$$$

 OpenBabel03242520173D

 25 27  0  0  0  0  0  0  0  0999 V2000
   36.5310   29.1660   41.2550 C   0  0  0  0  0  0  0  0  0  0  0  0
   36.6490   27.7630   41.3050 C   0  0  0  0  0  0  0  0  0  0  0  0
   37.5630   27.1670   42.1790 C   0  0  0  0  0  0  0  0  0  0  0  0
   38.3080   28.0030   42.9510 N   0  0  0  0  0  0  0  0  0  0  0  0
   38.1670   29.3510   42.8760 C   0  0  0  0  0  0  0  0  0  0  0  0
   37.2960   29.9280   42.0440 N   0  0  0  0  0  0  0  0  0  0  0  0
   36.0500   27.1090   40.6860 H   0  0  0  0  0  0  0  0  0  0  0  0
   38.8000   29.9290   43.5260 H   0  0  0  0  0  0  0  0  0  0  0  0
   37.7670   25.7720   42.3140 N   0  0  0  0  0  0  0  0  0  0  0  0
   39.0570   25.2320   42.6950 C   0  0  0  0  0  3  0  0  0  0  0  0
   39.7440   26.0730   42.8780 H   0  0  0  0  0  0  0  0  0  0  0  0
   39.5550   24.4080   41.5250 C   0  0  0  0  0  3  0  0  0  0  0  0
   40.5480   23.9870   41.7150 H   0  0  0  0  0  0  0  0  0  0  0  0
   38.6430   23.2900   41.3900 N   0  0  0  0  0  0  0  0  0  0  0  0
   38.7700   22.6910   42.2350 H   0  0  0  0  0  0  0  0  0  0  0  0
   37.2940   23.6880   41.1520 C   0  0  0  0  0  2  0  0  0  0  0  0
   36.7750   24.7460   42.1030 C   0  0  0  0  0  2  0  0  0  0  0  0
   35.5530   29.7470   40.3110 C   0  0  0  0  0  0  0  0  0  0  0  0
   36.1890   30.0810   38.9340 C   0  0  0  0  0  0  0  0  0  0  0  0
   35.0980   29.0710   39.1160 C   0  0  0  0  0  0  0  0  0  0  0  0
   34.9510   30.5660   40.7590 H   0  0  0  0  0  0  0  0  0  0  0  0
   37.2190   29.7600   38.7440 H   0  0  0  0  0  0  0  0  0  0  0  0
   35.9360   31.0950   38.5770 H   0  0  0  0  0  0  0  0  0  0  0  0
   35.3760   28.0390   38.8330 H   0  0  0  0  0  0  0  0  0  0  0  0
   34.1080   29.4160   38.6990 H   0  0  0  0  0  0  0  0  0  0  0  0
  1  2  2  0  0  0  0
  1  6  1  0  0  0  0
  2  3  1  0  0  0  0
  3  9  1  0  0  0  0
  3  4  2  0  0  0  0
  5  4  1  0  0  0  0
  5  8  1  0  0  0  0
  6  5  2  0  0  0  0
  7  2  1  0  0  0  0
  9 10  1  0  0  0  0
 10 11  1  0  0  0  0
 12 13  1  0  0  0  0
 12 10  1  0  0  0  0
 14 12  1  0  0  0  0
 14 15  1  0  0  0  0
 16 14  1  0  0  0  0
 16 17  1  0  0  0  0
 17  9  1  0  0  0  0
 18 21  1  0  0  0  0
 18  1  1  0  0  0  0
 19 20  1  0  0  0  0
 19 18  1  0  0  0  0
 20 18  1  0  0  0  0
 22 19  1  0  0  0  0
 23 19  1  0  0  0  0
 24 20  1  0  0  0  0
 25 20  1  0  0  0  0
M  END
>  <minimizedAffinity>
-4.67515898

$$$$

 OpenBabel03242520173D

 25 27  0  0  0  0  0  0  0  0999 V2000
   37.1720   28.7120   42.2490 C   0  0  0  0  0  0  0  0  0  0  0  0
   37.8410   29.8530   41.7630 C   0  0  0  0  0  0  0  0  0  0  0  0
   37.2890   30.5950   40.7150 C   0  0  0  0  0  0  0  0  0  0  0  0
   36.1040   30.1580   40.2110 N   0  0  0  0  0  0  0  0  0  0  0  0
   35.4880   29.0540   40.7050 C   0  0  0  0  0  0  0  0  0  0  0  0
   36.0090   28.3400   41.7060 N   0  0  0  0  0  0  0  0  0  0  0  0
   38.7840   30.1890   42.1720 H   0  0  0  0  0  0  0  0  0  0  0  0
   34.5540   28.7870   40.2430 H   0  0  0  0  0  0  0  0  0  0  0  0
   37.8710   31.7550   40.1460 N   0  0  0  0  0  0  0  0  0  0  0  0
   37.6550   32.1030   38.7560 C   0  0  0  0  0  3  0  0  0  0  0  0
   36.9730   31.3590   38.3150 H   0  0  0  0  0  0  0  0  0  0  0  0
   39.0030   32.0320   38.0680 C   0  0  0  0  0  3  0  0  0  0  0  0
   38.9280   32.2480   36.9970 H   0  0  0  0  0  0  0  0  0  0  0  0
   39.8190   33.0780   38.6520 N   0  0  0  0  0  0  0  0  0  0  0  0
   39.3990   33.9880   38.3630 H   0  0  0  0  0  0  0  0  0  0  0  0
   39.9960   32.9360   40.0600 C   0  0  0  0  0  2  0  0  0  0  0  0
   38.7140   32.7040   40.8330 C   0  0  0  0  0  2  0  0  0  0  0  0
   37.8000   27.9580   43.3550 C   0  0  0  0  0  0  0  0  0  0  0  0
   38.3530   26.5820   42.8920 C   0  0  0  0  0  0  0  0  0  0  0  0
   39.2180   27.6810   43.4290 C   0  0  0  0  0  0  0  0  0  0  0  0
   37.1720   27.9260   44.2700 H   0  0  0  0  0  0  0  0  0  0  0  0
   38.3460   26.3520   41.8220 H   0  0  0  0  0  0  0  0  0  0  0  0
   38.0550   25.7520   43.5570 H   0  0  0  0  0  0  0  0  0  0  0  0
   39.9710   28.0630   42.7140 H   0  0  0  0  0  0  0  0  0  0  0  0
   39.6250   27.4560   44.4560 H   0  0  0  0  0  0  0  0  0  0  0  0
  1 18  1  0  0  0  0
  2  7  1  0  0  0  0
  2  1  1  0  0  0  0
  3  2  2  0  0  0  0
  4  5  2  0  0  0  0
  4  3  1  0  0  0  0
  5  6  1  0  0  0  0
  6  1  2  0  0  0  0
  8  5  1  0  0  0  0
  9  3  1  0  0  0  0
  9 17  1  0  0  0  0
 10  9  1  0  0  0  0
 11 10  1  0  0  0  0
 12 14  1  0  0  0  0
 12 10  1  0  0  0  0
 13 12  1  0  0  0  0
 14 16  1  0  0  0  0
 15 14  1  0  0  0  0
 16 17  1  0  0  0  0
 18 20  1  0  0  0  0
 18 21  1  0  0  0  0
 19 18  1  0  0  0  0
 19 20  1  0  0  0  0
 19 23  1  0  0  0  0
 20 25  1  0  0  0  0
 22 19  1  0  0  0  0
 24 20  1  0  0  0  0
M  END
>  <minimizedAffinity>
-4.63987064

$$$$

 OpenBabel03242520173D

 25 27  0  0  0  0  0  0  0  0999 V2000
   36.7800   28.0990   41.1720 C   0  0  0  0  0  0  0  0  0  0  0  0
   37.1200   29.4480   40.9480 C   0  0  0  0  0  0  0  0  0  0  0  0
   37.2320   29.9350   39.6420 C   0  0  0  0  0  0  0  0  0  0  0  0
   37.0010   29.0500   38.6360 N   0  0  0  0  0  0  0  0  0  0  0  0
   36.6750   27.7570   38.8900 C   0  0  0  0  0  0  0  0  0  0  0  0
   36.5660   27.2840   40.1340 N   0  0  0  0  0  0  0  0  0  0  0  0
   37.3020   30.1410   41.7580 H   0  0  0  0  0  0  0  0  0  0  0  0
   36.5100   27.1330   38.0290 H   0  0  0  0  0  0  0  0  0  0  0  0
   37.5680   31.2670   39.2980 N   0  0  0  0  0  0  0  0  0  0  0  0
   38.2700   31.5740   38.0680 C   0  0  0  0  0  3  0  0  0  0  0  0
   38.4190   30.6360   37.5120 H   0  0  0  0  0  0  0  0  0  0  0  0
   39.6120   32.1580   38.4590 C   0  0  0  0  0  3  0  0  0  0  0  0
   40.2280   32.3890   37.5840 H   0  0  0  0  0  0  0  0  0  0  0  0
   39.3370   33.4160   39.1230 N   0  0  0  0  0  0  0  0  0  0  0  0
   38.9450   34.0610   38.4030 H   0  0  0  0  0  0  0  0  0  0  0  0
   38.5230   33.2740   40.2860 C   0  0  0  0  0  2  0  0  0  0  0  0
   37.2730   32.4440   40.0800 C   0  0  0  0  0  2  0  0  0  0  0  0
   36.6800   27.6320   42.5710 C   0  0  0  0  0  0  0  0  0  0  0  0
   38.0260   27.0700   43.1040 C   0  0  0  0  0  0  0  0  0  0  0  0
   37.3500   28.2770   43.6790 C   0  0  0  0  0  0  0  0  0  0  0  0
   35.7980   26.9810   42.7490 H   0  0  0  0  0  0  0  0  0  0  0  0
   38.9190   27.1770   42.4800 H   0  0  0  0  0  0  0  0  0  0  0  0
   37.9160   26.0940   43.6100 H   0  0  0  0  0  0  0  0  0  0  0  0
   37.9360   29.2120   43.6010 H   0  0  0  0  0  0  0  0  0  0  0  0
   36.9110   28.0880   44.7010 H   0  0  0  0  0  0  0  0  0  0  0  0
  1 18  1  0  0  0  0
  2  1  1  0  0  0  0
  2  7  1  0  0  0  0
  3  2  2  0  0  0  0
  4  5  2  0  0  0  0
  4  3  1  0  0  0  0
  5  6  1  0  0  0  0
  6  1  2  0  0  0  0
  8  5  1  0  0  0  0
  9  3  1  0  0  0  0
  9 17  1  0  0  0  0
 10 12  1  0  0  0  0
 10  9  1  0  0  0  0
 11 10  1  0  0  0  0
 12 14  1  0  0  0  0
 13 12  1  0  0  0  0
 14 16  1  0  0  0  0
 15 14  1  0  0  0  0
 17 16  1  0  0  0  0
 18 21  1  0  0  0  0
 18 19  1  0  0  0  0
 18 20  1  0  0  0  0
 19 23  1  0  0  0  0
 19 20  1  0  0  0  0
 20 25  1  0  0  0  0
 22 19  1  0  0  0  0
 24 20  1  0  0  0  0
M  END
>  <minimizedAffinity>
-4.46047592

$$$$

 OpenBabel03242520173D

 25 27  0  0  0  0  0  0  0  0999 V2000
   37.4130   27.1930   41.6780 C   0  0  0  0  0  0  0  0  0  0  0  0
   37.7620   28.1650   40.7200 C   0  0  0  0  0  0  0  0  0  0  0  0
   38.0400   29.4750   41.1200 C   0  0  0  0  0  0  0  0  0  0  0  0
   37.9520   29.7420   42.4510 N   0  0  0  0  0  0  0  0  0  0  0  0
   37.6130   28.7800   43.3450 C   0  0  0  0  0  0  0  0  0  0  0  0
   37.3470   27.5250   42.9710 N   0  0  0  0  0  0  0  0  0  0  0  0
   37.8280   27.9400   39.6640 H   0  0  0  0  0  0  0  0  0  0  0  0
   37.5700   29.0860   44.3760 H   0  0  0  0  0  0  0  0  0  0  0  0
   38.3990   30.5320   40.2480 N   0  0  0  0  0  0  0  0  0  0  0  0
   38.0660   31.9090   40.5540 C   0  0  0  0  0  3  0  0  0  0  0  0
   37.5660   31.9340   41.5350 H   0  0  0  0  0  0  0  0  0  0  0  0
   37.1090   32.3820   39.4790 C   0  0  0  0  0  3  0  0  0  0  0  0
   36.7750   33.4100   39.6520 H   0  0  0  0  0  0  0  0  0  0  0  0
   37.8550   32.3860   38.2370 N   0  0  0  0  0  0  0  0  0  0  0  0
   38.5800   33.1310   38.3190 H   0  0  0  0  0  0  0  0  0  0  0  0
   38.3700   31.1030   37.8830 C   0  0  0  0  0  2  0  0  0  0  0  0
   39.1100   30.3960   39.0000 C   0  0  0  0  0  2  0  0  0  0  0  0
   37.1240   25.8230   41.2040 C   0  0  0  0  0  0  0  0  0  0  0  0
   38.3010   24.8460   41.4680 C   0  0  0  0  0  0  0  0  0  0  0  0
   36.9460   24.6920   42.0870 C   0  0  0  0  0  0  0  0  0  0  0  0
   36.7180   25.7990   40.1700 H   0  0  0  0  0  0  0  0  0  0  0  0
   39.1480   25.2000   42.0640 H   0  0  0  0  0  0  0  0  0  0  0  0
   38.5650   24.2390   40.5830 H   0  0  0  0  0  0  0  0  0  0  0  0
   36.9370   24.7530   43.1920 H   0  0  0  0  0  0  0  0  0  0  0  0
   36.3670   23.8200   41.6660 H   0  0  0  0  0  0  0  0  0  0  0  0
  1  6  1  0  0  0  0
  2  3  1  0  0  0  0
  2  1  2  0  0  0  0
  3  4  2  0  0  0  0
  4  5  1  0  0  0  0
  5  8  1  0  0  0  0
  6  5  2  0  0  0  0
  7  2  1  0  0  0  0
  9 10  1  0  0  0  0
  9  3  1  0  0  0  0
 10 11  1  0  0  0  0
 12 13  1  0  0  0  0
 12 10  1  0  0  0  0
 14 15  1  0  0  0  0
 14 12  1  0  0  0  0
 16 14  1  0  0  0  0
 16 17  1  0  0  0  0
 17  9  1  0  0  0  0
 18 19  1  0  0  0  0
 18  1  1  0  0  0  0
 18 20  1  0  0  0  0
 19 22  1  0  0  0  0
 19 20  1  0  0  0  0
 20 24  1  0  0  0  0
 21 18  1  0  0  0  0
 23 19  1  0  0  0  0
 25 20  1  0  0  0  0
M  END
>  <minimizedAffinity>
-4.44826889

$$$$

 OpenBabel03242520173D

 25 27  0  0  0  0  0  0  0  0999 V2000
   39.2570   28.6160   42.4720 C   0  0  0  0  0  0  0  0  0  0  0  0
   38.7830   29.5950   41.5770 C   0  0  0  0  0  0  0  0  0  0  0  0
   39.6240   30.6320   41.1620 C   0  0  0  0  0  0  0  0  0  0  0  0
   40.8890   30.6330   41.6630 N   0  0  0  0  0  0  0  0  0  0  0  0
   41.3110   29.6720   42.5240 C   0  0  0  0  0  0  0  0  0  0  0  0
   40.5130   28.6790   42.9250 N   0  0  0  0  0  0  0  0  0  0  0  0
   37.7750   29.5830   41.1850 H   0  0  0  0  0  0  0  0  0  0  0  0
   42.3270   29.7570   42.8660 H   0  0  0  0  0  0  0  0  0  0  0  0
   39.2580   31.6680   40.2690 N   0  0  0  0  0  0  0  0  0  0  0  0
   39.8580   32.9840   40.3530 C   0  0  0  0  0  3  0  0  0  0  0  0
   40.6120   32.9690   41.1560 H   0  0  0  0  0  0  0  0  0  0  0  0
   38.7500   33.9540   40.7100 C   0  0  0  0  0  3  0  0  0  0  0  0
   39.1240   34.9760   40.8290 H   0  0  0  0  0  0  0  0  0  0  0  0
   37.8380   33.9680   39.5840 N   0  0  0  0  0  0  0  0  0  0  0  0
   38.3480   34.4020   38.7840 H   0  0  0  0  0  0  0  0  0  0  0  0
   37.2760   32.6890   39.2950 C   0  0  0  0  0  2  0  0  0  0  0  0
   38.2880   31.5660   39.2050 C   0  0  0  0  0  2  0  0  0  0  0  0
   38.3260   27.5440   42.8840 C   0  0  0  0  0  0  0  0  0  0  0  0
   37.1100   28.0920   43.6790 C   0  0  0  0  0  0  0  0  0  0  0  0
   36.9870   27.4010   42.3550 C   0  0  0  0  0  0  0  0  0  0  0  0
   38.8410   26.6790   43.3540 H   0  0  0  0  0  0  0  0  0  0  0  0
   36.9830   29.1770   43.7550 H   0  0  0  0  0  0  0  0  0  0  0  0
   36.9110   27.5260   44.6070 H   0  0  0  0  0  0  0  0  0  0  0  0
   36.5600   28.0270   41.5500 H   0  0  0  0  0  0  0  0  0  0  0  0
   36.5290   26.3740   42.4380 H   0  0  0  0  0  0  0  0  0  0  0  0
  1 18  1  0  0  0  0
  1  6  1  0  0  0  0
  2  1  2  0  0  0  0
  3  2  1  0  0  0  0
  3  4  2  0  0  0  0
  4  5  1  0  0  0  0
  5  8  1  0  0  0  0
  5  6  2  0  0  0  0
  7  2  1  0  0  0  0
  9 10  1  0  0  0  0
  9  3  1  0  0  0  0
 10 12  1  0  0  0  0
 10 11  1  0  0  0  0
 12 13  1  0  0  0  0
 14 12  1  0  0  0  0
 15 14  1  0  0  0  0
 16 14  1  0  0  0  0
 17 16  1  0  0  0  0
 17  9  1  0  0  0  0
 18 21  1  0  0  0  0
 18 19  1  0  0  0  0
 19 22  1  0  0  0  0
 19 23  1  0  0  0  0
 20 25  1  0  0  0  0
 20 18  1  0  0  0  0
 20 19  1  0  0  0  0
 24 20  1  0  0  0  0
M  END
>  <minimizedAffinity>
-4.37756681

$$$$

 OpenBabel03242520173D

 25 27  0  0  0  0  0  0  0  0999 V2000
   39.0000   28.5850   41.7240 C   0  0  0  0  0  0  0  0  0  0  0  0
   39.3920   29.5010   40.7280 C   0  0  0  0  0  0  0  0  0  0  0  0
   38.5310   30.5360   40.3500 C   0  0  0  0  0  0  0  0  0  0  0  0
   37.3290   30.5960   40.9850 N   0  0  0  0  0  0  0  0  0  0  0  0
   36.9860   29.6950   41.9400 C   0  0  0  0  0  0  0  0  0  0  0  0
   37.8030   28.7050   42.3070 N   0  0  0  0  0  0  0  0  0  0  0  0
   40.3500   29.4420   40.2310 H   0  0  0  0  0  0  0  0  0  0  0  0
   36.0160   29.8250   42.3860 H   0  0  0  0  0  0  0  0  0  0  0  0
   38.8170   31.5110   39.3650 N   0  0  0  0  0  0  0  0  0  0  0  0
   37.7630   32.1200   38.5780 C   0  0  0  0  0  3  0  0  0  0  0  0
   36.7970   31.7200   38.9240 H   0  0  0  0  0  0  0  0  0  0  0  0
   37.9970   31.7150   37.1360 C   0  0  0  0  0  3  0  0  0  0  0  0
   37.2200   32.1060   36.4700 H   0  0  0  0  0  0  0  0  0  0  0  0
   39.2450   32.3310   36.7340 N   0  0  0  0  0  0  0  0  0  0  0  0
   39.0850   33.3620   36.7170 H   0  0  0  0  0  0  0  0  0  0  0  0
   40.3580   31.9250   37.5280 C   0  0  0  0  0  2  0  0  0  0  0  0
   40.1260   32.0120   39.0230 C   0  0  0  0  0  2  0  0  0  0  0  0
   39.9450   27.5060   42.0840 C   0  0  0  0  0  0  0  0  0  0  0  0
   40.7400   27.8250   43.3790 C   0  0  0  0  0  0  0  0  0  0  0  0
   39.7940   26.6700   43.2550 C   0  0  0  0  0  0  0  0  0  0  0  0
   40.5630   27.1660   41.2260 H   0  0  0  0  0  0  0  0  0  0  0  0
   40.4620   28.7130   43.9560 H   0  0  0  0  0  0  0  0  0  0  0  0
   41.8260   27.6510   43.2720 H   0  0  0  0  0  0  0  0  0  0  0  0
   38.9320   26.7070   43.9470 H   0  0  0  0  0  0  0  0  0  0  0  0
   40.3210   25.6730   43.2230 H   0  0  0  0  0  0  0  0  0  0  0  0
  1 18  1  0  0  0  0
  1  6  1  0  0  0  0
  2  1  2  0  0  0  0
  3  2  1  0  0  0  0
  3  4  2  0  0  0  0
  4  5  1  0  0  0  0
  5  6  2  0  0  0  0
  5  8  1  0  0  0  0
  7  2  1  0  0  0  0
  9  3  1  0  0  0  0
 10 11  1  0  0  0  0
 10  9  1  0  0  0  0
 12 10  1  0  0  0  0
 13 12  1  0  0  0  0
 14 12  1  0  0  0  0
 14 16  1  0  0  0  0
 15 14  1  0  0  0  0
 16 17  1  0  0  0  0
 17  9  1  0  0  0  0
 18 20  1  0  0  0  0
 18 19  1  0  0  0  0
 19 22  1  0  0  0  0
 20 19  1  0  0  0  0
 20 24  1  0  0  0  0
 21 18  1  0  0  0  0
 23 19  1  0  0  0  0
 25 20  1  0  0  0  0
M  END
>  <minimizedAffinity>
-4.3133955

$$$$

 OpenBabel03242520173D

 25 27  0  0  0  0  0  0  0  0999 V2000
   37.4820   29.1460   41.5860 C   0  0  0  0  0  0  0  0  0  0  0  0
   38.6420   29.9050   41.3310 C   0  0  0  0  0  0  0  0  0  0  0  0
   38.5330   31.1950   40.8020 C   0  0  0  0  0  0  0  0  0  0  0  0
   37.2770   31.6530   40.5570 N   0  0  0  0  0  0  0  0  0  0  0  0
   36.1820   30.8940   40.8160 C   0  0  0  0  0  0  0  0  0  0  0  0
   36.2770   29.6610   41.3210 N   0  0  0  0  0  0  0  0  0  0  0  0
   39.6360   29.5280   41.5300 H   0  0  0  0  0  0  0  0  0  0  0  0
   35.2310   31.3420   40.5890 H   0  0  0  0  0  0  0  0  0  0  0  0
   39.6260   32.0460   40.5060 N   0  0  0  0  0  0  0  0  0  0  0  0
   39.5520   33.0250   39.4410 C   0  0  0  0  0  3  0  0  0  0  0  0
   38.5430   32.9820   39.0010 H   0  0  0  0  0  0  0  0  0  0  0  0
   40.5810   32.6280   38.4020 C   0  0  0  0  0  3  0  0  0  0  0  0
   40.5700   33.2990   37.5370 H   0  0  0  0  0  0  0  0  0  0  0  0
   41.8780   32.7730   39.0310 N   0  0  0  0  0  0  0  0  0  0  0  0
   42.0230   33.7930   39.1980 H   0  0  0  0  0  0  0  0  0  0  0  0
   42.0370   31.9610   40.1930 C   0  0  0  0  0  2  0  0  0  0  0  0
   40.8980   32.0590   41.1870 C   0  0  0  0  0  2  0  0  0  0  0  0
   37.6510   27.7860   42.1400 C   0  0  0  0  0  0  0  0  0  0  0  0
   37.8530   27.7960   43.6790 C   0  0  0  0  0  0  0  0  0  0  0  0
   36.6820   27.1500   43.0050 C   0  0  0  0  0  0  0  0  0  0  0  0
   38.3880   27.1760   41.5750 H   0  0  0  0  0  0  0  0  0  0  0  0
   37.7340   28.7440   44.2140 H   0  0  0  0  0  0  0  0  0  0  0  0
   38.7040   27.1720   44.0070 H   0  0  0  0  0  0  0  0  0  0  0  0
   35.7010   27.5830   43.2750 H   0  0  0  0  0  0  0  0  0  0  0  0
   36.7190   26.0230   43.0470 H   0  0  0  0  0  0  0  0  0  0  0  0
  1 18  1  0  0  0  0
  2  7  1  0  0  0  0
  2  1  1  0  0  0  0
  3  2  2  0  0  0  0
  4  3  1  0  0  0  0
  4  5  2  0  0  0  0
  5  6  1  0  0  0  0
  6  1  2  0  0  0  0
  8  5  1  0  0  0  0
  9  3  1  0  0  0  0
  9 17  1  0  0  0  0
 10  9  1  0  0  0  0
 11 10  1  0  0  0  0
 12 14  1  0  0  0  0
 12 10  1  0  0  0  0
 13 12  1  0  0  0  0
 14 15  1  0  0  0  0
 14 16  1  0  0  0  0
 16 17  1  0  0  0  0
 18 20  1  0  0  0  0
 18 19  1  0  0  0  0
 19 23  1  0  0  0  0
 19 22  1  0  0  0  0
 20 25  1  0  0  0  0
 20 24  1  0  0  0  0
 20 19  1  0  0  0  0
 21 18  1  0  0  0  0
M  END
>  <minimizedAffinity>
-4.27257824

$$$$

 OpenBabel03242520173D

 25 27  0  0  0  0  0  0  0  0999 V2000
   38.1190   29.5550   40.2690 C   0  0  0  0  0  0  0  0  0  0  0  0
   38.0970   28.2300   40.7460 C   0  0  0  0  0  0  0  0  0  0  0  0
   38.4970   27.9490   42.0560 C   0  0  0  0  0  0  0  0  0  0  0  0
   38.8970   29.0040   42.8140 N   0  0  0  0  0  0  0  0  0  0  0  0
   38.9050   30.2690   42.3210 C   0  0  0  0  0  0  0  0  0  0  0  0
   38.5240   30.5450   41.0710 N   0  0  0  0  0  0  0  0  0  0  0  0
   37.7760   27.3990   40.1320 H   0  0  0  0  0  0  0  0  0  0  0  0
   39.2370   31.0370   42.9960 H   0  0  0  0  0  0  0  0  0  0  0  0
   38.5160   26.6590   42.6400 N   0  0  0  0  0  0  0  0  0  0  0  0
   39.4700   26.3150   43.6760 C   0  0  0  0  0  3  0  0  0  0  0  0
   40.0720   27.2080   43.9020 H   0  0  0  0  0  0  0  0  0  0  0  0
   40.3600   25.2250   43.1130 C   0  0  0  0  0  3  0  0  0  0  0  0
   41.1380   24.9260   43.8220 H   0  0  0  0  0  0  0  0  0  0  0  0
   39.5130   24.0680   42.9050 N   0  0  0  0  0  0  0  0  0  0  0  0
   39.2160   23.7340   43.8490 H   0  0  0  0  0  0  0  0  0  0  0  0
   38.4330   24.3120   42.0060 C   0  0  0  0  0  2  0  0  0  0  0  0
   37.6360   25.5650   42.3080 C   0  0  0  0  0  2  0  0  0  0  0  0
   37.6920   29.7990   38.8750 C   0  0  0  0  0  0  0  0  0  0  0  0
   36.1550   29.9840   38.7520 C   0  0  0  0  0  0  0  0  0  0  0  0
   37.1450   31.0570   38.4150 C   0  0  0  0  0  0  0  0  0  0  0  0
   38.1360   29.0810   38.1540 H   0  0  0  0  0  0  0  0  0  0  0  0
   35.5620   30.0430   39.6710 H   0  0  0  0  0  0  0  0  0  0  0  0
   35.7110   29.3810   37.9410 H   0  0  0  0  0  0  0  0  0  0  0  0
   37.0610   31.9700   39.0350 H   0  0  0  0  0  0  0  0  0  0  0  0
   37.2180   31.2530   37.3070 H   0  0  0  0  0  0  0  0  0  0  0  0
  1  2  2  0  0  0  0
  1  6  1  0  0  0  0
  2  3  1  0  0  0  0
  3  9  1  0  0  0  0
  3  4  2  0  0  0  0
  5  4  1  0  0  0  0
  5  8  1  0  0  0  0
  6  5  2  0  0  0  0
  7  2  1  0  0  0  0
  9 10  1  0  0  0  0
 10 11  1  0  0  0  0
 12 10  1  0  0  0  0
 12 13  1  0  0  0  0
 14 12  1  0  0  0  0
 14 15  1  0  0  0  0
 16 17  1  0  0  0  0
 16 14  1  0  0  0  0
 17  9  1  0  0  0  0
 18  1  1  0  0  0  0
 19 18  1  0  0  0  0
 19 22  1  0  0  0  0
 20 19  1  0  0  0  0
 20 18  1  0  0  0  0
 20 24  1  0  0  0  0
 21 18  1  0  0  0  0
 23 19  1  0  0  0  0
 25 20  1  0  0  0  0
M  END
>  <minimizedAffinity>
-4.22903776

$$$$
