
 OpenBabel03242515333D

 40 43  0  0  1  0  0  0  0  0999 V2000
   36.7830   30.1690   39.1390 N   0  0  0  0  0  0  0  0  0  0  0  0
   36.4030   29.4050   37.9850 C   0  0  0  0  0  0  0  0  0  0  0  0
   34.9120   29.3970   38.1980 C   0  0  0  0  0  0  0  0  0  0  0  0
   34.8880   28.8530   39.6380 C   0  0  0  0  0  0  0  0  0  0  0  0
   35.9940   29.6340   40.2550 C   0  0  1  0  0  0  0  0  0  0  0  0
   36.7030   29.9650   37.0840 H   0  0  0  0  0  0  0  0  0  0  0  0
   36.7360   28.3480   38.0040 H   0  0  0  0  0  0  0  0  0  0  0  0
   34.4580   28.6830   37.4880 H   0  0  0  0  0  0  0  0  0  0  0  0
   34.4800   30.4100   38.1810 H   0  0  0  0  0  0  0  0  0  0  0  0
   35.0900   27.7620   39.5770 H   0  0  0  0  0  0  0  0  0  0  0  0
   33.8860   29.0960   40.0360 H   0  0  0  0  0  0  0  0  0  0  0  0
   35.5750   30.5630   40.7260 H   0  0  0  0  0  0  0  0  0  0  0  0
   36.7070   26.8890   40.1280 F   0  0  0  0  0  0  0  0  0  0  0  0
   37.1640   27.6140   41.1980 C   0  0  0  0  0  0  0  0  0  0  0  0
   36.8040   28.9390   41.2590 C   0  0  0  0  0  0  0  0  0  0  0  0
   37.2880   29.6220   42.3500 C   0  0  0  0  0  0  0  0  0  0  0  0
   38.0740   29.0070   43.3050 C   0  0  0  0  0  0  0  0  0  0  0  0
   38.4070   27.6450   43.1870 C   0  0  0  0  0  0  0  0  0  0  0  0
   37.9240   26.9250   42.0780 C   0  0  0  0  0  0  0  0  0  0  0  0
   37.0880   30.6610   42.5280 H   0  0  0  0  0  0  0  0  0  0  0  0
   38.4590   29.5360   44.1660 H   0  0  0  0  0  0  0  0  0  0  0  0
   39.0130   27.1820   43.9280 H   0  0  0  0  0  0  0  0  0  0  0  0
   38.2370   25.5430   41.9180 N   0  0  0  0  0  0  0  0  0  0  0  0
   37.3230   24.4110   42.1290 C   0  0  0  0  0  3  0  0  0  0  0  0
   36.2660   24.6860   41.9730 H   0  0  0  0  0  0  0  0  0  0  0  0
   37.6990   23.3850   41.0550 C   0  0  0  0  0  3  0  0  0  0  0  0
   36.8510   22.7460   40.7760 H   0  0  0  0  0  0  0  0  0  0  0  0
   38.1870   24.0540   39.8610 N   0  0  0  0  0  0  0  0  0  0  0  0
   37.4840   24.7530   39.5730 H   0  0  0  0  0  0  0  0  0  0  0  0
   39.4940   24.6390   40.0940 C   0  0  0  0  0  2  0  0  0  0  0  0
   39.5650   25.1010   41.5090 C   0  0  0  0  0  2  0  0  0  0  0  0
   38.2820   33.4840   39.9300 C   0  0  0  0  0  0  0  0  0  0  0  0
   37.3240   32.4880   39.8080 C   0  0  0  0  0  0  0  0  0  0  0  0
   37.6970   31.2380   39.3000 C   0  0  0  0  0  0  0  0  0  0  0  0
   38.9850   31.0760   38.9560 N   0  0  0  0  0  0  0  0  0  0  0  0
   39.9130   32.0460   39.0760 C   0  0  0  0  0  0  0  0  0  0  0  0
   39.5530   33.2600   39.5680 N   0  0  0  0  0  0  0  0  0  0  0  0
   37.9900   34.4590   40.3270 H   0  0  0  0  0  0  0  0  0  0  0  0
   36.2900   32.6390   40.0910 H   0  0  0  0  0  0  0  0  0  0  0  0
   40.9300   31.8490   38.7810 H   0  0  0  0  0  0  0  0  0  0  0  0
  1 34  1  0  0  0  0
  1  5  1  0  0  0  0
  2  7  1  0  0  0  0
  2  3  1  0  0  0  0
  2  1  1  0  0  0  0
  3  4  1  0  0  0  0
  4 11  1  0  0  0  0
  4  5  1  0  0  0  0
  5 12  1  1  0  0  0
  5 15  1  0  0  0  0
  6  2  1  0  0  0  0
  8  3  1  0  0  0  0
  9  3  1  0  0  0  0
 10  4  1  0  0  0  0
 13 14  1  0  0  0  0
 14 15  2  0  0  0  0
 14 19  1  0  0  0  0
 15 16  1  0  0  0  0
 16 20  1  0  0  0  0
 16 17  2  0  0  0  0
 17 21  1  0  0  0  0
 18 17  1  0  0  0  0
 18 22  1  0  0  0  0
 19 18  2  0  0  0  0
 23 19  1  0  0  0  0
 23 24  1  0  0  0  0
 25 24  1  0  0  0  0
 26 24  1  0  0  0  0
 27 26  1  0  0  0  0
 28 30  1  0  0  0  0
 28 26  1  0  0  0  0
 29 28  1  0  0  0  0
 30 31  1  0  0  0  0
 31 23  1  0  0  0  0
 32 38  1  0  0  0  0
 33 32  1  0  0  0  0
 33 39  1  0  0  0  0
 34 33  2  0  0  0  0
 35 36  2  0  0  0  0
 35 34  1  0  0  0  0
 36 37  1  0  0  0  0
 37 32  2  0  0  0  0
 40 36  1  0  0  0  0
M  END
>  <minimizedAffinity>
-5.91574192

$$$$

 OpenBabel03242515333D

 40 43  0  0  1  0  0  0  0  0999 V2000
   36.1420   29.0280   40.1990 N   0  0  0  0  0  0  0  0  0  0  0  0
   34.7290   29.1670   39.9870 C   0  0  0  0  0  0  0  0  0  0  0  0
   34.6600   28.6610   38.5700 C   0  0  0  0  0  0  0  0  0  0  0  0
   35.7210   29.5860   37.9440 C   0  0  0  0  0  0  0  0  0  0  0  0
   36.7840   29.5420   38.9830 C   0  0  1  0  0  0  0  0  0  0  0  0
   34.2050   28.5090   40.7010 H   0  0  0  0  0  0  0  0  0  0  0  0
   34.3670   30.2140   39.9730 H   0  0  0  0  0  0  0  0  0  0  0  0
   33.6530   28.8710   38.1690 H   0  0  0  0  0  0  0  0  0  0  0  0
   34.9880   27.6140   38.4820 H   0  0  0  0  0  0  0  0  0  0  0  0
   35.2500   30.5860   37.8270 H   0  0  0  0  0  0  0  0  0  0  0  0
   36.0040   29.1150   36.9860 H   0  0  0  0  0  0  0  0  0  0  0  0
   37.5160   28.7290   38.7310 H   0  0  0  0  0  0  0  0  0  0  0  0
   39.5150   29.9120   38.2990 F   0  0  0  0  0  0  0  0  0  0  0  0
   38.8530   30.9720   38.8640 C   0  0  0  0  0  0  0  0  0  0  0  0
   37.5350   30.7810   39.2030 C   0  0  0  0  0  0  0  0  0  0  0  0
   36.9160   31.8740   39.7650 C   0  0  0  0  0  0  0  0  0  0  0  0
   37.5850   33.0670   39.9650 C   0  0  0  0  0  0  0  0  0  0  0  0
   38.9360   33.1980   39.5980 C   0  0  0  0  0  0  0  0  0  0  0  0
   39.5910   32.0930   39.0210 C   0  0  0  0  0  0  0  0  0  0  0  0
   35.8900   31.8720   40.0780 H   0  0  0  0  0  0  0  0  0  0  0  0
   37.1070   33.9310   40.4060 H   0  0  0  0  0  0  0  0  0  0  0  0
   39.4400   34.1210   39.7570 H   0  0  0  0  0  0  0  0  0  0  0  0
   40.9590   32.1830   38.6330 N   0  0  0  0  0  0  0  0  0  0  0  0
   41.4680   32.4460   37.2790 C   0  0  0  0  0  3  0  0  0  0  0  0
   40.7540   33.0200   36.6630 H   0  0  0  0  0  0  0  0  0  0  0  0
   42.7140   33.3150   37.4780 C   0  0  0  0  0  3  0  0  0  0  0  0
   42.9100   33.9630   36.6140 H   0  0  0  0  0  0  0  0  0  0  0  0
   42.5690   34.1480   38.6590 N   0  0  0  0  0  0  0  0  0  0  0  0
   41.6800   34.6670   38.5810 H   0  0  0  0  0  0  0  0  0  0  0  0
   42.6450   33.3490   39.8670 C   0  0  0  0  0  2  0  0  0  0  0  0
   42.0410   32.0140   39.5960 C   0  0  0  0  0  2  0  0  0  0  0  0
   38.0280   26.7570   42.4680 C   0  0  0  0  0  0  0  0  0  0  0  0
   37.3080   27.1810   41.3610 C   0  0  0  0  0  0  0  0  0  0  0  0
   36.8840   28.5130   41.2900 C   0  0  0  0  0  0  0  0  0  0  0  0
   37.2070   29.3150   42.3170 N   0  0  0  0  0  0  0  0  0  0  0  0
   37.9070   28.9000   43.3920 C   0  0  0  0  0  0  0  0  0  0  0  0
   38.3190   27.6070   43.4620 N   0  0  0  0  0  0  0  0  0  0  0  0
   38.3590   25.7170   42.5220 H   0  0  0  0  0  0  0  0  0  0  0  0
   37.0570   26.5180   40.5420 H   0  0  0  0  0  0  0  0  0  0  0  0
   38.1330   29.5950   44.1820 H   0  0  0  0  0  0  0  0  0  0  0  0
  1 34  1  0  0  0  0
  2  1  1  0  0  0  0
  2  6  1  0  0  0  0
  3  2  1  0  0  0  0
  4  3  1  0  0  0  0
  4  5  1  0  0  0  0
  5 12  1  6  0  0  0
  5 15  1  0  0  0  0
  5  1  1  0  0  0  0
  7  2  1  0  0  0  0
  8  3  1  0  0  0  0
  9  3  1  0  0  0  0
 10  4  1  0  0  0  0
 11  4  1  0  0  0  0
 13 14  1  0  0  0  0
 14 19  2  0  0  0  0
 14 15  1  0  0  0  0
 15 16  2  0  0  0  0
 16 17  1  0  0  0  0
 16 20  1  0  0  0  0
 17 21  1  0  0  0  0
 18 22  1  0  0  0  0
 18 17  2  0  0  0  0
 19 18  1  0  0  0  0
 23 19  1  0  0  0  0
 23 31  1  0  0  0  0
 24 26  1  0  0  0  0
 24 23  1  0  0  0  0
 25 24  1  0  0  0  0
 26 28  1  0  0  0  0
 27 26  1  0  0  0  0
 28 30  1  0  0  0  0
 29 28  1  0  0  0  0
 31 30  1  0  0  0  0
 32 38  1  0  0  0  0
 32 37  1  0  0  0  0
 33 32  2  0  0  0  0
 34 33  1  0  0  0  0
 34 35  2  0  0  0  0
 35 36  1  0  0  0  0
 36 37  2  0  0  0  0
 36 40  1  0  0  0  0
 39 33  1  0  0  0  0
M  END
>  <minimizedAffinity>
-5.84781408

$$$$

 OpenBabel03242515333D

 40 43  0  0  1  0  0  0  0  0999 V2000
   38.5270   25.8050   41.6920 N   0  0  0  0  0  0  0  0  0  0  0  0
   39.9170   25.7280   42.0470 C   0  0  0  0  0  0  0  0  0  0  0  0
   39.7700   25.7440   43.5460 C   0  0  0  0  0  0  0  0  0  0  0  0
   38.9160   27.0190   43.6790 C   0  0  0  0  0  0  0  0  0  0  0  0
   37.9440   26.8270   42.5700 C   0  0  1  0  0  0  0  0  0  0  0  0
   40.3180   24.7730   41.6670 H   0  0  0  0  0  0  0  0  0  0  0  0
   40.5110   26.6210   41.7710 H   0  0  0  0  0  0  0  0  0  0  0  0
   40.7690   25.8770   43.9960 H   0  0  0  0  0  0  0  0  0  0  0  0
   39.2000   24.8810   43.9210 H   0  0  0  0  0  0  0  0  0  0  0  0
   39.5990   27.8840   43.5320 H   0  0  0  0  0  0  0  0  0  0  0  0
   38.4670   26.9770   44.6880 H   0  0  0  0  0  0  0  0  0  0  0  0
   37.0260   26.3140   42.9650 H   0  0  0  0  0  0  0  0  0  0  0  0
   39.6960   28.8970   41.7300 F   0  0  0  0  0  0  0  0  0  0  0  0
   38.3640   29.0350   41.4350 C   0  0  0  0  0  0  0  0  0  0  0  0
   37.5210   28.0340   41.8550 C   0  0  0  0  0  0  0  0  0  0  0  0
   36.1960   28.2190   41.5340 C   0  0  0  0  0  0  0  0  0  0  0  0
   35.7630   29.3320   40.8400 C   0  0  0  0  0  0  0  0  0  0  0  0
   36.6770   30.3230   40.4380 C   0  0  0  0  0  0  0  0  0  0  0  0
   38.0380   30.1560   40.7550 C   0  0  0  0  0  0  0  0  0  0  0  0
   35.4250   27.5200   41.7970 H   0  0  0  0  0  0  0  0  0  0  0  0
   34.7240   29.4850   40.5830 H   0  0  0  0  0  0  0  0  0  0  0  0
   36.3310   31.1760   39.9040 H   0  0  0  0  0  0  0  0  0  0  0  0
   38.9980   31.1360   40.3670 N   0  0  0  0  0  0  0  0  0  0  0  0
   39.8440   31.1010   39.1650 C   0  0  0  0  0  3  0  0  0  0  0  0
   39.3890   30.5210   38.3440 H   0  0  0  0  0  0  0  0  0  0  0  0
   39.9480   32.5580   38.7030 C   0  0  0  0  0  3  0  0  0  0  0  0
   40.1160   32.6390   37.6210 H   0  0  0  0  0  0  0  0  0  0  0  0
   38.7360   33.2850   39.0380 N   0  0  0  0  0  0  0  0  0  0  0  0
   37.9300   32.7620   38.6610 H   0  0  0  0  0  0  0  0  0  0  0  0
   38.6420   33.5000   40.4700 C   0  0  0  0  0  2  0  0  0  0  0  0
   39.2430   32.3290   41.1690 C   0  0  0  0  0  2  0  0  0  0  0  0
   35.9480   23.6660   40.0690 C   0  0  0  0  0  0  0  0  0  0  0  0
   36.6430   24.3290   41.0710 C   0  0  0  0  0  0  0  0  0  0  0  0
   37.7610   25.1010   40.7330 C   0  0  0  0  0  0  0  0  0  0  0  0
   38.0980   25.1550   39.4340 N   0  0  0  0  0  0  0  0  0  0  0  0
   37.4210   24.5100   38.4640 C   0  0  0  0  0  0  0  0  0  0  0  0
   36.3360   23.7600   38.7900 N   0  0  0  0  0  0  0  0  0  0  0  0
   35.0760   23.0640   40.3350 H   0  0  0  0  0  0  0  0  0  0  0  0
   36.3540   24.2720   42.1140 H   0  0  0  0  0  0  0  0  0  0  0  0
   37.7450   24.5960   37.4400 H   0  0  0  0  0  0  0  0  0  0  0  0
  1  2  1  0  0  0  0
  1  5  1  0  0  0  0
  2  3  1  0  0  0  0
  3  4  1  0  0  0  0
  3  9  1  0  0  0  0
  3  8  1  0  0  0  0
  4 11  1  0  0  0  0
  5 12  1  1  0  0  0
  5  4  1  0  0  0  0
  6  2  1  0  0  0  0
  7  2  1  0  0  0  0
 10  4  1  0  0  0  0
 14 13  1  0  0  0  0
 14 15  1  0  0  0  0
 15  5  1  0  0  0  0
 16 20  1  0  0  0  0
 16 15  2  0  0  0  0
 17 16  1  0  0  0  0
 18 19  1  0  0  0  0
 18 17  2  0  0  0  0
 19 14  2  0  0  0  0
 21 17  1  0  0  0  0
 22 18  1  0  0  0  0
 23 19  1  0  0  0  0
 23 31  1  0  0  0  0
 24 23  1  0  0  0  0
 25 24  1  0  0  0  0
 26 28  1  0  0  0  0
 26 24  1  0  0  0  0
 27 26  1  0  0  0  0
 28 30  1  0  0  0  0
 29 28  1  0  0  0  0
 30 31  1  0  0  0  0
 32 38  1  0  0  0  0
 32 33  1  0  0  0  0
 33 39  1  0  0  0  0
 34 33  2  0  0  0  0
 34  1  1  0  0  0  0
 35 34  1  0  0  0  0
 36 37  1  0  0  0  0
 36 35  2  0  0  0  0
 37 32  2  0  0  0  0
 40 36  1  0  0  0  0
M  END
>  <minimizedAffinity>
-5.7610302

$$$$

 OpenBabel03242515333D

 40 43  0  0  1  0  0  0  0  0999 V2000
   36.1150   29.0350   40.2170 N   0  0  0  0  0  0  0  0  0  0  0  0
   34.7070   29.1890   39.9820 C   0  0  0  0  0  0  0  0  0  0  0  0
   34.6560   28.6790   38.5650 C   0  0  0  0  0  0  0  0  0  0  0  0
   35.7360   29.5920   37.9540 C   0  0  0  0  0  0  0  0  0  0  0  0
   36.7820   29.5390   39.0110 C   0  0  1  0  0  0  0  0  0  0  0  0
   34.1650   28.5390   40.6890 H   0  0  0  0  0  0  0  0  0  0  0  0
   34.3570   30.2400   39.9590 H   0  0  0  0  0  0  0  0  0  0  0  0
   33.6580   28.8990   38.1480 H   0  0  0  0  0  0  0  0  0  0  0  0
   34.9750   27.6290   38.4850 H   0  0  0  0  0  0  0  0  0  0  0  0
   35.2790   30.5960   37.8260 H   0  0  0  0  0  0  0  0  0  0  0  0
   36.0300   29.1140   37.0020 H   0  0  0  0  0  0  0  0  0  0  0  0
   37.5100   28.7180   38.7730 H   0  0  0  0  0  0  0  0  0  0  0  0
   39.5780   29.8050   38.5950 F   0  0  0  0  0  0  0  0  0  0  0  0
   38.8930   30.9110   39.0290 C   0  0  0  0  0  0  0  0  0  0  0  0
   37.5420   30.7710   39.2390 C   0  0  0  0  0  0  0  0  0  0  0  0
   36.9020   31.9090   39.6730 C   0  0  0  0  0  0  0  0  0  0  0  0
   37.5810   33.0940   39.8770 C   0  0  0  0  0  0  0  0  0  0  0  0
   38.9660   33.1730   39.6450 C   0  0  0  0  0  0  0  0  0  0  0  0
   39.6440   32.0210   39.2000 C   0  0  0  0  0  0  0  0  0  0  0  0
   35.8490   31.9480   39.8780 H   0  0  0  0  0  0  0  0  0  0  0  0
   37.0860   33.9930   40.2170 H   0  0  0  0  0  0  0  0  0  0  0  0
   39.4780   34.0910   39.8050 H   0  0  0  0  0  0  0  0  0  0  0  0
   41.0470   32.0570   38.9520 N   0  0  0  0  0  0  0  0  0  0  0  0
   42.1080   31.6460   39.8820 C   0  0  0  0  0  3  0  0  0  0  0  0
   41.7660   30.8850   40.6050 H   0  0  0  0  0  0  0  0  0  0  0  0
   43.1860   31.0000   39.0040 C   0  0  0  0  0  3  0  0  0  0  0  0
   43.7720   30.2500   39.5510 H   0  0  0  0  0  0  0  0  0  0  0  0
   42.5830   30.3620   37.8470 N   0  0  0  0  0  0  0  0  0  0  0  0
   41.8450   29.7200   38.1790 H   0  0  0  0  0  0  0  0  0  0  0  0
   42.0820   31.3530   36.9130 C   0  0  0  0  0  2  0  0  0  0  0  0
   41.5890   32.5290   37.6830 C   0  0  0  0  0  2  0  0  0  0  0  0
   37.8520   26.7310   42.5710 C   0  0  0  0  0  0  0  0  0  0  0  0
   37.1470   27.1590   41.4550 C   0  0  0  0  0  0  0  0  0  0  0  0
   36.8330   28.5160   41.3210 C   0  0  0  0  0  0  0  0  0  0  0  0
   37.2420   29.3390   42.3010 N   0  0  0  0  0  0  0  0  0  0  0  0
   37.9270   28.9210   43.3840 C   0  0  0  0  0  0  0  0  0  0  0  0
   38.2320   27.6030   43.5150 N   0  0  0  0  0  0  0  0  0  0  0  0
   38.0960   25.6720   42.6740 H   0  0  0  0  0  0  0  0  0  0  0  0
   36.8250   26.4780   40.6750 H   0  0  0  0  0  0  0  0  0  0  0  0
   38.2250   29.6340   44.1340 H   0  0  0  0  0  0  0  0  0  0  0  0
  1 34  1  0  0  0  0
  2  1  1  0  0  0  0
  2  6  1  0  0  0  0
  3  2  1  0  0  0  0
  4  3  1  0  0  0  0
  4  5  1  0  0  0  0
  5 12  1  6  0  0  0
  5 15  1  0  0  0  0
  5  1  1  0  0  0  0
  7  2  1  0  0  0  0
  8  3  1  0  0  0  0
  9  3  1  0  0  0  0
 10  4  1  0  0  0  0
 11  4  1  0  0  0  0
 13 14  1  0  0  0  0
 14 19  2  0  0  0  0
 14 15  1  0  0  0  0
 15 16  2  0  0  0  0
 16 17  1  0  0  0  0
 16 20  1  0  0  0  0
 17 21  1  0  0  0  0
 18 22  1  0  0  0  0
 18 17  2  0  0  0  0
 19 18  1  0  0  0  0
 23 19  1  0  0  0  0
 23 24  1  0  0  0  0
 24 25  1  0  0  0  0
 26 27  1  0  0  0  0
 26 24  1  0  0  0  0
 28 29  1  0  0  0  0
 28 26  1  0  0  0  0
 30 31  1  0  0  0  0
 30 28  1  0  0  0  0
 31 23  1  0  0  0  0
 32 38  1  0  0  0  0
 32 37  1  0  0  0  0
 33 32  2  0  0  0  0
 34 33  1  0  0  0  0
 34 35  2  0  0  0  0
 35 36  1  0  0  0  0
 36 37  2  0  0  0  0
 36 40  1  0  0  0  0
 39 33  1  0  0  0  0
M  END
>  <minimizedAffinity>
-5.70814371

$$$$

 OpenBabel03242515333D

 40 43  0  0  1  0  0  0  0  0999 V2000
   37.2270   30.3360   38.9910 N   0  0  0  0  0  0  0  0  0  0  0  0
   37.0880   29.5750   37.7820 C   0  0  0  0  0  0  0  0  0  0  0  0
   35.6050   29.3220   37.8420 C   0  0  0  0  0  0  0  0  0  0  0  0
   35.5320   28.7140   39.2550 C   0  0  0  0  0  0  0  0  0  0  0  0
   36.4320   29.6310   40.0040 C   0  0  1  0  0  0  0  0  0  0  0  0
   37.3780   30.2170   36.9330 H   0  0  0  0  0  0  0  0  0  0  0  0
   37.5850   28.5850   37.8030 H   0  0  0  0  0  0  0  0  0  0  0  0
   35.3430   28.5780   37.0680 H   0  0  0  0  0  0  0  0  0  0  0  0
   35.0180   30.2520   37.8120 H   0  0  0  0  0  0  0  0  0  0  0  0
   35.9130   27.6730   39.1810 H   0  0  0  0  0  0  0  0  0  0  0  0
   34.4700   28.7770   39.5560 H   0  0  0  0  0  0  0  0  0  0  0  0
   35.8250   30.4600   40.4580 H   0  0  0  0  0  0  0  0  0  0  0  0
   38.1580   27.4060   39.6390 F   0  0  0  0  0  0  0  0  0  0  0  0
   38.0910   27.9590   40.8920 C   0  0  0  0  0  0  0  0  0  0  0  0
   37.2450   29.0280   41.0640 C   0  0  0  0  0  0  0  0  0  0  0  0
   37.2150   29.5460   42.3380 C   0  0  0  0  0  0  0  0  0  0  0  0
   37.9850   29.0190   43.3570 C   0  0  0  0  0  0  0  0  0  0  0  0
   38.8320   27.9210   43.1180 C   0  0  0  0  0  0  0  0  0  0  0  0
   38.8790   27.3740   41.8210 C   0  0  0  0  0  0  0  0  0  0  0  0
   36.6010   30.3800   42.6180 H   0  0  0  0  0  0  0  0  0  0  0  0
   37.9680   29.4200   44.3610 H   0  0  0  0  0  0  0  0  0  0  0  0
   39.4200   27.5240   43.9100 H   0  0  0  0  0  0  0  0  0  0  0  0
   39.7240   26.2620   41.5350 N   0  0  0  0  0  0  0  0  0  0  0  0
   41.1130   26.3210   41.0580 C   0  0  0  0  0  3  0  0  0  0  0  0
   41.6260   27.2490   41.3630 H   0  0  0  0  0  0  0  0  0  0  0  0
   41.8250   25.1500   41.7440 C   0  0  0  0  0  3  0  0  0  0  0  0
   42.8980   25.3370   41.8760 H   0  0  0  0  0  0  0  0  0  0  0  0
   41.2360   24.8910   43.0460 N   0  0  0  0  0  0  0  0  0  0  0  0
   41.2310   25.7740   43.5800 H   0  0  0  0  0  0  0  0  0  0  0  0
   39.9130   24.3120   42.9100 C   0  0  0  0  0  2  0  0  0  0  0  0
   39.2630   24.8880   41.6980 C   0  0  0  0  0  2  0  0  0  0  0  0
   38.0830   33.8140   40.0080 C   0  0  0  0  0  0  0  0  0  0  0  0
   37.3150   32.6860   39.7560 C   0  0  0  0  0  0  0  0  0  0  0  0
   37.9360   31.5270   39.2760 C   0  0  0  0  0  0  0  0  0  0  0  0
   39.2650   31.5790   39.0860 N   0  0  0  0  0  0  0  0  0  0  0  0
   40.0080   32.6760   39.3310 C   0  0  0  0  0  0  0  0  0  0  0  0
   39.4060   33.8020   39.7960 N   0  0  0  0  0  0  0  0  0  0  0  0
   37.5970   34.7180   40.3820 H   0  0  0  0  0  0  0  0  0  0  0  0
   36.2440   32.6650   39.9160 H   0  0  0  0  0  0  0  0  0  0  0  0
   41.0700   32.6500   39.1560 H   0  0  0  0  0  0  0  0  0  0  0  0
  1 34  1  0  0  0  0
  1  5  1  0  0  0  0
  2  7  1  0  0  0  0
  2  3  1  0  0  0  0
  2  1  1  0  0  0  0
  3  4  1  0  0  0  0
  4 11  1  0  0  0  0
  4  5  1  0  0  0  0
  5 12  1  1  0  0  0
  5 15  1  0  0  0  0
  6  2  1  0  0  0  0
  8  3  1  0  0  0  0
  9  3  1  0  0  0  0
 10  4  1  0  0  0  0
 13 14  1  0  0  0  0
 14 15  2  0  0  0  0
 14 19  1  0  0  0  0
 15 16  1  0  0  0  0
 16 20  1  0  0  0  0
 16 17  2  0  0  0  0
 17 21  1  0  0  0  0
 18 17  1  0  0  0  0
 18 22  1  0  0  0  0
 19 18  2  0  0  0  0
 23 31  1  0  0  0  0
 23 19  1  0  0  0  0
 24 25  1  0  0  0  0
 24 23  1  0  0  0  0
 24 26  1  0  0  0  0
 26 27  1  0  0  0  0
 26 28  1  0  0  0  0
 28 29  1  0  0  0  0
 30 28  1  0  0  0  0
 31 30  1  0  0  0  0
 32 38  1  0  0  0  0
 33 39  1  0  0  0  0
 33 32  2  0  0  0  0
 34 33  1  0  0  0  0
 35 34  2  0  0  0  0
 35 36  1  0  0  0  0
 36 37  2  0  0  0  0
 37 32  1  0  0  0  0
 40 36  1  0  0  0  0
M  END
>  <minimizedAffinity>
-5.69854021

$$$$

 OpenBabel03242515333D

 40 43  0  0  1  0  0  0  0  0999 V2000
   38.6940   24.8720   41.2900 N   0  0  0  0  0  0  0  0  0  0  0  0
   37.8100   23.8520   41.7790 C   0  0  0  0  0  0  0  0  0  0  0  0
   37.0580   23.5740   40.5040 C   0  0  0  0  0  0  0  0  0  0  0  0
   36.6160   25.0130   40.1790 C   0  0  0  0  0  0  0  0  0  0  0  0
   37.8650   25.7660   40.4720 C   0  0  1  0  0  0  0  0  0  0  0  0
   38.4200   22.9950   42.1100 H   0  0  0  0  0  0  0  0  0  0  0  0
   37.0670   24.2050   42.5210 H   0  0  0  0  0  0  0  0  0  0  0  0
   36.1920   22.9290   40.7390 H   0  0  0  0  0  0  0  0  0  0  0  0
   37.7130   23.2010   39.7020 H   0  0  0  0  0  0  0  0  0  0  0  0
   35.7750   25.2580   40.8630 H   0  0  0  0  0  0  0  0  0  0  0  0
   36.3310   25.0070   39.1110 H   0  0  0  0  0  0  0  0  0  0  0  0
   38.4690   25.8650   39.5300 H   0  0  0  0  0  0  0  0  0  0  0  0
   38.2700   28.1950   39.0600 F   0  0  0  0  0  0  0  0  0  0  0  0
   37.8850   28.2810   40.3720 C   0  0  0  0  0  0  0  0  0  0  0  0
   37.7030   27.1010   41.0530 C   0  0  0  0  0  0  0  0  0  0  0  0
   37.3160   27.2420   42.3660 C   0  0  0  0  0  0  0  0  0  0  0  0
   37.1290   28.4840   42.9410 C   0  0  0  0  0  0  0  0  0  0  0  0
   37.3340   29.6570   42.1910 C   0  0  0  0  0  0  0  0  0  0  0  0
   37.7300   29.5380   40.8450 C   0  0  0  0  0  0  0  0  0  0  0  0
   37.1360   26.4090   43.0170 H   0  0  0  0  0  0  0  0  0  0  0  0
   36.8250   28.6040   43.9710 H   0  0  0  0  0  0  0  0  0  0  0  0
   37.1880   30.6070   42.6450 H   0  0  0  0  0  0  0  0  0  0  0  0
   37.9480   30.7000   40.0490 N   0  0  0  0  0  0  0  0  0  0  0  0
   36.9760   31.3370   39.1500 C   0  0  0  0  0  3  0  0  0  0  0  0
   35.9320   31.1530   39.4570 H   0  0  0  0  0  0  0  0  0  0  0  0
   37.2380   32.8420   39.2740 C   0  0  0  0  0  3  0  0  0  0  0  0
   36.3400   33.4380   39.0680 H   0  0  0  0  0  0  0  0  0  0  0  0
   37.7130   33.1660   40.6080 N   0  0  0  0  0  0  0  0  0  0  0  0
   37.0440   32.7800   41.2920 H   0  0  0  0  0  0  0  0  0  0  0  0
   39.0630   32.6760   40.8090 C   0  0  0  0  0  2  0  0  0  0  0  0
   39.2270   31.4020   40.0520 C   0  0  0  0  0  2  0  0  0  0  0  0
   42.3010   25.5740   40.6850 C   0  0  0  0  0  0  0  0  0  0  0  0
   40.9510   25.3880   40.4200 C   0  0  0  0  0  0  0  0  0  0  0  0
   40.0820   25.0810   41.4740 C   0  0  0  0  0  0  0  0  0  0  0  0
   40.6180   24.9840   42.7010 N   0  0  0  0  0  0  0  0  0  0  0  0
   41.9290   25.1650   42.9550 C   0  0  0  0  0  0  0  0  0  0  0  0
   42.7740   25.4630   41.9340 N   0  0  0  0  0  0  0  0  0  0  0  0
   42.9770   25.8140   39.8620 H   0  0  0  0  0  0  0  0  0  0  0  0
   40.5390   25.4710   39.4220 H   0  0  0  0  0  0  0  0  0  0  0  0
   42.2940   25.0730   43.9640 H   0  0  0  0  0  0  0  0  0  0  0  0
  1 34  1  0  0  0  0
  1  2  1  0  0  0  0
  2  6  1  0  0  0  0
  2  7  1  0  0  0  0
  3  8  1  0  0  0  0
  3  2  1  0  0  0  0
  4  5  1  0  0  0  0
  4  3  1  0  0  0  0
  4 10  1  0  0  0  0
  5 12  1  6  0  0  0
  5 15  1  0  0  0  0
  5  1  1  0  0  0  0
  9  3  1  0  0  0  0
 11  4  1  0  0  0  0
 13 14  1  0  0  0  0
 14 19  2  0  0  0  0
 14 15  1  0  0  0  0
 15 16  2  0  0  0  0
 16 17  1  0  0  0  0
 16 20  1  0  0  0  0
 17 21  1  0  0  0  0
 18 22  1  0  0  0  0
 18 17  2  0  0  0  0
 19 18  1  0  0  0  0
 23 31  1  0  0  0  0
 23 19  1  0  0  0  0
 24 26  1  0  0  0  0
 24 25  1  0  0  0  0
 24 23  1  0  0  0  0
 26 28  1  0  0  0  0
 27 26  1  0  0  0  0
 28 30  1  0  0  0  0
 28 29  1  0  0  0  0
 31 30  1  0  0  0  0
 32 37  1  0  0  0  0
 33 32  2  0  0  0  0
 33 34  1  0  0  0  0
 34 35  2  0  0  0  0
 35 36  1  0  0  0  0
 36 40  1  0  0  0  0
 37 36  2  0  0  0  0
 38 32  1  0  0  0  0
 39 33  1  0  0  0  0
M  END
>  <minimizedAffinity>
-5.66159916

$$$$

 OpenBabel03242515333D

 40 43  0  0  1  0  0  0  0  0999 V2000
   37.6420   31.3020   39.6940 N   0  0  0  0  0  0  0  0  0  0  0  0
   37.3770   32.5740   40.3040 C   0  0  0  0  0  0  0  0  0  0  0  0
   38.7910   33.0830   40.3920 C   0  0  0  0  0  0  0  0  0  0  0  0
   39.4210   31.8880   41.1310 C   0  0  0  0  0  0  0  0  0  0  0  0
   38.8000   30.7470   40.4050 C   0  0  1  0  0  0  0  0  0  0  0  0
   36.7520   33.1650   39.6140 H   0  0  0  0  0  0  0  0  0  0  0  0
   36.9910   32.5140   41.3410 H   0  0  0  0  0  0  0  0  0  0  0  0
   38.8000   33.9950   41.0160 H   0  0  0  0  0  0  0  0  0  0  0  0
   39.2610   33.1920   39.4020 H   0  0  0  0  0  0  0  0  0  0  0  0
   39.1110   31.9640   42.1950 H   0  0  0  0  0  0  0  0  0  0  0  0
   40.5120   31.9800   40.9800 H   0  0  0  0  0  0  0  0  0  0  0  0
   39.4740   30.4310   39.5640 H   0  0  0  0  0  0  0  0  0  0  0  0
   38.8070   28.0880   39.4120 F   0  0  0  0  0  0  0  0  0  0  0  0
   38.4910   28.2710   40.7340 C   0  0  0  0  0  0  0  0  0  0  0  0
   38.4780   29.5620   41.2040 C   0  0  0  0  0  0  0  0  0  0  0  0
   38.1560   29.6920   42.5350 C   0  0  0  0  0  0  0  0  0  0  0  0
   37.8700   28.5950   43.3260 C   0  0  0  0  0  0  0  0  0  0  0  0
   37.8990   27.2970   42.7840 C   0  0  0  0  0  0  0  0  0  0  0  0
   38.2260   27.1390   41.4240 C   0  0  0  0  0  0  0  0  0  0  0  0
   38.1080   30.6380   43.0380 H   0  0  0  0  0  0  0  0  0  0  0  0
   37.6170   28.6880   44.3730 H   0  0  0  0  0  0  0  0  0  0  0  0
   37.6770   26.4610   43.4030 H   0  0  0  0  0  0  0  0  0  0  0  0
   38.2670   25.8420   40.8340 N   0  0  0  0  0  0  0  0  0  0  0  0
   39.4490   24.9770   40.7100 C   0  0  0  0  0  3  0  0  0  0  0  0
   40.2010   25.1740   41.4930 H   0  0  0  0  0  0  0  0  0  0  0  0
   38.9270   23.5500   40.9160 C   0  0  0  0  0  3  0  0  0  0  0  0
   39.6970   22.8810   41.3210 H   0  0  0  0  0  0  0  0  0  0  0  0
   37.7910   23.5510   41.8230 N   0  0  0  0  0  0  0  0  0  0  0  0
   38.0670   24.0460   42.6860 H   0  0  0  0  0  0  0  0  0  0  0  0
   36.6250   24.1380   41.1900 C   0  0  0  0  0  2  0  0  0  0  0  0
   37.0750   25.2190   40.2690 C   0  0  0  0  0  2  0  0  0  0  0  0
   36.8250   29.9300   36.3300 C   0  0  0  0  0  0  0  0  0  0  0  0
   37.5100   30.6210   37.3190 C   0  0  0  0  0  0  0  0  0  0  0  0
   37.0090   30.6200   38.6270 C   0  0  0  0  0  0  0  0  0  0  0  0
   35.8740   29.9360   38.8480 N   0  0  0  0  0  0  0  0  0  0  0  0
   35.2120   29.2660   37.8840 C   0  0  0  0  0  0  0  0  0  0  0  0
   35.6970   29.2660   36.6150 N   0  0  0  0  0  0  0  0  0  0  0  0
   37.2170   29.9310   35.3110 H   0  0  0  0  0  0  0  0  0  0  0  0
   38.4240   31.1670   37.1210 H   0  0  0  0  0  0  0  0  0  0  0  0
   34.3060   28.7370   38.1290 H   0  0  0  0  0  0  0  0  0  0  0  0
  1  2  1  0  0  0  0
  1  5  1  0  0  0  0
  2  3  1  0  0  0  0
  2  7  1  0  0  0  0
  3  8  1  0  0  0  0
  3  4  1  0  0  0  0
  4 10  1  0  0  0  0
  5 12  1  6  0  0  0
  5  4  1  0  0  0  0
  5 15  1  0  0  0  0
  6  2  1  0  0  0  0
  9  3  1  0  0  0  0
 11  4  1  0  0  0  0
 13 14  1  0  0  0  0
 14 15  2  0  0  0  0
 14 19  1  0  0  0  0
 15 16  1  0  0  0  0
 16 20  1  0  0  0  0
 16 17  2  0  0  0  0
 17 21  1  0  0  0  0
 18 17  1  0  0  0  0
 18 22  1  0  0  0  0
 19 18  2  0  0  0  0
 23 19  1  0  0  0  0
 24 23  1  0  0  0  0
 24 26  1  0  0  0  0
 24 25  1  0  0  0  0
 26 27  1  0  0  0  0
 26 28  1  0  0  0  0
 28 29  1  0  0  0  0
 30 28  1  0  0  0  0
 31 23  1  0  0  0  0
 31 30  1  0  0  0  0
 32 37  2  0  0  0  0
 32 33  1  0  0  0  0
 33 34  2  0  0  0  0
 34 35  1  0  0  0  0
 34  1  1  0  0  0  0
 36 40  1  0  0  0  0
 36 35  2  0  0  0  0
 37 36  1  0  0  0  0
 38 32  1  0  0  0  0
 39 33  1  0  0  0  0
M  END
>  <minimizedAffinity>
-5.51461363

$$$$

 OpenBabel03242515333D

 40 43  0  0  1  0  0  0  0  0999 V2000
   38.6580   30.7870   40.2300 N   0  0  0  0  0  0  0  0  0  0  0  0
   39.4700   31.4800   39.2700 C   0  0  0  0  0  0  0  0  0  0  0  0
   39.0090   32.8850   39.5530 C   0  0  0  0  0  0  0  0  0  0  0  0
   37.4920   32.6650   39.4000 C   0  0  0  0  0  0  0  0  0  0  0  0
   37.3180   31.3780   40.1250 C   0  0  1  0  0  0  0  0  0  0  0  0
   40.5290   31.3160   39.5310 H   0  0  0  0  0  0  0  0  0  0  0  0
   39.2160   31.2640   38.2130 H   0  0  0  0  0  0  0  0  0  0  0  0
   39.4030   33.5510   38.7650 H   0  0  0  0  0  0  0  0  0  0  0  0
   39.2320   33.2000   40.5840 H   0  0  0  0  0  0  0  0  0  0  0  0
   37.2830   32.5980   38.3110 H   0  0  0  0  0  0  0  0  0  0  0  0
   37.0110   33.5300   39.8910 H   0  0  0  0  0  0  0  0  0  0  0  0
   37.0590   31.5880   41.1980 H   0  0  0  0  0  0  0  0  0  0  0  0
   37.3060   30.3920   37.4630 F   0  0  0  0  0  0  0  0  0  0  0  0
   36.3110   29.9640   38.3020 C   0  0  0  0  0  0  0  0  0  0  0  0
   36.3160   30.4550   39.5860 C   0  0  0  0  0  0  0  0  0  0  0  0
   35.2980   29.9940   40.3880 C   0  0  0  0  0  0  0  0  0  0  0  0
   34.3490   29.1050   39.9220 C   0  0  0  0  0  0  0  0  0  0  0  0
   34.3970   28.6390   38.5950 C   0  0  0  0  0  0  0  0  0  0  0  0
   35.4310   29.0970   37.7550 C   0  0  0  0  0  0  0  0  0  0  0  0
   35.1770   30.2910   41.4120 H   0  0  0  0  0  0  0  0  0  0  0  0
   33.5460   28.7370   40.5450 H   0  0  0  0  0  0  0  0  0  0  0  0
   33.6610   27.9540   38.2470 H   0  0  0  0  0  0  0  0  0  0  0  0
   35.5170   28.6500   36.4040 N   0  0  0  0  0  0  0  0  0  0  0  0
   35.0920   29.3940   35.2100 C   0  0  0  0  0  3  0  0  0  0  0  0
   35.1230   30.4870   35.3590 H   0  0  0  0  0  0  0  0  0  0  0  0
   36.1190   29.0430   34.1280 C   0  0  0  0  0  3  0  0  0  0  0  0
   36.2260   29.8410   33.3830 H   0  0  0  0  0  0  0  0  0  0  0  0
   37.4190   28.7910   34.7260 N   0  0  0  0  0  0  0  0  0  0  0  0
   37.6650   29.6000   35.3180 H   0  0  0  0  0  0  0  0  0  0  0  0
   37.4160   27.5400   35.4610 C   0  0  0  0  0  2  0  0  0  0  0  0
   36.0670   27.3430   36.0630 C   0  0  0  0  0  2  0  0  0  0  0  0
   38.7590   28.6360   43.2680 C   0  0  0  0  0  0  0  0  0  0  0  0
   38.4070   29.6850   42.4300 C   0  0  0  0  0  0  0  0  0  0  0  0
   38.9600   29.7510   41.1460 C   0  0  0  0  0  0  0  0  0  0  0  0
   39.8150   28.7760   40.7960 N   0  0  0  0  0  0  0  0  0  0  0  0
   40.1560   27.7590   41.6120 C   0  0  0  0  0  0  0  0  0  0  0  0
   39.6200   27.6940   42.8590 N   0  0  0  0  0  0  0  0  0  0  0  0
   38.3270   28.5860   44.2700 H   0  0  0  0  0  0  0  0  0  0  0  0
   37.7150   30.4620   42.7320 H   0  0  0  0  0  0  0  0  0  0  0  0
   40.8480   27.0090   41.2690 H   0  0  0  0  0  0  0  0  0  0  0  0
  1 34  1  0  0  0  0
  2  6  1  0  0  0  0
  2  3  1  0  0  0  0
  2  1  1  0  0  0  0
  3  9  1  0  0  0  0
  4  3  1  0  0  0  0
  4 11  1  0  0  0  0
  4  5  1  0  0  0  0
  5  1  1  0  0  0  0
  5 12  1  1  0  0  0
  7  2  1  0  0  0  0
  8  3  1  0  0  0  0
 10  4  1  0  0  0  0
 13 14  1  0  0  0  0
 14 15  1  0  0  0  0
 15  5  1  0  0  0  0
 15 16  2  0  0  0  0
 16 20  1  0  0  0  0
 17 16  1  0  0  0  0
 17 21  1  0  0  0  0
 18 17  2  0  0  0  0
 19 14  2  0  0  0  0
 19 18  1  0  0  0  0
 22 18  1  0  0  0  0
 23 19  1  0  0  0  0
 24 25  1  0  0  0  0
 24 23  1  0  0  0  0
 26 28  1  0  0  0  0
 26 24  1  0  0  0  0
 27 26  1  0  0  0  0
 28 29  1  0  0  0  0
 28 30  1  0  0  0  0
 30 31  1  0  0  0  0
 31 23  1  0  0  0  0
 32 38  1  0  0  0  0
 33 39  1  0  0  0  0
 33 32  2  0  0  0  0
 34 33  1  0  0  0  0
 35 34  2  0  0  0  0
 35 36  1  0  0  0  0
 36 37  2  0  0  0  0
 37 32  1  0  0  0  0
 40 36  1  0  0  0  0
M  END
>  <minimizedAffinity>
-5.46393633

$$$$

 OpenBabel03242515333D

 40 43  0  0  1  0  0  0  0  0999 V2000
   36.6990   29.6570   38.6330 N   0  0  0  0  0  0  0  0  0  0  0  0
   36.6500   29.1290   37.2990 C   0  0  0  0  0  0  0  0  0  0  0  0
   35.1570   29.1340   37.1070 C   0  0  0  0  0  0  0  0  0  0  0  0
   34.7600   28.3370   38.3640 C   0  0  0  0  0  0  0  0  0  0  0  0
   35.6510   28.9540   39.3830 C   0  0  1  0  0  0  0  0  0  0  0  0
   37.1690   29.8340   36.6290 H   0  0  0  0  0  0  0  0  0  0  0  0
   36.9830   28.0760   37.2090 H   0  0  0  0  0  0  0  0  0  0  0  0
   34.9180   28.5770   36.1830 H   0  0  0  0  0  0  0  0  0  0  0  0
   34.7290   30.1460   37.1650 H   0  0  0  0  0  0  0  0  0  0  0  0
   34.9890   27.2690   38.1570 H   0  0  0  0  0  0  0  0  0  0  0  0
   33.6850   28.5370   38.5210 H   0  0  0  0  0  0  0  0  0  0  0  0
   35.1070   29.7960   39.8900 H   0  0  0  0  0  0  0  0  0  0  0  0
   36.7630   26.3900   38.8830 F   0  0  0  0  0  0  0  0  0  0  0  0
   36.7280   26.8240   40.1830 C   0  0  0  0  0  0  0  0  0  0  0  0
   36.1770   28.0610   40.4180 C   0  0  0  0  0  0  0  0  0  0  0  0
   36.1660   28.4500   41.7380 C   0  0  0  0  0  0  0  0  0  0  0  0
   36.6750   27.6450   42.7390 C   0  0  0  0  0  0  0  0  0  0  0  0
   37.2250   26.3860   42.4330 C   0  0  0  0  0  0  0  0  0  0  0  0
   37.2470   25.9670   41.0890 C   0  0  0  0  0  0  0  0  0  0  0  0
   35.7690   29.3890   42.0700 H   0  0  0  0  0  0  0  0  0  0  0  0
   36.6720   27.9420   43.7780 H   0  0  0  0  0  0  0  0  0  0  0  0
   37.6140   25.7760   43.2120 H   0  0  0  0  0  0  0  0  0  0  0  0
   37.7950   24.6990   40.7350 N   0  0  0  0  0  0  0  0  0  0  0  0
   37.0410   23.4670   40.4630 C   0  0  0  0  0  3  0  0  0  0  0  0
   36.0190   23.6680   40.0990 H   0  0  0  0  0  0  0  0  0  0  0  0
   37.8070   22.7670   39.3350 C   0  0  0  0  0  3  0  0  0  0  0  0
   37.1530   22.1340   38.7210 H   0  0  0  0  0  0  0  0  0  0  0  0
   38.4490   23.7450   38.4740 N   0  0  0  0  0  0  0  0  0  0  0  0
   37.7330   24.4210   38.1640 H   0  0  0  0  0  0  0  0  0  0  0  0
   39.5620   24.3800   39.1530 C   0  0  0  0  0  2  0  0  0  0  0  0
   39.2340   24.4970   40.6010 C   0  0  0  0  0  2  0  0  0  0  0  0
   37.8960   32.7800   40.2710 C   0  0  0  0  0  0  0  0  0  0  0  0
   37.0210   31.8610   39.7090 C   0  0  0  0  0  0  0  0  0  0  0  0
   37.5210   30.6470   39.2240 C   0  0  0  0  0  0  0  0  0  0  0  0
   38.8430   30.4410   39.3340 N   0  0  0  0  0  0  0  0  0  0  0  0
   39.6910   31.3360   39.8800 C   0  0  0  0  0  0  0  0  0  0  0  0
   39.2070   32.5150   40.3520 N   0  0  0  0  0  0  0  0  0  0  0  0
   37.5040   33.7260   40.6490 H   0  0  0  0  0  0  0  0  0  0  0  0
   35.9560   32.0460   39.6290 H   0  0  0  0  0  0  0  0  0  0  0  0
   40.7420   31.1080   39.9380 H   0  0  0  0  0  0  0  0  0  0  0  0
  1 34  1  0  0  0  0
  1  5  1  0  0  0  0
  2  1  1  0  0  0  0
  3  9  1  0  0  0  0
  3  2  1  0  0  0  0
  3  4  1  0  0  0  0
  4 11  1  0  0  0  0
  4  5  1  0  0  0  0
  5 12  1  1  0  0  0
  5 15  1  0  0  0  0
  6  2  1  0  0  0  0
  7  2  1  0  0  0  0
  8  3  1  0  0  0  0
 10  4  1  0  0  0  0
 13 14  1  0  0  0  0
 14 15  2  0  0  0  0
 14 19  1  0  0  0  0
 15 16  1  0  0  0  0
 16 20  1  0  0  0  0
 16 17  2  0  0  0  0
 17 21  1  0  0  0  0
 18 17  1  0  0  0  0
 18 22  1  0  0  0  0
 19 18  2  0  0  0  0
 23 19  1  0  0  0  0
 24 23  1  0  0  0  0
 25 24  1  0  0  0  0
 26 24  1  0  0  0  0
 27 26  1  0  0  0  0
 28 30  1  0  0  0  0
 28 26  1  0  0  0  0
 29 28  1  0  0  0  0
 30 31  1  0  0  0  0
 31 23  1  0  0  0  0
 32 37  1  0  0  0  0
 32 38  1  0  0  0  0
 33 32  2  0  0  0  0
 34 35  2  0  0  0  0
 34 33  1  0  0  0  0
 35 36  1  0  0  0  0
 36 40  1  0  0  0  0
 36 37  2  0  0  0  0
 39 33  1  0  0  0  0
M  END
>  <minimizedAffinity>
-5.38829327

$$$$
