
 OpenBabel03252506533D

 31 34  0  0  0  0  0  0  0  0999 V2000
   36.6310   30.4760   38.7270 C   0  0  0  0  0  0  0  0  0  0  0  0
   35.6950   29.4630   38.7810 C   0  0  0  0  0  0  0  0  0  0  0  0
   35.5150   28.6680   39.8970 C   0  0  0  0  0  0  0  0  0  0  0  0
   36.2940   28.8710   41.0320 C   0  0  0  0  0  0  0  0  0  0  0  0
   36.3950   28.3080   42.2650 N   0  0  0  0  0  0  0  0  0  0  0  0
   37.3740   28.9660   42.9500 C   0  0  0  0  0  0  0  0  0  0  0  0
   37.8630   29.9260   42.1290 N   0  0  0  0  0  0  0  0  0  0  0  0
   37.2170   29.8850   40.9520 C   0  0  0  0  0  0  0  0  0  0  0  0
   37.4210   30.6930   39.8590 C   0  0  0  0  0  0  0  0  0  0  0  0
   36.7830   31.1080   37.8610 H   0  0  0  0  0  0  0  0  0  0  0  0
   34.7800   27.8820   39.9210 H   0  0  0  0  0  0  0  0  0  0  0  0
   35.8030   27.5090   42.5900 H   0  0  0  0  0  0  0  0  0  0  0  0
   37.6800   28.7280   43.9810 H   0  0  0  0  0  0  0  0  0  0  0  0
   32.7640   28.6730   36.6950 C   0  0  0  0  0  0  0  0  0  0  0  0
   33.2860   28.7090   35.4030 C   0  0  0  0  0  0  0  0  0  0  0  0
   34.6490   29.0050   35.2500 C   0  0  0  0  0  0  0  0  0  0  0  0
   35.3760   29.2400   36.3910 N   0  0  0  0  0  0  0  0  0  0  0  0
   34.8480   29.2000   37.6250 C   0  0  0  0  0  0  0  0  0  0  0  0
   33.5520   28.9180   37.7560 N   0  0  0  0  0  0  0  0  0  0  0  0
   31.7280   28.4440   36.7480 H   0  0  0  0  0  0  0  0  0  0  0  0
   32.7720   28.5340   34.4720 H   0  0  0  0  0  0  0  0  0  0  0  0
   35.1920   29.0680   34.3110 H   0  0  0  0  0  0  0  0  0  0  0  0
   38.3940   31.7310   39.8340 N   0  0  0  0  0  0  0  0  0  0  0  0
   37.9030   33.0350   40.2400 C   0  0  0  0  0  3  0  0  0  0  0  0
   37.0330   33.3250   39.6200 H   0  0  0  0  0  0  0  0  0  0  0  0
   39.0120   34.0630   40.2130 C   0  0  0  0  0  3  0  0  0  0  0  0
   39.5620   34.0230   41.1550 H   0  0  0  0  0  0  0  0  0  0  0  0
   39.9470   33.8260   39.1390 N   0  0  0  0  0  0  0  0  0  0  0  0
   39.6450   34.1430   38.2120 H   0  0  0  0  0  0  0  0  0  0  0  0
   40.6170   32.5670   39.2040 C   0  0  0  0  0  2  0  0  0  0  0  0
   39.7370   31.3780   39.4160 C   0  0  0  0  0  2  0  0  0  0  0  0
  1  2  2  0  0  0  0
  1  9  1  0  0  0  0
  2  3  1  0  0  0  0
  3 11  1  0  0  0  0
  3  4  2  0  0  0  0
  4  5  1  0  0  0  0
  5 12  1  0  0  0  0
  5  6  1  0  0  0  0
  6 13  1  0  0  0  0
  7  6  2  0  0  0  0
  8  4  1  0  0  0  0
  8  7  1  0  0  0  0
  9  8  2  0  0  0  0
 10  1  1  0  0  0  0
 14 20  1  0  0  0  0
 14 19  1  0  0  0  0
 15 14  2  0  0  0  0
 16 15  1  0  0  0  0
 16 17  2  0  0  0  0
 17 18  1  0  0  0  0
 18 19  2  0  0  0  0
 18  2  1  0  0  0  0
 21 15  1  0  0  0  0
 22 16  1  0  0  0  0
 23  9  1  0  0  0  0
 23 24  1  0  0  0  0
 25 24  1  0  0  0  0
 26 24  1  0  0  0  0
 26 27  1  0  0  0  0
 28 30  1  0  0  0  0
 28 26  1  0  0  0  0
 29 28  1  0  0  0  0
 30 31  1  0  0  0  0
 31 23  1  0  0  0  0
M  END
>  <minimizedAffinity>
-5.47605276

$$$$

 OpenBabel03252506533D

 31 34  0  0  0  0  0  0  0  0999 V2000
   36.1140   27.1510   39.1440 C   0  0  0  0  0  0  0  0  0  0  0  0
   35.4850   28.3760   39.0460 C   0  0  0  0  0  0  0  0  0  0  0  0
   35.5800   29.3470   40.0260 C   0  0  0  0  0  0  0  0  0  0  0  0
   36.3350   29.1120   41.1720 C   0  0  0  0  0  0  0  0  0  0  0  0
   36.6450   29.8020   42.3000 N   0  0  0  0  0  0  0  0  0  0  0  0
   37.4480   29.0140   43.0700 C   0  0  0  0  0  0  0  0  0  0  0  0
   37.6220   27.8470   42.4050 N   0  0  0  0  0  0  0  0  0  0  0  0
   36.9490   27.8850   41.2420 C   0  0  0  0  0  0  0  0  0  0  0  0
   36.8750   26.8990   40.2870 C   0  0  0  0  0  0  0  0  0  0  0  0
   36.0490   26.3810   38.3850 H   0  0  0  0  0  0  0  0  0  0  0  0
   35.0820   30.2960   39.9340 H   0  0  0  0  0  0  0  0  0  0  0  0
   36.3030   30.7710   42.5020 H   0  0  0  0  0  0  0  0  0  0  0  0
   37.8590   29.3100   44.0480 H   0  0  0  0  0  0  0  0  0  0  0  0
   34.4760   29.0130   35.5610 C   0  0  0  0  0  0  0  0  0  0  0  0
   33.1120   29.2720   35.6780 C   0  0  0  0  0  0  0  0  0  0  0  0
   32.5390   29.2290   36.9570 C   0  0  0  0  0  0  0  0  0  0  0  0
   33.3680   28.9310   38.0110 N   0  0  0  0  0  0  0  0  0  0  0  0
   34.6800   28.6840   37.8720 C   0  0  0  0  0  0  0  0  0  0  0  0
   35.2120   28.7290   36.6510 N   0  0  0  0  0  0  0  0  0  0  0  0
   34.8530   29.0600   34.5700 H   0  0  0  0  0  0  0  0  0  0  0  0
   32.4110   29.5110   34.8950 H   0  0  0  0  0  0  0  0  0  0  0  0
   31.4950   29.4080   37.2020 H   0  0  0  0  0  0  0  0  0  0  0  0
   37.5360   25.6460   40.4160 N   0  0  0  0  0  0  0  0  0  0  0  0
   36.6790   24.5440   40.8130 C   0  0  0  0  0  3  0  0  0  0  0  0
   36.1560   24.7890   41.7580 H   0  0  0  0  0  0  0  0  0  0  0  0
   37.4600   23.2510   40.8920 C   0  0  0  0  0  3  0  0  0  0  0  0
   37.5090   22.8000   39.8990 H   0  0  0  0  0  0  0  0  0  0  0  0
   38.8110   23.4600   41.3560 N   0  0  0  0  0  0  0  0  0  0  0  0
   38.9160   23.5740   42.3700 H   0  0  0  0  0  0  0  0  0  0  0  0
   39.5980   24.3130   40.5250 C   0  0  0  0  0  2  0  0  0  0  0  0
   38.9600   25.6100   40.1430 C   0  0  0  0  0  2  0  0  0  0  0  0
  1  9  1  0  0  0  0
  2  1  2  0  0  0  0
  2  3  1  0  0  0  0
  3  4  2  0  0  0  0
  4  8  1  0  0  0  0
  4  5  1  0  0  0  0
  5 12  1  0  0  0  0
  5  6  1  0  0  0  0
  6 13  1  0  0  0  0
  7  6  2  0  0  0  0
  8  7  1  0  0  0  0
  9 23  1  0  0  0  0
  9  8  2  0  0  0  0
 10  1  1  0  0  0  0
 11  3  1  0  0  0  0
 14 15  2  0  0  0  0
 14 19  1  0  0  0  0
 15 16  1  0  0  0  0
 16 22  1  0  0  0  0
 16 17  2  0  0  0  0
 18 17  1  0  0  0  0
 18  2  1  0  0  0  0
 19 18  2  0  0  0  0
 20 14  1  0  0  0  0
 21 15  1  0  0  0  0
 23 24  1  0  0  0  0
 24 26  1  0  0  0  0
 24 25  1  0  0  0  0
 26 28  1  0  0  0  0
 27 26  1  0  0  0  0
 28 29  1  0  0  0  0
 30 28  1  0  0  0  0
 31 23  1  0  0  0  0
 31 30  1  0  0  0  0
M  END
>  <minimizedAffinity>
-5.20490026

$$$$

 OpenBabel03252506533D

 31 34  0  0  0  0  0  0  0  0999 V2000
   37.3850   29.6440   39.3530 C   0  0  0  0  0  0  0  0  0  0  0  0
   37.0190   30.4090   38.2630 C   0  0  0  0  0  0  0  0  0  0  0  0
   37.2770   31.7640   38.1790 C   0  0  0  0  0  0  0  0  0  0  0  0
   37.9330   32.4170   39.2190 C   0  0  0  0  0  0  0  0  0  0  0  0
   38.3400   33.6870   39.4760 N   0  0  0  0  0  0  0  0  0  0  0  0
   38.9430   33.6970   40.6990 C   0  0  0  0  0  0  0  0  0  0  0  0
   38.8990   32.4310   41.1790 N   0  0  0  0  0  0  0  0  0  0  0  0
   38.2850   31.6330   40.2900 C   0  0  0  0  0  0  0  0  0  0  0  0
   38.0440   30.2840   40.4060 C   0  0  0  0  0  0  0  0  0  0  0  0
   37.1900   28.5820   39.4340 H   0  0  0  0  0  0  0  0  0  0  0  0
   36.9840   32.3440   37.3220 H   0  0  0  0  0  0  0  0  0  0  0  0
   38.1950   34.4890   38.8200 H   0  0  0  0  0  0  0  0  0  0  0  0
   39.3750   34.5930   41.1740 H   0  0  0  0  0  0  0  0  0  0  0  0
   36.2490   29.1520   34.8880 C   0  0  0  0  0  0  0  0  0  0  0  0
   34.9830   28.5910   35.0500 C   0  0  0  0  0  0  0  0  0  0  0  0
   34.3940   28.6460   36.3210 C   0  0  0  0  0  0  0  0  0  0  0  0
   35.1110   29.2530   37.3240 N   0  0  0  0  0  0  0  0  0  0  0  0
   36.3300   29.7850   37.1420 C   0  0  0  0  0  0  0  0  0  0  0  0
   36.8780   29.7250   35.9280 N   0  0  0  0  0  0  0  0  0  0  0  0
   36.6430   29.0800   33.9050 H   0  0  0  0  0  0  0  0  0  0  0  0
   34.3710   28.1040   34.3080 H   0  0  0  0  0  0  0  0  0  0  0  0
   33.4180   28.2540   36.5970 H   0  0  0  0  0  0  0  0  0  0  0  0
   38.4340   29.5230   41.5430 N   0  0  0  0  0  0  0  0  0  0  0  0
   39.7950   29.0210   41.5010 C   0  0  0  0  0  3  0  0  0  0  0  0
   39.9550   28.4260   40.5800 H   0  0  0  0  0  0  0  0  0  0  0  0
   40.1290   28.2540   42.7610 C   0  0  0  0  0  3  0  0  0  0  0  0
   40.4560   28.9550   43.5320 H   0  0  0  0  0  0  0  0  0  0  0  0
   38.9920   27.5260   43.2710 N   0  0  0  0  0  0  0  0  0  0  0  0
   38.7880   26.6390   42.7970 H   0  0  0  0  0  0  0  0  0  0  0  0
   37.8750   28.3410   43.6240 C   0  0  0  0  0  2  0  0  0  0  0  0
   37.4510   29.3370   42.5920 C   0  0  0  0  0  2  0  0  0  0  0  0
  1 10  1  0  0  0  0
  1  9  1  0  0  0  0
  2  1  2  0  0  0  0
  3  2  1  0  0  0  0
  3  4  2  0  0  0  0
  4  5  1  0  0  0  0
  4  8  1  0  0  0  0
  5  6  1  0  0  0  0
  6 13  1  0  0  0  0
  6  7  2  0  0  0  0
  8  9  2  0  0  0  0
  8  7  1  0  0  0  0
  9 23  1  0  0  0  0
 11  3  1  0  0  0  0
 12  5  1  0  0  0  0
 14 15  2  0  0  0  0
 14 19  1  0  0  0  0
 15 16  1  0  0  0  0
 16 22  1  0  0  0  0
 16 17  2  0  0  0  0
 18 17  1  0  0  0  0
 18  2  1  0  0  0  0
 19 18  2  0  0  0  0
 20 14  1  0  0  0  0
 21 15  1  0  0  0  0
 23 31  1  0  0  0  0
 24 23  1  0  0  0  0
 24 26  1  0  0  0  0
 25 24  1  0  0  0  0
 26 28  1  0  0  0  0
 26 27  1  0  0  0  0
 28 30  1  0  0  0  0
 29 28  1  0  0  0  0
 31 30  1  0  0  0  0
M  END
>  <minimizedAffinity>
-5.16407347

$$$$

 OpenBabel03252506533D

 31 34  0  0  0  0  0  0  0  0999 V2000
   39.4740   29.8290   40.2200 C   0  0  0  0  0  0  0  0  0  0  0  0
   38.2450   29.6670   40.8260 C   0  0  0  0  0  0  0  0  0  0  0  0
   37.3310   30.6960   40.9550 C   0  0  0  0  0  0  0  0  0  0  0  0
   37.6320   31.9620   40.4610 C   0  0  0  0  0  0  0  0  0  0  0  0
   37.0060   33.1680   40.4090 N   0  0  0  0  0  0  0  0  0  0  0  0
   37.8380   34.0480   39.7820 C   0  0  0  0  0  0  0  0  0  0  0  0
   38.9660   33.3720   39.4570 N   0  0  0  0  0  0  0  0  0  0  0  0
   38.8610   32.0960   39.8630 C   0  0  0  0  0  0  0  0  0  0  0  0
   39.7910   31.0940   39.7200 C   0  0  0  0  0  0  0  0  0  0  0  0
   40.2000   29.0330   40.1120 H   0  0  0  0  0  0  0  0  0  0  0  0
   36.3780   30.5510   41.4300 H   0  0  0  0  0  0  0  0  0  0  0  0
   36.0500   33.3440   40.7960 H   0  0  0  0  0  0  0  0  0  0  0  0
   37.5980   35.1060   39.5950 H   0  0  0  0  0  0  0  0  0  0  0  0
   37.8710   26.0260   41.2410 C   0  0  0  0  0  0  0  0  0  0  0  0
   37.1350   25.9240   42.4200 C   0  0  0  0  0  0  0  0  0  0  0  0
   36.7670   27.1100   43.0720 C   0  0  0  0  0  0  0  0  0  0  0  0
   37.1600   28.2940   42.5000 N   0  0  0  0  0  0  0  0  0  0  0  0
   37.8700   28.3650   41.3620 C   0  0  0  0  0  0  0  0  0  0  0  0
   38.2130   27.2310   40.7530 N   0  0  0  0  0  0  0  0  0  0  0  0
   38.1200   25.0960   40.7920 H   0  0  0  0  0  0  0  0  0  0  0  0
   36.7960   25.0300   42.9180 H   0  0  0  0  0  0  0  0  0  0  0  0
   36.1960   27.1860   43.9950 H   0  0  0  0  0  0  0  0  0  0  0  0
   41.0520   31.2930   39.0890 N   0  0  0  0  0  0  0  0  0  0  0  0
   42.1300   31.6610   39.9870 C   0  0  0  0  0  3  0  0  0  0  0  0
   41.8550   32.5650   40.5630 H   0  0  0  0  0  0  0  0  0  0  0  0
   43.4320   31.8180   39.2340 C   0  0  0  0  0  3  0  0  0  0  0  0
   43.9080   30.8410   39.1300 H   0  0  0  0  0  0  0  0  0  0  0  0
   43.2320   32.3600   37.9110 N   0  0  0  0  0  0  0  0  0  0  0  0
   43.0960   33.3760   37.8660 H   0  0  0  0  0  0  0  0  0  0  0  0
   42.4120   31.5610   37.0600 C   0  0  0  0  0  2  0  0  0  0  0  0
   41.1150   31.1090   37.6520 C   0  0  0  0  0  2  0  0  0  0  0  0
  1  2  1  0  0  0  0
  2  3  2  0  0  0  0
  2 18  1  0  0  0  0
  3 11  1  0  0  0  0
  4  3  1  0  0  0  0
  5  4  1  0  0  0  0
  5 12  1  0  0  0  0
  6  5  1  0  0  0  0
  7  6  2  0  0  0  0
  7  8  1  0  0  0  0
  8  4  2  0  0  0  0
  9  8  1  0  0  0  0
  9  1  2  0  0  0  0
 10  1  1  0  0  0  0
 13  6  1  0  0  0  0
 14 15  1  0  0  0  0
 15 21  1  0  0  0  0
 15 16  2  0  0  0  0
 16 22  1  0  0  0  0
 17 16  1  0  0  0  0
 18 17  2  0  0  0  0
 19 14  2  0  0  0  0
 19 18  1  0  0  0  0
 20 14  1  0  0  0  0
 23  9  1  0  0  0  0
 23 24  1  0  0  0  0
 24 25  1  0  0  0  0
 26 24  1  0  0  0  0
 27 26  1  0  0  0  0
 28 26  1  0  0  0  0
 29 28  1  0  0  0  0
 30 31  1  0  0  0  0
 30 28  1  0  0  0  0
 31 23  1  0  0  0  0
M  END
>  <minimizedAffinity>
-5.13224888

$$$$

 OpenBabel03252506533D

 31 34  0  0  0  0  0  0  0  0999 V2000
   37.2910   29.8760   39.3270 C   0  0  0  0  0  0  0  0  0  0  0  0
   36.1010   29.1790   39.3970 C   0  0  0  0  0  0  0  0  0  0  0  0
   35.6740   28.5410   40.5470 C   0  0  0  0  0  0  0  0  0  0  0  0
   36.4510   28.5850   41.7000 C   0  0  0  0  0  0  0  0  0  0  0  0
   36.3570   28.0960   42.9650 N   0  0  0  0  0  0  0  0  0  0  0  0
   37.4680   28.4880   43.6520 C   0  0  0  0  0  0  0  0  0  0  0  0
   38.2320   29.2140   42.8010 N   0  0  0  0  0  0  0  0  0  0  0  0
   37.6290   29.2850   41.6020 C   0  0  0  0  0  0  0  0  0  0  0  0
   38.0830   29.9290   40.4760 C   0  0  0  0  0  0  0  0  0  0  0  0
   37.6390   30.3810   38.4340 H   0  0  0  0  0  0  0  0  0  0  0  0
   34.7440   28.0020   40.5830 H   0  0  0  0  0  0  0  0  0  0  0  0
   35.5520   27.5220   43.3080 H   0  0  0  0  0  0  0  0  0  0  0  0
   37.6680   28.2390   44.7060 H   0  0  0  0  0  0  0  0  0  0  0  0
   33.1280   28.8180   37.2520 C   0  0  0  0  0  0  0  0  0  0  0  0
   33.6560   28.9480   35.9700 C   0  0  0  0  0  0  0  0  0  0  0  0
   35.0370   29.1580   35.8420 C   0  0  0  0  0  0  0  0  0  0  0  0
   35.7760   29.2230   36.9990 N   0  0  0  0  0  0  0  0  0  0  0  0
   35.2420   29.0960   38.2240 C   0  0  0  0  0  0  0  0  0  0  0  0
   33.9280   28.8970   38.3300 N   0  0  0  0  0  0  0  0  0  0  0  0
   32.0790   28.6610   37.2860 H   0  0  0  0  0  0  0  0  0  0  0  0
   33.1350   28.9060   35.0270 H   0  0  0  0  0  0  0  0  0  0  0  0
   35.5880   29.2770   34.9120 H   0  0  0  0  0  0  0  0  0  0  0  0
   39.3140   30.6410   40.4350 N   0  0  0  0  0  0  0  0  0  0  0  0
   39.2180   32.0440   40.7930 C   0  0  0  0  0  3  0  0  0  0  0  0
   38.4720   32.5520   40.1510 H   0  0  0  0  0  0  0  0  0  0  0  0
   40.5770   32.7080   40.7520 C   0  0  0  0  0  3  0  0  0  0  0  0
   41.0860   32.5430   41.7040 H   0  0  0  0  0  0  0  0  0  0  0  0
   41.4100   32.1750   39.7010 N   0  0  0  0  0  0  0  0  0  0  0  0
   41.2170   32.5350   38.7600 H   0  0  0  0  0  0  0  0  0  0  0  0
   41.6880   30.7800   39.8140 C   0  0  0  0  0  2  0  0  0  0  0  0
   40.5000   29.9020   40.0490 C   0  0  0  0  0  2  0  0  0  0  0  0
  1  2  2  0  0  0  0
  1  9  1  0  0  0  0
  2  3  1  0  0  0  0
  3 11  1  0  0  0  0
  3  4  2  0  0  0  0
  4  5  1  0  0  0  0
  5 12  1  0  0  0  0
  5  6  1  0  0  0  0
  6 13  1  0  0  0  0
  7  6  2  0  0  0  0
  8  4  1  0  0  0  0
  8  7  1  0  0  0  0
  9  8  2  0  0  0  0
 10  1  1  0  0  0  0
 14 20  1  0  0  0  0
 14 19  1  0  0  0  0
 15 14  2  0  0  0  0
 16 15  1  0  0  0  0
 16 17  2  0  0  0  0
 17 18  1  0  0  0  0
 18 19  2  0  0  0  0
 18  2  1  0  0  0  0
 21 15  1  0  0  0  0
 22 16  1  0  0  0  0
 23  9  1  0  0  0  0
 23 24  1  0  0  0  0
 25 24  1  0  0  0  0
 26 24  1  0  0  0  0
 26 27  1  0  0  0  0
 28 30  1  0  0  0  0
 28 26  1  0  0  0  0
 29 28  1  0  0  0  0
 30 31  1  0  0  0  0
 31 23  1  0  0  0  0
M  END
>  <minimizedAffinity>
-4.96492386

$$$$

 OpenBabel03252506533D

 31 34  0  0  0  0  0  0  0  0999 V2000
   39.9350   30.0100   39.0500 C   0  0  0  0  0  0  0  0  0  0  0  0
   40.6970   30.8260   38.2370 C   0  0  0  0  0  0  0  0  0  0  0  0
   40.6100   32.2050   38.2670 C   0  0  0  0  0  0  0  0  0  0  0  0
   39.7280   32.8300   39.1430 C   0  0  0  0  0  0  0  0  0  0  0  0
   39.3840   34.1110   39.4390 N   0  0  0  0  0  0  0  0  0  0  0  0
   38.4310   34.0780   40.4150 C   0  0  0  0  0  0  0  0  0  0  0  0
   38.2000   32.7750   40.7060 N   0  0  0  0  0  0  0  0  0  0  0  0
   38.9820   31.9960   39.9400 C   0  0  0  0  0  0  0  0  0  0  0  0
   39.0440   30.6230   39.9350 C   0  0  0  0  0  0  0  0  0  0  0  0
   39.9920   28.9290   39.0390 H   0  0  0  0  0  0  0  0  0  0  0  0
   41.2120   32.8240   37.6260 H   0  0  0  0  0  0  0  0  0  0  0  0
   39.8040   34.9490   38.9740 H   0  0  0  0  0  0  0  0  0  0  0  0
   37.9610   34.9700   40.8570 H   0  0  0  0  0  0  0  0  0  0  0  0
   43.3770   30.4370   35.7410 C   0  0  0  0  0  0  0  0  0  0  0  0
   43.4080   29.0590   35.5340 C   0  0  0  0  0  0  0  0  0  0  0  0
   42.5040   28.2630   36.2530 C   0  0  0  0  0  0  0  0  0  0  0  0
   41.6480   28.9020   37.1170 N   0  0  0  0  0  0  0  0  0  0  0  0
   41.6400   30.2320   37.2990 C   0  0  0  0  0  0  0  0  0  0  0  0
   42.5040   30.9760   36.6090 N   0  0  0  0  0  0  0  0  0  0  0  0
   44.0830   30.9860   35.1690 H   0  0  0  0  0  0  0  0  0  0  0  0
   44.0500   28.4990   34.8730 H   0  0  0  0  0  0  0  0  0  0  0  0
   42.4110   27.1810   36.1950 H   0  0  0  0  0  0  0  0  0  0  0  0
   38.2460   29.8090   40.7860 N   0  0  0  0  0  0  0  0  0  0  0  0
   37.0090   29.3370   40.1910 C   0  0  0  0  0  3  0  0  0  0  0  0
   36.4100   30.1930   39.8250 H   0  0  0  0  0  0  0  0  0  0  0  0
   36.2460   28.4560   41.1560 C   0  0  0  0  0  3  0  0  0  0  0  0
   36.6220   27.4340   41.0830 H   0  0  0  0  0  0  0  0  0  0  0  0
   36.3950   28.8920   42.5240 N   0  0  0  0  0  0  0  0  0  0  0  0
   35.8080   29.6870   42.8000 H   0  0  0  0  0  0  0  0  0  0  0  0
   37.7380   28.8830   43.0060 C   0  0  0  0  0  2  0  0  0  0  0  0
   38.7450   29.5470   42.1220 C   0  0  0  0  0  2  0  0  0  0  0  0
  1  9  1  0  0  0  0
  2  3  1  0  0  0  0
  2  1  2  0  0  0  0
  3  4  2  0  0  0  0
  4  5  1  0  0  0  0
  4  8  1  0  0  0  0
  5  6  1  0  0  0  0
  6  7  2  0  0  0  0
  6 13  1  0  0  0  0
  8  7  1  0  0  0  0
  9  8  2  0  0  0  0
  9 23  1  0  0  0  0
 10  1  1  0  0  0  0
 11  3  1  0  0  0  0
 12  5  1  0  0  0  0
 14 19  1  0  0  0  0
 15 14  2  0  0  0  0
 15 16  1  0  0  0  0
 16 17  2  0  0  0  0
 17 18  1  0  0  0  0
 18  2  1  0  0  0  0
 19 18  2  0  0  0  0
 20 14  1  0  0  0  0
 21 15  1  0  0  0  0
 22 16  1  0  0  0  0
 23 31  1  0  0  0  0
 24 23  1  0  0  0  0
 24 26  1  0  0  0  0
 25 24  1  0  0  0  0
 26 28  1  0  0  0  0
 27 26  1  0  0  0  0
 28 29  1  0  0  0  0
 28 30  1  0  0  0  0
 31 30  1  0  0  0  0
M  END
>  <minimizedAffinity>
-4.95299816

$$$$

 OpenBabel03252506533D

 31 34  0  0  0  0  0  0  0  0999 V2000
   38.6180   28.7550   40.7810 C   0  0  0  0  0  0  0  0  0  0  0  0
   38.0470   27.4990   40.8210 C   0  0  0  0  0  0  0  0  0  0  0  0
   36.9500   27.1490   40.0560 C   0  0  0  0  0  0  0  0  0  0  0  0
   36.3730   28.0800   39.1970 C   0  0  0  0  0  0  0  0  0  0  0  0
   35.3300   28.0950   38.3260 N   0  0  0  0  0  0  0  0  0  0  0  0
   35.2660   29.3360   37.7650 C   0  0  0  0  0  0  0  0  0  0  0  0
   36.2720   30.0700   38.2990 N   0  0  0  0  0  0  0  0  0  0  0  0
   36.9610   29.3210   39.1760 C   0  0  0  0  0  0  0  0  0  0  0  0
   38.0500   29.7010   39.9230 C   0  0  0  0  0  0  0  0  0  0  0  0
   39.4770   29.0440   41.3740 H   0  0  0  0  0  0  0  0  0  0  0  0
   36.5190   26.1650   40.1010 H   0  0  0  0  0  0  0  0  0  0  0  0
   34.7080   27.2710   38.1490 H   0  0  0  0  0  0  0  0  0  0  0  0
   34.5170   29.6440   37.0190 H   0  0  0  0  0  0  0  0  0  0  0  0
   39.9070   25.8620   43.5470 C   0  0  0  0  0  0  0  0  0  0  0  0
   39.6370   24.5110   43.3360 C   0  0  0  0  0  0  0  0  0  0  0  0
   38.8160   24.1630   42.2530 C   0  0  0  0  0  0  0  0  0  0  0  0
   38.3320   25.1850   41.4740 N   0  0  0  0  0  0  0  0  0  0  0  0
   38.6050   26.4800   41.7000 C   0  0  0  0  0  0  0  0  0  0  0  0
   39.3870   26.7960   42.7320 N   0  0  0  0  0  0  0  0  0  0  0  0
   40.5330   26.0640   44.3800 H   0  0  0  0  0  0  0  0  0  0  0  0
   39.9860   23.6660   43.9070 H   0  0  0  0  0  0  0  0  0  0  0  0
   38.5210   23.1570   41.9660 H   0  0  0  0  0  0  0  0  0  0  0  0
   38.6170   31.0040   39.8590 N   0  0  0  0  0  0  0  0  0  0  0  0
   38.0460   31.9620   40.7870 C   0  0  0  0  0  3  0  0  0  0  0  0
   36.9490   32.0240   40.6460 H   0  0  0  0  0  0  0  0  0  0  0  0
   38.7300   33.3060   40.6690 C   0  0  0  0  0  3  0  0  0  0  0  0
   39.6300   33.3060   41.2880 H   0  0  0  0  0  0  0  0  0  0  0  0
   39.1210   33.5980   39.3110 N   0  0  0  0  0  0  0  0  0  0  0  0
   38.3710   33.9380   38.6990 H   0  0  0  0  0  0  0  0  0  0  0  0
   40.0430   32.6670   38.7450 C   0  0  0  0  0  2  0  0  0  0  0  0
   39.6770   31.2250   38.8950 C   0  0  0  0  0  2  0  0  0  0  0  0
  1  2  1  0  0  0  0
  1 10  1  0  0  0  0
  2 18  1  0  0  0  0
  3 11  1  0  0  0  0
  3  2  2  0  0  0  0
  4  3  1  0  0  0  0
  5  4  1  0  0  0  0
  6  7  2  0  0  0  0
  6  5  1  0  0  0  0
  7  8  1  0  0  0  0
  8  4  2  0  0  0  0
  8  9  1  0  0  0  0
  9  1  2  0  0  0  0
 12  5  1  0  0  0  0
 13  6  1  0  0  0  0
 14 20  1  0  0  0  0
 15 14  1  0  0  0  0
 15 21  1  0  0  0  0
 16 15  2  0  0  0  0
 17 18  2  0  0  0  0
 17 16  1  0  0  0  0
 18 19  1  0  0  0  0
 19 14  2  0  0  0  0
 22 16  1  0  0  0  0
 23  9  1  0  0  0  0
 23 24  1  0  0  0  0
 25 24  1  0  0  0  0
 26 24  1  0  0  0  0
 26 27  1  0  0  0  0
 28 26  1  0  0  0  0
 29 28  1  0  0  0  0
 30 31  1  0  0  0  0
 30 28  1  0  0  0  0
 31 23  1  0  0  0  0
M  END
>  <minimizedAffinity>
-4.90505123

$$$$

 OpenBabel03252506533D

 31 34  0  0  0  0  0  0  0  0999 V2000
   36.7020   29.7780   37.7480 C   0  0  0  0  0  0  0  0  0  0  0  0
   35.4610   29.3480   38.1730 C   0  0  0  0  0  0  0  0  0  0  0  0
   35.1630   29.1190   39.5030 C   0  0  0  0  0  0  0  0  0  0  0  0
   36.1320   29.3230   40.4810 C   0  0  0  0  0  0  0  0  0  0  0  0
   36.1990   29.2060   41.8340 N   0  0  0  0  0  0  0  0  0  0  0  0
   37.4560   29.5580   42.2260 C   0  0  0  0  0  0  0  0  0  0  0  0
   38.1480   29.8880   41.1090 N   0  0  0  0  0  0  0  0  0  0  0  0
   37.3570   29.7500   40.0310 C   0  0  0  0  0  0  0  0  0  0  0  0
   37.6860   29.9870   38.7180 C   0  0  0  0  0  0  0  0  0  0  0  0
   36.9510   29.9620   36.7100 H   0  0  0  0  0  0  0  0  0  0  0  0
   34.1900   28.7840   39.8160 H   0  0  0  0  0  0  0  0  0  0  0  0
   35.3980   28.8950   42.4310 H   0  0  0  0  0  0  0  0  0  0  0  0
   37.8050   29.5610   43.2710 H   0  0  0  0  0  0  0  0  0  0  0  0
   32.1380   28.8680   36.6590 C   0  0  0  0  0  0  0  0  0  0  0  0
   32.4380   28.6780   35.3120 C   0  0  0  0  0  0  0  0  0  0  0  0
   33.7850   28.7130   34.9240 C   0  0  0  0  0  0  0  0  0  0  0  0
   34.7190   28.9360   35.9060 N   0  0  0  0  0  0  0  0  0  0  0  0
   34.4040   29.1180   37.1980 C   0  0  0  0  0  0  0  0  0  0  0  0
   33.1200   29.0810   37.5520 N   0  0  0  0  0  0  0  0  0  0  0  0
   31.1030   28.8300   36.8920 H   0  0  0  0  0  0  0  0  0  0  0  0
   31.7550   28.4990   34.4960 H   0  0  0  0  0  0  0  0  0  0  0  0
   34.1690   28.5820   33.9150 H   0  0  0  0  0  0  0  0  0  0  0  0
   38.9750   30.4310   38.3110 N   0  0  0  0  0  0  0  0  0  0  0  0
   39.1070   31.8690   38.1720 C   0  0  0  0  0  3  0  0  0  0  0  0
   38.3410   32.2580   37.4730 H   0  0  0  0  0  0  0  0  0  0  0  0
   40.5150   32.2480   37.7690 C   0  0  0  0  0  3  0  0  0  0  0  0
   41.1380   32.3190   38.6630 H   0  0  0  0  0  0  0  0  0  0  0  0
   41.1090   31.2710   36.8870 N   0  0  0  0  0  0  0  0  0  0  0  0
   40.8220   31.3320   35.9040 H   0  0  0  0  0  0  0  0  0  0  0  0
   41.2270   29.9630   37.4450 C   0  0  0  0  0  2  0  0  0  0  0  0
   39.9900   29.4200   38.0860 C   0  0  0  0  0  2  0  0  0  0  0  0
  1  2  2  0  0  0  0
  1  9  1  0  0  0  0
  2  3  1  0  0  0  0
  3 11  1  0  0  0  0
  3  4  2  0  0  0  0
  4  5  1  0  0  0  0
  5  6  1  0  0  0  0
  5 12  1  0  0  0  0
  6 13  1  0  0  0  0
  7  6  2  0  0  0  0
  8  4  1  0  0  0  0
  8  7  1  0  0  0  0
  9  8  2  0  0  0  0
 10  1  1  0  0  0  0
 14 20  1  0  0  0  0
 14 19  1  0  0  0  0
 15 14  2  0  0  0  0
 16 15  1  0  0  0  0
 16 17  2  0  0  0  0
 17 18  1  0  0  0  0
 18 19  2  0  0  0  0
 18  2  1  0  0  0  0
 21 15  1  0  0  0  0
 22 16  1  0  0  0  0
 23  9  1  0  0  0  0
 24 23  1  0  0  0  0
 25 24  1  0  0  0  0
 26 24  1  0  0  0  0
 26 27  1  0  0  0  0
 28 30  1  0  0  0  0
 28 26  1  0  0  0  0
 29 28  1  0  0  0  0
 30 31  1  0  0  0  0
 31 23  1  0  0  0  0
M  END
>  <minimizedAffinity>
-4.87044287

$$$$

 OpenBabel03252506533D

 31 34  0  0  0  0  0  0  0  0999 V2000
   37.8380   29.8860   39.6440 C   0  0  0  0  0  0  0  0  0  0  0  0
   38.5620   30.6580   40.5300 C   0  0  0  0  0  0  0  0  0  0  0  0
   38.5330   30.4540   41.8970 C   0  0  0  0  0  0  0  0  0  0  0  0
   37.7520   29.4350   42.4350 C   0  0  0  0  0  0  0  0  0  0  0  0
   37.4860   28.9570   43.6790 N   0  0  0  0  0  0  0  0  0  0  0  0
   36.6180   27.9130   43.5530 C   0  0  0  0  0  0  0  0  0  0  0  0
   36.3600   27.7620   42.2320 N   0  0  0  0  0  0  0  0  0  0  0  0
   37.0430   28.6830   41.5310 C   0  0  0  0  0  0  0  0  0  0  0  0
   37.0500   28.8580   40.1680 C   0  0  0  0  0  0  0  0  0  0  0  0
   37.8510   30.0320   38.5710 H   0  0  0  0  0  0  0  0  0  0  0  0
   39.1030   31.0660   42.5730 H   0  0  0  0  0  0  0  0  0  0  0  0
   37.8990   29.3530   44.5550 H   0  0  0  0  0  0  0  0  0  0  0  0
   36.2220   27.3270   44.3980 H   0  0  0  0  0  0  0  0  0  0  0  0
   40.4460   33.8160   40.3170 C   0  0  0  0  0  0  0  0  0  0  0  0
   40.9910   33.7630   39.0350 C   0  0  0  0  0  0  0  0  0  0  0  0
   40.7090   32.6400   38.2440 C   0  0  0  0  0  0  0  0  0  0  0  0
   39.9110   31.6650   38.7910 N   0  0  0  0  0  0  0  0  0  0  0  0
   39.3990   31.7400   40.0300 C   0  0  0  0  0  0  0  0  0  0  0  0
   39.6750   32.8120   40.7710 N   0  0  0  0  0  0  0  0  0  0  0  0
   40.6930   34.6880   40.8680 H   0  0  0  0  0  0  0  0  0  0  0  0
   41.6200   34.4910   38.5490 H   0  0  0  0  0  0  0  0  0  0  0  0
   41.0620   32.4610   37.2310 H   0  0  0  0  0  0  0  0  0  0  0  0
   36.2930   28.0450   39.2790 N   0  0  0  0  0  0  0  0  0  0  0  0
   36.8770   26.7470   38.9960 C   0  0  0  0  0  3  0  0  0  0  0  0
   37.9070   26.8680   38.6050 H   0  0  0  0  0  0  0  0  0  0  0  0
   35.9900   25.9440   38.0710 C   0  0  0  0  0  3  0  0  0  0  0  0
   35.2310   25.4270   38.6610 H   0  0  0  0  0  0  0  0  0  0  0  0
   35.3150   26.7780   37.1060 N   0  0  0  0  0  0  0  0  0  0  0  0
   35.8790   27.0650   36.2980 H   0  0  0  0  0  0  0  0  0  0  0  0
   34.4530   27.7640   37.6740 C   0  0  0  0  0  2  0  0  0  0  0  0
   35.0520   28.5910   38.7670 C   0  0  0  0  0  2  0  0  0  0  0  0
  1  9  2  0  0  0  0
  1  2  1  0  0  0  0
  2  3  2  0  0  0  0
  3  4  1  0  0  0  0
  3 11  1  0  0  0  0
  4  5  1  0  0  0  0
  5 12  1  0  0  0  0
  6  5  1  0  0  0  0
  6 13  1  0  0  0  0
  7  6  2  0  0  0  0
  8  7  1  0  0  0  0
  8  4  2  0  0  0  0
  9  8  1  0  0  0  0
 10  1  1  0  0  0  0
 14 19  1  0  0  0  0
 14 20  1  0  0  0  0
 15 14  2  0  0  0  0
 16 17  2  0  0  0  0
 16 15  1  0  0  0  0
 17 18  1  0  0  0  0
 18  2  1  0  0  0  0
 18 19  2  0  0  0  0
 21 15  1  0  0  0  0
 22 16  1  0  0  0  0
 23  9  1  0  0  0  0
 24 23  1  0  0  0  0
 25 24  1  0  0  0  0
 26 27  1  0  0  0  0
 26 24  1  0  0  0  0
 28 30  1  0  0  0  0
 28 26  1  0  0  0  0
 29 28  1  0  0  0  0
 30 31  1  0  0  0  0
 31 23  1  0  0  0  0
M  END
>  <minimizedAffinity>
-4.85850334

$$$$
