
 OpenBabel03252507223D

 47 50  0  0  1  0  0  0  0  0999 V2000
   47.1120   32.8030   43.3120 C   0  0  0  0  0  0  0  0  0  0  0  0
   48.2600   32.7030   43.8180 O   0  0  0  0  0  0  0  0  0  0  0  0
   46.6160   31.9350   42.3080 N   0  0  0  0  0  0  0  0  0  0  0  0
   45.3070   31.2790   42.1730 C   0  0  0  0  0  0  0  0  0  0  0  0
   44.7350   31.5460   40.7940 C   0  0  0  0  0  0  0  0  0  0  0  0
   45.6040   30.9400   39.7390 C   0  0  0  0  0  0  0  0  0  0  0  0
   46.9210   30.5450   40.3460 C   0  0  0  0  0  0  0  0  0  0  0  0
   47.5050   31.6060   41.2250 C   0  0  2  0  0  0  0  0  0  0  0  0
   45.4530   30.1950   42.3130 H   0  0  0  0  0  0  0  0  0  0  0  0
   44.5620   31.7000   42.8850 H   0  0  0  0  0  0  0  0  0  0  0  0
   44.5530   32.6320   40.6680 H   0  0  0  0  0  0  0  0  0  0  0  0
   43.7380   31.0250   40.7950 H   0  0  0  0  0  0  0  0  0  0  0  0
   45.1190   30.0330   39.3140 H   0  0  0  0  0  0  0  0  0  0  0  0
   45.7440   31.6470   38.8960 H   0  0  0  0  0  0  0  0  0  0  0  0
   46.8300   29.5710   40.8440 H   0  0  0  0  0  0  0  0  0  0  0  0
   47.6260   30.4120   39.4760 H   0  0  0  0  0  0  0  0  0  0  0  0
   47.4910   32.5280   40.5720 H   0  0  0  0  0  0  0  0  0  0  0  0
   45.9470   34.9180   42.8940 C   0  0  0  0  0  0  0  0  0  0  0  0
   46.2650   33.8590   43.7890 C   0  0  0  0  0  0  0  0  0  0  0  0
   45.7490   33.8850   45.0710 C   0  0  0  0  0  0  0  0  0  0  0  0
   44.9620   34.9220   45.4240 N   0  0  0  0  0  0  0  0  0  0  0  0
   44.6520   35.9360   44.5830 C   0  0  0  0  0  0  0  0  0  0  0  0
   45.1520   35.9130   43.3300 N   0  0  0  0  0  0  0  0  0  0  0  0
   46.3570   34.8860   41.8870 H   0  0  0  0  0  0  0  0  0  0  0  0
   44.0230   36.7420   44.9000 H   0  0  0  0  0  0  0  0  0  0  0  0
   46.0900   32.7920   45.9700 C   0  0  0  0  0  0  0  0  0  0  0  0
   45.5130   31.5760   45.8150 C   0  0  0  0  0  0  0  0  0  0  0  0
   45.8570   30.5560   46.6810 C   0  0  0  0  0  0  0  0  0  0  0  0
   46.7830   30.7310   47.7180 C   0  0  0  0  0  0  0  0  0  0  0  0
   47.3430   32.0020   47.8280 C   0  0  0  0  0  0  0  0  0  0  0  0
   46.9840   32.9660   46.9680 N   0  0  0  0  0  0  0  0  0  0  0  0
   44.7990   31.3260   45.0660 H   0  0  0  0  0  0  0  0  0  0  0  0
   45.4380   29.5640   46.6170 H   0  0  0  0  0  0  0  0  0  0  0  0
   47.0730   29.9700   48.4050 H   0  0  0  0  0  0  0  0  0  0  0  0
   48.0640   32.2100   48.6040 H   0  0  0  0  0  0  0  0  0  0  0  0
   48.8760   31.2160   41.6380 C   0  0  0  0  0  0  0  0  0  0  0  0
   49.1190   31.3050   42.7130 H   0  0  0  0  0  0  0  0  0  0  0  0
   49.0230   30.1380   41.4360 H   0  0  0  0  0  0  0  0  0  0  0  0
   49.9260   31.8090   40.8470 N   0  0  0  0  0  0  0  0  0  0  0  0
   51.2440   31.6770   41.2020 C   0  0  0  0  0  0  0  0  0  0  0  0
   51.4310   30.6770   41.6820 H   0  0  0  0  0  0  0  0  0  0  0  0
   52.0900   31.6160   39.9370 C   0  0  0  0  0  0  0  0  0  0  0  0
   53.1360   31.3310   40.2050 H   0  0  0  0  0  0  0  0  0  0  0  0
   51.6370   30.6440   38.9900 N   0  0  0  0  0  0  0  0  0  0  0  0
   51.8140   29.6580   39.2310 H   0  0  0  0  0  0  0  0  0  0  0  0
   50.2460   30.8440   38.6260 C   0  0  0  0  0  0  0  0  0  0  0  0
   49.6050   31.9300   39.4610 C   0  0  0  0  0  0  0  0  0  0  0  0
  1 19  1  0  0  0  0
  1  2  2  0  0  0  0
  3  1  1  0  0  0  0
  4  3  1  0  0  0  0
  4  9  1  0  0  0  0
  4 10  1  0  0  0  0
  5 12  1  0  0  0  0
  5  4  1  0  0  0  0
  6  7  1  0  0  0  0
  6  5  1  0  0  0  0
  7 15  1  0  0  0  0
  7  8  1  0  0  0  0
  8 17  1  6  0  0  0
  8 36  1  0  0  0  0
  8  3  1  0  0  0  0
 11  5  1  0  0  0  0
 13  6  1  0  0  0  0
 14  6  1  0  0  0  0
 16  7  1  0  0  0  0
 18 23  2  0  0  0  0
 18 19  1  0  0  0  0
 19 20  2  0  0  0  0
 20 21  1  0  0  0  0
 20 26  1  0  0  0  0
 22 25  1  0  0  0  0
 22 21  2  0  0  0  0
 23 22  1  0  0  0  0
 24 18  1  0  0  0  0
 26 31  1  0  0  0  0
 27 26  2  0  0  0  0
 27 28  1  0  0  0  0
 28 29  2  0  0  0  0
 29 30  1  0  0  0  0
 29 34  1  0  0  0  0
 30 35  1  0  0  0  0
 31 30  2  0  0  0  0
 32 27  1  0  0  0  0
 33 28  1  0  0  0  0
 36 37  1  0  0  0  0
 38 36  1  0  0  0  0
 39 40  1  0  0  0  0
 39 36  1  0  0  0  0
 40 41  1  0  0  0  0
 42 43  1  0  0  0  0
 42 40  1  0  0  0  0
 44 45  1  0  0  0  0
 44 42  1  0  0  0  0
 46 44  1  0  0  0  0
 46 47  1  0  0  0  0
 47 39  1  0  0  0  0
M  END
>  <minimizedAffinity>
-4.76747227

>  <minimizedRMSD>
1.35054994

$$$$
