
 OpenBabel03252506503D

 31 34  0  0  0  0  0  0  0  0999 V2000
   47.2550   31.3770   45.1290 C   0  0  0  0  0  0  0  0  0  0  0  0
   46.8840   32.7070   45.1170 C   0  0  0  0  0  0  0  0  0  0  0  0
   46.2590   33.3200   46.1870 C   0  0  0  0  0  0  0  0  0  0  0  0
   45.9800   32.5950   47.3420 C   0  0  0  0  0  0  0  0  0  0  0  0
   45.4010   32.8510   48.5440 N   0  0  0  0  0  0  0  0  0  0  0  0
   45.4200   31.7010   49.2760 C   0  0  0  0  0  0  0  0  0  0  0  0
   46.0110   30.7500   48.5130 N   0  0  0  0  0  0  0  0  0  0  0  0
   46.3600   31.2750   47.3270 C   0  0  0  0  0  0  0  0  0  0  0  0
   46.9820   30.6360   46.2810 C   0  0  0  0  0  0  0  0  0  0  0  0
   47.7450   30.8830   44.3000 H   0  0  0  0  0  0  0  0  0  0  0  0
   45.9770   34.3570   46.1600 H   0  0  0  0  0  0  0  0  0  0  0  0
   45.0200   33.7870   48.8190 H   0  0  0  0  0  0  0  0  0  0  0  0
   45.0180   31.6050   50.2970 H   0  0  0  0  0  0  0  0  0  0  0  0
   46.5200   35.1930   42.4240 C   0  0  0  0  0  0  0  0  0  0  0  0
   47.6990   35.0360   41.6990 C   0  0  0  0  0  0  0  0  0  0  0  0
   48.6200   34.0730   42.1360 C   0  0  0  0  0  0  0  0  0  0  0  0
   48.2930   33.3490   43.2560 N   0  0  0  0  0  0  0  0  0  0  0  0
   47.1490   33.5200   43.9380 C   0  0  0  0  0  0  0  0  0  0  0  0
   46.2830   34.4390   43.5110 N   0  0  0  0  0  0  0  0  0  0  0  0
   45.8620   35.9350   42.0450 H   0  0  0  0  0  0  0  0  0  0  0  0
   48.0140   35.5690   40.8160 H   0  0  0  0  0  0  0  0  0  0  0  0
   49.5770   33.8400   41.6740 H   0  0  0  0  0  0  0  0  0  0  0  0
   47.3540   29.2630   46.3240 N   0  0  0  0  0  0  0  0  0  0  0  0
   48.7070   29.0130   46.7840 C   0  0  0  0  0  3  0  0  0  0  0  0
   49.4320   29.5760   46.1640 H   0  0  0  0  0  0  0  0  0  0  0  0
   48.9990   27.5280   46.8270 C   0  0  0  0  0  3  0  0  0  0  0  0
   48.6460   27.1210   47.7760 H   0  0  0  0  0  0  0  0  0  0  0  0
   48.3410   26.8150   45.7600 N   0  0  0  0  0  0  0  0  0  0  0  0
   48.8000   26.8690   44.8430 H   0  0  0  0  0  0  0  0  0  0  0  0
   46.9170   26.9070   45.7740 C   0  0  0  0  0  2  0  0  0  0  0  0
   46.3610   28.2880   45.9120 C   0  0  0  0  0  2  0  0  0  0  0  0
  1  9  1  0  0  0  0
  2  1  2  0  0  0  0
  2  3  1  0  0  0  0
  3  4  2  0  0  0  0
  4  5  1  0  0  0  0
  5 12  1  0  0  0  0
  5  6  1  0  0  0  0
  6 13  1  0  0  0  0
  7  6  2  0  0  0  0
  8  4  1  0  0  0  0
  8  7  1  0  0  0  0
  9 23  1  0  0  0  0
  9  8  2  0  0  0  0
 10  1  1  0  0  0  0
 11  3  1  0  0  0  0
 14 19  1  0  0  0  0
 15 16  1  0  0  0  0
 15 14  2  0  0  0  0
 16 17  2  0  0  0  0
 17 18  1  0  0  0  0
 18  2  1  0  0  0  0
 19 18  2  0  0  0  0
 20 14  1  0  0  0  0
 21 15  1  0  0  0  0
 22 16  1  0  0  0  0
 23 24  1  0  0  0  0
 24 26  1  0  0  0  0
 25 24  1  0  0  0  0
 26 27  1  0  0  0  0
 28 30  1  0  0  0  0
 28 26  1  0  0  0  0
 29 28  1  0  0  0  0
 30 31  1  0  0  0  0
 31 23  1  0  0  0  0
M  END
>  <minimizedAffinity>
-5.16126108

>  <minimizedRMSD>
0.798466206

$$$$
