
 OpenBabel03242512463D

 30 32  0  0  1  0  0  0  0  0999 V2000
   47.2510   34.6690   42.3130 N   0  0  0  0  0  0  0  0  0  0  0  0
   48.6910   34.6510   42.3180 C   0  0  0  0  0  0  0  0  0  0  0  0
   48.9460   35.5240   41.1170 C   0  0  0  0  0  0  0  0  0  0  0  0
   48.0970   34.7710   40.1160 C   0  0  0  0  0  0  0  0  0  0  0  0
   46.8670   34.4500   40.9460 C   0  0  1  0  0  0  0  0  0  0  0  0
   49.1280   33.6490   42.1550 H   0  0  0  0  0  0  0  0  0  0  0  0
   49.1060   35.1470   43.2280 H   0  0  0  0  0  0  0  0  0  0  0  0
   48.6040   36.5500   41.2930 H   0  0  0  0  0  0  0  0  0  0  0  0
   50.0320   35.4860   40.8070 H   0  0  0  0  0  0  0  0  0  0  0  0
   47.8640   35.3600   39.2210 H   0  0  0  0  0  0  0  0  0  0  0  0
   48.6430   33.8220   39.9170 H   0  0  0  0  0  0  0  0  0  0  0  0
   46.0880   35.1750   40.6620 H   0  0  0  0  0  0  0  0  0  0  0  0
   44.5030   35.9430   44.4630 C   0  0  0  0  0  0  0  0  0  0  0  0
   45.3680   35.8660   43.3750 C   0  0  0  0  0  0  0  0  0  0  0  0
   46.3270   34.8510   43.3550 C   0  0  0  0  0  0  0  0  0  0  0  0
   46.3430   34.0050   44.4150 N   0  0  0  0  0  0  0  0  0  0  0  0
   45.5080   34.0790   45.4670 C   0  0  0  0  0  0  0  0  0  0  0  0
   44.5760   35.0630   45.4890 N   0  0  0  0  0  0  0  0  0  0  0  0
   43.7630   36.7310   44.4720 H   0  0  0  0  0  0  0  0  0  0  0  0
   45.3360   36.5420   42.5560 H   0  0  0  0  0  0  0  0  0  0  0  0
   45.6550   33.3230   46.2320 H   0  0  0  0  0  0  0  0  0  0  0  0
   46.3840   33.1120   40.6990 N   0  0  1  0  0  0  0  0  0  0  0  0
   45.0130   33.0560   40.3540 C   0  0  0  0  0  0  0  0  0  0  0  0
   44.5770   34.0230   40.0280 H   0  0  0  0  0  0  0  0  0  0  0  0
   44.6670   32.0740   39.2710 C   0  0  0  0  0  0  0  0  0  0  0  0
   43.5940   31.8150   39.3940 H   0  0  0  0  0  0  0  0  0  0  0  0
   45.4210   30.8750   39.2490 N   0  0  0  0  0  0  0  0  0  0  0  0
   44.9020   29.9990   39.3820 H   0  0  0  0  0  0  0  0  0  0  0  0
   46.7010   30.9180   39.8980 C   0  0  0  0  0  0  0  0  0  0  0  0
   47.1880   32.3700   39.7940 C   0  0  0  0  0  0  0  0  0  0  0  0
  1  2  1  0  0  0  0
  1 15  1  0  0  0  0
  2  7  1  0  0  0  0
  3  8  1  0  0  0  0
  3  2  1  0  0  0  0
  4  5  1  0  0  0  0
  4  3  1  0  0  0  0
  5 12  1  6  0  0  0
  5  1  1  0  0  0  0
  6  2  1  0  0  0  0
  9  3  1  0  0  0  0
 10  4  1  0  0  0  0
 11  4  1  0  0  0  0
 13 19  1  0  0  0  0
 13 18  1  0  0  0  0
 14 13  2  0  0  0  0
 15 14  1  0  0  0  0
 15 16  2  0  0  0  0
 16 17  1  0  0  0  0
 17 18  2  0  0  0  0
 17 21  1  0  0  0  0
 20 14  1  0  0  0  0
 22 30  1  6  0  0  0
 22  5  1  0  0  0  0
 23 22  1  0  0  0  0
 24 23  1  0  0  0  0
 25 26  1  0  0  0  0
 25 23  1  0  0  0  0
 27 25  1  0  0  0  0
 27 28  1  0  0  0  0
 27 29  1  0  0  0  0
 30 29  1  0  0  0  0
M  END
>  <minimizedAffinity>
-4.68071556

>  <minimizedRMSD>
1.21116745

$$$$
