
 OpenBabel03252507223D

 47 50  0  0  1  0  0  0  0  0999 V2000
   46.8120   32.3160   44.1220 C   0  0  0  0  0  0  0  0  0  0  0  0
   48.0320   32.3280   44.4280 O   0  0  0  0  0  0  0  0  0  0  0  0
   46.1930   31.2680   43.3970 N   0  0  0  0  0  0  0  0  0  0  0  0
   44.9110   30.5820   43.6160 C   0  0  0  0  0  0  0  0  0  0  0  0
   44.1010   30.5760   42.3340 C   0  0  0  0  0  0  0  0  0  0  0  0
   44.8060   29.7920   41.2730 C   0  0  0  0  0  0  0  0  0  0  0  0
   46.2240   29.5350   41.7030 C   0  0  0  0  0  0  0  0  0  0  0  0
   46.8990   30.7500   42.2560 C   0  0  2  0  0  0  0  0  0  0  0  0
   45.1270   29.5460   43.9270 H   0  0  0  0  0  0  0  0  0  0  0  0
   44.2780   31.1210   44.3580 H   0  0  0  0  0  0  0  0  0  0  0  0
   43.8530   31.6160   42.0430 H   0  0  0  0  0  0  0  0  0  0  0  0
   43.1440   30.0520   42.6050 H   0  0  0  0  0  0  0  0  0  0  0  0
   44.2980   28.8140   41.1150 H   0  0  0  0  0  0  0  0  0  0  0  0
   44.7690   30.3270   40.3030 H   0  0  0  0  0  0  0  0  0  0  0  0
   46.2620   28.6720   42.3810 H   0  0  0  0  0  0  0  0  0  0  0  0
   46.7760   29.2480   40.7620 H   0  0  0  0  0  0  0  0  0  0  0  0
   46.7330   31.5320   41.4560 H   0  0  0  0  0  0  0  0  0  0  0  0
   45.6070   34.3710   43.5460 C   0  0  0  0  0  0  0  0  0  0  0  0
   46.0110   33.4330   44.5360 C   0  0  0  0  0  0  0  0  0  0  0  0
   45.6190   33.6280   45.8470 C   0  0  0  0  0  0  0  0  0  0  0  0
   44.8660   34.7090   46.1360 N   0  0  0  0  0  0  0  0  0  0  0  0
   44.4750   35.6100   45.2040 C   0  0  0  0  0  0  0  0  0  0  0  0
   44.8550   35.4220   43.9240 N   0  0  0  0  0  0  0  0  0  0  0  0
   45.9210   34.2060   42.5180 H   0  0  0  0  0  0  0  0  0  0  0  0
   43.8770   36.4560   45.4730 H   0  0  0  0  0  0  0  0  0  0  0  0
   46.0450   32.6560   46.8430 C   0  0  0  0  0  0  0  0  0  0  0  0
   45.2590   31.5930   47.1390 C   0  0  0  0  0  0  0  0  0  0  0  0
   45.6900   30.6850   48.0870 C   0  0  0  0  0  0  0  0  0  0  0  0
   46.9140   30.8210   48.7570 C   0  0  0  0  0  0  0  0  0  0  0  0
   47.6780   31.9330   48.4100 C   0  0  0  0  0  0  0  0  0  0  0  0
   47.2250   32.7920   47.4850 N   0  0  0  0  0  0  0  0  0  0  0  0
   44.3130   31.3860   46.6960 H   0  0  0  0  0  0  0  0  0  0  0  0
   45.1170   29.8160   48.3720 H   0  0  0  0  0  0  0  0  0  0  0  0
   47.2790   30.1420   49.4920 H   0  0  0  0  0  0  0  0  0  0  0  0
   48.6330   32.1030   48.8860 H   0  0  0  0  0  0  0  0  0  0  0  0
   48.3370   30.4630   42.4870 C   0  0  0  0  0  0  0  0  0  0  0  0
   48.7540   30.7580   43.4670 H   0  0  0  0  0  0  0  0  0  0  0  0
   48.4960   29.3680   42.4660 H   0  0  0  0  0  0  0  0  0  0  0  0
   49.2100   30.9060   41.4280 N   0  0  0  0  0  0  0  0  0  0  0  0
   49.9400   32.0620   41.5450 C   0  0  0  0  0  3  0  0  0  0  0  0
   50.2600   32.2250   42.6110 H   0  0  0  0  0  0  0  0  0  0  0  0
   51.2610   31.8830   40.8110 C   0  0  0  0  0  3  0  0  0  0  0  0
   51.9340   32.7430   41.0470 H   0  0  0  0  0  0  0  0  0  0  0  0
   51.9710   30.6990   41.1850 N   0  0  0  0  0  0  0  0  0  0  0  0
   52.4180   30.7120   42.1150 H   0  0  0  0  0  0  0  0  0  0  0  0
   51.1670   29.5030   41.0170 C   0  0  0  0  0  2  0  0  0  0  0  0
   49.7430   29.8430   40.6380 C   0  0  0  0  0  2  0  0  0  0  0  0
  1  2  2  0  0  0  0
  1 19  1  0  0  0  0
  3  4  1  0  0  0  0
  3  1  1  0  0  0  0
  4  9  1  0  0  0  0
  4 10  1  0  0  0  0
  5 12  1  0  0  0  0
  5  4  1  0  0  0  0
  6  7  1  0  0  0  0
  6  5  1  0  0  0  0
  7  8  1  0  0  0  0
  7 15  1  0  0  0  0
  8 17  1  6  0  0  0
  8 36  1  0  0  0  0
  8  3  1  0  0  0  0
 11  5  1  0  0  0  0
 13  6  1  0  0  0  0
 14  6  1  0  0  0  0
 16  7  1  0  0  0  0
 18 23  2  0  0  0  0
 18 19  1  0  0  0  0
 19 20  2  0  0  0  0
 20 21  1  0  0  0  0
 20 26  1  0  0  0  0
 22 25  1  0  0  0  0
 22 21  2  0  0  0  0
 23 22  1  0  0  0  0
 24 18  1  0  0  0  0
 26 27  2  0  0  0  0
 26 31  1  0  0  0  0
 27 28  1  0  0  0  0
 28 33  1  0  0  0  0
 28 29  2  0  0  0  0
 29 34  1  0  0  0  0
 30 29  1  0  0  0  0
 30 35  1  0  0  0  0
 31 30  2  0  0  0  0
 32 27  1  0  0  0  0
 36 37  1  0  0  0  0
 38 36  1  0  0  0  0
 39 40  1  0  0  0  0
 39 36  1  0  0  0  0
 40 41  1  0  0  0  0
 42 43  1  0  0  0  0
 42 44  1  0  0  0  0
 42 40  1  0  0  0  0
 44 45  1  0  0  0  0
 46 44  1  0  0  0  0
 47 46  1  0  0  0  0
 47 39  1  0  0  0  0
M  END
>  <minimizedAffinity>
-4.50974417

>  <minimizedRMSD>
2.49530816

$$$$
