
 OpenBabel03242517423D

 40 43  0  0  0  0  0  0  0  0999 V2000
   36.9440   25.5750   42.3470 C   0  0  0  0  0  0  0  0  0  0  0  0
   37.4180   25.3690   43.3190 H   0  0  0  0  0  0  0  0  0  0  0  0
   35.8360   25.5510   42.5700 H   0  0  0  0  0  0  0  0  0  0  0  0
   37.2120   24.5450   41.3110 C   0  0  0  0  0  0  0  0  0  0  0  0
   36.1510   23.9450   40.6360 C   0  0  0  0  0  0  0  0  0  0  0  0
   36.3990   22.9830   39.6670 C   0  0  0  0  0  0  0  0  0  0  0  0
   37.7150   22.6070   39.3590 C   0  0  0  0  0  0  0  0  0  0  0  0
   38.7720   23.2130   40.0400 C   0  0  0  0  0  0  0  0  0  0  0  0
   38.5000   24.1770   41.0110 C   0  0  0  0  0  0  0  0  0  0  0  0
   35.1670   24.2700   40.9100 H   0  0  0  0  0  0  0  0  0  0  0  0
   35.5430   22.5520   39.1760 H   0  0  0  0  0  0  0  0  0  0  0  0
   37.8740   21.8680   38.6140 H   0  0  0  0  0  0  0  0  0  0  0  0
   39.7500   22.8790   39.7560 H   0  0  0  0  0  0  0  0  0  0  0  0
   39.6840   24.6810   41.6130 N   0  0  0  0  0  0  0  0  0  0  0  0
   40.1620   24.4320   42.9710 C   0  0  0  0  0  3  0  0  0  0  0  0
   40.6090   23.3920   42.9990 H   0  0  0  0  0  0  0  0  0  0  0  0
   41.2560   25.4440   43.2390 C   0  0  0  0  0  3  0  0  0  0  0  0
   41.6020   25.4050   44.2930 H   0  0  0  0  0  0  0  0  0  0  0  0
   42.3550   25.1180   42.3260 N   0  0  0  0  0  0  0  0  0  0  0  0
   42.6700   24.1390   42.5920 H   0  0  0  0  0  0  0  0  0  0  0  0
   41.9250   25.0930   40.9650 C   0  0  0  0  0  2  0  0  0  0  0  0
   40.4990   25.5310   40.7420 C   0  0  0  0  0  2  0  0  0  0  0  0
   38.0610   27.7860   42.4220 C   0  0  0  0  0  3  0  0  0  0  0  0
   37.1950   26.9580   41.8530 C   0  0  0  0  0  3  0  0  0  0  0  0
   39.3290   29.8980   42.5960 C   0  0  0  0  0  0  0  0  0  0  0  0
   38.3260   29.1280   41.9590 C   0  0  0  0  0  0  0  0  0  0  0  0
   37.6510   29.7060   40.9060 C   0  0  0  0  0  0  0  0  0  0  0  0
   37.9700   30.9820   40.5240 N   0  0  0  0  0  0  0  0  0  0  0  0
   38.9260   31.6800   41.1500 C   0  0  0  0  0  0  0  0  0  0  0  0
   39.6150   31.1520   42.1900 N   0  0  0  0  0  0  0  0  0  0  0  0
   39.8870   29.4790   43.4310 H   0  0  0  0  0  0  0  0  0  0  0  0
   36.8780   29.1650   40.3860 H   0  0  0  0  0  0  0  0  0  0  0  0
   39.2750   33.0280   40.7500 C   0  0  0  0  0  0  0  0  0  0  0  0
   38.5120   34.0960   40.5180 C   0  0  0  0  0  0  0  0  0  0  0  0
   39.0630   35.2860   40.1420 C   0  0  0  0  0  0  0  0  0  0  0  0
   40.4870   35.2860   40.0230 C   0  0  0  0  0  0  0  0  0  0  0  0
   40.9480   33.5450   40.4660 S   0  0  0  0  0  0  0  0  0  0  0  0
   37.4370   34.0110   40.6320 H   0  0  0  0  0  0  0  0  0  0  0  0
   38.5640   36.2070   39.9280 H   0  0  0  0  0  0  0  0  0  0  0  0
   41.1300   36.0850   39.7490 H   0  0  0  0  0  0  0  0  0  0  0  0
  1  3  1  0  0  0  0
  1  2  1  0  0  0  0
  4  1  1  0  0  0  0
  5 10  1  0  0  0  0
  5  4  2  0  0  0  0
  6  5  1  0  0  0  0
  7  6  2  0  0  0  0
  7  8  1  0  0  0  0
  8  9  2  0  0  0  0
  9  4  1  0  0  0  0
  9 14  1  0  0  0  0
 11  6  1  0  0  0  0
 12  7  1  0  0  0  0
 13  8  1  0  0  0  0
 14 15  1  0  0  0  0
 15 16  1  0  0  0  0
 15 17  1  0  0  0  0
 17 18  1  0  0  0  0
 19 20  1  0  0  0  0
 19 17  1  0  0  0  0
 21 19  1  0  0  0  0
 22 21  1  0  0  0  0
 22 14  1  0  0  0  0
 24  1  1  0  0  0  0
 24 23  2  0  0  0  0
 25 31  1  0  0  0  0
 26 23  1  0  0  0  0
 26 25  2  0  0  0  0
 27 26  1  0  0  0  0
 28 27  2  0  0  0  0
 28 29  1  0  0  0  0
 29 30  2  0  0  0  0
 30 25  1  0  0  0  0
 32 27  1  0  0  0  0
 33 29  1  0  0  0  0
 34 38  1  0  0  0  0
 34 33  2  0  0  0  0
 35 34  1  0  0  0  0
 36 35  2  0  0  0  0
 36 37  1  0  0  0  0
 37 33  1  0  0  0  0
 39 35  1  0  0  0  0
 40 36  1  0  0  0  0
M  END
>  <minimizedAffinity>
-6.01211405

$$$$

 OpenBabel03242517423D

 40 43  0  0  0  0  0  0  0  0999 V2000
   35.8870   30.4970   40.6650 C   0  0  0  0  0  0  0  0  0  0  0  0
   35.3480   30.4400   41.6230 H   0  0  0  0  0  0  0  0  0  0  0  0
   35.3330   31.2940   40.0850 H   0  0  0  0  0  0  0  0  0  0  0  0
   35.8360   29.2460   39.8640 C   0  0  0  0  0  0  0  0  0  0  0  0
   35.1600   29.2280   38.6460 C   0  0  0  0  0  0  0  0  0  0  0  0
   35.1120   28.0620   37.8970 C   0  0  0  0  0  0  0  0  0  0  0  0
   35.7410   26.8940   38.3560 C   0  0  0  0  0  0  0  0  0  0  0  0
   36.4160   26.9230   39.5770 C   0  0  0  0  0  0  0  0  0  0  0  0
   36.4520   28.1060   40.3150 C   0  0  0  0  0  0  0  0  0  0  0  0
   34.6980   30.1460   38.3440 H   0  0  0  0  0  0  0  0  0  0  0  0
   34.5760   28.1020   36.9630 H   0  0  0  0  0  0  0  0  0  0  0  0
   35.6880   26.0170   37.7610 H   0  0  0  0  0  0  0  0  0  0  0  0
   36.8740   25.9980   39.8670 H   0  0  0  0  0  0  0  0  0  0  0  0
   37.1660   27.9570   41.5340 N   0  0  0  0  0  0  0  0  0  0  0  0
   36.6090   27.8390   42.8790 C   0  0  0  0  0  3  0  0  0  0  0  0
   36.2120   26.7860   43.0020 H   0  0  0  0  0  0  0  0  0  0  0  0
   37.7570   28.0460   43.8440 C   0  0  0  0  0  3  0  0  0  0  0  0
   37.4050   28.0880   44.8970 H   0  0  0  0  0  0  0  0  0  0  0  0
   38.6690   26.9150   43.6530 N   0  0  0  0  0  0  0  0  0  0  0  0
   38.1110   26.0490   43.9080 H   0  0  0  0  0  0  0  0  0  0  0  0
   39.0860   26.7940   42.2930 C   0  0  0  0  0  2  0  0  0  0  0  0
   38.6230   27.9070   41.3860 C   0  0  0  0  0  2  0  0  0  0  0  0
   37.6270   32.2410   40.3950 C   0  0  0  0  0  3  0  0  0  0  0  0
   37.2720   31.0300   40.8010 C   0  0  0  0  0  3  0  0  0  0  0  0
   40.0170   31.9360   40.9380 C   0  0  0  0  0  0  0  0  0  0  0  0
   38.9600   32.7820   40.5210 C   0  0  0  0  0  0  0  0  0  0  0  0
   39.2660   34.0970   40.2450 C   0  0  0  0  0  0  0  0  0  0  0  0
   40.5590   34.5280   40.3820 N   0  0  0  0  0  0  0  0  0  0  0  0
   41.5330   33.6980   40.7780 C   0  0  0  0  0  0  0  0  0  0  0  0
   41.2780   32.3980   41.0610 N   0  0  0  0  0  0  0  0  0  0  0  0
   39.8180   30.8910   41.1650 H   0  0  0  0  0  0  0  0  0  0  0  0
   38.5000   34.7830   39.9250 H   0  0  0  0  0  0  0  0  0  0  0  0
   42.9050   34.1430   40.9210 C   0  0  0  0  0  0  0  0  0  0  0  0
   43.9840   33.9010   40.1770 C   0  0  0  0  0  0  0  0  0  0  0  0
   45.1970   34.4310   40.5050 C   0  0  0  0  0  0  0  0  0  0  0  0
   45.2090   35.2440   41.6800 C   0  0  0  0  0  0  0  0  0  0  0  0
   43.4430   35.1910   42.2470 S   0  0  0  0  0  0  0  0  0  0  0  0
   43.8880   33.2720   39.2990 H   0  0  0  0  0  0  0  0  0  0  0  0
   46.1300   34.3120   39.9940 H   0  0  0  0  0  0  0  0  0  0  0  0
   46.0250   35.7560   42.1250 H   0  0  0  0  0  0  0  0  0  0  0  0
  1 24  1  0  0  0  0
  1  2  1  0  0  0  0
  3  1  1  0  0  0  0
  4  9  1  0  0  0  0
  4  1  1  0  0  0  0
  5  4  2  0  0  0  0
  6  7  2  0  0  0  0
  6  5  1  0  0  0  0
  7  8  1  0  0  0  0
  8 13  1  0  0  0  0
  8  9  2  0  0  0  0
  9 14  1  0  0  0  0
 10  5  1  0  0  0  0
 11  6  1  0  0  0  0
 12  7  1  0  0  0  0
 14 15  1  0  0  0  0
 15 16  1  0  0  0  0
 15 17  1  0  0  0  0
 17 18  1  0  0  0  0
 19 17  1  0  0  0  0
 19 20  1  0  0  0  0
 21 19  1  0  0  0  0
 22 14  1  0  0  0  0
 22 21  1  0  0  0  0
 23 26  1  0  0  0  0
 23 24  2  0  0  0  0
 25 30  1  0  0  0  0
 25 31  1  0  0  0  0
 26 25  2  0  0  0  0
 27 28  2  0  0  0  0
 27 26  1  0  0  0  0
 28 29  1  0  0  0  0
 29 33  1  0  0  0  0
 29 30  2  0  0  0  0
 32 27  1  0  0  0  0
 33 37  1  0  0  0  0
 34 35  1  0  0  0  0
 34 33  2  0  0  0  0
 35 36  2  0  0  0  0
 36 40  1  0  0  0  0
 36 37  1  0  0  0  0
 38 34  1  0  0  0  0
 39 35  1  0  0  0  0
M  END
>  <minimizedAffinity>
-5.95882034

$$$$

 OpenBabel03242517423D

 40 43  0  0  0  0  0  0  0  0999 V2000
   37.9580   27.9350   43.0840 C   0  0  0  0  0  0  0  0  0  0  0  0
   37.6000   27.8770   44.1230 H   0  0  0  0  0  0  0  0  0  0  0  0
   38.3540   26.8980   42.8700 H   0  0  0  0  0  0  0  0  0  0  0  0
   39.0790   28.8900   42.8820 C   0  0  0  0  0  0  0  0  0  0  0  0
   38.8150   30.2500   42.7290 C   0  0  0  0  0  0  0  0  0  0  0  0
   39.8600   31.1430   42.5410 C   0  0  0  0  0  0  0  0  0  0  0  0
   41.1870   30.6880   42.5030 C   0  0  0  0  0  0  0  0  0  0  0  0
   41.4410   29.3250   42.6570 C   0  0  0  0  0  0  0  0  0  0  0  0
   40.3760   28.4430   42.8440 C   0  0  0  0  0  0  0  0  0  0  0  0
   37.7850   30.5420   42.7670 H   0  0  0  0  0  0  0  0  0  0  0  0
   39.6000   32.1820   42.4290 H   0  0  0  0  0  0  0  0  0  0  0  0
   41.9650   31.3950   42.3580 H   0  0  0  0  0  0  0  0  0  0  0  0
   42.4760   29.0460   42.6180 H   0  0  0  0  0  0  0  0  0  0  0  0
   40.8100   27.0970   42.9700 N   0  0  0  0  0  0  0  0  0  0  0  0
   40.6920   26.0320   41.9770 C   0  0  0  0  0  3  0  0  0  0  0  0
   41.4900   26.1980   41.1910 H   0  0  0  0  0  0  0  0  0  0  0  0
   40.9780   24.7320   42.6980 C   0  0  0  0  0  3  0  0  0  0  0  0
   40.7990   23.8520   42.0450 H   0  0  0  0  0  0  0  0  0  0  0  0
   42.3830   24.7860   43.1110 N   0  0  0  0  0  0  0  0  0  0  0  0
   42.9450   24.8530   42.2120 H   0  0  0  0  0  0  0  0  0  0  0  0
   42.6610   25.9440   43.8980 C   0  0  0  0  0  2  0  0  0  0  0  0
   41.4530   26.7780   44.2470 C   0  0  0  0  0  2  0  0  0  0  0  0
   37.0320   28.0000   40.7870 C   0  0  0  0  0  3  0  0  0  0  0  0
   36.8610   28.1290   42.0950 C   0  0  0  0  0  3  0  0  0  0  0  0
   34.9260   29.0790   40.0790 C   0  0  0  0  0  0  0  0  0  0  0  0
   35.9830   28.1770   39.8100 C   0  0  0  0  0  0  0  0  0  0  0  0
   35.9600   27.5090   38.6040 C   0  0  0  0  0  0  0  0  0  0  0  0
   34.9330   27.7400   37.7290 N   0  0  0  0  0  0  0  0  0  0  0  0
   33.9500   28.6020   38.0180 C   0  0  0  0  0  0  0  0  0  0  0  0
   33.9310   29.2800   39.1910 N   0  0  0  0  0  0  0  0  0  0  0  0
   34.9060   29.6270   41.0190 H   0  0  0  0  0  0  0  0  0  0  0  0
   36.7400   26.8110   38.3490 H   0  0  0  0  0  0  0  0  0  0  0  0
   32.8610   28.8580   37.0960 C   0  0  0  0  0  0  0  0  0  0  0  0
   31.8040   29.6640   37.1930 C   0  0  0  0  0  0  0  0  0  0  0  0
   30.8880   29.7470   36.1870 C   0  0  0  0  0  0  0  0  0  0  0  0
   31.1530   28.9190   35.0530 C   0  0  0  0  0  0  0  0  0  0  0  0
   32.7300   28.0600   35.5170 S   0  0  0  0  0  0  0  0  0  0  0  0
   31.6780   30.2610   38.0910 H   0  0  0  0  0  0  0  0  0  0  0  0
   30.0050   30.3500   36.1450 H   0  0  0  0  0  0  0  0  0  0  0  0
   30.5890   28.8170   34.1600 H   0  0  0  0  0  0  0  0  0  0  0  0
  1  2  1  0  0  0  0
  3  1  1  0  0  0  0
  4  1  1  0  0  0  0
  5 10  1  0  0  0  0
  5  4  2  0  0  0  0
  6  5  1  0  0  0  0
  7  6  2  0  0  0  0
  7  8  1  0  0  0  0
  8  9  2  0  0  0  0
  9  4  1  0  0  0  0
  9 14  1  0  0  0  0
 11  6  1  0  0  0  0
 12  7  1  0  0  0  0
 13  8  1  0  0  0  0
 14 22  1  0  0  0  0
 15 17  1  0  0  0  0
 15 14  1  0  0  0  0
 16 15  1  0  0  0  0
 17 19  1  0  0  0  0
 18 17  1  0  0  0  0
 19 21  1  0  0  0  0
 20 19  1  0  0  0  0
 21 22  1  0  0  0  0
 23 24  2  0  0  0  0
 24  1  1  0  0  0  0
 25 31  1  0  0  0  0
 26 25  1  0  0  0  0
 26 23  1  0  0  0  0
 27 26  2  0  0  0  0
 28 29  2  0  0  0  0
 28 27  1  0  0  0  0
 29 30  1  0  0  0  0
 30 25  2  0  0  0  0
 32 27  1  0  0  0  0
 33 34  2  0  0  0  0
 33 29  1  0  0  0  0
 34 38  1  0  0  0  0
 35 34  1  0  0  0  0
 36 37  1  0  0  0  0
 36 35  2  0  0  0  0
 37 33  1  0  0  0  0
 39 35  1  0  0  0  0
 40 36  1  0  0  0  0
M  END
>  <minimizedAffinity>
-5.69656229

$$$$

 OpenBabel03242517423D

 40 43  0  0  0  0  0  0  0  0999 V2000
   32.0170   29.3510   36.4240 C   0  0  0  0  0  0  0  0  0  0  0  0
   32.5410   29.9230   35.6440 H   0  0  0  0  0  0  0  0  0  0  0  0
   31.6060   28.4510   35.8770 H   0  0  0  0  0  0  0  0  0  0  0  0
   30.8650   30.0670   37.0310 C   0  0  0  0  0  0  0  0  0  0  0  0
   30.6660   30.0220   38.4100 C   0  0  0  0  0  0  0  0  0  0  0  0
   29.5920   30.6910   38.9780 C   0  0  0  0  0  0  0  0  0  0  0  0
   28.6990   31.4160   38.1750 C   0  0  0  0  0  0  0  0  0  0  0  0
   28.9070   31.4560   36.7950 C   0  0  0  0  0  0  0  0  0  0  0  0
   29.9930   30.7750   36.2440 C   0  0  0  0  0  0  0  0  0  0  0  0
   31.3780   29.4540   38.9750 H   0  0  0  0  0  0  0  0  0  0  0  0
   29.4850   30.6230   40.0480 H   0  0  0  0  0  0  0  0  0  0  0  0
   27.8870   31.9180   38.6380 H   0  0  0  0  0  0  0  0  0  0  0  0
   28.1880   32.0270   36.2420 H   0  0  0  0  0  0  0  0  0  0  0  0
   30.0480   30.9090   34.8310 N   0  0  0  0  0  0  0  0  0  0  0  0
   29.4490   30.0260   33.8330 C   0  0  0  0  0  3  0  0  0  0  0  0
   28.3390   30.2450   33.7940 H   0  0  0  0  0  0  0  0  0  0  0  0
   30.0680   30.3920   32.5010 C   0  0  0  0  0  3  0  0  0  0  0  0
   29.7560   29.6920   31.6970 H   0  0  0  0  0  0  0  0  0  0  0  0
   29.6210   31.7540   32.1970 N   0  0  0  0  0  0  0  0  0  0  0  0
   28.5640   31.7010   32.1210 H   0  0  0  0  0  0  0  0  0  0  0  0
   29.9490   32.6670   33.2440 C   0  0  0  0  0  2  0  0  0  0  0  0
   30.7850   32.0820   34.3560 C   0  0  0  0  0  2  0  0  0  0  0  0
   34.1510   29.2530   37.6790 C   0  0  0  0  0  3  0  0  0  0  0  0
   32.9350   28.7780   37.4490 C   0  0  0  0  0  3  0  0  0  0  0  0
   35.0520   29.2600   39.9790 C   0  0  0  0  0  0  0  0  0  0  0  0
   35.0570   28.7200   38.6700 C   0  0  0  0  0  0  0  0  0  0  0  0
   35.9350   27.6900   38.4080 C   0  0  0  0  0  0  0  0  0  0  0  0
   36.7550   27.2370   39.4070 N   0  0  0  0  0  0  0  0  0  0  0  0
   36.7210   27.7730   40.6340 C   0  0  0  0  0  0  0  0  0  0  0  0
   35.8750   28.7860   40.9370 N   0  0  0  0  0  0  0  0  0  0  0  0
   34.3740   30.0740   40.2280 H   0  0  0  0  0  0  0  0  0  0  0  0
   35.9800   27.2440   37.4290 H   0  0  0  0  0  0  0  0  0  0  0  0
   37.5810   27.2970   41.7000 C   0  0  0  0  0  0  0  0  0  0  0  0
   38.2010   26.1290   41.8660 C   0  0  0  0  0  0  0  0  0  0  0  0
   38.9730   25.8930   42.9660 C   0  0  0  0  0  0  0  0  0  0  0  0
   39.0540   26.9750   43.8950 C   0  0  0  0  0  0  0  0  0  0  0  0
   37.9970   28.2840   43.1130 S   0  0  0  0  0  0  0  0  0  0  0  0
   38.0870   25.3590   41.1110 H   0  0  0  0  0  0  0  0  0  0  0  0
   39.5160   25.0060   43.2140 H   0  0  0  0  0  0  0  0  0  0  0  0
   39.5880   27.0240   44.8110 H   0  0  0  0  0  0  0  0  0  0  0  0
  1  4  1  0  0  0  0
  1 24  1  0  0  0  0
  2  1  1  0  0  0  0
  3  1  1  0  0  0  0
  4  5  1  0  0  0  0
  5 10  1  0  0  0  0
  5  6  2  0  0  0  0
  6 11  1  0  0  0  0
  7 12  1  0  0  0  0
  7  6  1  0  0  0  0
  8  7  2  0  0  0  0
  9  8  1  0  0  0  0
  9  4  2  0  0  0  0
 13  8  1  0  0  0  0
 14  9  1  0  0  0  0
 15 14  1  0  0  0  0
 16 15  1  0  0  0  0
 17 15  1  0  0  0  0
 18 17  1  0  0  0  0
 19 17  1  0  0  0  0
 19 21  1  0  0  0  0
 20 19  1  0  0  0  0
 21 22  1  0  0  0  0
 22 14  1  0  0  0  0
 23 26  1  0  0  0  0
 24 23  2  0  0  0  0
 25 31  1  0  0  0  0
 25 30  1  0  0  0  0
 26 25  2  0  0  0  0
 27 26  1  0  0  0  0
 27 28  2  0  0  0  0
 28 29  1  0  0  0  0
 29 30  2  0  0  0  0
 29 33  1  0  0  0  0
 32 27  1  0  0  0  0
 33 34  2  0  0  0  0
 33 37  1  0  0  0  0
 34 35  1  0  0  0  0
 35 39  1  0  0  0  0
 35 36  2  0  0  0  0
 36 40  1  0  0  0  0
 37 36  1  0  0  0  0
 38 34  1  0  0  0  0
M  END
>  <minimizedAffinity>
-5.59204817

$$$$

 OpenBabel03242517423D

 40 43  0  0  0  0  0  0  0  0999 V2000
   37.5340   27.7010   39.4760 C   0  0  0  0  0  0  0  0  0  0  0  0
   38.1200   26.8440   39.1100 H   0  0  0  0  0  0  0  0  0  0  0  0
   38.1460   28.6030   39.1750 H   0  0  0  0  0  0  0  0  0  0  0  0
   37.3770   27.7420   40.9530 C   0  0  0  0  0  0  0  0  0  0  0  0
   37.1920   26.5590   41.6650 C   0  0  0  0  0  0  0  0  0  0  0  0
   37.0460   26.5950   43.0440 C   0  0  0  0  0  0  0  0  0  0  0  0
   37.0840   27.8170   43.7320 C   0  0  0  0  0  0  0  0  0  0  0  0
   37.2700   28.9970   43.0110 C   0  0  0  0  0  0  0  0  0  0  0  0
   37.4140   28.9390   41.6240 C   0  0  0  0  0  0  0  0  0  0  0  0
   37.1710   25.6550   41.0900 H   0  0  0  0  0  0  0  0  0  0  0  0
   36.9050   25.6510   43.5460 H   0  0  0  0  0  0  0  0  0  0  0  0
   36.9700   27.8130   44.7880 H   0  0  0  0  0  0  0  0  0  0  0  0
   37.2890   29.8930   43.5980 H   0  0  0  0  0  0  0  0  0  0  0  0
   37.5820   30.2260   41.0480 N   0  0  0  0  0  0  0  0  0  0  0  0
   36.5330   31.1660   40.6600 C   0  0  0  0  0  3  0  0  0  0  0  0
   36.1380   31.6570   41.6010 H   0  0  0  0  0  0  0  0  0  0  0  0
   37.1920   32.2200   39.7970 C   0  0  0  0  0  3  0  0  0  0  0  0
   36.4470   32.9180   39.3600 H   0  0  0  0  0  0  0  0  0  0  0  0
   38.1240   32.9450   40.6660 N   0  0  0  0  0  0  0  0  0  0  0  0
   37.5260   33.3920   41.4200 H   0  0  0  0  0  0  0  0  0  0  0  0
   39.0540   32.0660   41.2970 C   0  0  0  0  0  2  0  0  0  0  0  0
   38.9750   30.6280   40.8450 C   0  0  0  0  0  2  0  0  0  0  0  0
   36.0440   28.7910   37.8230 C   0  0  0  0  0  3  0  0  0  0  0  0
   36.2380   27.8740   38.7610 C   0  0  0  0  0  3  0  0  0  0  0  0
   34.8210   29.1400   35.7060 C   0  0  0  0  0  0  0  0  0  0  0  0
   34.8000   28.9740   37.1120 C   0  0  0  0  0  0  0  0  0  0  0  0
   33.5730   28.9870   37.7380 C   0  0  0  0  0  0  0  0  0  0  0  0
   32.4390   29.1590   36.9890 N   0  0  0  0  0  0  0  0  0  0  0  0
   32.4980   29.3120   35.6600 C   0  0  0  0  0  0  0  0  0  0  0  0
   33.6820   29.3060   35.0020 N   0  0  0  0  0  0  0  0  0  0  0  0
   35.7690   29.1360   35.1720 H   0  0  0  0  0  0  0  0  0  0  0  0
   33.5000   28.8660   38.8060 H   0  0  0  0  0  0  0  0  0  0  0  0
   31.3030   29.4880   34.8570 C   0  0  0  0  0  0  0  0  0  0  0  0
   31.0360   30.3320   33.8620 C   0  0  0  0  0  0  0  0  0  0  0  0
   29.8230   30.3240   33.2380 C   0  0  0  0  0  0  0  0  0  0  0  0
   28.8920   29.3590   33.7320 C   0  0  0  0  0  0  0  0  0  0  0  0
   29.8400   28.5120   35.0840 S   0  0  0  0  0  0  0  0  0  0  0  0
   31.8010   31.0350   33.5470 H   0  0  0  0  0  0  0  0  0  0  0  0
   29.4880   30.9460   32.4350 H   0  0  0  0  0  0  0  0  0  0  0  0
   27.9000   29.1680   33.4080 H   0  0  0  0  0  0  0  0  0  0  0  0
  1  4  1  0  0  0  0
  2  1  1  0  0  0  0
  3  1  1  0  0  0  0
  4  9  2  0  0  0  0
  4  5  1  0  0  0  0
  5  6  2  0  0  0  0
  6 11  1  0  0  0  0
  6  7  1  0  0  0  0
  7 12  1  0  0  0  0
  8 13  1  0  0  0  0
  8  7  2  0  0  0  0
  9  8  1  0  0  0  0
 10  5  1  0  0  0  0
 14  9  1  0  0  0  0
 15 14  1  0  0  0  0
 15 16  1  0  0  0  0
 17 15  1  0  0  0  0
 17 19  1  0  0  0  0
 18 17  1  0  0  0  0
 19 21  1  0  0  0  0
 19 20  1  0  0  0  0
 22 14  1  0  0  0  0
 22 21  1  0  0  0  0
 23 24  2  0  0  0  0
 24  1  1  0  0  0  0
 25 26  1  0  0  0  0
 26 27  2  0  0  0  0
 26 23  1  0  0  0  0
 27 32  1  0  0  0  0
 28 27  1  0  0  0  0
 29 28  2  0  0  0  0
 30 29  1  0  0  0  0
 30 25  2  0  0  0  0
 31 25  1  0  0  0  0
 33 37  1  0  0  0  0
 33 29  1  0  0  0  0
 34 33  2  0  0  0  0
 35 36  2  0  0  0  0
 35 34  1  0  0  0  0
 36 37  1  0  0  0  0
 38 34  1  0  0  0  0
 39 35  1  0  0  0  0
 40 36  1  0  0  0  0
M  END
>  <minimizedAffinity>
-5.55620337

$$$$

 OpenBabel03242517423D

 40 43  0  0  0  0  0  0  0  0999 V2000
   37.4240   27.7570   39.4730 C   0  0  0  0  0  0  0  0  0  0  0  0
   37.9380   26.8690   39.0720 H   0  0  0  0  0  0  0  0  0  0  0  0
   38.0880   28.6200   39.1710 H   0  0  0  0  0  0  0  0  0  0  0  0
   37.3140   27.7750   40.9550 C   0  0  0  0  0  0  0  0  0  0  0  0
   37.1080   26.5860   41.6520 C   0  0  0  0  0  0  0  0  0  0  0  0
   37.0060   26.6020   43.0350 C   0  0  0  0  0  0  0  0  0  0  0  0
   37.1080   27.8090   43.7430 C   0  0  0  0  0  0  0  0  0  0  0  0
   37.3130   28.9950   43.0360 C   0  0  0  0  0  0  0  0  0  0  0  0
   37.4130   28.9570   41.6450 C   0  0  0  0  0  0  0  0  0  0  0  0
   37.0380   25.6950   41.0620 H   0  0  0  0  0  0  0  0  0  0  0  0
   36.8470   25.6550   43.5240 H   0  0  0  0  0  0  0  0  0  0  0  0
   37.0250   27.7900   44.8010 H   0  0  0  0  0  0  0  0  0  0  0  0
   37.3820   29.8790   43.6380 H   0  0  0  0  0  0  0  0  0  0  0  0
   37.6080   30.2480   41.0860 N   0  0  0  0  0  0  0  0  0  0  0  0
   36.5790   31.2130   40.7050 C   0  0  0  0  0  3  0  0  0  0  0  0
   36.1890   31.6990   41.6500 H   0  0  0  0  0  0  0  0  0  0  0  0
   37.2640   32.2660   39.8590 C   0  0  0  0  0  3  0  0  0  0  0  0
   36.5340   32.9830   39.4270 H   0  0  0  0  0  0  0  0  0  0  0  0
   38.2040   32.9610   40.7430 N   0  0  0  0  0  0  0  0  0  0  0  0
   37.6100   33.4100   41.5000 H   0  0  0  0  0  0  0  0  0  0  0  0
   39.1140   32.0560   41.3680 C   0  0  0  0  0  2  0  0  0  0  0  0
   39.0100   30.6270   40.8960 C   0  0  0  0  0  2  0  0  0  0  0  0
   36.0300   28.5840   37.5990 C   0  0  0  0  0  3  0  0  0  0  0  0
   36.1230   28.0340   38.8020 C   0  0  0  0  0  3  0  0  0  0  0  0
   33.5810   28.8900   37.6740 C   0  0  0  0  0  0  0  0  0  0  0  0
   34.7820   28.8570   36.9250 C   0  0  0  0  0  0  0  0  0  0  0  0
   34.6970   29.0990   35.5710 C   0  0  0  0  0  0  0  0  0  0  0  0
   33.4740   29.3580   35.0110 N   0  0  0  0  0  0  0  0  0  0  0  0
   32.3590   29.3830   35.7520 C   0  0  0  0  0  0  0  0  0  0  0  0
   32.3940   29.1500   37.0860 N   0  0  0  0  0  0  0  0  0  0  0  0
   33.6030   28.7050   38.7460 H   0  0  0  0  0  0  0  0  0  0  0  0
   35.5800   29.0850   34.9550 H   0  0  0  0  0  0  0  0  0  0  0  0
   31.0610   29.6620   35.1700 C   0  0  0  0  0  0  0  0  0  0  0  0
   29.9030   29.0080   35.2610 C   0  0  0  0  0  0  0  0  0  0  0  0
   28.7890   29.4580   34.6170 C   0  0  0  0  0  0  0  0  0  0  0  0
   28.9660   30.6570   33.8600 C   0  0  0  0  0  0  0  0  0  0  0  0
   30.7550   31.0650   34.1290 S   0  0  0  0  0  0  0  0  0  0  0  0
   29.8550   28.1030   35.8580 H   0  0  0  0  0  0  0  0  0  0  0  0
   27.8100   29.0260   34.6100 H   0  0  0  0  0  0  0  0  0  0  0  0
   28.2510   31.1890   33.2830 H   0  0  0  0  0  0  0  0  0  0  0  0
  1  4  1  0  0  0  0
  2  1  1  0  0  0  0
  3  1  1  0  0  0  0
  4  9  2  0  0  0  0
  4  5  1  0  0  0  0
  5  6  2  0  0  0  0
  6 11  1  0  0  0  0
  6  7  1  0  0  0  0
  7 12  1  0  0  0  0
  8 13  1  0  0  0  0
  8  7  2  0  0  0  0
  9  8  1  0  0  0  0
 10  5  1  0  0  0  0
 14  9  1  0  0  0  0
 15 14  1  0  0  0  0
 15 16  1  0  0  0  0
 17 15  1  0  0  0  0
 17 19  1  0  0  0  0
 18 17  1  0  0  0  0
 19 21  1  0  0  0  0
 19 20  1  0  0  0  0
 22 14  1  0  0  0  0
 22 21  1  0  0  0  0
 23 24  2  0  0  0  0
 24  1  1  0  0  0  0
 25 31  1  0  0  0  0
 26 23  1  0  0  0  0
 26 25  2  0  0  0  0
 27 26  1  0  0  0  0
 28 27  2  0  0  0  0
 28 29  1  0  0  0  0
 29 30  2  0  0  0  0
 30 25  1  0  0  0  0
 32 27  1  0  0  0  0
 33 34  2  0  0  0  0
 33 29  1  0  0  0  0
 34 38  1  0  0  0  0
 35 34  1  0  0  0  0
 36 37  1  0  0  0  0
 36 35  2  0  0  0  0
 37 33  1  0  0  0  0
 39 35  1  0  0  0  0
 40 36  1  0  0  0  0
M  END
>  <minimizedAffinity>
-5.4999404

$$$$

 OpenBabel03242517423D

 40 43  0  0  0  0  0  0  0  0999 V2000
   36.5280   29.1550   41.7770 C   0  0  0  0  0  0  0  0  0  0  0  0
   35.8120   29.3900   42.5790 H   0  0  0  0  0  0  0  0  0  0  0  0
   36.0590   29.6000   40.8490 H   0  0  0  0  0  0  0  0  0  0  0  0
   36.7080   27.7000   41.5320 C   0  0  0  0  0  0  0  0  0  0  0  0
   36.9770   26.8430   42.5970 C   0  0  0  0  0  0  0  0  0  0  0  0
   37.1440   25.4850   42.3710 C   0  0  0  0  0  0  0  0  0  0  0  0
   37.0440   24.9630   41.0720 C   0  0  0  0  0  0  0  0  0  0  0  0
   36.7740   25.8280   40.0110 C   0  0  0  0  0  0  0  0  0  0  0  0
   36.6100   27.1910   40.2610 C   0  0  0  0  0  0  0  0  0  0  0  0
   37.0420   27.2950   43.5670 H   0  0  0  0  0  0  0  0  0  0  0  0
   37.3510   24.8680   43.2290 H   0  0  0  0  0  0  0  0  0  0  0  0
   37.1770   23.9190   40.9290 H   0  0  0  0  0  0  0  0  0  0  0  0
   36.7110   25.3640   39.0470 H   0  0  0  0  0  0  0  0  0  0  0  0
   36.3550   27.9270   39.0730 N   0  0  0  0  0  0  0  0  0  0  0  0
   35.1250   28.6290   38.7130 C   0  0  0  0  0  3  0  0  0  0  0  0
   35.0890   29.5960   39.3010 H   0  0  0  0  0  0  0  0  0  0  0  0
   35.2270   28.9540   37.2380 C   0  0  0  0  0  3  0  0  0  0  0  0
   34.2830   29.3890   36.8480 H   0  0  0  0  0  0  0  0  0  0  0  0
   36.3280   29.9120   37.1000 N   0  0  0  0  0  0  0  0  0  0  0  0
   36.0380   30.7670   37.6580 H   0  0  0  0  0  0  0  0  0  0  0  0
   37.5430   29.4080   37.6550 C   0  0  0  0  0  2  0  0  0  0  0  0
   37.4760   27.9780   38.1330 C   0  0  0  0  0  2  0  0  0  0  0  0
   38.3000   30.7050   41.0030 C   0  0  0  0  0  3  0  0  0  0  0  0
   37.8260   29.8720   41.9200 C   0  0  0  0  0  3  0  0  0  0  0  0
   39.7460   32.6080   40.3830 C   0  0  0  0  0  0  0  0  0  0  0  0
   39.5510   31.4160   41.1210 C   0  0  0  0  0  0  0  0  0  0  0  0
   40.5810   30.9940   41.9340 C   0  0  0  0  0  0  0  0  0  0  0  0
   41.7330   31.7320   41.9960 N   0  0  0  0  0  0  0  0  0  0  0  0
   41.8800   32.8560   41.2830 C   0  0  0  0  0  0  0  0  0  0  0  0
   40.8960   33.3080   40.4700 N   0  0  0  0  0  0  0  0  0  0  0  0
   38.9580   32.9770   39.7290 H   0  0  0  0  0  0  0  0  0  0  0  0
   40.4850   30.0930   42.5180 H   0  0  0  0  0  0  0  0  0  0  0  0
   43.0930   33.6470   41.3450 C   0  0  0  0  0  0  0  0  0  0  0  0
   43.4770   34.5930   42.2010 C   0  0  0  0  0  0  0  0  0  0  0  0
   44.6810   35.2180   42.0660 C   0  0  0  0  0  0  0  0  0  0  0  0
   45.4720   34.7810   40.9590 C   0  0  0  0  0  0  0  0  0  0  0  0
   44.4130   33.4780   40.1720 S   0  0  0  0  0  0  0  0  0  0  0  0
   42.8140   34.8670   43.0160 H   0  0  0  0  0  0  0  0  0  0  0  0
   45.1000   35.9870   42.6810 H   0  0  0  0  0  0  0  0  0  0  0  0
   46.4330   35.1160   40.6570 H   0  0  0  0  0  0  0  0  0  0  0  0
  1 24  1  0  0  0  0
  1  2  1  0  0  0  0
  3  1  1  0  0  0  0
  4  1  1  0  0  0  0
  4  5  1  0  0  0  0
  5 10  1  0  0  0  0
  6  5  2  0  0  0  0
  6 11  1  0  0  0  0
  7  6  1  0  0  0  0
  8  9  1  0  0  0  0
  8  7  2  0  0  0  0
  9  4  2  0  0  0  0
 12  7  1  0  0  0  0
 13  8  1  0  0  0  0
 14  9  1  0  0  0  0
 15 14  1  0  0  0  0
 15 16  1  0  0  0  0
 17 15  1  0  0  0  0
 18 17  1  0  0  0  0
 19 17  1  0  0  0  0
 19 21  1  0  0  0  0
 19 20  1  0  0  0  0
 21 22  1  0  0  0  0
 22 14  1  0  0  0  0
 23 26  1  0  0  0  0
 23 24  2  0  0  0  0
 25 30  2  0  0  0  0
 25 26  1  0  0  0  0
 26 27  2  0  0  0  0
 27 28  1  0  0  0  0
 27 32  1  0  0  0  0
 29 33  1  0  0  0  0
 29 28  2  0  0  0  0
 30 29  1  0  0  0  0
 31 25  1  0  0  0  0
 33 34  2  0  0  0  0
 34 38  1  0  0  0  0
 35 34  1  0  0  0  0
 35 39  1  0  0  0  0
 36 35  2  0  0  0  0
 37 36  1  0  0  0  0
 37 33  1  0  0  0  0
 40 36  1  0  0  0  0
M  END
>  <minimizedAffinity>
-5.35817003

$$$$

 OpenBabel03242517423D

 40 43  0  0  0  0  0  0  0  0999 V2000
   36.4100   27.5740   38.9900 C   0  0  0  0  0  0  0  0  0  0  0  0
   36.0850   26.5240   39.0560 H   0  0  0  0  0  0  0  0  0  0  0  0
   37.2890   27.5470   38.2790 H   0  0  0  0  0  0  0  0  0  0  0  0
   36.8950   28.1410   40.2760 C   0  0  0  0  0  0  0  0  0  0  0  0
   36.6340   29.4730   40.5900 C   0  0  0  0  0  0  0  0  0  0  0  0
   37.0850   30.0030   41.7900 C   0  0  0  0  0  0  0  0  0  0  0  0
   37.8050   29.2070   42.6940 C   0  0  0  0  0  0  0  0  0  0  0  0
   38.0620   27.8750   42.3700 C   0  0  0  0  0  0  0  0  0  0  0  0
   37.6000   27.3610   41.1580 C   0  0  0  0  0  0  0  0  0  0  0  0
   36.0810   30.0340   39.8650 H   0  0  0  0  0  0  0  0  0  0  0  0
   36.8560   31.0380   41.9840 H   0  0  0  0  0  0  0  0  0  0  0  0
   38.1380   29.6410   43.6050 H   0  0  0  0  0  0  0  0  0  0  0  0
   38.6160   27.3250   43.1040 H   0  0  0  0  0  0  0  0  0  0  0  0
   37.9580   25.9980   40.9820 N   0  0  0  0  0  0  0  0  0  0  0  0
   39.1490   25.4730   40.3190 C   0  0  0  0  0  3  0  0  0  0  0  0
   40.0250   25.5950   41.0250 H   0  0  0  0  0  0  0  0  0  0  0  0
   38.9040   23.9970   40.0910 C   0  0  0  0  0  3  0  0  0  0  0  0
   39.7130   23.5350   39.4860 H   0  0  0  0  0  0  0  0  0  0  0  0
   38.8390   23.3770   41.4170 N   0  0  0  0  0  0  0  0  0  0  0  0
   39.7910   23.5400   41.8580 H   0  0  0  0  0  0  0  0  0  0  0  0
   37.8530   23.9950   42.2440 C   0  0  0  0  0  2  0  0  0  0  0  0
   37.0100   25.0380   41.5530 C   0  0  0  0  0  2  0  0  0  0  0  0
   34.4620   27.9970   37.5190 C   0  0  0  0  0  3  0  0  0  0  0  0
   35.4140   28.4560   38.3190 C   0  0  0  0  0  3  0  0  0  0  0  0
   33.6340   29.1310   35.4880 C   0  0  0  0  0  0  0  0  0  0  0  0
   33.4820   28.8300   36.8630 C   0  0  0  0  0  0  0  0  0  0  0  0
   32.3830   29.3500   37.5110 C   0  0  0  0  0  0  0  0  0  0  0  0
   31.4950   30.1250   36.8130 N   0  0  0  0  0  0  0  0  0  0  0  0
   31.6710   30.3870   35.5120 C   0  0  0  0  0  0  0  0  0  0  0  0
   32.7370   29.8980   34.8340 N   0  0  0  0  0  0  0  0  0  0  0  0
   34.4870   28.7410   34.9370 H   0  0  0  0  0  0  0  0  0  0  0  0
   32.2190   29.1520   38.5580 H   0  0  0  0  0  0  0  0  0  0  0  0
   30.7350   31.2010   34.7630 C   0  0  0  0  0  0  0  0  0  0  0  0
   30.7680   31.6370   33.5040 C   0  0  0  0  0  0  0  0  0  0  0  0
   29.7620   32.4060   32.9980 C   0  0  0  0  0  0  0  0  0  0  0  0
   28.7000   32.6940   33.9100 C   0  0  0  0  0  0  0  0  0  0  0  0
   29.2290   31.8260   35.4620 S   0  0  0  0  0  0  0  0  0  0  0  0
   31.6130   31.3720   32.8760 H   0  0  0  0  0  0  0  0  0  0  0  0
   29.6730   32.8140   32.0140 H   0  0  0  0  0  0  0  0  0  0  0  0
   27.8210   33.2650   33.7450 H   0  0  0  0  0  0  0  0  0  0  0  0
  1  2  1  0  0  0  0
  1  4  1  0  0  0  0
  3  1  1  0  0  0  0
  4  5  2  0  0  0  0
  4  9  1  0  0  0  0
  5  6  1  0  0  0  0
  6 11  1  0  0  0  0
  6  7  2  0  0  0  0
  7 12  1  0  0  0  0
  8  7  1  0  0  0  0
  8 13  1  0  0  0  0
  9  8  2  0  0  0  0
 10  5  1  0  0  0  0
 14  9  1  0  0  0  0
 14 22  1  0  0  0  0
 15 14  1  0  0  0  0
 15 16  1  0  0  0  0
 17 15  1  0  0  0  0
 17 19  1  0  0  0  0
 18 17  1  0  0  0  0
 19 20  1  0  0  0  0
 19 21  1  0  0  0  0
 22 21  1  0  0  0  0
 23 24  2  0  0  0  0
 24  1  1  0  0  0  0
 25 26  1  0  0  0  0
 26 27  2  0  0  0  0
 26 23  1  0  0  0  0
 27 32  1  0  0  0  0
 28 27  1  0  0  0  0
 29 28  2  0  0  0  0
 30 25  2  0  0  0  0
 30 29  1  0  0  0  0
 31 25  1  0  0  0  0
 33 37  1  0  0  0  0
 33 29  1  0  0  0  0
 34 33  2  0  0  0  0
 35 34  1  0  0  0  0
 35 36  2  0  0  0  0
 36 37  1  0  0  0  0
 38 34  1  0  0  0  0
 39 35  1  0  0  0  0
 40 36  1  0  0  0  0
M  END
>  <minimizedAffinity>
-5.25715446

$$$$

 OpenBabel03242517423D

 40 43  0  0  0  0  0  0  0  0999 V2000
   33.7010   28.5760   38.0140 C   0  0  0  0  0  0  0  0  0  0  0  0
   34.1630   27.6680   37.5950 H   0  0  0  0  0  0  0  0  0  0  0  0
   33.1180   28.2010   38.9070 H   0  0  0  0  0  0  0  0  0  0  0  0
   32.7370   29.2430   37.1000 C   0  0  0  0  0  0  0  0  0  0  0  0
   31.5450   29.7600   37.6040 C   0  0  0  0  0  0  0  0  0  0  0  0
   30.6450   30.3840   36.7530 C   0  0  0  0  0  0  0  0  0  0  0  0
   30.9240   30.5000   35.3830 C   0  0  0  0  0  0  0  0  0  0  0  0
   32.1200   29.9790   34.8870 C   0  0  0  0  0  0  0  0  0  0  0  0
   33.0120   29.3550   35.7600 C   0  0  0  0  0  0  0  0  0  0  0  0
   31.3840   29.6440   38.6570 H   0  0  0  0  0  0  0  0  0  0  0  0
   29.7390   30.7660   37.1950 H   0  0  0  0  0  0  0  0  0  0  0  0
   30.2160   30.9830   34.7560 H   0  0  0  0  0  0  0  0  0  0  0  0
   32.2700   30.1020   33.8330 H   0  0  0  0  0  0  0  0  0  0  0  0
   34.1680   28.8730   35.0910 N   0  0  0  0  0  0  0  0  0  0  0  0
   35.3770   29.6230   34.7590 C   0  0  0  0  0  3  0  0  0  0  0  0
   35.9900   29.7350   35.7040 H   0  0  0  0  0  0  0  0  0  0  0  0
   36.1520   28.7810   33.7680 C   0  0  0  0  0  3  0  0  0  0  0  0
   37.0340   29.3240   33.3690 H   0  0  0  0  0  0  0  0  0  0  0  0
   36.5740   27.5760   34.4880 N   0  0  0  0  0  0  0  0  0  0  0  0
   37.2050   27.9160   35.2720 H   0  0  0  0  0  0  0  0  0  0  0  0
   35.4670   26.8900   35.0710 C   0  0  0  0  0  2  0  0  0  0  0  0
   34.1130   27.4570   34.7190 C   0  0  0  0  0  2  0  0  0  0  0  0
   35.9260   29.6610   38.1170 C   0  0  0  0  0  3  0  0  0  0  0  0
   34.6930   29.5270   38.5870 C   0  0  0  0  0  3  0  0  0  0  0  0
   37.9610   31.0300   37.8250 C   0  0  0  0  0  0  0  0  0  0  0  0
   36.9030   30.5800   38.6520 C   0  0  0  0  0  0  0  0  0  0  0  0
   36.8580   31.0570   39.9440 C   0  0  0  0  0  0  0  0  0  0  0  0
   37.8200   31.9330   40.3710 N   0  0  0  0  0  0  0  0  0  0  0  0
   38.8050   32.3380   39.5590 C   0  0  0  0  0  0  0  0  0  0  0  0
   38.8900   31.8950   38.2810 N   0  0  0  0  0  0  0  0  0  0  0  0
   38.0340   30.6780   36.7980 H   0  0  0  0  0  0  0  0  0  0  0  0
   36.0750   30.7470   40.6160 H   0  0  0  0  0  0  0  0  0  0  0  0
   39.8250   33.2690   39.9980 C   0  0  0  0  0  0  0  0  0  0  0  0
   39.8040   34.5960   40.1180 C   0  0  0  0  0  0  0  0  0  0  0  0
   40.8980   35.2800   40.5570 C   0  0  0  0  0  0  0  0  0  0  0  0
   42.0350   34.4730   40.8700 C   0  0  0  0  0  0  0  0  0  0  0  0
   41.4450   32.7530   40.5030 S   0  0  0  0  0  0  0  0  0  0  0  0
   38.8970   35.1340   39.8590 H   0  0  0  0  0  0  0  0  0  0  0  0
   41.0070   36.3360   40.6950 H   0  0  0  0  0  0  0  0  0  0  0  0
   42.9880   34.7780   41.2250 H   0  0  0  0  0  0  0  0  0  0  0  0
  1 24  1  0  0  0  0
  1  3  1  0  0  0  0
  2  1  1  0  0  0  0
  4  5  1  0  0  0  0
  4  1  1  0  0  0  0
  5 10  1  0  0  0  0
  6 11  1  0  0  0  0
  6  5  2  0  0  0  0
  7  6  1  0  0  0  0
  8  7  2  0  0  0  0
  8  9  1  0  0  0  0
  9  4  2  0  0  0  0
 12  7  1  0  0  0  0
 13  8  1  0  0  0  0
 14  9  1  0  0  0  0
 15 14  1  0  0  0  0
 15 16  1  0  0  0  0
 17 19  1  0  0  0  0
 17 15  1  0  0  0  0
 18 17  1  0  0  0  0
 19 21  1  0  0  0  0
 19 20  1  0  0  0  0
 22 21  1  0  0  0  0
 22 14  1  0  0  0  0
 23 24  2  0  0  0  0
 23 26  1  0  0  0  0
 25 30  2  0  0  0  0
 25 26  1  0  0  0  0
 26 27  2  0  0  0  0
 27 28  1  0  0  0  0
 27 32  1  0  0  0  0
 29 33  1  0  0  0  0
 29 28  2  0  0  0  0
 30 29  1  0  0  0  0
 31 25  1  0  0  0  0
 33 34  2  0  0  0  0
 33 37  1  0  0  0  0
 34 35  1  0  0  0  0
 35 39  1  0  0  0  0
 35 36  2  0  0  0  0
 36 40  1  0  0  0  0
 37 36  1  0  0  0  0
 38 34  1  0  0  0  0
M  END
>  <minimizedAffinity>
-5.24744415

$$$$
