
 OpenBabel03252507223D

 47 50  0  0  1  0  0  0  0  0999 V2000
   46.9080   32.6030   43.7600 C   0  0  0  0  0  0  0  0  0  0  0  0
   48.1160   32.5980   44.1110 O   0  0  0  0  0  0  0  0  0  0  0  0
   46.3300   31.6250   42.9130 N   0  0  0  0  0  0  0  0  0  0  0  0
   45.0510   30.9060   43.0160 C   0  0  0  0  0  0  0  0  0  0  0  0
   44.2880   31.0190   41.7100 C   0  0  0  0  0  0  0  0  0  0  0  0
   45.0400   30.3520   40.6040 C   0  0  0  0  0  0  0  0  0  0  0  0
   46.4460   30.0690   41.0580 C   0  0  0  0  0  0  0  0  0  0  0  0
   47.0830   31.2310   41.7530 C   0  0  2  0  0  0  0  0  0  0  0  0
   45.2710   29.8470   43.2300 H   0  0  0  0  0  0  0  0  0  0  0  0
   44.3850   31.3620   43.7840 H   0  0  0  0  0  0  0  0  0  0  0  0
   44.0340   32.0800   41.5150 H   0  0  0  0  0  0  0  0  0  0  0  0
   43.3290   30.4600   41.8940 H   0  0  0  0  0  0  0  0  0  0  0  0
   44.5530   29.3900   40.3310 H   0  0  0  0  0  0  0  0  0  0  0  0
   45.0300   30.9810   39.6910 H   0  0  0  0  0  0  0  0  0  0  0  0
   46.4730   29.1440   41.6480 H   0  0  0  0  0  0  0  0  0  0  0  0
   47.0350   29.8840   40.1150 H   0  0  0  0  0  0  0  0  0  0  0  0
   46.9350   32.0870   41.0290 H   0  0  0  0  0  0  0  0  0  0  0  0
   45.6680   34.6750   43.3390 C   0  0  0  0  0  0  0  0  0  0  0  0
   46.0750   33.6640   44.2530 C   0  0  0  0  0  0  0  0  0  0  0  0
   45.6580   33.7390   45.5690 C   0  0  0  0  0  0  0  0  0  0  0  0
   44.8770   34.7760   45.9350 N   0  0  0  0  0  0  0  0  0  0  0  0
   44.4820   35.7450   45.0760 C   0  0  0  0  0  0  0  0  0  0  0  0
   44.8870   35.6750   43.7910 N   0  0  0  0  0  0  0  0  0  0  0  0
   46.0010   34.6050   42.3070 H   0  0  0  0  0  0  0  0  0  0  0  0
   43.8620   36.5530   45.4050 H   0  0  0  0  0  0  0  0  0  0  0  0
   46.0890   32.6940   46.4870 C   0  0  0  0  0  0  0  0  0  0  0  0
   45.4180   31.5190   46.5470 C   0  0  0  0  0  0  0  0  0  0  0  0
   45.8510   30.5450   47.4250 C   0  0  0  0  0  0  0  0  0  0  0  0
   46.9620   30.7250   48.2590 C   0  0  0  0  0  0  0  0  0  0  0  0
   47.6120   31.9530   48.1520 C   0  0  0  0  0  0  0  0  0  0  0  0
   47.1620   32.8730   47.2880 N   0  0  0  0  0  0  0  0  0  0  0  0
   44.5620   31.2700   45.9630 H   0  0  0  0  0  0  0  0  0  0  0  0
   45.3650   29.5870   47.5260 H   0  0  0  0  0  0  0  0  0  0  0  0
   47.3250   29.9980   48.9480 H   0  0  0  0  0  0  0  0  0  0  0  0
   48.4770   32.1620   48.7650 H   0  0  0  0  0  0  0  0  0  0  0  0
   48.5160   30.9380   42.0070 C   0  0  0  0  0  0  0  0  0  0  0  0
   48.8750   31.0620   43.0450 H   0  0  0  0  0  0  0  0  0  0  0  0
   48.7090   29.8680   41.8010 H   0  0  0  0  0  0  0  0  0  0  0  0
   49.4260   31.5820   41.0920 N   0  0  0  0  0  0  0  0  0  0  0  0
   50.2670   30.8500   40.2930 C   0  0  0  0  0  3  0  0  0  0  0  0
   49.7810   29.8850   39.9800 H   0  0  0  0  0  0  0  0  0  0  0  0
   50.4550   31.5860   38.9750 C   0  0  0  0  0  3  0  0  0  0  0  0
   50.9890   30.9220   38.2510 H   0  0  0  0  0  0  0  0  0  0  0  0
   49.2260   31.9610   38.3450 N   0  0  0  0  0  0  0  0  0  0  0  0
   48.6860   31.1960   37.9130 H   0  0  0  0  0  0  0  0  0  0  0  0
   48.3840   32.7570   39.2200 C   0  0  0  0  0  2  0  0  0  0  0  0
   48.9650   32.8460   40.6140 C   0  0  0  0  0  2  0  0  0  0  0  0
  1  2  2  0  0  0  0
  1 19  1  0  0  0  0
  3  4  1  0  0  0  0
  3  1  1  0  0  0  0
  4  9  1  0  0  0  0
  4 10  1  0  0  0  0
  5 12  1  0  0  0  0
  5  4  1  0  0  0  0
  6  7  1  0  0  0  0
  6  5  1  0  0  0  0
  7 15  1  0  0  0  0
  7  8  1  0  0  0  0
  8 17  1  6  0  0  0
  8 36  1  0  0  0  0
  8  3  1  0  0  0  0
 11  5  1  0  0  0  0
 13  6  1  0  0  0  0
 14  6  1  0  0  0  0
 16  7  1  0  0  0  0
 18 23  2  0  0  0  0
 18 19  1  0  0  0  0
 19 20  2  0  0  0  0
 20 21  1  0  0  0  0
 20 26  1  0  0  0  0
 22 25  1  0  0  0  0
 22 21  2  0  0  0  0
 23 22  1  0  0  0  0
 24 18  1  0  0  0  0
 26 27  2  0  0  0  0
 26 31  1  0  0  0  0
 27 28  1  0  0  0  0
 28 33  1  0  0  0  0
 28 29  2  0  0  0  0
 29 34  1  0  0  0  0
 30 29  1  0  0  0  0
 30 35  1  0  0  0  0
 31 30  2  0  0  0  0
 32 27  1  0  0  0  0
 36 37  1  0  0  0  0
 38 36  1  0  0  0  0
 39 36  1  0  0  0  0
 40 39  1  0  0  0  0
 41 40  1  0  0  0  0
 42 40  1  0  0  0  0
 43 42  1  0  0  0  0
 44 42  1  0  0  0  0
 44 46  1  0  0  0  0
 45 44  1  0  0  0  0
 46 47  1  0  0  0  0
 47 39  1  0  0  0  0
M  END
>  <minimizedAffinity>
-4.67304754

>  <minimizedRMSD>
1.91857898

$$$$
