
 OpenBabel03252504213D

 19 20  0  0  0  0  0  0  0  0999 V2000
   38.3570   27.0940   41.8830 C   0  0  0  0  0  0  0  0  0  0  0  0
   37.8650   27.2140   43.1810 C   0  0  0  0  0  0  0  0  0  0  0  0
   37.5460   28.5120   43.6350 C   0  0  0  0  0  0  0  0  0  0  0  0
   37.7370   29.5450   42.7880 N   0  0  0  0  0  0  0  0  0  0  0  0
   38.2140   29.3860   41.5460 C   0  0  0  0  0  0  0  0  0  0  0  0
   38.5320   28.1500   41.0740 N   0  0  0  0  0  0  0  0  0  0  0  0
   37.7230   26.3640   43.8380 H   0  0  0  0  0  0  0  0  0  0  0  0
   37.1660   28.6630   44.6180 H   0  0  0  0  0  0  0  0  0  0  0  0
   38.4220   30.4650   40.6410 N   0  0  0  0  0  0  0  0  0  0  0  0
   37.7650   30.5760   39.3520 C   0  0  0  0  0  3  0  0  0  0  0  0
   37.1220   29.6770   39.1450 H   0  0  0  0  0  0  0  0  0  0  0  0
   36.9810   31.8570   39.2280 C   0  0  0  0  0  3  0  0  0  0  0  0
   35.9080   31.7080   39.0490 H   0  0  0  0  0  0  0  0  0  0  0  0
   37.1170   32.6970   40.4030 N   0  0  0  0  0  0  0  0  0  0  0  0
   36.5260   32.3850   41.1870 H   0  0  0  0  0  0  0  0  0  0  0  0
   38.5000   32.8760   40.7650 C   0  0  0  0  0  2  0  0  0  0  0  0
   39.2820   31.5840   40.8360 C   0  0  0  0  0  2  0  0  0  0  0  0
   38.7390   25.3980   41.3860 S   0  0  0  0  0  0  0  0  0  0  0  0
   39.4820   25.4540   40.1780 H   0  0  0  0  0  0  0  0  0  0  0  0
  1  2  1  0  0  0  0
  2  3  2  0  0  0  0
  2  7  1  0  0  0  0
  3  8  1  0  0  0  0
  4  3  1  0  0  0  0
  5  4  2  0  0  0  0
  6  5  1  0  0  0  0
  6  1  2  0  0  0  0
  9 17  1  0  0  0  0
  9  5  1  0  0  0  0
 10  9  1  0  0  0  0
 11 10  1  0  0  0  0
 12 10  1  0  0  0  0
 12 14  1  0  0  0  0
 13 12  1  0  0  0  0
 14 16  1  0  0  0  0
 14 15  1  0  0  0  0
 16 17  1  0  0  0  0
 18  1  1  0  0  0  0
 19 18  1  0  0  0  0
M  END
>  <minimizedAffinity>
-4.24394703

$$$$

 OpenBabel03252504213D

 19 20  0  0  0  0  0  0  0  0999 V2000
   36.3630   28.6110   37.8350 C   0  0  0  0  0  0  0  0  0  0  0  0
   35.0290   29.0090   37.8850 C   0  0  0  0  0  0  0  0  0  0  0  0
   34.4310   29.1150   39.1600 C   0  0  0  0  0  0  0  0  0  0  0  0
   35.1860   28.8250   40.2400 N   0  0  0  0  0  0  0  0  0  0  0  0
   36.4680   28.4430   40.1480 C   0  0  0  0  0  0  0  0  0  0  0  0
   37.0770   28.3320   38.9370 N   0  0  0  0  0  0  0  0  0  0  0  0
   34.4490   29.2350   36.9990 H   0  0  0  0  0  0  0  0  0  0  0  0
   33.4150   29.4150   39.2580 H   0  0  0  0  0  0  0  0  0  0  0  0
   37.2770   28.1330   41.2780 N   0  0  0  0  0  0  0  0  0  0  0  0
   38.5010   28.8370   41.6110 C   0  0  0  0  0  3  0  0  0  0  0  0
   38.7490   29.6120   40.8350 H   0  0  0  0  0  0  0  0  0  0  0  0
   38.4470   29.4360   42.9940 C   0  0  0  0  0  3  0  0  0  0  0  0
   38.5660   30.5280   43.0120 H   0  0  0  0  0  0  0  0  0  0  0  0
   37.2090   29.1180   43.6800 N   0  0  0  0  0  0  0  0  0  0  0  0
   36.4200   29.7030   43.3700 H   0  0  0  0  0  0  0  0  0  0  0  0
   36.9280   27.7060   43.6290 C   0  0  0  0  0  2  0  0  0  0  0  0
   37.0350   27.1140   42.2430 C   0  0  0  0  0  2  0  0  0  0  0  0
   37.0460   28.5030   36.1650 S   0  0  0  0  0  0  0  0  0  0  0  0
   38.2910   27.8260   36.2450 H   0  0  0  0  0  0  0  0  0  0  0  0
  1  2  2  0  0  0  0
  1  6  1  0  0  0  0
  2  3  1  0  0  0  0
  3  8  1  0  0  0  0
  3  4  2  0  0  0  0
  5  4  1  0  0  0  0
  5  9  1  0  0  0  0
  6  5  2  0  0  0  0
  7  2  1  0  0  0  0
  9 10  1  0  0  0  0
  9 17  1  0  0  0  0
 10 12  1  0  0  0  0
 11 10  1  0  0  0  0
 12 13  1  0  0  0  0
 12 14  1  0  0  0  0
 15 14  1  0  0  0  0
 16 14  1  0  0  0  0
 17 16  1  0  0  0  0
 18 19  1  0  0  0  0
 18  1  1  0  0  0  0
M  END
>  <minimizedAffinity>
-4.05677986

$$$$

 OpenBabel03252504213D

 19 20  0  0  0  0  0  0  0  0999 V2000
   38.7660   25.7400   41.7240 C   0  0  0  0  0  0  0  0  0  0  0  0
   39.1000   25.9550   43.0600 C   0  0  0  0  0  0  0  0  0  0  0  0
   38.8160   27.2280   43.6010 C   0  0  0  0  0  0  0  0  0  0  0  0
   38.2440   28.1470   42.7950 N   0  0  0  0  0  0  0  0  0  0  0  0
   37.9390   27.8990   41.5140 C   0  0  0  0  0  0  0  0  0  0  0  0
   38.1970   26.6840   40.9580 N   0  0  0  0  0  0  0  0  0  0  0  0
   39.5580   25.1960   43.6810 H   0  0  0  0  0  0  0  0  0  0  0  0
   39.0490   27.4480   44.6160 H   0  0  0  0  0  0  0  0  0  0  0  0
   37.3370   28.8580   40.6510 N   0  0  0  0  0  0  0  0  0  0  0  0
   36.0530   28.6650   40.0020 C   0  0  0  0  0  3  0  0  0  0  0  0
   35.6330   27.6470   40.2260 H   0  0  0  0  0  0  0  0  0  0  0  0
   35.0750   29.7570   40.3540 C   0  0  0  0  0  3  0  0  0  0  0  0
   34.1630   29.3960   40.8480 H   0  0  0  0  0  0  0  0  0  0  0  0
   35.6680   30.7670   41.2100 N   0  0  0  0  0  0  0  0  0  0  0  0
   35.7270   30.4700   42.1960 H   0  0  0  0  0  0  0  0  0  0  0  0
   36.9220   31.2370   40.6800 C   0  0  0  0  0  2  0  0  0  0  0  0
   37.8700   30.1270   40.2870 C   0  0  0  0  0  2  0  0  0  0  0  0
   39.1640   24.0850   41.1150 S   0  0  0  0  0  0  0  0  0  0  0  0
   39.0400   24.0980   39.7010 H   0  0  0  0  0  0  0  0  0  0  0  0
  1  2  1  0  0  0  0
  2  3  2  0  0  0  0
  2  7  1  0  0  0  0
  3  8  1  0  0  0  0
  4  3  1  0  0  0  0
  5  4  2  0  0  0  0
  6  5  1  0  0  0  0
  6  1  2  0  0  0  0
  9  5  1  0  0  0  0
 10 11  1  0  0  0  0
 10 12  1  0  0  0  0
 10  9  1  0  0  0  0
 12 13  1  0  0  0  0
 12 14  1  0  0  0  0
 14 15  1  0  0  0  0
 16 14  1  0  0  0  0
 17  9  1  0  0  0  0
 17 16  1  0  0  0  0
 18  1  1  0  0  0  0
 19 18  1  0  0  0  0
M  END
>  <minimizedAffinity>
-4.03625727

$$$$

 OpenBabel03252504213D

 19 20  0  0  0  0  0  0  0  0999 V2000
   37.0250   28.6720   41.7550 C   0  0  0  0  0  0  0  0  0  0  0  0
   35.8240   28.7660   41.0560 C   0  0  0  0  0  0  0  0  0  0  0  0
   35.6570   29.8760   40.1990 C   0  0  0  0  0  0  0  0  0  0  0  0
   36.6660   30.7680   40.1140 N   0  0  0  0  0  0  0  0  0  0  0  0
   37.8070   30.6420   40.8060 C   0  0  0  0  0  0  0  0  0  0  0  0
   38.0030   29.5840   41.6400 N   0  0  0  0  0  0  0  0  0  0  0  0
   35.0320   28.0320   41.1450 H   0  0  0  0  0  0  0  0  0  0  0  0
   34.7600   29.9980   39.6400 H   0  0  0  0  0  0  0  0  0  0  0  0
   38.8800   31.5740   40.7280 N   0  0  0  0  0  0  0  0  0  0  0  0
   40.2190   31.2290   40.2910 C   0  0  0  0  0  3  0  0  0  0  0  0
   40.3070   30.1280   40.0800 H   0  0  0  0  0  0  0  0  0  0  0  0
   40.6570   32.0560   39.1090 C   0  0  0  0  0  3  0  0  0  0  0  0
   40.8990   31.4640   38.2160 H   0  0  0  0  0  0  0  0  0  0  0  0
   39.6570   33.0360   38.7280 N   0  0  0  0  0  0  0  0  0  0  0  0
   38.8830   32.6260   38.1840 H   0  0  0  0  0  0  0  0  0  0  0  0
   39.2140   33.8040   39.8630 C   0  0  0  0  0  2  0  0  0  0  0  0
   38.8260   32.9600   41.0550 C   0  0  0  0  0  2  0  0  0  0  0  0
   37.1520   27.2220   42.8260 S   0  0  0  0  0  0  0  0  0  0  0  0
   38.2770   27.4010   43.6730 H   0  0  0  0  0  0  0  0  0  0  0  0
  1 18  1  0  0  0  0
  2  7  1  0  0  0  0
  2  1  2  0  0  0  0
  3  2  1  0  0  0  0
  4  3  2  0  0  0  0
  4  5  1  0  0  0  0
  5  6  2  0  0  0  0
  6  1  1  0  0  0  0
  8  3  1  0  0  0  0
  9  5  1  0  0  0  0
  9 17  1  0  0  0  0
 10  9  1  0  0  0  0
 11 10  1  0  0  0  0
 12 10  1  0  0  0  0
 13 12  1  0  0  0  0
 14 12  1  0  0  0  0
 14 16  1  0  0  0  0
 15 14  1  0  0  0  0
 16 17  1  0  0  0  0
 18 19  1  0  0  0  0
M  END
>  <minimizedAffinity>
-3.91812563

$$$$

 OpenBabel03252504213D

 19 20  0  0  0  0  0  0  0  0999 V2000
   36.6900   28.0390   39.7990 C   0  0  0  0  0  0  0  0  0  0  0  0
   36.5670   27.7260   41.1510 C   0  0  0  0  0  0  0  0  0  0  0  0
   37.0020   28.6940   42.0820 C   0  0  0  0  0  0  0  0  0  0  0  0
   37.5050   29.8510   41.6060 N   0  0  0  0  0  0  0  0  0  0  0  0
   37.6080   30.1130   40.2950 C   0  0  0  0  0  0  0  0  0  0  0  0
   37.1980   29.2050   39.3690 N   0  0  0  0  0  0  0  0  0  0  0  0
   36.1570   26.7870   41.5020 H   0  0  0  0  0  0  0  0  0  0  0  0
   36.9310   28.5080   43.1280 H   0  0  0  0  0  0  0  0  0  0  0  0
   38.1370   31.3290   39.7760 N   0  0  0  0  0  0  0  0  0  0  0  0
   37.3890   32.2390   38.9310 C   0  0  0  0  0  3  0  0  0  0  0  0
   36.3670   31.8320   38.6990 H   0  0  0  0  0  0  0  0  0  0  0  0
   37.3100   33.6230   39.5250 C   0  0  0  0  0  3  0  0  0  0  0  0
   36.2850   33.9680   39.7170 H   0  0  0  0  0  0  0  0  0  0  0  0
   38.0480   33.7260   40.7690 N   0  0  0  0  0  0  0  0  0  0  0  0
   37.5380   33.3290   41.5710 H   0  0  0  0  0  0  0  0  0  0  0  0
   39.3870   33.2110   40.6320 C   0  0  0  0  0  2  0  0  0  0  0  0
   39.4480   31.8430   39.9900 C   0  0  0  0  0  2  0  0  0  0  0  0
   36.1090   26.7450   38.6790 S   0  0  0  0  0  0  0  0  0  0  0  0
   36.5490   27.0700   37.3690 H   0  0  0  0  0  0  0  0  0  0  0  0
  1  2  1  0  0  0  0
  2  7  1  0  0  0  0
  2  3  2  0  0  0  0
  3  8  1  0  0  0  0
  4  3  1  0  0  0  0
  5  4  2  0  0  0  0
  6  1  2  0  0  0  0
  6  5  1  0  0  0  0
  9 17  1  0  0  0  0
  9  5  1  0  0  0  0
 10 12  1  0  0  0  0
 10  9  1  0  0  0  0
 11 10  1  0  0  0  0
 12 13  1  0  0  0  0
 12 14  1  0  0  0  0
 14 15  1  0  0  0  0
 16 14  1  0  0  0  0
 17 16  1  0  0  0  0
 18  1  1  0  0  0  0
 19 18  1  0  0  0  0
M  END
>  <minimizedAffinity>
-3.85864234

$$$$

 OpenBabel03252504213D

 19 20  0  0  0  0  0  0  0  0999 V2000
   38.1890   30.9750   40.8160 C   0  0  0  0  0  0  0  0  0  0  0  0
   37.1070   31.7570   40.4180 C   0  0  0  0  0  0  0  0  0  0  0  0
   37.3690   32.8230   39.5300 C   0  0  0  0  0  0  0  0  0  0  0  0
   38.6430   33.0130   39.1260 N   0  0  0  0  0  0  0  0  0  0  0  0
   39.6570   32.2370   39.5340 C   0  0  0  0  0  0  0  0  0  0  0  0
   39.4410   31.2000   40.3890 N   0  0  0  0  0  0  0  0  0  0  0  0
   36.0940   31.5790   40.7590 H   0  0  0  0  0  0  0  0  0  0  0  0
   36.5810   33.4530   39.1920 H   0  0  0  0  0  0  0  0  0  0  0  0
   41.0050   32.4250   39.1190 N   0  0  0  0  0  0  0  0  0  0  0  0
   41.7780   31.4240   38.4070 C   0  0  0  0  0  3  0  0  0  0  0  0
   41.1920   30.4730   38.2810 H   0  0  0  0  0  0  0  0  0  0  0  0
   42.2860   31.9400   37.0850 C   0  0  0  0  0  3  0  0  0  0  0  0
   41.9340   31.3660   36.2180 H   0  0  0  0  0  0  0  0  0  0  0  0
   41.9300   33.3290   36.8670 N   0  0  0  0  0  0  0  0  0  0  0  0
   40.9530   33.4480   36.5630 H   0  0  0  0  0  0  0  0  0  0  0  0
   42.2790   34.1460   38.0010 C   0  0  0  0  0  2  0  0  0  0  0  0
   41.8030   33.5880   39.3230 C   0  0  0  0  0  2  0  0  0  0  0  0
   37.7610   29.6360   41.9520 S   0  0  0  0  0  0  0  0  0  0  0  0
   38.9680   29.1140   42.4860 H   0  0  0  0  0  0  0  0  0  0  0  0
  1 18  1  0  0  0  0
  2  7  1  0  0  0  0
  2  1  1  0  0  0  0
  3  2  2  0  0  0  0
  4  3  1  0  0  0  0
  4  5  2  0  0  0  0
  5  6  1  0  0  0  0
  6  1  2  0  0  0  0
  8  3  1  0  0  0  0
  9 17  1  0  0  0  0
  9  5  1  0  0  0  0
 10  9  1  0  0  0  0
 11 10  1  0  0  0  0
 12 10  1  0  0  0  0
 13 12  1  0  0  0  0
 14 12  1  0  0  0  0
 14 16  1  0  0  0  0
 15 14  1  0  0  0  0
 16 17  1  0  0  0  0
 18 19  1  0  0  0  0
M  END
>  <minimizedAffinity>
-3.81131506

$$$$

 OpenBabel03252504213D

 19 20  0  0  0  0  0  0  0  0999 V2000
   37.3540   24.6200   39.7100 C   0  0  0  0  0  0  0  0  0  0  0  0
   37.0040   23.8060   40.7850 C   0  0  0  0  0  0  0  0  0  0  0  0
   36.9500   24.4070   42.0620 C   0  0  0  0  0  0  0  0  0  0  0  0
   37.2380   25.7220   42.1560 N   0  0  0  0  0  0  0  0  0  0  0  0
   37.5720   26.4700   41.0950 C   0  0  0  0  0  0  0  0  0  0  0  0
   37.6330   25.9250   39.8500 N   0  0  0  0  0  0  0  0  0  0  0  0
   36.7770   22.7530   40.6770 H   0  0  0  0  0  0  0  0  0  0  0  0
   36.6880   23.8340   42.9190 H   0  0  0  0  0  0  0  0  0  0  0  0
   37.8800   27.8580   41.1780 N   0  0  0  0  0  0  0  0  0  0  0  0
   37.1410   28.8910   40.4790 C   0  0  0  0  0  3  0  0  0  0  0  0
   36.3400   28.4480   39.8260 H   0  0  0  0  0  0  0  0  0  0  0  0
   36.5770   29.9200   41.4260 C   0  0  0  0  0  3  0  0  0  0  0  0
   35.4830   30.0050   41.3920 H   0  0  0  0  0  0  0  0  0  0  0  0
   36.9550   29.6610   42.8020 N   0  0  0  0  0  0  0  0  0  0  0  0
   36.3910   28.9170   43.2380 H   0  0  0  0  0  0  0  0  0  0  0  0
   38.3750   29.4480   42.9270 C   0  0  0  0  0  2  0  0  0  0  0  0
   38.9300   28.4510   41.9370 C   0  0  0  0  0  2  0  0  0  0  0  0
   37.3980   23.7690   38.1160 S   0  0  0  0  0  0  0  0  0  0  0  0
   38.0320   24.6270   37.1790 H   0  0  0  0  0  0  0  0  0  0  0  0
  1  6  2  0  0  0  0
  1  2  1  0  0  0  0
  2  3  2  0  0  0  0
  3  4  1  0  0  0  0
  3  8  1  0  0  0  0
  5  9  1  0  0  0  0
  5  4  2  0  0  0  0
  6  5  1  0  0  0  0
  7  2  1  0  0  0  0
  9 17  1  0  0  0  0
 10  9  1  0  0  0  0
 10 12  1  0  0  0  0
 11 10  1  0  0  0  0
 12 14  1  0  0  0  0
 13 12  1  0  0  0  0
 14 16  1  0  0  0  0
 14 15  1  0  0  0  0
 17 16  1  0  0  0  0
 18  1  1  0  0  0  0
 19 18  1  0  0  0  0
M  END
>  <minimizedAffinity>
-3.77232742

$$$$

 OpenBabel03252504213D

 19 20  0  0  0  0  0  0  0  0999 V2000
   37.7560   28.4310   42.5900 C   0  0  0  0  0  0  0  0  0  0  0  0
   39.0570   28.4290   43.0880 C   0  0  0  0  0  0  0  0  0  0  0  0
   40.0140   29.2120   42.4060 C   0  0  0  0  0  0  0  0  0  0  0  0
   39.6080   29.9060   41.3220 N   0  0  0  0  0  0  0  0  0  0  0  0
   38.3450   29.8800   40.8750 C   0  0  0  0  0  0  0  0  0  0  0  0
   37.3960   29.1380   41.5080 N   0  0  0  0  0  0  0  0  0  0  0  0
   39.3520   27.8600   43.9620 H   0  0  0  0  0  0  0  0  0  0  0  0
   41.0230   29.2480   42.7420 H   0  0  0  0  0  0  0  0  0  0  0  0
   37.9010   30.6060   39.7330 N   0  0  0  0  0  0  0  0  0  0  0  0
   36.8610   31.6170   39.7740 C   0  0  0  0  0  3  0  0  0  0  0  0
   36.4200   31.7050   40.8040 H   0  0  0  0  0  0  0  0  0  0  0  0
   37.3490   32.9490   39.2650 C   0  0  0  0  0  3  0  0  0  0  0  0
   37.2810   33.7600   40.0020 H   0  0  0  0  0  0  0  0  0  0  0  0
   38.7230   32.8870   38.8040 N   0  0  0  0  0  0  0  0  0  0  0  0
   39.4050   32.9070   39.5770 H   0  0  0  0  0  0  0  0  0  0  0  0
   38.9250   31.7890   37.8930 C   0  0  0  0  0  2  0  0  0  0  0  0
   38.3850   30.4720   38.4000 C   0  0  0  0  0  2  0  0  0  0  0  0
   36.6000   27.4030   43.5250 S   0  0  0  0  0  0  0  0  0  0  0  0
   35.4120   27.2740   42.7590 H   0  0  0  0  0  0  0  0  0  0  0  0
  1  2  1  0  0  0  0
  1 18  1  0  0  0  0
  2  7  1  0  0  0  0
  3  8  1  0  0  0  0
  3  2  2  0  0  0  0
  4  3  1  0  0  0  0
  5  4  2  0  0  0  0
  5  6  1  0  0  0  0
  6  1  2  0  0  0  0
  9 10  1  0  0  0  0
  9  5  1  0  0  0  0
 10 11  1  0  0  0  0
 12 10  1  0  0  0  0
 12 13  1  0  0  0  0
 14 12  1  0  0  0  0
 14 15  1  0  0  0  0
 16 17  1  0  0  0  0
 16 14  1  0  0  0  0
 17  9  1  0  0  0  0
 19 18  1  0  0  0  0
M  END
>  <minimizedAffinity>
-3.75342822

$$$$

 OpenBabel03252504213D

 19 20  0  0  0  0  0  0  0  0999 V2000
   40.0150   28.3050   40.9090 C   0  0  0  0  0  0  0  0  0  0  0  0
   39.6280   28.1730   42.2400 C   0  0  0  0  0  0  0  0  0  0  0  0
   39.0210   29.2910   42.8530 C   0  0  0  0  0  0  0  0  0  0  0  0
   38.8570   30.4070   42.1130 N   0  0  0  0  0  0  0  0  0  0  0  0
   39.2450   30.4940   40.8330 C   0  0  0  0  0  0  0  0  0  0  0  0
   39.8320   29.4360   40.2100 N   0  0  0  0  0  0  0  0  0  0  0  0
   39.7730   27.2620   42.8080 H   0  0  0  0  0  0  0  0  0  0  0  0
   38.7050   29.2470   43.8680 H   0  0  0  0  0  0  0  0  0  0  0  0
   39.0790   31.6640   40.0400 N   0  0  0  0  0  0  0  0  0  0  0  0
   38.3030   31.7060   38.8150 C   0  0  0  0  0  3  0  0  0  0  0  0
   37.9030   30.6890   38.5530 H   0  0  0  0  0  0  0  0  0  0  0  0
   37.2010   32.7340   38.8820 C   0  0  0  0  0  3  0  0  0  0  0  0
   36.1940   32.3160   38.7560 H   0  0  0  0  0  0  0  0  0  0  0  0
   37.2180   33.4720   40.1300 N   0  0  0  0  0  0  0  0  0  0  0  0
   36.8030   32.9440   40.9120 H   0  0  0  0  0  0  0  0  0  0  0  0
   38.5320   33.9860   40.4210 C   0  0  0  0  0  2  0  0  0  0  0  0
   39.6290   32.9520   40.3010 C   0  0  0  0  0  2  0  0  0  0  0  0
   40.7820   26.8260   40.2060 S   0  0  0  0  0  0  0  0  0  0  0  0
   41.3720   27.1870   38.9670 H   0  0  0  0  0  0  0  0  0  0  0  0
  1  2  1  0  0  0  0
  2  7  1  0  0  0  0
  2  3  2  0  0  0  0
  3  8  1  0  0  0  0
  4  3  1  0  0  0  0
  5  4  2  0  0  0  0
  6  5  1  0  0  0  0
  6  1  2  0  0  0  0
  9 17  1  0  0  0  0
  9  5  1  0  0  0  0
 10 12  1  0  0  0  0
 10  9  1  0  0  0  0
 11 10  1  0  0  0  0
 12 14  1  0  0  0  0
 13 12  1  0  0  0  0
 14 16  1  0  0  0  0
 14 15  1  0  0  0  0
 17 16  1  0  0  0  0
 18  1  1  0  0  0  0
 19 18  1  0  0  0  0
M  END
>  <minimizedAffinity>
-3.7198689

$$$$
