
 OpenBabel03242513223D

 34 36  0  0  1  0  0  0  0  0999 V2000
   36.6540   30.9760   39.9260 C   0  0  2  0  0  0  0  0  0  0  0  0
   36.6230   30.3700   38.5140 C   0  0  0  0  0  0  0  0  0  0  0  0
   37.5270   31.4350   37.8710 C   0  0  0  0  0  0  0  0  0  0  0  0
   38.5540   31.6140   38.7850 O   0  0  0  0  0  0  0  0  0  0  0  0
   38.1190   31.2250   40.0220 C   0  0  1  0  0  0  0  0  0  0  0  0
   36.0480   31.9040   39.9220 H   0  0  0  0  0  0  0  0  0  0  0  0
   35.6180   30.3700   38.0950 H   0  0  0  0  0  0  0  0  0  0  0  0
   37.1130   29.3870   38.5530 H   0  0  0  0  0  0  0  0  0  0  0  0
   37.8570   31.1040   36.8830 H   0  0  0  0  0  0  0  0  0  0  0  0
   36.9130   32.3750   37.8550 H   0  0  0  0  0  0  0  0  0  0  0  0
   38.6240   30.2350   40.2270 H   0  0  0  0  0  0  0  0  0  0  0  0
   38.5300   32.0950   41.0740 N   0  0  2  0  0  0  0  0  0  0  0  0
   38.8130   33.4420   40.7110 C   0  0  0  0  0  3  0  0  0  0  0  0
   38.0890   33.8980   40.0420 H   0  0  0  0  0  0  0  0  0  0  0  0
   40.1970   33.6370   40.1400 C   0  0  0  0  0  3  0  0  0  0  0  0
   40.3000   33.2600   39.1030 H   0  0  0  0  0  0  0  0  0  0  0  0
   41.2150   33.0780   41.0250 N   0  0  0  0  0  0  0  0  0  0  0  0
   41.1450   33.6200   41.9280 H   0  0  0  0  0  0  0  0  0  0  0  0
   40.9370   31.7070   41.3310 C   0  0  0  0  0  2  0  0  0  0  0  0
   39.5540   31.5330   41.8940 C   0  0  0  0  0  2  0  0  0  0  0  0
   36.0970   30.0460   40.9470 C   0  0  0  0  0  0  0  0  0  0  0  0
   35.1400   29.6250   40.5230 H   0  0  0  0  0  0  0  0  0  0  0  0
   35.7940   30.5340   41.8950 H   0  0  0  0  0  0  0  0  0  0  0  0
   36.9410   28.2130   42.3560 C   0  0  0  0  0  3  0  0  0  0  0  0
   36.9720   28.8770   41.2170 C   0  0  0  0  0  3  0  0  0  0  0  0
   38.4270   24.8580   42.2490 C   0  0  0  0  0  0  0  0  0  0  0  0
   39.5510   25.0130   43.1050 C   0  0  0  0  0  0  0  0  0  0  0  0
   39.7460   26.2710   43.6800 C   0  0  0  0  0  0  0  0  0  0  0  0
   38.8680   27.2790   43.4050 N   0  0  0  0  0  0  0  0  0  0  0  0
   37.8090   27.0770   42.5800 C   0  0  0  0  0  0  0  0  0  0  0  0
   37.5780   25.8940   42.0040 N   0  0  0  0  0  0  0  0  0  0  0  0
   38.2020   23.9140   41.7610 H   0  0  0  0  0  0  0  0  0  0  0  0
   40.1900   24.1750   43.2690 H   0  0  0  0  0  0  0  0  0  0  0  0
   40.5940   26.4200   44.3360 H   0  0  0  0  0  0  0  0  0  0  0  0
  1  6  1  1  0  0  0
  1  5  1  0  0  0  0
  1 21  1  0  0  0  0
  2  8  1  0  0  0  0
  2  1  1  0  0  0  0
  3  2  1  0  0  0  0
  3  4  1  0  0  0  0
  4  5  1  0  0  0  0
  5 11  1  1  0  0  0
  5 12  1  0  0  0  0
  7  2  1  0  0  0  0
  9  3  1  0  0  0  0
 10  3  1  0  0  0  0
 12 20  1  6  0  0  0
 13 12  1  0  0  0  0
 14 13  1  0  0  0  0
 15 13  1  0  0  0  0
 15 17  1  0  0  0  0
 16 15  1  0  0  0  0
 17 19  1  0  0  0  0
 17 18  1  0  0  0  0
 19 20  1  0  0  0  0
 21 25  1  0  0  0  0
 21 23  1  0  0  0  0
 22 21  1  0  0  0  0
 24 30  1  0  0  0  0
 25 24  2  0  0  0  0
 26 27  1  0  0  0  0
 27 33  1  0  0  0  0
 27 28  2  0  0  0  0
 28 34  1  0  0  0  0
 29 28  1  0  0  0  0
 30 29  2  0  0  0  0
 31 26  2  0  0  0  0
 31 30  1  0  0  0  0
 32 26  1  0  0  0  0
M  END
>  <minimizedAffinity>
-5.06801939

$$$$

 OpenBabel03242513223D

 34 36  0  0  1  0  0  0  0  0999 V2000
   37.5810   25.9010   41.9600 C   0  0  2  0  0  0  0  0  0  0  0  0
   36.8410   24.5560   42.0390 C   0  0  0  0  0  0  0  0  0  0  0  0
   37.9490   23.7330   41.3600 C   0  0  0  0  0  0  0  0  0  0  0  0
   39.1230   24.1860   41.9420 O   0  0  0  0  0  0  0  0  0  0  0  0
   38.9140   25.4430   42.4390 C   0  0  1  0  0  0  0  0  0  0  0  0
   37.5840   26.2370   40.9030 H   0  0  0  0  0  0  0  0  0  0  0  0
   35.9180   24.5670   41.4620 H   0  0  0  0  0  0  0  0  0  0  0  0
   36.7270   24.2920   43.1000 H   0  0  0  0  0  0  0  0  0  0  0  0
   37.7630   22.6650   41.4970 H   0  0  0  0  0  0  0  0  0  0  0  0
   37.9480   24.0630   40.2870 H   0  0  0  0  0  0  0  0  0  0  0  0
   38.8540   25.3240   43.5620 H   0  0  0  0  0  0  0  0  0  0  0  0
   39.9970   26.3390   42.2020 N   0  0  2  0  0  0  0  0  0  0  0  0
   40.5760   26.3080   40.9020 C   0  0  0  0  0  3  0  0  0  0  0  0
   39.8630   26.2790   40.0840 H   0  0  0  0  0  0  0  0  0  0  0  0
   41.5820   25.1970   40.7150 C   0  0  0  0  0  3  0  0  0  0  0  0
   41.1160   24.1980   40.6100 H   0  0  0  0  0  0  0  0  0  0  0  0
   42.5920   25.2190   41.7690 N   0  0  0  0  0  0  0  0  0  0  0  0
   43.0920   26.1430   41.6750 H   0  0  0  0  0  0  0  0  0  0  0  0
   41.9860   25.1940   43.0660 C   0  0  0  0  0  2  0  0  0  0  0  0
   40.9860   26.3040   43.2320 C   0  0  0  0  0  2  0  0  0  0  0  0
   36.9290   26.9500   42.7930 C   0  0  0  0  0  0  0  0  0  0  0  0
   37.5520   27.0630   43.7260 H   0  0  0  0  0  0  0  0  0  0  0  0
   35.9190   26.6800   43.1600 H   0  0  0  0  0  0  0  0  0  0  0  0
   37.2610   28.4740   40.8890 C   0  0  0  0  0  3  0  0  0  0  0  0
   36.9130   28.2870   42.1470 C   0  0  0  0  0  3  0  0  0  0  0  0
   37.2930   32.1150   40.4290 C   0  0  0  0  0  0  0  0  0  0  0  0
   37.1520   32.2290   39.0190 C   0  0  0  0  0  0  0  0  0  0  0  0
   37.0520   31.0420   38.2910 C   0  0  0  0  0  0  0  0  0  0  0  0
   37.0930   29.8450   38.9460 N   0  0  0  0  0  0  0  0  0  0  0  0
   37.2290   29.7930   40.2960 C   0  0  0  0  0  0  0  0  0  0  0  0
   37.3290   30.8990   41.0390 N   0  0  0  0  0  0  0  0  0  0  0  0
   37.3780   32.9880   41.0700 H   0  0  0  0  0  0  0  0  0  0  0  0
   37.1290   33.2010   38.5830 H   0  0  0  0  0  0  0  0  0  0  0  0
   36.9440   31.0950   37.2140 H   0  0  0  0  0  0  0  0  0  0  0  0
  1  6  1  6  0  0  0
  1  2  1  0  0  0  0
  1  5  1  0  0  0  0
  1 21  1  0  0  0  0
  2  8  1  0  0  0  0
  3  9  1  0  0  0  0
  3  4  1  0  0  0  0
  3  2  1  0  0  0  0
  4  5  1  0  0  0  0
  5 11  1  1  0  0  0
  7  2  1  0  0  0  0
 10  3  1  0  0  0  0
 12  5  1  0  0  0  0
 12 20  1  1  0  0  0
 13 12  1  0  0  0  0
 14 13  1  0  0  0  0
 15 13  1  0  0  0  0
 15 17  1  0  0  0  0
 16 15  1  0  0  0  0
 17 19  1  0  0  0  0
 18 17  1  0  0  0  0
 19 20  1  0  0  0  0
 21 23  1  0  0  0  0
 21 22  1  0  0  0  0
 24 25  2  0  0  0  0
 25 21  1  0  0  0  0
 26 31  1  0  0  0  0
 26 32  1  0  0  0  0
 27 26  2  0  0  0  0
 28 29  2  0  0  0  0
 28 27  1  0  0  0  0
 29 30  1  0  0  0  0
 30 24  1  0  0  0  0
 30 31  2  0  0  0  0
 33 27  1  0  0  0  0
 34 28  1  0  0  0  0
M  END
>  <minimizedAffinity>
-4.88195753

$$$$

 OpenBabel03242513223D

 34 36  0  0  1  0  0  0  0  0999 V2000
   37.5490   26.5830   43.0600 C   0  0  2  0  0  0  0  0  0  0  0  0
   38.8670   27.2180   43.5330 C   0  0  0  0  0  0  0  0  0  0  0  0
   39.7330   25.9700   43.2900 C   0  0  0  0  0  0  0  0  0  0  0  0
   39.3180   25.4960   42.0550 O   0  0  0  0  0  0  0  0  0  0  0  0
   38.0520   25.9500   41.8100 C   0  0  1  0  0  0  0  0  0  0  0  0
   37.2200   25.8490   43.8240 H   0  0  0  0  0  0  0  0  0  0  0  0
   38.8270   27.4980   44.5840 H   0  0  0  0  0  0  0  0  0  0  0  0
   39.1200   28.0330   42.8410 H   0  0  0  0  0  0  0  0  0  0  0  0
   40.7930   26.2320   43.3380 H   0  0  0  0  0  0  0  0  0  0  0  0
   39.4100   25.2290   44.0690 H   0  0  0  0  0  0  0  0  0  0  0  0
   38.1610   26.7630   41.0320 H   0  0  0  0  0  0  0  0  0  0  0  0
   37.1950   24.9700   41.2270 N   0  0  2  0  0  0  0  0  0  0  0  0
   37.6950   23.6380   41.1760 C   0  0  0  0  0  3  0  0  0  0  0  0
   38.1750   23.2940   42.0870 H   0  0  0  0  0  0  0  0  0  0  0  0
   38.6210   23.3830   40.0090 C   0  0  0  0  0  3  0  0  0  0  0  0
   39.6250   23.8320   40.1410 H   0  0  0  0  0  0  0  0  0  0  0  0
   38.0030   23.7890   38.7500 N   0  0  0  0  0  0  0  0  0  0  0  0
   37.1470   23.1850   38.6370 H   0  0  0  0  0  0  0  0  0  0  0  0
   37.5580   25.1490   38.8080 C   0  0  0  0  0  2  0  0  0  0  0  0
   36.6420   25.3840   39.9770 C   0  0  0  0  0  2  0  0  0  0  0  0
   36.4730   27.5960   42.8750 C   0  0  0  0  0  0  0  0  0  0  0  0
   36.2830   28.0630   43.8840 H   0  0  0  0  0  0  0  0  0  0  0  0
   35.4940   27.1740   42.5710 H   0  0  0  0  0  0  0  0  0  0  0  0
   36.1530   29.0600   40.9230 C   0  0  0  0  0  3  0  0  0  0  0  0
   36.8650   28.7110   41.9770 C   0  0  0  0  0  3  0  0  0  0  0  0
   37.0870   31.0700   37.9980 C   0  0  0  0  0  0  0  0  0  0  0  0
   37.3650   32.3320   38.5910 C   0  0  0  0  0  0  0  0  0  0  0  0
   37.2160   32.4310   39.9760 C   0  0  0  0  0  0  0  0  0  0  0  0
   36.8200   31.3370   40.6900 N   0  0  0  0  0  0  0  0  0  0  0  0
   36.5670   30.1550   40.0730 C   0  0  0  0  0  0  0  0  0  0  0  0
   36.6940   30.0060   38.7510 N   0  0  0  0  0  0  0  0  0  0  0  0
   37.1780   30.9070   36.9270 H   0  0  0  0  0  0  0  0  0  0  0  0
   37.6700   33.1380   37.9640 H   0  0  0  0  0  0  0  0  0  0  0  0
   37.4190   33.3790   40.4580 H   0  0  0  0  0  0  0  0  0  0  0  0
  1  2  1  0  0  0  0
  1  6  1  1  0  0  0
  2  7  1  0  0  0  0
  3  9  1  0  0  0  0
  3  2  1  0  0  0  0
  3 10  1  0  0  0  0
  4  3  1  0  0  0  0
  5 11  1  6  0  0  0
  5  4  1  0  0  0  0
  5  1  1  0  0  0  0
  8  2  1  0  0  0  0
 12 20  1  6  0  0  0
 12  5  1  0  0  0  0
 13 12  1  0  0  0  0
 13 14  1  0  0  0  0
 15 16  1  0  0  0  0
 15 13  1  0  0  0  0
 17 19  1  0  0  0  0
 17 15  1  0  0  0  0
 18 17  1  0  0  0  0
 19 20  1  0  0  0  0
 21  1  1  0  0  0  0
 21 22  1  0  0  0  0
 23 21  1  0  0  0  0
 24 25  2  0  0  0  0
 25 21  1  0  0  0  0
 26 27  2  0  0  0  0
 26 31  1  0  0  0  0
 27 28  1  0  0  0  0
 28 34  1  0  0  0  0
 28 29  2  0  0  0  0
 30 29  1  0  0  0  0
 30 24  1  0  0  0  0
 31 30  2  0  0  0  0
 32 26  1  0  0  0  0
 33 27  1  0  0  0  0
M  END
>  <minimizedAffinity>
-4.8428545

$$$$

 OpenBabel03242513223D

 34 36  0  0  1  0  0  0  0  0999 V2000
   39.5700   30.1960   42.0590 C   0  0  2  0  0  0  0  0  0  0  0  0
   40.6940   31.0180   42.7110 C   0  0  0  0  0  0  0  0  0  0  0  0
   41.1250   31.7370   41.4200 C   0  0  0  0  0  0  0  0  0  0  0  0
   39.9330   32.1050   40.8150 O   0  0  0  0  0  0  0  0  0  0  0  0
   38.9350   31.2870   41.2700 C   0  0  1  0  0  0  0  0  0  0  0  0
   40.0320   29.4080   41.4290 H   0  0  0  0  0  0  0  0  0  0  0  0
   41.4800   30.3810   43.1140 H   0  0  0  0  0  0  0  0  0  0  0  0
   40.2360   31.7090   43.4310 H   0  0  0  0  0  0  0  0  0  0  0  0
   41.7850   32.5740   41.6580 H   0  0  0  0  0  0  0  0  0  0  0  0
   41.6030   30.9440   40.7850 H   0  0  0  0  0  0  0  0  0  0  0  0
   38.3230   31.9160   41.9820 H   0  0  0  0  0  0  0  0  0  0  0  0
   38.0300   30.8660   40.2510 N   0  0  2  0  0  0  0  0  0  0  0  0
   38.6050   30.5140   38.9960 C   0  0  0  0  0  3  0  0  0  0  0  0
   39.4930   29.8930   39.0580 H   0  0  0  0  0  0  0  0  0  0  0  0
   38.8980   31.7020   38.1110 C   0  0  0  0  0  3  0  0  0  0  0  0
   39.7840   32.2820   38.4350 H   0  0  0  0  0  0  0  0  0  0  0  0
   37.7190   32.5490   37.9600 N   0  0  0  0  0  0  0  0  0  0  0  0
   36.9890   31.9510   37.4880 H   0  0  0  0  0  0  0  0  0  0  0  0
   37.1920   32.9340   39.2340 C   0  0  0  0  0  2  0  0  0  0  0  0
   36.9110   31.7400   40.1030 C   0  0  0  0  0  2  0  0  0  0  0  0
   38.6920   29.5450   43.0710 C   0  0  0  0  0  0  0  0  0  0  0  0
   37.6650   29.9980   42.9550 H   0  0  0  0  0  0  0  0  0  0  0  0
   38.9740   29.7510   44.1220 H   0  0  0  0  0  0  0  0  0  0  0  0
   38.2410   27.5740   41.6680 C   0  0  0  0  0  3  0  0  0  0  0  0
   38.5220   28.0870   42.8500 C   0  0  0  0  0  3  0  0  0  0  0  0
   38.8260   23.9510   41.7090 C   0  0  0  0  0  0  0  0  0  0  0  0
   37.6440   23.4600   41.0890 C   0  0  0  0  0  0  0  0  0  0  0  0
   36.6970   24.4050   40.6860 C   0  0  0  0  0  0  0  0  0  0  0  0
   36.9390   25.7320   40.8960 N   0  0  0  0  0  0  0  0  0  0  0  0
   38.0850   26.1460   41.4930 C   0  0  0  0  0  0  0  0  0  0  0  0
   39.0230   25.2840   41.8990 N   0  0  0  0  0  0  0  0  0  0  0  0
   39.6120   23.2840   42.0530 H   0  0  0  0  0  0  0  0  0  0  0  0
   37.5300   22.4080   40.9610 H   0  0  0  0  0  0  0  0  0  0  0  0
   35.7860   24.0630   40.2110 H   0  0  0  0  0  0  0  0  0  0  0  0
  1  6  1  6  0  0  0
  1  2  1  0  0  0  0
  1 21  1  0  0  0  0
  2  7  1  0  0  0  0
  2  8  1  0  0  0  0
  3  9  1  0  0  0  0
  3  2  1  0  0  0  0
  4  5  1  0  0  0  0
  4  3  1  0  0  0  0
  5 11  1  1  0  0  0
  5  1  1  0  0  0  0
 10  3  1  0  0  0  0
 12 20  1  6  0  0  0
 12  5  1  0  0  0  0
 13 14  1  0  0  0  0
 13 12  1  0  0  0  0
 15 16  1  0  0  0  0
 15 13  1  0  0  0  0
 17 15  1  0  0  0  0
 17 19  1  0  0  0  0
 18 17  1  0  0  0  0
 19 20  1  0  0  0  0
 21 23  1  0  0  0  0
 22 21  1  0  0  0  0
 24 25  2  0  0  0  0
 25 21  1  0  0  0  0
 26 31  1  0  0  0  0
 26 32  1  0  0  0  0
 27 26  2  0  0  0  0
 28 29  2  0  0  0  0
 28 27  1  0  0  0  0
 29 30  1  0  0  0  0
 30 24  1  0  0  0  0
 30 31  2  0  0  0  0
 33 27  1  0  0  0  0
 34 28  1  0  0  0  0
M  END
>  <minimizedAffinity>
-4.71755028

$$$$

 OpenBabel03242513223D

 34 36  0  0  1  0  0  0  0  0999 V2000
   36.8900   28.9320   41.8450 C   0  0  2  0  0  0  0  0  0  0  0  0
   36.8070   27.5950   41.0910 C   0  0  0  0  0  0  0  0  0  0  0  0
   36.4230   28.2100   39.7330 C   0  0  0  0  0  0  0  0  0  0  0  0
   37.2620   29.3040   39.5990 O   0  0  0  0  0  0  0  0  0  0  0  0
   37.6790   29.6970   40.8420 C   0  0  1  0  0  0  0  0  0  0  0  0
   35.8600   29.3190   41.9850 H   0  0  0  0  0  0  0  0  0  0  0  0
   36.0270   26.9510   41.4920 H   0  0  0  0  0  0  0  0  0  0  0  0
   37.8130   27.1530   41.0690 H   0  0  0  0  0  0  0  0  0  0  0  0
   36.5250   27.4650   38.9400 H   0  0  0  0  0  0  0  0  0  0  0  0
   35.3760   28.5930   39.8680 H   0  0  0  0  0  0  0  0  0  0  0  0
   38.7560   29.3650   40.9240 H   0  0  0  0  0  0  0  0  0  0  0  0
   37.6960   31.1120   41.0180 N   0  0  2  0  0  0  0  0  0  0  0  0
   36.8290   31.8690   40.1800 C   0  0  0  0  0  3  0  0  0  0  0  0
   35.8270   31.4660   40.0760 H   0  0  0  0  0  0  0  0  0  0  0  0
   37.3960   32.1310   38.8050 C   0  0  0  0  0  3  0  0  0  0  0  0
   37.3750   31.2410   38.1450 H   0  0  0  0  0  0  0  0  0  0  0  0
   38.7320   32.7150   38.8880 N   0  0  0  0  0  0  0  0  0  0  0  0
   38.6150   33.6380   39.3850 H   0  0  0  0  0  0  0  0  0  0  0  0
   39.5990   31.9080   39.6920 C   0  0  0  0  0  2  0  0  0  0  0  0
   39.0170   31.6540   41.0550 C   0  0  0  0  0  2  0  0  0  0  0  0
   37.5300   28.7820   43.1820 C   0  0  0  0  0  0  0  0  0  0  0  0
   37.0130   27.9240   43.7000 H   0  0  0  0  0  0  0  0  0  0  0  0
   37.3850   29.6480   43.8580 H   0  0  0  0  0  0  0  0  0  0  0  0
   39.4330   27.2790   43.5950 C   0  0  0  0  0  3  0  0  0  0  0  0
   38.9650   28.4100   43.1070 C   0  0  0  0  0  3  0  0  0  0  0  0
   42.5990   25.4320   43.3870 C   0  0  0  0  0  0  0  0  0  0  0  0
   43.5460   26.4890   43.3180 C   0  0  0  0  0  0  0  0  0  0  0  0
   43.0480   27.7940   43.3470 C   0  0  0  0  0  0  0  0  0  0  0  0
   41.7010   27.9980   43.4380 N   0  0  0  0  0  0  0  0  0  0  0  0
   40.8390   26.9510   43.5010 C   0  0  0  0  0  0  0  0  0  0  0  0
   41.2640   25.6830   43.4760 N   0  0  0  0  0  0  0  0  0  0  0  0
   42.9010   24.3880   43.3700 H   0  0  0  0  0  0  0  0  0  0  0  0
   44.5820   26.2470   43.2490 H   0  0  0  0  0  0  0  0  0  0  0  0
   43.7440   28.6210   43.2960 H   0  0  0  0  0  0  0  0  0  0  0  0
  1  6  1  1  0  0  0
  1 21  1  0  0  0  0
  2  7  1  0  0  0  0
  2  1  1  0  0  0  0
  3 10  1  0  0  0  0
  3  2  1  0  0  0  0
  4  3  1  0  0  0  0
  4  5  1  0  0  0  0
  5 11  1  1  0  0  0
  5 12  1  0  0  0  0
  5  1  1  0  0  0  0
  8  2  1  0  0  0  0
  9  3  1  0  0  0  0
 12 20  1  6  0  0  0
 13 12  1  0  0  0  0
 14 13  1  0  0  0  0
 15 17  1  0  0  0  0
 15 13  1  0  0  0  0
 16 15  1  0  0  0  0
 17 18  1  0  0  0  0
 17 19  1  0  0  0  0
 19 20  1  0  0  0  0
 21 22  1  0  0  0  0
 21 23  1  0  0  0  0
 25 21  1  0  0  0  0
 25 24  2  0  0  0  0
 26 31  1  0  0  0  0
 27 28  1  0  0  0  0
 27 26  2  0  0  0  0
 28 29  2  0  0  0  0
 29 30  1  0  0  0  0
 30 24  1  0  0  0  0
 31 30  2  0  0  0  0
 32 26  1  0  0  0  0
 33 27  1  0  0  0  0
 34 28  1  0  0  0  0
M  END
>  <minimizedAffinity>
-4.67434359

$$$$

 OpenBabel03242513223D

 34 36  0  0  1  0  0  0  0  0999 V2000
   36.0880   30.4730   40.7160 C   0  0  2  0  0  0  0  0  0  0  0  0
   36.7280   31.3840   39.6570 C   0  0  0  0  0  0  0  0  0  0  0  0
   37.8660   31.8910   40.5590 C   0  0  0  0  0  0  0  0  0  0  0  0
   38.3230   30.7550   41.2090 O   0  0  0  0  0  0  0  0  0  0  0  0
   37.3280   29.8170   41.2140 C   0  0  1  0  0  0  0  0  0  0  0  0
   35.5930   31.1130   41.4750 H   0  0  0  0  0  0  0  0  0  0  0  0
   36.0550   32.1830   39.3490 H   0  0  0  0  0  0  0  0  0  0  0  0
   37.1030   30.7490   38.8420 H   0  0  0  0  0  0  0  0  0  0  0  0
   38.6240   32.4010   39.9590 H   0  0  0  0  0  0  0  0  0  0  0  0
   37.3690   32.5480   41.3220 H   0  0  0  0  0  0  0  0  0  0  0  0
   37.6350   29.0390   40.4540 H   0  0  0  0  0  0  0  0  0  0  0  0
   37.2040   29.1200   42.4520 N   0  0  2  0  0  0  0  0  0  0  0  0
   38.3460   29.1260   43.3020 C   0  0  0  0  0  3  0  0  0  0  0  0
   38.8350   30.0890   43.4050 H   0  0  0  0  0  0  0  0  0  0  0  0
   39.3800   28.0880   42.9330 C   0  0  0  0  0  3  0  0  0  0  0  0
   39.9620   28.3530   42.0290 H   0  0  0  0  0  0  0  0  0  0  0  0
   38.7790   26.7620   42.8250 N   0  0  0  0  0  0  0  0  0  0  0  0
   38.4010   26.5340   43.7830 H   0  0  0  0  0  0  0  0  0  0  0  0
   37.6670   26.7710   41.9230 C   0  0  0  0  0  2  0  0  0  0  0  0
   36.6510   27.8120   42.3040 C   0  0  0  0  0  2  0  0  0  0  0  0
   35.0720   29.5560   40.1280 C   0  0  0  0  0  0  0  0  0  0  0  0
   34.1000   30.1260   40.0840 H   0  0  0  0  0  0  0  0  0  0  0  0
   34.8480   28.6640   40.7460 H   0  0  0  0  0  0  0  0  0  0  0  0
   34.4390   28.8900   37.8460 C   0  0  0  0  0  3  0  0  0  0  0  0
   35.3780   29.1610   38.7300 C   0  0  0  0  0  3  0  0  0  0  0  0
   34.5080   27.1960   34.5900 C   0  0  0  0  0  0  0  0  0  0  0  0
   35.5350   27.9090   33.9150 C   0  0  0  0  0  0  0  0  0  0  0  0
   36.1580   28.9440   34.6160 C   0  0  0  0  0  0  0  0  0  0  0  0
   35.7650   29.2240   35.8930 N   0  0  0  0  0  0  0  0  0  0  0  0
   34.7770   28.5100   36.4910 C   0  0  0  0  0  0  0  0  0  0  0  0
   34.1490   27.5110   35.8650 N   0  0  0  0  0  0  0  0  0  0  0  0
   33.9720   26.3770   34.1180 H   0  0  0  0  0  0  0  0  0  0  0  0
   35.7850   27.6290   32.9170 H   0  0  0  0  0  0  0  0  0  0  0  0
   36.9450   29.5070   34.1290 H   0  0  0  0  0  0  0  0  0  0  0  0
  1  5  1  0  0  0  0
  1  6  1  1  0  0  0
  2  3  1  0  0  0  0
  2  1  1  0  0  0  0
  3  4  1  0  0  0  0
  3 10  1  0  0  0  0
  4  5  1  0  0  0  0
  5 11  1  6  0  0  0
  5 12  1  0  0  0  0
  7  2  1  0  0  0  0
  8  2  1  0  0  0  0
  9  3  1  0  0  0  0
 12 20  1  6  0  0  0
 12 13  1  0  0  0  0
 13 14  1  0  0  0  0
 15 13  1  0  0  0  0
 16 15  1  0  0  0  0
 17 15  1  0  0  0  0
 17 18  1  0  0  0  0
 19 20  1  0  0  0  0
 19 17  1  0  0  0  0
 21  1  1  0  0  0  0
 21 23  1  0  0  0  0
 22 21  1  0  0  0  0
 24 25  2  0  0  0  0
 25 21  1  0  0  0  0
 26 31  1  0  0  0  0
 27 26  2  0  0  0  0
 27 28  1  0  0  0  0
 28 29  2  0  0  0  0
 29 30  1  0  0  0  0
 30 24  1  0  0  0  0
 31 30  2  0  0  0  0
 32 26  1  0  0  0  0
 33 27  1  0  0  0  0
 34 28  1  0  0  0  0
M  END
>  <minimizedAffinity>
-4.62361288

$$$$

 OpenBabel03242513223D

 34 36  0  0  1  0  0  0  0  0999 V2000
   37.1580   29.3660   41.1340 C   0  0  2  0  0  0  0  0  0  0  0  0
   37.3470   29.1190   42.6390 C   0  0  0  0  0  0  0  0  0  0  0  0
   38.8060   29.6060   42.6910 C   0  0  0  0  0  0  0  0  0  0  0  0
   38.8120   30.7640   41.9290 O   0  0  0  0  0  0  0  0  0  0  0  0
   37.7550   30.7280   41.0620 C   0  0  1  0  0  0  0  0  0  0  0  0
   37.7380   28.6010   40.5780 H   0  0  0  0  0  0  0  0  0  0  0  0
   37.2520   28.0650   42.8920 H   0  0  0  0  0  0  0  0  0  0  0  0
   36.6720   29.7940   43.1820 H   0  0  0  0  0  0  0  0  0  0  0  0
   39.1190   29.7490   43.7280 H   0  0  0  0  0  0  0  0  0  0  0  0
   39.3980   28.8270   42.1380 H   0  0  0  0  0  0  0  0  0  0  0  0
   36.9960   31.4590   41.4710 H   0  0  0  0  0  0  0  0  0  0  0  0
   38.0730   31.1950   39.7520 N   0  0  2  0  0  0  0  0  0  0  0  0
   39.4380   31.5170   39.5060 C   0  0  0  0  0  3  0  0  0  0  0  0
   40.1540   30.7940   39.8840 H   0  0  0  0  0  0  0  0  0  0  0  0
   39.8300   32.8940   39.9860 C   0  0  0  0  0  3  0  0  0  0  0  0
   39.9390   32.9590   41.0870 H   0  0  0  0  0  0  0  0  0  0  0  0
   38.9200   33.9110   39.4680 N   0  0  0  0  0  0  0  0  0  0  0  0
   39.0180   33.8820   38.4180 H   0  0  0  0  0  0  0  0  0  0  0  0
   37.5590   33.5920   39.7760 C   0  0  0  0  0  2  0  0  0  0  0  0
   37.1880   32.2170   39.2930 C   0  0  0  0  0  2  0  0  0  0  0  0
   35.7290   29.2730   40.7250 C   0  0  0  0  0  0  0  0  0  0  0  0
   35.2940   30.3100   40.8090 H   0  0  0  0  0  0  0  0  0  0  0  0
   35.1020   28.6500   41.3930 H   0  0  0  0  0  0  0  0  0  0  0  0
   34.3780   28.9010   38.7030 C   0  0  0  0  0  3  0  0  0  0  0  0
   35.5480   28.8670   39.3090 C   0  0  0  0  0  3  0  0  0  0  0  0
   33.3040   27.2030   35.6310 C   0  0  0  0  0  0  0  0  0  0  0  0
   34.1020   27.8490   34.6490 C   0  0  0  0  0  0  0  0  0  0  0  0
   34.9770   28.8440   35.0930 C   0  0  0  0  0  0  0  0  0  0  0  0
   35.0290   29.1490   36.4230 N   0  0  0  0  0  0  0  0  0  0  0  0
   34.2430   28.5000   37.3190 C   0  0  0  0  0  0  0  0  0  0  0  0
   33.3900   27.5410   36.9470 N   0  0  0  0  0  0  0  0  0  0  0  0
   32.5970   26.4190   35.3710 H   0  0  0  0  0  0  0  0  0  0  0  0
   34.0030   27.5530   33.6300 H   0  0  0  0  0  0  0  0  0  0  0  0
   35.5990   29.3550   34.3690 H   0  0  0  0  0  0  0  0  0  0  0  0
  1  6  1  6  0  0  0
  1  2  1  0  0  0  0
  2  3  1  0  0  0  0
  2  7  1  0  0  0  0
  2  8  1  0  0  0  0
  3  9  1  0  0  0  0
  4  3  1  0  0  0  0
  5  1  1  0  0  0  0
  5 11  1  1  0  0  0
  5  4  1  0  0  0  0
 10  3  1  0  0  0  0
 12 20  1  1  0  0  0
 12  5  1  0  0  0  0
 13 12  1  0  0  0  0
 13 14  1  0  0  0  0
 13 15  1  0  0  0  0
 15 16  1  0  0  0  0
 17 19  1  0  0  0  0
 17 15  1  0  0  0  0
 18 17  1  0  0  0  0
 20 19  1  0  0  0  0
 21 22  1  0  0  0  0
 21  1  1  0  0  0  0
 21 23  1  0  0  0  0
 24 25  2  0  0  0  0
 25 21  1  0  0  0  0
 26 31  1  0  0  0  0
 27 28  1  0  0  0  0
 27 26  2  0  0  0  0
 28 29  2  0  0  0  0
 29 30  1  0  0  0  0
 30 24  1  0  0  0  0
 31 30  2  0  0  0  0
 32 26  1  0  0  0  0
 33 27  1  0  0  0  0
 34 28  1  0  0  0  0
M  END
>  <minimizedAffinity>
-4.53705311

$$$$

 OpenBabel03242513223D

 34 36  0  0  1  0  0  0  0  0999 V2000
   38.4350   27.4100   43.4530 C   0  0  2  0  0  0  0  0  0  0  0  0
   39.9550   27.3840   43.6800 C   0  0  0  0  0  0  0  0  0  0  0  0
   40.1280   25.8850   43.3760 C   0  0  0  0  0  0  0  0  0  0  0  0
   39.3500   25.6690   42.2490 O   0  0  0  0  0  0  0  0  0  0  0  0
   38.3930   26.6440   42.1780 C   0  0  1  0  0  0  0  0  0  0  0  0
   37.9460   26.8850   44.2990 H   0  0  0  0  0  0  0  0  0  0  0  0
   40.2160   27.6320   44.7070 H   0  0  0  0  0  0  0  0  0  0  0  0
   40.4250   28.0140   42.9120 H   0  0  0  0  0  0  0  0  0  0  0  0
   41.1860   25.6480   43.2440 H   0  0  0  0  0  0  0  0  0  0  0  0
   39.6430   25.3510   44.2360 H   0  0  0  0  0  0  0  0  0  0  0  0
   38.7220   27.3380   41.3480 H   0  0  0  0  0  0  0  0  0  0  0  0
   37.1090   26.1580   41.7900 N   0  0  2  0  0  0  0  0  0  0  0  0
   36.9620   24.7440   41.7100 C   0  0  0  0  0  3  0  0  0  0  0  0
   37.3930   24.1910   42.5380 H   0  0  0  0  0  0  0  0  0  0  0  0
   37.4680   24.1570   40.4130 C   0  0  0  0  0  3  0  0  0  0  0  0
   38.5730   24.1170   40.3530 H   0  0  0  0  0  0  0  0  0  0  0  0
   36.8830   24.8400   39.2630 N   0  0  0  0  0  0  0  0  0  0  0  0
   35.8440   24.6740   39.3230 H   0  0  0  0  0  0  0  0  0  0  0  0
   37.0930   26.2540   39.3400 C   0  0  0  0  0  2  0  0  0  0  0  0
   36.5870   26.8200   40.6380 C   0  0  0  0  0  2  0  0  0  0  0  0
   37.9030   28.7990   43.3810 C   0  0  0  0  0  0  0  0  0  0  0  0
   38.0390   29.2580   44.4030 H   0  0  0  0  0  0  0  0  0  0  0  0
   36.8140   28.8630   43.1860 H   0  0  0  0  0  0  0  0  0  0  0  0
   38.0670   30.3550   41.4820 C   0  0  0  0  0  3  0  0  0  0  0  0
   38.6550   29.6680   42.4410 C   0  0  0  0  0  3  0  0  0  0  0  0
   39.8260   31.6470   38.5300 C   0  0  0  0  0  0  0  0  0  0  0  0
   40.3100   32.8960   39.0060 C   0  0  0  0  0  0  0  0  0  0  0  0
   40.0070   33.2350   40.3270 C   0  0  0  0  0  0  0  0  0  0  0  0
   39.2740   32.3740   41.0910 N   0  0  0  0  0  0  0  0  0  0  0  0
   38.8350   31.1930   40.5860 C   0  0  0  0  0  0  0  0  0  0  0  0
   39.0970   30.8200   39.3300 N   0  0  0  0  0  0  0  0  0  0  0  0
   40.0160   31.3070   37.5160 H   0  0  0  0  0  0  0  0  0  0  0  0
   40.8760   33.5120   38.3460 H   0  0  0  0  0  0  0  0  0  0  0  0
   40.3610   34.1800   40.7190 H   0  0  0  0  0  0  0  0  0  0  0  0
  1  2  1  0  0  0  0
  1  6  1  1  0  0  0
  2  7  1  0  0  0  0
  3  2  1  0  0  0  0
  3 10  1  0  0  0  0
  4  3  1  0  0  0  0
  5 11  1  6  0  0  0
  5  4  1  0  0  0  0
  5  1  1  0  0  0  0
  8  2  1  0  0  0  0
  9  3  1  0  0  0  0
 12 20  1  6  0  0  0
 12  5  1  0  0  0  0
 13 12  1  0  0  0  0
 13 14  1  0  0  0  0
 15 13  1  0  0  0  0
 16 15  1  0  0  0  0
 17 18  1  0  0  0  0
 17 19  1  0  0  0  0
 17 15  1  0  0  0  0
 19 20  1  0  0  0  0
 21  1  1  0  0  0  0
 21 22  1  0  0  0  0
 23 21  1  0  0  0  0
 24 25  2  0  0  0  0
 25 21  1  0  0  0  0
 26 27  2  0  0  0  0
 26 31  1  0  0  0  0
 27 28  1  0  0  0  0
 28 34  1  0  0  0  0
 28 29  2  0  0  0  0
 30 29  1  0  0  0  0
 30 24  1  0  0  0  0
 31 30  2  0  0  0  0
 32 26  1  0  0  0  0
 33 27  1  0  0  0  0
M  END
>  <minimizedAffinity>
-4.52966881

$$$$

 OpenBabel03242513223D

 34 36  0  0  1  0  0  0  0  0999 V2000
   39.0080   32.0370   38.9080 C   0  0  2  0  0  0  0  0  0  0  0  0
   39.8230   33.1600   39.5700 C   0  0  0  0  0  0  0  0  0  0  0  0
   39.1650   33.0300   40.9540 C   0  0  0  0  0  0  0  0  0  0  0  0
   39.1050   31.6640   41.1820 O   0  0  0  0  0  0  0  0  0  0  0  0
   39.1420   31.0130   39.9790 C   0  0  1  0  0  0  0  0  0  0  0  0
   37.9680   32.3960   38.7680 H   0  0  0  0  0  0  0  0  0  0  0  0
   39.6310   34.1270   39.1070 H   0  0  0  0  0  0  0  0  0  0  0  0
   40.8770   32.8510   39.5870 H   0  0  0  0  0  0  0  0  0  0  0  0
   39.7410   33.5850   41.6990 H   0  0  0  0  0  0  0  0  0  0  0  0
   38.1140   33.4020   40.8190 H   0  0  0  0  0  0  0  0  0  0  0  0
   40.1780   30.5670   39.9020 H   0  0  0  0  0  0  0  0  0  0  0  0
   38.2400   29.9110   39.8970 N   0  0  2  0  0  0  0  0  0  0  0  0
   36.8710   30.2260   39.6630 C   0  0  0  0  0  3  0  0  0  0  0  0
   36.6980   30.9740   38.8960 H   0  0  0  0  0  0  0  0  0  0  0  0
   36.1200   30.6220   40.9130 C   0  0  0  0  0  3  0  0  0  0  0  0
   36.3680   31.6420   41.2680 H   0  0  0  0  0  0  0  0  0  0  0  0
   36.2850   29.6240   41.9650 N   0  0  0  0  0  0  0  0  0  0  0  0
   35.8650   28.7320   41.5890 H   0  0  0  0  0  0  0  0  0  0  0  0
   37.6710   29.3650   42.2190 C   0  0  0  0  0  2  0  0  0  0  0  0
   38.4020   28.9760   40.9640 C   0  0  0  0  0  2  0  0  0  0  0  0
   39.5620   31.6500   37.5810 C   0  0  0  0  0  0  0  0  0  0  0  0
   39.0070   32.2510   36.8040 H   0  0  0  0  0  0  0  0  0  0  0  0
   39.3820   30.5930   37.3000 H   0  0  0  0  0  0  0  0  0  0  0  0
   41.8980   31.1270   37.0120 C   0  0  0  0  0  3  0  0  0  0  0  0
   40.9960   31.9980   37.4190 C   0  0  0  0  0  3  0  0  0  0  0  0
   45.0980   32.9030   37.2900 C   0  0  0  0  0  0  0  0  0  0  0  0
   45.9480   32.0940   36.4870 C   0  0  0  0  0  0  0  0  0  0  0  0
   45.3770   30.9710   35.8860 C   0  0  0  0  0  0  0  0  0  0  0  0
   44.0540   30.7000   36.0870 N   0  0  0  0  0  0  0  0  0  0  0  0
   43.2870   31.5060   36.8650 C   0  0  0  0  0  0  0  0  0  0  0  0
   43.7840   32.5930   37.4630 N   0  0  0  0  0  0  0  0  0  0  0  0
   45.4620   33.7940   37.7940 H   0  0  0  0  0  0  0  0  0  0  0  0
   46.9710   32.3750   36.3790 H   0  0  0  0  0  0  0  0  0  0  0  0
   45.9980   30.3350   35.2680 H   0  0  0  0  0  0  0  0  0  0  0  0
  1  6  1  6  0  0  0
  1  2  1  0  0  0  0
  1  5  1  0  0  0  0
  2  8  1  0  0  0  0
  2  3  1  0  0  0  0
  3  4  1  0  0  0  0
  3  9  1  0  0  0  0
  5 11  1  6  0  0  0
  5  4  1  0  0  0  0
  7  2  1  0  0  0  0
 10  3  1  0  0  0  0
 12  5  1  0  0  0  0
 12 20  1  1  0  0  0
 13 12  1  0  0  0  0
 13 15  1  0  0  0  0
 14 13  1  0  0  0  0
 15 16  1  0  0  0  0
 15 17  1  0  0  0  0
 17 19  1  0  0  0  0
 18 17  1  0  0  0  0
 20 19  1  0  0  0  0
 21  1  1  0  0  0  0
 22 21  1  0  0  0  0
 23 21  1  0  0  0  0
 24 25  2  0  0  0  0
 25 21  1  0  0  0  0
 26 31  1  0  0  0  0
 26 32  1  0  0  0  0
 27 26  2  0  0  0  0
 28 29  2  0  0  0  0
 28 27  1  0  0  0  0
 29 30  1  0  0  0  0
 30 24  1  0  0  0  0
 30 31  2  0  0  0  0
 33 27  1  0  0  0  0
 34 28  1  0  0  0  0
M  END
>  <minimizedAffinity>
-4.49187946

$$$$
