
 OpenBabel03242518573D

 25 27  0  0  1  0  0  0  0  0999 V2000
   44.5550   34.7840   43.4810 C   0  0  1  0  0  0  0  0  0  0  0  0
   45.2250   36.0930   43.0070 C   0  0  0  0  0  0  0  0  0  0  0  0
   44.8660   35.0150   42.0850 C   0  0  2  0  0  0  0  0  0  0  0  0
   43.5570   34.9690   43.9760 H   0  0  0  0  0  0  0  0  0  0  0  0
   46.2820   36.2660   43.2970 H   0  0  0  0  0  0  0  0  0  0  0  0
   44.6200   37.0090   43.0320 H   0  0  0  0  0  0  0  0  0  0  0  0
   45.7280   34.4090   41.7010 H   0  0  0  0  0  0  0  0  0  0  0  0
   45.4350   33.9400   44.3410 C   0  0  0  0  0  0  0  0  0  0  0  0
   46.3670   33.0680   43.7040 C   0  0  0  0  0  0  0  0  0  0  0  0
   47.1870   32.2990   44.5190 C   0  0  0  0  0  0  0  0  0  0  0  0
   47.0470   32.4280   45.8670 N   0  0  0  0  0  0  0  0  0  0  0  0
   46.1510   33.2680   46.4360 C   0  0  0  0  0  0  0  0  0  0  0  0
   45.3380   34.0310   45.6780 N   0  0  0  0  0  0  0  0  0  0  0  0
   46.3630   33.0740   42.6190 H   0  0  0  0  0  0  0  0  0  0  0  0
   47.8810   31.6500   44.0380 H   0  0  0  0  0  0  0  0  0  0  0  0
   46.1790   33.2410   47.5180 H   0  0  0  0  0  0  0  0  0  0  0  0
   43.8090   35.0840   41.1340 N   0  0  1  0  0  0  0  0  0  0  0  0
   43.8770   34.1650   40.0600 C   0  0  0  0  0  0  0  0  0  0  0  0
   44.6780   33.4110   40.2730 H   0  0  0  0  0  0  0  0  0  0  0  0
   42.5820   33.4260   39.8340 C   0  0  0  0  0  0  0  0  0  0  0  0
   42.3760   32.7290   40.6560 H   0  0  0  0  0  0  0  0  0  0  0  0
   41.5520   34.3950   39.6210 N   0  0  0  0  0  0  0  0  0  0  0  0
   41.4720   34.7000   38.6270 H   0  0  0  0  0  0  0  0  0  0  0  0
   41.5090   35.4720   40.5720 C   0  0  0  0  0  0  0  0  0  0  0  0
   42.5280   35.4160   41.6480 C   0  0  0  0  0  0  0  0  0  0  0  0
  1  4  1  1  0  0  0
  1  8  1  0  0  0  0
  2  6  1  0  0  0  0
  2  5  1  0  0  0  0
  2  1  1  0  0  0  0
  3  7  1  6  0  0  0
  3  2  1  0  0  0  0
  3  1  1  0  0  0  0
  8 13  1  0  0  0  0
  9  8  2  0  0  0  0
  9 10  1  0  0  0  0
 10 11  2  0  0  0  0
 11 12  1  0  0  0  0
 12 16  1  0  0  0  0
 13 12  2  0  0  0  0
 14  9  1  0  0  0  0
 15 10  1  0  0  0  0
 17 25  1  1  0  0  0
 17  3  1  0  0  0  0
 18 19  1  0  0  0  0
 18 17  1  0  0  0  0
 20 18  1  0  0  0  0
 20 21  1  0  0  0  0
 22 20  1  0  0  0  0
 22 24  1  0  0  0  0
 23 22  1  0  0  0  0
 24 25  1  0  0  0  0
M  END
>  <minimizedAffinity>
-3.99334478

>  <minimizedRMSD>
1.37511671

$$$$
