
 OpenBabel03242517403D

 40 43  0  0  0  0  0  0  0  0999 V2000
   39.7460   34.7370   40.1860 C   0  0  0  0  0  0  0  0  0  0  0  0
   39.2530   34.6630   41.1680 H   0  0  0  0  0  0  0  0  0  0  0  0
   39.5060   35.7850   39.8360 H   0  0  0  0  0  0  0  0  0  0  0  0
   39.2140   33.7950   39.1680 C   0  0  0  0  0  0  0  0  0  0  0  0
   38.5730   34.2870   38.0320 C   0  0  0  0  0  0  0  0  0  0  0  0
   38.0770   33.4080   37.0800 C   0  0  0  0  0  0  0  0  0  0  0  0
   38.2140   32.0220   37.2510 C   0  0  0  0  0  0  0  0  0  0  0  0
   38.8570   31.5390   38.3910 C   0  0  0  0  0  0  0  0  0  0  0  0
   39.3480   32.4400   39.3370 C   0  0  0  0  0  0  0  0  0  0  0  0
   38.4970   35.3520   37.9530 H   0  0  0  0  0  0  0  0  0  0  0  0
   37.5910   33.8420   36.2220 H   0  0  0  0  0  0  0  0  0  0  0  0
   37.8240   31.3750   36.5050 H   0  0  0  0  0  0  0  0  0  0  0  0
   38.9270   30.4710   38.4580 H   0  0  0  0  0  0  0  0  0  0  0  0
   39.9590   31.7820   40.4370 N   0  0  0  0  0  0  0  0  0  0  0  0
   39.4340   31.6510   41.7940 C   0  0  0  0  0  0  0  0  0  0  0  0
   38.6320   30.8520   41.7830 H   0  0  0  0  0  0  0  0  0  0  0  0
   40.5830   31.1810   42.6610 C   0  0  0  0  0  0  0  0  0  0  0  0
   40.3060   31.1630   43.7360 H   0  0  0  0  0  0  0  0  0  0  0  0
   40.9270   29.8330   42.1980 N   0  0  0  0  0  0  0  0  0  0  0  0
   40.0610   29.2420   42.3630 H   0  0  0  0  0  0  0  0  0  0  0  0
   41.2240   29.8110   40.8020 C   0  0  0  0  0  0  0  0  0  0  0  0
   41.2540   31.1660   40.1390 C   0  0  0  0  0  0  0  0  0  0  0  0
   41.8950   34.7870   41.4170 C   0  0  0  0  0  0  0  0  0  0  0  0
   41.2330   34.7030   40.2720 C   0  0  0  0  0  0  0  0  0  0  0  0
   43.9620   35.3300   42.6560 C   0  0  0  0  0  0  0  0  0  0  0  0
   43.3350   34.7500   41.5260 C   0  0  0  0  0  0  0  0  0  0  0  0
   44.1450   34.1640   40.5780 C   0  0  0  0  0  0  0  0  0  0  0  0
   45.5030   34.1640   40.7620 N   0  0  0  0  0  0  0  0  0  0  0  0
   46.0600   34.7220   41.8450 C   0  0  0  0  0  0  0  0  0  0  0  0
   45.3030   35.3100   42.8020 N   0  0  0  0  0  0  0  0  0  0  0  0
   43.3590   35.8030   43.4280 H   0  0  0  0  0  0  0  0  0  0  0  0
   43.7210   33.7090   39.6990 H   0  0  0  0  0  0  0  0  0  0  0  0
   47.4940   34.7230   42.0520 C   0  0  0  0  0  0  0  0  0  0  0  0
   48.4120   35.6580   41.8100 C   0  0  0  0  0  0  0  0  0  0  0  0
   49.7290   35.4400   42.0860 C   0  0  0  0  0  0  0  0  0  0  0  0
   50.0300   34.1580   42.6400 C   0  0  0  0  0  0  0  0  0  0  0  0
   48.3690   33.3370   42.7300 S   0  0  0  0  0  0  0  0  0  0  0  0
   48.0980   36.6070   41.3870 H   0  0  0  0  0  0  0  0  0  0  0  0
   50.5550   36.1040   41.9380 H   0  0  0  0  0  0  0  0  0  0  0  0
   50.9720   33.7660   42.9320 H   0  0  0  0  0  0  0  0  0  0  0  0
  1 24  1  0  0  0  0
  1  2  1  0  0  0  0
  3  1  1  0  0  0  0
  4  9  1  0  0  0  0
  4  1  1  0  0  0  0
  5  4  2  0  0  0  0
  6  7  2  0  0  0  0
  6  5  1  0  0  0  0
  7  8  1  0  0  0  0
  8 13  1  0  0  0  0
  8  9  2  0  0  0  0
  9 14  1  0  0  0  0
 10  5  1  0  0  0  0
 11  6  1  0  0  0  0
 12  7  1  0  0  0  0
 14 15  1  0  0  0  0
 15 17  1  0  0  0  0
 16 15  1  0  0  0  0
 17 18  1  0  0  0  0
 19 20  1  0  0  0  0
 19 17  1  0  0  0  0
 21 19  1  0  0  0  0
 22 14  1  0  0  0  0
 22 21  1  0  0  0  0
 23 26  1  0  0  0  0
 24 23  2  0  0  0  0
 25 30  1  0  0  0  0
 25 31  1  0  0  0  0
 26 25  2  0  0  0  0
 27 28  2  0  0  0  0
 27 26  1  0  0  0  0
 28 29  1  0  0  0  0
 29 33  1  0  0  0  0
 29 30  2  0  0  0  0
 32 27  1  0  0  0  0
 33 37  1  0  0  0  0
 34 33  2  0  0  0  0
 34 35  1  0  0  0  0
 35 36  2  0  0  0  0
 36 37  1  0  0  0  0
 36 40  1  0  0  0  0
 38 34  1  0  0  0  0
 39 35  1  0  0  0  0
M  END
>  <minimizedAffinity>
-6.38255501

>  <minimizedRMSD>
4.53809738

$$$$
