
 OpenBabel03252508203D

 34 36  0  0  0  0  0  0  0  0999 V2000
   46.2050   33.8080   40.5450 C   0  0  0  0  0  0  0  0  0  0  0  0
   46.8170   33.6140   39.3100 C   0  0  0  0  0  0  0  0  0  0  0  0
   48.0210   34.1550   38.9570 C   0  0  0  0  0  0  0  0  0  0  0  0
   48.6440   34.9420   39.9190 C   0  0  0  0  0  0  0  0  0  0  0  0
   48.0830   35.1640   41.1540 C   0  0  0  0  0  0  0  0  0  0  0  0
   46.8790   34.6100   41.4760 C   0  0  0  0  0  0  0  0  0  0  0  0
   46.2220   32.9840   38.6650 H   0  0  0  0  0  0  0  0  0  0  0  0
   48.4390   33.9570   37.9650 H   0  0  0  0  0  0  0  0  0  0  0  0
   49.6060   35.3780   39.6490 H   0  0  0  0  0  0  0  0  0  0  0  0
   48.6570   35.7920   41.8200 H   0  0  0  0  0  0  0  0  0  0  0  0
   46.3930   34.9010   42.7650 N   0  0  0  0  0  0  0  0  0  0  0  0
   45.4320   35.9560   43.0350 C   0  0  0  0  0  3  0  0  0  0  0  0
   44.6140   35.9580   42.2830 H   0  0  0  0  0  0  0  0  0  0  0  0
   44.7620   35.7250   44.3840 C   0  0  0  0  0  3  0  0  0  0  0  0
   43.8460   36.3220   44.3980 H   0  0  0  0  0  0  0  0  0  0  0  0
   44.4620   34.3620   44.6630 N   0  0  0  0  0  0  0  0  0  0  0  0
   43.5880   34.0470   44.2110 H   0  0  0  0  0  0  0  0  0  0  0  0
   45.5750   33.4720   44.5620 C   0  0  0  0  0  2  0  0  0  0  0  0
   46.7710   34.2030   43.9920 C   0  0  0  0  0  2  0  0  0  0  0  0
   44.8980   33.2410   40.9460 C   0  0  0  0  0  0  0  0  0  0  0  0
   44.9520   32.1510   40.9740 H   0  0  0  0  0  0  0  0  0  0  0  0
   44.5550   33.7510   41.8450 H   0  0  0  0  0  0  0  0  0  0  0  0
   43.8550   33.5510   39.8660 C   0  0  0  0  0  0  0  0  0  0  0  0
   44.2230   34.4280   39.2950 H   0  0  0  0  0  0  0  0  0  0  0  0
   43.7330   32.6650   39.2290 H   0  0  0  0  0  0  0  0  0  0  0  0
   41.1830   35.5190   41.6400 C   0  0  0  0  0  0  0  0  0  0  0  0
   42.3990   35.1950   40.9900 C   0  0  0  0  0  0  0  0  0  0  0  0
   42.5880   33.8940   40.5440 C   0  0  0  0  0  0  0  0  0  0  0  0
   41.5690   32.9860   40.7640 N   0  0  0  0  0  0  0  0  0  0  0  0
   40.4350   33.3360   41.3850 C   0  0  0  0  0  0  0  0  0  0  0  0
   40.2390   34.5860   41.8180 N   0  0  0  0  0  0  0  0  0  0  0  0
   40.9940   36.5200   42.0030 H   0  0  0  0  0  0  0  0  0  0  0  0
   43.1120   35.9920   40.8800 H   0  0  0  0  0  0  0  0  0  0  0  0
   39.7420   32.4970   41.4730 H   0  0  0  0  0  0  0  0  0  0  0  0
  1 20  1  0  0  0  0
  1  6  1  0  0  0  0
  2  1  2  0  0  0  0
  3  2  1  0  0  0  0
  3  4  2  0  0  0  0
  4  5  1  0  0  0  0
  5  6  2  0  0  0  0
  5 10  1  0  0  0  0
  6 11  1  0  0  0  0
  7  2  1  0  0  0  0
  8  3  1  0  0  0  0
  9  4  1  0  0  0  0
 11 12  1  0  0  0  0
 11 19  1  0  0  0  0
 12 14  1  0  0  0  0
 13 12  1  0  0  0  0
 14 15  1  0  0  0  0
 14 16  1  0  0  0  0
 17 16  1  0  0  0  0
 18 16  1  0  0  0  0
 19 18  1  0  0  0  0
 20 21  1  0  0  0  0
 20 22  1  0  0  0  0
 23 28  1  0  0  0  0
 23 20  1  0  0  0  0
 24 23  1  0  0  0  0
 25 23  1  0  0  0  0
 26 31  1  0  0  0  0
 26 32  1  0  0  0  0
 27 26  2  0  0  0  0
 28 29  2  0  0  0  0
 28 27  1  0  0  0  0
 29 30  1  0  0  0  0
 30 34  1  0  0  0  0
 30 31  2  0  0  0  0
 33 27  1  0  0  0  0
M  END
>  <minimizedAffinity>
-5.29723692

>  <minimizedRMSD>
1.01787186

$$$$
