
 OpenBabel03252505333D

 30 32  0  0  0  0  0  0  0  0999 V2000
   46.5590   34.7670   42.0560 C   0  0  0  0  0  0  0  0  0  0  0  0
   47.8680   35.2070   41.9820 C   0  0  0  0  0  0  0  0  0  0  0  0
   48.6650   35.0210   40.8530 C   0  0  0  0  0  0  0  0  0  0  0  0
   48.1180   34.3640   39.7570 C   0  0  0  0  0  0  0  0  0  0  0  0
   46.8220   33.9380   39.8500 C   0  0  0  0  0  0  0  0  0  0  0  0
   46.0350   34.1250   40.9700 C   0  0  0  0  0  0  0  0  0  0  0  0
   48.3140   35.7250   42.8370 H   0  0  0  0  0  0  0  0  0  0  0  0
   49.6750   35.4030   40.8940 H   0  0  0  0  0  0  0  0  0  0  0  0
   48.8070   34.2720   38.9460 H   0  0  0  0  0  0  0  0  0  0  0  0
   46.5520   33.4590   38.9210 H   0  0  0  0  0  0  0  0  0  0  0  0
   44.4040   36.2310   44.7660 C   0  0  0  0  0  0  0  0  0  0  0  0
   45.0490   36.1000   43.5170 C   0  0  0  0  0  0  0  0  0  0  0  0
   45.8540   35.0050   43.2850 C   0  0  0  0  0  0  0  0  0  0  0  0
   45.9900   34.0880   44.2910 N   0  0  0  0  0  0  0  0  0  0  0  0
   45.3510   34.2500   45.4830 C   0  0  0  0  0  0  0  0  0  0  0  0
   44.5660   35.3150   45.7110 N   0  0  0  0  0  0  0  0  0  0  0  0
   45.5290   33.2910   46.5260 N   0  0  0  0  0  0  0  0  0  0  0  0
   43.7620   37.0960   44.9580 H   0  0  0  0  0  0  0  0  0  0  0  0
   44.9290   36.8280   42.7490 H   0  0  0  0  0  0  0  0  0  0  0  0
   45.6100   33.5150   47.5440 H   0  0  0  0  0  0  0  0  0  0  0  0
   45.5930   32.2530   46.3230 H   0  0  0  0  0  0  0  0  0  0  0  0
   44.7080   33.6580   40.9070 N   0  0  0  0  0  0  0  0  0  0  0  0
   43.6930   34.3630   40.1460 C   0  0  0  0  0  3  0  0  0  0  0  0
   43.2580   33.6160   39.4110 H   0  0  0  0  0  0  0  0  0  0  0  0
   42.5510   34.8220   41.0020 C   0  0  0  0  0  3  0  0  0  0  0  0
   41.6810   34.9780   40.3080 H   0  0  0  0  0  0  0  0  0  0  0  0
   42.1130   33.8040   41.9330 N   0  0  0  0  0  0  0  0  0  0  0  0
   42.4370   33.9910   42.9010 H   0  0  0  0  0  0  0  0  0  0  0  0
   42.5850   32.5410   41.4490 C   0  0  0  0  0  2  0  0  0  0  0  0
   44.1050   32.5050   41.5540 C   0  0  0  0  0  2  0  0  0  0  0  0
  1 13  1  0  0  0  0
  2  1  1  0  0  0  0
  2  7  1  0  0  0  0
  3  8  1  0  0  0  0
  3  2  2  0  0  0  0
  4  5  2  0  0  0  0
  4  3  1  0  0  0  0
  5  6  1  0  0  0  0
  6  1  2  0  0  0  0
  9  4  1  0  0  0  0
 10  5  1  0  0  0  0
 11 18  1  0  0  0  0
 11 16  1  0  0  0  0
 12 11  2  0  0  0  0
 13 12  1  0  0  0  0
 13 14  2  0  0  0  0
 14 15  1  0  0  0  0
 15 16  2  0  0  0  0
 15 17  1  0  0  0  0
 17 20  1  0  0  0  0
 19 12  1  0  0  0  0
 21 17  1  0  0  0  0
 22  6  1  0  0  0  0
 22 30  1  0  0  0  0
 23 22  1  0  0  0  0
 23 25  1  0  0  0  0
 24 23  1  0  0  0  0
 25 27  1  0  0  0  0
 26 25  1  0  0  0  0
 27 28  1  0  0  0  0
 29 30  1  0  0  0  0
 29 27  1  0  0  0  0
M  END
>  <minimizedAffinity>
-6.34905577

>  <minimizedRMSD>
0.304163784

$$$$
