
 OpenBabel03252505163D

 25 27  0  0  0  0  0  0  0  0999 V2000
   39.9830   26.8050   43.6790 C   0  0  0  0  0  0  0  0  0  0  0  0
   39.9300   25.5070   43.1440 C   0  0  0  0  0  0  0  0  0  0  0  0
   39.0160   25.3220   42.1150 C   0  0  0  0  0  0  0  0  0  0  0  0
   38.2400   26.3640   41.6860 N   0  0  0  0  0  0  0  0  0  0  0  0
   38.3300   27.6080   42.2380 C   0  0  0  0  0  0  0  0  0  0  0  0
   39.2150   27.8000   43.2380 N   0  0  0  0  0  0  0  0  0  0  0  0
   40.7080   26.9110   44.4810 H   0  0  0  0  0  0  0  0  0  0  0  0
   40.5370   24.7020   43.4840 H   0  0  0  0  0  0  0  0  0  0  0  0
   37.4990   28.6540   41.7500 N   0  0  0  0  0  0  0  0  0  0  0  0
   38.1080   29.9420   41.5130 C   0  0  0  0  0  3  0  0  0  0  0  0
   39.0400   29.8580   40.9090 H   0  0  0  0  0  0  0  0  0  0  0  0
   37.2000   30.9450   40.8940 C   0  0  0  0  0  3  0  0  0  0  0  0
   37.4650   31.9900   41.1940 H   0  0  0  0  0  0  0  0  0  0  0  0
   35.8040   30.7610   41.2350 N   0  0  0  0  0  0  0  0  0  0  0  0
   35.7740   30.6250   42.2850 H   0  0  0  0  0  0  0  0  0  0  0  0
   35.4500   29.4540   40.6600 C   0  0  0  0  0  2  0  0  0  0  0  0
   36.1120   28.4190   41.5080 C   0  0  0  0  0  2  0  0  0  0  0  0
   38.8760   23.9880   41.4390 C   0  0  0  0  0  0  0  0  0  0  0  0
   37.4350   23.6400   41.1320 C   0  0  0  0  0  0  0  0  0  0  0  0
   38.4850   23.9570   40.0350 C   0  0  0  0  0  0  0  0  0  0  0  0
   39.5040   23.2070   41.8770 H   0  0  0  0  0  0  0  0  0  0  0  0
   36.6400   24.3580   41.3270 H   0  0  0  0  0  0  0  0  0  0  0  0
   37.1970   22.5680   41.2800 H   0  0  0  0  0  0  0  0  0  0  0  0
   38.2080   24.8860   39.4700 H   0  0  0  0  0  0  0  0  0  0  0  0
   38.7180   23.0990   39.3670 H   0  0  0  0  0  0  0  0  0  0  0  0
  1  7  1  0  0  0  0
  2  8  1  0  0  0  0
  2  1  2  0  0  0  0
  3  2  1  0  0  0  0
  4  3  2  0  0  0  0
  4  5  1  0  0  0  0
  5  6  2  0  0  0  0
  6  1  1  0  0  0  0
  9  5  1  0  0  0  0
 10  9  1  0  0  0  0
 11 10  1  0  0  0  0
 12 13  1  0  0  0  0
 12 14  1  0  0  0  0
 12 10  1  0  0  0  0
 14 15  1  0  0  0  0
 16 14  1  0  0  0  0
 16 17  1  0  0  0  0
 17  9  1  0  0  0  0
 18 21  1  0  0  0  0
 18  3  1  0  0  0  0
 19 23  1  0  0  0  0
 19 22  1  0  0  0  0
 19 18  1  0  0  0  0
 20 19  1  0  0  0  0
 20 18  1  0  0  0  0
 24 20  1  0  0  0  0
 25 20  1  0  0  0  0
M  END
>  <minimizedAffinity>
-4.92140913

$$$$

 OpenBabel03252505163D

 25 27  0  0  0  0  0  0  0  0999 V2000
   37.7510   28.0250   43.6450 C   0  0  0  0  0  0  0  0  0  0  0  0
   37.4670   26.8610   42.9100 C   0  0  0  0  0  0  0  0  0  0  0  0
   37.2390   27.0510   41.5550 C   0  0  0  0  0  0  0  0  0  0  0  0
   37.2950   28.3070   41.0150 N   0  0  0  0  0  0  0  0  0  0  0  0
   37.5770   29.4070   41.7700 C   0  0  0  0  0  0  0  0  0  0  0  0
   37.8010   29.2350   43.0900 N   0  0  0  0  0  0  0  0  0  0  0  0
   37.9240   27.8370   44.7010 H   0  0  0  0  0  0  0  0  0  0  0  0
   37.4250   25.8880   43.3380 H   0  0  0  0  0  0  0  0  0  0  0  0
   37.6240   30.6880   41.1540 N   0  0  0  0  0  0  0  0  0  0  0  0
   38.7240   31.5590   41.4970 C   0  0  0  0  0  3  0  0  0  0  0  0
   39.7070   31.0420   41.4170 H   0  0  0  0  0  0  0  0  0  0  0  0
   38.7640   32.8300   40.7240 C   0  0  0  0  0  3  0  0  0  0  0  0
   39.2270   33.6620   41.3110 H   0  0  0  0  0  0  0  0  0  0  0  0
   37.4600   33.3010   40.3020 N   0  0  0  0  0  0  0  0  0  0  0  0
   36.8370   33.2430   41.1570 H   0  0  0  0  0  0  0  0  0  0  0  0
   36.9670   32.2610   39.3870 C   0  0  0  0  0  2  0  0  0  0  0  0
   36.6090   31.0820   40.2300 C   0  0  0  0  0  2  0  0  0  0  0  0
   36.9480   25.8870   40.6510 C   0  0  0  0  0  0  0  0  0  0  0  0
   38.1250   24.9420   40.5220 C   0  0  0  0  0  0  0  0  0  0  0  0
   36.8050   24.5630   41.2430 C   0  0  0  0  0  0  0  0  0  0  0  0
   36.4200   26.1660   39.7340 H   0  0  0  0  0  0  0  0  0  0  0  0
   39.0250   25.0990   41.1140 H   0  0  0  0  0  0  0  0  0  0  0  0
   38.2540   24.5330   39.5010 H   0  0  0  0  0  0  0  0  0  0  0  0
   36.9830   24.3740   42.3350 H   0  0  0  0  0  0  0  0  0  0  0  0
   36.2350   23.7450   40.7500 H   0  0  0  0  0  0  0  0  0  0  0  0
  1  7  1  0  0  0  0
  2  8  1  0  0  0  0
  2  1  2  0  0  0  0
  3  2  1  0  0  0  0
  4  3  2  0  0  0  0
  4  5  1  0  0  0  0
  5  6  2  0  0  0  0
  6  1  1  0  0  0  0
  9 10  1  0  0  0  0
  9  5  1  0  0  0  0
 11 10  1  0  0  0  0
 12 13  1  0  0  0  0
 12 10  1  0  0  0  0
 14 12  1  0  0  0  0
 14 15  1  0  0  0  0
 16 17  1  0  0  0  0
 16 14  1  0  0  0  0
 17  9  1  0  0  0  0
 18 20  1  0  0  0  0
 18  3  1  0  0  0  0
 19 18  1  0  0  0  0
 19 22  1  0  0  0  0
 19 20  1  0  0  0  0
 20 24  1  0  0  0  0
 21 18  1  0  0  0  0
 23 19  1  0  0  0  0
 25 20  1  0  0  0  0
M  END
>  <minimizedAffinity>
-4.91860199

$$$$

 OpenBabel03252505163D

 25 27  0  0  0  0  0  0  0  0999 V2000
   35.7450   29.2520   40.7490 C   0  0  0  0  0  0  0  0  0  0  0  0
   36.1970   28.3730   41.7480 C   0  0  0  0  0  0  0  0  0  0  0  0
   37.4270   28.6880   42.3080 C   0  0  0  0  0  0  0  0  0  0  0  0
   38.1180   29.7900   41.8830 N   0  0  0  0  0  0  0  0  0  0  0  0
   37.6350   30.6150   40.9100 C   0  0  0  0  0  0  0  0  0  0  0  0
   36.4400   30.3200   40.3580 N   0  0  0  0  0  0  0  0  0  0  0  0
   34.7800   28.9740   40.3350 H   0  0  0  0  0  0  0  0  0  0  0  0
   35.6540   27.5180   42.0730 H   0  0  0  0  0  0  0  0  0  0  0  0
   38.3960   31.7480   40.5090 N   0  0  0  0  0  0  0  0  0  0  0  0
   37.6990   33.0040   40.3490 C   0  0  0  0  0  3  0  0  0  0  0  0
   37.0620   33.2420   41.2310 H   0  0  0  0  0  0  0  0  0  0  0  0
   38.5830   34.1610   40.0440 C   0  0  0  0  0  3  0  0  0  0  0  0
   38.0600   34.9360   39.4300 H   0  0  0  0  0  0  0  0  0  0  0  0
   39.7850   33.8040   39.3170 N   0  0  0  0  0  0  0  0  0  0  0  0
   39.4730   33.1770   38.5230 H   0  0  0  0  0  0  0  0  0  0  0  0
   40.5300   32.9300   40.2360 C   0  0  0  0  0  2  0  0  0  0  0  0
   39.7990   31.6290   40.2770 C   0  0  0  0  0  2  0  0  0  0  0  0
   38.0150   27.8440   43.4040 C   0  0  0  0  0  0  0  0  0  0  0  0
   38.3570   26.4440   42.9400 C   0  0  0  0  0  0  0  0  0  0  0  0
   39.4280   27.4950   43.3330 C   0  0  0  0  0  0  0  0  0  0  0  0
   37.4970   27.9480   44.3620 H   0  0  0  0  0  0  0  0  0  0  0  0
   38.2460   26.1670   41.8930 H   0  0  0  0  0  0  0  0  0  0  0  0
   38.1440   25.6630   43.6960 H   0  0  0  0  0  0  0  0  0  0  0  0
   40.0670   27.7670   42.4510 H   0  0  0  0  0  0  0  0  0  0  0  0
   40.0250   27.2240   44.2320 H   0  0  0  0  0  0  0  0  0  0  0  0
  1  2  1  0  0  0  0
  2  8  1  0  0  0  0
  2  3  2  0  0  0  0
  3 18  1  0  0  0  0
  4  3  1  0  0  0  0
  5  4  2  0  0  0  0
  6  1  2  0  0  0  0
  6  5  1  0  0  0  0
  7  1  1  0  0  0  0
  9  5  1  0  0  0  0
 10  9  1  0  0  0  0
 10 11  1  0  0  0  0
 12 10  1  0  0  0  0
 13 12  1  0  0  0  0
 14 12  1  0  0  0  0
 14 16  1  0  0  0  0
 15 14  1  0  0  0  0
 16 17  1  0  0  0  0
 17  9  1  0  0  0  0
 18 21  1  0  0  0  0
 19 20  1  0  0  0  0
 19 18  1  0  0  0  0
 19 23  1  0  0  0  0
 20 18  1  0  0  0  0
 20 25  1  0  0  0  0
 22 19  1  0  0  0  0
 24 20  1  0  0  0  0
M  END
>  <minimizedAffinity>
-4.72204161

$$$$

 OpenBabel03252505163D

 25 27  0  0  0  0  0  0  0  0999 V2000
   36.3360   29.8060   40.0450 C   0  0  0  0  0  0  0  0  0  0  0  0
   36.2830   29.0560   41.2320 C   0  0  0  0  0  0  0  0  0  0  0  0
   37.2960   29.3100   42.1460 C   0  0  0  0  0  0  0  0  0  0  0  0
   38.2620   30.2380   41.8650 N   0  0  0  0  0  0  0  0  0  0  0  0
   38.2690   30.9440   40.6970 C   0  0  0  0  0  0  0  0  0  0  0  0
   37.2890   30.7050   39.8010 N   0  0  0  0  0  0  0  0  0  0  0  0
   35.5280   29.5800   39.3550 H   0  0  0  0  0  0  0  0  0  0  0  0
   35.5280   28.3360   41.4430 H   0  0  0  0  0  0  0  0  0  0  0  0
   39.2980   31.8970   40.4600 N   0  0  0  0  0  0  0  0  0  0  0  0
   38.9120   33.1830   39.9260 C   0  0  0  0  0  3  0  0  0  0  0  0
   38.0710   33.6370   40.4980 H   0  0  0  0  0  0  0  0  0  0  0  0
   40.0280   34.1610   39.8170 C   0  0  0  0  0  3  0  0  0  0  0  0
   39.8720   34.8810   38.9760 H   0  0  0  0  0  0  0  0  0  0  0  0
   41.3240   33.5510   39.6000 N   0  0  0  0  0  0  0  0  0  0  0  0
   41.1880   32.8430   38.8240 H   0  0  0  0  0  0  0  0  0  0  0  0
   41.5690   32.7570   40.8140 C   0  0  0  0  0  2  0  0  0  0  0  0
   40.6590   31.5760   40.7460 C   0  0  0  0  0  2  0  0  0  0  0  0
   37.3430   28.5940   43.4650 C   0  0  0  0  0  0  0  0  0  0  0  0
   36.6160   27.2670   43.4330 C   0  0  0  0  0  0  0  0  0  0  0  0
   38.1550   27.3900   43.5760 C   0  0  0  0  0  0  0  0  0  0  0  0
   37.1660   29.2480   44.3250 H   0  0  0  0  0  0  0  0  0  0  0  0
   36.1990   26.8880   42.5010 H   0  0  0  0  0  0  0  0  0  0  0  0
   36.0590   27.0440   44.3650 H   0  0  0  0  0  0  0  0  0  0  0  0
   38.6790   26.9380   42.6920 H   0  0  0  0  0  0  0  0  0  0  0  0
   38.5540   27.0220   44.5480 H   0  0  0  0  0  0  0  0  0  0  0  0
  1  2  1  0  0  0  0
  2  8  1  0  0  0  0
  2  3  2  0  0  0  0
  3 18  1  0  0  0  0
  4  3  1  0  0  0  0
  5  4  2  0  0  0  0
  6  1  2  0  0  0  0
  6  5  1  0  0  0  0
  7  1  1  0  0  0  0
  9  5  1  0  0  0  0
  9 17  1  0  0  0  0
 10  9  1  0  0  0  0
 10 11  1  0  0  0  0
 12 10  1  0  0  0  0
 13 12  1  0  0  0  0
 14 12  1  0  0  0  0
 14 16  1  0  0  0  0
 15 14  1  0  0  0  0
 17 16  1  0  0  0  0
 18 20  1  0  0  0  0
 18 21  1  0  0  0  0
 19 18  1  0  0  0  0
 19 20  1  0  0  0  0
 19 23  1  0  0  0  0
 20 25  1  0  0  0  0
 22 19  1  0  0  0  0
 24 20  1  0  0  0  0
M  END
>  <minimizedAffinity>
-4.5279727

$$$$

 OpenBabel03252505163D

 25 27  0  0  0  0  0  0  0  0999 V2000
   38.0440   28.7940   43.2590 C   0  0  0  0  0  0  0  0  0  0  0  0
   36.9390   28.3720   42.5000 C   0  0  0  0  0  0  0  0  0  0  0  0
   36.6970   29.0980   41.3430 C   0  0  0  0  0  0  0  0  0  0  0  0
   37.5070   30.1470   41.0040 N   0  0  0  0  0  0  0  0  0  0  0  0
   38.5700   30.5180   41.7740 C   0  0  0  0  0  0  0  0  0  0  0  0
   38.8160   29.8190   42.9020 N   0  0  0  0  0  0  0  0  0  0  0  0
   38.2020   28.2030   44.1560 H   0  0  0  0  0  0  0  0  0  0  0  0
   36.3140   27.5540   42.7710 H   0  0  0  0  0  0  0  0  0  0  0  0
   39.3790   31.6160   41.3710 N   0  0  0  0  0  0  0  0  0  0  0  0
   40.8130   31.4600   41.4490 C   0  0  0  0  0  3  0  0  0  0  0  0
   41.1560   30.5150   40.9690 H   0  0  0  0  0  0  0  0  0  0  0  0
   41.5850   32.6080   40.9010 C   0  0  0  0  0  3  0  0  0  0  0  0
   42.5720   32.7300   41.4130 H   0  0  0  0  0  0  0  0  0  0  0  0
   40.9030   33.8810   41.0130 N   0  0  0  0  0  0  0  0  0  0  0  0
   40.5460   33.9350   42.0090 H   0  0  0  0  0  0  0  0  0  0  0  0
   39.7030   33.7360   40.1750 C   0  0  0  0  0  2  0  0  0  0  0  0
   38.7750   32.8240   40.9080 C   0  0  0  0  0  2  0  0  0  0  0  0
   35.5610   28.7360   40.4290 C   0  0  0  0  0  0  0  0  0  0  0  0
   35.5950   29.5050   39.1250 C   0  0  0  0  0  0  0  0  0  0  0  0
   35.8540   27.9780   39.2190 C   0  0  0  0  0  0  0  0  0  0  0  0
   34.5980   28.6500   40.9410 H   0  0  0  0  0  0  0  0  0  0  0  0
   36.4270   30.1700   38.8980 H   0  0  0  0  0  0  0  0  0  0  0  0
   34.5930   29.8050   38.7610 H   0  0  0  0  0  0  0  0  0  0  0  0
   36.9040   27.7290   38.9090 H   0  0  0  0  0  0  0  0  0  0  0  0
   35.0920   27.3540   38.7020 H   0  0  0  0  0  0  0  0  0  0  0  0
  1  7  1  0  0  0  0
  2  8  1  0  0  0  0
  2  1  2  0  0  0  0
  3  2  1  0  0  0  0
  4  3  2  0  0  0  0
  4  5  1  0  0  0  0
  5  6  2  0  0  0  0
  6  1  1  0  0  0  0
  9 10  1  0  0  0  0
  9  5  1  0  0  0  0
 11 10  1  0  0  0  0
 12 14  1  0  0  0  0
 12 13  1  0  0  0  0
 12 10  1  0  0  0  0
 14 15  1  0  0  0  0
 16 17  1  0  0  0  0
 16 14  1  0  0  0  0
 17  9  1  0  0  0  0
 18 21  1  0  0  0  0
 18  3  1  0  0  0  0
 19 20  1  0  0  0  0
 19 18  1  0  0  0  0
 20 18  1  0  0  0  0
 22 19  1  0  0  0  0
 23 19  1  0  0  0  0
 24 20  1  0  0  0  0
 25 20  1  0  0  0  0
M  END
>  <minimizedAffinity>
-4.51826048

$$$$

 OpenBabel03252505163D

 25 27  0  0  0  0  0  0  0  0999 V2000
   40.5370   28.6080   42.3520 C   0  0  0  0  0  0  0  0  0  0  0  0
   39.3290   27.9390   42.6140 C   0  0  0  0  0  0  0  0  0  0  0  0
   38.1830   28.5720   42.1540 C   0  0  0  0  0  0  0  0  0  0  0  0
   38.2730   29.7680   41.4950 N   0  0  0  0  0  0  0  0  0  0  0  0
   39.4710   30.3780   41.2630 C   0  0  0  0  0  0  0  0  0  0  0  0
   40.5920   29.7710   41.7060 N   0  0  0  0  0  0  0  0  0  0  0  0
   41.4110   28.0820   42.7270 H   0  0  0  0  0  0  0  0  0  0  0  0
   39.2680   27.0080   43.1280 H   0  0  0  0  0  0  0  0  0  0  0  0
   39.5040   31.6200   40.5710 N   0  0  0  0  0  0  0  0  0  0  0  0
   40.4940   31.7850   39.5320 C   0  0  0  0  0  3  0  0  0  0  0  0
   40.4950   30.9300   38.8180 H   0  0  0  0  0  0  0  0  0  0  0  0
   40.3860   33.0640   38.7800 C   0  0  0  0  0  3  0  0  0  0  0  0
   41.3790   33.4100   38.3990 H   0  0  0  0  0  0  0  0  0  0  0  0
   39.8410   34.1570   39.5580 N   0  0  0  0  0  0  0  0  0  0  0  0
   40.3620   34.1500   40.4800 H   0  0  0  0  0  0  0  0  0  0  0  0
   38.4690   33.7360   39.8820 C   0  0  0  0  0  2  0  0  0  0  0  0
   38.5820   32.6560   40.9070 C   0  0  0  0  0  2  0  0  0  0  0  0
   36.8280   27.9520   42.3470 C   0  0  0  0  0  0  0  0  0  0  0  0
   36.9020   26.4640   42.6140 C   0  0  0  0  0  0  0  0  0  0  0  0
   36.4530   27.4970   43.6790 C   0  0  0  0  0  0  0  0  0  0  0  0
   36.0810   28.3020   41.6280 H   0  0  0  0  0  0  0  0  0  0  0  0
   37.8660   25.9700   42.7270 H   0  0  0  0  0  0  0  0  0  0  0  0
   36.0910   25.8860   42.1270 H   0  0  0  0  0  0  0  0  0  0  0  0
   37.1700   27.5210   44.5430 H   0  0  0  0  0  0  0  0  0  0  0  0
   35.3940   27.3910   44.0010 H   0  0  0  0  0  0  0  0  0  0  0  0
  1  2  1  0  0  0  0
  1  7  1  0  0  0  0
  2  8  1  0  0  0  0
  3 18  1  0  0  0  0
  3  2  2  0  0  0  0
  4  3  1  0  0  0  0
  5  4  2  0  0  0  0
  5  6  1  0  0  0  0
  6  1  2  0  0  0  0
  9 17  1  0  0  0  0
  9  5  1  0  0  0  0
 10  9  1  0  0  0  0
 11 10  1  0  0  0  0
 12 10  1  0  0  0  0
 12 14  1  0  0  0  0
 13 12  1  0  0  0  0
 14 16  1  0  0  0  0
 14 15  1  0  0  0  0
 16 17  1  0  0  0  0
 18 19  1  0  0  0  0
 18 20  1  0  0  0  0
 19 22  1  0  0  0  0
 19 20  1  0  0  0  0
 20 25  1  0  0  0  0
 20 24  1  0  0  0  0
 21 18  1  0  0  0  0
 23 19  1  0  0  0  0
M  END
>  <minimizedAffinity>
-4.42615414

$$$$

 OpenBabel03252505163D

 25 27  0  0  0  0  0  0  0  0999 V2000
   36.8130   26.4940   39.2450 C   0  0  0  0  0  0  0  0  0  0  0  0
   36.9720   26.2970   40.6280 C   0  0  0  0  0  0  0  0  0  0  0  0
   37.5490   27.3530   41.3190 C   0  0  0  0  0  0  0  0  0  0  0  0
   37.9240   28.4890   40.6550 N   0  0  0  0  0  0  0  0  0  0  0  0
   37.7470   28.6330   39.3100 C   0  0  0  0  0  0  0  0  0  0  0  0
   37.1860   27.6130   38.6280 N   0  0  0  0  0  0  0  0  0  0  0  0
   36.3580   25.6470   38.7390 H   0  0  0  0  0  0  0  0  0  0  0  0
   36.6770   25.4100   41.1360 H   0  0  0  0  0  0  0  0  0  0  0  0
   38.1550   29.8380   38.6740 N   0  0  0  0  0  0  0  0  0  0  0  0
   37.2480   30.4360   37.7210 C   0  0  0  0  0  3  0  0  0  0  0  0
   36.2160   30.5300   38.1300 H   0  0  0  0  0  0  0  0  0  0  0  0
   37.6970   31.7510   37.1890 C   0  0  0  0  0  3  0  0  0  0  0  0
   37.3230   31.9310   36.1510 H   0  0  0  0  0  0  0  0  0  0  0  0
   39.1360   31.9030   37.1410 N   0  0  0  0  0  0  0  0  0  0  0  0
   39.5100   31.0180   36.6950 H   0  0  0  0  0  0  0  0  0  0  0  0
   39.5650   31.8440   38.5470 C   0  0  0  0  0  2  0  0  0  0  0  0
   39.4210   30.4220   38.9790 C   0  0  0  0  0  2  0  0  0  0  0  0
   37.7540   27.2830   42.8050 C   0  0  0  0  0  0  0  0  0  0  0  0
   37.8830   28.6510   43.4410 C   0  0  0  0  0  0  0  0  0  0  0  0
   36.6700   27.7140   43.6790 C   0  0  0  0  0  0  0  0  0  0  0  0
   38.4670   26.5120   43.1130 H   0  0  0  0  0  0  0  0  0  0  0  0
   37.7470   29.5520   42.8440 H   0  0  0  0  0  0  0  0  0  0  0  0
   38.6320   28.6920   44.2560 H   0  0  0  0  0  0  0  0  0  0  0  0
   35.7250   28.1700   43.2800 H   0  0  0  0  0  0  0  0  0  0  0  0
   36.5680   27.3580   44.7280 H   0  0  0  0  0  0  0  0  0  0  0  0
  1  2  1  0  0  0  0
  2  8  1  0  0  0  0
  2  3  2  0  0  0  0
  3 18  1  0  0  0  0
  4  3  1  0  0  0  0
  5  4  2  0  0  0  0
  6  1  2  0  0  0  0
  6  5  1  0  0  0  0
  7  1  1  0  0  0  0
  9 17  1  0  0  0  0
  9  5  1  0  0  0  0
 10 11  1  0  0  0  0
 10  9  1  0  0  0  0
 12 10  1  0  0  0  0
 13 12  1  0  0  0  0
 14 12  1  0  0  0  0
 14 16  1  0  0  0  0
 15 14  1  0  0  0  0
 16 17  1  0  0  0  0
 18 21  1  0  0  0  0
 18 19  1  0  0  0  0
 18 20  1  0  0  0  0
 19 20  1  0  0  0  0
 19 23  1  0  0  0  0
 20 25  1  0  0  0  0
 22 19  1  0  0  0  0
 24 20  1  0  0  0  0
M  END
>  <minimizedAffinity>
-4.41342258

$$$$

 OpenBabel03252505163D

 25 27  0  0  0  0  0  0  0  0999 V2000
   35.4470   28.9740   40.6830 C   0  0  0  0  0  0  0  0  0  0  0  0
   35.8170   30.3020   40.4060 C   0  0  0  0  0  0  0  0  0  0  0  0
   37.1120   30.6490   40.7630 C   0  0  0  0  0  0  0  0  0  0  0  0
   37.9380   29.7260   41.3450 N   0  0  0  0  0  0  0  0  0  0  0  0
   37.5330   28.4470   41.5920 C   0  0  0  0  0  0  0  0  0  0  0  0
   36.2760   28.0980   41.2490 N   0  0  0  0  0  0  0  0  0  0  0  0
   34.4280   28.7400   40.3900 H   0  0  0  0  0  0  0  0  0  0  0  0
   35.1670   31.0140   39.9530 H   0  0  0  0  0  0  0  0  0  0  0  0
   38.4360   27.5300   42.1980 N   0  0  0  0  0  0  0  0  0  0  0  0
   38.5210   26.2010   41.6380 C   0  0  0  0  0  3  0  0  0  0  0  0
   38.6550   26.2210   40.5330 H   0  0  0  0  0  0  0  0  0  0  0  0
   39.5690   25.3420   42.2530 C   0  0  0  0  0  3  0  0  0  0  0  0
   39.2950   24.2590   42.2200 H   0  0  0  0  0  0  0  0  0  0  0  0
   39.8430   25.6540   43.6410 N   0  0  0  0  0  0  0  0  0  0  0  0
   38.9000   25.7270   44.1170 H   0  0  0  0  0  0  0  0  0  0  0  0
   40.3750   27.0260   43.6160 C   0  0  0  0  0  2  0  0  0  0  0  0
   39.2230   27.9280   43.3200 C   0  0  0  0  0  2  0  0  0  0  0  0
   37.6410   32.0300   40.5010 C   0  0  0  0  0  0  0  0  0  0  0  0
   38.5740   32.0780   39.3090 C   0  0  0  0  0  0  0  0  0  0  0  0
   37.1730   32.7430   39.3190 C   0  0  0  0  0  0  0  0  0  0  0  0
   37.9490   32.5600   41.4070 H   0  0  0  0  0  0  0  0  0  0  0  0
   38.7360   31.1920   38.6980 H   0  0  0  0  0  0  0  0  0  0  0  0
   39.4360   32.7610   39.4490 H   0  0  0  0  0  0  0  0  0  0  0  0
   36.4960   32.2650   38.5620 H   0  0  0  0  0  0  0  0  0  0  0  0
   37.1930   33.8520   39.2410 H   0  0  0  0  0  0  0  0  0  0  0  0
  1  6  1  0  0  0  0
  2  1  2  0  0  0  0
  2  3  1  0  0  0  0
  3  4  2  0  0  0  0
  4  5  1  0  0  0  0
  5  9  1  0  0  0  0
  6  5  2  0  0  0  0
  7  1  1  0  0  0  0
  8  2  1  0  0  0  0
  9 17  1  0  0  0  0
 10  9  1  0  0  0  0
 10 12  1  0  0  0  0
 11 10  1  0  0  0  0
 12 14  1  0  0  0  0
 13 12  1  0  0  0  0
 14 15  1  0  0  0  0
 16 14  1  0  0  0  0
 17 16  1  0  0  0  0
 18  3  1  0  0  0  0
 18 21  1  0  0  0  0
 19 20  1  0  0  0  0
 19 23  1  0  0  0  0
 19 18  1  0  0  0  0
 20 18  1  0  0  0  0
 22 19  1  0  0  0  0
 24 20  1  0  0  0  0
 25 20  1  0  0  0  0
M  END
>  <minimizedAffinity>
-4.37994909

$$$$

 OpenBabel03252505163D

 25 27  0  0  0  0  0  0  0  0999 V2000
   36.6030   28.1050   42.4650 C   0  0  0  0  0  0  0  0  0  0  0  0
   37.7330   27.3220   42.7610 C   0  0  0  0  0  0  0  0  0  0  0  0
   38.9050   27.6980   42.1200 C   0  0  0  0  0  0  0  0  0  0  0  0
   38.9120   28.7660   41.2650 N   0  0  0  0  0  0  0  0  0  0  0  0
   37.7890   29.4970   41.0110 C   0  0  0  0  0  0  0  0  0  0  0  0
   36.6430   29.1420   41.6280 N   0  0  0  0  0  0  0  0  0  0  0  0
   35.7060   27.7820   42.9840 H   0  0  0  0  0  0  0  0  0  0  0  0
   37.7180   26.4930   43.4270 H   0  0  0  0  0  0  0  0  0  0  0  0
   37.8560   30.5980   40.1130 N   0  0  0  0  0  0  0  0  0  0  0  0
   37.2080   31.8270   40.5070 C   0  0  0  0  0  3  0  0  0  0  0  0
   37.4900   32.1360   41.5400 H   0  0  0  0  0  0  0  0  0  0  0  0
   37.4240   32.9620   39.5700 C   0  0  0  0  0  3  0  0  0  0  0  0
   36.5620   33.6750   39.5710 H   0  0  0  0  0  0  0  0  0  0  0  0
   37.6190   32.5560   38.1930 N   0  0  0  0  0  0  0  0  0  0  0  0
   36.8510   31.8590   37.9810 H   0  0  0  0  0  0  0  0  0  0  0  0
   38.8650   31.7740   38.2090 C   0  0  0  0  0  2  0  0  0  0  0  0
   38.5460   30.4740   38.8700 C   0  0  0  0  0  2  0  0  0  0  0  0
   40.1890   26.9600   42.3670 C   0  0  0  0  0  0  0  0  0  0  0  0
   41.1140   27.6990   43.3110 C   0  0  0  0  0  0  0  0  0  0  0  0
   40.4120   26.3670   43.6790 C   0  0  0  0  0  0  0  0  0  0  0  0
   40.6280   26.5300   41.4610 H   0  0  0  0  0  0  0  0  0  0  0  0
   40.7890   28.6200   43.7920 H   0  0  0  0  0  0  0  0  0  0  0  0
   42.1840   27.6230   43.0330 H   0  0  0  0  0  0  0  0  0  0  0  0
   39.6950   26.5120   44.5300 H   0  0  0  0  0  0  0  0  0  0  0  0
   41.1080   25.5140   43.8420 H   0  0  0  0  0  0  0  0  0  0  0  0
  1  2  1  0  0  0  0
  1  7  1  0  0  0  0
  2  8  1  0  0  0  0
  3 18  1  0  0  0  0
  3  2  2  0  0  0  0
  4  3  1  0  0  0  0
  5  4  2  0  0  0  0
  5  6  1  0  0  0  0
  6  1  2  0  0  0  0
  9 10  1  0  0  0  0
  9  5  1  0  0  0  0
 10 11  1  0  0  0  0
 12 13  1  0  0  0  0
 12 10  1  0  0  0  0
 14 16  1  0  0  0  0
 14 12  1  0  0  0  0
 15 14  1  0  0  0  0
 16 17  1  0  0  0  0
 17  9  1  0  0  0  0
 18 19  1  0  0  0  0
 18 20  1  0  0  0  0
 19 20  1  0  0  0  0
 19 22  1  0  0  0  0
 20 25  1  0  0  0  0
 20 24  1  0  0  0  0
 21 18  1  0  0  0  0
 23 19  1  0  0  0  0
M  END
>  <minimizedAffinity>
-4.28946638

$$$$
