
 OpenBabel03242511413D

 34 36  0  0  0  0  0  0  0  0999 V2000
   46.2200   31.9440   47.2740 C   0  0  0  0  0  0  0  0  0  0  0  0
   45.7080   32.3850   48.4880 C   0  0  0  0  0  0  0  0  0  0  0  0
   45.1680   31.5650   49.4420 C   0  0  0  0  0  0  0  0  0  0  0  0
   45.1320   30.2210   49.1690 C   0  0  0  0  0  0  0  0  0  0  0  0
   45.6470   29.7710   47.9480 C   0  0  0  0  0  0  0  0  0  0  0  0
   46.1940   30.6240   46.9990 C   0  0  0  0  0  0  0  0  0  0  0  0
   45.7920   33.4740   48.5880 H   0  0  0  0  0  0  0  0  0  0  0  0
   44.8340   32.0990   50.2990 H   0  0  0  0  0  0  0  0  0  0  0  0
   44.6730   29.6770   50.0100 H   0  0  0  0  0  0  0  0  0  0  0  0
   45.4900   28.6780   48.0010 H   0  0  0  0  0  0  0  0  0  0  0  0
   46.6350   29.6820   46.0350 N   0  0  0  0  0  0  0  0  0  0  0  0
   45.5850   28.8490   45.4270 C   0  0  0  0  0  0  0  0  0  0  0  0
   44.7950   28.5740   46.1520 H   0  0  0  0  0  0  0  0  0  0  0  0
   46.1200   27.5930   44.8190 C   0  0  0  0  0  0  0  0  0  0  0  0
   46.6470   27.0090   45.5820 H   0  0  0  0  0  0  0  0  0  0  0  0
   47.0600   27.8550   43.7430 N   0  0  0  0  0  0  0  0  0  0  0  0
   47.6820   27.0250   43.6740 H   0  0  0  0  0  0  0  0  0  0  0  0
   47.8030   29.0790   43.9820 C   0  0  0  0  0  0  0  0  0  0  0  0
   47.9310   29.3720   45.4600 C   0  0  0  0  0  0  0  0  0  0  0  0
   46.7780   32.7430   46.1680 C   0  0  0  0  0  0  0  0  0  0  0  0
   47.8540   32.4630   46.0000 H   0  0  0  0  0  0  0  0  0  0  0  0
   46.8060   33.7840   46.5480 H   0  0  0  0  0  0  0  0  0  0  0  0
   45.9710   32.6030   44.9070 C   0  0  0  0  0  0  0  0  0  0  0  0
   46.5210   32.0910   44.1390 H   0  0  0  0  0  0  0  0  0  0  0  0
   44.9380   32.2020   45.1370 H   0  0  0  0  0  0  0  0  0  0  0  0
   44.5750   36.0160   44.7800 C   0  0  0  0  0  0  0  0  0  0  0  0
   44.9990   36.4670   43.5090 C   0  0  0  0  0  0  0  0  0  0  0  0
   45.7540   35.5850   42.7570 C   0  0  0  0  0  0  0  0  0  0  0  0
   46.0470   34.3750   43.2480 N   0  0  0  0  0  0  0  0  0  0  0  0
   45.6130   33.9940   44.4770 C   0  0  0  0  0  0  0  0  0  0  0  0
   44.8930   34.7880   45.2350 N   0  0  0  0  0  0  0  0  0  0  0  0
   43.9800   36.6560   45.4190 H   0  0  0  0  0  0  0  0  0  0  0  0
   44.6930   37.4760   43.2230 H   0  0  0  0  0  0  0  0  0  0  0  0
   46.0760   35.9360   41.7850 H   0  0  0  0  0  0  0  0  0  0  0  0
  1  2  1  0  0  0  0
  2  7  1  0  0  0  0
  2  3  2  0  0  0  0
  3  8  1  0  0  0  0
  4  3  1  0  0  0  0
  4  9  1  0  0  0  0
  5 10  1  0  0  0  0
  5  4  2  0  0  0  0
  6  1  2  0  0  0  0
  6  5  1  0  0  0  0
 11  6  1  0  0  0  0
 12 11  1  0  0  0  0
 12 13  1  0  0  0  0
 14 12  1  0  0  0  0
 14 15  1  0  0  0  0
 16 18  1  0  0  0  0
 16 14  1  0  0  0  0
 17 16  1  0  0  0  0
 18 19  1  0  0  0  0
 19 11  1  0  0  0  0
 20 22  1  0  0  0  0
 20  1  1  0  0  0  0
 21 20  1  0  0  0  0
 23 25  1  0  0  0  0
 23 20  1  0  0  0  0
 24 23  1  0  0  0  0
 26 31  1  0  0  0  0
 26 32  1  0  0  0  0
 27 26  2  0  0  0  0
 28 29  2  0  0  0  0
 28 27  1  0  0  0  0
 29 30  1  0  0  0  0
 30 23  1  0  0  0  0
 30 31  2  0  0  0  0
 33 27  1  0  0  0  0
 34 28  1  0  0  0  0
M  END
>  <minimizedAffinity>
-4.81619787

>  <minimizedRMSD>
0.62510246

$$$$
