
 OpenBabel03252502583D

 22 23  0  0  0  0  0  0  0  0999 V2000
   43.1070   33.9020   40.9200 C   0  0  0  0  0  0  0  0  0  0  0  0
   43.4960   33.5960   39.9090 H   0  0  0  0  0  0  0  0  0  0  0  0
   43.1430   32.9690   41.5150 H   0  0  0  0  0  0  0  0  0  0  0  0
   41.7590   34.3210   40.7190 N   0  0  0  0  0  0  0  0  0  0  0  0
   41.3870   35.5170   41.3970 C   0  0  0  0  0  0  0  0  0  0  0  0
   42.2430   36.1990   41.4650 H   0  0  0  0  0  0  0  0  0  0  0  0
   40.2360   36.1350   40.6290 C   0  0  0  0  0  0  0  0  0  0  0  0
   40.5760   36.9590   39.9580 H   0  0  0  0  0  0  0  0  0  0  0  0
   39.5230   35.1170   39.8530 N   0  0  0  0  0  0  0  0  0  0  0  0
   38.5860   35.4530   39.6100 H   0  0  0  0  0  0  0  0  0  0  0  0
   39.4130   33.9300   40.6840 C   0  0  0  0  0  0  0  0  0  0  0  0
   40.7750   33.2950   40.8820 C   0  0  0  0  0  0  0  0  0  0  0  0
   44.2260   35.1550   41.5370 S   0  0  0  0  0  0  0  0  0  0  0  0
   44.3390   35.6890   44.2720 C   0  0  0  0  0  0  0  0  0  0  0  0
   44.6530   34.7670   43.2520 C   0  0  0  0  0  0  0  0  0  0  0  0
   45.2900   33.5560   43.5490 C   0  0  0  0  0  0  0  0  0  0  0  0
   45.5790   33.3350   44.8660 N   0  0  0  0  0  0  0  0  0  0  0  0
   45.2660   34.2300   45.8030 C   0  0  0  0  0  0  0  0  0  0  0  0
   44.6640   35.3830   45.5450 N   0  0  0  0  0  0  0  0  0  0  0  0
   43.8500   36.5910   43.9500 H   0  0  0  0  0  0  0  0  0  0  0  0
   45.5110   32.8780   42.7340 H   0  0  0  0  0  0  0  0  0  0  0  0
   45.5180   34.0050   46.8290 H   0  0  0  0  0  0  0  0  0  0  0  0
  1  3  1  0  0  0  0
  1 13  1  0  0  0  0
  2  1  1  0  0  0  0
  4 12  1  0  0  0  0
  4  1  1  0  0  0  0
  4  5  1  0  0  0  0
  5  6  1  0  0  0  0
  7  5  1  0  0  0  0
  8  7  1  0  0  0  0
  9  7  1  0  0  0  0
  9 11  1  0  0  0  0
 10  9  1  0  0  0  0
 11 12  1  0  0  0  0
 13 15  1  0  0  0  0
 14 19  1  0  0  0  0
 15 16  1  0  0  0  0
 15 14  2  0  0  0  0
 16 17  2  0  0  0  0
 17 18  1  0  0  0  0
 18 22  1  0  0  0  0
 19 18  2  0  0  0  0
 20 14  1  0  0  0  0
 21 16  1  0  0  0  0
M  END
>  <minimizedAffinity>
-4.15386438

>  <minimizedRMSD>
2.57849407

$$$$
