
 OpenBabel03252505333D

 30 32  0  0  0  0  0  0  0  0999 V2000
   46.7010   34.7910   41.9910 C   0  0  0  0  0  0  0  0  0  0  0  0
   47.9430   35.3920   41.9080 C   0  0  0  0  0  0  0  0  0  0  0  0
   48.7620   35.2870   40.7840 C   0  0  0  0  0  0  0  0  0  0  0  0
   48.3060   34.5430   39.7010 C   0  0  0  0  0  0  0  0  0  0  0  0
   47.0750   33.9570   39.8030 C   0  0  0  0  0  0  0  0  0  0  0  0
   46.2670   34.0660   40.9180 C   0  0  0  0  0  0  0  0  0  0  0  0
   48.3170   35.9810   42.7530 H   0  0  0  0  0  0  0  0  0  0  0  0
   49.7140   35.7950   40.8190 H   0  0  0  0  0  0  0  0  0  0  0  0
   49.0040   34.5230   38.8930 H   0  0  0  0  0  0  0  0  0  0  0  0
   46.8720   33.4290   38.8830 H   0  0  0  0  0  0  0  0  0  0  0  0
   44.4880   36.1100   44.7280 C   0  0  0  0  0  0  0  0  0  0  0  0
   45.1630   36.0480   43.4900 C   0  0  0  0  0  0  0  0  0  0  0  0
   45.9670   34.9620   43.2140 C   0  0  0  0  0  0  0  0  0  0  0  0
   46.0730   33.9870   44.1680 N   0  0  0  0  0  0  0  0  0  0  0  0
   45.4060   34.0840   45.3510 C   0  0  0  0  0  0  0  0  0  0  0  0
   44.6210   35.1400   45.6220 N   0  0  0  0  0  0  0  0  0  0  0  0
   45.5520   33.0650   46.3400 N   0  0  0  0  0  0  0  0  0  0  0  0
   43.8470   36.9670   44.9550 H   0  0  0  0  0  0  0  0  0  0  0  0
   45.0670   36.8200   42.7630 H   0  0  0  0  0  0  0  0  0  0  0  0
   45.6090   33.2290   47.3720 H   0  0  0  0  0  0  0  0  0  0  0  0
   45.6150   32.0400   46.0780 H   0  0  0  0  0  0  0  0  0  0  0  0
   45.0110   33.4310   40.8640 N   0  0  0  0  0  0  0  0  0  0  0  0
   43.8520   34.0960   40.2950 C   0  0  0  0  0  3  0  0  0  0  0  0
   43.4570   33.4180   39.4740 H   0  0  0  0  0  0  0  0  0  0  0  0
   42.7370   34.2520   41.2840 C   0  0  0  0  0  3  0  0  0  0  0  0
   41.7990   34.3900   40.6820 H   0  0  0  0  0  0  0  0  0  0  0  0
   42.5150   33.0510   42.0600 N   0  0  0  0  0  0  0  0  0  0  0  0
   42.8920   33.1290   43.0230 H   0  0  0  0  0  0  0  0  0  0  0  0
   43.1020   31.9570   41.3460 C   0  0  0  0  0  2  0  0  0  0  0  0
   44.6170   32.1190   41.3480 C   0  0  0  0  0  2  0  0  0  0  0  0
  1 13  1  0  0  0  0
  2  1  1  0  0  0  0
  2  7  1  0  0  0  0
  3  8  1  0  0  0  0
  3  2  2  0  0  0  0
  4  5  2  0  0  0  0
  4  3  1  0  0  0  0
  5  6  1  0  0  0  0
  6  1  2  0  0  0  0
  9  4  1  0  0  0  0
 10  5  1  0  0  0  0
 11 18  1  0  0  0  0
 11 16  1  0  0  0  0
 12 11  2  0  0  0  0
 13 12  1  0  0  0  0
 13 14  2  0  0  0  0
 14 15  1  0  0  0  0
 15 16  2  0  0  0  0
 15 17  1  0  0  0  0
 17 20  1  0  0  0  0
 19 12  1  0  0  0  0
 21 17  1  0  0  0  0
 22  6  1  0  0  0  0
 22 30  1  0  0  0  0
 23 22  1  0  0  0  0
 23 25  1  0  0  0  0
 24 23  1  0  0  0  0
 25 27  1  0  0  0  0
 26 25  1  0  0  0  0
 27 28  1  0  0  0  0
 29 30  1  0  0  0  0
 29 27  1  0  0  0  0
M  END
>  <minimizedAffinity>
-6.24134016

>  <minimizedRMSD>
0.685261786

$$$$
