
 OpenBabel03242522263D

 38 41  0  0  0  0  0  0  0  0999 V2000
   45.4810   33.1130   41.2270 F   0  0  0  0  0  0  0  0  0  0  0  0
   46.5700   33.9360   41.0560 C   0  0  0  0  0  0  0  0  0  0  0  0
   46.9920   34.7430   42.0590 C   0  0  0  0  0  0  0  0  0  0  0  0
   48.1080   35.5110   41.8100 C   0  0  0  0  0  0  0  0  0  0  0  0
   48.7770   35.4800   40.6100 C   0  0  0  0  0  0  0  0  0  0  0  0
   48.2780   34.6380   39.6540 C   0  0  0  0  0  0  0  0  0  0  0  0
   47.1840   33.8520   39.8360 C   0  0  0  0  0  0  0  0  0  0  0  0
   48.3580   36.1220   42.6960 H   0  0  0  0  0  0  0  0  0  0  0  0
   49.6020   36.1520   40.6470 H   0  0  0  0  0  0  0  0  0  0  0  0
   48.9210   34.8610   38.8450 H   0  0  0  0  0  0  0  0  0  0  0  0
   46.7730   33.0140   38.7410 C   0  0  0  0  0  0  0  0  0  0  0  0
   45.5190   33.2360   38.1610 C   0  0  0  0  0  0  0  0  0  0  0  0
   45.1670   32.4150   37.1150 C   0  0  0  0  0  0  0  0  0  0  0  0
   46.0150   31.3950   36.6350 C   0  0  0  0  0  0  0  0  0  0  0  0
   47.2680   31.2300   37.2710 C   0  0  0  0  0  0  0  0  0  0  0  0
   47.6360   32.0380   38.3220 C   0  0  0  0  0  0  0  0  0  0  0  0
   44.7700   33.9490   38.3670 H   0  0  0  0  0  0  0  0  0  0  0  0
   44.2030   32.5040   36.5910 H   0  0  0  0  0  0  0  0  0  0  0  0
   45.6510   30.7900   35.7940 H   0  0  0  0  0  0  0  0  0  0  0  0
   47.7910   30.4350   36.8050 H   0  0  0  0  0  0  0  0  0  0  0  0
   48.8470   31.5220   38.7850 N   0  0  0  0  0  0  0  0  0  0  0  0
   49.2490   30.5970   39.8720 C   0  0  0  0  0  0  0  0  0  0  0  0
   48.4480   30.3710   40.5660 H   0  0  0  0  0  0  0  0  0  0  0  0
   49.8440   29.3380   39.2950 C   0  0  0  0  0  0  0  0  0  0  0  0
   50.0950   28.6990   40.1680 H   0  0  0  0  0  0  0  0  0  0  0  0
   51.1030   29.7300   38.6900 N   0  0  0  0  0  0  0  0  0  0  0  0
   51.4900   28.8680   38.2450 H   0  0  0  0  0  0  0  0  0  0  0  0
   50.8280   30.6480   37.6360 C   0  0  0  0  0  0  0  0  0  0  0  0
   50.0540   31.8740   38.0140 C   0  0  0  0  0  0  0  0  0  0  0  0
   44.5330   35.7040   44.7850 C   0  0  0  0  0  0  0  0  0  0  0  0
   45.2540   35.6830   43.6030 C   0  0  0  0  0  0  0  0  0  0  0  0
   46.2410   34.7570   43.3050 C   0  0  0  0  0  0  0  0  0  0  0  0
   46.4490   33.8630   44.2730 N   0  0  0  0  0  0  0  0  0  0  0  0
   45.7610   33.8660   45.4260 C   0  0  0  0  0  0  0  0  0  0  0  0
   44.8220   34.7620   45.6880 N   0  0  0  0  0  0  0  0  0  0  0  0
   43.7930   36.4490   44.9320 H   0  0  0  0  0  0  0  0  0  0  0  0
   45.0200   36.4460   42.8730 H   0  0  0  0  0  0  0  0  0  0  0  0
   45.9660   33.1180   46.1810 H   0  0  0  0  0  0  0  0  0  0  0  0
  2  1  1  0  0  0  0
  2  3  1  0  0  0  0
  3 32  1  0  0  0  0
  4  3  2  0  0  0  0
  4  8  1  0  0  0  0
  5  9  1  0  0  0  0
  5  4  1  0  0  0  0
  6  7  1  0  0  0  0
  6  5  2  0  0  0  0
  7  2  2  0  0  0  0
 10  6  1  0  0  0  0
 11  7  1  0  0  0  0
 12 17  1  0  0  0  0
 12 11  2  0  0  0  0
 13 12  1  0  0  0  0
 14 13  2  0  0  0  0
 14 15  1  0  0  0  0
 15 16  2  0  0  0  0
 16 11  1  0  0  0  0
 16 21  1  0  0  0  0
 18 13  1  0  0  0  0
 19 14  1  0  0  0  0
 20 15  1  0  0  0  0
 21 22  1  0  0  0  0
 22 23  1  0  0  0  0
 24 22  1  0  0  0  0
 24 25  1  0  0  0  0
 26 24  1  0  0  0  0
 27 26  1  0  0  0  0
 28 29  1  0  0  0  0
 28 26  1  0  0  0  0
 29 21  1  0  0  0  0
 30 36  1  0  0  0  0
 30 35  1  0  0  0  0
 31 30  2  0  0  0  0
 32 31  1  0  0  0  0
 32 33  2  0  0  0  0
 33 34  1  0  0  0  0
 34 35  2  0  0  0  0
 34 38  1  0  0  0  0
 37 31  1  0  0  0  0
M  END
>  <minimizedAffinity>
-5.75001812

>  <minimizedRMSD>
1.7368592

$$$$
