
 OpenBabel03252505333D

 30 32  0  0  0  0  0  0  0  0999 V2000
   46.6490   34.8130   42.0770 C   0  0  0  0  0  0  0  0  0  0  0  0
   47.9260   35.3390   42.0130 C   0  0  0  0  0  0  0  0  0  0  0  0
   48.7500   35.1930   40.8970 C   0  0  0  0  0  0  0  0  0  0  0  0
   48.2630   34.4860   39.8030 C   0  0  0  0  0  0  0  0  0  0  0  0
   46.9980   33.9740   39.8860 C   0  0  0  0  0  0  0  0  0  0  0  0
   46.1850   34.1220   40.9930 C   0  0  0  0  0  0  0  0  0  0  0  0
   48.3250   35.8980   42.8670 H   0  0  0  0  0  0  0  0  0  0  0  0
   49.7310   35.6430   40.9460 H   0  0  0  0  0  0  0  0  0  0  0  0
   48.9680   34.4300   39.0030 H   0  0  0  0  0  0  0  0  0  0  0  0
   46.7740   33.4660   38.9600 H   0  0  0  0  0  0  0  0  0  0  0  0
   44.3990   36.1880   44.7550 C   0  0  0  0  0  0  0  0  0  0  0  0
   45.0740   36.0880   43.5190 C   0  0  0  0  0  0  0  0  0  0  0  0
   45.9130   35.0180   43.2930 C   0  0  0  0  0  0  0  0  0  0  0  0
   46.0540   34.0940   44.2920 N   0  0  0  0  0  0  0  0  0  0  0  0
   45.3860   34.2260   45.4730 C   0  0  0  0  0  0  0  0  0  0  0  0
   44.5670   35.2670   45.6950 N   0  0  0  0  0  0  0  0  0  0  0  0
   45.5690   33.2620   46.5090 N   0  0  0  0  0  0  0  0  0  0  0  0
   43.7300   37.0330   44.9430 H   0  0  0  0  0  0  0  0  0  0  0  0
   44.9490   36.8210   42.7560 H   0  0  0  0  0  0  0  0  0  0  0  0
   45.6230   33.4780   47.5310 H   0  0  0  0  0  0  0  0  0  0  0  0
   45.6660   32.2280   46.2970 H   0  0  0  0  0  0  0  0  0  0  0  0
   44.8940   33.5650   40.9200 N   0  0  0  0  0  0  0  0  0  0  0  0
   43.8260   34.2230   40.1900 C   0  0  0  0  0  3  0  0  0  0  0  0
   43.4400   33.4750   39.4300 H   0  0  0  0  0  0  0  0  0  0  0  0
   42.6610   34.5700   41.0680 C   0  0  0  0  0  3  0  0  0  0  0  0
   41.7770   34.6900   40.3840 H   0  0  0  0  0  0  0  0  0  0  0  0
   42.3030   33.4900   41.9630 N   0  0  0  0  0  0  0  0  0  0  0  0
   42.6200   33.6650   42.9360 H   0  0  0  0  0  0  0  0  0  0  0  0
   42.8590   32.2820   41.4310 C   0  0  0  0  0  2  0  0  0  0  0  0
   44.3780   32.3490   41.5260 C   0  0  0  0  0  2  0  0  0  0  0  0
  1 13  1  0  0  0  0
  2  1  1  0  0  0  0
  2  7  1  0  0  0  0
  3  8  1  0  0  0  0
  3  2  2  0  0  0  0
  4  5  2  0  0  0  0
  4  3  1  0  0  0  0
  5  6  1  0  0  0  0
  6  1  2  0  0  0  0
  9  4  1  0  0  0  0
 10  5  1  0  0  0  0
 11 18  1  0  0  0  0
 11 16  1  0  0  0  0
 12 11  2  0  0  0  0
 13 12  1  0  0  0  0
 13 14  2  0  0  0  0
 14 15  1  0  0  0  0
 15 16  2  0  0  0  0
 15 17  1  0  0  0  0
 17 20  1  0  0  0  0
 19 12  1  0  0  0  0
 21 17  1  0  0  0  0
 22  6  1  0  0  0  0
 22 30  1  0  0  0  0
 23 22  1  0  0  0  0
 23 25  1  0  0  0  0
 24 23  1  0  0  0  0
 25 27  1  0  0  0  0
 26 25  1  0  0  0  0
 27 28  1  0  0  0  0
 29 30  1  0  0  0  0
 29 27  1  0  0  0  0
M  END
>  <minimizedAffinity>
-6.33312082

>  <minimizedRMSD>
0.223230556

$$$$
