
 OpenBabel03242518483D

 45 48  0  0  1  0  0  0  0  0999 V2000
   39.1290   31.4460   38.9920 C   0  0  2  0  0  0  0  0  0  0  0  0
   39.4070   32.9060   38.9520 C   0  0  1  0  0  0  0  0  0  0  0  0
   38.7710   33.6440   40.1330 C   0  0  0  0  0  0  0  0  0  0  0  0
   37.4210   33.2850   40.0690 O   0  0  0  0  0  0  0  0  0  0  0  0
   37.2240   31.9860   40.4810 C   0  0  0  0  0  0  0  0  0  0  0  0
   38.4190   31.1000   40.3130 C   0  0  1  0  0  0  0  0  0  0  0  0
   38.4500   31.1630   38.1840 H   0  0  0  0  0  0  0  0  0  0  0  0
   38.9830   33.3390   38.0060 H   0  0  0  0  0  0  0  0  0  0  0  0
   39.2400   33.3820   41.0780 H   0  0  0  0  0  0  0  0  0  0  0  0
   38.8430   34.7390   39.9650 H   0  0  0  0  0  0  0  0  0  0  0  0
   36.9870   32.0400   41.5770 H   0  0  0  0  0  0  0  0  0  0  0  0
   36.3340   31.5570   40.0040 H   0  0  0  0  0  0  0  0  0  0  0  0
   39.1950   31.2670   41.0900 H   0  0  0  0  0  0  0  0  0  0  0  0
   42.7240   33.9980   37.8570 C   0  0  0  0  0  0  0  0  0  0  0  0
   43.5110   33.9730   39.0500 C   0  0  0  0  0  0  0  0  0  0  0  0
   42.8290   33.5640   40.2260 C   0  0  0  0  0  0  0  0  0  0  0  0
   41.5200   33.2320   40.1520 N   0  0  0  0  0  0  0  0  0  0  0  0
   40.8330   33.2770   38.9910 C   0  0  0  0  0  0  0  0  0  0  0  0
   41.4360   33.6610   37.8390 N   0  0  0  0  0  0  0  0  0  0  0  0
   44.5390   34.2370   39.0910 H   0  0  0  0  0  0  0  0  0  0  0  0
   43.3240   33.5100   41.1700 H   0  0  0  0  0  0  0  0  0  0  0  0
   43.3680   34.3870   36.7260 O   0  0  0  0  0  0  0  0  0  0  0  0
   42.9440   34.2700   35.8050 H   0  0  0  0  0  0  0  0  0  0  0  0
   40.2750   30.6530   38.8980 O   0  0  0  0  0  0  0  0  0  0  0  0
   40.8630   30.8230   39.6780 H   0  0  0  0  0  0  0  0  0  0  0  0
   38.1090   29.7600   40.2560 O   0  0  0  0  0  0  0  0  0  0  0  0
   40.0730   27.9600   40.7150 F   0  0  0  0  0  0  0  0  0  0  0  0
   38.8560   27.9410   41.2960 C   0  0  0  0  0  0  0  0  0  0  0  0
   37.8010   28.8130   41.1250 C   0  0  0  0  0  0  0  0  0  0  0  0
   36.6730   28.5290   41.8760 C   0  0  0  0  0  0  0  0  0  0  0  0
   36.5200   27.4830   42.7510 C   0  0  0  0  0  0  0  0  0  0  0  0
   37.5930   26.6510   42.8830 C   0  0  0  0  0  0  0  0  0  0  0  0
   38.7670   26.8470   42.1770 C   0  0  0  0  0  0  0  0  0  0  0  0
   35.8740   29.2690   41.6850 H   0  0  0  0  0  0  0  0  0  0  0  0
   35.5780   27.3850   43.2710 H   0  0  0  0  0  0  0  0  0  0  0  0
   37.4800   25.8100   43.5810 H   0  0  0  0  0  0  0  0  0  0  0  0
   39.7950   25.8910   42.4260 N   0  0  0  0  0  0  0  0  0  0  0  0
   40.4520   25.0780   41.3980 C   0  0  0  0  0  3  0  0  0  0  0  0
   40.0310   24.0600   41.3410 H   0  0  0  0  0  0  0  0  0  0  0  0
   41.9530   25.1050   41.5680 C   0  0  0  0  0  3  0  0  0  0  0  0
   42.3590   24.2300   41.0170 H   0  0  0  0  0  0  0  0  0  0  0  0
   42.3730   25.0190   42.9250 N   0  0  0  0  0  0  0  0  0  0  0  0
   42.4650   24.0760   43.3120 H   0  0  0  0  0  0  0  0  0  0  0  0
   41.7370   25.9490   43.8080 C   0  0  0  0  0  2  0  0  0  0  0  0
   40.2470   25.6870   43.7900 C   0  0  0  0  0  2  0  0  0  0  0  0
  1  7  1  6  0  0  0
  1  6  1  0  0  0  0
  2  8  1  6  0  0  0
  2 18  1  0  0  0  0
  2  1  1  0  0  0  0
  2  3  1  0  0  0  0
  3  9  1  0  0  0  0
  4  3  1  0  0  0  0
  4  5  1  0  0  0  0
  5 11  1  0  0  0  0
  6  5  1  0  0  0  0
  6 13  1  1  0  0  0
 10  3  1  0  0  0  0
 12  5  1  0  0  0  0
 14 15  1  0  0  0  0
 15 20  1  0  0  0  0
 15 16  2  0  0  0  0
 16 21  1  0  0  0  0
 17 16  1  0  0  0  0
 18 17  2  0  0  0  0
 19 14  2  0  0  0  0
 19 18  1  0  0  0  0
 22 14  1  0  0  0  0
 23 22  1  0  0  0  0
 24  1  1  0  0  0  0
 24 25  1  0  0  0  0
 26  6  1  0  0  0  0
 26 29  1  0  0  0  0
 27 28  1  0  0  0  0
 28 33  1  0  0  0  0
 29 28  2  0  0  0  0
 29 30  1  0  0  0  0
 30 31  2  0  0  0  0
 31 32  1  0  0  0  0
 31 35  1  0  0  0  0
 32 36  1  0  0  0  0
 33 37  1  0  0  0  0
 33 32  2  0  0  0  0
 34 30  1  0  0  0  0
 37 45  1  0  0  0  0
 38 40  1  0  0  0  0
 38 37  1  0  0  0  0
 39 38  1  0  0  0  0
 40 42  1  0  0  0  0
 41 40  1  0  0  0  0
 42 43  1  0  0  0  0
 42 44  1  0  0  0  0
 45 44  1  0  0  0  0
M  END
>  <minimizedAffinity>
-6.65082264

$$$$

 OpenBabel03242518483D

 45 48  0  0  1  0  0  0  0  0999 V2000
   39.2040   31.3510   39.1970 C   0  0  2  0  0  0  0  0  0  0  0  0
   39.3920   32.8060   38.9560 C   0  0  1  0  0  0  0  0  0  0  0  0
   38.6430   33.6590   39.9830 C   0  0  0  0  0  0  0  0  0  0  0  0
   37.3250   33.2000   39.9070 O   0  0  0  0  0  0  0  0  0  0  0  0
   37.1860   31.9630   40.4960 C   0  0  0  0  0  0  0  0  0  0  0  0
   38.4410   31.1480   40.5190 C   0  0  1  0  0  0  0  0  0  0  0  0
   38.5930   30.9070   38.4080 H   0  0  0  0  0  0  0  0  0  0  0  0
   38.9980   33.0670   37.9370 H   0  0  0  0  0  0  0  0  0  0  0  0
   39.0720   33.5680   40.9780 H   0  0  0  0  0  0  0  0  0  0  0  0
   38.6570   34.7210   39.6600 H   0  0  0  0  0  0  0  0  0  0  0  0
   36.8830   32.1570   41.5590 H   0  0  0  0  0  0  0  0  0  0  0  0
   36.3530   31.4080   40.0450 H   0  0  0  0  0  0  0  0  0  0  0  0
   39.1590   31.4800   41.2990 H   0  0  0  0  0  0  0  0  0  0  0  0
   42.6720   34.0190   37.8780 C   0  0  0  0  0  0  0  0  0  0  0  0
   43.4080   34.1620   39.0950 C   0  0  0  0  0  0  0  0  0  0  0  0
   42.7060   33.8190   40.2810 C   0  0  0  0  0  0  0  0  0  0  0  0
   41.4270   33.3910   40.1920 N   0  0  0  0  0  0  0  0  0  0  0  0
   40.7870   33.2780   39.0090 C   0  0  0  0  0  0  0  0  0  0  0  0
   41.4110   33.5930   37.8480 N   0  0  0  0  0  0  0  0  0  0  0  0
   44.4140   34.5000   39.1460 H   0  0  0  0  0  0  0  0  0  0  0  0
   43.1640   33.8890   41.2420 H   0  0  0  0  0  0  0  0  0  0  0  0
   43.3350   34.3440   36.7380 O   0  0  0  0  0  0  0  0  0  0  0  0
   42.9600   34.1120   35.8190 H   0  0  0  0  0  0  0  0  0  0  0  0
   40.4020   30.6340   39.2770 O   0  0  0  0  0  0  0  0  0  0  0  0
   40.9310   30.9560   40.0510 H   0  0  0  0  0  0  0  0  0  0  0  0
   38.2200   29.7950   40.6440 O   0  0  0  0  0  0  0  0  0  0  0  0
   38.2880   27.1780   39.9720 F   0  0  0  0  0  0  0  0  0  0  0  0
   37.9920   27.6530   41.1980 C   0  0  0  0  0  0  0  0  0  0  0  0
   37.9350   28.9620   41.6300 C   0  0  0  0  0  0  0  0  0  0  0  0
   37.6050   29.1310   42.9640 C   0  0  0  0  0  0  0  0  0  0  0  0
   37.3370   28.1330   43.8670 C   0  0  0  0  0  0  0  0  0  0  0  0
   37.4070   26.8580   43.3900 C   0  0  0  0  0  0  0  0  0  0  0  0
   37.7280   26.5820   42.0720 C   0  0  0  0  0  0  0  0  0  0  0  0
   37.5800   30.2020   43.2330 H   0  0  0  0  0  0  0  0  0  0  0  0
   37.0920   28.4140   44.8820 H   0  0  0  0  0  0  0  0  0  0  0  0
   37.1930   26.0520   44.1050 H   0  0  0  0  0  0  0  0  0  0  0  0
   37.7590   25.1990   41.7290 N   0  0  0  0  0  0  0  0  0  0  0  0
   36.5890   24.4010   41.3510 C   0  0  0  0  0  3  0  0  0  0  0  0
   36.2050   23.8020   42.1930 H   0  0  0  0  0  0  0  0  0  0  0  0
   36.8700   23.5890   40.1080 C   0  0  0  0  0  3  0  0  0  0  0  0
   36.1170   22.7720   40.0750 H   0  0  0  0  0  0  0  0  0  0  0  0
   38.1690   23.0070   40.0900 N   0  0  0  0  0  0  0  0  0  0  0  0
   38.2670   22.1030   40.5600 H   0  0  0  0  0  0  0  0  0  0  0  0
   39.2370   23.9210   40.3620 C   0  0  0  0  0  2  0  0  0  0  0  0
   39.0320   24.5020   41.7430 C   0  0  0  0  0  2  0  0  0  0  0  0
  1  7  1  6  0  0  0
  1 24  1  0  0  0  0
  1  6  1  0  0  0  0
  2  8  1  6  0  0  0
  2 18  1  0  0  0  0
  2  1  1  0  0  0  0
  2  3  1  0  0  0  0
  3  9  1  0  0  0  0
  4  3  1  0  0  0  0
  4  5  1  0  0  0  0
  5  6  1  0  0  0  0
  5 11  1  0  0  0  0
  6 26  1  0  0  0  0
  6 13  1  1  0  0  0
 10  3  1  0  0  0  0
 12  5  1  0  0  0  0
 14 15  1  0  0  0  0
 15 20  1  0  0  0  0
 15 16  2  0  0  0  0
 16 21  1  0  0  0  0
 17 16  1  0  0  0  0
 18 17  2  0  0  0  0
 19 14  2  0  0  0  0
 19 18  1  0  0  0  0
 22 14  1  0  0  0  0
 23 22  1  0  0  0  0
 24 25  1  0  0  0  0
 26 29  1  0  0  0  0
 27 28  1  0  0  0  0
 28 29  2  0  0  0  0
 28 33  1  0  0  0  0
 29 30  1  0  0  0  0
 30 34  1  0  0  0  0
 30 31  2  0  0  0  0
 31 35  1  0  0  0  0
 32 31  1  0  0  0  0
 32 36  1  0  0  0  0
 33 32  2  0  0  0  0
 37 45  1  0  0  0  0
 37 33  1  0  0  0  0
 38 37  1  0  0  0  0
 38 39  1  0  0  0  0
 40 38  1  0  0  0  0
 41 40  1  0  0  0  0
 42 40  1  0  0  0  0
 42 44  1  0  0  0  0
 42 43  1  0  0  0  0
 44 45  1  0  0  0  0
M  END
>  <minimizedAffinity>
-6.59473705

$$$$

 OpenBabel03242518483D

 45 48  0  0  1  0  0  0  0  0999 V2000
   38.3750   29.3890   41.5410 C   0  0  2  0  0  0  0  0  0  0  0  0
   37.6650   28.3430   42.3230 C   0  0  1  0  0  0  0  0  0  0  0  0
   36.4650   27.7740   41.5610 C   0  0  0  0  0  0  0  0  0  0  0  0
   35.7060   28.9020   41.2330 O   0  0  0  0  0  0  0  0  0  0  0  0
   36.2940   29.6290   40.2210 C   0  0  0  0  0  0  0  0  0  0  0  0
   37.7770   29.4610   40.1250 C   0  0  1  0  0  0  0  0  0  0  0  0
   38.2310   30.3720   41.9960 H   0  0  0  0  0  0  0  0  0  0  0  0
   37.2850   28.7890   43.2810 H   0  0  0  0  0  0  0  0  0  0  0  0
   36.7700   27.1960   40.6920 H   0  0  0  0  0  0  0  0  0  0  0  0
   35.8610   27.1410   42.2450 H   0  0  0  0  0  0  0  0  0  0  0  0
   35.8420   29.2510   39.2650 H   0  0  0  0  0  0  0  0  0  0  0  0
   36.0110   30.6870   40.2870 H   0  0  0  0  0  0  0  0  0  0  0  0
   38.0750   28.4980   39.6570 H   0  0  0  0  0  0  0  0  0  0  0  0
   38.8520   24.8870   42.5140 C   0  0  0  0  0  0  0  0  0  0  0  0
   39.9930   24.9570   43.3740 C   0  0  0  0  0  0  0  0  0  0  0  0
   40.3110   26.2500   43.8670 C   0  0  0  0  0  0  0  0  0  0  0  0
   39.5420   27.3040   43.5070 N   0  0  0  0  0  0  0  0  0  0  0  0
   38.4770   27.1690   42.6900 C   0  0  0  0  0  0  0  0  0  0  0  0
   38.1300   25.9580   42.1910 N   0  0  0  0  0  0  0  0  0  0  0  0
   40.5850   24.1190   43.6470 H   0  0  0  0  0  0  0  0  0  0  0  0
   41.1420   26.4130   44.5170 H   0  0  0  0  0  0  0  0  0  0  0  0
   38.5400   23.6540   42.0380 O   0  0  0  0  0  0  0  0  0  0  0  0
   37.6540   23.4750   41.5660 H   0  0  0  0  0  0  0  0  0  0  0  0
   39.7490   29.1630   41.4180 O   0  0  0  0  0  0  0  0  0  0  0  0
   39.9050   28.3210   40.9190 H   0  0  0  0  0  0  0  0  0  0  0  0
   38.4110   30.4990   39.4800 O   0  0  0  0  0  0  0  0  0  0  0  0
   40.9030   31.5450   39.4420 F   0  0  0  0  0  0  0  0  0  0  0  0
   39.7670   32.2590   39.5820 C   0  0  0  0  0  0  0  0  0  0  0  0
   38.4630   31.8140   39.6100 C   0  0  0  0  0  0  0  0  0  0  0  0
   37.5040   32.8010   39.7630 C   0  0  0  0  0  0  0  0  0  0  0  0
   37.7370   34.1480   39.8840 C   0  0  0  0  0  0  0  0  0  0  0  0
   39.0440   34.5360   39.8490 C   0  0  0  0  0  0  0  0  0  0  0  0
   40.0780   33.6270   39.7010 C   0  0  0  0  0  0  0  0  0  0  0  0
   36.4880   32.3680   39.7760 H   0  0  0  0  0  0  0  0  0  0  0  0
   36.8870   34.8060   39.9970 H   0  0  0  0  0  0  0  0  0  0  0  0
   39.2410   35.6120   39.9460 H   0  0  0  0  0  0  0  0  0  0  0  0
   41.3870   34.1900   39.6840 N   0  0  0  0  0  0  0  0  0  0  0  0
   42.2040   34.4520   40.8730 C   0  0  0  0  0  3  0  0  0  0  0  0
   42.1560   35.5090   41.1840 H   0  0  0  0  0  0  0  0  0  0  0  0
   43.6120   33.9390   40.6830 C   0  0  0  0  0  3  0  0  0  0  0  0
   44.2520   34.4580   41.4280 H   0  0  0  0  0  0  0  0  0  0  0  0
   44.1380   34.1890   39.3840 N   0  0  0  0  0  0  0  0  0  0  0  0
   44.5780   35.1010   39.2410 H   0  0  0  0  0  0  0  0  0  0  0  0
   43.2890   33.7790   38.3060 C   0  0  0  0  0  2  0  0  0  0  0  0
   41.9840   34.5360   38.4070 C   0  0  0  0  0  2  0  0  0  0  0  0
  1  7  1  1  0  0  0
  1  2  1  0  0  0  0
  2 18  1  0  0  0  0
  2  8  1  1  0  0  0
  3 10  1  0  0  0  0
  3  2  1  0  0  0  0
  4  3  1  0  0  0  0
  5 12  1  0  0  0  0
  5  4  1  0  0  0  0
  6 13  1  6  0  0  0
  6  5  1  0  0  0  0
  6  1  1  0  0  0  0
  9  3  1  0  0  0  0
 11  5  1  0  0  0  0
 14 15  1  0  0  0  0
 15 20  1  0  0  0  0
 15 16  2  0  0  0  0
 16 21  1  0  0  0  0
 17 16  1  0  0  0  0
 18 17  2  0  0  0  0
 19 14  2  0  0  0  0
 19 18  1  0  0  0  0
 22 14  1  0  0  0  0
 23 22  1  0  0  0  0
 24  1  1  0  0  0  0
 25 24  1  0  0  0  0
 26 29  1  0  0  0  0
 26  6  1  0  0  0  0
 27 28  1  0  0  0  0
 28 29  2  0  0  0  0
 28 33  1  0  0  0  0
 29 30  1  0  0  0  0
 30 34  1  0  0  0  0
 30 31  2  0  0  0  0
 31 35  1  0  0  0  0
 32 31  1  0  0  0  0
 32 36  1  0  0  0  0
 33 32  2  0  0  0  0
 37 33  1  0  0  0  0
 37 38  1  0  0  0  0
 38 39  1  0  0  0  0
 40 38  1  0  0  0  0
 40 41  1  0  0  0  0
 42 40  1  0  0  0  0
 43 42  1  0  0  0  0
 44 45  1  0  0  0  0
 44 42  1  0  0  0  0
 45 37  1  0  0  0  0
M  END
>  <minimizedAffinity>
-6.54421902

$$$$

 OpenBabel03242518483D

 45 48  0  0  1  0  0  0  0  0999 V2000
   39.3850   31.4120   39.4310 C   0  0  2  0  0  0  0  0  0  0  0  0
   39.6500   32.8650   39.2560 C   0  0  1  0  0  0  0  0  0  0  0  0
   38.7470   33.7230   40.1460 C   0  0  0  0  0  0  0  0  0  0  0  0
   37.4540   33.3020   39.8230 O   0  0  0  0  0  0  0  0  0  0  0  0
   37.1800   32.0600   40.3530 C   0  0  0  0  0  0  0  0  0  0  0  0
   38.3900   31.2120   40.5880 C   0  0  1  0  0  0  0  0  0  0  0  0
   38.9180   30.9970   38.5350 H   0  0  0  0  0  0  0  0  0  0  0  0
   39.4540   33.1520   38.1880 H   0  0  0  0  0  0  0  0  0  0  0  0
   38.9850   33.6070   41.2010 H   0  0  0  0  0  0  0  0  0  0  0  0
   38.8450   34.7890   39.8510 H   0  0  0  0  0  0  0  0  0  0  0  0
   36.6930   32.2470   41.3470 H   0  0  0  0  0  0  0  0  0  0  0  0
   36.4310   31.5350   39.7480 H   0  0  0  0  0  0  0  0  0  0  0  0
   38.9620   31.5120   41.4910 H   0  0  0  0  0  0  0  0  0  0  0  0
   42.5920   33.8990   41.1690 C   0  0  0  0  0  0  0  0  0  0  0  0
   43.5970   34.1160   40.1750 C   0  0  0  0  0  0  0  0  0  0  0  0
   43.1930   33.8820   38.8340 C   0  0  0  0  0  0  0  0  0  0  0  0
   41.9250   33.4840   38.5840 N   0  0  0  0  0  0  0  0  0  0  0  0
   41.0230   33.2980   39.5710 C   0  0  0  0  0  0  0  0  0  0  0  0
   41.3570   33.5060   40.8680 N   0  0  0  0  0  0  0  0  0  0  0  0
   44.5890   34.4290   40.3890 H   0  0  0  0  0  0  0  0  0  0  0  0
   43.8650   34.0150   38.0150 H   0  0  0  0  0  0  0  0  0  0  0  0
   42.9690   34.1210   42.4560 O   0  0  0  0  0  0  0  0  0  0  0  0
   42.2850   34.1640   43.2110 H   0  0  0  0  0  0  0  0  0  0  0  0
   40.5310   30.6620   39.7130 O   0  0  0  0  0  0  0  0  0  0  0  0
   40.9180   30.9580   40.5760 H   0  0  0  0  0  0  0  0  0  0  0  0
   38.1170   29.8640   40.6450 O   0  0  0  0  0  0  0  0  0  0  0  0
   38.2690   27.2810   39.8630 F   0  0  0  0  0  0  0  0  0  0  0  0
   37.9600   27.6940   41.1080 C   0  0  0  0  0  0  0  0  0  0  0  0
   37.8630   28.9800   41.5950 C   0  0  0  0  0  0  0  0  0  0  0  0
   37.5310   29.0820   42.9350 C   0  0  0  0  0  0  0  0  0  0  0  0
   37.2970   28.0390   43.7960 C   0  0  0  0  0  0  0  0  0  0  0  0
   37.4070   26.7880   43.2650 C   0  0  0  0  0  0  0  0  0  0  0  0
   37.7340   26.5780   41.9370 C   0  0  0  0  0  0  0  0  0  0  0  0
   37.4710   30.1400   43.2500 H   0  0  0  0  0  0  0  0  0  0  0  0
   37.0460   28.2690   44.8220 H   0  0  0  0  0  0  0  0  0  0  0  0
   37.2220   25.9470   43.9470 H   0  0  0  0  0  0  0  0  0  0  0  0
   37.8090   25.2130   41.5350 N   0  0  0  0  0  0  0  0  0  0  0  0
   36.6620   24.3890   41.1410 C   0  0  0  0  0  3  0  0  0  0  0  0
   36.3120   23.7430   41.9620 H   0  0  0  0  0  0  0  0  0  0  0  0
   36.9520   23.6400   39.8610 C   0  0  0  0  0  3  0  0  0  0  0  0
   36.2290   22.7990   39.8040 H   0  0  0  0  0  0  0  0  0  0  0  0
   38.2710   23.1070   39.8010 N   0  0  0  0  0  0  0  0  0  0  0  0
   38.4080   22.1880   40.2300 H   0  0  0  0  0  0  0  0  0  0  0  0
   39.3100   24.0470   40.0960 C   0  0  0  0  0  2  0  0  0  0  0  0
   39.1060   24.5630   41.5030 C   0  0  0  0  0  2  0  0  0  0  0  0
  1  7  1  6  0  0  0
  1 24  1  0  0  0  0
  1  6  1  0  0  0  0
  2  8  1  6  0  0  0
  2  1  1  0  0  0  0
  2 18  1  0  0  0  0
  2  3  1  0  0  0  0
  3  9  1  0  0  0  0
  4  3  1  0  0  0  0
  4  5  1  0  0  0  0
  5  6  1  0  0  0  0
  5 11  1  0  0  0  0
  6 26  1  0  0  0  0
  6 13  1  1  0  0  0
 10  3  1  0  0  0  0
 12  5  1  0  0  0  0
 14 22  1  0  0  0  0
 15 20  1  0  0  0  0
 15 14  2  0  0  0  0
 16 15  1  0  0  0  0
 17 16  2  0  0  0  0
 17 18  1  0  0  0  0
 18 19  2  0  0  0  0
 19 14  1  0  0  0  0
 21 16  1  0  0  0  0
 22 23  1  0  0  0  0
 24 25  1  0  0  0  0
 26 29  1  0  0  0  0
 27 28  1  0  0  0  0
 28 29  2  0  0  0  0
 28 33  1  0  0  0  0
 29 30  1  0  0  0  0
 30 34  1  0  0  0  0
 30 31  2  0  0  0  0
 31 35  1  0  0  0  0
 32 31  1  0  0  0  0
 32 36  1  0  0  0  0
 33 32  2  0  0  0  0
 37 33  1  0  0  0  0
 38 37  1  0  0  0  0
 38 39  1  0  0  0  0
 40 38  1  0  0  0  0
 41 40  1  0  0  0  0
 42 40  1  0  0  0  0
 42 44  1  0  0  0  0
 42 43  1  0  0  0  0
 44 45  1  0  0  0  0
 45 37  1  0  0  0  0
M  END
>  <minimizedAffinity>
-6.28024292

$$$$

 OpenBabel03242518483D

 45 48  0  0  1  0  0  0  0  0999 V2000
   39.8670   32.0180   39.2940 C   0  0  2  0  0  0  0  0  0  0  0  0
   40.2180   33.4600   39.3960 C   0  0  1  0  0  0  0  0  0  0  0  0
   39.3330   34.1950   40.4060 C   0  0  0  0  0  0  0  0  0  0  0  0
   38.0310   33.9200   39.9790 O   0  0  0  0  0  0  0  0  0  0  0  0
   37.6700   32.6210   40.2650 C   0  0  0  0  0  0  0  0  0  0  0  0
   38.8220   31.6720   40.3690 C   0  0  1  0  0  0  0  0  0  0  0  0
   39.4100   31.8030   38.3260 H   0  0  0  0  0  0  0  0  0  0  0  0
   40.0770   33.9480   38.3940 H   0  0  0  0  0  0  0  0  0  0  0  0
   39.5260   33.8740   41.4270 H   0  0  0  0  0  0  0  0  0  0  0  0
   39.5010   35.2890   40.3150 H   0  0  0  0  0  0  0  0  0  0  0  0
   37.1590   32.6530   41.2640 H   0  0  0  0  0  0  0  0  0  0  0  0
   36.9140   32.2620   39.5540 H   0  0  0  0  0  0  0  0  0  0  0  0
   39.3760   31.7670   41.3270 H   0  0  0  0  0  0  0  0  0  0  0  0
   43.0900   34.2150   41.5350 C   0  0  0  0  0  0  0  0  0  0  0  0
   44.1930   34.2810   40.6270 C   0  0  0  0  0  0  0  0  0  0  0  0
   43.8780   34.0510   39.2620 C   0  0  0  0  0  0  0  0  0  0  0  0
   42.5980   33.7920   38.9120 N   0  0  0  0  0  0  0  0  0  0  0  0
   41.6010   33.7430   39.8190 C   0  0  0  0  0  0  0  0  0  0  0  0
   41.8460   33.9560   41.1360 N   0  0  0  0  0  0  0  0  0  0  0  0
   45.1930   34.4860   40.9190 H   0  0  0  0  0  0  0  0  0  0  0  0
   44.6280   34.0770   38.5020 H   0  0  0  0  0  0  0  0  0  0  0  0
   43.3810   34.4350   42.8430 O   0  0  0  0  0  0  0  0  0  0  0  0
   42.6450   34.5820   43.5340 H   0  0  0  0  0  0  0  0  0  0  0  0
   40.9580   31.1610   39.4620 O   0  0  0  0  0  0  0  0  0  0  0  0
   41.3300   31.2700   40.3740 H   0  0  0  0  0  0  0  0  0  0  0  0
   38.4720   30.3550   40.1710 O   0  0  0  0  0  0  0  0  0  0  0  0
   40.2090   28.4510   40.9850 F   0  0  0  0  0  0  0  0  0  0  0  0
   38.8910   28.4650   41.2650 C   0  0  0  0  0  0  0  0  0  0  0  0
   37.9360   29.3900   40.8970 C   0  0  0  0  0  0  0  0  0  0  0  0
   36.6540   29.1280   41.3500 C   0  0  0  0  0  0  0  0  0  0  0  0
   36.2640   28.0560   42.1130 C   0  0  0  0  0  0  0  0  0  0  0  0
   37.2460   27.1720   42.4490 C   0  0  0  0  0  0  0  0  0  0  0  0
   38.5590   27.3420   42.0470 C   0  0  0  0  0  0  0  0  0  0  0  0
   35.9490   29.9100   41.0150 H   0  0  0  0  0  0  0  0  0  0  0  0
   35.2230   27.9810   42.3940 H   0  0  0  0  0  0  0  0  0  0  0  0
   36.9430   26.3100   43.0600 H   0  0  0  0  0  0  0  0  0  0  0  0
   39.4660   26.3310   42.4800 N   0  0  0  0  0  0  0  0  0  0  0  0
   40.0180   25.2760   41.6260 C   0  0  0  0  0  3  0  0  0  0  0  0
   39.4790   24.3210   41.7420 H   0  0  0  0  0  0  0  0  0  0  0  0
   41.5120   25.1560   41.8160 C   0  0  0  0  0  3  0  0  0  0  0  0
   41.8100   24.1540   41.4370 H   0  0  0  0  0  0  0  0  0  0  0  0
   41.9220   25.2630   43.1750 N   0  0  0  0  0  0  0  0  0  0  0  0
   41.9020   24.4010   43.7240 H   0  0  0  0  0  0  0  0  0  0  0  0
   41.4040   26.4050   43.8670 C   0  0  0  0  0  2  0  0  0  0  0  0
   39.8940   26.3210   43.8670 C   0  0  0  0  0  2  0  0  0  0  0  0
  1  7  1  6  0  0  0
  1  2  1  0  0  0  0
  1 24  1  0  0  0  0
  1  6  1  0  0  0  0
  2  8  1  6  0  0  0
  2 18  1  0  0  0  0
  2  3  1  0  0  0  0
  3  9  1  0  0  0  0
  4  5  1  0  0  0  0
  4  3  1  0  0  0  0
  5  6  1  0  0  0  0
  5 11  1  0  0  0  0
  6 13  1  1  0  0  0
 10  3  1  0  0  0  0
 12  5  1  0  0  0  0
 14 22  1  0  0  0  0
 15 20  1  0  0  0  0
 15 14  2  0  0  0  0
 16 15  1  0  0  0  0
 17 16  2  0  0  0  0
 17 18  1  0  0  0  0
 18 19  2  0  0  0  0
 19 14  1  0  0  0  0
 21 16  1  0  0  0  0
 22 23  1  0  0  0  0
 24 25  1  0  0  0  0
 26  6  1  0  0  0  0
 26 29  1  0  0  0  0
 27 28  1  0  0  0  0
 28 33  1  0  0  0  0
 29 28  2  0  0  0  0
 29 30  1  0  0  0  0
 30 31  2  0  0  0  0
 31 35  1  0  0  0  0
 31 32  1  0  0  0  0
 32 36  1  0  0  0  0
 33 32  2  0  0  0  0
 33 37  1  0  0  0  0
 34 30  1  0  0  0  0
 37 45  1  0  0  0  0
 38 39  1  0  0  0  0
 38 40  1  0  0  0  0
 38 37  1  0  0  0  0
 40 42  1  0  0  0  0
 41 40  1  0  0  0  0
 42 43  1  0  0  0  0
 42 44  1  0  0  0  0
 44 45  1  0  0  0  0
M  END
>  <minimizedAffinity>
-6.15085554

$$$$

 OpenBabel03242518483D

 45 48  0  0  1  0  0  0  0  0999 V2000
   39.2260   31.3190   39.1080 C   0  0  2  0  0  0  0  0  0  0  0  0
   39.4250   32.7910   39.0410 C   0  0  1  0  0  0  0  0  0  0  0  0
   38.7750   33.5120   40.2250 C   0  0  0  0  0  0  0  0  0  0  0  0
   37.4460   33.0800   40.1960 O   0  0  0  0  0  0  0  0  0  0  0  0
   37.3280   31.7790   40.6310 C   0  0  0  0  0  0  0  0  0  0  0  0
   38.5640   30.9550   40.4490 C   0  0  1  0  0  0  0  0  0  0  0  0
   38.5470   30.9870   38.3190 H   0  0  0  0  0  0  0  0  0  0  0  0
   38.9580   33.1860   38.0980 H   0  0  0  0  0  0  0  0  0  0  0  0
   39.2770   33.2890   41.1630 H   0  0  0  0  0  0  0  0  0  0  0  0
   38.7850   34.6060   40.0400 H   0  0  0  0  0  0  0  0  0  0  0  0
   37.1120   31.8370   41.7300 H   0  0  0  0  0  0  0  0  0  0  0  0
   36.4520   31.2950   40.1790 H   0  0  0  0  0  0  0  0  0  0  0  0
   39.3470   31.1760   41.2060 H   0  0  0  0  0  0  0  0  0  0  0  0
   42.6660   34.0030   37.8510 C   0  0  0  0  0  0  0  0  0  0  0  0
   43.4670   34.0760   39.0340 C   0  0  0  0  0  0  0  0  0  0  0  0
   42.8210   33.6880   40.2370 C   0  0  0  0  0  0  0  0  0  0  0  0
   41.5300   33.2850   40.1950 N   0  0  0  0  0  0  0  0  0  0  0  0
   40.8290   33.2380   39.0430 C   0  0  0  0  0  0  0  0  0  0  0  0
   41.3980   33.5980   37.8670 N   0  0  0  0  0  0  0  0  0  0  0  0
   44.4800   34.3960   39.0480 H   0  0  0  0  0  0  0  0  0  0  0  0
   43.3280   33.7060   41.1750 H   0  0  0  0  0  0  0  0  0  0  0  0
   43.2760   34.3710   36.6940 O   0  0  0  0  0  0  0  0  0  0  0  0
   42.8500   34.1890   35.7860 H   0  0  0  0  0  0  0  0  0  0  0  0
   40.4120   30.5860   39.0000 O   0  0  0  0  0  0  0  0  0  0  0  0
   41.0060   30.8000   39.7640 H   0  0  0  0  0  0  0  0  0  0  0  0
   38.3260   29.6000   40.4180 O   0  0  0  0  0  0  0  0  0  0  0  0
   38.6940   26.9710   40.9260 F   0  0  0  0  0  0  0  0  0  0  0  0
   37.7650   27.4730   40.0880 C   0  0  0  0  0  0  0  0  0  0  0  0
   37.5050   28.7900   39.7720 C   0  0  0  0  0  0  0  0  0  0  0  0
   36.4710   28.9890   38.8730 C   0  0  0  0  0  0  0  0  0  0  0  0
   35.7040   28.0130   38.2870 C   0  0  0  0  0  0  0  0  0  0  0  0
   36.0020   26.7280   38.6340 C   0  0  0  0  0  0  0  0  0  0  0  0
   37.0170   26.4220   39.5240 C   0  0  0  0  0  0  0  0  0  0  0  0
   36.3240   30.0650   38.6700 H   0  0  0  0  0  0  0  0  0  0  0  0
   34.9260   28.3170   37.6000 H   0  0  0  0  0  0  0  0  0  0  0  0
   35.3940   25.9400   38.1700 H   0  0  0  0  0  0  0  0  0  0  0  0
   37.2030   25.0330   39.7830 N   0  0  0  0  0  0  0  0  0  0  0  0
   37.9600   24.1140   38.9280 C   0  0  0  0  0  3  0  0  0  0  0  0
   37.3030   23.5230   38.2680 H   0  0  0  0  0  0  0  0  0  0  0  0
   38.9090   23.2730   39.7490 C   0  0  0  0  0  3  0  0  0  0  0  0
   39.1800   22.3890   39.1320 H   0  0  0  0  0  0  0  0  0  0  0  0
   38.3460   22.8120   40.9730 N   0  0  0  0  0  0  0  0  0  0  0  0
   37.8060   21.9450   40.9250 H   0  0  0  0  0  0  0  0  0  0  0  0
   37.7360   23.8320   41.7720 C   0  0  0  0  0  2  0  0  0  0  0  0
   36.6130   24.4580   40.9770 C   0  0  0  0  0  2  0  0  0  0  0  0
  1  7  1  6  0  0  0
  1  6  1  0  0  0  0
  2  8  1  6  0  0  0
  2 18  1  0  0  0  0
  2  1  1  0  0  0  0
  2  3  1  0  0  0  0
  3  9  1  0  0  0  0
  4  3  1  0  0  0  0
  4  5  1  0  0  0  0
  5 11  1  0  0  0  0
  6  5  1  0  0  0  0
  6 13  1  1  0  0  0
 10  3  1  0  0  0  0
 12  5  1  0  0  0  0
 14 19  2  0  0  0  0
 14 15  1  0  0  0  0
 15 20  1  0  0  0  0
 15 16  2  0  0  0  0
 16 21  1  0  0  0  0
 17 16  1  0  0  0  0
 18 17  2  0  0  0  0
 19 18  1  0  0  0  0
 22 14  1  0  0  0  0
 23 22  1  0  0  0  0
 24  1  1  0  0  0  0
 24 25  1  0  0  0  0
 26  6  1  0  0  0  0
 28 27  1  0  0  0  0
 29 28  1  0  0  0  0
 29 26  1  0  0  0  0
 30 29  2  0  0  0  0
 31 32  2  0  0  0  0
 31 30  1  0  0  0  0
 32 33  1  0  0  0  0
 33 37  1  0  0  0  0
 33 28  2  0  0  0  0
 34 30  1  0  0  0  0
 35 31  1  0  0  0  0
 36 32  1  0  0  0  0
 37 45  1  0  0  0  0
 38 40  1  0  0  0  0
 38 37  1  0  0  0  0
 39 38  1  0  0  0  0
 40 42  1  0  0  0  0
 41 40  1  0  0  0  0
 42 44  1  0  0  0  0
 43 42  1  0  0  0  0
 45 44  1  0  0  0  0
M  END
>  <minimizedAffinity>
-6.0517745

$$$$

 OpenBabel03242518483D

 45 48  0  0  1  0  0  0  0  0999 V2000
   39.9380   32.0990   39.3000 C   0  0  2  0  0  0  0  0  0  0  0  0
   40.4020   33.5100   39.2520 C   0  0  1  0  0  0  0  0  0  0  0  0
   39.6810   34.3870   40.2790 C   0  0  0  0  0  0  0  0  0  0  0  0
   38.3250   34.1880   40.0010 O   0  0  0  0  0  0  0  0  0  0  0  0
   37.9000   32.9470   40.4240 C   0  0  0  0  0  0  0  0  0  0  0  0
   38.9840   31.9180   40.4950 C   0  0  1  0  0  0  0  0  0  0  0  0
   39.3690   31.8510   38.4010 H   0  0  0  0  0  0  0  0  0  0  0  0
   40.1960   33.9340   38.2320 H   0  0  0  0  0  0  0  0  0  0  0  0
   39.9520   34.1270   41.2990 H   0  0  0  0  0  0  0  0  0  0  0  0
   39.9180   35.4530   40.0840 H   0  0  0  0  0  0  0  0  0  0  0  0
   37.4970   33.0940   41.4610 H   0  0  0  0  0  0  0  0  0  0  0  0
   37.0520   32.6000   39.8200 H   0  0  0  0  0  0  0  0  0  0  0  0
   39.6380   32.0370   41.3840 H   0  0  0  0  0  0  0  0  0  0  0  0
   43.9820   34.0100   38.6850 C   0  0  0  0  0  0  0  0  0  0  0  0
   44.5370   34.0840   40.0010 C   0  0  0  0  0  0  0  0  0  0  0  0
   43.6080   33.9520   41.0660 C   0  0  0  0  0  0  0  0  0  0  0  0
   42.2980   33.7710   40.7840 N   0  0  0  0  0  0  0  0  0  0  0  0
   41.8380   33.7110   39.5170 C   0  0  0  0  0  0  0  0  0  0  0  0
   42.6820   33.8310   38.4630 N   0  0  0  0  0  0  0  0  0  0  0  0
   45.5700   34.2260   40.2050 H   0  0  0  0  0  0  0  0  0  0  0  0
   43.9170   33.9920   42.0870 H   0  0  0  0  0  0  0  0  0  0  0  0
   44.8640   34.1340   37.6590 O   0  0  0  0  0  0  0  0  0  0  0  0
   44.5950   33.9230   36.6980 H   0  0  0  0  0  0  0  0  0  0  0  0
   40.9740   31.1700   39.4320 O   0  0  0  0  0  0  0  0  0  0  0  0
   41.4430   31.3150   40.2930 H   0  0  0  0  0  0  0  0  0  0  0  0
   38.5200   30.6230   40.4370 O   0  0  0  0  0  0  0  0  0  0  0  0
   38.4600   28.1510   39.3450 F   0  0  0  0  0  0  0  0  0  0  0  0
   38.3050   28.4200   40.6570 C   0  0  0  0  0  0  0  0  0  0  0  0
   38.3230   29.6400   41.2990 C   0  0  0  0  0  0  0  0  0  0  0  0
   38.1380   29.5890   42.6700 C   0  0  0  0  0  0  0  0  0  0  0  0
   37.9450   28.4580   43.4230 C   0  0  0  0  0  0  0  0  0  0  0  0
   37.9360   27.2780   42.7400 C   0  0  0  0  0  0  0  0  0  0  0  0
   38.1110   27.2210   41.3680 C   0  0  0  0  0  0  0  0  0  0  0  0
   38.1650   30.6020   43.1110 H   0  0  0  0  0  0  0  0  0  0  0  0
   37.8140   28.5700   44.4900 H   0  0  0  0  0  0  0  0  0  0  0  0
   37.7820   26.3670   43.3330 H   0  0  0  0  0  0  0  0  0  0  0  0
   38.0760   25.9120   40.8030 N   0  0  0  0  0  0  0  0  0  0  0  0
   39.2270   25.0110   40.6990 C   0  0  0  0  0  3  0  0  0  0  0  0
   39.6810   25.0300   39.6950 H   0  0  0  0  0  0  0  0  0  0  0  0
   38.8700   23.6230   41.1770 C   0  0  0  0  0  3  0  0  0  0  0  0
   39.6300   22.9280   40.7600 H   0  0  0  0  0  0  0  0  0  0  0  0
   37.5820   23.1900   40.7530 N   0  0  0  0  0  0  0  0  0  0  0  0
   37.5320   22.7560   39.8280 H   0  0  0  0  0  0  0  0  0  0  0  0
   36.5220   24.1170   41.0170 C   0  0  0  0  0  2  0  0  0  0  0  0
   36.8180   25.4070   40.2850 C   0  0  0  0  0  2  0  0  0  0  0  0
  1  7  1  6  0  0  0
  1 24  1  0  0  0  0
  1  6  1  0  0  0  0
  2  8  1  6  0  0  0
  2  1  1  0  0  0  0
  2 18  1  0  0  0  0
  2  3  1  0  0  0  0
  3  9  1  0  0  0  0
  4  3  1  0  0  0  0
  4  5  1  0  0  0  0
  5  6  1  0  0  0  0
  5 11  1  0  0  0  0
  6 13  1  1  0  0  0
 10  3  1  0  0  0  0
 12  5  1  0  0  0  0
 14 15  1  0  0  0  0
 15 20  1  0  0  0  0
 15 16  2  0  0  0  0
 16 21  1  0  0  0  0
 17 16  1  0  0  0  0
 18 17  2  0  0  0  0
 19 14  2  0  0  0  0
 19 18  1  0  0  0  0
 22 14  1  0  0  0  0
 23 22  1  0  0  0  0
 24 25  1  0  0  0  0
 26  6  1  0  0  0  0
 26 29  1  0  0  0  0
 27 28  1  0  0  0  0
 28 29  2  0  0  0  0
 28 33  1  0  0  0  0
 29 30  1  0  0  0  0
 30 34  1  0  0  0  0
 30 31  2  0  0  0  0
 31 35  1  0  0  0  0
 32 36  1  0  0  0  0
 32 31  1  0  0  0  0
 33 32  2  0  0  0  0
 37 33  1  0  0  0  0
 38 37  1  0  0  0  0
 38 40  1  0  0  0  0
 39 38  1  0  0  0  0
 41 40  1  0  0  0  0
 42 44  1  0  0  0  0
 42 40  1  0  0  0  0
 43 42  1  0  0  0  0
 45 37  1  0  0  0  0
 45 44  1  0  0  0  0
M  END
>  <minimizedAffinity>
-6.03445244

$$$$

 OpenBabel03242518483D

 45 48  0  0  1  0  0  0  0  0999 V2000
   39.0300   27.3820   41.6220 C   0  0  2  0  0  0  0  0  0  0  0  0
   38.1870   26.3640   42.3040 C   0  0  1  0  0  0  0  0  0  0  0  0
   36.9380   26.9840   42.9350 C   0  0  0  0  0  0  0  0  0  0  0  0
   37.4420   27.9980   43.7550 O   0  0  0  0  0  0  0  0  0  0  0  0
   37.8790   29.0750   43.0160 C   0  0  0  0  0  0  0  0  0  0  0  0
   38.2940   28.7330   41.6190 C   0  0  1  0  0  0  0  0  0  0  0  0
   39.9660   27.5320   42.1660 H   0  0  0  0  0  0  0  0  0  0  0  0
   38.7820   25.8770   43.1220 H   0  0  0  0  0  0  0  0  0  0  0  0
   36.2390   27.3460   42.1850 H   0  0  0  0  0  0  0  0  0  0  0  0
   36.4420   26.2320   43.5840 H   0  0  0  0  0  0  0  0  0  0  0  0
   37.0110   29.7830   42.9530 H   0  0  0  0  0  0  0  0  0  0  0  0
   38.6700   29.6180   43.5490 H   0  0  0  0  0  0  0  0  0  0  0  0
   37.4310   28.5700   40.9380 H   0  0  0  0  0  0  0  0  0  0  0  0
   37.7710   23.0530   40.8020 C   0  0  0  0  0  0  0  0  0  0  0  0
   36.7480   23.2410   39.8200 C   0  0  0  0  0  0  0  0  0  0  0  0
   36.2290   24.5590   39.7210 C   0  0  0  0  0  0  0  0  0  0  0  0
   36.7150   25.5260   40.5320 N   0  0  0  0  0  0  0  0  0  0  0  0
   37.6830   25.2820   41.4390 C   0  0  0  0  0  0  0  0  0  0  0  0
   38.2130   24.0420   41.5760 N   0  0  0  0  0  0  0  0  0  0  0  0
   36.3780   22.4700   39.1910 H   0  0  0  0  0  0  0  0  0  0  0  0
   35.4630   24.8070   39.0200 H   0  0  0  0  0  0  0  0  0  0  0  0
   38.2750   21.7950   40.9040 O   0  0  0  0  0  0  0  0  0  0  0  0
   39.1180   21.6030   41.4450 H   0  0  0  0  0  0  0  0  0  0  0  0
   39.3420   27.0580   40.2980 O   0  0  0  0  0  0  0  0  0  0  0  0
   38.5100   27.0140   39.7610 H   0  0  0  0  0  0  0  0  0  0  0  0
   39.1530   29.6510   41.0580 O   0  0  0  0  0  0  0  0  0  0  0  0
   40.9670   31.6550   41.0600 F   0  0  0  0  0  0  0  0  0  0  0  0
   40.1450   31.3570   40.0330 C   0  0  0  0  0  0  0  0  0  0  0  0
   39.1980   30.3600   39.9430 C   0  0  0  0  0  0  0  0  0  0  0  0
   38.5100   30.3040   38.7430 C   0  0  0  0  0  0  0  0  0  0  0  0
   38.6870   31.1360   37.6650 C   0  0  0  0  0  0  0  0  0  0  0  0
   39.6360   32.1050   37.8060 C   0  0  0  0  0  0  0  0  0  0  0  0
   40.3790   32.2450   38.9660 C   0  0  0  0  0  0  0  0  0  0  0  0
   37.7710   29.4830   38.7470 H   0  0  0  0  0  0  0  0  0  0  0  0
   38.0760   30.9740   36.7880 H   0  0  0  0  0  0  0  0  0  0  0  0
   39.7850   32.7750   36.9490 H   0  0  0  0  0  0  0  0  0  0  0  0
   41.3300   33.3060   38.9560 N   0  0  0  0  0  0  0  0  0  0  0  0
   41.7400   34.0770   40.1340 C   0  0  0  0  0  3  0  0  0  0  0  0
   41.2160   35.0450   40.2000 H   0  0  0  0  0  0  0  0  0  0  0  0
   43.2450   34.1960   40.2020 C   0  0  0  0  0  3  0  0  0  0  0  0
   43.4740   35.0500   40.8750 H   0  0  0  0  0  0  0  0  0  0  0  0
   43.8540   34.4420   38.9380 N   0  0  0  0  0  0  0  0  0  0  0  0
   43.9070   35.4200   38.6440 H   0  0  0  0  0  0  0  0  0  0  0  0
   43.4530   33.5430   37.8970 C   0  0  0  0  0  2  0  0  0  0  0  0
   41.9590   33.6710   37.7000 C   0  0  0  0  0  2  0  0  0  0  0  0
  1  7  1  1  0  0  0
  1  2  1  0  0  0  0
  2  3  1  0  0  0  0
  2  8  1  1  0  0  0
  3 10  1  0  0  0  0
  3  4  1  0  0  0  0
  5 12  1  0  0  0  0
  5  4  1  0  0  0  0
  6 13  1  6  0  0  0
  6  1  1  0  0  0  0
  6  5  1  0  0  0  0
  9  3  1  0  0  0  0
 11  5  1  0  0  0  0
 14 22  1  0  0  0  0
 14 19  1  0  0  0  0
 15 14  2  0  0  0  0
 16 15  1  0  0  0  0
 16 17  2  0  0  0  0
 17 18  1  0  0  0  0
 18 19  2  0  0  0  0
 18  2  1  0  0  0  0
 20 15  1  0  0  0  0
 21 16  1  0  0  0  0
 22 23  1  0  0  0  0
 24  1  1  0  0  0  0
 25 24  1  0  0  0  0
 26  6  1  0  0  0  0
 28 27  1  0  0  0  0
 29 28  1  0  0  0  0
 29 26  1  0  0  0  0
 30 34  1  0  0  0  0
 30 29  2  0  0  0  0
 31 32  2  0  0  0  0
 31 30  1  0  0  0  0
 32 33  1  0  0  0  0
 33 28  2  0  0  0  0
 35 31  1  0  0  0  0
 36 32  1  0  0  0  0
 37 33  1  0  0  0  0
 37 38  1  0  0  0  0
 38 39  1  0  0  0  0
 38 40  1  0  0  0  0
 40 41  1  0  0  0  0
 42 40  1  0  0  0  0
 43 42  1  0  0  0  0
 44 42  1  0  0  0  0
 45 44  1  0  0  0  0
 45 37  1  0  0  0  0
M  END
>  <minimizedAffinity>
-5.99538803

$$$$

 OpenBabel03242518483D

 45 48  0  0  1  0  0  0  0  0999 V2000
   36.0890   29.8610   39.7790 C   0  0  2  0  0  0  0  0  0  0  0  0
   35.9010   28.3860   39.7810 C   0  0  1  0  0  0  0  0  0  0  0  0
   36.3950   27.7430   38.4830 C   0  0  0  0  0  0  0  0  0  0  0  0
   35.7110   28.4380   37.4800 O   0  0  0  0  0  0  0  0  0  0  0  0
   36.2170   29.7070   37.3110 C   0  0  0  0  0  0  0  0  0  0  0  0
   36.8840   30.2710   38.5260 C   0  0  1  0  0  0  0  0  0  0  0  0
   35.1250   30.3710   39.7240 H   0  0  0  0  0  0  0  0  0  0  0  0
   34.8070   28.1520   39.8880 H   0  0  0  0  0  0  0  0  0  0  0  0
   37.4760   27.8020   38.3840 H   0  0  0  0  0  0  0  0  0  0  0  0
   36.0680   26.6830   38.4500 H   0  0  0  0  0  0  0  0  0  0  0  0
   36.9890   29.6290   36.5000 H   0  0  0  0  0  0  0  0  0  0  0  0
   35.4460   30.3850   36.9230 H   0  0  0  0  0  0  0  0  0  0  0  0
   37.8970   29.8500   38.6990 H   0  0  0  0  0  0  0  0  0  0  0  0
   38.2360   26.1400   41.4830 C   0  0  0  0  0  0  0  0  0  0  0  0
   37.9210   26.2950   42.8700 C   0  0  0  0  0  0  0  0  0  0  0  0
   36.8730   27.2070   43.1620 C   0  0  0  0  0  0  0  0  0  0  0  0
   36.2540   27.8530   42.1480 N   0  0  0  0  0  0  0  0  0  0  0  0
   36.6010   27.6620   40.8580 C   0  0  0  0  0  0  0  0  0  0  0  0
   37.5940   26.8040   40.5230 N   0  0  0  0  0  0  0  0  0  0  0  0
   38.4170   25.7780   43.6540 H   0  0  0  0  0  0  0  0  0  0  0  0
   36.5580   27.3950   44.1650 H   0  0  0  0  0  0  0  0  0  0  0  0
   39.2370   25.2690   41.1930 O   0  0  0  0  0  0  0  0  0  0  0  0
   39.4140   24.9620   40.2360 H   0  0  0  0  0  0  0  0  0  0  0  0
   36.7730   30.3420   40.9000 O   0  0  0  0  0  0  0  0  0  0  0  0
   37.6910   29.9660   40.9160 H   0  0  0  0  0  0  0  0  0  0  0  0
   36.9510   31.6460   38.5330 O   0  0  0  0  0  0  0  0  0  0  0  0
   39.5560   31.3290   37.8860 F   0  0  0  0  0  0  0  0  0  0  0  0
   39.0660   32.3200   38.6580 C   0  0  0  0  0  0  0  0  0  0  0  0
   37.7620   32.5600   39.0360 C   0  0  0  0  0  0  0  0  0  0  0  0
   37.5730   33.6730   39.8370 C   0  0  0  0  0  0  0  0  0  0  0  0
   38.5480   34.5340   40.2740 C   0  0  0  0  0  0  0  0  0  0  0  0
   39.8210   34.2530   39.8730 C   0  0  0  0  0  0  0  0  0  0  0  0
   40.1150   33.1630   39.0710 C   0  0  0  0  0  0  0  0  0  0  0  0
   36.5070   33.7980   40.0970 H   0  0  0  0  0  0  0  0  0  0  0  0
   38.2540   35.3670   40.8980 H   0  0  0  0  0  0  0  0  0  0  0  0
   40.6080   34.9360   40.2180 H   0  0  0  0  0  0  0  0  0  0  0  0
   41.4920   33.0050   38.7380 N   0  0  0  0  0  0  0  0  0  0  0  0
   42.1220   33.5020   37.5120 C   0  0  0  0  0  3  0  0  0  0  0  0
   42.2310   32.7130   36.7500 H   0  0  0  0  0  0  0  0  0  0  0  0
   43.4120   34.2250   37.8240 C   0  0  0  0  0  3  0  0  0  0  0  0
   44.0010   34.2630   36.8820 H   0  0  0  0  0  0  0  0  0  0  0  0
   44.1980   33.5810   38.8210 N   0  0  0  0  0  0  0  0  0  0  0  0
   44.8270   32.8440   38.4950 H   0  0  0  0  0  0  0  0  0  0  0  0
   43.4880   33.2510   40.0200 C   0  0  0  0  0  2  0  0  0  0  0  0
   42.3610   32.3060   39.6670 C   0  0  0  0  0  2  0  0  0  0  0  0
  1  7  1  6  0  0  0
  1  2  1  0  0  0  0
  1 24  1  0  0  0  0
  2  8  1  1  0  0  0
  2 18  1  0  0  0  0
  3  2  1  0  0  0  0
  4  3  1  0  0  0  0
  5  4  1  0  0  0  0
  5  6  1  0  0  0  0
  6 26  1  0  0  0  0
  6 13  1  1  0  0  0
  6  1  1  0  0  0  0
  9  3  1  0  0  0  0
 10  3  1  0  0  0  0
 11  5  1  0  0  0  0
 12  5  1  0  0  0  0
 14 15  1  0  0  0  0
 15 16  2  0  0  0  0
 15 20  1  0  0  0  0
 16 21  1  0  0  0  0
 17 16  1  0  0  0  0
 18 17  2  0  0  0  0
 19 18  1  0  0  0  0
 19 14  2  0  0  0  0
 22 14  1  0  0  0  0
 23 22  1  0  0  0  0
 24 25  1  0  0  0  0
 26 29  1  0  0  0  0
 27 28  1  0  0  0  0
 28 29  2  0  0  0  0
 28 33  1  0  0  0  0
 29 30  1  0  0  0  0
 30 34  1  0  0  0  0
 30 31  2  0  0  0  0
 31 35  1  0  0  0  0
 32 36  1  0  0  0  0
 32 31  1  0  0  0  0
 33 32  2  0  0  0  0
 37 33  1  0  0  0  0
 37 45  1  0  0  0  0
 38 40  1  0  0  0  0
 38 37  1  0  0  0  0
 39 38  1  0  0  0  0
 40 42  1  0  0  0  0
 41 40  1  0  0  0  0
 42 44  1  0  0  0  0
 43 42  1  0  0  0  0
 45 44  1  0  0  0  0
M  END
>  <minimizedAffinity>
-5.9854455

$$$$
