
 OpenBabel03252505353D

 30 32  0  0  0  0  0  0  0  0999 V2000
   36.9360   26.3290   40.2770 C   0  0  0  0  0  0  0  0  0  0  0  0
   36.3320   25.2700   39.6250 C   0  0  0  0  0  0  0  0  0  0  0  0
   36.5340   23.9400   39.9930 C   0  0  0  0  0  0  0  0  0  0  0  0
   37.3810   23.6710   41.0620 C   0  0  0  0  0  0  0  0  0  0  0  0
   37.9680   24.7320   41.6940 C   0  0  0  0  0  0  0  0  0  0  0  0
   37.7640   26.0480   41.3270 C   0  0  0  0  0  0  0  0  0  0  0  0
   35.6620   25.4650   38.7800 H   0  0  0  0  0  0  0  0  0  0  0  0
   36.0150   23.1860   39.4200 H   0  0  0  0  0  0  0  0  0  0  0  0
   37.4700   22.6250   41.2640 H   0  0  0  0  0  0  0  0  0  0  0  0
   38.5820   24.3530   42.4970 H   0  0  0  0  0  0  0  0  0  0  0  0
   36.4490   29.3440   38.0870 C   0  0  0  0  0  0  0  0  0  0  0  0
   36.7460   28.0150   38.4580 C   0  0  0  0  0  0  0  0  0  0  0  0
   36.6580   27.6490   39.7850 C   0  0  0  0  0  0  0  0  0  0  0  0
   36.2850   28.6060   40.6880 N   0  0  0  0  0  0  0  0  0  0  0  0
   36.0070   29.8800   40.2900 C   0  0  0  0  0  0  0  0  0  0  0  0
   36.0900   30.2380   38.9990 N   0  0  0  0  0  0  0  0  0  0  0  0
   35.6430   30.8670   41.2550 N   0  0  0  0  0  0  0  0  0  0  0  0
   36.5140   29.6430   37.0360 H   0  0  0  0  0  0  0  0  0  0  0  0
   37.0360   27.2870   37.7370 H   0  0  0  0  0  0  0  0  0  0  0  0
   35.9440   31.8680   41.2380 H   0  0  0  0  0  0  0  0  0  0  0  0
   35.0210   30.6350   42.0820 H   0  0  0  0  0  0  0  0  0  0  0  0
   38.4130   27.0350   42.0920 N   0  0  0  0  0  0  0  0  0  0  0  0
   38.0360   27.2950   43.4690 C   0  0  0  0  0  3  0  0  0  0  0  0
   38.9760   27.1770   44.0940 H   0  0  0  0  0  0  0  0  0  0  0  0
   37.5660   28.7040   43.6790 C   0  0  0  0  0  3  0  0  0  0  0  0
   37.6850   28.9140   44.7770 H   0  0  0  0  0  0  0  0  0  0  0  0
   38.4120   29.6730   43.0150 N   0  0  0  0  0  0  0  0  0  0  0  0
   37.9790   30.0440   42.1480 H   0  0  0  0  0  0  0  0  0  0  0  0
   39.6720   29.0430   42.7530 C   0  0  0  0  0  2  0  0  0  0  0  0
   39.4730   27.9520   41.7070 C   0  0  0  0  0  2  0  0  0  0  0  0
  1  6  1  0  0  0  0
  2  3  1  0  0  0  0
  2  1  2  0  0  0  0
  3  4  2  0  0  0  0
  4  9  1  0  0  0  0
  4  5  1  0  0  0  0
  5 10  1  0  0  0  0
  6  5  2  0  0  0  0
  6 22  1  0  0  0  0
  7  2  1  0  0  0  0
  8  3  1  0  0  0  0
 11 12  2  0  0  0  0
 11 16  1  0  0  0  0
 12 13  1  0  0  0  0
 13  1  1  0  0  0  0
 13 14  2  0  0  0  0
 15 14  1  0  0  0  0
 15 17  1  0  0  0  0
 16 15  2  0  0  0  0
 17 21  1  0  0  0  0
 18 11  1  0  0  0  0
 19 12  1  0  0  0  0
 20 17  1  0  0  0  0
 22 23  1  0  0  0  0
 23 25  1  0  0  0  0
 23 24  1  0  0  0  0
 25 26  1  0  0  0  0
 27 25  1  0  0  0  0
 28 27  1  0  0  0  0
 29 27  1  0  0  0  0
 30 22  1  0  0  0  0
 30 29  1  0  0  0  0
M  END
>  <minimizedAffinity>
-5.5280633

$$$$

 OpenBabel03252505353D

 30 32  0  0  0  0  0  0  0  0999 V2000
   37.9160   29.3500   41.7380 C   0  0  0  0  0  0  0  0  0  0  0  0
   37.7390   29.1580   43.0960 C   0  0  0  0  0  0  0  0  0  0  0  0
   37.2530   27.9670   43.6350 C   0  0  0  0  0  0  0  0  0  0  0  0
   36.9340   26.9290   42.7660 C   0  0  0  0  0  0  0  0  0  0  0  0
   37.1170   27.1390   41.4270 C   0  0  0  0  0  0  0  0  0  0  0  0
   37.5990   28.3200   40.8980 C   0  0  0  0  0  0  0  0  0  0  0  0
   37.9860   29.9660   43.7930 H   0  0  0  0  0  0  0  0  0  0  0  0
   37.1530   27.9170   44.7090 H   0  0  0  0  0  0  0  0  0  0  0  0
   36.5710   26.0640   43.2760 H   0  0  0  0  0  0  0  0  0  0  0  0
   36.8310   26.2420   40.8990 H   0  0  0  0  0  0  0  0  0  0  0  0
   40.0850   32.3240   40.9760 C   0  0  0  0  0  0  0  0  0  0  0  0
   39.7170   31.0390   41.4290 C   0  0  0  0  0  0  0  0  0  0  0  0
   38.4050   30.6320   41.3130 C   0  0  0  0  0  0  0  0  0  0  0  0
   37.5110   31.5080   40.7600 N   0  0  0  0  0  0  0  0  0  0  0  0
   37.9050   32.7410   40.3350 C   0  0  0  0  0  0  0  0  0  0  0  0
   39.1830   33.1390   40.4450 N   0  0  0  0  0  0  0  0  0  0  0  0
   36.9490   33.6470   39.7830 N   0  0  0  0  0  0  0  0  0  0  0  0
   41.1250   32.6540   41.0620 H   0  0  0  0  0  0  0  0  0  0  0  0
   40.4300   30.3740   41.8580 H   0  0  0  0  0  0  0  0  0  0  0  0
   36.9330   34.6800   39.9450 H   0  0  0  0  0  0  0  0  0  0  0  0
   36.1670   33.3130   39.1510 H   0  0  0  0  0  0  0  0  0  0  0  0
   37.7620   28.3780   39.5000 N   0  0  0  0  0  0  0  0  0  0  0  0
   39.0300   28.0510   38.8730 C   0  0  0  0  0  3  0  0  0  0  0  0
   38.8200   27.2300   38.1190 H   0  0  0  0  0  0  0  0  0  0  0  0
   39.5970   29.2010   38.0940 C   0  0  0  0  0  3  0  0  0  0  0  0
   40.3170   28.7550   37.3550 H   0  0  0  0  0  0  0  0  0  0  0  0
   38.5970   29.8700   37.2900 N   0  0  0  0  0  0  0  0  0  0  0  0
   38.2980   30.7730   37.7060 H   0  0  0  0  0  0  0  0  0  0  0  0
   37.4950   28.9690   37.1280 C   0  0  0  0  0  2  0  0  0  0  0  0
   36.8110   28.7730   38.4760 C   0  0  0  0  0  2  0  0  0  0  0  0
  1  2  1  0  0  0  0
  2  3  2  0  0  0  0
  2  7  1  0  0  0  0
  3  8  1  0  0  0  0
  4  9  1  0  0  0  0
  4  3  1  0  0  0  0
  5  4  2  0  0  0  0
  6  5  1  0  0  0  0
  6  1  2  0  0  0  0
 10  5  1  0  0  0  0
 11 18  1  0  0  0  0
 11 12  1  0  0  0  0
 12 19  1  0  0  0  0
 13 12  2  0  0  0  0
 13  1  1  0  0  0  0
 14 13  1  0  0  0  0
 15 16  1  0  0  0  0
 15 14  2  0  0  0  0
 16 11  2  0  0  0  0
 17 20  1  0  0  0  0
 17 15  1  0  0  0  0
 21 17  1  0  0  0  0
 22  6  1  0  0  0  0
 23 22  1  0  0  0  0
 24 23  1  0  0  0  0
 25 23  1  0  0  0  0
 26 25  1  0  0  0  0
 27 28  1  0  0  0  0
 27 25  1  0  0  0  0
 29 27  1  0  0  0  0
 29 30  1  0  0  0  0
 30 22  1  0  0  0  0
M  END
>  <minimizedAffinity>
-5.47413111

$$$$

 OpenBabel03252505353D

 30 32  0  0  0  0  0  0  0  0999 V2000
   36.9220   28.7360   40.6370 C   0  0  0  0  0  0  0  0  0  0  0  0
   36.5870   27.5770   41.3130 C   0  0  0  0  0  0  0  0  0  0  0  0
   36.8980   27.3690   42.6570 C   0  0  0  0  0  0  0  0  0  0  0  0
   37.5750   28.3720   43.3430 C   0  0  0  0  0  0  0  0  0  0  0  0
   37.8960   29.5100   42.6550 C   0  0  0  0  0  0  0  0  0  0  0  0
   37.5850   29.7120   41.3250 C   0  0  0  0  0  0  0  0  0  0  0  0
   36.0550   26.7780   40.7870 H   0  0  0  0  0  0  0  0  0  0  0  0
   36.5910   26.4310   43.0940 H   0  0  0  0  0  0  0  0  0  0  0  0
   37.7650   28.1160   44.3620 H   0  0  0  0  0  0  0  0  0  0  0  0
   38.4060   30.1820   43.3290 H   0  0  0  0  0  0  0  0  0  0  0  0
   35.0430   29.1130   37.4030 C   0  0  0  0  0  0  0  0  0  0  0  0
   35.2830   29.0570   38.7930 C   0  0  0  0  0  0  0  0  0  0  0  0
   36.5610   28.8140   39.2480 C   0  0  0  0  0  0  0  0  0  0  0  0
   37.5480   28.6350   38.3170 N   0  0  0  0  0  0  0  0  0  0  0  0
   37.2760   28.6960   36.9840 C   0  0  0  0  0  0  0  0  0  0  0  0
   36.0330   28.9330   36.5370 N   0  0  0  0  0  0  0  0  0  0  0  0
   38.3190   28.4810   36.0320 N   0  0  0  0  0  0  0  0  0  0  0  0
   34.0320   29.3070   37.0320 H   0  0  0  0  0  0  0  0  0  0  0  0
   34.4980   29.1980   39.4990 H   0  0  0  0  0  0  0  0  0  0  0  0
   38.2150   27.9610   35.1300 H   0  0  0  0  0  0  0  0  0  0  0  0
   39.3000   28.8500   36.1880 H   0  0  0  0  0  0  0  0  0  0  0  0
   37.9550   30.9480   40.7600 N   0  0  0  0  0  0  0  0  0  0  0  0
   39.3390   31.2530   40.4490 C   0  0  0  0  0  3  0  0  0  0  0  0
   39.3740   31.5270   39.3480 H   0  0  0  0  0  0  0  0  0  0  0  0
   39.8440   32.4520   41.1950 C   0  0  0  0  0  3  0  0  0  0  0  0
   40.7280   32.8330   40.6160 H   0  0  0  0  0  0  0  0  0  0  0  0
   38.8930   33.5440   41.1940 N   0  0  0  0  0  0  0  0  0  0  0  0
   38.4030   33.6380   42.1040 H   0  0  0  0  0  0  0  0  0  0  0  0
   37.9760   33.3220   40.1160 C   0  0  0  0  0  2  0  0  0  0  0  0
   37.1270   32.0960   40.4310 C   0  0  0  0  0  2  0  0  0  0  0  0
  1  2  2  0  0  0  0
  1  6  1  0  0  0  0
  2  3  1  0  0  0  0
  3  8  1  0  0  0  0
  3  4  2  0  0  0  0
  4  9  1  0  0  0  0
  5 10  1  0  0  0  0
  5  4  1  0  0  0  0
  6  5  2  0  0  0  0
  7  2  1  0  0  0  0
 11 12  1  0  0  0  0
 12 13  2  0  0  0  0
 12 19  1  0  0  0  0
 13  1  1  0  0  0  0
 14 13  1  0  0  0  0
 15 14  2  0  0  0  0
 16 15  1  0  0  0  0
 16 11  2  0  0  0  0
 17 21  1  0  0  0  0
 17 15  1  0  0  0  0
 18 11  1  0  0  0  0
 20 17  1  0  0  0  0
 22  6  1  0  0  0  0
 23 22  1  0  0  0  0
 23 25  1  0  0  0  0
 24 23  1  0  0  0  0
 26 25  1  0  0  0  0
 27 25  1  0  0  0  0
 27 28  1  0  0  0  0
 29 30  1  0  0  0  0
 29 27  1  0  0  0  0
 30 22  1  0  0  0  0
M  END
>  <minimizedAffinity>
-5.42636728

$$$$

 OpenBabel03252505353D

 30 32  0  0  0  0  0  0  0  0999 V2000
   37.5910   29.4260   41.6760 C   0  0  0  0  0  0  0  0  0  0  0  0
   37.6410   29.2160   43.0420 C   0  0  0  0  0  0  0  0  0  0  0  0
   37.3310   27.9910   43.6310 C   0  0  0  0  0  0  0  0  0  0  0  0
   36.9560   26.9360   42.8060 C   0  0  0  0  0  0  0  0  0  0  0  0
   36.9140   27.1640   41.4580 C   0  0  0  0  0  0  0  0  0  0  0  0
   37.2220   28.3800   40.8790 C   0  0  0  0  0  0  0  0  0  0  0  0
   37.9340   30.0370   43.7060 H   0  0  0  0  0  0  0  0  0  0  0  0
   37.4020   27.9290   44.7070 H   0  0  0  0  0  0  0  0  0  0  0  0
   36.7390   26.0440   43.3520 H   0  0  0  0  0  0  0  0  0  0  0  0
   36.6140   26.2510   40.9670 H   0  0  0  0  0  0  0  0  0  0  0  0
   37.4580   32.8430   40.1150 C   0  0  0  0  0  0  0  0  0  0  0  0
   37.0300   31.5660   40.5380 C   0  0  0  0  0  0  0  0  0  0  0  0
   37.9150   30.7420   41.2010 C   0  0  0  0  0  0  0  0  0  0  0  0
   39.1820   31.2100   41.4180 N   0  0  0  0  0  0  0  0  0  0  0  0
   39.5580   32.4490   40.9940 C   0  0  0  0  0  0  0  0  0  0  0  0
   38.6980   33.2530   40.3490 N   0  0  0  0  0  0  0  0  0  0  0  0
   40.8940   32.9040   41.2110 N   0  0  0  0  0  0  0  0  0  0  0  0
   36.7620   33.5040   39.5900 H   0  0  0  0  0  0  0  0  0  0  0  0
   36.0380   31.2230   40.3560 H   0  0  0  0  0  0  0  0  0  0  0  0
   41.4560   33.4700   40.5340 H   0  0  0  0  0  0  0  0  0  0  0  0
   41.4170   32.6880   42.1070 H   0  0  0  0  0  0  0  0  0  0  0  0
   37.1630   28.4540   39.4740 N   0  0  0  0  0  0  0  0  0  0  0  0
   38.3520   28.2960   38.6580 C   0  0  0  0  0  3  0  0  0  0  0  0
   38.1390   27.4520   37.9300 H   0  0  0  0  0  0  0  0  0  0  0  0
   38.6400   29.5070   37.8220 C   0  0  0  0  0  3  0  0  0  0  0  0
   39.2910   29.1580   36.9750 H   0  0  0  0  0  0  0  0  0  0  0  0
   37.4510   30.0380   37.1900 N   0  0  0  0  0  0  0  0  0  0  0  0
   37.1040   30.8950   37.6620 H   0  0  0  0  0  0  0  0  0  0  0  0
   36.4630   29.0000   37.1800 C   0  0  0  0  0  2  0  0  0  0  0  0
   36.0240   28.7190   38.6120 C   0  0  0  0  0  2  0  0  0  0  0  0
  1  2  1  0  0  0  0
  2  3  2  0  0  0  0
  2  7  1  0  0  0  0
  3  8  1  0  0  0  0
  4  9  1  0  0  0  0
  4  3  1  0  0  0  0
  5  4  2  0  0  0  0
  6  5  1  0  0  0  0
  6  1  2  0  0  0  0
 10  5  1  0  0  0  0
 11 16  2  0  0  0  0
 11 12  1  0  0  0  0
 12 13  2  0  0  0  0
 13 14  1  0  0  0  0
 13  1  1  0  0  0  0
 15 17  1  0  0  0  0
 15 14  2  0  0  0  0
 16 15  1  0  0  0  0
 17 21  1  0  0  0  0
 18 11  1  0  0  0  0
 19 12  1  0  0  0  0
 20 17  1  0  0  0  0
 22  6  1  0  0  0  0
 23 22  1  0  0  0  0
 24 23  1  0  0  0  0
 25 23  1  0  0  0  0
 26 25  1  0  0  0  0
 27 28  1  0  0  0  0
 27 25  1  0  0  0  0
 29 27  1  0  0  0  0
 29 30  1  0  0  0  0
 30 22  1  0  0  0  0
M  END
>  <minimizedAffinity>
-5.26744986

$$$$

 OpenBabel03252505353D

 30 32  0  0  0  0  0  0  0  0999 V2000
   36.9650   29.4520   38.2920 C   0  0  0  0  0  0  0  0  0  0  0  0
   36.0930   29.4860   37.2200 C   0  0  0  0  0  0  0  0  0  0  0  0
   34.7300   29.2150   37.3430 C   0  0  0  0  0  0  0  0  0  0  0  0
   34.2310   28.8960   38.6010 C   0  0  0  0  0  0  0  0  0  0  0  0
   35.1090   28.8690   39.6490 C   0  0  0  0  0  0  0  0  0  0  0  0
   36.4580   29.1390   39.5220 C   0  0  0  0  0  0  0  0  0  0  0  0
   36.4710   29.7350   36.2220 H   0  0  0  0  0  0  0  0  0  0  0  0
   34.1340   29.2690   36.4450 H   0  0  0  0  0  0  0  0  0  0  0  0
   33.1800   28.7060   38.5900 H   0  0  0  0  0  0  0  0  0  0  0  0
   34.5630   28.6150   40.5450 H   0  0  0  0  0  0  0  0  0  0  0  0
   40.6610   29.1590   37.6760 C   0  0  0  0  0  0  0  0  0  0  0  0
   39.3320   28.7680   37.9450 C   0  0  0  0  0  0  0  0  0  0  0  0
   38.3480   29.7310   38.0240 C   0  0  0  0  0  0  0  0  0  0  0  0
   38.7150   31.0360   37.8370 N   0  0  0  0  0  0  0  0  0  0  0  0
   40.0100   31.3730   37.5790 C   0  0  0  0  0  0  0  0  0  0  0  0
   40.9690   30.4370   37.5000 N   0  0  0  0  0  0  0  0  0  0  0  0
   40.3720   32.7440   37.4120 N   0  0  0  0  0  0  0  0  0  0  0  0
   41.4480   28.4010   37.6090 H   0  0  0  0  0  0  0  0  0  0  0  0
   39.0700   27.7460   38.0890 H   0  0  0  0  0  0  0  0  0  0  0  0
   41.2540   33.1820   37.7640 H   0  0  0  0  0  0  0  0  0  0  0  0
   39.7440   33.4270   36.9000 H   0  0  0  0  0  0  0  0  0  0  0  0
   37.2330   29.1010   40.6970 N   0  0  0  0  0  0  0  0  0  0  0  0
   37.4670   27.8580   41.4080 C   0  0  0  0  0  3  0  0  0  0  0  0
   38.5930   27.7350   41.4890 H   0  0  0  0  0  0  0  0  0  0  0  0
   36.9470   27.8950   42.8140 C   0  0  0  0  0  3  0  0  0  0  0  0
   37.5060   27.0990   43.3770 H   0  0  0  0  0  0  0  0  0  0  0  0
   37.2700   29.1330   43.4900 N   0  0  0  0  0  0  0  0  0  0  0  0
   36.4530   29.7690   43.5590 H   0  0  0  0  0  0  0  0  0  0  0  0
   38.3600   29.7420   42.7870 C   0  0  0  0  0  2  0  0  0  0  0  0
   37.8760   30.1900   41.4130 C   0  0  0  0  0  2  0  0  0  0  0  0
  1  6  1  0  0  0  0
  2  3  1  0  0  0  0
  2  1  2  0  0  0  0
  3  4  2  0  0  0  0
  4  5  1  0  0  0  0
  5 10  1  0  0  0  0
  6  5  2  0  0  0  0
  6 22  1  0  0  0  0
  7  2  1  0  0  0  0
  8  3  1  0  0  0  0
  9  4  1  0  0  0  0
 11 12  1  0  0  0  0
 12 13  2  0  0  0  0
 12 19  1  0  0  0  0
 13  1  1  0  0  0  0
 14 13  1  0  0  0  0
 15 14  2  0  0  0  0
 16 15  1  0  0  0  0
 16 11  2  0  0  0  0
 17 15  1  0  0  0  0
 17 20  1  0  0  0  0
 18 11  1  0  0  0  0
 21 17  1  0  0  0  0
 22 23  1  0  0  0  0
 22 30  1  0  0  0  0
 23 24  1  0  0  0  0
 23 25  1  0  0  0  0
 25 26  1  0  0  0  0
 25 27  1  0  0  0  0
 27 28  1  0  0  0  0
 29 27  1  0  0  0  0
 30 29  1  0  0  0  0
M  END
>  <minimizedAffinity>
-5.22172546

$$$$

 OpenBabel03252505353D

 30 32  0  0  0  0  0  0  0  0999 V2000
   37.7480   29.1560   41.4820 C   0  0  0  0  0  0  0  0  0  0  0  0
   36.6230   28.5000   41.9470 C   0  0  0  0  0  0  0  0  0  0  0  0
   36.6530   27.6210   43.0280 C   0  0  0  0  0  0  0  0  0  0  0  0
   37.8680   27.3950   43.6650 C   0  0  0  0  0  0  0  0  0  0  0  0
   38.9690   28.0540   43.1900 C   0  0  0  0  0  0  0  0  0  0  0  0
   38.9350   28.9240   42.1190 C   0  0  0  0  0  0  0  0  0  0  0  0
   35.6580   28.6670   41.4560 H   0  0  0  0  0  0  0  0  0  0  0  0
   35.7190   27.1600   43.3150 H   0  0  0  0  0  0  0  0  0  0  0  0
   37.7850   26.7080   44.4780 H   0  0  0  0  0  0  0  0  0  0  0  0
   39.8190   27.7750   43.7940 H   0  0  0  0  0  0  0  0  0  0  0  0
   37.4920   30.5380   37.9960 C   0  0  0  0  0  0  0  0  0  0  0  0
   37.6710   29.6000   39.0350 C   0  0  0  0  0  0  0  0  0  0  0  0
   37.5840   30.0190   40.3450 C   0  0  0  0  0  0  0  0  0  0  0  0
   37.3270   31.3430   40.5770 N   0  0  0  0  0  0  0  0  0  0  0  0
   37.1600   32.2180   39.5460 C   0  0  0  0  0  0  0  0  0  0  0  0
   37.2430   31.8120   38.2690 N   0  0  0  0  0  0  0  0  0  0  0  0
   36.9170   33.5990   39.8130 N   0  0  0  0  0  0  0  0  0  0  0  0
   37.5570   30.2140   36.9530 H   0  0  0  0  0  0  0  0  0  0  0  0
   37.8720   28.5740   38.8300 H   0  0  0  0  0  0  0  0  0  0  0  0
   37.3100   34.3990   39.2660 H   0  0  0  0  0  0  0  0  0  0  0  0
   36.2980   33.9100   40.6160 H   0  0  0  0  0  0  0  0  0  0  0  0
   40.1440   29.5520   41.7630 N   0  0  0  0  0  0  0  0  0  0  0  0
   40.5510   30.8070   42.3680 C   0  0  0  0  0  3  0  0  0  0  0  0
   41.5780   30.6340   42.8200 H   0  0  0  0  0  0  0  0  0  0  0  0
   40.7170   31.9030   41.3580 C   0  0  0  0  0  3  0  0  0  0  0  0
   41.3900   32.6680   41.8320 H   0  0  0  0  0  0  0  0  0  0  0  0
   41.4240   31.4610   40.1740 N   0  0  0  0  0  0  0  0  0  0  0  0
   40.7860   31.3120   39.3690 H   0  0  0  0  0  0  0  0  0  0  0  0
   42.1390   30.2680   40.5150 C   0  0  0  0  0  2  0  0  0  0  0  0
   41.1390   29.1490   40.7830 C   0  0  0  0  0  2  0  0  0  0  0  0
  1  2  2  0  0  0  0
  1  6  1  0  0  0  0
  2  3  1  0  0  0  0
  3  8  1  0  0  0  0
  3  4  2  0  0  0  0
  4  9  1  0  0  0  0
  5  4  1  0  0  0  0
  5 10  1  0  0  0  0
  6  5  2  0  0  0  0
  7  2  1  0  0  0  0
 11 16  2  0  0  0  0
 11 12  1  0  0  0  0
 12 13  2  0  0  0  0
 13 14  1  0  0  0  0
 13  1  1  0  0  0  0
 15 17  1  0  0  0  0
 15 14  2  0  0  0  0
 16 15  1  0  0  0  0
 17 21  1  0  0  0  0
 18 11  1  0  0  0  0
 19 12  1  0  0  0  0
 20 17  1  0  0  0  0
 22  6  1  0  0  0  0
 22 23  1  0  0  0  0
 23 24  1  0  0  0  0
 25 26  1  0  0  0  0
 25 23  1  0  0  0  0
 27 29  1  0  0  0  0
 27 25  1  0  0  0  0
 28 27  1  0  0  0  0
 29 30  1  0  0  0  0
 30 22  1  0  0  0  0
M  END
>  <minimizedAffinity>
-5.13995934

$$$$

 OpenBabel03252505353D

 30 32  0  0  0  0  0  0  0  0999 V2000
   37.3820   30.1160   39.2390 C   0  0  0  0  0  0  0  0  0  0  0  0
   36.7220   30.3710   38.0510 C   0  0  0  0  0  0  0  0  0  0  0  0
   35.6670   29.5850   37.5880 C   0  0  0  0  0  0  0  0  0  0  0  0
   35.2640   28.4990   38.3560 C   0  0  0  0  0  0  0  0  0  0  0  0
   35.9290   28.2650   39.5280 C   0  0  0  0  0  0  0  0  0  0  0  0
   36.9730   29.0460   39.9830 C   0  0  0  0  0  0  0  0  0  0  0  0
   37.0280   31.2220   37.4330 H   0  0  0  0  0  0  0  0  0  0  0  0
   35.2170   29.8680   36.6480 H   0  0  0  0  0  0  0  0  0  0  0  0
   34.4520   27.9630   37.9170 H   0  0  0  0  0  0  0  0  0  0  0  0
   35.4920   27.3980   40.0010 H   0  0  0  0  0  0  0  0  0  0  0  0
   40.7690   31.6930   39.6550 C   0  0  0  0  0  0  0  0  0  0  0  0
   39.7850   30.7630   39.2570 C   0  0  0  0  0  0  0  0  0  0  0  0
   38.4660   30.9910   39.5900 C   0  0  0  0  0  0  0  0  0  0  0  0
   38.1730   32.1230   40.3000 N   0  0  0  0  0  0  0  0  0  0  0  0
   39.1520   32.9970   40.6670 C   0  0  0  0  0  0  0  0  0  0  0  0
   40.4370   32.7780   40.3430 N   0  0  0  0  0  0  0  0  0  0  0  0
   38.8240   34.1590   41.4290 N   0  0  0  0  0  0  0  0  0  0  0  0
   41.8170   31.5210   39.3950 H   0  0  0  0  0  0  0  0  0  0  0  0
   40.0370   29.8870   38.7060 H   0  0  0  0  0  0  0  0  0  0  0  0
   39.4040   34.5560   42.2030 H   0  0  0  0  0  0  0  0  0  0  0  0
   37.9380   34.7110   41.2490 H   0  0  0  0  0  0  0  0  0  0  0  0
   37.5410   28.6990   41.2240 N   0  0  0  0  0  0  0  0  0  0  0  0
   38.4720   27.5920   41.3470 C   0  0  0  0  0  3  0  0  0  0  0  0
   39.4170   28.0090   41.8140 H   0  0  0  0  0  0  0  0  0  0  0  0
   37.9770   26.5280   42.2800 C   0  0  0  0  0  3  0  0  0  0  0  0
   38.8840   25.9530   42.6110 H   0  0  0  0  0  0  0  0  0  0  0  0
   37.4150   27.0770   43.4960 N   0  0  0  0  0  0  0  0  0  0  0  0
   36.3770   27.0480   43.4970 H   0  0  0  0  0  0  0  0  0  0  0  0
   37.9100   28.4140   43.6390 C   0  0  0  0  0  2  0  0  0  0  0  0
   37.3190   29.2830   42.5360 C   0  0  0  0  0  2  0  0  0  0  0  0
  1 13  1  0  0  0  0
  1  6  1  0  0  0  0
  2  1  2  0  0  0  0
  3  2  1  0  0  0  0
  3  4  2  0  0  0  0
  4  5  1  0  0  0  0
  5  6  2  0  0  0  0
  5 10  1  0  0  0  0
  6 22  1  0  0  0  0
  7  2  1  0  0  0  0
  8  3  1  0  0  0  0
  9  4  1  0  0  0  0
 11 16  1  0  0  0  0
 12 13  1  0  0  0  0
 12 11  2  0  0  0  0
 13 14  2  0  0  0  0
 14 15  1  0  0  0  0
 15 17  1  0  0  0  0
 16 15  2  0  0  0  0
 17 20  1  0  0  0  0
 18 11  1  0  0  0  0
 19 12  1  0  0  0  0
 21 17  1  0  0  0  0
 22 23  1  0  0  0  0
 22 30  1  0  0  0  0
 23 24  1  0  0  0  0
 23 25  1  0  0  0  0
 25 26  1  0  0  0  0
 25 27  1  0  0  0  0
 27 28  1  0  0  0  0
 27 29  1  0  0  0  0
 30 29  1  0  0  0  0
M  END
>  <minimizedAffinity>
-5.10694408

$$$$

 OpenBabel03252505353D

 30 32  0  0  0  0  0  0  0  0999 V2000
   37.1610   26.5640   40.9790 C   0  0  0  0  0  0  0  0  0  0  0  0
   37.2790   25.7610   42.0970 C   0  0  0  0  0  0  0  0  0  0  0  0
   36.9550   24.4050   42.0930 C   0  0  0  0  0  0  0  0  0  0  0  0
   36.4910   23.8390   40.9100 C   0  0  0  0  0  0  0  0  0  0  0  0
   36.3820   24.6510   39.8150 C   0  0  0  0  0  0  0  0  0  0  0  0
   36.7050   25.9930   39.8240 C   0  0  0  0  0  0  0  0  0  0  0  0
   37.6420   26.1920   43.0370 H   0  0  0  0  0  0  0  0  0  0  0  0
   37.0840   23.8640   43.0190 H   0  0  0  0  0  0  0  0  0  0  0  0
   36.2710   22.7990   41.0110 H   0  0  0  0  0  0  0  0  0  0  0  0
   36.0190   24.0590   38.9880 H   0  0  0  0  0  0  0  0  0  0  0  0
   39.0260   29.8030   41.3760 C   0  0  0  0  0  0  0  0  0  0  0  0
   38.8020   28.4170   41.2380 C   0  0  0  0  0  0  0  0  0  0  0  0
   37.5090   27.9510   41.1240 C   0  0  0  0  0  0  0  0  0  0  0  0
   36.4940   28.8680   41.1530 N   0  0  0  0  0  0  0  0  0  0  0  0
   36.7520   30.1990   41.2890 C   0  0  0  0  0  0  0  0  0  0  0  0
   38.0100   30.6550   41.3990 N   0  0  0  0  0  0  0  0  0  0  0  0
   35.6750   31.1340   41.3420 N   0  0  0  0  0  0  0  0  0  0  0  0
   40.0490   30.1820   41.4650 H   0  0  0  0  0  0  0  0  0  0  0  0
   39.6080   27.7210   41.2190 H   0  0  0  0  0  0  0  0  0  0  0  0
   35.6380   31.9790   41.9570 H   0  0  0  0  0  0  0  0  0  0  0  0
   34.8120   31.0240   40.7370 H   0  0  0  0  0  0  0  0  0  0  0  0
   36.5690   26.6940   38.6100 N   0  0  0  0  0  0  0  0  0  0  0  0
   37.7020   26.9050   37.7280 C   0  0  0  0  0  3  0  0  0  0  0  0
   37.4120   26.4830   36.7160 H   0  0  0  0  0  0  0  0  0  0  0  0
   37.9940   28.3600   37.5070 C   0  0  0  0  0  3  0  0  0  0  0  0
   38.5800   28.4210   36.5500 H   0  0  0  0  0  0  0  0  0  0  0  0
   36.7940   29.1330   37.2660 N   0  0  0  0  0  0  0  0  0  0  0  0
   36.5120   29.6900   38.0950 H   0  0  0  0  0  0  0  0  0  0  0  0
   35.7640   28.2230   36.8600 C   0  0  0  0  0  2  0  0  0  0  0  0
   35.3950   27.3330   38.0410 C   0  0  0  0  0  2  0  0  0  0  0  0
  1 13  1  0  0  0  0
  1  2  1  0  0  0  0
  2  7  1  0  0  0  0
  3  2  2  0  0  0  0
  3  8  1  0  0  0  0
  4  9  1  0  0  0  0
  4  3  1  0  0  0  0
  5  6  1  0  0  0  0
  5  4  2  0  0  0  0
  6  1  2  0  0  0  0
 10  5  1  0  0  0  0
 11 16  1  0  0  0  0
 11 18  1  0  0  0  0
 12 11  2  0  0  0  0
 13 14  2  0  0  0  0
 13 12  1  0  0  0  0
 14 15  1  0  0  0  0
 15 17  1  0  0  0  0
 15 16  2  0  0  0  0
 17 20  1  0  0  0  0
 19 12  1  0  0  0  0
 21 17  1  0  0  0  0
 22  6  1  0  0  0  0
 23 22  1  0  0  0  0
 24 23  1  0  0  0  0
 25 23  1  0  0  0  0
 26 25  1  0  0  0  0
 27 25  1  0  0  0  0
 27 28  1  0  0  0  0
 29 27  1  0  0  0  0
 29 30  1  0  0  0  0
 30 22  1  0  0  0  0
M  END
>  <minimizedAffinity>
-5.0881114

$$$$

 OpenBabel03252505353D

 30 32  0  0  0  0  0  0  0  0999 V2000
   36.6570   28.5380   41.2540 C   0  0  0  0  0  0  0  0  0  0  0  0
   36.3120   27.7270   42.3200 C   0  0  0  0  0  0  0  0  0  0  0  0
   36.9940   27.7460   43.5360 C   0  0  0  0  0  0  0  0  0  0  0  0
   38.0680   28.6180   43.6790 C   0  0  0  0  0  0  0  0  0  0  0  0
   38.3920   29.4110   42.6140 C   0  0  0  0  0  0  0  0  0  0  0  0
   37.7130   29.3900   41.4110 C   0  0  0  0  0  0  0  0  0  0  0  0
   35.4690   27.0340   42.2220 H   0  0  0  0  0  0  0  0  0  0  0  0
   36.6460   27.0750   44.3070 H   0  0  0  0  0  0  0  0  0  0  0  0
   38.5220   28.5560   44.6440 H   0  0  0  0  0  0  0  0  0  0  0  0
   39.2350   30.0270   42.8910 H   0  0  0  0  0  0  0  0  0  0  0  0
   34.0780   28.9330   38.5480 C   0  0  0  0  0  0  0  0  0  0  0  0
   34.7590   29.1480   39.7660 C   0  0  0  0  0  0  0  0  0  0  0  0
   35.8850   28.4050   40.0500 C   0  0  0  0  0  0  0  0  0  0  0  0
   36.2900   27.4810   39.1260 N   0  0  0  0  0  0  0  0  0  0  0  0
   35.6050   27.3020   37.9620 C   0  0  0  0  0  0  0  0  0  0  0  0
   34.5090   28.0250   37.6820 N   0  0  0  0  0  0  0  0  0  0  0  0
   36.0340   26.3140   37.0240 N   0  0  0  0  0  0  0  0  0  0  0  0
   33.1840   29.5200   38.3140 H   0  0  0  0  0  0  0  0  0  0  0  0
   34.4230   29.8730   40.4710 H   0  0  0  0  0  0  0  0  0  0  0  0
   35.4010   25.7010   36.4620 H   0  0  0  0  0  0  0  0  0  0  0  0
   37.0620   26.1360   36.8350 H   0  0  0  0  0  0  0  0  0  0  0  0
   38.1450   30.2870   40.4150 N   0  0  0  0  0  0  0  0  0  0  0  0
   37.7720   31.6900   40.4480 C   0  0  0  0  0  3  0  0  0  0  0  0
   38.7380   32.2850   40.4260 H   0  0  0  0  0  0  0  0  0  0  0  0
   36.9960   32.1050   39.2340 C   0  0  0  0  0  3  0  0  0  0  0  0
   37.1070   33.2210   39.1570 H   0  0  0  0  0  0  0  0  0  0  0  0
   37.5650   31.5850   38.0090 N   0  0  0  0  0  0  0  0  0  0  0  0
   37.0220   30.7840   37.6330 H   0  0  0  0  0  0  0  0  0  0  0  0
   38.9260   31.2260   38.2800 C   0  0  0  0  0  2  0  0  0  0  0  0
   38.9450   30.0330   39.2290 C   0  0  0  0  0  2  0  0  0  0  0  0
  1  6  2  0  0  0  0
  1  2  1  0  0  0  0
  2  3  2  0  0  0  0
  3  4  1  0  0  0  0
  3  8  1  0  0  0  0
  4  9  1  0  0  0  0
  5 10  1  0  0  0  0
  5  4  2  0  0  0  0
  6  5  1  0  0  0  0
  7  2  1  0  0  0  0
 11 12  1  0  0  0  0
 12 13  2  0  0  0  0
 12 19  1  0  0  0  0
 13  1  1  0  0  0  0
 14 13  1  0  0  0  0
 15 14  2  0  0  0  0
 16 15  1  0  0  0  0
 16 11  2  0  0  0  0
 17 15  1  0  0  0  0
 18 11  1  0  0  0  0
 20 17  1  0  0  0  0
 21 17  1  0  0  0  0
 22 23  1  0  0  0  0
 22  6  1  0  0  0  0
 24 23  1  0  0  0  0
 25 23  1  0  0  0  0
 26 25  1  0  0  0  0
 27 29  1  0  0  0  0
 27 25  1  0  0  0  0
 28 27  1  0  0  0  0
 29 30  1  0  0  0  0
 30 22  1  0  0  0  0
M  END
>  <minimizedAffinity>
-5.00151777

$$$$
