
 OpenBabel03252505333D

 30 32  0  0  0  0  0  0  0  0999 V2000
   46.6490   34.8120   42.0750 C   0  0  0  0  0  0  0  0  0  0  0  0
   47.9260   35.3380   42.0110 C   0  0  0  0  0  0  0  0  0  0  0  0
   48.7500   35.1910   40.8960 C   0  0  0  0  0  0  0  0  0  0  0  0
   48.2630   34.4850   39.8020 C   0  0  0  0  0  0  0  0  0  0  0  0
   46.9970   33.9730   39.8850 C   0  0  0  0  0  0  0  0  0  0  0  0
   46.1850   34.1220   40.9920 C   0  0  0  0  0  0  0  0  0  0  0  0
   48.3250   35.8970   42.8650 H   0  0  0  0  0  0  0  0  0  0  0  0
   49.7310   35.6410   40.9450 H   0  0  0  0  0  0  0  0  0  0  0  0
   48.9680   34.4290   39.0020 H   0  0  0  0  0  0  0  0  0  0  0  0
   46.7740   33.4650   38.9590 H   0  0  0  0  0  0  0  0  0  0  0  0
   44.4000   36.1880   44.7540 C   0  0  0  0  0  0  0  0  0  0  0  0
   45.0740   36.0880   43.5180 C   0  0  0  0  0  0  0  0  0  0  0  0
   45.9130   35.0180   43.2920 C   0  0  0  0  0  0  0  0  0  0  0  0
   46.0540   34.0950   44.2910 N   0  0  0  0  0  0  0  0  0  0  0  0
   45.3860   34.2270   45.4710 C   0  0  0  0  0  0  0  0  0  0  0  0
   44.5670   35.2680   45.6940 N   0  0  0  0  0  0  0  0  0  0  0  0
   45.5690   33.2630   46.5080 N   0  0  0  0  0  0  0  0  0  0  0  0
   43.7300   37.0340   44.9410 H   0  0  0  0  0  0  0  0  0  0  0  0
   44.9490   36.8210   42.7540 H   0  0  0  0  0  0  0  0  0  0  0  0
   45.6230   33.4790   47.5300 H   0  0  0  0  0  0  0  0  0  0  0  0
   45.6660   32.2290   46.2970 H   0  0  0  0  0  0  0  0  0  0  0  0
   44.8930   33.5650   40.9190 N   0  0  0  0  0  0  0  0  0  0  0  0
   43.8250   34.2230   40.1890 C   0  0  0  0  0  3  0  0  0  0  0  0
   43.4390   33.4730   39.4300 H   0  0  0  0  0  0  0  0  0  0  0  0
   42.6610   34.5690   41.0660 C   0  0  0  0  0  3  0  0  0  0  0  0
   41.7770   34.6890   40.3820 H   0  0  0  0  0  0  0  0  0  0  0  0
   42.3020   33.4910   41.9630 N   0  0  0  0  0  0  0  0  0  0  0  0
   42.6190   33.6670   42.9360 H   0  0  0  0  0  0  0  0  0  0  0  0
   42.8590   32.2820   41.4320 C   0  0  0  0  0  2  0  0  0  0  0  0
   44.3780   32.3500   41.5270 C   0  0  0  0  0  2  0  0  0  0  0  0
  1 13  1  0  0  0  0
  2  1  1  0  0  0  0
  2  7  1  0  0  0  0
  3  8  1  0  0  0  0
  3  2  2  0  0  0  0
  4  5  2  0  0  0  0
  4  3  1  0  0  0  0
  5  6  1  0  0  0  0
  6  1  2  0  0  0  0
  9  4  1  0  0  0  0
 10  5  1  0  0  0  0
 11 18  1  0  0  0  0
 11 16  1  0  0  0  0
 12 11  2  0  0  0  0
 13 12  1  0  0  0  0
 13 14  2  0  0  0  0
 14 15  1  0  0  0  0
 15 16  2  0  0  0  0
 15 17  1  0  0  0  0
 17 20  1  0  0  0  0
 19 12  1  0  0  0  0
 21 17  1  0  0  0  0
 22  6  1  0  0  0  0
 22 30  1  0  0  0  0
 23 22  1  0  0  0  0
 23 25  1  0  0  0  0
 24 23  1  0  0  0  0
 25 27  1  0  0  0  0
 26 25  1  0  0  0  0
 27 28  1  0  0  0  0
 29 30  1  0  0  0  0
 29 27  1  0  0  0  0
M  END
>  <minimizedAffinity>
-6.3272438

>  <minimizedRMSD>
0.75905627

$$$$
