
 OpenBabel03252500493D

 22 24  0  0  0  0  0  0  0  0999 V2000
   39.2770   28.0760   41.3050 C   0  0  0  0  0  0  0  0  0  0  0  0
   38.2830   27.6110   42.1520 C   0  0  0  0  0  0  0  0  0  0  0  0
   37.2560   28.4470   42.5760 C   0  0  0  0  0  0  0  0  0  0  0  0
   37.2880   29.7420   42.1110 N   0  0  0  0  0  0  0  0  0  0  0  0
   38.2420   30.1850   41.2990 C   0  0  0  0  0  0  0  0  0  0  0  0
   39.2240   29.3540   40.9040 N   0  0  0  0  0  0  0  0  0  0  0  0
   40.0840   27.4760   40.9520 H   0  0  0  0  0  0  0  0  0  0  0  0
   36.4850   28.1040   43.2280 H   0  0  0  0  0  0  0  0  0  0  0  0
   38.2440   31.5560   40.8280 C   0  0  0  0  0  0  0  0  0  0  0  0
   37.2490   32.0680   40.0600 C   0  0  0  0  0  0  0  0  0  0  0  0
   37.1880   33.3450   39.5830 C   0  0  0  0  0  0  0  0  0  0  0  0
   38.2380   34.1390   39.9350 N   0  0  0  0  0  0  0  0  0  0  0  0
   39.2290   33.6490   40.6940 C   0  0  0  0  0  0  0  0  0  0  0  0
   39.2820   32.3780   41.1640 N   0  0  0  0  0  0  0  0  0  0  0  0
   36.4400   31.3640   39.8200 H   0  0  0  0  0  0  0  0  0  0  0  0
   36.3280   33.6100   38.9800 H   0  0  0  0  0  0  0  0  0  0  0  0
   40.0230   34.3760   40.9160 H   0  0  0  0  0  0  0  0  0  0  0  0
   38.3370   26.2200   42.5910 C   0  0  0  0  0  0  0  0  0  0  0  0
   39.3140   25.8700   43.2870 O   0  0  0  0  0  0  0  0  0  0  0  0
   37.2400   25.3150   42.1890 C   0  0  0  0  0  3  0  0  0  0  0  0
   36.9710   25.1460   40.7090 C   0  0  0  0  0  2  0  0  0  0  0  0
   37.5350   23.9950   41.5690 C   0  0  0  0  0  2  0  0  0  0  0  0
  1  2  1  0  0  0  0
  2  3  2  0  0  0  0
  2 18  1  0  0  0  0
  3  8  1  0  0  0  0
  4  3  1  0  0  0  0
  5  4  2  0  0  0  0
  6  5  1  0  0  0  0
  6  1  2  0  0  0  0
  7  1  1  0  0  0  0
  9 14  1  0  0  0  0
  9  5  1  0  0  0  0
 10  9  2  0  0  0  0
 11 12  2  0  0  0  0
 11 10  1  0  0  0  0
 12 13  1  0  0  0  0
 13 17  1  0  0  0  0
 13 14  2  0  0  0  0
 15 10  1  0  0  0  0
 16 11  1  0  0  0  0
 18 19  2  0  0  0  0
 20 18  1  0  0  0  0
 21 22  1  0  0  0  0
 21 20  1  0  0  0  0
 22 20  1  0  0  0  0
M  END
>  <minimizedAffinity>
-4.67218924

$$$$

 OpenBabel03252500493D

 22 24  0  0  0  0  0  0  0  0999 V2000
   37.2180   29.1900   41.1750 C   0  0  0  0  0  0  0  0  0  0  0  0
   37.6690   28.4390   42.2500 C   0  0  0  0  0  0  0  0  0  0  0  0
   38.8010   28.8180   42.9630 C   0  0  0  0  0  0  0  0  0  0  0  0
   39.4350   29.9650   42.5420 N   0  0  0  0  0  0  0  0  0  0  0  0
   39.0020   30.6820   41.5120 C   0  0  0  0  0  0  0  0  0  0  0  0
   37.9030   30.2920   40.8390 N   0  0  0  0  0  0  0  0  0  0  0  0
   36.3580   28.9410   40.5980 H   0  0  0  0  0  0  0  0  0  0  0  0
   39.1590   28.2510   43.7920 H   0  0  0  0  0  0  0  0  0  0  0  0
   39.6950   31.8850   41.0950 C   0  0  0  0  0  0  0  0  0  0  0  0
   39.0410   32.9980   40.6740 C   0  0  0  0  0  0  0  0  0  0  0  0
   39.6280   34.1610   40.2690 C   0  0  0  0  0  0  0  0  0  0  0  0
   40.9900   34.1590   40.3070 N   0  0  0  0  0  0  0  0  0  0  0  0
   41.6510   33.0680   40.7200 C   0  0  0  0  0  0  0  0  0  0  0  0
   41.0600   31.9150   41.1220 N   0  0  0  0  0  0  0  0  0  0  0  0
   37.9450   32.9180   40.6730 H   0  0  0  0  0  0  0  0  0  0  0  0
   38.9740   34.9670   39.9600 H   0  0  0  0  0  0  0  0  0  0  0  0
   42.7450   33.1780   40.7110 H   0  0  0  0  0  0  0  0  0  0  0  0
   36.9260   27.2380   42.6200 C   0  0  0  0  0  0  0  0  0  0  0  0
   36.2420   27.2800   43.6650 O   0  0  0  0  0  0  0  0  0  0  0  0
   37.0270   26.0530   41.7430 C   0  0  0  0  0  3  0  0  0  0  0  0
   38.2920   25.2260   41.8160 C   0  0  0  0  0  2  0  0  0  0  0  0
   36.9360   24.6810   42.3090 C   0  0  0  0  0  2  0  0  0  0  0  0
  1  2  1  0  0  0  0
  2 18  1  0  0  0  0
  2  3  2  0  0  0  0
  3  8  1  0  0  0  0
  4  3  1  0  0  0  0
  5  4  2  0  0  0  0
  6  1  2  0  0  0  0
  6  5  1  0  0  0  0
  7  1  1  0  0  0  0
  9 14  1  0  0  0  0
  9  5  1  0  0  0  0
 10  9  2  0  0  0  0
 11 12  2  0  0  0  0
 11 10  1  0  0  0  0
 12 13  1  0  0  0  0
 13 14  2  0  0  0  0
 15 10  1  0  0  0  0
 16 11  1  0  0  0  0
 17 13  1  0  0  0  0
 18 19  2  0  0  0  0
 20 21  1  0  0  0  0
 20 22  1  0  0  0  0
 20 18  1  0  0  0  0
 21 22  1  0  0  0  0
M  END
>  <minimizedAffinity>
-4.53596783

$$$$

 OpenBabel03252500493D

 22 24  0  0  0  0  0  0  0  0999 V2000
   38.1860   27.8650   39.8460 C   0  0  0  0  0  0  0  0  0  0  0  0
   37.0750   27.3920   40.5270 C   0  0  0  0  0  0  0  0  0  0  0  0
   36.1950   28.2670   41.1540 C   0  0  0  0  0  0  0  0  0  0  0  0
   36.4900   29.6070   41.0570 N   0  0  0  0  0  0  0  0  0  0  0  0
   37.5550   30.0580   40.4040 C   0  0  0  0  0  0  0  0  0  0  0  0
   38.3910   29.1890   39.8070 N   0  0  0  0  0  0  0  0  0  0  0  0
   38.8900   27.2360   39.3500 H   0  0  0  0  0  0  0  0  0  0  0  0
   35.3360   27.9170   41.6820 H   0  0  0  0  0  0  0  0  0  0  0  0
   37.8360   31.4780   40.3230 C   0  0  0  0  0  0  0  0  0  0  0  0
   37.0710   32.3350   39.5990 C   0  0  0  0  0  0  0  0  0  0  0  0
   37.2780   33.6780   39.4790 C   0  0  0  0  0  0  0  0  0  0  0  0
   38.3550   34.1560   40.1630 N   0  0  0  0  0  0  0  0  0  0  0  0
   39.1200   33.3230   40.8820 C   0  0  0  0  0  0  0  0  0  0  0  0
   38.9090   31.9880   40.9970 N   0  0  0  0  0  0  0  0  0  0  0  0
   36.2230   31.8710   39.0780 H   0  0  0  0  0  0  0  0  0  0  0  0
   36.5810   34.2350   38.8650 H   0  0  0  0  0  0  0  0  0  0  0  0
   39.9610   33.8160   41.3910 H   0  0  0  0  0  0  0  0  0  0  0  0
   36.8480   25.9510   40.5720 C   0  0  0  0  0  0  0  0  0  0  0  0
   36.4140   25.4010   39.5370 O   0  0  0  0  0  0  0  0  0  0  0  0
   37.1440   25.2320   41.8290 C   0  0  0  0  0  3  0  0  0  0  0  0
   37.9940   23.9820   41.7440 C   0  0  0  0  0  2  0  0  0  0  0  0
   38.5080   25.2700   42.4210 C   0  0  0  0  0  2  0  0  0  0  0  0
  1  2  1  0  0  0  0
  2 18  1  0  0  0  0
  2  3  2  0  0  0  0
  3  8  1  0  0  0  0
  4  3  1  0  0  0  0
  5  4  2  0  0  0  0
  6  1  2  0  0  0  0
  6  5  1  0  0  0  0
  7  1  1  0  0  0  0
  9  5  1  0  0  0  0
  9 14  1  0  0  0  0
 10  9  2  0  0  0  0
 11 10  1  0  0  0  0
 11 12  2  0  0  0  0
 12 13  1  0  0  0  0
 13 14  2  0  0  0  0
 13 17  1  0  0  0  0
 15 10  1  0  0  0  0
 16 11  1  0  0  0  0
 18 20  1  0  0  0  0
 19 18  2  0  0  0  0
 20 22  1  0  0  0  0
 21 20  1  0  0  0  0
 21 22  1  0  0  0  0
M  END
>  <minimizedAffinity>
-4.36693048

$$$$

 OpenBabel03252500493D

 22 24  0  0  0  0  0  0  0  0999 V2000
   37.6240   30.8250   40.8790 C   0  0  0  0  0  0  0  0  0  0  0  0
   37.8030   29.4630   40.6900 C   0  0  0  0  0  0  0  0  0  0  0  0
   38.8730   28.9790   39.9460 C   0  0  0  0  0  0  0  0  0  0  0  0
   39.7290   29.9190   39.4200 N   0  0  0  0  0  0  0  0  0  0  0  0
   39.5550   31.2240   39.6020 C   0  0  0  0  0  0  0  0  0  0  0  0
   38.5100   31.6650   40.3260 N   0  0  0  0  0  0  0  0  0  0  0  0
   36.8210   31.2460   41.4400 H   0  0  0  0  0  0  0  0  0  0  0  0
   39.0240   27.9340   39.7920 H   0  0  0  0  0  0  0  0  0  0  0  0
   40.4770   32.1870   39.0320 C   0  0  0  0  0  0  0  0  0  0  0  0
   40.9900   33.2200   39.7470 C   0  0  0  0  0  0  0  0  0  0  0  0
   41.8590   34.1610   39.2750 C   0  0  0  0  0  0  0  0  0  0  0  0
   42.2150   34.0080   37.9680 N   0  0  0  0  0  0  0  0  0  0  0  0
   41.7170   32.9930   37.2480 C   0  0  0  0  0  0  0  0  0  0  0  0
   40.8530   32.0610   37.7250 N   0  0  0  0  0  0  0  0  0  0  0  0
   40.6540   33.2730   40.7910 H   0  0  0  0  0  0  0  0  0  0  0  0
   42.1840   34.9290   39.9660 H   0  0  0  0  0  0  0  0  0  0  0  0
   42.0700   32.9670   36.2080 H   0  0  0  0  0  0  0  0  0  0  0  0
   36.8400   28.5450   41.2900 C   0  0  0  0  0  0  0  0  0  0  0  0
   35.6690   28.5670   40.8530 O   0  0  0  0  0  0  0  0  0  0  0  0
   37.3030   27.6500   42.3710 C   0  0  0  0  0  3  0  0  0  0  0  0
   37.7660   28.2860   43.6640 C   0  0  0  0  0  2  0  0  0  0  0  0
   36.4770   27.4410   43.5890 C   0  0  0  0  0  2  0  0  0  0  0  0
  1  7  1  0  0  0  0
  2  1  1  0  0  0  0
  2 18  1  0  0  0  0
  3  2  2  0  0  0  0
  4  5  2  0  0  0  0
  4  3  1  0  0  0  0
  5  6  1  0  0  0  0
  6  1  2  0  0  0  0
  8  3  1  0  0  0  0
  9  5  1  0  0  0  0
  9 10  1  0  0  0  0
 10 15  1  0  0  0  0
 11 10  2  0  0  0  0
 11 16  1  0  0  0  0
 12 11  1  0  0  0  0
 13 14  1  0  0  0  0
 13 12  2  0  0  0  0
 14  9  2  0  0  0  0
 17 13  1  0  0  0  0
 18 20  1  0  0  0  0
 19 18  2  0  0  0  0
 20 22  1  0  0  0  0
 20 21  1  0  0  0  0
 22 21  1  0  0  0  0
M  END
>  <minimizedAffinity>
-4.19034433

$$$$

 OpenBabel03252500493D

 22 24  0  0  0  0  0  0  0  0999 V2000
   36.5880   27.2330   40.5520 C   0  0  0  0  0  0  0  0  0  0  0  0
   36.5560   28.2610   41.4810 C   0  0  0  0  0  0  0  0  0  0  0  0
   36.1750   29.5470   41.1130 C   0  0  0  0  0  0  0  0  0  0  0  0
   35.8370   29.7310   39.7920 N   0  0  0  0  0  0  0  0  0  0  0  0
   35.8680   28.7440   38.9030 C   0  0  0  0  0  0  0  0  0  0  0  0
   36.2410   27.5090   39.2870 N   0  0  0  0  0  0  0  0  0  0  0  0
   36.8720   26.2320   40.7840 H   0  0  0  0  0  0  0  0  0  0  0  0
   36.1460   30.3480   41.8160 H   0  0  0  0  0  0  0  0  0  0  0  0
   35.5060   28.9740   37.5180 C   0  0  0  0  0  0  0  0  0  0  0  0
   34.2460   28.7810   37.0500 C   0  0  0  0  0  0  0  0  0  0  0  0
   33.8370   28.9770   35.7630 C   0  0  0  0  0  0  0  0  0  0  0  0
   34.8100   29.4050   34.9100 N   0  0  0  0  0  0  0  0  0  0  0  0
   36.0590   29.6010   35.3580 C   0  0  0  0  0  0  0  0  0  0  0  0
   36.4590   29.4040   36.6390 N   0  0  0  0  0  0  0  0  0  0  0  0
   33.5220   28.4360   37.7990 H   0  0  0  0  0  0  0  0  0  0  0  0
   32.7960   28.7810   35.5360 H   0  0  0  0  0  0  0  0  0  0  0  0
   36.7610   29.9460   34.5850 H   0  0  0  0  0  0  0  0  0  0  0  0
   36.9330   27.9650   42.8600 C   0  0  0  0  0  0  0  0  0  0  0  0
   36.1200   27.3170   43.5550 O   0  0  0  0  0  0  0  0  0  0  0  0
   38.2420   28.4440   43.3480 C   0  0  0  0  0  3  0  0  0  0  0  0
   39.3690   27.4380   43.4490 C   0  0  0  0  0  2  0  0  0  0  0  0
   39.3930   28.5850   42.4170 C   0  0  0  0  0  2  0  0  0  0  0  0
  1  7  1  0  0  0  0
  1  2  1  0  0  0  0
  2 18  1  0  0  0  0
  3  2  2  0  0  0  0
  3  8  1  0  0  0  0
  4  3  1  0  0  0  0
  5  6  1  0  0  0  0
  5  4  2  0  0  0  0
  6  1  2  0  0  0  0
  9  5  1  0  0  0  0
 10  9  1  0  0  0  0
 10 15  1  0  0  0  0
 11 10  2  0  0  0  0
 12 13  2  0  0  0  0
 12 11  1  0  0  0  0
 13 14  1  0  0  0  0
 14  9  2  0  0  0  0
 16 11  1  0  0  0  0
 17 13  1  0  0  0  0
 18 20  1  0  0  0  0
 18 19  2  0  0  0  0
 20 21  1  0  0  0  0
 22 20  1  0  0  0  0
 22 21  1  0  0  0  0
M  END
>  <minimizedAffinity>
-4.16760921

$$$$

 OpenBabel03252500493D

 22 24  0  0  0  0  0  0  0  0999 V2000
   39.9030   28.9850   40.7550 C   0  0  0  0  0  0  0  0  0  0  0  0
   39.4670   29.4680   41.9800 C   0  0  0  0  0  0  0  0  0  0  0  0
   39.5770   30.8170   42.2980 C   0  0  0  0  0  0  0  0  0  0  0  0
   40.1350   31.6290   41.3380 N   0  0  0  0  0  0  0  0  0  0  0  0
   40.5530   31.1640   40.1650 C   0  0  0  0  0  0  0  0  0  0  0  0
   40.4350   29.8530   39.8840 N   0  0  0  0  0  0  0  0  0  0  0  0
   39.8400   27.9620   40.4650 H   0  0  0  0  0  0  0  0  0  0  0  0
   39.2460   31.2020   43.2360 H   0  0  0  0  0  0  0  0  0  0  0  0
   41.1380   32.0490   39.1770 C   0  0  0  0  0  0  0  0  0  0  0  0
   41.5990   31.6050   37.9800 C   0  0  0  0  0  0  0  0  0  0  0  0
   42.1600   32.3800   37.0060 C   0  0  0  0  0  0  0  0  0  0  0  0
   42.2420   33.7070   37.3050 N   0  0  0  0  0  0  0  0  0  0  0  0
   41.7900   34.1610   38.4830 C   0  0  0  0  0  0  0  0  0  0  0  0
   41.2340   33.3850   39.4460 N   0  0  0  0  0  0  0  0  0  0  0  0
   41.4970   30.5240   37.8160 H   0  0  0  0  0  0  0  0  0  0  0  0
   42.4830   31.8830   36.1000 H   0  0  0  0  0  0  0  0  0  0  0  0
   41.9060   35.2460   38.6180 H   0  0  0  0  0  0  0  0  0  0  0  0
   38.8870   28.5260   42.9320 C   0  0  0  0  0  0  0  0  0  0  0  0
   39.6490   27.6790   43.4460 O   0  0  0  0  0  0  0  0  0  0  0  0
   37.4430   28.6290   43.2320 C   0  0  0  0  0  3  0  0  0  0  0  0
   36.4680   28.1580   42.1740 C   0  0  0  0  0  2  0  0  0  0  0  0
   36.6380   27.4110   43.5140 C   0  0  0  0  0  2  0  0  0  0  0  0
  1  2  1  0  0  0  0
  2  3  2  0  0  0  0
  2 18  1  0  0  0  0
  3  8  1  0  0  0  0
  4  3  1  0  0  0  0
  5  4  2  0  0  0  0
  6  5  1  0  0  0  0
  6  1  2  0  0  0  0
  7  1  1  0  0  0  0
  9 14  1  0  0  0  0
  9  5  1  0  0  0  0
 10  9  2  0  0  0  0
 11 12  2  0  0  0  0
 11 10  1  0  0  0  0
 12 13  1  0  0  0  0
 13 17  1  0  0  0  0
 13 14  2  0  0  0  0
 15 10  1  0  0  0  0
 16 11  1  0  0  0  0
 18 20  1  0  0  0  0
 18 19  2  0  0  0  0
 20 22  1  0  0  0  0
 21 20  1  0  0  0  0
 21 22  1  0  0  0  0
M  END
>  <minimizedAffinity>
-4.16681004

$$$$

 OpenBabel03252500493D

 22 24  0  0  0  0  0  0  0  0999 V2000
   38.6100   29.5390   39.8100 C   0  0  0  0  0  0  0  0  0  0  0  0
   38.1560   30.3380   40.8490 C   0  0  0  0  0  0  0  0  0  0  0  0
   37.3230   29.8220   41.8360 C   0  0  0  0  0  0  0  0  0  0  0  0
   36.9850   28.4940   41.7200 N   0  0  0  0  0  0  0  0  0  0  0  0
   37.4210   27.7310   40.7230 C   0  0  0  0  0  0  0  0  0  0  0  0
   38.2260   28.2560   39.7810 N   0  0  0  0  0  0  0  0  0  0  0  0
   39.2490   29.8870   39.0310 H   0  0  0  0  0  0  0  0  0  0  0  0
   36.9660   30.4240   42.6410 H   0  0  0  0  0  0  0  0  0  0  0  0
   37.0430   26.3340   40.6320 C   0  0  0  0  0  0  0  0  0  0  0  0
   37.1980   25.4650   41.6630 C   0  0  0  0  0  0  0  0  0  0  0  0
   36.8660   24.1420   41.6450 C   0  0  0  0  0  0  0  0  0  0  0  0
   36.3350   23.6990   40.4710 N   0  0  0  0  0  0  0  0  0  0  0  0
   36.1750   24.5450   39.4430 C   0  0  0  0  0  0  0  0  0  0  0  0
   36.5080   25.8600   39.4680 N   0  0  0  0  0  0  0  0  0  0  0  0
   37.6330   25.9000   42.5730 H   0  0  0  0  0  0  0  0  0  0  0  0
   37.0480   23.5710   42.5480 H   0  0  0  0  0  0  0  0  0  0  0  0
   35.7390   24.0820   38.5470 H   0  0  0  0  0  0  0  0  0  0  0  0
   38.5720   31.7360   40.8840 C   0  0  0  0  0  0  0  0  0  0  0  0
   39.7500   31.9810   41.2260 O   0  0  0  0  0  0  0  0  0  0  0  0
   37.5850   32.7720   40.5150 C   0  0  0  0  0  3  0  0  0  0  0  0
   38.1040   34.0510   39.8940 C   0  0  0  0  0  2  0  0  0  0  0  0
   37.2630   33.0390   39.0880 C   0  0  0  0  0  2  0  0  0  0  0  0
  1  2  1  0  0  0  0
  2 18  1  0  0  0  0
  2  3  2  0  0  0  0
  3  8  1  0  0  0  0
  4  3  1  0  0  0  0
  5  4  2  0  0  0  0
  6  1  2  0  0  0  0
  6  5  1  0  0  0  0
  7  1  1  0  0  0  0
  9  5  1  0  0  0  0
  9 10  1  0  0  0  0
 10 15  1  0  0  0  0
 11 10  2  0  0  0  0
 11 16  1  0  0  0  0
 12 11  1  0  0  0  0
 13 14  1  0  0  0  0
 13 12  2  0  0  0  0
 14  9  2  0  0  0  0
 17 13  1  0  0  0  0
 18 19  2  0  0  0  0
 20 18  1  0  0  0  0
 21 20  1  0  0  0  0
 22 21  1  0  0  0  0
 22 20  1  0  0  0  0
M  END
>  <minimizedAffinity>
-4.10091257

$$$$

 OpenBabel03252500493D

 22 24  0  0  0  0  0  0  0  0999 V2000
   38.1390   28.1390   39.6970 C   0  0  0  0  0  0  0  0  0  0  0  0
   37.3940   27.7240   40.7900 C   0  0  0  0  0  0  0  0  0  0  0  0
   37.1190   28.5940   41.8400 C   0  0  0  0  0  0  0  0  0  0  0  0
   37.6230   29.8690   41.7280 N   0  0  0  0  0  0  0  0  0  0  0  0
   38.3370   30.2640   40.6800 C   0  0  0  0  0  0  0  0  0  0  0  0
   38.5890   29.4020   39.6770 N   0  0  0  0  0  0  0  0  0  0  0  0
   38.3770   27.5120   38.8690 H   0  0  0  0  0  0  0  0  0  0  0  0
   36.5470   28.2880   42.6870 H   0  0  0  0  0  0  0  0  0  0  0  0
   38.8530   31.6160   40.5950 C   0  0  0  0  0  0  0  0  0  0  0  0
   40.1820   31.8940   40.6030 C   0  0  0  0  0  0  0  0  0  0  0  0
   40.7360   33.1390   40.5270 C   0  0  0  0  0  0  0  0  0  0  0  0
   39.8390   34.1600   40.4350 N   0  0  0  0  0  0  0  0  0  0  0  0
   38.5230   33.9030   40.4250 C   0  0  0  0  0  0  0  0  0  0  0  0
   37.9800   32.6620   40.5020 N   0  0  0  0  0  0  0  0  0  0  0  0
   40.8380   31.0160   40.6800 H   0  0  0  0  0  0  0  0  0  0  0  0
   41.8170   33.2040   40.5450 H   0  0  0  0  0  0  0  0  0  0  0  0
   37.8930   34.8000   40.3480 H   0  0  0  0  0  0  0  0  0  0  0  0
   36.9020   26.3500   40.8150 C   0  0  0  0  0  0  0  0  0  0  0  0
   36.2970   25.9330   39.8040 O   0  0  0  0  0  0  0  0  0  0  0  0
   37.1490   25.5390   42.0260 C   0  0  0  0  0  3  0  0  0  0  0  0
   37.3190   24.0450   41.8510 C   0  0  0  0  0  2  0  0  0  0  0  0
   38.4900   24.9510   42.2850 C   0  0  0  0  0  2  0  0  0  0  0  0
  1  2  1  0  0  0  0
  2 18  1  0  0  0  0
  2  3  2  0  0  0  0
  3  8  1  0  0  0  0
  4  3  1  0  0  0  0
  5  4  2  0  0  0  0
  6  1  2  0  0  0  0
  6  5  1  0  0  0  0
  7  1  1  0  0  0  0
  9 10  1  0  0  0  0
  9  5  1  0  0  0  0
 10 15  1  0  0  0  0
 11 16  1  0  0  0  0
 11 10  2  0  0  0  0
 12 11  1  0  0  0  0
 13 12  2  0  0  0  0
 13 14  1  0  0  0  0
 14  9  2  0  0  0  0
 17 13  1  0  0  0  0
 18 20  1  0  0  0  0
 19 18  2  0  0  0  0
 20 22  1  0  0  0  0
 21 20  1  0  0  0  0
 21 22  1  0  0  0  0
M  END
>  <minimizedAffinity>
-4.09430122

$$$$

 OpenBabel03252500493D

 22 24  0  0  0  0  0  0  0  0999 V2000
   37.7780   29.1980   39.8610 C   0  0  0  0  0  0  0  0  0  0  0  0
   37.0680   29.0820   41.0470 C   0  0  0  0  0  0  0  0  0  0  0  0
   35.6800   28.9830   41.0430 C   0  0  0  0  0  0  0  0  0  0  0  0
   35.0680   29.0070   39.8120 N   0  0  0  0  0  0  0  0  0  0  0  0
   35.7500   29.1190   38.6770 C   0  0  0  0  0  0  0  0  0  0  0  0
   37.0920   29.2140   38.7100 N   0  0  0  0  0  0  0  0  0  0  0  0
   38.8390   29.2770   39.8110 H   0  0  0  0  0  0  0  0  0  0  0  0
   35.1210   28.8930   41.9470 H   0  0  0  0  0  0  0  0  0  0  0  0
   35.0710   29.1420   37.3960 C   0  0  0  0  0  0  0  0  0  0  0  0
   33.7250   29.0090   37.2790 C   0  0  0  0  0  0  0  0  0  0  0  0
   33.0230   29.0210   36.1090 C   0  0  0  0  0  0  0  0  0  0  0  0
   33.7800   29.1840   34.9880 N   0  0  0  0  0  0  0  0  0  0  0  0
   35.1100   29.3180   35.0870 C   0  0  0  0  0  0  0  0  0  0  0  0
   35.8020   29.3050   36.2540 N   0  0  0  0  0  0  0  0  0  0  0  0
   33.1880   28.8820   38.2290 H   0  0  0  0  0  0  0  0  0  0  0  0
   31.9480   28.9030   36.1730 H   0  0  0  0  0  0  0  0  0  0  0  0
   35.6200   29.4430   34.1210 H   0  0  0  0  0  0  0  0  0  0  0  0
   37.8100   29.0650   42.3030 C   0  0  0  0  0  0  0  0  0  0  0  0
   38.5600   30.0350   42.5450 O   0  0  0  0  0  0  0  0  0  0  0  0
   37.6310   27.9110   43.2090 C   0  0  0  0  0  3  0  0  0  0  0  0
   37.8400   26.5260   42.6360 C   0  0  0  0  0  2  0  0  0  0  0  0
   38.8040   27.1280   43.6800 C   0  0  0  0  0  2  0  0  0  0  0  0
  1  2  1  0  0  0  0
  2 18  1  0  0  0  0
  3  2  2  0  0  0  0
  3  8  1  0  0  0  0
  4  3  1  0  0  0  0
  5  6  1  0  0  0  0
  5  4  2  0  0  0  0
  6  1  2  0  0  0  0
  7  1  1  0  0  0  0
  9  5  1  0  0  0  0
 10  9  1  0  0  0  0
 10 15  1  0  0  0  0
 11 16  1  0  0  0  0
 11 10  2  0  0  0  0
 12 13  2  0  0  0  0
 12 11  1  0  0  0  0
 13 14  1  0  0  0  0
 14  9  2  0  0  0  0
 17 13  1  0  0  0  0
 18 19  2  0  0  0  0
 18 20  1  0  0  0  0
 20 22  1  0  0  0  0
 21 20  1  0  0  0  0
 21 22  1  0  0  0  0
M  END
>  <minimizedAffinity>
-4.0845685

$$$$
