
 OpenBabel03252509083D

 35 38  0  0  0  0  0  0  0  0999 V2000
   45.3430   35.9430   43.5530 Cl  0  0  0  0  0  0  0  0  0  0  0  0
   44.9210   35.1230   42.0740 C   0  0  0  0  0  0  0  0  0  0  0  0
   45.8400   34.4450   41.3530 C   0  0  0  0  0  0  0  0  0  0  0  0
   45.4130   33.8340   40.1880 C   0  0  0  0  0  0  0  0  0  0  0  0
   44.1110   33.9030   39.7590 C   0  0  0  0  0  0  0  0  0  0  0  0
   43.1960   34.5870   40.4930 C   0  0  0  0  0  0  0  0  0  0  0  0
   43.6110   35.2000   41.6590 C   0  0  0  0  0  0  0  0  0  0  0  0
   43.8290   33.4110   38.8420 H   0  0  0  0  0  0  0  0  0  0  0  0
   42.1700   34.6630   40.1930 H   0  0  0  0  0  0  0  0  0  0  0  0
   42.8760   35.7440   42.2410 H   0  0  0  0  0  0  0  0  0  0  0  0
   46.2900   31.7390   39.1400 C   0  0  0  0  0  0  0  0  0  0  0  0
   46.3730   33.0750   39.3890 C   0  0  0  0  0  0  0  0  0  0  0  0
   47.4290   33.7930   38.8580 C   0  0  0  0  0  0  0  0  0  0  0  0
   48.3800   33.1630   38.0900 C   0  0  0  0  0  0  0  0  0  0  0  0
   48.3130   31.8020   37.8230 C   0  0  0  0  0  0  0  0  0  0  0  0
   47.2470   31.0890   38.3610 C   0  0  0  0  0  0  0  0  0  0  0  0
   47.5240   34.8470   39.0370 H   0  0  0  0  0  0  0  0  0  0  0  0
   49.1880   33.7460   37.6920 H   0  0  0  0  0  0  0  0  0  0  0  0
   49.0500   31.3140   37.2260 H   0  0  0  0  0  0  0  0  0  0  0  0
   47.2130   30.0420   38.1440 H   0  0  0  0  0  0  0  0  0  0  0  0
   45.0120   30.8160   39.7230 S   0  0  0  0  0  0  0  0  0  0  0  0
   43.6740   31.1930   39.1380 O   0  0  0  0  0  0  0  0  0  0  0  0
   45.2630   29.3910   39.1440 O   0  0  0  0  0  0  0  0  0  0  0  0
   44.7130   30.4150   41.3550 C   0  0  0  0  0  3  0  0  0  0  0  0
   46.0070   30.5510   42.2010 C   0  0  0  0  0  2  0  0  0  0  0  0
   44.8250   31.3240   42.5360 C   0  0  0  0  0  2  0  0  0  0  0  0
   49.4310   35.4010   42.0780 C   0  0  0  0  0  0  0  0  0  0  0  0
   48.1100   35.4500   41.6180 C   0  0  0  0  0  0  0  0  0  0  0  0
   47.2180   34.4030   41.8280 C   0  0  0  0  0  0  0  0  0  0  0  0
   47.7210   33.3610   42.4970 N   0  0  0  0  0  0  0  0  0  0  0  0
   48.9810   33.3040   42.9410 C   0  0  0  0  0  0  0  0  0  0  0  0
   49.8280   34.3150   42.7340 N   0  0  0  0  0  0  0  0  0  0  0  0
   50.0590   36.2640   41.8690 H   0  0  0  0  0  0  0  0  0  0  0  0
   47.7580   36.3240   41.0800 H   0  0  0  0  0  0  0  0  0  0  0  0
   49.3710   32.4460   43.4840 H   0  0  0  0  0  0  0  0  0  0  0  0
  2  1  1  0  0  0  0
  3 29  1  0  0  0  0
  3  2  2  0  0  0  0
  4  3  1  0  0  0  0
  5  4  2  0  0  0  0
  5  6  1  0  0  0  0
  6  7  2  0  0  0  0
  7  2  1  0  0  0  0
  7 10  1  0  0  0  0
  8  5  1  0  0  0  0
  9  6  1  0  0  0  0
 11 12  1  0  0  0  0
 11 21  1  0  0  0  0
 12  4  1  0  0  0  0
 13 17  1  0  0  0  0
 13 12  2  0  0  0  0
 14 13  1  0  0  0  0
 15 14  2  0  0  0  0
 15 16  1  0  0  0  0
 16 11  2  0  0  0  0
 18 14  1  0  0  0  0
 19 15  1  0  0  0  0
 20 16  1  0  0  0  0
 21 24  1  0  0  0  0
 22 21  2  0  0  0  0
 23 21  2  0  0  0  0
 24 25  1  0  0  0  0
 24 26  1  0  0  0  0
 25 26  1  0  0  0  0
 27 32  1  0  0  0  0
 28 29  1  0  0  0  0
 28 27  2  0  0  0  0
 29 30  2  0  0  0  0
 30 31  1  0  0  0  0
 31 35  1  0  0  0  0
 32 31  2  0  0  0  0
 33 27  1  0  0  0  0
 34 28  1  0  0  0  0
M  END
>  <minimizedAffinity>
-4.57359362

>  <minimizedRMSD>
1.50068808

$$$$
