
 OpenBabel03252503343D

 16 17  0  0  0  0  0  0  0  0999 V2000
   44.6160   36.0030   44.4090 C   0  0  0  0  0  0  0  0  0  0  0  0
   45.4990   35.7680   43.3240 C   0  0  0  0  0  0  0  0  0  0  0  0
   46.3510   34.6630   43.4010 C   0  0  0  0  0  0  0  0  0  0  0  0
   46.2990   33.8750   44.4900 N   0  0  0  0  0  0  0  0  0  0  0  0
   45.4530   34.1060   45.5220 C   0  0  0  0  0  0  0  0  0  0  0  0
   44.6200   35.1660   45.4730 N   0  0  0  0  0  0  0  0  0  0  0  0
   43.9220   36.8560   44.4070 H   0  0  0  0  0  0  0  0  0  0  0  0
   45.4920   36.4370   42.4790 H   0  0  0  0  0  0  0  0  0  0  0  0
   45.5250   33.3880   46.3260 H   0  0  0  0  0  0  0  0  0  0  0  0
   46.8630   33.5810   41.2180 C   0  0  0  0  0  0  0  0  0  0  0  0
   45.6460   33.2090   41.2440 O   0  0  0  0  0  0  0  0  0  0  0  0
   47.2510   34.3860   42.3450 N   0  0  0  0  0  0  0  0  0  0  0  0
   48.2430   34.7610   42.3460 H   0  0  0  0  0  0  0  0  0  0  0  0
   47.8740   33.2730   40.1750 C   0  0  0  0  0  3  0  0  0  0  0  0
   47.4730   33.2090   38.7270 C   0  0  0  0  0  2  0  0  0  0  0  0
   48.1540   34.4450   39.2050 C   0  0  0  0  0  2  0  0  0  0  0  0
  1  6  1  0  0  0  0
  2  3  1  0  0  0  0
  2  1  2  0  0  0  0
  3  4  2  0  0  0  0
  4  5  1  0  0  0  0
  5  9  1  0  0  0  0
  6  5  2  0  0  0  0
  7  1  1  0  0  0  0
  8  2  1  0  0  0  0
 10 11  2  0  0  0  0
 10 12  1  0  0  0  0
 12 13  1  0  0  0  0
 12  3  1  0  0  0  0
 14 10  1  0  0  0  0
 15 16  1  0  0  0  0
 15 14  1  0  0  0  0
 16 14  1  0  0  0  0
M  END
>  <minimizedAffinity>
-3.56701612

>  <minimizedRMSD>
0.784289956

$$$$
