
 OpenBabel03252504013D

 28 31  0  0  0  0  0  0  0  0999 V2000
   36.7630   30.8240   40.5020 C   0  0  0  0  0  0  0  0  0  0  0  0
   37.7370   30.2110   41.2910 C   0  0  0  0  0  0  0  0  0  0  0  0
   38.8980   30.8850   41.5680 C   0  0  0  0  0  0  0  0  0  0  0  0
   39.0910   32.1520   41.0690 C   0  0  0  0  0  0  0  0  0  0  0  0
   40.0960   33.0340   41.1680 N   0  0  0  0  0  0  0  0  0  0  0  0
   39.8170   34.1610   40.4920 C   0  0  0  0  0  0  0  0  0  0  0  0
   38.5660   34.0180   39.9180 C   0  0  0  0  0  0  0  0  0  0  0  0
   38.1230   32.7620   40.2840 C   0  0  0  0  0  0  0  0  0  0  0  0
   36.9530   32.0930   39.9990 C   0  0  0  0  0  0  0  0  0  0  0  0
   35.8140   30.3770   40.2260 H   0  0  0  0  0  0  0  0  0  0  0  0
   39.6490   30.3930   42.1860 H   0  0  0  0  0  0  0  0  0  0  0  0
   40.9650   32.8350   41.7080 H   0  0  0  0  0  0  0  0  0  0  0  0
   40.5160   34.9920   40.4580 H   0  0  0  0  0  0  0  0  0  0  0  0
   38.1140   34.7790   39.3260 H   0  0  0  0  0  0  0  0  0  0  0  0
   36.2300   32.5900   39.3940 H   0  0  0  0  0  0  0  0  0  0  0  0
   37.3810   26.5810   41.3750 C   0  0  0  0  0  0  0  0  0  0  0  0
   36.9370   26.3180   42.6660 C   0  0  0  0  0  0  0  0  0  0  0  0
   36.7550   27.4070   43.5260 C   0  0  0  0  0  0  0  0  0  0  0  0
   37.0210   28.6570   43.0590 N   0  0  0  0  0  0  0  0  0  0  0  0
   37.4540   28.8630   41.7830 C   0  0  0  0  0  0  0  0  0  0  0  0
   37.6340   27.8190   40.9440 N   0  0  0  0  0  0  0  0  0  0  0  0
   36.7240   25.3480   43.0490 H   0  0  0  0  0  0  0  0  0  0  0  0
   36.4120   27.3100   44.5530 H   0  0  0  0  0  0  0  0  0  0  0  0
   37.5390   25.4050   40.5620 C   0  0  0  0  0  0  0  0  0  0  0  0
   38.2850   25.3140   39.5210 O   0  0  0  0  0  0  0  0  0  0  0  0
   36.8380   24.1110   40.8340 C   0  0  0  0  0  3  0  0  0  0  0  0
   37.1380   22.8950   40.0550 C   0  0  0  0  0  2  0  0  0  0  0  0
   35.7790   23.6450   39.9050 C   0  0  0  0  0  2  0  0  0  0  0  0
  1  2  1  0  0  0  0
  2  3  2  0  0  0  0
  2 20  1  0  0  0  0
  3 11  1  0  0  0  0
  4  5  1  0  0  0  0
  4  3  1  0  0  0  0
  5 12  1  0  0  0  0
  6  5  1  0  0  0  0
  7  8  1  0  0  0  0
  7  6  2  0  0  0  0
  8  4  2  0  0  0  0
  9  8  1  0  0  0  0
  9  1  2  0  0  0  0
 10  1  1  0  0  0  0
 13  6  1  0  0  0  0
 14  7  1  0  0  0  0
 15  9  1  0  0  0  0
 16 17  1  0  0  0  0
 17 22  1  0  0  0  0
 17 18  2  0  0  0  0
 18 23  1  0  0  0  0
 19 18  1  0  0  0  0
 20 19  2  0  0  0  0
 21 16  2  0  0  0  0
 21 20  1  0  0  0  0
 24 26  1  0  0  0  0
 24 16  1  0  0  0  0
 25 24  2  0  0  0  0
 27 26  1  0  0  0  0
 28 27  1  0  0  0  0
 28 26  1  0  0  0  0
M  END
>  <minimizedAffinity>
-5.49678469

$$$$

 OpenBabel03252504013D

 28 31  0  0  0  0  0  0  0  0999 V2000
   39.2480   30.3810   41.9300 C   0  0  0  0  0  0  0  0  0  0  0  0
   37.9700   29.9540   41.5680 C   0  0  0  0  0  0  0  0  0  0  0  0
   37.1430   30.8130   40.8920 C   0  0  0  0  0  0  0  0  0  0  0  0
   37.5780   32.0800   40.5770 C   0  0  0  0  0  0  0  0  0  0  0  0
   37.0100   33.1130   39.9390 N   0  0  0  0  0  0  0  0  0  0  0  0
   37.8490   34.1610   39.8770 C   0  0  0  0  0  0  0  0  0  0  0  0
   39.0300   33.8030   40.5040 C   0  0  0  0  0  0  0  0  0  0  0  0
   38.8490   32.5040   40.9370 C   0  0  0  0  0  0  0  0  0  0  0  0
   39.6880   31.6490   41.6170 C   0  0  0  0  0  0  0  0  0  0  0  0
   39.9760   29.7800   42.4650 H   0  0  0  0  0  0  0  0  0  0  0  0
   36.1470   30.4660   40.6150 H   0  0  0  0  0  0  0  0  0  0  0  0
   36.0420   33.0710   39.5550 H   0  0  0  0  0  0  0  0  0  0  0  0
   37.5630   35.0910   39.3950 H   0  0  0  0  0  0  0  0  0  0  0  0
   39.8590   34.4650   40.5890 H   0  0  0  0  0  0  0  0  0  0  0  0
   40.6580   32.0060   41.8780 H   0  0  0  0  0  0  0  0  0  0  0  0
   37.5330   26.3350   41.4130 C   0  0  0  0  0  0  0  0  0  0  0  0
   36.8770   26.0270   42.5990 C   0  0  0  0  0  0  0  0  0  0  0  0
   36.5770   27.0800   43.4690 C   0  0  0  0  0  0  0  0  0  0  0  0
   36.9400   28.3420   43.1150 N   0  0  0  0  0  0  0  0  0  0  0  0
   37.5840   28.5940   41.9390 C   0  0  0  0  0  0  0  0  0  0  0  0
   37.8790   27.5840   41.0910 N   0  0  0  0  0  0  0  0  0  0  0  0
   36.5840   25.0460   42.8930 H   0  0  0  0  0  0  0  0  0  0  0  0
   36.0670   26.9460   44.4210 H   0  0  0  0  0  0  0  0  0  0  0  0
   37.8010   25.1950   40.5790 C   0  0  0  0  0  0  0  0  0  0  0  0
   38.5200   25.2010   39.5160 O   0  0  0  0  0  0  0  0  0  0  0  0
   37.2620   23.8250   40.8540 C   0  0  0  0  0  3  0  0  0  0  0  0
   37.8390   22.6280   40.2150 C   0  0  0  0  0  2  0  0  0  0  0  0
   36.4220   23.1530   39.8330 C   0  0  0  0  0  2  0  0  0  0  0  0
  1 10  1  0  0  0  0
  2  1  2  0  0  0  0
  2 20  1  0  0  0  0
  3  2  1  0  0  0  0
  4  3  2  0  0  0  0
  4  8  1  0  0  0  0
  5  4  1  0  0  0  0
  6  5  1  0  0  0  0
  6  7  2  0  0  0  0
  7 14  1  0  0  0  0
  7  8  1  0  0  0  0
  8  9  2  0  0  0  0
  9 15  1  0  0  0  0
  9  1  1  0  0  0  0
 11  3  1  0  0  0  0
 12  5  1  0  0  0  0
 13  6  1  0  0  0  0
 16 17  1  0  0  0  0
 17 22  1  0  0  0  0
 17 18  2  0  0  0  0
 18 23  1  0  0  0  0
 19 18  1  0  0  0  0
 20 19  2  0  0  0  0
 21 16  2  0  0  0  0
 21 20  1  0  0  0  0
 24 26  1  0  0  0  0
 24 16  1  0  0  0  0
 25 24  2  0  0  0  0
 27 26  1  0  0  0  0
 28 27  1  0  0  0  0
 28 26  1  0  0  0  0
M  END
>  <minimizedAffinity>
-5.38512945

$$$$

 OpenBabel03252504013D

 28 31  0  0  0  0  0  0  0  0999 V2000
   39.3920   31.9300   40.9670 C   0  0  0  0  0  0  0  0  0  0  0  0
   38.7370   31.2930   39.9120 C   0  0  0  0  0  0  0  0  0  0  0  0
   39.1530   31.5240   38.6270 C   0  0  0  0  0  0  0  0  0  0  0  0
   40.2060   32.3780   38.3880 C   0  0  0  0  0  0  0  0  0  0  0  0
   40.8190   32.7880   37.2700 N   0  0  0  0  0  0  0  0  0  0  0  0
   41.8170   33.6430   37.5530 C   0  0  0  0  0  0  0  0  0  0  0  0
   41.8660   33.8050   38.9260 C   0  0  0  0  0  0  0  0  0  0  0  0
   40.8560   33.0120   39.4370 C   0  0  0  0  0  0  0  0  0  0  0  0
   40.4460   32.7870   40.7330 C   0  0  0  0  0  0  0  0  0  0  0  0
   39.1410   31.8150   42.0150 H   0  0  0  0  0  0  0  0  0  0  0  0
   38.6330   31.0180   37.8130 H   0  0  0  0  0  0  0  0  0  0  0  0
   40.5320   32.4650   36.3220 H   0  0  0  0  0  0  0  0  0  0  0  0
   42.4290   34.0820   36.7710 H   0  0  0  0  0  0  0  0  0  0  0  0
   42.5740   34.4380   39.4070 H   0  0  0  0  0  0  0  0  0  0  0  0
   40.9680   33.2890   41.5150 H   0  0  0  0  0  0  0  0  0  0  0  0
   36.8340   28.6090   41.4890 C   0  0  0  0  0  0  0  0  0  0  0  0
   35.5740   28.7080   40.9090 C   0  0  0  0  0  0  0  0  0  0  0  0
   35.3720   29.7130   39.9580 C   0  0  0  0  0  0  0  0  0  0  0  0
   36.4100   30.5380   39.6520 N   0  0  0  0  0  0  0  0  0  0  0  0
   37.6290   30.4010   40.2480 C   0  0  0  0  0  0  0  0  0  0  0  0
   37.8350   29.4330   41.1690 N   0  0  0  0  0  0  0  0  0  0  0  0
   34.7510   28.0710   41.1360 H   0  0  0  0  0  0  0  0  0  0  0  0
   34.4260   29.8760   39.4470 H   0  0  0  0  0  0  0  0  0  0  0  0
   36.9520   27.5480   42.4530 C   0  0  0  0  0  0  0  0  0  0  0  0
   36.4430   27.5530   43.6310 O   0  0  0  0  0  0  0  0  0  0  0  0
   37.7000   26.2770   42.1970 C   0  0  0  0  0  3  0  0  0  0  0  0
   37.6510   25.6060   40.8850 C   0  0  0  0  0  2  0  0  0  0  0  0
   36.9600   24.9930   42.1410 C   0  0  0  0  0  2  0  0  0  0  0  0
  1 10  1  0  0  0  0
  2 20  1  0  0  0  0
  2  1  2  0  0  0  0
  3  2  1  0  0  0  0
  4  3  2  0  0  0  0
  4  8  1  0  0  0  0
  5  6  1  0  0  0  0
  5  4  1  0  0  0  0
  6  7  2  0  0  0  0
  7 14  1  0  0  0  0
  7  8  1  0  0  0  0
  8  9  2  0  0  0  0
  9  1  1  0  0  0  0
  9 15  1  0  0  0  0
 11  3  1  0  0  0  0
 12  5  1  0  0  0  0
 13  6  1  0  0  0  0
 16 24  1  0  0  0  0
 17 22  1  0  0  0  0
 17 16  2  0  0  0  0
 18 17  1  0  0  0  0
 19 18  2  0  0  0  0
 19 20  1  0  0  0  0
 20 21  2  0  0  0  0
 21 16  1  0  0  0  0
 23 18  1  0  0  0  0
 24 25  2  0  0  0  0
 26 24  1  0  0  0  0
 27 28  1  0  0  0  0
 27 26  1  0  0  0  0
 28 26  1  0  0  0  0
M  END
>  <minimizedAffinity>
-5.36962557

$$$$

 OpenBabel03252504013D

 28 31  0  0  0  0  0  0  0  0999 V2000
   36.1800   26.9820   39.2160 C   0  0  0  0  0  0  0  0  0  0  0  0
   35.5220   28.2120   39.1900 C   0  0  0  0  0  0  0  0  0  0  0  0
   35.6070   29.0410   40.2780 C   0  0  0  0  0  0  0  0  0  0  0  0
   36.3370   28.6560   41.3790 C   0  0  0  0  0  0  0  0  0  0  0  0
   36.5950   29.2390   42.5580 N   0  0  0  0  0  0  0  0  0  0  0  0
   37.3730   28.4550   43.3240 C   0  0  0  0  0  0  0  0  0  0  0  0
   37.6420   27.2960   42.6160 C   0  0  0  0  0  0  0  0  0  0  0  0
   36.9910   27.4320   41.4050 C   0  0  0  0  0  0  0  0  0  0  0  0
   36.9110   26.5910   40.3180 C   0  0  0  0  0  0  0  0  0  0  0  0
   36.1750   26.2560   38.4100 H   0  0  0  0  0  0  0  0  0  0  0  0
   35.0890   29.9990   40.2430 H   0  0  0  0  0  0  0  0  0  0  0  0
   36.2230   30.1790   42.8120 H   0  0  0  0  0  0  0  0  0  0  0  0
   37.6870   28.7610   44.3170 H   0  0  0  0  0  0  0  0  0  0  0  0
   38.2420   26.5090   43.0080 H   0  0  0  0  0  0  0  0  0  0  0  0
   37.4260   25.6590   40.3700 H   0  0  0  0  0  0  0  0  0  0  0  0
   32.7660   29.2080   37.0170 C   0  0  0  0  0  0  0  0  0  0  0  0
   33.3200   29.1830   35.7420 C   0  0  0  0  0  0  0  0  0  0  0  0
   34.6650   28.8170   35.6240 C   0  0  0  0  0  0  0  0  0  0  0  0
   35.3570   28.5070   36.7530 N   0  0  0  0  0  0  0  0  0  0  0  0
   34.7690   28.5470   37.9830 C   0  0  0  0  0  0  0  0  0  0  0  0
   33.4700   28.8990   38.1090 N   0  0  0  0  0  0  0  0  0  0  0  0
   32.7940   29.4220   34.8470 H   0  0  0  0  0  0  0  0  0  0  0  0
   35.1920   28.7670   34.6740 H   0  0  0  0  0  0  0  0  0  0  0  0
   31.3810   29.5950   37.0450 C   0  0  0  0  0  0  0  0  0  0  0  0
   30.5630   29.5060   36.0600 O   0  0  0  0  0  0  0  0  0  0  0  0
   30.7050   30.1630   38.2540 C   0  0  0  0  0  3  0  0  0  0  0  0
   29.2710   29.9360   38.5110 C   0  0  0  0  0  2  0  0  0  0  0  0
   29.8150   31.3400   38.1070 C   0  0  0  0  0  2  0  0  0  0  0  0
  1  9  1  0  0  0  0
  2  1  2  0  0  0  0
  2  3  1  0  0  0  0
  3  4  2  0  0  0  0
  4  8  1  0  0  0  0
  4  5  1  0  0  0  0
  5 12  1  0  0  0  0
  5  6  1  0  0  0  0
  6 13  1  0  0  0  0
  7 14  1  0  0  0  0
  7  6  2  0  0  0  0
  8  7  1  0  0  0  0
  9 15  1  0  0  0  0
  9  8  2  0  0  0  0
 10  1  1  0  0  0  0
 11  3  1  0  0  0  0
 16 24  1  0  0  0  0
 16 21  1  0  0  0  0
 17 16  2  0  0  0  0
 18 17  1  0  0  0  0
 18 19  2  0  0  0  0
 19 20  1  0  0  0  0
 20 21  2  0  0  0  0
 20  2  1  0  0  0  0
 22 17  1  0  0  0  0
 23 18  1  0  0  0  0
 24 26  1  0  0  0  0
 25 24  2  0  0  0  0
 26 27  1  0  0  0  0
 28 26  1  0  0  0  0
 28 27  1  0  0  0  0
M  END
>  <minimizedAffinity>
-5.3548522

$$$$

 OpenBabel03252504013D

 28 31  0  0  0  0  0  0  0  0999 V2000
   37.3680   29.5690   40.1700 C   0  0  0  0  0  0  0  0  0  0  0  0
   38.2690   29.7080   41.2260 C   0  0  0  0  0  0  0  0  0  0  0  0
   38.7350   30.9560   41.5510 C   0  0  0  0  0  0  0  0  0  0  0  0
   38.3130   32.0540   40.8360 C   0  0  0  0  0  0  0  0  0  0  0  0
   38.5880   33.3630   40.9180 N   0  0  0  0  0  0  0  0  0  0  0  0
   37.9180   34.0550   39.9810 C   0  0  0  0  0  0  0  0  0  0  0  0
   37.1630   33.1600   39.2440 C   0  0  0  0  0  0  0  0  0  0  0  0
   37.4180   31.9150   39.7850 C   0  0  0  0  0  0  0  0  0  0  0  0
   36.9440   30.6660   39.4500 C   0  0  0  0  0  0  0  0  0  0  0  0
   36.9430   28.6290   39.8350 H   0  0  0  0  0  0  0  0  0  0  0  0
   39.4380   31.0500   42.3790 H   0  0  0  0  0  0  0  0  0  0  0  0
   39.2410   33.7550   41.6290 H   0  0  0  0  0  0  0  0  0  0  0  0
   38.0140   35.1330   39.8930 H   0  0  0  0  0  0  0  0  0  0  0  0
   36.5390   33.4620   38.4360 H   0  0  0  0  0  0  0  0  0  0  0  0
   36.2570   30.5940   38.6390 H   0  0  0  0  0  0  0  0  0  0  0  0
   38.3880   26.2160   42.2760 C   0  0  0  0  0  0  0  0  0  0  0  0
   39.3870   26.1920   43.2430 C   0  0  0  0  0  0  0  0  0  0  0  0
   40.0320   27.3960   43.5420 C   0  0  0  0  0  0  0  0  0  0  0  0
   39.6540   28.5210   42.8770 N   0  0  0  0  0  0  0  0  0  0  0  0
   38.6680   28.4940   41.9360 C   0  0  0  0  0  0  0  0  0  0  0  0
   38.0370   27.3360   41.6390 N   0  0  0  0  0  0  0  0  0  0  0  0
   39.6960   25.3220   43.7740 H   0  0  0  0  0  0  0  0  0  0  0  0
   40.8260   27.4850   44.2810 H   0  0  0  0  0  0  0  0  0  0  0  0
   37.7790   24.9360   42.0330 C   0  0  0  0  0  0  0  0  0  0  0  0
   36.5620   24.6270   42.3020 O   0  0  0  0  0  0  0  0  0  0  0  0
   38.5050   23.7780   41.4230 C   0  0  0  0  0  3  0  0  0  0  0  0
   39.0720   23.8550   40.0640 C   0  0  0  0  0  2  0  0  0  0  0  0
   37.8330   22.9630   40.3810 C   0  0  0  0  0  2  0  0  0  0  0  0
  1  2  1  0  0  0  0
  2  3  2  0  0  0  0
  2 20  1  0  0  0  0
  3 11  1  0  0  0  0
  4  5  1  0  0  0  0
  4  3  1  0  0  0  0
  5 12  1  0  0  0  0
  6  5  1  0  0  0  0
  7  8  1  0  0  0  0
  7  6  2  0  0  0  0
  8  4  2  0  0  0  0
  9  8  1  0  0  0  0
  9  1  2  0  0  0  0
 10  1  1  0  0  0  0
 13  6  1  0  0  0  0
 14  7  1  0  0  0  0
 15  9  1  0  0  0  0
 16 17  1  0  0  0  0
 17 18  2  0  0  0  0
 17 22  1  0  0  0  0
 18 23  1  0  0  0  0
 19 18  1  0  0  0  0
 20 19  2  0  0  0  0
 21 20  1  0  0  0  0
 21 16  2  0  0  0  0
 24 16  1  0  0  0  0
 24 25  2  0  0  0  0
 26 24  1  0  0  0  0
 27 28  1  0  0  0  0
 27 26  1  0  0  0  0
 28 26  1  0  0  0  0
M  END
>  <minimizedAffinity>
-5.28649235

$$$$

 OpenBabel03252504013D

 28 31  0  0  0  0  0  0  0  0999 V2000
   35.5830   29.3960   38.3400 C   0  0  0  0  0  0  0  0  0  0  0  0
   36.9690   29.5420   38.2870 C   0  0  0  0  0  0  0  0  0  0  0  0
   37.6100   29.4390   37.0790 C   0  0  0  0  0  0  0  0  0  0  0  0
   36.8830   29.1930   35.9360 C   0  0  0  0  0  0  0  0  0  0  0  0
   37.2220   29.0440   34.6480 N   0  0  0  0  0  0  0  0  0  0  0  0
   36.1380   28.8140   33.8880 C   0  0  0  0  0  0  0  0  0  0  0  0
   35.0280   28.8110   34.7140 C   0  0  0  0  0  0  0  0  0  0  0  0
   35.5040   29.0470   35.9890 C   0  0  0  0  0  0  0  0  0  0  0  0
   34.8520   29.1490   37.1970 C   0  0  0  0  0  0  0  0  0  0  0  0
   34.9850   29.4600   39.2420 H   0  0  0  0  0  0  0  0  0  0  0  0
   38.6930   29.5560   37.0530 H   0  0  0  0  0  0  0  0  0  0  0  0
   38.2090   29.1060   34.3170 H   0  0  0  0  0  0  0  0  0  0  0  0
   36.2170   28.6670   32.8150 H   0  0  0  0  0  0  0  0  0  0  0  0
   34.0410   28.6480   34.3510 H   0  0  0  0  0  0  0  0  0  0  0  0
   33.7920   29.0330   37.2020 H   0  0  0  0  0  0  0  0  0  0  0  0
   38.6770   28.9660   41.4590 C   0  0  0  0  0  0  0  0  0  0  0  0
   38.9800   30.2450   41.9120 C   0  0  0  0  0  0  0  0  0  0  0  0
   38.5910   31.3270   41.1160 C   0  0  0  0  0  0  0  0  0  0  0  0
   37.9420   31.0750   39.9470 N   0  0  0  0  0  0  0  0  0  0  0  0
   37.6670   29.8020   39.5450 C   0  0  0  0  0  0  0  0  0  0  0  0
   38.0390   28.7490   40.3070 N   0  0  0  0  0  0  0  0  0  0  0  0
   39.4860   30.4610   42.8240 H   0  0  0  0  0  0  0  0  0  0  0  0
   38.7800   32.3650   41.3790 H   0  0  0  0  0  0  0  0  0  0  0  0
   39.1130   27.9160   42.3390 C   0  0  0  0  0  0  0  0  0  0  0  0
   40.3270   27.5260   42.4900 O   0  0  0  0  0  0  0  0  0  0  0  0
   38.1840   27.1280   43.2100 C   0  0  0  0  0  3  0  0  0  0  0  0
   37.0720   26.3450   42.6380 C   0  0  0  0  0  2  0  0  0  0  0  0
   36.8160   27.6400   43.4680 C   0  0  0  0  0  2  0  0  0  0  0  0
  1 10  1  0  0  0  0
  2  1  1  0  0  0  0
  2 20  1  0  0  0  0
  3  2  2  0  0  0  0
  4  8  2  0  0  0  0
  4  3  1  0  0  0  0
  5  4  1  0  0  0  0
  6  5  1  0  0  0  0
  6  7  2  0  0  0  0
  7  8  1  0  0  0  0
  8  9  1  0  0  0  0
  9 15  1  0  0  0  0
  9  1  2  0  0  0  0
 11  3  1  0  0  0  0
 12  5  1  0  0  0  0
 13  6  1  0  0  0  0
 14  7  1  0  0  0  0
 16 17  1  0  0  0  0
 16 24  1  0  0  0  0
 17 22  1  0  0  0  0
 18 23  1  0  0  0  0
 18 17  2  0  0  0  0
 19 18  1  0  0  0  0
 20 19  2  0  0  0  0
 20 21  1  0  0  0  0
 21 16  2  0  0  0  0
 24 25  2  0  0  0  0
 24 26  1  0  0  0  0
 26 28  1  0  0  0  0
 27 26  1  0  0  0  0
 27 28  1  0  0  0  0
M  END
>  <minimizedAffinity>
-5.12250376

$$$$

 OpenBabel03252504013D

 28 31  0  0  0  0  0  0  0  0999 V2000
   40.2000   28.9990   37.6180 C   0  0  0  0  0  0  0  0  0  0  0  0
   40.1300   30.3020   38.1130 C   0  0  0  0  0  0  0  0  0  0  0  0
   41.1090   31.2010   37.7790 C   0  0  0  0  0  0  0  0  0  0  0  0
   42.1470   30.8140   36.9620 C   0  0  0  0  0  0  0  0  0  0  0  0
   43.2200   31.4530   36.4770 N   0  0  0  0  0  0  0  0  0  0  0  0
   43.9600   30.6370   35.7080 C   0  0  0  0  0  0  0  0  0  0  0  0
   43.3470   29.3970   35.6840 C   0  0  0  0  0  0  0  0  0  0  0  0
   42.2170   29.5180   36.4700 C   0  0  0  0  0  0  0  0  0  0  0  0
   41.2390   28.6070   36.8000 C   0  0  0  0  0  0  0  0  0  0  0  0
   39.4790   28.2160   37.8230 H   0  0  0  0  0  0  0  0  0  0  0  0
   41.0410   32.2150   38.1730 H   0  0  0  0  0  0  0  0  0  0  0  0
   43.4200   32.4530   36.6900 H   0  0  0  0  0  0  0  0  0  0  0  0
   44.8720   30.9800   35.2270 H   0  0  0  0  0  0  0  0  0  0  0  0
   43.7400   28.5700   35.1410 H   0  0  0  0  0  0  0  0  0  0  0  0
   41.3220   27.6200   36.4040 H   0  0  0  0  0  0  0  0  0  0  0  0
   37.3430   29.9200   40.4380 C   0  0  0  0  0  0  0  0  0  0  0  0
   36.8650   31.2150   40.6010 C   0  0  0  0  0  0  0  0  0  0  0  0
   37.5090   32.2400   39.9000 C   0  0  0  0  0  0  0  0  0  0  0  0
   38.5630   31.9200   39.1020 N   0  0  0  0  0  0  0  0  0  0  0  0
   38.9960   30.6340   38.9740 C   0  0  0  0  0  0  0  0  0  0  0  0
   38.3810   29.6360   39.6470 N   0  0  0  0  0  0  0  0  0  0  0  0
   36.0410   31.4830   41.2200 H   0  0  0  0  0  0  0  0  0  0  0  0
   37.2130   33.2850   39.9590 H   0  0  0  0  0  0  0  0  0  0  0  0
   36.6230   28.9310   41.1930 C   0  0  0  0  0  0  0  0  0  0  0  0
   35.3680   28.6840   41.0910 O   0  0  0  0  0  0  0  0  0  0  0  0
   37.2620   28.0460   42.2180 C   0  0  0  0  0  3  0  0  0  0  0  0
   36.5020   27.5320   43.3730 C   0  0  0  0  0  2  0  0  0  0  0  0
   37.6190   28.6050   43.5450 C   0  0  0  0  0  2  0  0  0  0  0  0
  1 10  1  0  0  0  0
  1  2  1  0  0  0  0
  2 20  1  0  0  0  0
  3  2  2  0  0  0  0
  3 11  1  0  0  0  0
  4  3  1  0  0  0  0
  5 12  1  0  0  0  0
  5  4  1  0  0  0  0
  6  5  1  0  0  0  0
  7  6  2  0  0  0  0
  7  8  1  0  0  0  0
  8  9  1  0  0  0  0
  8  4  2  0  0  0  0
  9  1  2  0  0  0  0
 13  6  1  0  0  0  0
 14  7  1  0  0  0  0
 15  9  1  0  0  0  0
 16 17  1  0  0  0  0
 16 24  1  0  0  0  0
 17 22  1  0  0  0  0
 18 23  1  0  0  0  0
 18 17  2  0  0  0  0
 19 18  1  0  0  0  0
 20 19  2  0  0  0  0
 20 21  1  0  0  0  0
 21 16  2  0  0  0  0
 24 26  1  0  0  0  0
 25 24  2  0  0  0  0
 26 27  1  0  0  0  0
 26 28  1  0  0  0  0
 27 28  1  0  0  0  0
M  END
>  <minimizedAffinity>
-5.10522795

$$$$

 OpenBabel03252504013D

 28 31  0  0  0  0  0  0  0  0999 V2000
   35.8350   29.2650   37.1300 C   0  0  0  0  0  0  0  0  0  0  0  0
   35.2280   29.1380   38.3800 C   0  0  0  0  0  0  0  0  0  0  0  0
   33.8740   28.9400   38.4510 C   0  0  0  0  0  0  0  0  0  0  0  0
   33.1290   28.8680   37.2970 C   0  0  0  0  0  0  0  0  0  0  0  0
   31.8220   28.6870   37.0570 N   0  0  0  0  0  0  0  0  0  0  0  0
   31.5690   28.6930   35.7370 C   0  0  0  0  0  0  0  0  0  0  0  0
   32.7660   28.8870   35.0710 C   0  0  0  0  0  0  0  0  0  0  0  0
   33.7320   28.9960   36.0530 C   0  0  0  0  0  0  0  0  0  0  0  0
   35.0920   29.1950   35.9710 C   0  0  0  0  0  0  0  0  0  0  0  0
   36.8950   29.4240   36.9670 H   0  0  0  0  0  0  0  0  0  0  0  0
   33.4130   28.8410   39.4350 H   0  0  0  0  0  0  0  0  0  0  0  0
   31.1250   28.5620   37.8210 H   0  0  0  0  0  0  0  0  0  0  0  0
   30.5630   28.5600   35.3510 H   0  0  0  0  0  0  0  0  0  0  0  0
   32.8340   28.9310   34.0100 H   0  0  0  0  0  0  0  0  0  0  0  0
   35.5240   29.2880   35.0000 H   0  0  0  0  0  0  0  0  0  0  0  0
   36.8080   28.2980   41.5600 C   0  0  0  0  0  0  0  0  0  0  0  0
   37.6890   29.3500   41.7830 C   0  0  0  0  0  0  0  0  0  0  0  0
   37.7430   30.3680   40.8260 C   0  0  0  0  0  0  0  0  0  0  0  0
   36.9380   30.2780   39.7330 N   0  0  0  0  0  0  0  0  0  0  0  0
   36.0890   29.2250   39.5580 C   0  0  0  0  0  0  0  0  0  0  0  0
   36.0290   28.2350   40.4770 N   0  0  0  0  0  0  0  0  0  0  0  0
   38.3260   29.4370   42.6320 H   0  0  0  0  0  0  0  0  0  0  0  0
   38.3970   31.2330   40.9050 H   0  0  0  0  0  0  0  0  0  0  0  0
   36.8180   27.2980   42.5930 C   0  0  0  0  0  0  0  0  0  0  0  0
   36.1340   27.3410   43.6790 O   0  0  0  0  0  0  0  0  0  0  0  0
   37.6460   26.0520   42.5310 C   0  0  0  0  0  3  0  0  0  0  0  0
   38.1580   25.5320   41.2490 C   0  0  0  0  0  2  0  0  0  0  0  0
   37.0350   24.7940   42.0380 C   0  0  0  0  0  2  0  0  0  0  0  0
  1  2  1  0  0  0  0
  2  3  2  0  0  0  0
  2 20  1  0  0  0  0
  3 11  1  0  0  0  0
  4  3  1  0  0  0  0
  5  4  1  0  0  0  0
  5 12  1  0  0  0  0
  6  5  1  0  0  0  0
  7  6  2  0  0  0  0
  7  8  1  0  0  0  0
  8  4  2  0  0  0  0
  9  8  1  0  0  0  0
  9  1  2  0  0  0  0
 10  1  1  0  0  0  0
 13  6  1  0  0  0  0
 14  7  1  0  0  0  0
 15  9  1  0  0  0  0
 16 17  1  0  0  0  0
 16 24  1  0  0  0  0
 17 22  1  0  0  0  0
 18 23  1  0  0  0  0
 18 17  2  0  0  0  0
 19 18  1  0  0  0  0
 20 19  2  0  0  0  0
 20 21  1  0  0  0  0
 21 16  2  0  0  0  0
 24 25  2  0  0  0  0
 26 24  1  0  0  0  0
 27 28  1  0  0  0  0
 27 26  1  0  0  0  0
 28 26  1  0  0  0  0
M  END
>  <minimizedAffinity>
-5.09906244

$$$$

 OpenBabel03252504013D

 28 31  0  0  0  0  0  0  0  0999 V2000
   36.3400   29.7310   36.5850 C   0  0  0  0  0  0  0  0  0  0  0  0
   35.8460   29.6570   37.8880 C   0  0  0  0  0  0  0  0  0  0  0  0
   34.6750   28.9860   38.1240 C   0  0  0  0  0  0  0  0  0  0  0  0
   34.0000   28.3950   37.0800 C   0  0  0  0  0  0  0  0  0  0  0  0
   32.8620   27.6910   37.0050 N   0  0  0  0  0  0  0  0  0  0  0  0
   32.6090   27.3180   35.7390 C   0  0  0  0  0  0  0  0  0  0  0  0
   33.6290   27.7990   34.9380 C   0  0  0  0  0  0  0  0  0  0  0  0
   34.4910   28.4700   35.7840 C   0  0  0  0  0  0  0  0  0  0  0  0
   35.6670   29.1420   35.5360 C   0  0  0  0  0  0  0  0  0  0  0  0
   37.2540   30.2370   36.2950 H   0  0  0  0  0  0  0  0  0  0  0  0
   34.3010   28.9350   39.1470 H   0  0  0  0  0  0  0  0  0  0  0  0
   32.2770   27.4800   37.8410 H   0  0  0  0  0  0  0  0  0  0  0  0
   31.7270   26.7380   35.4820 H   0  0  0  0  0  0  0  0  0  0  0  0
   33.6610   27.6370   33.8860 H   0  0  0  0  0  0  0  0  0  0  0  0
   36.0170   29.1800   34.5300 H   0  0  0  0  0  0  0  0  0  0  0  0
   37.6910   30.1650   40.9950 C   0  0  0  0  0  0  0  0  0  0  0  0
   38.0800   31.4980   40.9380 C   0  0  0  0  0  0  0  0  0  0  0  0
   37.7020   32.2390   39.8130 C   0  0  0  0  0  0  0  0  0  0  0  0
   36.9810   31.6220   38.8390 N   0  0  0  0  0  0  0  0  0  0  0  0
   36.6220   30.3100   38.9410 C   0  0  0  0  0  0  0  0  0  0  0  0
   36.9820   29.5850   40.0230 N   0  0  0  0  0  0  0  0  0  0  0  0
   38.6440   31.9980   41.6900 H   0  0  0  0  0  0  0  0  0  0  0  0
   37.9560   33.2870   39.6710 H   0  0  0  0  0  0  0  0  0  0  0  0
   38.1200   29.4810   42.1850 C   0  0  0  0  0  0  0  0  0  0  0  0
   38.8280   29.9940   43.1240 O   0  0  0  0  0  0  0  0  0  0  0  0
   37.7880   28.0520   42.4830 C   0  0  0  0  0  3  0  0  0  0  0  0
   37.0120   27.6760   43.6790 C   0  0  0  0  0  2  0  0  0  0  0  0
   38.5290   27.3390   43.5520 C   0  0  0  0  0  2  0  0  0  0  0  0
  1  2  1  0  0  0  0
  2  3  2  0  0  0  0
  2 20  1  0  0  0  0
  3 11  1  0  0  0  0
  4  3  1  0  0  0  0
  5  4  1  0  0  0  0
  5 12  1  0  0  0  0
  6  5  1  0  0  0  0
  7  6  2  0  0  0  0
  7  8  1  0  0  0  0
  8  4  2  0  0  0  0
  9  8  1  0  0  0  0
  9  1  2  0  0  0  0
 10  1  1  0  0  0  0
 13  6  1  0  0  0  0
 14  7  1  0  0  0  0
 15  9  1  0  0  0  0
 16 24  1  0  0  0  0
 17 16  1  0  0  0  0
 17 22  1  0  0  0  0
 18 17  2  0  0  0  0
 19 20  2  0  0  0  0
 19 18  1  0  0  0  0
 20 21  1  0  0  0  0
 21 16  2  0  0  0  0
 23 18  1  0  0  0  0
 24 26  1  0  0  0  0
 24 25  2  0  0  0  0
 26 28  1  0  0  0  0
 26 27  1  0  0  0  0
 28 27  1  0  0  0  0
M  END
>  <minimizedAffinity>
-5.0490303

$$$$
