
 OpenBabel03252500303D

 22 24  0  0  1  0  0  0  0  0999 V2000
   37.6850   28.5110   43.6800 C   0  0  1  0  0  0  0  0  0  0  0  0
   36.5730   27.5890   43.6750 C   0  0  0  0  0  0  0  0  0  0  0  0
   37.8960   27.0420   43.3090 C   0  0  1  0  0  0  0  0  0  0  0  0
   38.2360   28.7970   44.6220 H   0  0  0  0  0  0  0  0  0  0  0  0
   36.1160   27.3580   44.6690 H   0  0  0  0  0  0  0  0  0  0  0  0
   35.7900   27.6920   42.8970 H   0  0  0  0  0  0  0  0  0  0  0  0
   38.3450   26.4000   44.1230 H   0  0  0  0  0  0  0  0  0  0  0  0
   39.1650   30.1620   42.5050 C   0  0  0  0  0  0  0  0  0  0  0  0
   37.8950   29.5150   42.6180 C   0  0  0  0  0  0  0  0  0  0  0  0
   36.9100   29.8820   41.7210 C   0  0  0  0  0  0  0  0  0  0  0  0
   37.1920   30.8250   40.7930 N   0  0  0  0  0  0  0  0  0  0  0  0
   38.4110   31.4340   40.6990 C   0  0  0  0  0  0  0  0  0  0  0  0
   39.4150   31.1030   41.5640 N   0  0  0  0  0  0  0  0  0  0  0  0
   39.9640   29.9020   43.1890 H   0  0  0  0  0  0  0  0  0  0  0  0
   35.9340   29.4170   41.7720 H   0  0  0  0  0  0  0  0  0  0  0  0
   38.4820   32.1700   39.9020 H   0  0  0  0  0  0  0  0  0  0  0  0
   38.2550   26.6720   41.9330 C   0  0  0  0  0  0  0  0  0  0  0  0
   39.3540   26.3700   41.9100 H   0  0  0  0  0  0  0  0  0  0  0  0
   38.2480   27.6420   41.3310 H   0  0  0  0  0  0  0  0  0  0  0  0
   37.4440   25.6870   41.1900 C   0  0  0  0  0  3  0  0  0  0  0  0
   36.8810   24.4500   41.7200 C   0  0  0  0  0  2  0  0  0  0  0  0
   38.1920   24.3240   40.9820 C   0  0  0  0  0  2  0  0  0  0  0  0
  1  4  1  1  0  0  0
  2  1  1  0  0  0  0
  2  5  1  0  0  0  0
  3  2  1  0  0  0  0
  3  1  1  0  0  0  0
  3  7  1  1  0  0  0
  6  2  1  0  0  0  0
  8  9  1  0  0  0  0
  8 14  1  0  0  0  0
  9  1  1  0  0  0  0
 10 15  1  0  0  0  0
 10  9  2  0  0  0  0
 11 10  1  0  0  0  0
 12 11  2  0  0  0  0
 12 13  1  0  0  0  0
 13  8  2  0  0  0  0
 16 12  1  0  0  0  0
 17  3  1  0  0  0  0
 18 17  1  0  0  0  0
 19 17  1  0  0  0  0
 20 21  1  0  0  0  0
 20 17  1  0  0  0  0
 22 20  1  0  0  0  0
 22 21  1  0  0  0  0
M  END
>  <minimizedAffinity>
-4.1557703

$$$$

 OpenBabel03252500303D

 22 24  0  0  1  0  0  0  0  0999 V2000
   39.6620   24.5930   43.1190 C   0  0  1  0  0  0  0  0  0  0  0  0
   40.9420   25.2610   43.0950 C   0  0  0  0  0  0  0  0  0  0  0  0
   39.8100   26.0080   43.6800 C   0  0  1  0  0  0  0  0  0  0  0  0
   39.3790   23.8460   43.9160 H   0  0  0  0  0  0  0  0  0  0  0  0
   41.7390   24.8300   43.7500 H   0  0  0  0  0  0  0  0  0  0  0  0
   41.3650   25.5820   42.1220 H   0  0  0  0  0  0  0  0  0  0  0  0
   39.8640   26.0770   44.8060 H   0  0  0  0  0  0  0  0  0  0  0  0
   37.4250   24.1810   42.0600 C   0  0  0  0  0  0  0  0  0  0  0  0
   38.8250   24.4240   41.9140 C   0  0  0  0  0  0  0  0  0  0  0  0
   39.3350   24.4730   40.6300 C   0  0  0  0  0  0  0  0  0  0  0  0
   38.4910   24.2890   39.5870 N   0  0  0  0  0  0  0  0  0  0  0  0
   37.1550   24.0580   39.7450 C   0  0  0  0  0  0  0  0  0  0  0  0
   36.6080   24.0010   40.9960 N   0  0  0  0  0  0  0  0  0  0  0  0
   36.9860   24.1360   43.0500 H   0  0  0  0  0  0  0  0  0  0  0  0
   40.3900   24.6540   40.4750 H   0  0  0  0  0  0  0  0  0  0  0  0
   36.6110   23.9310   38.8110 H   0  0  0  0  0  0  0  0  0  0  0  0
   39.1650   27.1410   43.0020 C   0  0  0  0  0  0  0  0  0  0  0  0
   38.9120   26.8340   41.9330 H   0  0  0  0  0  0  0  0  0  0  0  0
   39.9780   27.9270   42.8510 H   0  0  0  0  0  0  0  0  0  0  0  0
   38.0070   27.8190   43.6190 C   0  0  0  0  0  3  0  0  0  0  0  0
   36.6140   27.3950   43.5500 C   0  0  0  0  0  2  0  0  0  0  0  0
   37.0410   28.4500   42.5580 C   0  0  0  0  0  2  0  0  0  0  0  0
  1  3  1  0  0  0  0
  1  4  1  1  0  0  0
  2  1  1  0  0  0  0
  2  3  1  0  0  0  0
  2  5  1  0  0  0  0
  3  7  1  1  0  0  0
  6  2  1  0  0  0  0
  8 14  1  0  0  0  0
  9  8  1  0  0  0  0
  9  1  1  0  0  0  0
 10  9  2  0  0  0  0
 11 12  2  0  0  0  0
 11 10  1  0  0  0  0
 12 13  1  0  0  0  0
 13  8  2  0  0  0  0
 15 10  1  0  0  0  0
 16 12  1  0  0  0  0
 17 20  1  0  0  0  0
 17  3  1  0  0  0  0
 18 17  1  0  0  0  0
 19 17  1  0  0  0  0
 21 20  1  0  0  0  0
 22 21  1  0  0  0  0
 22 20  1  0  0  0  0
M  END
>  <minimizedAffinity>
-4.06846809

$$$$

 OpenBabel03252500303D

 22 24  0  0  1  0  0  0  0  0999 V2000
   36.7240   25.2020   42.1960 C   0  0  1  0  0  0  0  0  0  0  0  0
   36.9430   24.3070   41.0830 C   0  0  0  0  0  0  0  0  0  0  0  0
   37.9320   24.2640   42.1800 C   0  0  1  0  0  0  0  0  0  0  0  0
   36.0120   24.9660   43.0380 H   0  0  0  0  0  0  0  0  0  0  0  0
   36.1970   23.4840   40.9550 H   0  0  0  0  0  0  0  0  0  0  0  0
   37.2330   24.7290   40.1010 H   0  0  0  0  0  0  0  0  0  0  0  0
   37.8330   23.3410   42.8230 H   0  0  0  0  0  0  0  0  0  0  0  0
   37.2410   27.3850   43.3210 C   0  0  0  0  0  0  0  0  0  0  0  0
   36.9910   26.6530   42.1190 C   0  0  0  0  0  0  0  0  0  0  0  0
   36.9960   27.3560   40.9300 C   0  0  0  0  0  0  0  0  0  0  0  0
   37.2330   28.6890   40.9620 N   0  0  0  0  0  0  0  0  0  0  0  0
   37.4700   29.3730   42.1200 C   0  0  0  0  0  0  0  0  0  0  0  0
   37.4750   28.7180   43.3190 N   0  0  0  0  0  0  0  0  0  0  0  0
   37.2470   26.8690   44.2740 H   0  0  0  0  0  0  0  0  0  0  0  0
   36.8100   26.8410   39.9970 H   0  0  0  0  0  0  0  0  0  0  0  0
   37.6440   30.4380   41.9810 H   0  0  0  0  0  0  0  0  0  0  0  0
   39.2900   24.8110   42.0530 C   0  0  0  0  0  0  0  0  0  0  0  0
   39.2340   25.8070   41.5020 H   0  0  0  0  0  0  0  0  0  0  0  0
   39.8350   24.1420   41.3060 H   0  0  0  0  0  0  0  0  0  0  0  0
   40.1560   24.9400   43.2420 C   0  0  0  0  0  3  0  0  0  0  0  0
   40.8560   26.1420   43.6800 C   0  0  0  0  0  2  0  0  0  0  0  0
   41.6640   25.1570   42.8690 C   0  0  0  0  0  2  0  0  0  0  0  0
  1  4  1  1  0  0  0
  2  3  1  0  0  0  0
  2  1  1  0  0  0  0
  3  1  1  0  0  0  0
  3  7  1  1  0  0  0
  5  2  1  0  0  0  0
  6  2  1  0  0  0  0
  8 14  1  0  0  0  0
  9  1  1  0  0  0  0
  9  8  2  0  0  0  0
 10 11  2  0  0  0  0
 10  9  1  0  0  0  0
 11 12  1  0  0  0  0
 12 13  2  0  0  0  0
 13  8  1  0  0  0  0
 15 10  1  0  0  0  0
 16 12  1  0  0  0  0
 17  3  1  0  0  0  0
 17 20  1  0  0  0  0
 18 17  1  0  0  0  0
 19 17  1  0  0  0  0
 20 21  1  0  0  0  0
 22 20  1  0  0  0  0
 22 21  1  0  0  0  0
M  END
>  <minimizedAffinity>
-4.03088236

$$$$

 OpenBabel03252500303D

 22 24  0  0  1  0  0  0  0  0999 V2000
   38.1600   27.4080   43.2330 C   0  0  1  0  0  0  0  0  0  0  0  0
   36.8240   27.7250   43.6800 C   0  0  0  0  0  0  0  0  0  0  0  0
   36.9500   27.0750   42.3590 C   0  0  1  0  0  0  0  0  0  0  0  0
   38.7110   26.4820   43.5680 H   0  0  0  0  0  0  0  0  0  0  0  0
   36.4470   27.1530   44.5630 H   0  0  0  0  0  0  0  0  0  0  0  0
   36.5130   28.7870   43.7390 H   0  0  0  0  0  0  0  0  0  0  0  0
   36.6300   25.9920   42.3710 H   0  0  0  0  0  0  0  0  0  0  0  0
   38.8270   29.8130   42.9710 C   0  0  0  0  0  0  0  0  0  0  0  0
   39.1000   28.4300   42.7310 C   0  0  0  0  0  0  0  0  0  0  0  0
   40.2410   28.1190   42.0160 C   0  0  0  0  0  0  0  0  0  0  0  0
   41.0330   29.1280   41.5820 N   0  0  0  0  0  0  0  0  0  0  0  0
   40.7570   30.4440   41.8200 C   0  0  0  0  0  0  0  0  0  0  0  0
   39.6400   30.7980   42.5230 N   0  0  0  0  0  0  0  0  0  0  0  0
   37.9430   30.0980   43.5280 H   0  0  0  0  0  0  0  0  0  0  0  0
   40.4840   27.0850   41.8120 H   0  0  0  0  0  0  0  0  0  0  0  0
   41.4890   31.1350   41.4070 H   0  0  0  0  0  0  0  0  0  0  0  0
   36.7350   27.7900   41.0930 C   0  0  0  0  0  0  0  0  0  0  0  0
   36.7630   27.0370   40.2370 H   0  0  0  0  0  0  0  0  0  0  0  0
   37.6770   28.4090   40.9130 H   0  0  0  0  0  0  0  0  0  0  0  0
   35.5780   28.6930   40.9330 C   0  0  0  0  0  3  0  0  0  0  0  0
   35.1010   29.2790   39.6860 C   0  0  0  0  0  2  0  0  0  0  0  0
   36.0000   30.1490   40.5310 C   0  0  0  0  0  2  0  0  0  0  0  0
  1  4  1  1  0  0  0
  1  2  1  0  0  0  0
  2  6  1  0  0  0  0
  2  5  1  0  0  0  0
  3  7  1  6  0  0  0
  3  1  1  0  0  0  0
  3  2  1  0  0  0  0
  8 14  1  0  0  0  0
  9  8  1  0  0  0  0
  9  1  1  0  0  0  0
 10  9  2  0  0  0  0
 11 12  2  0  0  0  0
 11 10  1  0  0  0  0
 12 13  1  0  0  0  0
 13  8  2  0  0  0  0
 15 10  1  0  0  0  0
 16 12  1  0  0  0  0
 17  3  1  0  0  0  0
 18 17  1  0  0  0  0
 19 17  1  0  0  0  0
 20 17  1  0  0  0  0
 21 22  1  0  0  0  0
 21 20  1  0  0  0  0
 22 20  1  0  0  0  0
M  END
>  <minimizedAffinity>
-3.96573186

$$$$

 OpenBabel03252500303D

 22 24  0  0  1  0  0  0  0  0999 V2000
   36.2230   27.6030   39.6330 C   0  0  1  0  0  0  0  0  0  0  0  0
   37.1100   26.6120   39.0690 C   0  0  0  0  0  0  0  0  0  0  0  0
   36.8570   26.5320   40.5230 C   0  0  1  0  0  0  0  0  0  0  0  0
   35.1000   27.5100   39.5900 H   0  0  0  0  0  0  0  0  0  0  0  0
   36.6480   25.8730   38.3690 H   0  0  0  0  0  0  0  0  0  0  0  0
   38.1080   26.9270   38.7050 H   0  0  0  0  0  0  0  0  0  0  0  0
   36.1780   25.6750   40.8030 H   0  0  0  0  0  0  0  0  0  0  0  0
   35.8940   29.8070   40.7860 C   0  0  0  0  0  0  0  0  0  0  0  0
   36.6300   29.0040   39.8620 C   0  0  0  0  0  0  0  0  0  0  0  0
   37.6940   29.5950   39.2070 C   0  0  0  0  0  0  0  0  0  0  0  0
   37.9810   30.8920   39.4700 N   0  0  0  0  0  0  0  0  0  0  0  0
   37.2660   31.6460   40.3560 C   0  0  0  0  0  0  0  0  0  0  0  0
   36.2060   31.1020   41.0260 N   0  0  0  0  0  0  0  0  0  0  0  0
   35.0530   29.3800   41.3200 H   0  0  0  0  0  0  0  0  0  0  0  0
   38.2780   29.0230   38.4990 H   0  0  0  0  0  0  0  0  0  0  0  0
   37.6190   32.6690   40.4590 H   0  0  0  0  0  0  0  0  0  0  0  0
   37.8590   26.9090   41.5300 C   0  0  0  0  0  0  0  0  0  0  0  0
   38.2620   27.9450   41.2780 H   0  0  0  0  0  0  0  0  0  0  0  0
   38.7630   26.2360   41.3470 H   0  0  0  0  0  0  0  0  0  0  0  0
   37.5360   26.8290   42.9690 C   0  0  0  0  0  3  0  0  0  0  0  0
   36.3510   27.3720   43.6230 C   0  0  0  0  0  2  0  0  0  0  0  0
   37.5940   28.2260   43.6780 C   0  0  0  0  0  2  0  0  0  0  0  0
  1  4  1  6  0  0  0
  1  9  1  0  0  0  0
  1  3  1  0  0  0  0
  2  1  1  0  0  0  0
  2  3  1  0  0  0  0
  3  7  1  1  0  0  0
  3 17  1  0  0  0  0
  5  2  1  0  0  0  0
  6  2  1  0  0  0  0
  8 13  1  0  0  0  0
  8 14  1  0  0  0  0
  9  8  2  0  0  0  0
 10 11  2  0  0  0  0
 10  9  1  0  0  0  0
 11 12  1  0  0  0  0
 12 16  1  0  0  0  0
 12 13  2  0  0  0  0
 15 10  1  0  0  0  0
 17 20  1  0  0  0  0
 18 17  1  0  0  0  0
 19 17  1  0  0  0  0
 20 21  1  0  0  0  0
 20 22  1  0  0  0  0
 21 22  1  0  0  0  0
M  END
>  <minimizedAffinity>
-3.87756586

$$$$

 OpenBabel03252500303D

 22 24  0  0  1  0  0  0  0  0999 V2000
   36.1730   27.7390   39.4040 C   0  0  1  0  0  0  0  0  0  0  0  0
   37.1140   26.8250   38.7990 C   0  0  0  0  0  0  0  0  0  0  0  0
   36.7910   26.6060   40.2240 C   0  0  1  0  0  0  0  0  0  0  0  0
   35.0560   27.6260   39.2930 H   0  0  0  0  0  0  0  0  0  0  0  0
   36.7070   26.1440   38.0110 H   0  0  0  0  0  0  0  0  0  0  0  0
   38.1200   27.1950   38.5170 H   0  0  0  0  0  0  0  0  0  0  0  0
   36.1220   25.7120   40.3900 H   0  0  0  0  0  0  0  0  0  0  0  0
   37.6310   29.7630   39.1300 C   0  0  0  0  0  0  0  0  0  0  0  0
   36.5310   29.1220   39.7790 C   0  0  0  0  0  0  0  0  0  0  0  0
   35.8570   29.8380   40.7500 C   0  0  0  0  0  0  0  0  0  0  0  0
   36.2690   31.0950   41.0370 N   0  0  0  0  0  0  0  0  0  0  0  0
   37.3240   31.6920   40.4080 C   0  0  0  0  0  0  0  0  0  0  0  0
   38.0180   31.0230   39.4410 N   0  0  0  0  0  0  0  0  0  0  0  0
   38.1850   29.2370   38.3620 H   0  0  0  0  0  0  0  0  0  0  0  0
   35.0180   29.3890   41.2660 H   0  0  0  0  0  0  0  0  0  0  0  0
   37.5310   32.7040   40.7490 H   0  0  0  0  0  0  0  0  0  0  0  0
   37.7310   26.9110   41.3120 C   0  0  0  0  0  0  0  0  0  0  0  0
   38.0890   27.9870   41.1980 H   0  0  0  0  0  0  0  0  0  0  0  0
   38.6760   26.3080   41.0950 H   0  0  0  0  0  0  0  0  0  0  0  0
   37.3560   26.6490   42.7160 C   0  0  0  0  0  3  0  0  0  0  0  0
   36.3490   27.3640   43.4920 C   0  0  0  0  0  2  0  0  0  0  0  0
   37.7780   27.8120   43.6790 C   0  0  0  0  0  2  0  0  0  0  0  0
  1  4  1  6  0  0  0
  1  9  1  0  0  0  0
  1  3  1  0  0  0  0
  2  1  1  0  0  0  0
  2  3  1  0  0  0  0
  3  7  1  1  0  0  0
  3 17  1  0  0  0  0
  5  2  1  0  0  0  0
  6  2  1  0  0  0  0
  8 13  2  0  0  0  0
  8  9  1  0  0  0  0
  9 10  2  0  0  0  0
 10 11  1  0  0  0  0
 10 15  1  0  0  0  0
 12 16  1  0  0  0  0
 12 11  2  0  0  0  0
 13 12  1  0  0  0  0
 14  8  1  0  0  0  0
 17 20  1  0  0  0  0
 18 17  1  0  0  0  0
 19 17  1  0  0  0  0
 20 21  1  0  0  0  0
 20 22  1  0  0  0  0
 21 22  1  0  0  0  0
M  END
>  <minimizedAffinity>
-3.86845946

$$$$

 OpenBabel03252500303D

 22 24  0  0  1  0  0  0  0  0999 V2000
   37.3490   28.4370   42.9650 C   0  0  1  0  0  0  0  0  0  0  0  0
   36.5680   27.4540   43.6800 C   0  0  0  0  0  0  0  0  0  0  0  0
   37.8920   27.0250   43.1850 C   0  0  1  0  0  0  0  0  0  0  0  0
   37.9700   29.2200   43.4880 H   0  0  0  0  0  0  0  0  0  0  0  0
   36.4020   27.6480   44.7680 H   0  0  0  0  0  0  0  0  0  0  0  0
   35.6510   27.0480   43.2090 H   0  0  0  0  0  0  0  0  0  0  0  0
   38.6580   26.9270   44.0100 H   0  0  0  0  0  0  0  0  0  0  0  0
   38.0490   29.5140   40.8100 C   0  0  0  0  0  0  0  0  0  0  0  0
   37.0490   28.8400   41.5770 C   0  0  0  0  0  0  0  0  0  0  0  0
   35.8270   28.6120   40.9720 C   0  0  0  0  0  0  0  0  0  0  0  0
   35.6410   29.0330   39.7000 N   0  0  0  0  0  0  0  0  0  0  0  0
   36.6080   29.6770   38.9810 C   0  0  0  0  0  0  0  0  0  0  0  0
   37.8310   29.9230   39.5380 N   0  0  0  0  0  0  0  0  0  0  0  0
   39.0210   29.7110   41.2470 H   0  0  0  0  0  0  0  0  0  0  0  0
   35.0420   28.1050   41.5180 H   0  0  0  0  0  0  0  0  0  0  0  0
   36.3060   29.9520   37.9730 H   0  0  0  0  0  0  0  0  0  0  0  0
   38.0630   26.1140   42.0450 C   0  0  0  0  0  0  0  0  0  0  0  0
   39.1720   25.8790   41.9260 H   0  0  0  0  0  0  0  0  0  0  0  0
   37.8340   26.7270   41.1100 H   0  0  0  0  0  0  0  0  0  0  0  0
   37.2710   24.8700   41.9590 C   0  0  0  0  0  3  0  0  0  0  0  0
   37.5820   23.6980   41.1480 C   0  0  0  0  0  2  0  0  0  0  0  0
   36.5980   24.6790   40.5560 C   0  0  0  0  0  2  0  0  0  0  0  0
  1  3  1  0  0  0  0
  1  4  1  1  0  0  0
  1  2  1  0  0  0  0
  2  5  1  0  0  0  0
  3  2  1  0  0  0  0
  3  7  1  1  0  0  0
  6  2  1  0  0  0  0
  8 14  1  0  0  0  0
  8  9  1  0  0  0  0
  9  1  1  0  0  0  0
 10 15  1  0  0  0  0
 10  9  2  0  0  0  0
 11 10  1  0  0  0  0
 12 13  1  0  0  0  0
 12 11  2  0  0  0  0
 13  8  2  0  0  0  0
 16 12  1  0  0  0  0
 17  3  1  0  0  0  0
 18 17  1  0  0  0  0
 19 17  1  0  0  0  0
 20 17  1  0  0  0  0
 21 20  1  0  0  0  0
 22 21  1  0  0  0  0
 22 20  1  0  0  0  0
M  END
>  <minimizedAffinity>
-3.85130215

$$$$

 OpenBabel03252500303D

 22 24  0  0  1  0  0  0  0  0999 V2000
   36.6960   31.0250   38.9440 C   0  0  1  0  0  0  0  0  0  0  0  0
   36.8410   29.5880   38.9240 C   0  0  0  0  0  0  0  0  0  0  0  0
   36.0620   30.1660   40.0390 C   0  0  1  0  0  0  0  0  0  0  0  0
   35.9230   31.5690   38.3280 H   0  0  0  0  0  0  0  0  0  0  0  0
   36.3270   29.0490   38.0900 H   0  0  0  0  0  0  0  0  0  0  0  0
   37.8360   29.1430   39.1250 H   0  0  0  0  0  0  0  0  0  0  0  0
   34.9510   29.9940   39.9340 H   0  0  0  0  0  0  0  0  0  0  0  0
   37.4820   33.2720   39.7370 C   0  0  0  0  0  0  0  0  0  0  0  0
   37.7900   31.9330   39.3420 C   0  0  0  0  0  0  0  0  0  0  0  0
   39.1200   31.5580   39.3390 C   0  0  0  0  0  0  0  0  0  0  0  0
   40.0550   32.4670   39.7040 N   0  0  0  0  0  0  0  0  0  0  0  0
   39.7430   33.7430   40.0780 C   0  0  0  0  0  0  0  0  0  0  0  0
   38.4410   34.1570   40.0970 N   0  0  0  0  0  0  0  0  0  0  0  0
   36.4520   33.6050   39.7540 H   0  0  0  0  0  0  0  0  0  0  0  0
   39.3960   30.5540   39.0460 H   0  0  0  0  0  0  0  0  0  0  0  0
   40.6040   34.3530   40.3430 H   0  0  0  0  0  0  0  0  0  0  0  0
   36.5690   30.2340   41.4170 C   0  0  0  0  0  0  0  0  0  0  0  0
   35.6960   30.4430   42.1190 H   0  0  0  0  0  0  0  0  0  0  0  0
   37.1810   31.1950   41.4830 H   0  0  0  0  0  0  0  0  0  0  0  0
   37.4040   29.1430   41.9590 C   0  0  0  0  0  3  0  0  0  0  0  0
   37.6160   28.8320   43.3680 C   0  0  0  0  0  2  0  0  0  0  0  0
   38.6790   29.6720   42.7020 C   0  0  0  0  0  2  0  0  0  0  0  0
  1  4  1  6  0  0  0
  1  9  1  0  0  0  0
  1  3  1  0  0  0  0
  2  1  1  0  0  0  0
  2  6  1  0  0  0  0
  2  3  1  0  0  0  0
  3  7  1  6  0  0  0
  3 17  1  0  0  0  0
  5  2  1  0  0  0  0
  8 14  1  0  0  0  0
  8 13  1  0  0  0  0
  9  8  2  0  0  0  0
 10  9  1  0  0  0  0
 10 11  2  0  0  0  0
 11 12  1  0  0  0  0
 12 13  2  0  0  0  0
 12 16  1  0  0  0  0
 15 10  1  0  0  0  0
 17 19  1  0  0  0  0
 17 20  1  0  0  0  0
 17 18  1  0  0  0  0
 20 22  1  0  0  0  0
 20 21  1  0  0  0  0
 22 21  1  0  0  0  0
M  END
>  <minimizedAffinity>
-3.84363222

$$$$

 OpenBabel03252500303D

 22 24  0  0  1  0  0  0  0  0999 V2000
   35.8270   30.2160   40.4740 C   0  0  1  0  0  0  0  0  0  0  0  0
   35.0150   29.2880   39.7230 C   0  0  0  0  0  0  0  0  0  0  0  0
   35.5090   28.8310   41.0380 C   0  0  1  0  0  0  0  0  0  0  0  0
   35.3860   31.0440   41.1000 H   0  0  0  0  0  0  0  0  0  0  0  0
   33.9420   29.5680   39.5830 H   0  0  0  0  0  0  0  0  0  0  0  0
   35.4260   28.8370   38.7980 H   0  0  0  0  0  0  0  0  0  0  0  0
   34.7000   28.8070   41.8260 H   0  0  0  0  0  0  0  0  0  0  0  0
   37.6970   30.2730   38.8010 C   0  0  0  0  0  0  0  0  0  0  0  0
   37.2350   30.5040   40.1330 C   0  0  0  0  0  0  0  0  0  0  0  0
   38.1520   30.9780   41.0530 C   0  0  0  0  0  0  0  0  0  0  0  0
   39.4260   31.1950   40.6510 N   0  0  0  0  0  0  0  0  0  0  0  0
   39.8500   30.9680   39.3730 C   0  0  0  0  0  0  0  0  0  0  0  0
   38.9790   30.5010   38.4300 N   0  0  0  0  0  0  0  0  0  0  0  0
   37.0090   29.9020   38.0490 H   0  0  0  0  0  0  0  0  0  0  0  0
   37.8440   31.1650   42.0730 H   0  0  0  0  0  0  0  0  0  0  0  0
   40.9010   31.1920   39.2050 H   0  0  0  0  0  0  0  0  0  0  0  0
   36.5760   27.8320   41.1880 C   0  0  0  0  0  0  0  0  0  0  0  0
   37.5010   28.1970   40.6290 H   0  0  0  0  0  0  0  0  0  0  0  0
   36.2530   26.9260   40.5740 H   0  0  0  0  0  0  0  0  0  0  0  0
   36.9560   27.3430   42.5280 C   0  0  0  0  0  3  0  0  0  0  0  0
   37.3220   28.1600   43.6800 C   0  0  0  0  0  2  0  0  0  0  0  0
   38.4650   27.6080   42.8620 C   0  0  0  0  0  2  0  0  0  0  0  0
  1  3  1  0  0  0  0
  1  4  1  1  0  0  0
  2  1  1  0  0  0  0
  2  3  1  0  0  0  0
  3 17  1  0  0  0  0
  3  7  1  1  0  0  0
  5  2  1  0  0  0  0
  6  2  1  0  0  0  0
  8  9  1  0  0  0  0
  9  1  1  0  0  0  0
  9 10  2  0  0  0  0
 10 15  1  0  0  0  0
 11 10  1  0  0  0  0
 12 11  2  0  0  0  0
 13  8  2  0  0  0  0
 13 12  1  0  0  0  0
 14  8  1  0  0  0  0
 16 12  1  0  0  0  0
 17 20  1  0  0  0  0
 18 17  1  0  0  0  0
 19 17  1  0  0  0  0
 20 22  1  0  0  0  0
 20 21  1  0  0  0  0
 22 21  1  0  0  0  0
M  END
>  <minimizedAffinity>
-3.7777226

$$$$
