
 OpenBabel03242523423D

 18 19  0  0  1  0  0  0  0  0999 V2000
   45.9180   35.4200   42.8230 C   0  0  0  0  0  0  0  0  0  0  0  0
   47.1660   34.8200   42.6120 C   0  0  0  0  0  0  0  0  0  0  0  0
   47.5400   33.8200   43.5100 C   0  0  0  0  0  0  0  0  0  0  0  0
   46.6880   33.4960   44.5190 N   0  0  0  0  0  0  0  0  0  0  0  0
   45.4930   34.1020   44.6820 C   0  0  0  0  0  0  0  0  0  0  0  0
   45.1000   35.0760   43.8260 N   0  0  0  0  0  0  0  0  0  0  0  0
   45.5280   36.2120   42.1800 H   0  0  0  0  0  0  0  0  0  0  0  0
   48.4830   33.3530   43.3690 H   0  0  0  0  0  0  0  0  0  0  0  0
   44.9980   33.6690   45.5520 H   0  0  0  0  0  0  0  0  0  0  0  0
   47.9730   35.2510   41.4990 C   0  0  1  0  0  0  0  0  0  0  0  0
   47.5000   36.1010   40.9960 H   0  0  0  0  0  0  0  0  0  0  0  0
   49.3680   35.5550   42.0020 C   0  0  0  0  0  0  0  0  0  0  0  0
   49.7250   34.8290   42.7340 H   0  0  0  0  0  0  0  0  0  0  0  0
   50.0540   35.7170   41.1370 H   0  0  0  0  0  0  0  0  0  0  0  0
   49.3000   36.5800   42.4700 H   0  0  0  0  0  0  0  0  0  0  0  0
   48.1090   34.0450   40.5640 C   0  0  0  0  0  0  0  0  0  0  0  0
   46.9380   33.6190   39.7590 C   0  0  0  0  0  0  0  0  0  0  0  0
   48.0880   34.2820   39.0840 C   0  0  0  0  0  0  0  0  0  0  0  0
  1  6  1  0  0  0  0
  2  1  2  0  0  0  0
  2  3  1  0  0  0  0
  3  4  2  0  0  0  0
  4  5  1  0  0  0  0
  5  9  1  0  0  0  0
  6  5  2  0  0  0  0
  7  1  1  0  0  0  0
  8  3  1  0  0  0  0
 10 11  1  6  0  0  0
 10 12  1  0  0  0  0
 10  2  1  0  0  0  0
 12 15  1  0  0  0  0
 12 13  1  0  0  0  0
 14 12  1  0  0  0  0
 16 10  1  0  0  0  0
 17 16  1  0  0  0  0
 18 17  1  0  0  0  0
 18 16  1  0  0  0  0
M  END
>  <minimizedAffinity>
-3.92496943

>  <minimizedRMSD>
1.36936498

$$$$
