
 OpenBabel03242512553D

 23 24  0  0  0  0  0  0  0  0999 V2000
   35.4980   29.2710   40.6650 C   0  0  0  0  0  0  0  0  0  0  0  0
   35.3060   29.3130   39.5540 H   0  0  0  0  0  0  0  0  0  0  0  0
   34.5040   29.0370   41.1210 H   0  0  0  0  0  0  0  0  0  0  0  0
   36.8230   27.9030   42.2440 C   0  0  0  0  0  3  0  0  0  0  0  0
   36.3660   28.1240   41.0100 C   0  0  0  0  0  3  0  0  0  0  0  0
   37.6690   26.7490   42.4830 C   0  0  0  0  0  0  0  0  0  0  0  0
   37.2110   25.5070   42.0140 C   0  0  0  0  0  0  0  0  0  0  0  0
   37.9680   24.3490   42.2050 C   0  0  0  0  0  0  0  0  0  0  0  0
   39.1510   24.5000   42.8600 N   0  0  0  0  0  0  0  0  0  0  0  0
   39.5810   25.7100   43.3090 C   0  0  0  0  0  0  0  0  0  0  0  0
   38.8450   26.8170   43.1200 N   0  0  0  0  0  0  0  0  0  0  0  0
   36.2850   25.3430   41.4930 H   0  0  0  0  0  0  0  0  0  0  0  0
   37.6860   23.3770   41.8780 H   0  0  0  0  0  0  0  0  0  0  0  0
   40.5270   25.7930   43.8270 H   0  0  0  0  0  0  0  0  0  0  0  0
   35.9370   30.4470   41.1950 O   0  0  0  0  0  0  0  0  0  0  0  0
   36.6490   30.8890   38.7680 O   0  0  0  0  0  0  0  0  0  0  0  0
   36.9810   31.2970   40.1940 P   0  0  1  0  0  0  0  0  0  0  0  0
   36.8420   32.9480   40.3950 O   0  0  0  0  0  0  0  0  0  0  0  0
   35.8950   33.2420   40.3550 H   0  0  0  0  0  0  0  0  0  0  0  0
   38.6030   30.8720   40.4570 O   0  0  0  0  0  0  0  0  0  0  0  0
   39.2360   31.9520   41.0560 C   0  0  0  0  0  3  0  0  0  0  0  0
   40.4070   32.5690   40.3470 C   0  0  0  0  0  2  0  0  0  0  0  0
   40.6600   31.6600   41.4970 C   0  0  0  0  0  2  0  0  0  0  0  0
  1  5  1  0  0  0  0
  1  3  1  0  0  0  0
  1 15  1  0  0  0  0
  2  1  1  0  0  0  0
  4  6  1  0  0  0  0
  5  4  2  0  0  0  0
  6 11  1  0  0  0  0
  7  8  1  0  0  0  0
  7  6  2  0  0  0  0
  8  9  2  0  0  0  0
  9 10  1  0  0  0  0
 10 14  1  0  0  0  0
 11 10  2  0  0  0  0
 12  7  1  0  0  0  0
 13  8  1  0  0  0  0
 17 16  2  6  0  0  0
 17 18  1  0  0  0  0
 17 20  1  0  0  0  0
 17 15  1  0  0  0  0
 19 18  1  0  0  0  0
 20 21  1  0  0  0  0
 21 23  1  0  0  0  0
 22 21  1  0  0  0  0
 22 23  1  0  0  0  0
M  END
>  <minimizedAffinity>
-4.49053526

$$$$

 OpenBabel03242512553D

 23 24  0  0  0  0  0  0  0  0999 V2000
   35.5760   29.2990   40.7380 C   0  0  0  0  0  0  0  0  0  0  0  0
   35.3780   29.3330   39.6280 H   0  0  0  0  0  0  0  0  0  0  0  0
   34.5830   29.0770   41.2020 H   0  0  0  0  0  0  0  0  0  0  0  0
   36.9580   27.9710   42.3040 C   0  0  0  0  0  3  0  0  0  0  0  0
   36.4360   28.1480   41.0870 C   0  0  0  0  0  3  0  0  0  0  0  0
   37.7910   26.8090   42.5490 C   0  0  0  0  0  0  0  0  0  0  0  0
   38.9420   26.9960   43.3310 C   0  0  0  0  0  0  0  0  0  0  0  0
   39.7950   25.9260   43.6120 C   0  0  0  0  0  0  0  0  0  0  0  0
   39.4450   24.7200   43.0890 N   0  0  0  0  0  0  0  0  0  0  0  0
   38.3270   24.5550   42.3320 C   0  0  0  0  0  0  0  0  0  0  0  0
   37.5130   25.5900   42.0690 N   0  0  0  0  0  0  0  0  0  0  0  0
   39.2550   27.9290   43.7620 H   0  0  0  0  0  0  0  0  0  0  0  0
   40.6810   25.9920   44.1950 H   0  0  0  0  0  0  0  0  0  0  0  0
   38.0800   23.5800   41.9320 H   0  0  0  0  0  0  0  0  0  0  0  0
   36.0280   30.4760   41.2550 O   0  0  0  0  0  0  0  0  0  0  0  0
   36.7390   30.8320   38.8150 O   0  0  0  0  0  0  0  0  0  0  0  0
   37.0280   31.3350   40.2190 P   0  0  1  0  0  0  0  0  0  0  0  0
   36.7820   32.9830   40.3290 O   0  0  0  0  0  0  0  0  0  0  0  0
   35.8190   33.2130   40.2660 H   0  0  0  0  0  0  0  0  0  0  0  0
   38.6700   31.0300   40.5180 O   0  0  0  0  0  0  0  0  0  0  0  0
   39.1420   30.2010   39.5090 C   0  0  0  0  0  3  0  0  0  0  0  0
   39.8200   28.9200   39.9040 C   0  0  0  0  0  2  0  0  0  0  0  0
   40.6550   30.0750   39.4770 C   0  0  0  0  0  2  0  0  0  0  0  0
  1  5  1  0  0  0  0
  1  3  1  0  0  0  0
  1 15  1  0  0  0  0
  2  1  1  0  0  0  0
  4  6  1  0  0  0  0
  5  4  2  0  0  0  0
  6  7  1  0  0  0  0
  7  8  2  0  0  0  0
  7 12  1  0  0  0  0
  8 13  1  0  0  0  0
  9  8  1  0  0  0  0
 10  9  2  0  0  0  0
 11 10  1  0  0  0  0
 11  6  2  0  0  0  0
 14 10  1  0  0  0  0
 17 16  2  6  0  0  0
 17 18  1  0  0  0  0
 17 20  1  0  0  0  0
 17 15  1  0  0  0  0
 19 18  1  0  0  0  0
 21 22  1  0  0  0  0
 21 20  1  0  0  0  0
 23 21  1  0  0  0  0
 23 22  1  0  0  0  0
M  END
>  <minimizedAffinity>
-4.30065536

$$$$

 OpenBabel03242512553D

 23 24  0  0  0  0  0  0  0  0999 V2000
   35.7350   29.9420   40.3380 C   0  0  0  0  0  0  0  0  0  0  0  0
   35.9910   30.0200   39.2420 H   0  0  0  0  0  0  0  0  0  0  0  0
   34.6170   29.9410   40.3730 H   0  0  0  0  0  0  0  0  0  0  0  0
   36.7050   27.6750   40.1420 C   0  0  0  0  0  3  0  0  0  0  0  0
   36.1450   28.6320   40.8860 C   0  0  0  0  0  3  0  0  0  0  0  0
   37.0720   26.4210   40.7710 C   0  0  0  0  0  0  0  0  0  0  0  0
   38.0070   26.4760   41.8180 C   0  0  0  0  0  0  0  0  0  0  0  0
   38.4120   25.3120   42.4760 C   0  0  0  0  0  0  0  0  0  0  0  0
   37.8550   24.1480   42.0440 N   0  0  0  0  0  0  0  0  0  0  0  0
   36.9510   24.1110   41.0280 C   0  0  0  0  0  0  0  0  0  0  0  0
   36.5680   25.2360   40.4030 N   0  0  0  0  0  0  0  0  0  0  0  0
   38.4710   27.3710   42.1900 H   0  0  0  0  0  0  0  0  0  0  0  0
   39.1130   25.2770   43.2740 H   0  0  0  0  0  0  0  0  0  0  0  0
   36.5280   23.1660   40.7100 H   0  0  0  0  0  0  0  0  0  0  0  0
   36.1780   30.9930   41.0850 O   0  0  0  0  0  0  0  0  0  0  0  0
   37.7710   31.1460   39.0770 O   0  0  0  0  0  0  0  0  0  0  0  0
   37.3970   31.8830   40.3530 P   0  0  1  0  0  0  0  0  0  0  0  0
   36.9220   33.4490   40.0250 O   0  0  0  0  0  0  0  0  0  0  0  0
   36.0470   33.4750   39.5550 H   0  0  0  0  0  0  0  0  0  0  0  0
   38.7980   31.9500   41.3060 O   0  0  0  0  0  0  0  0  0  0  0  0
   39.2850   30.6560   41.4430 C   0  0  0  0  0  3  0  0  0  0  0  0
   39.0720   29.9550   42.7540 C   0  0  0  0  0  2  0  0  0  0  0  0
   40.4110   30.5300   42.4540 C   0  0  0  0  0  2  0  0  0  0  0  0
  1  3  1  0  0  0  0
  1  5  1  0  0  0  0
  1 15  1  0  0  0  0
  2  1  1  0  0  0  0
  4  6  1  0  0  0  0
  4  5  2  0  0  0  0
  6  7  1  0  0  0  0
  7 12  1  0  0  0  0
  7  8  2  0  0  0  0
  8 13  1  0  0  0  0
  9  8  1  0  0  0  0
 10  9  2  0  0  0  0
 11  6  2  0  0  0  0
 11 10  1  0  0  0  0
 14 10  1  0  0  0  0
 17 16  2  6  0  0  0
 17 15  1  0  0  0  0
 17 20  1  0  0  0  0
 18 17  1  0  0  0  0
 19 18  1  0  0  0  0
 20 21  1  0  0  0  0
 21 23  1  0  0  0  0
 21 22  1  0  0  0  0
 23 22  1  0  0  0  0
M  END
>  <minimizedAffinity>
-4.26044321

$$$$

 OpenBabel03242512553D

 23 24  0  0  0  0  0  0  0  0999 V2000
   36.0620   29.3790   39.0120 C   0  0  0  0  0  0  0  0  0  0  0  0
   35.4750   29.4720   38.0530 H   0  0  0  0  0  0  0  0  0  0  0  0
   35.3430   29.6650   39.8200 H   0  0  0  0  0  0  0  0  0  0  0  0
   36.4670   27.4560   40.5150 C   0  0  0  0  0  3  0  0  0  0  0  0
   36.4140   27.9690   39.2830 C   0  0  0  0  0  3  0  0  0  0  0  0
   36.8220   26.0600   40.6790 C   0  0  0  0  0  0  0  0  0  0  0  0
   37.4180   25.6860   41.8950 C   0  0  0  0  0  0  0  0  0  0  0  0
   37.7890   24.3600   42.1300 C   0  0  0  0  0  0  0  0  0  0  0  0
   37.5420   23.4750   41.1270 N   0  0  0  0  0  0  0  0  0  0  0  0
   36.9650   23.8530   39.9540 C   0  0  0  0  0  0  0  0  0  0  0  0
   36.6110   25.1300   39.7390 N   0  0  0  0  0  0  0  0  0  0  0  0
   37.6310   26.3510   42.7130 H   0  0  0  0  0  0  0  0  0  0  0  0
   38.2430   24.0050   43.0230 H   0  0  0  0  0  0  0  0  0  0  0  0
   36.7840   23.1220   39.1770 H   0  0  0  0  0  0  0  0  0  0  0  0
   37.1340   30.2180   39.0860 O   0  0  0  0  0  0  0  0  0  0  0  0
   36.9670   32.7120   39.6710 O   0  0  0  0  0  0  0  0  0  0  0  0
   37.0320   31.3430   40.3260 P   0  0  1  0  0  0  0  0  0  0  0  0
   35.7060   31.0820   41.3060 O   0  0  0  0  0  0  0  0  0  0  0  0
   34.8750   30.9720   40.7740 H   0  0  0  0  0  0  0  0  0  0  0  0
   38.4170   31.3380   41.3070 O   0  0  0  0  0  0  0  0  0  0  0  0
   38.7430   30.0160   41.5790 C   0  0  0  0  0  3  0  0  0  0  0  0
   38.5020   29.4990   42.9680 C   0  0  0  0  0  2  0  0  0  0  0  0
   39.8880   29.8580   42.5650 C   0  0  0  0  0  2  0  0  0  0  0  0
  1 15  1  0  0  0  0
  1  5  1  0  0  0  0
  1  3  1  0  0  0  0
  2  1  1  0  0  0  0
  4  6  1  0  0  0  0
  5  4  2  0  0  0  0
  6  7  1  0  0  0  0
  7  8  2  0  0  0  0
  7 12  1  0  0  0  0
  8 13  1  0  0  0  0
  9  8  1  0  0  0  0
 10  9  2  0  0  0  0
 11 10  1  0  0  0  0
 11  6  2  0  0  0  0
 14 10  1  0  0  0  0
 15 17  1  0  0  0  0
 17 16  2  6  0  0  0
 17 18  1  0  0  0  0
 17 20  1  0  0  0  0
 19 18  1  0  0  0  0
 20 21  1  0  0  0  0
 21 23  1  0  0  0  0
 21 22  1  0  0  0  0
 23 22  1  0  0  0  0
M  END
>  <minimizedAffinity>
-4.2018342

$$$$

 OpenBabel03242512553D

 23 24  0  0  0  0  0  0  0  0999 V2000
   36.1080   29.9890   40.9840 C   0  0  0  0  0  0  0  0  0  0  0  0
   35.7250   30.3750   41.9720 H   0  0  0  0  0  0  0  0  0  0  0  0
   35.2700   30.1600   40.2630 H   0  0  0  0  0  0  0  0  0  0  0  0
   37.7960   30.6350   39.2940 C   0  0  0  0  0  3  0  0  0  0  0  0
   37.2260   30.8190   40.4870 C   0  0  0  0  0  3  0  0  0  0  0  0
   38.8880   31.5020   38.8960 C   0  0  0  0  0  0  0  0  0  0  0  0
   39.2390   32.5390   39.7760 C   0  0  0  0  0  0  0  0  0  0  0  0
   40.2810   33.4170   39.4650 C   0  0  0  0  0  0  0  0  0  0  0  0
   40.9170   33.2050   38.2810 N   0  0  0  0  0  0  0  0  0  0  0  0
   40.5640   32.1960   37.4390 C   0  0  0  0  0  0  0  0  0  0  0  0
   39.5620   31.3580   37.7480 N   0  0  0  0  0  0  0  0  0  0  0  0
   38.7640   32.7410   40.7190 H   0  0  0  0  0  0  0  0  0  0  0  0
   40.6010   34.2220   40.0800 H   0  0  0  0  0  0  0  0  0  0  0  0
   41.0930   32.0580   36.5050 H   0  0  0  0  0  0  0  0  0  0  0  0
   36.3950   28.6560   40.9850 O   0  0  0  0  0  0  0  0  0  0  0  0
   38.7120   28.1850   41.9860 O   0  0  0  0  0  0  0  0  0  0  0  0
   37.2350   28.1430   42.3430 P   0  0  1  0  0  0  0  0  0  0  0  0
   36.9120   29.0900   43.6780 O   0  0  0  0  0  0  0  0  0  0  0  0
   37.0050   30.0570   43.4720 H   0  0  0  0  0  0  0  0  0  0  0  0
   36.8770   26.5340   42.7430 O   0  0  0  0  0  0  0  0  0  0  0  0
   37.4360   25.7160   41.7700 C   0  0  0  0  0  3  0  0  0  0  0  0
   36.7130   24.4500   41.4090 C   0  0  0  0  0  2  0  0  0  0  0  0
   37.9040   24.3700   42.2970 C   0  0  0  0  0  2  0  0  0  0  0  0
  1 15  1  0  0  0  0
  1  2  1  0  0  0  0
  3  1  1  0  0  0  0
  4  5  2  0  0  0  0
  5  1  1  0  0  0  0
  6  4  1  0  0  0  0
  6  7  1  0  0  0  0
  7 12  1  0  0  0  0
  8  7  2  0  0  0  0
  8 13  1  0  0  0  0
  9  8  1  0  0  0  0
 10 11  1  0  0  0  0
 10  9  2  0  0  0  0
 11  6  2  0  0  0  0
 14 10  1  0  0  0  0
 15 17  1  0  0  0  0
 17 16  2  6  0  0  0
 17 20  1  0  0  0  0
 17 18  1  0  0  0  0
 19 18  1  0  0  0  0
 21 23  1  0  0  0  0
 21 20  1  0  0  0  0
 22 21  1  0  0  0  0
 22 23  1  0  0  0  0
M  END
>  <minimizedAffinity>
-4.13892603

$$$$

 OpenBabel03242512553D

 23 24  0  0  0  0  0  0  0  0999 V2000
   36.2240   28.9880   38.5360 C   0  0  0  0  0  0  0  0  0  0  0  0
   36.0920   28.1250   39.2510 H   0  0  0  0  0  0  0  0  0  0  0  0
   36.9920   28.6390   37.8010 H   0  0  0  0  0  0  0  0  0  0  0  0
   34.1380   28.2330   37.4410 C   0  0  0  0  0  3  0  0  0  0  0  0
   34.9960   29.2100   37.7420 C   0  0  0  0  0  3  0  0  0  0  0  0
   32.9600   28.5500   36.6550 C   0  0  0  0  0  0  0  0  0  0  0  0
   32.0630   29.4870   37.1920 C   0  0  0  0  0  0  0  0  0  0  0  0
   30.9050   29.8460   36.4960 C   0  0  0  0  0  0  0  0  0  0  0  0
   30.7100   29.2410   35.2940 N   0  0  0  0  0  0  0  0  0  0  0  0
   31.5890   28.3340   34.7870 C   0  0  0  0  0  0  0  0  0  0  0  0
   32.6990   27.9970   35.4640 N   0  0  0  0  0  0  0  0  0  0  0  0
   32.1780   29.9880   38.1360 H   0  0  0  0  0  0  0  0  0  0  0  0
   30.1830   30.5460   36.8390 H   0  0  0  0  0  0  0  0  0  0  0  0
   31.4010   27.8720   33.8270 H   0  0  0  0  0  0  0  0  0  0  0  0
   36.6900   30.1260   39.1220 O   0  0  0  0  0  0  0  0  0  0  0  0
   38.1070   30.4310   41.2410 O   0  0  0  0  0  0  0  0  0  0  0  0
   36.6980   30.0740   40.7990 P   0  0  1  0  0  0  0  0  0  0  0  0
   35.5770   31.1150   41.4660 O   0  0  0  0  0  0  0  0  0  0  0  0
   35.6470   32.0250   41.0770 H   0  0  0  0  0  0  0  0  0  0  0  0
   36.3820   28.5150   41.3890 O   0  0  0  0  0  0  0  0  0  0  0  0
   37.0800   28.3590   42.5800 C   0  0  0  0  0  3  0  0  0  0  0  0
   37.7240   27.0300   42.8540 C   0  0  0  0  0  2  0  0  0  0  0  0
   36.4440   27.3640   43.5360 C   0  0  0  0  0  2  0  0  0  0  0  0
  1 15  1  0  0  0  0
  1  2  1  0  0  0  0
  3  1  1  0  0  0  0
  4  5  2  0  0  0  0
  5  1  1  0  0  0  0
  6  7  1  0  0  0  0
  6  4  1  0  0  0  0
  7 12  1  0  0  0  0
  8 13  1  0  0  0  0
  8  7  2  0  0  0  0
  9  8  1  0  0  0  0
 10  9  2  0  0  0  0
 10 11  1  0  0  0  0
 11  6  2  0  0  0  0
 14 10  1  0  0  0  0
 15 17  1  0  0  0  0
 17 16  2  1  0  0  0
 17 20  1  0  0  0  0
 17 18  1  0  0  0  0
 19 18  1  0  0  0  0
 20 21  1  0  0  0  0
 21 22  1  0  0  0  0
 21 23  1  0  0  0  0
 22 23  1  0  0  0  0
M  END
>  <minimizedAffinity>
-4.02775335

$$$$

 OpenBabel03242512553D

 23 24  0  0  0  0  0  0  0  0999 V2000
   40.3140   29.6670   38.0040 C   0  0  0  0  0  0  0  0  0  0  0  0
   40.7130   28.8070   37.3930 H   0  0  0  0  0  0  0  0  0  0  0  0
   39.3930   30.0010   37.4640 H   0  0  0  0  0  0  0  0  0  0  0  0
   38.5740   28.8860   39.5790 C   0  0  0  0  0  3  0  0  0  0  0  0
   39.8460   29.2060   39.3270 C   0  0  0  0  0  3  0  0  0  0  0  0
   38.2110   28.4430   40.9110 C   0  0  0  0  0  0  0  0  0  0  0  0
   38.4590   29.3280   41.9730 C   0  0  0  0  0  0  0  0  0  0  0  0
   38.1390   28.9750   43.2860 C   0  0  0  0  0  0  0  0  0  0  0  0
   37.5830   27.7460   43.4640 N   0  0  0  0  0  0  0  0  0  0  0  0
   37.3500   26.8990   42.4250 C   0  0  0  0  0  0  0  0  0  0  0  0
   37.6620   27.2490   41.1670 N   0  0  0  0  0  0  0  0  0  0  0  0
   38.8960   30.3060   41.8780 H   0  0  0  0  0  0  0  0  0  0  0  0
   38.2970   29.5910   44.1380 H   0  0  0  0  0  0  0  0  0  0  0  0
   36.9070   25.9280   42.6040 H   0  0  0  0  0  0  0  0  0  0  0  0
   41.1640   30.7300   38.0810 O   0  0  0  0  0  0  0  0  0  0  0  0
   41.5090   33.2550   37.7740 O   0  0  0  0  0  0  0  0  0  0  0  0
   40.4080   32.2190   37.9190 P   0  0  1  0  0  0  0  0  0  0  0  0
   39.3700   32.2580   36.6120 O   0  0  0  0  0  0  0  0  0  0  0  0
   39.8080   31.9210   35.7880 H   0  0  0  0  0  0  0  0  0  0  0  0
   39.5230   32.6390   39.3040 O   0  0  0  0  0  0  0  0  0  0  0  0
   38.1720   32.5540   38.9910 C   0  0  0  0  0  3  0  0  0  0  0  0
   37.2610   33.6410   39.4840 C   0  0  0  0  0  2  0  0  0  0  0  0
   37.2760   32.3350   40.1980 C   0  0  0  0  0  2  0  0  0  0  0  0
  1 15  1  0  0  0  0
  1  5  1  0  0  0  0
  2  1  1  0  0  0  0
  3  1  1  0  0  0  0
  4  6  1  0  0  0  0
  5  4  2  0  0  0  0
  6 11  2  0  0  0  0
  6  7  1  0  0  0  0
  7  8  2  0  0  0  0
  8  9  1  0  0  0  0
  8 13  1  0  0  0  0
 10 14  1  0  0  0  0
 10  9  2  0  0  0  0
 11 10  1  0  0  0  0
 12  7  1  0  0  0  0
 17 16  2  6  0  0  0
 17 15  1  0  0  0  0
 17 20  1  0  0  0  0
 18 17  1  0  0  0  0
 19 18  1  0  0  0  0
 21 20  1  0  0  0  0
 21 22  1  0  0  0  0
 21 23  1  0  0  0  0
 22 23  1  0  0  0  0
M  END
>  <minimizedAffinity>
-4.01374435

$$$$

 OpenBabel03242512553D

 23 24  0  0  0  0  0  0  0  0999 V2000
   37.0650   29.4290   38.3460 C   0  0  0  0  0  0  0  0  0  0  0  0
   38.1540   29.5150   38.6270 H   0  0  0  0  0  0  0  0  0  0  0  0
   37.0510   29.4710   37.2280 H   0  0  0  0  0  0  0  0  0  0  0  0
   37.3110   27.0300   38.8990 C   0  0  0  0  0  3  0  0  0  0  0  0
   36.5320   28.0950   38.6930 C   0  0  0  0  0  3  0  0  0  0  0  0
   36.6930   25.7630   39.2360 C   0  0  0  0  0  0  0  0  0  0  0  0
   35.8270   25.1970   38.2860 C   0  0  0  0  0  0  0  0  0  0  0  0
   35.1920   23.9770   38.5350 C   0  0  0  0  0  0  0  0  0  0  0  0
   35.4620   23.3880   39.7310 N   0  0  0  0  0  0  0  0  0  0  0  0
   36.3040   23.9490   40.6420 C   0  0  0  0  0  0  0  0  0  0  0  0
   36.9080   25.1220   40.3910 N   0  0  0  0  0  0  0  0  0  0  0  0
   35.5860   25.6270   37.3310 H   0  0  0  0  0  0  0  0  0  0  0  0
   34.5260   23.4900   37.8650 H   0  0  0  0  0  0  0  0  0  0  0  0
   36.4950   23.4520   41.5840 H   0  0  0  0  0  0  0  0  0  0  0  0
   36.2910   30.4490   38.8130 O   0  0  0  0  0  0  0  0  0  0  0  0
   37.2740   32.4700   40.0540 O   0  0  0  0  0  0  0  0  0  0  0  0
   36.7850   31.0530   40.2980 P   0  0  1  0  0  0  0  0  0  0  0  0
   35.5570   31.0260   41.4280 O   0  0  0  0  0  0  0  0  0  0  0  0
   34.7240   31.4300   41.0710 H   0  0  0  0  0  0  0  0  0  0  0  0
   38.0990   30.1870   40.9330 O   0  0  0  0  0  0  0  0  0  0  0  0
   37.7010   29.6270   42.1390 C   0  0  0  0  0  3  0  0  0  0  0  0
   38.7660   29.1570   43.0880 C   0  0  0  0  0  2  0  0  0  0  0  0
   38.0360   28.1510   42.2700 C   0  0  0  0  0  2  0  0  0  0  0  0
  1  2  1  0  0  0  0
  1  5  1  0  0  0  0
  1 15  1  0  0  0  0
  3  1  1  0  0  0  0
  4  6  1  0  0  0  0
  5  4  2  0  0  0  0
  6 11  1  0  0  0  0
  7  8  1  0  0  0  0
  7  6  2  0  0  0  0
  8  9  2  0  0  0  0
  9 10  1  0  0  0  0
 10 14  1  0  0  0  0
 11 10  2  0  0  0  0
 12  7  1  0  0  0  0
 13  8  1  0  0  0  0
 15 17  1  0  0  0  0
 17 16  2  6  0  0  0
 17 20  1  0  0  0  0
 17 18  1  0  0  0  0
 19 18  1  0  0  0  0
 20 21  1  0  0  0  0
 21 23  1  0  0  0  0
 21 22  1  0  0  0  0
 23 22  1  0  0  0  0
M  END
>  <minimizedAffinity>
-3.95730758

$$$$

 OpenBabel03242512553D

 23 24  0  0  0  0  0  0  0  0999 V2000
   38.3200   27.0480   43.6360 C   0  0  0  0  0  0  0  0  0  0  0  0
   38.2230   27.2650   44.7390 H   0  0  0  0  0  0  0  0  0  0  0  0
   37.4890   26.3350   43.4090 H   0  0  0  0  0  0  0  0  0  0  0  0
   38.8890   29.2690   42.7050 C   0  0  0  0  0  3  0  0  0  0  0  0
   38.0300   28.2540   42.8310 C   0  0  0  0  0  3  0  0  0  0  0  0
   38.5130   30.4090   41.8930 C   0  0  0  0  0  0  0  0  0  0  0  0
   39.4600   31.4360   41.7470 C   0  0  0  0  0  0  0  0  0  0  0  0
   39.1740   32.5680   40.9810 C   0  0  0  0  0  0  0  0  0  0  0  0
   37.9450   32.6100   40.3990 N   0  0  0  0  0  0  0  0  0  0  0  0
   37.0370   31.6080   40.5500 C   0  0  0  0  0  0  0  0  0  0  0  0
   37.3240   30.5240   41.2890 N   0  0  0  0  0  0  0  0  0  0  0  0
   40.4410   31.4440   42.1890 H   0  0  0  0  0  0  0  0  0  0  0  0
   39.8400   33.3820   40.8260 H   0  0  0  0  0  0  0  0  0  0  0  0
   36.0690   31.6750   40.0730 H   0  0  0  0  0  0  0  0  0  0  0  0
   39.4940   26.4480   43.2920 O   0  0  0  0  0  0  0  0  0  0  0  0
   40.1820   25.1770   41.1700 O   0  0  0  0  0  0  0  0  0  0  0  0
   39.3040   25.0390   42.4020 P   0  0  1  0  0  0  0  0  0  0  0  0
   39.7100   23.6800   43.2820 O   0  0  0  0  0  0  0  0  0  0  0  0
   40.5960   23.7800   43.7190 H   0  0  0  0  0  0  0  0  0  0  0  0
   37.7120   24.8470   41.8470 O   0  0  0  0  0  0  0  0  0  0  0  0
   37.6990   25.1150   40.4840 C   0  0  0  0  0  3  0  0  0  0  0  0
   36.7660   26.1780   39.9810 C   0  0  0  0  0  2  0  0  0  0  0  0
   36.3920   24.7500   39.8010 C   0  0  0  0  0  2  0  0  0  0  0  0
  1  2  1  0  0  0  0
  3  1  1  0  0  0  0
  4  5  2  0  0  0  0
  5  1  1  0  0  0  0
  6  4  1  0  0  0  0
  7  6  1  0  0  0  0
  7 12  1  0  0  0  0
  8  7  2  0  0  0  0
  9 10  2  0  0  0  0
  9  8  1  0  0  0  0
 10 11  1  0  0  0  0
 11  6  2  0  0  0  0
 13  8  1  0  0  0  0
 14 10  1  0  0  0  0
 15  1  1  0  0  0  0
 17 16  2  6  0  0  0
 17 18  1  0  0  0  0
 17 15  1  0  0  0  0
 18 19  1  0  0  0  0
 20 17  1  0  0  0  0
 21 20  1  0  0  0  0
 22 21  1  0  0  0  0
 23 22  1  0  0  0  0
 23 21  1  0  0  0  0
M  END
>  <minimizedAffinity>
-3.93808603

$$$$
