
 OpenBabel03252509083D

 35 38  0  0  0  0  0  0  0  0999 V2000
   45.3850   35.3180   43.2370 Cl  0  0  0  0  0  0  0  0  0  0  0  0
   45.2100   34.5580   41.6780 C   0  0  0  0  0  0  0  0  0  0  0  0
   46.2820   34.1480   40.9660 C   0  0  0  0  0  0  0  0  0  0  0  0
   46.0450   33.5640   39.7350 C   0  0  0  0  0  0  0  0  0  0  0  0
   44.7770   33.3970   39.2350 C   0  0  0  0  0  0  0  0  0  0  0  0
   43.7080   33.8130   39.9600 C   0  0  0  0  0  0  0  0  0  0  0  0
   43.9320   34.3970   41.1910 C   0  0  0  0  0  0  0  0  0  0  0  0
   44.6460   32.9370   38.2680 H   0  0  0  0  0  0  0  0  0  0  0  0
   42.7030   33.7000   39.6060 H   0  0  0  0  0  0  0  0  0  0  0  0
   43.0750   34.7260   41.7670 H   0  0  0  0  0  0  0  0  0  0  0  0
   47.6330   31.8070   38.9300 C   0  0  0  0  0  0  0  0  0  0  0  0
   47.1770   33.0900   38.9410 C   0  0  0  0  0  0  0  0  0  0  0  0
   47.8090   34.0350   38.1540 C   0  0  0  0  0  0  0  0  0  0  0  0
   48.8820   33.6800   37.3710 C   0  0  0  0  0  0  0  0  0  0  0  0
   49.3620   32.3770   37.3430 C   0  0  0  0  0  0  0  0  0  0  0  0
   48.7200   31.4350   38.1390 C   0  0  0  0  0  0  0  0  0  0  0  0
   47.4750   35.0550   38.1420 H   0  0  0  0  0  0  0  0  0  0  0  0
   49.3520   34.4350   36.7700 H   0  0  0  0  0  0  0  0  0  0  0  0
   50.1930   32.1020   36.7340 H   0  0  0  0  0  0  0  0  0  0  0  0
   49.1040   30.4360   38.1040 H   0  0  0  0  0  0  0  0  0  0  0  0
   46.8880   30.6030   39.8350 S   0  0  0  0  0  0  0  0  0  0  0  0
   45.6360   30.0530   39.1990 O   0  0  0  0  0  0  0  0  0  0  0  0
   47.8750   29.3990   39.7720 O   0  0  0  0  0  0  0  0  0  0  0  0
   46.5830   30.6380   41.5140 C   0  0  0  0  0  3  0  0  0  0  0  0
   45.9340   29.3100   41.9820 C   0  0  0  0  0  2  0  0  0  0  0  0
   47.1920   29.7520   42.5530 C   0  0  0  0  0  2  0  0  0  0  0  0
   49.5780   35.7450   41.9290 C   0  0  0  0  0  0  0  0  0  0  0  0
   48.2980   35.5590   41.3940 C   0  0  0  0  0  0  0  0  0  0  0  0
   47.6160   34.3520   41.5190 C   0  0  0  0  0  0  0  0  0  0  0  0
   48.2770   33.3990   42.1830 N   0  0  0  0  0  0  0  0  0  0  0  0
   49.4990   33.5670   42.6980 C   0  0  0  0  0  0  0  0  0  0  0  0
   50.1430   34.7290   42.5720 N   0  0  0  0  0  0  0  0  0  0  0  0
   50.0360   36.7200   41.7830 H   0  0  0  0  0  0  0  0  0  0  0  0
   47.8100   36.3700   40.8640 H   0  0  0  0  0  0  0  0  0  0  0  0
   50.0200   32.7770   43.2360 H   0  0  0  0  0  0  0  0  0  0  0  0
  2  1  1  0  0  0  0
  3 29  1  0  0  0  0
  3  2  2  0  0  0  0
  4  3  1  0  0  0  0
  5  4  2  0  0  0  0
  5  6  1  0  0  0  0
  6  7  2  0  0  0  0
  7  2  1  0  0  0  0
  7 10  1  0  0  0  0
  8  5  1  0  0  0  0
  9  6  1  0  0  0  0
 11 12  1  0  0  0  0
 11 21  1  0  0  0  0
 12  4  1  0  0  0  0
 13 12  2  0  0  0  0
 14 13  1  0  0  0  0
 15 14  2  0  0  0  0
 15 16  1  0  0  0  0
 16 11  2  0  0  0  0
 17 13  1  0  0  0  0
 18 14  1  0  0  0  0
 19 15  1  0  0  0  0
 20 16  1  0  0  0  0
 21 24  1  0  0  0  0
 22 21  2  0  0  0  0
 23 21  2  0  0  0  0
 24 25  1  0  0  0  0
 24 26  1  0  0  0  0
 25 26  1  0  0  0  0
 27 32  1  0  0  0  0
 28 29  1  0  0  0  0
 28 27  2  0  0  0  0
 29 30  2  0  0  0  0
 30 31  1  0  0  0  0
 31 35  1  0  0  0  0
 32 31  2  0  0  0  0
 33 27  1  0  0  0  0
 34 28  1  0  0  0  0
M  END
>  <minimizedAffinity>
-4.41744995

>  <minimizedRMSD>
0.680479288

$$$$
