
 OpenBabel03252509273D

 24 26  0  0  1  0  0  0  0  0999 V2000
   46.5660   35.0520   41.9120 C   0  0  1  0  0  0  0  0  0  0  0  0
   48.0990   35.3110   41.9230 C   0  0  0  0  0  0  0  0  0  0  0  0
   47.3750   34.0650   41.3280 C   0  0  2  0  0  0  0  0  0  0  0  0
   45.9920   35.7950   41.3310 H   0  0  0  0  0  0  0  0  0  0  0  0
   48.4060   36.0780   41.2160 H   0  0  0  0  0  0  0  0  0  0  0  0
   48.6540   35.1660   42.8530 H   0  0  0  0  0  0  0  0  0  0  0  0
   47.6660   33.1140   41.8730 H   0  0  0  0  0  0  0  0  0  0  0  0
   44.6350   35.4330   45.1030 C   0  0  0  0  0  0  0  0  0  0  0  0
   45.1120   35.7240   43.7980 C   0  0  0  0  0  0  0  0  0  0  0  0
   46.0570   34.8790   43.3230 C   0  0  0  0  0  0  0  0  0  0  0  0
   46.5250   33.8080   44.0680 N   0  0  0  0  0  0  0  0  0  0  0  0
   46.0450   33.5680   45.3050 C   0  0  0  0  0  0  0  0  0  0  0  0
   45.0960   34.3850   45.8220 N   0  0  0  0  0  0  0  0  0  0  0  0
   43.8780   36.0890   45.5090 H   0  0  0  0  0  0  0  0  0  0  0  0
   46.4880   32.7040   45.7840 H   0  0  0  0  0  0  0  0  0  0  0  0
   44.6650   36.8340   43.0650 N   0  0  0  0  0  0  0  0  0  0  0  0
   45.2970   37.3710   42.4310 H   0  0  0  0  0  0  0  0  0  0  0  0
   43.6620   37.1600   43.1340 H   0  0  0  0  0  0  0  0  0  0  0  0
   47.4150   33.8510   39.8350 C   0  0  0  0  0  0  0  0  0  0  0  0
   46.3720   33.8960   39.4810 H   0  0  0  0  0  0  0  0  0  0  0  0
   47.9240   34.7270   39.3880 H   0  0  0  0  0  0  0  0  0  0  0  0
   48.0340   32.5400   39.4300 C   0  0  0  0  0  3  0  0  0  0  0  0
   49.1120   32.4260   38.4550 C   0  0  0  0  0  2  0  0  0  0  0  0
   47.6970   32.1490   37.9760 C   0  0  0  0  0  2  0  0  0  0  0  0
  1  4  1  6  0  0  0
  1  2  1  0  0  0  0
  1 10  1  0  0  0  0
  2  6  1  0  0  0  0
  3  7  1  1  0  0  0
  3  1  1  0  0  0  0
  3  2  1  0  0  0  0
  5  2  1  0  0  0  0
  8 14  1  0  0  0  0
  8 13  1  0  0  0  0
  9  8  2  0  0  0  0
 10  9  1  0  0  0  0
 10 11  2  0  0  0  0
 11 12  1  0  0  0  0
 12 15  1  0  0  0  0
 12 13  2  0  0  0  0
 16 18  1  0  0  0  0
 16  9  1  0  0  0  0
 17 16  1  0  0  0  0
 19  3  1  0  0  0  0
 20 19  1  0  0  0  0
 21 19  1  0  0  0  0
 22 19  1  0  0  0  0
 23 22  1  0  0  0  0
 24 23  1  0  0  0  0
 24 22  1  0  0  0  0
M  END
>  <minimizedAffinity>
-4.2604537

>  <minimizedRMSD>
0.26113978

$$$$
