
 OpenBabel03252509313D

 21 22  0  0  0  0  0  0  0  0999 V2000
   46.9470   33.3560   43.0240 C   0  0  0  0  0  0  0  0  0  0  0  0
   46.6230   33.6250   41.9920 H   0  0  0  0  0  0  0  0  0  0  0  0
   46.7540   32.2600   43.1440 H   0  0  0  0  0  0  0  0  0  0  0  0
   45.0970   34.2630   46.1440 C   0  0  0  0  0  0  0  0  0  0  0  0
   45.9200   33.5620   45.2540 C   0  0  0  0  0  0  0  0  0  0  0  0
   46.0940   34.0690   43.9700 C   0  0  0  0  0  0  0  0  0  0  0  0
   45.4500   35.2390   43.6280 N   0  0  0  0  0  0  0  0  0  0  0  0
   44.6640   35.8870   44.5180 C   0  0  0  0  0  0  0  0  0  0  0  0
   44.4870   35.4100   45.7540 N   0  0  0  0  0  0  0  0  0  0  0  0
   45.0290   33.7860   47.1130 H   0  0  0  0  0  0  0  0  0  0  0  0
   46.4210   32.6520   45.5200 H   0  0  0  0  0  0  0  0  0  0  0  0
   44.1500   36.8060   44.2670 H   0  0  0  0  0  0  0  0  0  0  0  0
   48.2920   33.6520   43.2470 O   0  0  0  0  0  0  0  0  0  0  0  0
   49.4390   31.3290   42.8620 O   0  0  0  0  0  0  0  0  0  0  0  0
   49.1960   32.6700   42.2040 P   0  0  2  0  0  0  0  0  0  0  0  0
   50.6130   33.4880   41.8350 O   0  0  0  0  0  0  0  0  0  0  0  0
   51.2260   33.4180   42.6040 H   0  0  0  0  0  0  0  0  0  0  0  0
   48.2770   32.4040   40.8180 O   0  0  0  0  0  0  0  0  0  0  0  0
   48.6530   33.1750   39.7470 C   0  0  0  0  0  3  0  0  0  0  0  0
   48.1010   34.5790   39.7360 C   0  0  0  0  0  2  0  0  0  0  0  0
   47.4790   33.5600   38.8490 C   0  0  0  0  0  2  0  0  0  0  0  0
  1  3  1  0  0  0  0
  1 13  1  0  0  0  0
  1  6  1  0  0  0  0
  2  1  1  0  0  0  0
  4 10  1  0  0  0  0
  5 11  1  0  0  0  0
  5  4  2  0  0  0  0
  6  5  1  0  0  0  0
  7  6  2  0  0  0  0
  7  8  1  0  0  0  0
  8  9  2  0  0  0  0
  9  4  1  0  0  0  0
 12  8  1  0  0  0  0
 15 14  2  1  0  0  0
 15 13  1  0  0  0  0
 16 15  1  0  0  0  0
 16 17  1  0  0  0  0
 18 15  1  0  0  0  0
 19 18  1  0  0  0  0
 20 19  1  0  0  0  0
 21 20  1  0  0  0  0
 21 19  1  0  0  0  0
M  END
>  <minimizedAffinity>
-3.76386833

>  <minimizedRMSD>
2.11337709

$$$$
