
 OpenBabel03242516233D

 23 25  0  0  0  0  0  0  0  0999 V2000
   37.5400   30.7510   40.8890 C   0  0  0  0  0  0  0  0  0  0  0  0
   37.9380   29.6890   41.6780 C   0  0  0  0  0  0  0  0  0  0  0  0
   37.1050   28.5950   41.8710 C   0  0  0  0  0  0  0  0  0  0  0  0
   35.8500   28.5300   41.2810 C   0  0  0  0  0  0  0  0  0  0  0  0
   35.4420   29.5790   40.4940 C   0  0  0  0  0  0  0  0  0  0  0  0
   36.2870   30.6580   40.3150 C   0  0  0  0  0  0  0  0  0  0  0  0
   38.9040   29.7090   42.1500 H   0  0  0  0  0  0  0  0  0  0  0  0
   35.2660   27.6420   41.4820 H   0  0  0  0  0  0  0  0  0  0  0  0
   34.4670   29.5030   40.0480 H   0  0  0  0  0  0  0  0  0  0  0  0
   35.9270   31.4750   39.6800 H   0  0  0  0  0  0  0  0  0  0  0  0
   38.5400   34.1610   40.0860 C   0  0  0  0  0  0  0  0  0  0  0  0
   39.9170   34.1600   40.2600 C   0  0  0  0  0  0  0  0  0  0  0  0
   40.5210   32.9610   40.6650 C   0  0  0  0  0  0  0  0  0  0  0  0
   39.7590   31.8330   40.8760 N   0  0  0  0  0  0  0  0  0  0  0  0
   38.4130   31.9030   40.6880 C   0  0  0  0  0  0  0  0  0  0  0  0
   37.8210   33.0530   40.2980 N   0  0  0  0  0  0  0  0  0  0  0  0
   37.9910   35.0380   39.7770 H   0  0  0  0  0  0  0  0  0  0  0  0
   40.4930   35.0560   40.0890 H   0  0  0  0  0  0  0  0  0  0  0  0
   41.5810   32.9400   40.8050 H   0  0  0  0  0  0  0  0  0  0  0  0
   37.6790   27.2880   42.9130 S   0  0  0  0  0  0  0  0  0  0  0  0
   37.8910   25.8320   41.8180 C   0  0  0  0  0  3  0  0  0  0  0  0
   38.4360   24.5670   42.3560 C   0  0  0  0  0  2  0  0  0  0  0  0
   36.9440   24.7060   42.1040 C   0  0  0  0  0  2  0  0  0  0  0  0
  1  2  1  0  0  0  0
  2  3  2  0  0  0  0
  2  7  1  0  0  0  0
  3 20  1  0  0  0  0
  4  8  1  0  0  0  0
  4  3  1  0  0  0  0
  5  4  2  0  0  0  0
  6  5  1  0  0  0  0
  6  1  2  0  0  0  0
  9  5  1  0  0  0  0
 10  6  1  0  0  0  0
 11 12  2  0  0  0  0
 11 16  1  0  0  0  0
 12 13  1  0  0  0  0
 13 19  1  0  0  0  0
 13 14  2  0  0  0  0
 15 14  1  0  0  0  0
 15  1  1  0  0  0  0
 16 15  2  0  0  0  0
 17 11  1  0  0  0  0
 18 12  1  0  0  0  0
 21 23  1  0  0  0  0
 21 22  1  0  0  0  0
 21 20  1  0  0  0  0
 23 22  1  0  0  0  0
M  END
>  <minimizedAffinity>
-4.66476059

$$$$

 OpenBabel03242516233D

 23 25  0  0  0  0  0  0  0  0999 V2000
   37.7590   29.4760   41.7860 C   0  0  0  0  0  0  0  0  0  0  0  0
   37.5110   28.4060   40.9490 C   0  0  0  0  0  0  0  0  0  0  0  0
   37.2180   27.1510   41.4670 C   0  0  0  0  0  0  0  0  0  0  0  0
   37.1650   26.9300   42.8360 C   0  0  0  0  0  0  0  0  0  0  0  0
   37.4100   27.9860   43.6800 C   0  0  0  0  0  0  0  0  0  0  0  0
   37.6990   29.2260   43.1430 C   0  0  0  0  0  0  0  0  0  0  0  0
   37.5450   28.5440   39.8830 H   0  0  0  0  0  0  0  0  0  0  0  0
   36.9300   25.9230   43.1550 H   0  0  0  0  0  0  0  0  0  0  0  0
   37.3620   27.7880   44.7340 H   0  0  0  0  0  0  0  0  0  0  0  0
   37.8890   30.0440   43.8470 H   0  0  0  0  0  0  0  0  0  0  0  0
   37.2730   32.6340   40.0340 C   0  0  0  0  0  0  0  0  0  0  0  0
   38.4960   33.2800   40.1540 C   0  0  0  0  0  0  0  0  0  0  0  0
   39.5140   32.6190   40.8550 C   0  0  0  0  0  0  0  0  0  0  0  0
   39.2930   31.3730   41.3970 N   0  0  0  0  0  0  0  0  0  0  0  0
   38.0700   30.7960   41.2430 C   0  0  0  0  0  0  0  0  0  0  0  0
   37.0810   31.4220   40.5690 N   0  0  0  0  0  0  0  0  0  0  0  0
   36.4330   33.0670   39.5120 H   0  0  0  0  0  0  0  0  0  0  0  0
   38.6450   34.2570   39.7210 H   0  0  0  0  0  0  0  0  0  0  0  0
   40.4640   33.1010   40.9590 H   0  0  0  0  0  0  0  0  0  0  0  0
   36.9350   25.8280   40.3290 S   0  0  0  0  0  0  0  0  0  0  0  0
   37.2260   24.2840   41.2750 C   0  0  0  0  0  3  0  0  0  0  0  0
   37.6820   23.0600   40.5830 C   0  0  0  0  0  2  0  0  0  0  0  0
   38.6690   23.8940   41.3830 C   0  0  0  0  0  2  0  0  0  0  0  0
  1  6  1  0  0  0  0
  2  3  1  0  0  0  0
  2  1  2  0  0  0  0
  3  4  2  0  0  0  0
  4  8  1  0  0  0  0
  4  5  1  0  0  0  0
  5  9  1  0  0  0  0
  6  5  2  0  0  0  0
  6 10  1  0  0  0  0
  7  2  1  0  0  0  0
 11 12  2  0  0  0  0
 11 16  1  0  0  0  0
 12 13  1  0  0  0  0
 13 19  1  0  0  0  0
 13 14  2  0  0  0  0
 15 14  1  0  0  0  0
 15  1  1  0  0  0  0
 16 15  2  0  0  0  0
 17 11  1  0  0  0  0
 18 12  1  0  0  0  0
 20 21  1  0  0  0  0
 20  3  1  0  0  0  0
 21 23  1  0  0  0  0
 22 21  1  0  0  0  0
 22 23  1  0  0  0  0
M  END
>  <minimizedAffinity>
-4.56025934

$$$$

 OpenBabel03242516233D

 23 25  0  0  0  0  0  0  0  0999 V2000
   37.3580   26.7950   41.6060 C   0  0  0  0  0  0  0  0  0  0  0  0
   36.8160   27.9570   41.0930 C   0  0  0  0  0  0  0  0  0  0  0  0
   37.0140   29.1760   41.7290 C   0  0  0  0  0  0  0  0  0  0  0  0
   37.7580   29.2680   42.8970 C   0  0  0  0  0  0  0  0  0  0  0  0
   38.3030   28.1190   43.4180 C   0  0  0  0  0  0  0  0  0  0  0  0
   38.0940   26.9170   42.7690 C   0  0  0  0  0  0  0  0  0  0  0  0
   36.2340   27.9200   40.1900 H   0  0  0  0  0  0  0  0  0  0  0  0
   37.8640   30.2550   43.3270 H   0  0  0  0  0  0  0  0  0  0  0  0
   38.8750   28.2190   44.3220 H   0  0  0  0  0  0  0  0  0  0  0  0
   38.5440   26.0240   43.2140 H   0  0  0  0  0  0  0  0  0  0  0  0
   37.6550   23.2280   40.9240 C   0  0  0  0  0  0  0  0  0  0  0  0
   36.8630   23.0310   39.8010 C   0  0  0  0  0  0  0  0  0  0  0  0
   36.2080   24.1480   39.2630 C   0  0  0  0  0  0  0  0  0  0  0  0
   36.3570   25.3890   39.8400 N   0  0  0  0  0  0  0  0  0  0  0  0
   37.1480   25.5130   40.9400 C   0  0  0  0  0  0  0  0  0  0  0  0
   37.7840   24.4440   41.4670 N   0  0  0  0  0  0  0  0  0  0  0  0
   38.1950   22.4270   41.4050 H   0  0  0  0  0  0  0  0  0  0  0  0
   36.7610   22.0490   39.3660 H   0  0  0  0  0  0  0  0  0  0  0  0
   35.5930   24.0170   38.3970 H   0  0  0  0  0  0  0  0  0  0  0  0
   36.2680   30.6130   41.0210 S   0  0  0  0  0  0  0  0  0  0  0  0
   37.5900   31.4360   40.0520 C   0  0  0  0  0  3  0  0  0  0  0  0
   37.3410   31.8580   38.6570 C   0  0  0  0  0  2  0  0  0  0  0  0
   37.3350   32.8870   39.7750 C   0  0  0  0  0  2  0  0  0  0  0  0
  1  6  1  0  0  0  0
  2  1  2  0  0  0  0
  2  3  1  0  0  0  0
  3  4  2  0  0  0  0
  4  8  1  0  0  0  0
  4  5  1  0  0  0  0
  5  9  1  0  0  0  0
  6 10  1  0  0  0  0
  6  5  2  0  0  0  0
  7  2  1  0  0  0  0
 11 17  1  0  0  0  0
 11 16  1  0  0  0  0
 12 11  2  0  0  0  0
 13 12  1  0  0  0  0
 13 14  2  0  0  0  0
 14 15  1  0  0  0  0
 15 16  2  0  0  0  0
 15  1  1  0  0  0  0
 18 12  1  0  0  0  0
 19 13  1  0  0  0  0
 20  3  1  0  0  0  0
 21 20  1  0  0  0  0
 22 23  1  0  0  0  0
 22 21  1  0  0  0  0
 23 21  1  0  0  0  0
M  END
>  <minimizedAffinity>
-4.53075314

$$$$

 OpenBabel03242516233D

 23 25  0  0  0  0  0  0  0  0999 V2000
   37.8580   29.1770   41.3700 C   0  0  0  0  0  0  0  0  0  0  0  0
   38.3860   27.9460   41.0310 C   0  0  0  0  0  0  0  0  0  0  0  0
   38.5660   26.9600   41.9920 C   0  0  0  0  0  0  0  0  0  0  0  0
   38.2220   27.1740   43.3190 C   0  0  0  0  0  0  0  0  0  0  0  0
   37.6960   28.3940   43.6700 C   0  0  0  0  0  0  0  0  0  0  0  0
   37.5250   29.3620   42.6980 C   0  0  0  0  0  0  0  0  0  0  0  0
   38.6630   27.7490   40.0110 H   0  0  0  0  0  0  0  0  0  0  0  0
   38.3940   26.3540   44.0030 H   0  0  0  0  0  0  0  0  0  0  0  0
   37.4380   28.5340   44.7040 H   0  0  0  0  0  0  0  0  0  0  0  0
   37.1030   30.3210   43.0160 H   0  0  0  0  0  0  0  0  0  0  0  0
   37.3660   32.5010   39.9620 C   0  0  0  0  0  0  0  0  0  0  0  0
   37.3080   32.2840   38.5930 C   0  0  0  0  0  0  0  0  0  0  0  0
   37.4430   30.9650   38.1380 C   0  0  0  0  0  0  0  0  0  0  0  0
   37.6250   29.9340   39.0310 N   0  0  0  0  0  0  0  0  0  0  0  0
   37.6720   30.2160   40.3620 C   0  0  0  0  0  0  0  0  0  0  0  0
   37.5420   31.4830   40.8120 N   0  0  0  0  0  0  0  0  0  0  0  0
   37.2710   33.4830   40.4030 H   0  0  0  0  0  0  0  0  0  0  0  0
   37.1660   33.1090   37.9120 H   0  0  0  0  0  0  0  0  0  0  0  0
   37.4030   30.7770   37.0850 H   0  0  0  0  0  0  0  0  0  0  0  0
   39.2680   25.4210   41.4810 S   0  0  0  0  0  0  0  0  0  0  0  0
   38.0230   24.1400   41.8960 C   0  0  0  0  0  3  0  0  0  0  0  0
   36.6800   24.1780   41.2790 C   0  0  0  0  0  2  0  0  0  0  0  0
   37.7200   23.1930   40.7750 C   0  0  0  0  0  2  0  0  0  0  0  0
  1  6  1  0  0  0  0
  2  1  2  0  0  0  0
  2  3  1  0  0  0  0
  3  4  2  0  0  0  0
  4  5  1  0  0  0  0
  4  8  1  0  0  0  0
  5  9  1  0  0  0  0
  6 10  1  0  0  0  0
  6  5  2  0  0  0  0
  7  2  1  0  0  0  0
 11 17  1  0  0  0  0
 11 16  1  0  0  0  0
 12 11  2  0  0  0  0
 13 12  1  0  0  0  0
 13 14  2  0  0  0  0
 14 15  1  0  0  0  0
 15 16  2  0  0  0  0
 15  1  1  0  0  0  0
 18 12  1  0  0  0  0
 19 13  1  0  0  0  0
 20 21  1  0  0  0  0
 20  3  1  0  0  0  0
 22 21  1  0  0  0  0
 23 22  1  0  0  0  0
 23 21  1  0  0  0  0
M  END
>  <minimizedAffinity>
-4.48034859

$$$$

 OpenBabel03242516233D

 23 25  0  0  0  0  0  0  0  0999 V2000
   37.2960   28.8600   41.2820 C   0  0  0  0  0  0  0  0  0  0  0  0
   37.2200   27.4950   41.0820 C   0  0  0  0  0  0  0  0  0  0  0  0
   37.1940   26.6190   42.1590 C   0  0  0  0  0  0  0  0  0  0  0  0
   37.2420   27.0810   43.4670 C   0  0  0  0  0  0  0  0  0  0  0  0
   37.3180   28.4360   43.6800 C   0  0  0  0  0  0  0  0  0  0  0  0
   37.3430   29.2910   42.5940 C   0  0  0  0  0  0  0  0  0  0  0  0
   37.1810   27.1050   40.0810 H   0  0  0  0  0  0  0  0  0  0  0  0
   37.2170   26.3320   44.2470 H   0  0  0  0  0  0  0  0  0  0  0  0
   37.3540   28.7670   44.7010 H   0  0  0  0  0  0  0  0  0  0  0  0
   37.4030   30.3640   42.8030 H   0  0  0  0  0  0  0  0  0  0  0  0
   37.0920   32.0030   39.4490 C   0  0  0  0  0  0  0  0  0  0  0  0
   37.3420   31.6440   38.1320 C   0  0  0  0  0  0  0  0  0  0  0  0
   37.5880   30.2900   37.8630 C   0  0  0  0  0  0  0  0  0  0  0  0
   37.5780   29.3630   38.8810 N   0  0  0  0  0  0  0  0  0  0  0  0
   37.3260   29.7820   40.1500 C   0  0  0  0  0  0  0  0  0  0  0  0
   37.0870   31.0840   40.4220 N   0  0  0  0  0  0  0  0  0  0  0  0
   36.8920   33.0210   39.7490 H   0  0  0  0  0  0  0  0  0  0  0  0
   37.3450   32.3880   37.3510 H   0  0  0  0  0  0  0  0  0  0  0  0
   37.7830   29.9930   36.8530 H   0  0  0  0  0  0  0  0  0  0  0  0
   37.1190   24.8860   41.8180 S   0  0  0  0  0  0  0  0  0  0  0  0
   38.8600   24.3290   41.6750 C   0  0  0  0  0  3  0  0  0  0  0  0
   39.9670   25.3020   41.7930 C   0  0  0  0  0  2  0  0  0  0  0  0
   39.6310   24.3880   42.9590 C   0  0  0  0  0  2  0  0  0  0  0  0
  1  6  1  0  0  0  0
  2  1  2  0  0  0  0
  2  3  1  0  0  0  0
  3  4  2  0  0  0  0
  4  5  1  0  0  0  0
  4  8  1  0  0  0  0
  5  9  1  0  0  0  0
  6 10  1  0  0  0  0
  6  5  2  0  0  0  0
  7  2  1  0  0  0  0
 11 17  1  0  0  0  0
 11 16  1  0  0  0  0
 12 11  2  0  0  0  0
 13 12  1  0  0  0  0
 13 14  2  0  0  0  0
 14 15  1  0  0  0  0
 15 16  2  0  0  0  0
 15  1  1  0  0  0  0
 18 12  1  0  0  0  0
 19 13  1  0  0  0  0
 20  3  1  0  0  0  0
 21 22  1  0  0  0  0
 21 20  1  0  0  0  0
 21 23  1  0  0  0  0
 22 23  1  0  0  0  0
M  END
>  <minimizedAffinity>
-4.46662807

$$$$

 OpenBabel03242516233D

 23 25  0  0  0  0  0  0  0  0999 V2000
   39.0690   31.8340   39.4660 C   0  0  0  0  0  0  0  0  0  0  0  0
   39.2070   30.8760   40.4520 C   0  0  0  0  0  0  0  0  0  0  0  0
   38.1050   30.4360   41.1740 C   0  0  0  0  0  0  0  0  0  0  0  0
   36.8350   30.9390   40.9310 C   0  0  0  0  0  0  0  0  0  0  0  0
   36.6840   31.8920   39.9530 C   0  0  0  0  0  0  0  0  0  0  0  0
   37.7940   32.3170   39.2470 C   0  0  0  0  0  0  0  0  0  0  0  0
   40.1780   30.4670   40.6640 H   0  0  0  0  0  0  0  0  0  0  0  0
   36.0320   30.5410   41.5380 H   0  0  0  0  0  0  0  0  0  0  0  0
   35.6910   32.2640   39.7850 H   0  0  0  0  0  0  0  0  0  0  0  0
   37.6340   33.0770   38.4750 H   0  0  0  0  0  0  0  0  0  0  0  0
   41.7440   34.0480   38.3610 C   0  0  0  0  0  0  0  0  0  0  0  0
   42.3940   33.3270   37.3690 C   0  0  0  0  0  0  0  0  0  0  0  0
   41.9040   32.0470   37.0700 C   0  0  0  0  0  0  0  0  0  0  0  0
   40.8170   31.5400   37.7460 N   0  0  0  0  0  0  0  0  0  0  0  0
   40.2270   32.3010   38.7080 C   0  0  0  0  0  0  0  0  0  0  0  0
   40.6890   33.5350   39.0050 N   0  0  0  0  0  0  0  0  0  0  0  0
   42.0510   35.0410   38.6570 H   0  0  0  0  0  0  0  0  0  0  0  0
   43.2440   33.7450   36.8540 H   0  0  0  0  0  0  0  0  0  0  0  0
   42.3920   31.4750   36.3090 H   0  0  0  0  0  0  0  0  0  0  0  0
   38.3690   29.2250   42.4340 S   0  0  0  0  0  0  0  0  0  0  0  0
   36.9270   28.0950   42.3500 C   0  0  0  0  0  3  0  0  0  0  0  0
   37.1060   26.6410   42.5520 C   0  0  0  0  0  2  0  0  0  0  0  0
   36.5370   27.4990   43.6700 C   0  0  0  0  0  2  0  0  0  0  0  0
  1  2  1  0  0  0  0
  2  7  1  0  0  0  0
  2  3  2  0  0  0  0
  3 20  1  0  0  0  0
  4  3  1  0  0  0  0
  4  8  1  0  0  0  0
  5  4  2  0  0  0  0
  6  1  2  0  0  0  0
  6  5  1  0  0  0  0
  9  5  1  0  0  0  0
 10  6  1  0  0  0  0
 11 17  1  0  0  0  0
 11 16  1  0  0  0  0
 12 11  2  0  0  0  0
 13 12  1  0  0  0  0
 13 14  2  0  0  0  0
 14 15  1  0  0  0  0
 15 16  2  0  0  0  0
 15  1  1  0  0  0  0
 18 12  1  0  0  0  0
 19 13  1  0  0  0  0
 21 20  1  0  0  0  0
 21 22  1  0  0  0  0
 21 23  1  0  0  0  0
 22 23  1  0  0  0  0
M  END
>  <minimizedAffinity>
-4.42629242

$$$$

 OpenBabel03242516233D

 23 25  0  0  0  0  0  0  0  0999 V2000
   38.0200   31.1280   38.3610 C   0  0  0  0  0  0  0  0  0  0  0  0
   37.4290   30.5510   39.4690 C   0  0  0  0  0  0  0  0  0  0  0  0
   36.3680   29.6650   39.3290 C   0  0  0  0  0  0  0  0  0  0  0  0
   35.8680   29.3300   38.0790 C   0  0  0  0  0  0  0  0  0  0  0  0
   36.4460   29.8970   36.9690 C   0  0  0  0  0  0  0  0  0  0  0  0
   37.5000   30.7750   37.1300 C   0  0  0  0  0  0  0  0  0  0  0  0
   37.7940   30.7900   40.4520 H   0  0  0  0  0  0  0  0  0  0  0  0
   35.0410   28.6320   38.0590 H   0  0  0  0  0  0  0  0  0  0  0  0
   36.0400   29.6190   36.0140 H   0  0  0  0  0  0  0  0  0  0  0  0
   37.9360   31.2060   36.2220 H   0  0  0  0  0  0  0  0  0  0  0  0
   40.0450   33.8140   39.7600 C   0  0  0  0  0  0  0  0  0  0  0  0
   41.1440   33.8850   38.9160 C   0  0  0  0  0  0  0  0  0  0  0  0
   41.1950   32.9890   37.8390 C   0  0  0  0  0  0  0  0  0  0  0  0
   40.1820   32.0780   37.6400 N   0  0  0  0  0  0  0  0  0  0  0  0
   39.1330   32.0610   38.5060 C   0  0  0  0  0  0  0  0  0  0  0  0
   39.0720   32.9200   39.5470 N   0  0  0  0  0  0  0  0  0  0  0  0
   39.9220   34.4640   40.6140 H   0  0  0  0  0  0  0  0  0  0  0  0
   41.9260   34.6070   39.0920 H   0  0  0  0  0  0  0  0  0  0  0  0
   42.0340   33.0270   37.1760 H   0  0  0  0  0  0  0  0  0  0  0  0
   35.6540   28.9880   40.7970 S   0  0  0  0  0  0  0  0  0  0  0  0
   37.0410   28.2270   41.7240 C   0  0  0  0  0  3  0  0  0  0  0  0
   37.5090   28.8270   42.9910 C   0  0  0  0  0  2  0  0  0  0  0  0
   36.6360   27.5830   43.0150 C   0  0  0  0  0  2  0  0  0  0  0  0
  1 15  1  0  0  0  0
  1  2  1  0  0  0  0
  2  7  1  0  0  0  0
  3  2  2  0  0  0  0
  3 20  1  0  0  0  0
  4  3  1  0  0  0  0
  5  6  1  0  0  0  0
  5  4  2  0  0  0  0
  6  1  2  0  0  0  0
  8  4  1  0  0  0  0
  9  5  1  0  0  0  0
 10  6  1  0  0  0  0
 11 17  1  0  0  0  0
 12 18  1  0  0  0  0
 12 11  2  0  0  0  0
 13 12  1  0  0  0  0
 14 13  2  0  0  0  0
 14 15  1  0  0  0  0
 15 16  2  0  0  0  0
 16 11  1  0  0  0  0
 19 13  1  0  0  0  0
 20 21  1  0  0  0  0
 21 22  1  0  0  0  0
 21 23  1  0  0  0  0
 22 23  1  0  0  0  0
M  END
>  <minimizedAffinity>
-4.37958145

$$$$

 OpenBabel03242516233D

 23 25  0  0  0  0  0  0  0  0999 V2000
   37.1140   30.2370   39.9300 C   0  0  0  0  0  0  0  0  0  0  0  0
   37.8650   29.2010   40.4500 C   0  0  0  0  0  0  0  0  0  0  0  0
   37.4190   27.8880   40.3650 C   0  0  0  0  0  0  0  0  0  0  0  0
   36.2110   27.5730   39.7580 C   0  0  0  0  0  0  0  0  0  0  0  0
   35.4550   28.5950   39.2370 C   0  0  0  0  0  0  0  0  0  0  0  0
   35.9170   29.8940   39.3320 C   0  0  0  0  0  0  0  0  0  0  0  0
   38.8050   29.4110   40.9270 H   0  0  0  0  0  0  0  0  0  0  0  0
   35.9390   26.5260   39.7340 H   0  0  0  0  0  0  0  0  0  0  0  0
   34.5250   28.3240   38.7720 H   0  0  0  0  0  0  0  0  0  0  0  0
   35.2870   30.6810   38.9040 H   0  0  0  0  0  0  0  0  0  0  0  0
   39.1560   33.0780   40.9480 C   0  0  0  0  0  0  0  0  0  0  0  0
   38.5760   34.1610   40.3030 C   0  0  0  0  0  0  0  0  0  0  0  0
   37.4570   33.9140   39.4950 C   0  0  0  0  0  0  0  0  0  0  0  0
   36.9630   32.6350   39.3600 N   0  0  0  0  0  0  0  0  0  0  0  0
   37.5790   31.6180   40.0210 C   0  0  0  0  0  0  0  0  0  0  0  0
   38.6580   31.8440   40.8020 N   0  0  0  0  0  0  0  0  0  0  0  0
   40.0200   33.1740   41.5890 H   0  0  0  0  0  0  0  0  0  0  0  0
   38.9810   35.1540   40.4230 H   0  0  0  0  0  0  0  0  0  0  0  0
   36.9950   34.7350   38.9880 H   0  0  0  0  0  0  0  0  0  0  0  0
   38.4270   26.6220   41.0750 S   0  0  0  0  0  0  0  0  0  0  0  0
   37.9480   26.5330   42.8430 C   0  0  0  0  0  3  0  0  0  0  0  0
   37.9490   27.7530   43.6780 C   0  0  0  0  0  2  0  0  0  0  0  0
   36.6380   27.1910   43.1570 C   0  0  0  0  0  2  0  0  0  0  0  0
  1 15  1  0  0  0  0
  1  2  1  0  0  0  0
  2  7  1  0  0  0  0
  3  2  2  0  0  0  0
  3 20  1  0  0  0  0
  4  3  1  0  0  0  0
  5  6  1  0  0  0  0
  5  4  2  0  0  0  0
  6  1  2  0  0  0  0
  8  4  1  0  0  0  0
  9  5  1  0  0  0  0
 10  6  1  0  0  0  0
 11 17  1  0  0  0  0
 12 18  1  0  0  0  0
 12 11  2  0  0  0  0
 13 12  1  0  0  0  0
 14 13  2  0  0  0  0
 14 15  1  0  0  0  0
 15 16  2  0  0  0  0
 16 11  1  0  0  0  0
 19 13  1  0  0  0  0
 20 21  1  0  0  0  0
 21 23  1  0  0  0  0
 21 22  1  0  0  0  0
 23 22  1  0  0  0  0
M  END
>  <minimizedAffinity>
-4.36622477

$$$$

 OpenBabel03242516233D

 23 25  0  0  0  0  0  0  0  0999 V2000
   37.5170   28.2910   41.6060 C   0  0  0  0  0  0  0  0  0  0  0  0
   38.0500   29.5420   41.3620 C   0  0  0  0  0  0  0  0  0  0  0  0
   37.2770   30.5460   40.7930 C   0  0  0  0  0  0  0  0  0  0  0  0
   35.9500   30.3290   40.4510 C   0  0  0  0  0  0  0  0  0  0  0  0
   35.4080   29.0890   40.6870 C   0  0  0  0  0  0  0  0  0  0  0  0
   36.1940   28.1040   41.2550 C   0  0  0  0  0  0  0  0  0  0  0  0
   39.0750   29.7430   41.6160 H   0  0  0  0  0  0  0  0  0  0  0  0
   35.4200   31.1640   40.0130 H   0  0  0  0  0  0  0  0  0  0  0  0
   34.3780   28.9480   40.4140 H   0  0  0  0  0  0  0  0  0  0  0  0
   35.7260   27.1290   41.4290 H   0  0  0  0  0  0  0  0  0  0  0  0
   40.0790   26.7250   43.6690 C   0  0  0  0  0  0  0  0  0  0  0  0
   39.9450   25.3690   43.4050 C   0  0  0  0  0  0  0  0  0  0  0  0
   38.9510   24.9790   42.4970 C   0  0  0  0  0  0  0  0  0  0  0  0
   38.1450   25.9210   41.8970 N   0  0  0  0  0  0  0  0  0  0  0  0
   38.3290   27.2340   42.2020 C   0  0  0  0  0  0  0  0  0  0  0  0
   39.2840   27.6220   43.0740 N   0  0  0  0  0  0  0  0  0  0  0  0
   40.8170   27.1160   44.3540 H   0  0  0  0  0  0  0  0  0  0  0  0
   40.5880   24.6490   43.8870 H   0  0  0  0  0  0  0  0  0  0  0  0
   38.8310   23.9380   42.2800 H   0  0  0  0  0  0  0  0  0  0  0  0
   38.0400   32.1120   40.4920 S   0  0  0  0  0  0  0  0  0  0  0  0
   38.7110   32.0230   38.7880 C   0  0  0  0  0  3  0  0  0  0  0  0
   38.6780   30.7480   38.0390 C   0  0  0  0  0  2  0  0  0  0  0  0
   37.6680   31.8390   37.7270 C   0  0  0  0  0  2  0  0  0  0  0  0
  1 15  1  0  0  0  0
  2  1  1  0  0  0  0
  2  7  1  0  0  0  0
  3  2  2  0  0  0  0
  4  5  2  0  0  0  0
  4  3  1  0  0  0  0
  5  6  1  0  0  0  0
  6 10  1  0  0  0  0
  6  1  2  0  0  0  0
  8  4  1  0  0  0  0
  9  5  1  0  0  0  0
 11 17  1  0  0  0  0
 12 11  1  0  0  0  0
 12 18  1  0  0  0  0
 13 12  2  0  0  0  0
 14 15  2  0  0  0  0
 14 13  1  0  0  0  0
 15 16  1  0  0  0  0
 16 11  2  0  0  0  0
 19 13  1  0  0  0  0
 20  3  1  0  0  0  0
 21 20  1  0  0  0  0
 22 21  1  0  0  0  0
 23 22  1  0  0  0  0
 23 21  1  0  0  0  0
M  END
>  <minimizedAffinity>
-4.33260441

$$$$
