
 OpenBabel03252509343D

 37 39  0  0  1  0  0  0  0  0999 V2000
   45.8720   33.5740   41.7390 C   0  0  1  0  0  0  0  0  0  0  0  0
   44.8740   34.0680   40.7160 C   0  0  0  0  0  0  0  0  0  0  0  0
   45.0840   33.0770   39.6020 C   0  0  0  0  0  0  0  0  0  0  0  0
   46.5090   32.5760   39.7420 C   0  0  0  0  0  0  0  0  0  0  0  0
   47.1210   33.4080   40.8690 C   0  0  1  0  0  0  0  0  0  0  0  0
   45.5510   32.5960   42.0900 H   0  0  0  0  0  0  0  0  0  0  0  0
   43.8340   33.8530   41.1060 H   0  0  0  0  0  0  0  0  0  0  0  0
   44.9970   35.1120   40.4440 H   0  0  0  0  0  0  0  0  0  0  0  0
   44.9630   33.6070   38.6360 H   0  0  0  0  0  0  0  0  0  0  0  0
   44.3620   32.2340   39.6190 H   0  0  0  0  0  0  0  0  0  0  0  0
   47.0220   32.5840   38.8130 H   0  0  0  0  0  0  0  0  0  0  0  0
   46.4650   31.5330   40.1970 H   0  0  0  0  0  0  0  0  0  0  0  0
   47.8210   32.8210   41.4710 H   0  0  0  0  0  0  0  0  0  0  0  0
   47.6960   34.7110   40.4420 C   0  0  0  0  0  0  0  0  0  0  0  0
   46.9930   35.5230   40.8150 H   0  0  0  0  0  0  0  0  0  0  0  0
   47.7090   34.8150   39.3230 H   0  0  0  0  0  0  0  0  0  0  0  0
   49.0240   34.9860   41.0480 C   0  0  0  0  0  3  0  0  0  0  0  0
   49.3660   36.1460   41.8820 C   0  0  0  0  0  2  0  0  0  0  0  0
   49.4350   34.7030   42.4190 C   0  0  0  0  0  2  0  0  0  0  0  0
   46.0840   34.4940   42.7610 O   0  0  0  0  0  0  0  0  0  0  0  0
   44.7880   34.9430   44.9670 O   0  0  0  0  0  0  0  0  0  0  0  0
   45.5220   33.8710   44.2200 P   0  0  1  0  0  0  0  0  0  0  0  0
   44.5540   32.5170   43.9520 O   0  0  0  0  0  0  0  0  0  0  0  0
   43.8300   32.7970   43.3600 H   0  0  0  0  0  0  0  0  0  0  0  0
   46.8340   33.3170   45.1160 O   0  0  0  0  0  0  0  0  0  0  0  0
   46.7290   31.9840   45.2850 C   0  0  0  0  0  0  0  0  0  0  0  0
   46.1540   31.3990   44.5730 H   0  0  0  0  0  0  0  0  0  0  0  0
   47.7750   31.5620   45.2220 H   0  0  0  0  0  0  0  0  0  0  0  0
   46.1040   32.0780   48.9520 C   0  0  0  0  0  0  0  0  0  0  0  0
   46.5640   32.4370   47.6760 C   0  0  0  0  0  0  0  0  0  0  0  0
   46.2460   31.6110   46.6250 C   0  0  0  0  0  0  0  0  0  0  0  0
   45.5050   30.4930   46.8780 N   0  0  0  0  0  0  0  0  0  0  0  0
   45.0760   30.1680   48.1050 C   0  0  0  0  0  0  0  0  0  0  0  0
   45.3760   30.9590   49.1290 N   0  0  0  0  0  0  0  0  0  0  0  0
   46.3810   32.7630   49.7480 H   0  0  0  0  0  0  0  0  0  0  0  0
   47.1520   33.3460   47.5500 H   0  0  0  0  0  0  0  0  0  0  0  0
   44.4880   29.2780   48.2950 H   0  0  0  0  0  0  0  0  0  0  0  0
  1  6  1  1  0  0  0
  1 20  1  0  0  0  0
  2  7  1  0  0  0  0
  2  1  1  0  0  0  0
  3 10  1  0  0  0  0
  3  4  1  0  0  0  0
  3  2  1  0  0  0  0
  4 12  1  0  0  0  0
  4  5  1  0  0  0  0
  5 13  1  1  0  0  0
  5  1  1  0  0  0  0
  8  2  1  0  0  0  0
  9  3  1  0  0  0  0
 11  4  1  0  0  0  0
 14 15  1  0  0  0  0
 14  5  1  0  0  0  0
 14 17  1  0  0  0  0
 16 14  1  0  0  0  0
 17 18  1  0  0  0  0
 17 19  1  0  0  0  0
 18 19  1  0  0  0  0
 20 22  1  0  0  0  0
 22 21  2  1  0  0  0
 22 25  1  0  0  0  0
 23 22  1  0  0  0  0
 24 23  1  0  0  0  0
 25 26  1  0  0  0  0
 26 31  1  0  0  0  0
 27 26  1  0  0  0  0
 28 26  1  0  0  0  0
 29 34  1  0  0  0  0
 29 35  1  0  0  0  0
 30 29  2  0  0  0  0
 31 32  2  0  0  0  0
 31 30  1  0  0  0  0
 32 33  1  0  0  0  0
 33 37  1  0  0  0  0
 33 34  2  0  0  0  0
 36 30  1  0  0  0  0
M  END
>  <minimizedAffinity>
-4.98646498

>  <minimizedRMSD>
1.33469105

$$$$
