
 OpenBabel03252508443D

 33 35  0  0  0  0  0  0  0  0999 V2000
   42.5300   34.5430   40.9620 C   0  0  0  0  0  0  0  0  0  0  0  0
   42.9940   33.2810   41.3400 C   0  0  0  0  0  0  0  0  0  0  0  0
   44.1080   33.2110   42.1350 C   0  0  0  0  0  0  0  0  0  0  0  0
   44.7410   34.3520   42.5420 C   0  0  0  0  0  0  0  0  0  0  0  0
   44.3200   35.5930   42.1940 C   0  0  0  0  0  0  0  0  0  0  0  0
   43.1860   35.6360   41.3850 C   0  0  0  0  0  0  0  0  0  0  0  0
   44.4800   32.2400   42.4380 H   0  0  0  0  0  0  0  0  0  0  0  0
   45.6260   34.2210   43.1750 H   0  0  0  0  0  0  0  0  0  0  0  0
   44.8290   36.4850   42.5200 H   0  0  0  0  0  0  0  0  0  0  0  0
   42.8170   36.6160   41.0850 H   0  0  0  0  0  0  0  0  0  0  0  0
   38.9730   34.6380   39.7030 C   0  0  0  0  0  0  0  0  0  0  0  0
   40.0540   34.6180   40.6040 C   0  0  0  0  0  0  0  0  0  0  0  0
   41.3420   34.5670   40.1170 C   0  0  0  0  0  0  0  0  0  0  0  0
   41.4990   34.5380   38.7660 N   0  0  0  0  0  0  0  0  0  0  0  0
   40.4570   34.5580   37.9050 C   0  0  0  0  0  0  0  0  0  0  0  0
   39.1960   34.6080   38.3790 N   0  0  0  0  0  0  0  0  0  0  0  0
   37.9730   34.6770   40.0970 H   0  0  0  0  0  0  0  0  0  0  0  0
   39.9090   34.6410   41.6780 H   0  0  0  0  0  0  0  0  0  0  0  0
   40.6330   34.5340   36.8390 H   0  0  0  0  0  0  0  0  0  0  0  0
   42.2840   32.0520   40.8830 C   0  0  0  0  0  0  0  0  0  0  0  0
   42.5030   31.9480   39.8000 H   0  0  0  0  0  0  0  0  0  0  0  0
   41.1780   32.2450   40.9370 H   0  0  0  0  0  0  0  0  0  0  0  0
   42.6760   30.8590   41.5740 N   0  0  0  0  0  0  0  0  0  0  0  0
   43.5840   31.0550   42.0440 H   0  0  0  0  0  0  0  0  0  0  0  0
   41.4980   30.3420   42.7040 S   0  0  0  0  0  0  0  0  0  0  0  0
   40.6470   31.4870   43.1570 O   0  0  0  0  0  0  0  0  0  0  0  0
   39.8550   31.7530   42.6180 H   0  0  0  0  0  0  0  0  0  0  0  0
   42.1270   29.6590   43.8700 O   0  0  0  0  0  0  0  0  0  0  0  0
   41.7870   29.6400   44.7900 H   0  0  0  0  0  0  0  0  0  0  0  0
   40.5310   29.2240   41.8910 O   0  0  0  0  0  0  0  0  0  0  0  0
   41.2660   28.4930   40.9830 C   0  0  0  0  0  3  0  0  0  0  0  0
   40.8850   28.4240   39.5400 C   0  0  0  0  0  2  0  0  0  0  0  0
   40.6150   27.2250   40.4300 C   0  0  0  0  0  2  0  0  0  0  0  0
  1  2  2  0  0  0  0
  1  6  1  0  0  0  0
  2  3  1  0  0  0  0
  3  7  1  0  0  0  0
  3  4  2  0  0  0  0
  4  8  1  0  0  0  0
  5  9  1  0  0  0  0
  5  4  1  0  0  0  0
  6  5  2  0  0  0  0
 10  6  1  0  0  0  0
 11 17  1  0  0  0  0
 11 12  1  0  0  0  0
 12 18  1  0  0  0  0
 13 12  2  0  0  0  0
 13  1  1  0  0  0  0
 14 13  1  0  0  0  0
 15 16  1  0  0  0  0
 15 14  2  0  0  0  0
 16 11  2  0  0  0  0
 19 15  1  0  0  0  0
 20 22  1  0  0  0  0
 20  2  1  0  0  0  0
 20 23  1  0  0  0  0
 21 20  1  0  0  0  0
 23 24  1  0  0  0  0
 23 25  1  0  0  0  0
 25 26  1  0  0  0  0
 25 28  1  0  0  0  0
 27 26  1  0  0  0  0
 28 29  1  0  0  0  0
 30 25  1  0  0  0  0
 31 30  1  0  0  0  0
 32 33  1  0  0  0  0
 32 31  1  0  0  0  0
 33 31  1  0  0  0  0
M  END
>  <minimizedAffinity>
-4.17811441

>  <minimizedRMSD>
6.61974955

$$$$
