
 OpenBabel03242519543D

 34 36  0  0  1  0  0  0  0  0999 V2000
   47.2580   34.0530   42.5340 C   0  0  2  0  0  0  0  0  0  0  0  0
   48.6290   34.5870   42.6810 C   0  0  0  0  0  0  0  0  0  0  0  0
   48.9350   35.6550   41.6820 C   0  0  0  0  0  0  0  0  0  0  0  0
   48.7110   35.2270   40.2570 C   0  0  0  0  0  0  0  0  0  0  0  0
   47.5280   34.3230   40.0670 C   0  0  2  0  0  0  0  0  0  0  0  0
   46.5820   34.3950   41.2490 C   0  0  0  0  0  0  0  0  0  0  0  0
   47.3640   32.9220   42.5710 H   0  0  0  0  0  0  0  0  0  0  0  0
   49.4120   33.8050   42.6350 H   0  0  0  0  0  0  0  0  0  0  0  0
   48.7180   35.0710   43.6890 H   0  0  0  0  0  0  0  0  0  0  0  0
   50.0290   35.8860   41.7640 H   0  0  0  0  0  0  0  0  0  0  0  0
   48.4270   36.6090   41.9440 H   0  0  0  0  0  0  0  0  0  0  0  0
   49.6300   34.7980   39.7790 H   0  0  0  0  0  0  0  0  0  0  0  0
   48.5180   36.1670   39.6860 H   0  0  0  0  0  0  0  0  0  0  0  0
   46.9120   34.6670   39.1840 H   0  0  0  0  0  0  0  0  0  0  0  0
   45.7900   33.6120   41.0320 H   0  0  0  0  0  0  0  0  0  0  0  0
   46.0770   35.3410   41.1590 H   0  0  0  0  0  0  0  0  0  0  0  0
   46.3680   34.3860   43.6580 C   0  0  0  0  0  0  0  0  0  0  0  0
   45.5500   35.4890   43.4210 C   0  0  0  0  0  0  0  0  0  0  0  0
   44.6370   35.9020   44.3930 C   0  0  0  0  0  0  0  0  0  0  0  0
   44.6190   35.1560   45.5580 N   0  0  0  0  0  0  0  0  0  0  0  0
   45.4260   34.0970   45.7530 C   0  0  0  0  0  0  0  0  0  0  0  0
   46.2880   33.7260   44.8030 N   0  0  0  0  0  0  0  0  0  0  0  0
   45.4020   36.2050   42.6260 H   0  0  0  0  0  0  0  0  0  0  0  0
   43.9300   36.6910   44.4310 H   0  0  0  0  0  0  0  0  0  0  0  0
   45.3990   33.5320   46.6620 H   0  0  0  0  0  0  0  0  0  0  0  0
   48.0070   32.9570   39.7640 C   0  0  0  0  0  0  0  0  0  0  0  0
   47.8910   32.3120   40.6570 H   0  0  0  0  0  0  0  0  0  0  0  0
   49.1270   33.0400   39.6410 H   0  0  0  0  0  0  0  0  0  0  0  0
   47.4940   32.3270   38.5220 C   0  0  0  0  0  0  0  0  0  0  0  0
   46.5220   31.8120   38.6440 H   0  0  0  0  0  0  0  0  0  0  0  0
   48.2130   31.5290   38.2310 H   0  0  0  0  0  0  0  0  0  0  0  0
   47.3820   33.2520   37.3530 C   0  0  0  0  0  0  0  0  0  0  0  0
   47.8180   32.5930   36.0350 C   0  0  0  0  0  0  0  0  0  0  0  0
   48.6240   33.6700   36.6070 C   0  0  0  0  0  0  0  0  0  0  0  0
  1  7  1  1  0  0  0
  1  2  1  0  0  0  0
  1 17  1  0  0  0  0
  2  9  1  0  0  0  0
  3 10  1  0  0  0  0
  3 11  1  0  0  0  0
  3  2  1  0  0  0  0
  4  3  1  0  0  0  0
  5 14  1  6  0  0  0
  5  4  1  0  0  0  0
  5  6  1  0  0  0  0
  6  1  1  0  0  0  0
  8  2  1  0  0  0  0
 12  4  1  0  0  0  0
 13  4  1  0  0  0  0
 15  6  1  0  0  0  0
 16  6  1  0  0  0  0
 17 22  1  0  0  0  0
 18 17  2  0  0  0  0
 18 19  1  0  0  0  0
 19 24  1  0  0  0  0
 19 20  2  0  0  0  0
 20 21  1  0  0  0  0
 21 25  1  0  0  0  0
 22 21  2  0  0  0  0
 23 18  1  0  0  0  0
 26  5  1  0  0  0  0
 26 27  1  0  0  0  0
 28 26  1  0  0  0  0
 29 30  1  0  0  0  0
 29 26  1  0  0  0  0
 31 29  1  0  0  0  0
 32 29  1  0  0  0  0
 33 34  1  0  0  0  0
 33 32  1  0  0  0  0
 34 32  1  0  0  0  0
M  END
>  <minimizedAffinity>
-5.17858601

>  <minimizedRMSD>
0.713010967

$$$$
