
 OpenBabel03242512543D

 23 24  0  0  0  0  0  0  0  0999 V2000
   45.2640   40.1050   45.3590 C   0  0  0  0  0  0  0  0  0  0  0  0
   44.9500   39.9540   46.4320 H   0  0  0  0  0  0  0  0  0  0  0  0
   46.3270   40.4490   45.4140 H   0  0  0  0  0  0  0  0  0  0  0  0
   44.8020   37.6850   45.1280 C   0  0  0  0  0  0  0  0  0  0  0  0
   45.3070   38.8180   44.6330 C   0  0  0  0  0  0  0  0  0  0  0  0
   44.8940   36.4720   44.3390 C   0  0  0  0  0  0  0  0  0  0  0  0
   44.9760   36.6160   42.9450 C   0  0  0  0  0  0  0  0  0  0  0  0
   45.0670   35.4950   42.1150 C   0  0  0  0  0  0  0  0  0  0  0  0
   45.0710   34.2840   42.7340 N   0  0  0  0  0  0  0  0  0  0  0  0
   44.9900   34.1600   44.0870 C   0  0  0  0  0  0  0  0  0  0  0  0
   44.9030   35.2450   44.8740 N   0  0  0  0  0  0  0  0  0  0  0  0
   44.9760   37.5520   42.4160 H   0  0  0  0  0  0  0  0  0  0  0  0
   45.1320   35.5270   41.0550 H   0  0  0  0  0  0  0  0  0  0  0  0
   44.9950   33.1800   44.5450 H   0  0  0  0  0  0  0  0  0  0  0  0
   44.5460   41.0610   44.7030 O   0  0  0  0  0  0  0  0  0  0  0  0
   42.6280   42.5130   45.5990 O   0  0  0  0  0  0  0  0  0  0  0  0
   44.1400   42.3800   45.6570 P   0  0  1  0  0  0  0  0  0  0  0  0
   44.6690   42.2060   47.2300 O   0  0  0  0  0  0  0  0  0  0  0  0
   44.4100   41.3250   47.6070 H   0  0  0  0  0  0  0  0  0  0  0  0
   44.7800   43.8280   45.0470 O   0  0  0  0  0  0  0  0  0  0  0  0
   45.3700   44.5130   46.1010 C   0  0  0  0  0  0  0  0  0  0  0  0
   45.1180   45.9900   46.2150 C   0  0  0  0  0  0  0  0  0  0  0  0
   46.4200   45.5210   45.6660 C   0  0  0  0  0  0  0  0  0  0  0  0
  1  3  1  0  0  0  0
  1  2  1  0  0  0  0
  5  4  2  0  0  0  0
  5  1  1  0  0  0  0
  6 11  1  0  0  0  0
  6  4  1  0  0  0  0
  7  6  2  0  0  0  0
  8  9  2  0  0  0  0
  8  7  1  0  0  0  0
  9 10  1  0  0  0  0
 10 14  1  0  0  0  0
 10 11  2  0  0  0  0
 12  7  1  0  0  0  0
 13  8  1  0  0  0  0
 15  1  1  0  0  0  0
 15 17  1  0  0  0  0
 17 16  2  1  0  0  0
 17 18  1  0  0  0  0
 18 19  1  0  0  0  0
 20 17  1  0  0  0  0
 20 21  1  0  0  0  0
 21 22  1  0  0  0  0
 23 21  1  0  0  0  0
 23 22  1  0  0  0  0
M  END
>  <minimizedAffinity>
-2.72125125

>  <minimizedRMSD>
1.01999998

$$$$
