
 OpenBabel03252501033D

 25 27  0  0  1  0  0  0  0  0999 V2000
   46.3230   32.2280   44.1690 C   0  0  1  0  0  0  0  0  0  0  0  0
   46.5400   31.6870   42.8020 C   0  0  0  0  0  0  0  0  0  0  0  0
   47.6880   32.2740   43.6140 C   0  0  1  0  0  0  0  0  0  0  0  0
   46.0850   31.4930   44.9760 H   0  0  0  0  0  0  0  0  0  0  0  0
   46.3670   32.2750   41.8790 H   0  0  0  0  0  0  0  0  0  0  0  0
   46.5080   30.5870   42.6240 H   0  0  0  0  0  0  0  0  0  0  0  0
   48.4040   31.4810   43.9080 H   0  0  0  0  0  0  0  0  0  0  0  0
   44.4140   35.3260   43.1710 C   0  0  0  0  0  0  0  0  0  0  0  0
   45.1010   34.1090   43.0520 C   0  0  0  0  0  0  0  0  0  0  0  0
   45.5780   33.5180   44.2300 C   0  0  0  0  0  0  0  0  0  0  0  0
   45.3640   34.1330   45.4280 N   0  0  0  0  0  0  0  0  0  0  0  0
   44.6950   35.3080   45.5060 C   0  0  0  0  0  0  0  0  0  0  0  0
   44.2200   35.9040   44.3760 N   0  0  0  0  0  0  0  0  0  0  0  0
   43.9990   35.8790   42.3480 H   0  0  0  0  0  0  0  0  0  0  0  0
   45.2240   33.6950   42.0810 H   0  0  0  0  0  0  0  0  0  0  0  0
   44.5140   35.8080   46.4380 H   0  0  0  0  0  0  0  0  0  0  0  0
   48.2230   33.4760   43.3580 O   0  0  0  0  0  0  0  0  0  0  0  0
   50.5990   32.4550   42.7690 O   0  0  0  0  0  0  0  0  0  0  0  0
   49.6130   33.5670   42.4900 P   0  0  2  0  0  0  0  0  0  0  0  0
   50.4630   35.0120   42.6890 O   0  0  0  0  0  0  0  0  0  0  0  0
   51.2450   34.8930   43.2830 H   0  0  0  0  0  0  0  0  0  0  0  0
   49.2540   33.4410   40.8460 O   0  0  0  0  0  0  0  0  0  0  0  0
   48.2840   34.3230   40.4280 C   0  0  0  0  0  0  0  0  0  0  0  0
   46.9970   33.8390   39.8580 C   0  0  0  0  0  0  0  0  0  0  0  0
   48.0810   34.3770   38.9110 C   0  0  0  0  0  0  0  0  0  0  0  0
  1 10  1  0  0  0  0
  1  4  1  1  0  0  0
  2  3  1  0  0  0  0
  2  1  1  0  0  0  0
  3  7  1  1  0  0  0
  3  1  1  0  0  0  0
  5  2  1  0  0  0  0
  6  2  1  0  0  0  0
  8 13  1  0  0  0  0
  9  8  2  0  0  0  0
  9 10  1  0  0  0  0
 10 11  2  0  0  0  0
 11 12  1  0  0  0  0
 12 16  1  0  0  0  0
 13 12  2  0  0  0  0
 14  8  1  0  0  0  0
 15  9  1  0  0  0  0
 17  3  1  0  0  0  0
 19 20  1  0  0  0  0
 19 18  2  1  0  0  0
 19 17  1  0  0  0  0
 20 21  1  0  0  0  0
 22 19  1  0  0  0  0
 23 22  1  0  0  0  0
 24 23  1  0  0  0  0
 25 24  1  0  0  0  0
 25 23  1  0  0  0  0
M  END
>  <minimizedAffinity>
-4.27793789

>  <minimizedRMSD>
3.8164978

$$$$
