
 OpenBabel03252501323D

 18 19  0  0  0  0  0  0  0  0999 V2000
   46.1460   31.3560   46.7090 C   0  0  0  0  0  0  0  0  0  0  0  0
   45.6880   31.5400   48.0000 C   0  0  0  0  0  0  0  0  0  0  0  0
   46.5160   31.0800   49.0170 C   0  0  0  0  0  0  0  0  0  0  0  0
   47.6770   30.5010   48.6770 N   0  0  0  0  0  0  0  0  0  0  0  0
   48.0910   30.3370   47.4160 C   0  0  0  0  0  0  0  0  0  0  0  0
   47.3150   30.7720   46.3970 N   0  0  0  0  0  0  0  0  0  0  0  0
   46.1450   31.2310   50.0190 H   0  0  0  0  0  0  0  0  0  0  0  0
   49.0500   29.8530   47.2910 H   0  0  0  0  0  0  0  0  0  0  0  0
   45.7330   33.1320   45.2340 C   0  0  0  0  0  0  0  0  0  0  0  0
   46.5210   33.6290   46.1170 O   0  0  0  0  0  0  0  0  0  0  0  0
   45.4370   31.7620   45.5080 N   0  0  0  0  0  0  0  0  0  0  0  0
   44.8010   31.2100   44.8910 H   0  0  0  0  0  0  0  0  0  0  0  0
   45.1660   33.8380   44.0520 C   0  0  0  0  0  3  0  0  0  0  0  0
   44.9380   35.3020   44.0990 C   0  0  0  0  0  2  0  0  0  0  0  0
   46.0580   34.7800   43.2810 C   0  0  0  0  0  2  0  0  0  0  0  0
   44.4280   32.1790   48.1550 N   0  0  0  0  0  0  0  0  0  0  0  0
   44.1730   33.1770   48.2530 H   0  0  0  0  0  0  0  0  0  0  0  0
   43.8900   31.2630   48.1300 H   0  0  0  0  0  0  0  0  0  0  0  0
  1  2  1  0  0  0  0
  2 16  1  0  0  0  0
  2  3  2  0  0  0  0
  3  7  1  0  0  0  0
  4  3  1  0  0  0  0
  5  4  2  0  0  0  0
  6  1  2  0  0  0  0
  6  5  1  0  0  0  0
  8  5  1  0  0  0  0
  9 11  1  0  0  0  0
  9 10  2  0  0  0  0
 11  1  1  0  0  0  0
 12 11  1  0  0  0  0
 13 14  1  0  0  0  0
 13  9  1  0  0  0  0
 15 13  1  0  0  0  0
 15 14  1  0  0  0  0
 16 17  1  0  0  0  0
 18 16  1  0  0  0  0
M  END
>  <minimizedAffinity>
-4.15143347

>  <minimizedRMSD>
3.68793631

$$$$
