
 OpenBabel03252509003D

 39 41  0  0  1  0  0  0  0  0999 V2000
   46.8130   34.3840   43.5040 N   0  0  0  0  0  0  0  0  0  0  0  0
   46.4250   35.1670   42.3830 C   0  0  0  0  0  0  0  0  0  0  0  0
   44.9370   35.2400   42.1350 C   0  0  0  0  0  0  0  0  0  0  0  0
   44.0970   35.2070   43.3840 C   0  0  0  0  0  0  0  0  0  0  0  0
   44.9470   35.1940   44.6300 C   0  0  0  0  0  0  0  0  0  0  0  0
   45.8710   33.9420   44.4210 C   0  0  2  0  0  0  0  0  0  0  0  0
   46.7400   36.2180   42.5910 H   0  0  0  0  0  0  0  0  0  0  0  0
   46.8970   34.9080   41.4330 H   0  0  0  0  0  0  0  0  0  0  0  0
   44.6820   34.4170   41.4320 H   0  0  0  0  0  0  0  0  0  0  0  0
   44.7280   36.1750   41.5700 H   0  0  0  0  0  0  0  0  0  0  0  0
   43.4810   34.2940   43.3480 H   0  0  0  0  0  0  0  0  0  0  0  0
   43.4490   36.1170   43.4390 H   0  0  0  0  0  0  0  0  0  0  0  0
   45.6000   36.0640   44.6950 H   0  0  0  0  0  0  0  0  0  0  0  0
   44.2890   35.0240   45.4850 H   0  0  0  0  0  0  0  0  0  0  0  0
   45.1940   33.1170   44.1390 H   0  0  0  0  0  0  0  0  0  0  0  0
   47.9900   33.5950   43.2900 C   0  0  0  0  0  0  0  0  0  0  0  0
   48.7180   34.2000   42.7240 H   0  0  0  0  0  0  0  0  0  0  0  0
   48.4100   33.3440   44.2930 H   0  0  0  0  0  0  0  0  0  0  0  0
   47.6100   32.3210   42.6150 C   0  0  0  0  0  0  0  0  0  0  0  0
   47.7510   31.4100   43.2100 H   0  0  0  0  0  0  0  0  0  0  0  0
   46.5280   32.3350   42.3380 H   0  0  0  0  0  0  0  0  0  0  0  0
   50.3470   31.6440   40.1280 C   0  0  0  0  0  0  0  0  0  0  0  0
   49.6410   31.7490   41.3400 C   0  0  0  0  0  0  0  0  0  0  0  0
   48.3440   32.2140   41.3260 C   0  0  0  0  0  0  0  0  0  0  0  0
   47.8160   32.5470   40.1430 N   0  0  0  0  0  0  0  0  0  0  0  0
   48.5010   32.4420   38.9870 C   0  0  0  0  0  0  0  0  0  0  0  0
   49.7680   31.9920   38.9680 N   0  0  0  0  0  0  0  0  0  0  0  0
   51.3650   31.2790   40.1370 H   0  0  0  0  0  0  0  0  0  0  0  0
   50.1390   31.4600   42.2590 H   0  0  0  0  0  0  0  0  0  0  0  0
   48.0580   32.7140   38.0410 H   0  0  0  0  0  0  0  0  0  0  0  0
   46.4300   33.7950   45.6910 O   0  0  0  0  0  0  0  0  0  0  0  0
   45.6510   31.2890   45.2750 O   0  0  0  0  0  0  0  0  0  0  0  0
   46.2020   32.2570   46.3270 P   0  0  2  0  0  0  0  0  0  0  0  0
   44.9490   32.4030   47.4820 O   0  0  0  0  0  0  0  0  0  0  0  0
   45.1310   33.1600   48.0850 H   0  0  0  0  0  0  0  0  0  0  0  0
   47.5560   31.6730   47.0900 O   0  0  0  0  0  0  0  0  0  0  0  0
   47.6020   31.8400   48.4490 C   0  0  0  0  0  3  0  0  0  0  0  0
   47.8500   30.7160   49.3790 C   0  0  0  0  0  2  0  0  0  0  0  0
   48.9930   31.6180   49.0550 C   0  0  0  0  0  2  0  0  0  0  0  0
  1  6  1  0  0  0  0
  2  7  1  0  0  0  0
  2  1  1  0  0  0  0
  3  2  1  0  0  0  0
  3  4  1  0  0  0  0
  4 12  1  0  0  0  0
  4  5  1  0  0  0  0
  5 13  1  0  0  0  0
  5 14  1  0  0  0  0
  6 15  1  6  0  0  0
  6  5  1  0  0  0  0
  6 31  1  0  0  0  0
  8  2  1  0  0  0  0
  9  3  1  0  0  0  0
 10  3  1  0  0  0  0
 11  4  1  0  0  0  0
 16  1  1  0  0  0  0
 16 18  1  0  0  0  0
 17 16  1  0  0  0  0
 19 20  1  0  0  0  0
 19 16  1  0  0  0  0
 21 19  1  0  0  0  0
 22 28  1  0  0  0  0
 22 23  1  0  0  0  0
 23 29  1  0  0  0  0
 24 23  2  0  0  0  0
 24 19  1  0  0  0  0
 25 24  1  0  0  0  0
 26 25  2  0  0  0  0
 27 26  1  0  0  0  0
 27 22  2  0  0  0  0
 30 26  1  0  0  0  0
 31 33  1  0  0  0  0
 33 32  2  6  0  0  0
 33 36  1  0  0  0  0
 33 34  1  0  0  0  0
 34 35  1  0  0  0  0
 36 37  1  0  0  0  0
 37 39  1  0  0  0  0
 37 38  1  0  0  0  0
 39 38  1  0  0  0  0
M  END
>  <minimizedAffinity>
-4.41389561

>  <minimizedRMSD>
1.75258005

$$$$
