
 OpenBabel03252509003D

 39 41  0  0  1  0  0  0  0  0999 V2000
   46.6020   34.5420   43.6070 N   0  0  0  0  0  0  0  0  0  0  0  0
   46.0960   35.5070   42.6950 C   0  0  0  0  0  0  0  0  0  0  0  0
   44.5920   35.6530   42.6840 C   0  0  0  0  0  0  0  0  0  0  0  0
   43.9370   35.4340   44.0210 C   0  0  0  0  0  0  0  0  0  0  0  0
   44.9530   35.1970   45.1110 C   0  0  0  0  0  0  0  0  0  0  0  0
   45.7800   33.9760   44.5700 C   0  0  2  0  0  0  0  0  0  0  0  0
   46.4840   36.5030   43.0200 H   0  0  0  0  0  0  0  0  0  0  0  0
   46.4170   35.3990   41.6580 H   0  0  0  0  0  0  0  0  0  0  0  0
   44.2030   34.9630   41.9030 H   0  0  0  0  0  0  0  0  0  0  0  0
   44.3490   36.6730   42.3120 H   0  0  0  0  0  0  0  0  0  0  0  0
   43.2810   34.5530   43.9300 H   0  0  0  0  0  0  0  0  0  0  0  0
   43.3460   36.3370   44.3160 H   0  0  0  0  0  0  0  0  0  0  0  0
   45.6480   36.0290   45.2170 H   0  0  0  0  0  0  0  0  0  0  0  0
   44.4150   34.9020   46.0140 H   0  0  0  0  0  0  0  0  0  0  0  0
   45.0320   33.2240   44.2630 H   0  0  0  0  0  0  0  0  0  0  0  0
   47.6990   33.7740   43.0990 C   0  0  0  0  0  0  0  0  0  0  0  0
   48.3900   34.4550   42.5750 H   0  0  0  0  0  0  0  0  0  0  0  0
   48.2180   33.3140   43.9750 H   0  0  0  0  0  0  0  0  0  0  0  0
   47.1720   32.6720   42.2440 C   0  0  0  0  0  0  0  0  0  0  0  0
   47.3430   31.6570   42.6210 H   0  0  0  0  0  0  0  0  0  0  0  0
   46.0650   32.7670   42.1260 H   0  0  0  0  0  0  0  0  0  0  0  0
   49.3080   32.1240   39.1980 C   0  0  0  0  0  0  0  0  0  0  0  0
   48.7740   32.0010   40.4940 C   0  0  0  0  0  0  0  0  0  0  0  0
   47.7260   32.8130   40.8710 C   0  0  0  0  0  0  0  0  0  0  0  0
   47.2650   33.6900   39.9720 N   0  0  0  0  0  0  0  0  0  0  0  0
   47.7840   33.8000   38.7330 C   0  0  0  0  0  0  0  0  0  0  0  0
   48.8060   33.0220   38.3360 N   0  0  0  0  0  0  0  0  0  0  0  0
   50.1300   31.4870   38.9010 H   0  0  0  0  0  0  0  0  0  0  0  0
   49.2020   31.2650   41.1660 H   0  0  0  0  0  0  0  0  0  0  0  0
   47.4000   34.5140   38.0200 H   0  0  0  0  0  0  0  0  0  0  0  0
   46.5050   33.6090   45.7040 O   0  0  0  0  0  0  0  0  0  0  0  0
   45.6360   31.1920   45.0280 O   0  0  0  0  0  0  0  0  0  0  0  0
   46.2130   32.0240   46.1780 P   0  0  2  0  0  0  0  0  0  0  0  0
   44.9560   32.0990   47.3340 O   0  0  0  0  0  0  0  0  0  0  0  0
   45.1610   32.7830   48.0140 H   0  0  0  0  0  0  0  0  0  0  0  0
   47.5380   31.3140   46.8830 O   0  0  0  0  0  0  0  0  0  0  0  0
   47.2780   30.3320   47.8030 C   0  0  0  0  0  3  0  0  0  0  0  0
   46.9520   28.9430   47.4110 C   0  0  0  0  0  2  0  0  0  0  0  0
   48.3460   29.2330   47.8550 C   0  0  0  0  0  2  0  0  0  0  0  0
  1  6  1  0  0  0  0
  2  7  1  0  0  0  0
  2  1  1  0  0  0  0
  3  2  1  0  0  0  0
  3  4  1  0  0  0  0
  4 12  1  0  0  0  0
  4  5  1  0  0  0  0
  5 13  1  0  0  0  0
  5 14  1  0  0  0  0
  6 15  1  6  0  0  0
  6  5  1  0  0  0  0
  6 31  1  0  0  0  0
  8  2  1  0  0  0  0
  9  3  1  0  0  0  0
 10  3  1  0  0  0  0
 11  4  1  0  0  0  0
 16  1  1  0  0  0  0
 16 18  1  0  0  0  0
 17 16  1  0  0  0  0
 19 20  1  0  0  0  0
 19 16  1  0  0  0  0
 21 19  1  0  0  0  0
 22 23  1  0  0  0  0
 23 24  2  0  0  0  0
 23 29  1  0  0  0  0
 24 19  1  0  0  0  0
 25 24  1  0  0  0  0
 26 25  2  0  0  0  0
 27 26  1  0  0  0  0
 27 22  2  0  0  0  0
 28 22  1  0  0  0  0
 30 26  1  0  0  0  0
 31 33  1  0  0  0  0
 33 32  2  6  0  0  0
 33 36  1  0  0  0  0
 33 34  1  0  0  0  0
 34 35  1  0  0  0  0
 36 37  1  0  0  0  0
 37 39  1  0  0  0  0
 38 37  1  0  0  0  0
 38 39  1  0  0  0  0
M  END
>  <minimizedAffinity>
-4.14545918

>  <minimizedRMSD>
1.14211833

$$$$
