
 OpenBabel03252501213D

 26 27  0  0  0  0  0  0  0  0999 V2000
   37.1620   29.1710   42.0370 C   0  0  0  0  0  0  0  0  0  0  0  0
   36.2410   29.4650   41.5620 H   0  0  0  0  0  0  0  0  0  0  0  0
   37.4540   28.1960   41.5440 H   0  0  0  0  0  0  0  0  0  0  0  0
   39.4950   29.8000   42.4770 C   0  0  0  0  0  0  0  0  0  0  0  0
   38.2820   30.0720   41.8610 C   0  0  0  0  0  0  0  0  0  0  0  0
   38.2390   31.2340   41.0930 C   0  0  0  0  0  0  0  0  0  0  0  0
   39.3470   32.0330   40.9790 N   0  0  0  0  0  0  0  0  0  0  0  0
   40.4940   31.7160   41.6010 C   0  0  0  0  0  0  0  0  0  0  0  0
   40.5820   30.5900   42.3610 N   0  0  0  0  0  0  0  0  0  0  0  0
   39.5610   28.8900   43.0900 H   0  0  0  0  0  0  0  0  0  0  0  0
   41.3800   32.3340   41.5230 H   0  0  0  0  0  0  0  0  0  0  0  0
   36.9460   31.5060   40.4480 C   0  0  0  0  0  0  0  0  0  0  0  0
   36.7540   30.6080   39.4120 F   0  0  0  0  0  0  0  0  0  0  0  0
   37.0120   32.7510   39.9080 F   0  0  0  0  0  0  0  0  0  0  0  0
   35.9010   31.3100   41.3040 F   0  0  0  0  0  0  0  0  0  0  0  0
   37.0030   28.8410   43.4610 N   0  0  0  0  0  0  0  0  0  0  0  0
   37.8800   28.9830   44.0010 H   0  0  0  0  0  0  0  0  0  0  0  0
   36.5900   27.4530   43.5000 C   0  0  0  0  0  0  0  0  0  0  0  0
   37.0550   26.9860   44.3920 H   0  0  0  0  0  0  0  0  0  0  0  0
   35.5000   27.3200   43.5870 H   0  0  0  0  0  0  0  0  0  0  0  0
   37.0650   26.6720   42.2940 C   0  0  0  0  0  0  0  0  0  0  0  0
   38.1160   26.9990   42.0950 H   0  0  0  0  0  0  0  0  0  0  0  0
   36.4760   27.0210   41.4370 H   0  0  0  0  0  0  0  0  0  0  0  0
   36.9130   25.1960   42.4540 C   0  0  0  0  0  3  0  0  0  0  0  0
   37.9070   24.2100   42.0350 C   0  0  0  0  0  2  0  0  0  0  0  0
   36.7570   24.4660   41.0900 C   0  0  0  0  0  2  0  0  0  0  0  0
  1 16  1  0  0  0  0
  2  1  1  0  0  0  0
  3  1  1  0  0  0  0
  4 10  1  0  0  0  0
  5  1  1  0  0  0  0
  5  4  2  0  0  0  0
  6  5  1  0  0  0  0
  7  6  2  0  0  0  0
  7  8  1  0  0  0  0
  8  9  2  0  0  0  0
  9  4  1  0  0  0  0
 11  8  1  0  0  0  0
 12  6  1  0  0  0  0
 12 15  1  0  0  0  0
 13 12  1  0  0  0  0
 14 12  1  0  0  0  0
 16 18  1  0  0  0  0
 16 17  1  0  0  0  0
 18 20  1  0  0  0  0
 18 19  1  0  0  0  0
 21 24  1  0  0  0  0
 21 18  1  0  0  0  0
 22 21  1  0  0  0  0
 23 21  1  0  0  0  0
 25 24  1  0  0  0  0
 26 25  1  0  0  0  0
 26 24  1  0  0  0  0
M  END
>  <minimizedAffinity>
-4.65548897

$$$$

 OpenBabel03252501213D

 26 27  0  0  0  0  0  0  0  0999 V2000
   36.7900   27.7910   42.7210 C   0  0  0  0  0  0  0  0  0  0  0  0
   36.1880   27.4550   41.8920 H   0  0  0  0  0  0  0  0  0  0  0  0
   36.1890   27.5430   43.6450 H   0  0  0  0  0  0  0  0  0  0  0  0
   39.1490   27.8410   43.4040 C   0  0  0  0  0  0  0  0  0  0  0  0
   38.0730   27.1390   42.8780 C   0  0  0  0  0  0  0  0  0  0  0  0
   38.3260   25.8130   42.5310 C   0  0  0  0  0  0  0  0  0  0  0  0
   39.5730   25.2730   42.7120 N   0  0  0  0  0  0  0  0  0  0  0  0
   40.5750   26.0060   43.2260 C   0  0  0  0  0  0  0  0  0  0  0  0
   40.3730   27.3040   43.5790 N   0  0  0  0  0  0  0  0  0  0  0  0
   38.9810   28.8890   43.6870 H   0  0  0  0  0  0  0  0  0  0  0  0
   41.5670   25.5960   43.3770 H   0  0  0  0  0  0  0  0  0  0  0  0
   37.1760   25.0850   41.9750 C   0  0  0  0  0  0  0  0  0  0  0  0
   37.5520   23.7840   41.6920 F   0  0  0  0  0  0  0  0  0  0  0  0
   36.8420   25.6830   40.8020 F   0  0  0  0  0  0  0  0  0  0  0  0
   36.1550   24.9860   42.8760 F   0  0  0  0  0  0  0  0  0  0  0  0
   36.9600   29.2510   42.7620 N   0  0  0  0  0  0  0  0  0  0  0  0
   36.3570   29.7000   43.4790 H   0  0  0  0  0  0  0  0  0  0  0  0
   36.6260   29.7240   41.4340 C   0  0  0  0  0  0  0  0  0  0  0  0
   36.7990   28.8920   40.7240 H   0  0  0  0  0  0  0  0  0  0  0  0
   35.5740   30.0350   41.3300 H   0  0  0  0  0  0  0  0  0  0  0  0
   37.5030   30.8750   40.9910 C   0  0  0  0  0  0  0  0  0  0  0  0
   38.4260   30.4220   40.5510 H   0  0  0  0  0  0  0  0  0  0  0  0
   37.8290   31.3960   41.9000 H   0  0  0  0  0  0  0  0  0  0  0  0
   36.8040   31.8260   40.0770 C   0  0  0  0  0  3  0  0  0  0  0  0
   37.2600   32.1700   38.7310 C   0  0  0  0  0  2  0  0  0  0  0  0
   37.6210   33.1280   39.8410 C   0  0  0  0  0  2  0  0  0  0  0  0
  1 16  1  0  0  0  0
  1  5  1  0  0  0  0
  1  3  1  0  0  0  0
  2  1  1  0  0  0  0
  4  9  1  0  0  0  0
  4 10  1  0  0  0  0
  5  4  2  0  0  0  0
  6  7  2  0  0  0  0
  6  5  1  0  0  0  0
  7  8  1  0  0  0  0
  8 11  1  0  0  0  0
  8  9  2  0  0  0  0
 12  6  1  0  0  0  0
 12 15  1  0  0  0  0
 13 12  1  0  0  0  0
 14 12  1  0  0  0  0
 16 17  1  0  0  0  0
 18 16  1  0  0  0  0
 19 18  1  0  0  0  0
 20 18  1  0  0  0  0
 21 18  1  0  0  0  0
 21 23  1  0  0  0  0
 22 21  1  0  0  0  0
 24 21  1  0  0  0  0
 25 26  1  0  0  0  0
 25 24  1  0  0  0  0
 26 24  1  0  0  0  0
M  END
>  <minimizedAffinity>
-4.54294825

$$$$

 OpenBabel03252501213D

 26 27  0  0  0  0  0  0  0  0999 V2000
   38.1010   29.7880   41.4720 C   0  0  0  0  0  0  0  0  0  0  0  0
   38.0300   29.0260   40.7120 H   0  0  0  0  0  0  0  0  0  0  0  0
   39.0720   29.5780   42.0120 H   0  0  0  0  0  0  0  0  0  0  0  0
   37.1360   31.6950   40.2620 C   0  0  0  0  0  0  0  0  0  0  0  0
   38.1820   31.1520   40.9950 C   0  0  0  0  0  0  0  0  0  0  0  0
   39.2670   31.9980   41.2210 C   0  0  0  0  0  0  0  0  0  0  0  0
   39.2620   33.2790   40.7330 N   0  0  0  0  0  0  0  0  0  0  0  0
   38.2180   33.7460   40.0280 C   0  0  0  0  0  0  0  0  0  0  0  0
   37.1380   32.9560   39.7840 N   0  0  0  0  0  0  0  0  0  0  0  0
   36.2670   31.0520   40.0670 H   0  0  0  0  0  0  0  0  0  0  0  0
   38.1970   34.7560   39.6340 H   0  0  0  0  0  0  0  0  0  0  0  0
   40.3660   31.4070   41.9990 C   0  0  0  0  0  0  0  0  0  0  0  0
   40.6970   30.1770   41.4590 F   0  0  0  0  0  0  0  0  0  0  0  0
   39.9060   31.1950   43.2590 F   0  0  0  0  0  0  0  0  0  0  0  0
   41.5020   32.1590   41.9250 F   0  0  0  0  0  0  0  0  0  0  0  0
   37.0620   29.6780   42.5060 N   0  0  0  0  0  0  0  0  0  0  0  0
   36.8640   30.5890   42.9660 H   0  0  0  0  0  0  0  0  0  0  0  0
   37.5580   28.7110   43.4630 C   0  0  0  0  0  0  0  0  0  0  0  0
   38.6060   28.4710   43.1910 H   0  0  0  0  0  0  0  0  0  0  0  0
   37.5630   29.0810   44.5000 H   0  0  0  0  0  0  0  0  0  0  0  0
   36.7840   27.4120   43.4300 C   0  0  0  0  0  0  0  0  0  0  0  0
   35.7020   27.6830   43.5120 H   0  0  0  0  0  0  0  0  0  0  0  0
   37.0280   26.8720   44.3530 H   0  0  0  0  0  0  0  0  0  0  0  0
   37.1040   26.5680   42.2410 C   0  0  0  0  0  3  0  0  0  0  0  0
   36.9510   25.1150   42.1890 C   0  0  0  0  0  2  0  0  0  0  0  0
   38.3340   25.6470   42.4840 C   0  0  0  0  0  2  0  0  0  0  0  0
  1  3  1  0  0  0  0
  1 16  1  0  0  0  0
  2  1  1  0  0  0  0
  4  5  1  0  0  0  0
  5  6  2  0  0  0  0
  5  1  1  0  0  0  0
  6 12  1  0  0  0  0
  7  6  1  0  0  0  0
  8  7  2  0  0  0  0
  9  8  1  0  0  0  0
  9  4  2  0  0  0  0
 10  4  1  0  0  0  0
 11  8  1  0  0  0  0
 12 14  1  0  0  0  0
 13 12  1  0  0  0  0
 15 12  1  0  0  0  0
 16 17  1  0  0  0  0
 16 18  1  0  0  0  0
 18 20  1  0  0  0  0
 19 18  1  0  0  0  0
 21 18  1  0  0  0  0
 21 22  1  0  0  0  0
 21 23  1  0  0  0  0
 24 26  1  0  0  0  0
 24 21  1  0  0  0  0
 25 24  1  0  0  0  0
 25 26  1  0  0  0  0
M  END
>  <minimizedAffinity>
-4.48614168

$$$$

 OpenBabel03252501213D

 26 27  0  0  0  0  0  0  0  0999 V2000
   36.8000   27.8780   42.6180 C   0  0  0  0  0  0  0  0  0  0  0  0
   36.2350   27.5700   41.7530 H   0  0  0  0  0  0  0  0  0  0  0  0
   36.1660   27.5840   43.5070 H   0  0  0  0  0  0  0  0  0  0  0  0
   39.1540   27.9520   43.3150 C   0  0  0  0  0  0  0  0  0  0  0  0
   38.0840   27.2340   42.7980 C   0  0  0  0  0  0  0  0  0  0  0  0
   38.3440   25.9020   42.4840 C   0  0  0  0  0  0  0  0  0  0  0  0
   39.5920   25.3710   42.6860 N   0  0  0  0  0  0  0  0  0  0  0  0
   40.5880   26.1180   43.1890 C   0  0  0  0  0  0  0  0  0  0  0  0
   40.3790   27.4240   43.5110 N   0  0  0  0  0  0  0  0  0  0  0  0
   38.9800   29.0060   43.5730 H   0  0  0  0  0  0  0  0  0  0  0  0
   41.5800   25.7160   43.3550 H   0  0  0  0  0  0  0  0  0  0  0  0
   37.2000   25.1570   41.9380 C   0  0  0  0  0  0  0  0  0  0  0  0
   37.6030   23.8720   41.6160 F   0  0  0  0  0  0  0  0  0  0  0  0
   36.8230   25.7720   40.7870 F   0  0  0  0  0  0  0  0  0  0  0  0
   36.2040   25.0100   42.8590 F   0  0  0  0  0  0  0  0  0  0  0  0
   36.9490   29.3360   42.7270 N   0  0  0  0  0  0  0  0  0  0  0  0
   36.3760   29.7370   43.4960 H   0  0  0  0  0  0  0  0  0  0  0  0
   36.5410   29.8710   41.4450 C   0  0  0  0  0  0  0  0  0  0  0  0
   36.0810   30.8640   41.6220 H   0  0  0  0  0  0  0  0  0  0  0  0
   37.3760   30.0140   40.7410 H   0  0  0  0  0  0  0  0  0  0  0  0
   35.4950   29.0140   40.7650 C   0  0  0  0  0  0  0  0  0  0  0  0
   34.5250   29.2230   41.2820 H   0  0  0  0  0  0  0  0  0  0  0  0
   35.7380   27.9700   40.9980 H   0  0  0  0  0  0  0  0  0  0  0  0
   35.4440   29.2130   39.2870 C   0  0  0  0  0  3  0  0  0  0  0  0
   34.3220   28.8220   38.4350 C   0  0  0  0  0  2  0  0  0  0  0  0
   35.4910   27.8680   38.5070 C   0  0  0  0  0  2  0  0  0  0  0  0
  1 16  1  0  0  0  0
  1  5  1  0  0  0  0
  1  3  1  0  0  0  0
  2  1  1  0  0  0  0
  4  9  1  0  0  0  0
  4 10  1  0  0  0  0
  5  4  2  0  0  0  0
  6  7  2  0  0  0  0
  6  5  1  0  0  0  0
  7  8  1  0  0  0  0
  8 11  1  0  0  0  0
  8  9  2  0  0  0  0
 12  6  1  0  0  0  0
 12 15  1  0  0  0  0
 13 12  1  0  0  0  0
 14 12  1  0  0  0  0
 16 17  1  0  0  0  0
 18 19  1  0  0  0  0
 18 16  1  0  0  0  0
 20 18  1  0  0  0  0
 21 23  1  0  0  0  0
 21 22  1  0  0  0  0
 21 18  1  0  0  0  0
 24 21  1  0  0  0  0
 25 26  1  0  0  0  0
 25 24  1  0  0  0  0
 26 24  1  0  0  0  0
M  END
>  <minimizedAffinity>
-4.44916677

$$$$

 OpenBabel03252501213D

 26 27  0  0  0  0  0  0  0  0999 V2000
   37.9770   28.9120   43.1730 C   0  0  0  0  0  0  0  0  0  0  0  0
   36.9400   28.7200   43.3970 H   0  0  0  0  0  0  0  0  0  0  0  0
   38.3630   29.5120   44.0500 H   0  0  0  0  0  0  0  0  0  0  0  0
   40.1970   27.8660   43.2620 C   0  0  0  0  0  0  0  0  0  0  0  0
   38.8290   27.7460   43.0660 C   0  0  0  0  0  0  0  0  0  0  0  0
   38.3680   26.4640   42.7700 C   0  0  0  0  0  0  0  0  0  0  0  0
   39.2450   25.4140   42.6860 N   0  0  0  0  0  0  0  0  0  0  0  0
   40.5610   25.5940   42.8870 C   0  0  0  0  0  0  0  0  0  0  0  0
   41.0540   26.8280   43.1780 N   0  0  0  0  0  0  0  0  0  0  0  0
   40.5900   28.8650   43.4970 H   0  0  0  0  0  0  0  0  0  0  0  0
   41.2690   24.7760   42.8250 H   0  0  0  0  0  0  0  0  0  0  0  0
   36.9170   26.3560   42.5640 C   0  0  0  0  0  0  0  0  0  0  0  0
   36.5510   25.0210   42.5810 F   0  0  0  0  0  0  0  0  0  0  0  0
   36.6410   26.8440   41.3270 F   0  0  0  0  0  0  0  0  0  0  0  0
   36.2160   26.9430   43.5780 F   0  0  0  0  0  0  0  0  0  0  0  0
   38.1680   29.7830   42.0050 N   0  0  0  0  0  0  0  0  0  0  0  0
   38.6940   30.6500   42.2380 H   0  0  0  0  0  0  0  0  0  0  0  0
   36.8380   30.0980   41.5250 C   0  0  0  0  0  0  0  0  0  0  0  0
   36.4980   29.2550   40.8910 H   0  0  0  0  0  0  0  0  0  0  0  0
   36.0990   30.2260   42.3310 H   0  0  0  0  0  0  0  0  0  0  0  0
   36.8120   31.3400   40.6610 C   0  0  0  0  0  0  0  0  0  0  0  0
   37.7380   31.9180   40.9040 H   0  0  0  0  0  0  0  0  0  0  0  0
   35.9750   31.9550   41.0130 H   0  0  0  0  0  0  0  0  0  0  0  0
   36.6540   31.0400   39.2080 C   0  0  0  0  0  3  0  0  0  0  0  0
   37.6940   30.4550   38.3630 C   0  0  0  0  0  2  0  0  0  0  0  0
   37.5380   31.9560   38.3140 C   0  0  0  0  0  2  0  0  0  0  0  0
  1  2  1  0  0  0  0
  1  3  1  0  0  0  0
  4 10  1  0  0  0  0
  5  1  1  0  0  0  0
  5  4  2  0  0  0  0
  6  5  1  0  0  0  0
  7  6  2  0  0  0  0
  7  8  1  0  0  0  0
  8  9  2  0  0  0  0
  9  4  1  0  0  0  0
 11  8  1  0  0  0  0
 12 13  1  0  0  0  0
 12  6  1  0  0  0  0
 12 15  1  0  0  0  0
 14 12  1  0  0  0  0
 16 17  1  0  0  0  0
 16  1  1  0  0  0  0
 18 16  1  0  0  0  0
 18 20  1  0  0  0  0
 19 18  1  0  0  0  0
 21 22  1  0  0  0  0
 21 23  1  0  0  0  0
 21 18  1  0  0  0  0
 24 21  1  0  0  0  0
 25 24  1  0  0  0  0
 26 25  1  0  0  0  0
 26 24  1  0  0  0  0
M  END
>  <minimizedAffinity>
-4.42852306

$$$$

 OpenBabel03252501213D

 26 27  0  0  0  0  0  0  0  0999 V2000
   36.4400   31.3970   40.7230 C   0  0  0  0  0  0  0  0  0  0  0  0
   36.1300   32.3730   41.0580 H   0  0  0  0  0  0  0  0  0  0  0  0
   35.9180   31.2420   39.7320 H   0  0  0  0  0  0  0  0  0  0  0  0
   38.7120   30.8970   41.5090 C   0  0  0  0  0  0  0  0  0  0  0  0
   37.8570   31.2340   40.4700 C   0  0  0  0  0  0  0  0  0  0  0  0
   38.4530   31.3950   39.2210 C   0  0  0  0  0  0  0  0  0  0  0  0
   39.8050   31.2220   39.0700 N   0  0  0  0  0  0  0  0  0  0  0  0
   40.5810   30.8960   40.1170 C   0  0  0  0  0  0  0  0  0  0  0  0
   40.0410   30.7290   41.3540 N   0  0  0  0  0  0  0  0  0  0  0  0
   38.2710   30.7640   42.5070 H   0  0  0  0  0  0  0  0  0  0  0  0
   41.6510   30.7560   40.0160 H   0  0  0  0  0  0  0  0  0  0  0  0
   37.5320   31.7520   38.1330 C   0  0  0  0  0  0  0  0  0  0  0  0
   38.2480   31.8930   36.9560 F   0  0  0  0  0  0  0  0  0  0  0  0
   36.9920   32.9610   38.4350 F   0  0  0  0  0  0  0  0  0  0  0  0
   36.6210   30.7640   37.8930 F   0  0  0  0  0  0  0  0  0  0  0  0
   35.9540   30.3060   41.5800 N   0  0  0  0  0  0  0  0  0  0  0  0
   36.6850   29.9600   42.2340 H   0  0  0  0  0  0  0  0  0  0  0  0
   35.5290   29.2550   40.6780 C   0  0  0  0  0  0  0  0  0  0  0  0
   34.4750   29.0100   40.9170 H   0  0  0  0  0  0  0  0  0  0  0  0
   35.5680   29.5440   39.6160 H   0  0  0  0  0  0  0  0  0  0  0  0
   36.3300   27.9830   40.8500 C   0  0  0  0  0  0  0  0  0  0  0  0
   37.2210   28.0740   40.1800 H   0  0  0  0  0  0  0  0  0  0  0  0
   35.7250   27.1680   40.4340 H   0  0  0  0  0  0  0  0  0  0  0  0
   36.6730   27.6940   42.2730 C   0  0  0  0  0  3  0  0  0  0  0  0
   38.0230   27.4200   42.7620 C   0  0  0  0  0  2  0  0  0  0  0  0
   37.1400   26.2260   42.4830 C   0  0  0  0  0  2  0  0  0  0  0  0
  1  2  1  0  0  0  0
  1 16  1  0  0  0  0
  3  1  1  0  0  0  0
  4 10  1  0  0  0  0
  5  1  1  0  0  0  0
  5  4  2  0  0  0  0
  6  5  1  0  0  0  0
  7  6  2  0  0  0  0
  7  8  1  0  0  0  0
  8  9  2  0  0  0  0
  9  4  1  0  0  0  0
 11  8  1  0  0  0  0
 12 14  1  0  0  0  0
 12  6  1  0  0  0  0
 13 12  1  0  0  0  0
 15 12  1  0  0  0  0
 16 17  1  0  0  0  0
 18 21  1  0  0  0  0
 18 19  1  0  0  0  0
 18 16  1  0  0  0  0
 20 18  1  0  0  0  0
 21 24  1  0  0  0  0
 22 21  1  0  0  0  0
 23 21  1  0  0  0  0
 24 26  1  0  0  0  0
 24 25  1  0  0  0  0
 26 25  1  0  0  0  0
M  END
>  <minimizedAffinity>
-4.3519516

$$$$

 OpenBabel03252501213D

 26 27  0  0  0  0  0  0  0  0999 V2000
   38.7700   30.3930   39.3630 C   0  0  0  0  0  0  0  0  0  0  0  0
   37.8100   30.4610   38.8760 H   0  0  0  0  0  0  0  0  0  0  0  0
   39.4470   29.8840   38.6150 H   0  0  0  0  0  0  0  0  0  0  0  0
   40.7500   31.6890   40.0220 C   0  0  0  0  0  0  0  0  0  0  0  0
   39.4010   31.6530   39.6970 C   0  0  0  0  0  0  0  0  0  0  0  0
   38.7390   32.8790   39.7200 C   0  0  0  0  0  0  0  0  0  0  0  0
   39.4140   34.0270   40.0490 N   0  0  0  0  0  0  0  0  0  0  0  0
   40.7220   33.9960   40.3550 C   0  0  0  0  0  0  0  0  0  0  0  0
   41.4070   32.8210   40.3450 N   0  0  0  0  0  0  0  0  0  0  0  0
   41.2990   30.7370   40.0130 H   0  0  0  0  0  0  0  0  0  0  0  0
   41.2710   34.8920   40.6170 H   0  0  0  0  0  0  0  0  0  0  0  0
   37.3110   32.8230   39.3740 C   0  0  0  0  0  0  0  0  0  0  0  0
   36.7960   34.1070   39.3480 F   0  0  0  0  0  0  0  0  0  0  0  0
   36.6770   32.1430   40.3640 F   0  0  0  0  0  0  0  0  0  0  0  0
   37.1130   32.3210   38.1200 F   0  0  0  0  0  0  0  0  0  0  0  0
   38.7660   29.5070   40.5350 N   0  0  0  0  0  0  0  0  0  0  0  0
   39.6510   28.9700   40.6290 H   0  0  0  0  0  0  0  0  0  0  0  0
   37.6380   28.6170   40.3530 C   0  0  0  0  0  0  0  0  0  0  0  0
   37.1130   28.9200   39.4250 H   0  0  0  0  0  0  0  0  0  0  0  0
   37.9250   27.5600   40.2400 H   0  0  0  0  0  0  0  0  0  0  0  0
   36.6340   28.7140   41.4810 C   0  0  0  0  0  0  0  0  0  0  0  0
   35.8010   28.0110   41.2280 H   0  0  0  0  0  0  0  0  0  0  0  0
   36.1990   29.7200   41.4350 H   0  0  0  0  0  0  0  0  0  0  0  0
   37.2370   28.4750   42.8250 C   0  0  0  0  0  3  0  0  0  0  0  0
   37.8720   27.2260   43.2390 C   0  0  0  0  0  2  0  0  0  0  0  0
   36.4350   27.4340   43.6570 C   0  0  0  0  0  2  0  0  0  0  0  0
  1  5  1  0  0  0  0
  1 16  1  0  0  0  0
  2  1  1  0  0  0  0
  3  1  1  0  0  0  0
  4  9  1  0  0  0  0
  5  6  1  0  0  0  0
  5  4  2  0  0  0  0
  6  7  2  0  0  0  0
  7  8  1  0  0  0  0
  8 11  1  0  0  0  0
  9  8  2  0  0  0  0
 10  4  1  0  0  0  0
 12  6  1  0  0  0  0
 12 14  1  0  0  0  0
 13 12  1  0  0  0  0
 15 12  1  0  0  0  0
 16 17  1  0  0  0  0
 18 16  1  0  0  0  0
 18 21  1  0  0  0  0
 19 18  1  0  0  0  0
 20 18  1  0  0  0  0
 21 24  1  0  0  0  0
 22 21  1  0  0  0  0
 23 21  1  0  0  0  0
 24 25  1  0  0  0  0
 24 26  1  0  0  0  0
 25 26  1  0  0  0  0
M  END
>  <minimizedAffinity>
-4.26289272

$$$$

 OpenBabel03252501213D

 26 27  0  0  0  0  0  0  0  0999 V2000
   38.5250   29.5420   41.8840 C   0  0  0  0  0  0  0  0  0  0  0  0
   38.1910   28.6320   41.4130 H   0  0  0  0  0  0  0  0  0  0  0  0
   39.6530   29.4680   41.9090 H   0  0  0  0  0  0  0  0  0  0  0  0
   38.9530   31.9170   41.4240 C   0  0  0  0  0  0  0  0  0  0  0  0
   38.2100   30.7700   41.1840 C   0  0  0  0  0  0  0  0  0  0  0  0
   37.1810   30.8980   40.2520 C   0  0  0  0  0  0  0  0  0  0  0  0
   36.9490   32.1000   39.6340 N   0  0  0  0  0  0  0  0  0  0  0  0
   37.7040   33.1760   39.9110 C   0  0  0  0  0  0  0  0  0  0  0  0
   38.7190   33.0960   40.8130 N   0  0  0  0  0  0  0  0  0  0  0  0
   39.7710   31.8480   42.1540 H   0  0  0  0  0  0  0  0  0  0  0  0
   37.5360   34.1340   39.4330 H   0  0  0  0  0  0  0  0  0  0  0  0
   36.4040   29.6740   40.0100 C   0  0  0  0  0  0  0  0  0  0  0  0
   35.5320   29.8870   38.9570 F   0  0  0  0  0  0  0  0  0  0  0  0
   35.6600   29.4350   41.1210 F   0  0  0  0  0  0  0  0  0  0  0  0
   37.2010   28.6350   39.6240 F   0  0  0  0  0  0  0  0  0  0  0  0
   38.1230   29.6510   43.2940 N   0  0  0  0  0  0  0  0  0  0  0  0
   38.9170   29.9040   43.9150 H   0  0  0  0  0  0  0  0  0  0  0  0
   37.5800   28.3560   43.6490 C   0  0  0  0  0  0  0  0  0  0  0  0
   37.9650   28.0910   44.6540 H   0  0  0  0  0  0  0  0  0  0  0  0
   36.4800   28.3390   43.7010 H   0  0  0  0  0  0  0  0  0  0  0  0
   38.0240   27.2610   42.7030 C   0  0  0  0  0  0  0  0  0  0  0  0
   38.9470   26.8110   43.1470 H   0  0  0  0  0  0  0  0  0  0  0  0
   38.3460   27.7520   41.7770 H   0  0  0  0  0  0  0  0  0  0  0  0
   36.9490   26.2680   42.4110 C   0  0  0  0  0  3  0  0  0  0  0  0
   37.1770   24.8420   42.1810 C   0  0  0  0  0  2  0  0  0  0  0  0
   37.0310   25.7170   40.9590 C   0  0  0  0  0  2  0  0  0  0  0  0
  1  3  1  0  0  0  0
  1 16  1  0  0  0  0
  2  1  1  0  0  0  0
  4 10  1  0  0  0  0
  5  4  1  0  0  0  0
  5  1  1  0  0  0  0
  6  5  2  0  0  0  0
  7  8  2  0  0  0  0
  7  6  1  0  0  0  0
  8  9  1  0  0  0  0
  9  4  2  0  0  0  0
 11  8  1  0  0  0  0
 12  6  1  0  0  0  0
 12 14  1  0  0  0  0
 13 12  1  0  0  0  0
 15 12  1  0  0  0  0
 16 18  1  0  0  0  0
 16 17  1  0  0  0  0
 18 20  1  0  0  0  0
 18 19  1  0  0  0  0
 21 22  1  0  0  0  0
 21 18  1  0  0  0  0
 23 21  1  0  0  0  0
 24 21  1  0  0  0  0
 25 24  1  0  0  0  0
 26 25  1  0  0  0  0
 26 24  1  0  0  0  0
M  END
>  <minimizedAffinity>
-4.21377945

$$$$

 OpenBabel03252501213D

 26 27  0  0  0  0  0  0  0  0999 V2000
   36.7090   28.7140   41.3450 C   0  0  0  0  0  0  0  0  0  0  0  0
   36.8640   28.5420   42.3970 H   0  0  0  0  0  0  0  0  0  0  0  0
   37.6460   29.2340   40.9870 H   0  0  0  0  0  0  0  0  0  0  0  0
   36.0960   27.6420   39.2210 C   0  0  0  0  0  0  0  0  0  0  0  0
   36.5580   27.5300   40.5250 C   0  0  0  0  0  0  0  0  0  0  0  0
   36.8520   26.2370   40.9540 C   0  0  0  0  0  0  0  0  0  0  0  0
   36.6800   25.1690   40.1120 N   0  0  0  0  0  0  0  0  0  0  0  0
   36.2270   25.3430   38.8590 C   0  0  0  0  0  0  0  0  0  0  0  0
   35.9290   26.5880   38.3980 N   0  0  0  0  0  0  0  0  0  0  0  0
   35.8550   28.6490   38.8530 H   0  0  0  0  0  0  0  0  0  0  0  0
   36.0860   24.5120   38.1790 H   0  0  0  0  0  0  0  0  0  0  0  0
   37.3410   26.1360   42.3380 C   0  0  0  0  0  0  0  0  0  0  0  0
   38.5010   26.8800   42.4670 F   0  0  0  0  0  0  0  0  0  0  0  0
   37.6560   24.8350   42.5660 F   0  0  0  0  0  0  0  0  0  0  0  0
   36.4570   26.6740   43.2280 F   0  0  0  0  0  0  0  0  0  0  0  0
   35.6200   29.6610   41.0630 N   0  0  0  0  0  0  0  0  0  0  0  0
   35.1520   29.4690   40.1550 H   0  0  0  0  0  0  0  0  0  0  0  0
   36.2300   30.9740   41.0640 C   0  0  0  0  0  0  0  0  0  0  0  0
   35.4690   31.7010   40.7170 H   0  0  0  0  0  0  0  0  0  0  0  0
   36.5690   31.3010   42.0600 H   0  0  0  0  0  0  0  0  0  0  0  0
   37.4020   31.0700   40.1120 C   0  0  0  0  0  0  0  0  0  0  0  0
   37.9280   30.0840   40.1540 H   0  0  0  0  0  0  0  0  0  0  0  0
   38.1000   31.8000   40.5390 H   0  0  0  0  0  0  0  0  0  0  0  0
   37.0050   31.4840   38.7340 C   0  0  0  0  0  3  0  0  0  0  0  0
   37.1820   30.6630   37.5380 C   0  0  0  0  0  2  0  0  0  0  0  0
   38.2340   31.7130   37.8090 C   0  0  0  0  0  2  0  0  0  0  0  0
  1  2  1  0  0  0  0
  3  1  1  0  0  0  0
  4  5  1  0  0  0  0
  5  6  2  0  0  0  0
  5  1  1  0  0  0  0
  6 12  1  0  0  0  0
  7  6  1  0  0  0  0
  8  7  2  0  0  0  0
  9  8  1  0  0  0  0
  9  4  2  0  0  0  0
 10  4  1  0  0  0  0
 11  8  1  0  0  0  0
 12 13  1  0  0  0  0
 12 14  1  0  0  0  0
 12 15  1  0  0  0  0
 16 18  1  0  0  0  0
 16  1  1  0  0  0  0
 17 16  1  0  0  0  0
 18 20  1  0  0  0  0
 19 18  1  0  0  0  0
 21 22  1  0  0  0  0
 21 23  1  0  0  0  0
 21 18  1  0  0  0  0
 24 21  1  0  0  0  0
 25 26  1  0  0  0  0
 25 24  1  0  0  0  0
 26 24  1  0  0  0  0
M  END
>  <minimizedAffinity>
-4.14100933

$$$$
