
 OpenBabel03252509303D

 15 16  0  0  0  0  0  0  0  0999 V2000
   36.7310   27.6730   42.1350 C   0  0  0  0  0  0  0  0  0  0  0  0
   36.2140   28.7350   41.3710 C   0  0  0  0  0  0  0  0  0  0  0  0
   36.8880   29.9470   41.4430 C   0  0  0  0  0  0  0  0  0  0  0  0
   37.9910   30.0540   42.2270 N   0  0  0  0  0  0  0  0  0  0  0  0
   38.4570   29.0090   42.9460 C   0  0  0  0  0  0  0  0  0  0  0  0
   37.8150   27.8260   42.8890 N   0  0  0  0  0  0  0  0  0  0  0  0
   36.2490   26.7020   42.1220 H   0  0  0  0  0  0  0  0  0  0  0  0
   35.3420   28.5330   40.7930 H   0  0  0  0  0  0  0  0  0  0  0  0
   39.3280   29.0520   43.5810 H   0  0  0  0  0  0  0  0  0  0  0  0
   36.3450   31.0470   40.6450 C   0  0  0  0  0  0  0  0  0  0  0  0
   35.6370   31.6390   41.2540 H   0  0  0  0  0  0  0  0  0  0  0  0
   35.7120   30.5760   39.8460 H   0  0  0  0  0  0  0  0  0  0  0  0
   37.4510   31.8720   40.0580 C   0  0  0  0  0  3  0  0  0  0  0  0
   37.3540   32.0760   38.5630 C   0  0  0  0  0  2  0  0  0  0  0  0
   37.2130   33.2350   39.5360 C   0  0  0  0  0  2  0  0  0  0  0  0
  1  6  1  0  0  0  0
  2  3  1  0  0  0  0
  2  1  2  0  0  0  0
  3  4  2  0  0  0  0
  4  5  1  0  0  0  0
  5  9  1  0  0  0  0
  6  5  2  0  0  0  0
  7  1  1  0  0  0  0
  8  2  1  0  0  0  0
 10 11  1  0  0  0  0
 10  3  1  0  0  0  0
 12 10  1  0  0  0  0
 13 10  1  0  0  0  0
 14 15  1  0  0  0  0
 14 13  1  0  0  0  0
 15 13  1  0  0  0  0
M  END
>  <minimizedAffinity>
-3.47829175

$$$$

 OpenBabel03252509303D

 15 16  0  0  0  0  0  0  0  0999 V2000
   35.5590   28.7800   40.6720 C   0  0  0  0  0  0  0  0  0  0  0  0
   36.3800   28.2780   41.6980 C   0  0  0  0  0  0  0  0  0  0  0  0
   37.3070   29.1550   42.2470 C   0  0  0  0  0  0  0  0  0  0  0  0
   37.3800   30.4280   41.7830 N   0  0  0  0  0  0  0  0  0  0  0  0
   36.5730   30.8730   40.7950 C   0  0  0  0  0  0  0  0  0  0  0  0
   35.6680   30.0360   40.2500 N   0  0  0  0  0  0  0  0  0  0  0  0
   34.8160   28.1450   40.2020 H   0  0  0  0  0  0  0  0  0  0  0  0
   36.2330   27.2610   41.9800 H   0  0  0  0  0  0  0  0  0  0  0  0
   36.5980   31.8760   40.3980 H   0  0  0  0  0  0  0  0  0  0  0  0
   38.1570   28.6250   43.3130 C   0  0  0  0  0  0  0  0  0  0  0  0
   37.5340   28.3120   44.1710 H   0  0  0  0  0  0  0  0  0  0  0  0
   38.7610   29.4900   43.6960 H   0  0  0  0  0  0  0  0  0  0  0  0
   39.0370   27.5270   42.7920 C   0  0  0  0  0  3  0  0  0  0  0  0
   40.4790   27.6150   43.2380 C   0  0  0  0  0  2  0  0  0  0  0  0
   39.5760   26.4740   43.6800 C   0  0  0  0  0  2  0  0  0  0  0  0
  1  2  1  0  0  0  0
  2  8  1  0  0  0  0
  2  3  2  0  0  0  0
  3 10  1  0  0  0  0
  4  3  1  0  0  0  0
  5  4  2  0  0  0  0
  6  1  2  0  0  0  0
  6  5  1  0  0  0  0
  7  1  1  0  0  0  0
  9  5  1  0  0  0  0
 10 12  1  0  0  0  0
 10 11  1  0  0  0  0
 13 14  1  0  0  0  0
 13 10  1  0  0  0  0
 13 15  1  0  0  0  0
 14 15  1  0  0  0  0
M  END
>  <minimizedAffinity>
-3.42117929

$$$$

 OpenBabel03252509303D

 15 16  0  0  0  0  0  0  0  0999 V2000
   35.4650   29.7000   40.1920 C   0  0  0  0  0  0  0  0  0  0  0  0
   35.6660   28.5310   40.9490 C   0  0  0  0  0  0  0  0  0  0  0  0
   36.6950   28.5560   41.8820 C   0  0  0  0  0  0  0  0  0  0  0  0
   37.4450   29.6780   42.0220 N   0  0  0  0  0  0  0  0  0  0  0  0
   37.2210   30.7820   41.2760 C   0  0  0  0  0  0  0  0  0  0  0  0
   36.2270   30.7760   40.3650 N   0  0  0  0  0  0  0  0  0  0  0  0
   34.6790   29.7440   39.4480 H   0  0  0  0  0  0  0  0  0  0  0  0
   35.0150   27.7110   40.7510 H   0  0  0  0  0  0  0  0  0  0  0  0
   37.7930   31.6930   41.3560 H   0  0  0  0  0  0  0  0  0  0  0  0
   36.8970   27.3360   42.6650 C   0  0  0  0  0  0  0  0  0  0  0  0
   36.0150   27.1490   43.3060 H   0  0  0  0  0  0  0  0  0  0  0  0
   37.7320   27.5550   43.3810 H   0  0  0  0  0  0  0  0  0  0  0  0
   37.2290   26.1810   41.7670 C   0  0  0  0  0  3  0  0  0  0  0  0
   38.3260   25.2800   42.2860 C   0  0  0  0  0  2  0  0  0  0  0  0
   36.8960   24.7880   42.1370 C   0  0  0  0  0  2  0  0  0  0  0  0
  1  6  2  0  0  0  0
  1  2  1  0  0  0  0
  2  3  2  0  0  0  0
  3  4  1  0  0  0  0
  3 10  1  0  0  0  0
  5  9  1  0  0  0  0
  5  4  2  0  0  0  0
  6  5  1  0  0  0  0
  7  1  1  0  0  0  0
  8  2  1  0  0  0  0
 10 11  1  0  0  0  0
 10 12  1  0  0  0  0
 13 15  1  0  0  0  0
 13 14  1  0  0  0  0
 13 10  1  0  0  0  0
 15 14  1  0  0  0  0
M  END
>  <minimizedAffinity>
-3.40427208

$$$$

 OpenBabel03252509303D

 15 16  0  0  0  0  0  0  0  0999 V2000
   39.7880   25.9870   43.6170 C   0  0  0  0  0  0  0  0  0  0  0  0
   38.8030   26.9840   43.4940 C   0  0  0  0  0  0  0  0  0  0  0  0
   37.6570   26.6520   42.7830 C   0  0  0  0  0  0  0  0  0  0  0  0
   37.5370   25.4090   42.2500 N   0  0  0  0  0  0  0  0  0  0  0  0
   38.5060   24.4780   42.3900 C   0  0  0  0  0  0  0  0  0  0  0  0
   39.6250   24.7840   43.0760 N   0  0  0  0  0  0  0  0  0  0  0  0
   40.7050   26.1850   44.1590 H   0  0  0  0  0  0  0  0  0  0  0  0
   39.0070   27.9230   43.9540 H   0  0  0  0  0  0  0  0  0  0  0  0
   38.4500   23.4800   41.9830 H   0  0  0  0  0  0  0  0  0  0  0  0
   36.6380   27.6940   42.6590 C   0  0  0  0  0  0  0  0  0  0  0  0
   36.6770   28.3650   43.5380 H   0  0  0  0  0  0  0  0  0  0  0  0
   35.6450   27.1770   42.7370 H   0  0  0  0  0  0  0  0  0  0  0  0
   36.7800   28.4210   41.3550 C   0  0  0  0  0  3  0  0  0  0  0  0
   35.4760   28.9020   40.7600 C   0  0  0  0  0  2  0  0  0  0  0  0
   36.5370   29.8760   41.2440 C   0  0  0  0  0  2  0  0  0  0  0  0
  1  7  1  0  0  0  0
  2  1  1  0  0  0  0
  2  8  1  0  0  0  0
  3  2  2  0  0  0  0
  4  5  2  0  0  0  0
  4  3  1  0  0  0  0
  5  6  1  0  0  0  0
  6  1  2  0  0  0  0
  9  5  1  0  0  0  0
 10 12  1  0  0  0  0
 10  3  1  0  0  0  0
 10 11  1  0  0  0  0
 13 10  1  0  0  0  0
 14 15  1  0  0  0  0
 14 13  1  0  0  0  0
 15 13  1  0  0  0  0
M  END
>  <minimizedAffinity>
-3.38151646

$$$$

 OpenBabel03252509303D

 15 16  0  0  0  0  0  0  0  0999 V2000
   38.9360   30.0120   42.5820 C   0  0  0  0  0  0  0  0  0  0  0  0
   38.4810   28.7650   43.0470 C   0  0  0  0  0  0  0  0  0  0  0  0
   37.2850   28.2960   42.5200 C   0  0  0  0  0  0  0  0  0  0  0  0
   36.6210   29.0410   41.6000 N   0  0  0  0  0  0  0  0  0  0  0  0
   37.0910   30.2350   41.1770 C   0  0  0  0  0  0  0  0  0  0  0  0
   38.2500   30.7060   41.6780 N   0  0  0  0  0  0  0  0  0  0  0  0
   39.8620   30.4330   42.9540 H   0  0  0  0  0  0  0  0  0  0  0  0
   39.0860   28.2710   43.7710 H   0  0  0  0  0  0  0  0  0  0  0  0
   36.5950   30.8570   40.4490 H   0  0  0  0  0  0  0  0  0  0  0  0
   36.8180   26.9980   43.0100 C   0  0  0  0  0  0  0  0  0  0  0  0
   35.7200   26.9270   42.9010 H   0  0  0  0  0  0  0  0  0  0  0  0
   36.9980   26.9940   44.1170 H   0  0  0  0  0  0  0  0  0  0  0  0
   37.5510   25.8810   42.3280 C   0  0  0  0  0  3  0  0  0  0  0  0
   36.7230   24.6370   42.0990 C   0  0  0  0  0  2  0  0  0  0  0  0
   37.2360   25.4760   40.9400 C   0  0  0  0  0  2  0  0  0  0  0  0
  1  7  1  0  0  0  0
  1  2  1  0  0  0  0
  2  8  1  0  0  0  0
  3 10  1  0  0  0  0
  3  2  2  0  0  0  0
  4  3  1  0  0  0  0
  5  4  2  0  0  0  0
  5  6  1  0  0  0  0
  6  1  2  0  0  0  0
  9  5  1  0  0  0  0
 10 12  1  0  0  0  0
 11 10  1  0  0  0  0
 13 10  1  0  0  0  0
 14 13  1  0  0  0  0
 15 14  1  0  0  0  0
 15 13  1  0  0  0  0
M  END
>  <minimizedAffinity>
-3.37561941

$$$$

 OpenBabel03252509303D

 15 16  0  0  0  0  0  0  0  0999 V2000
   37.1990   32.0210   40.1800 C   0  0  0  0  0  0  0  0  0  0  0  0
   36.4320   31.0190   40.8020 C   0  0  0  0  0  0  0  0  0  0  0  0
   36.8810   29.7110   40.6710 C   0  0  0  0  0  0  0  0  0  0  0  0
   38.0120   29.4600   39.9650 N   0  0  0  0  0  0  0  0  0  0  0  0
   38.7220   30.4500   39.3810 C   0  0  0  0  0  0  0  0  0  0  0  0
   38.3010   31.7240   39.4980 N   0  0  0  0  0  0  0  0  0  0  0  0
   36.9020   33.0610   40.2450 H   0  0  0  0  0  0  0  0  0  0  0  0
   35.5620   31.3360   41.3300 H   0  0  0  0  0  0  0  0  0  0  0  0
   39.6250   30.2930   38.8120 H   0  0  0  0  0  0  0  0  0  0  0  0
   36.0770   28.6750   41.3210 C   0  0  0  0  0  0  0  0  0  0  0  0
   35.5410   28.0800   40.5590 H   0  0  0  0  0  0  0  0  0  0  0  0
   35.2700   29.2100   41.8880 H   0  0  0  0  0  0  0  0  0  0  0  0
   36.9290   27.8390   42.2300 C   0  0  0  0  0  3  0  0  0  0  0  0
   37.4440   28.5680   43.4510 C   0  0  0  0  0  2  0  0  0  0  0  0
   36.4580   27.4170   43.5680 C   0  0  0  0  0  2  0  0  0  0  0  0
  1  7  1  0  0  0  0
  1  2  1  0  0  0  0
  2  8  1  0  0  0  0
  3  2  2  0  0  0  0
  3 10  1  0  0  0  0
  4  3  1  0  0  0  0
  5  6  1  0  0  0  0
  5  4  2  0  0  0  0
  6  1  2  0  0  0  0
  9  5  1  0  0  0  0
 10 12  1  0  0  0  0
 10 13  1  0  0  0  0
 11 10  1  0  0  0  0
 13 14  1  0  0  0  0
 13 15  1  0  0  0  0
 14 15  1  0  0  0  0
M  END
>  <minimizedAffinity>
-3.37545395

$$$$

 OpenBabel03252509303D

 15 16  0  0  0  0  0  0  0  0999 V2000
   37.0610   30.8410   38.0960 C   0  0  0  0  0  0  0  0  0  0  0  0
   36.5340   29.8040   38.8870 C   0  0  0  0  0  0  0  0  0  0  0  0
   36.3040   30.0900   40.2270 C   0  0  0  0  0  0  0  0  0  0  0  0
   36.5910   31.3270   40.7060 N   0  0  0  0  0  0  0  0  0  0  0  0
   37.0960   32.2970   39.9140 C   0  0  0  0  0  0  0  0  0  0  0  0
   37.3260   32.0380   38.6120 N   0  0  0  0  0  0  0  0  0  0  0  0
   37.2620   30.6820   37.0430 H   0  0  0  0  0  0  0  0  0  0  0  0
   36.3490   28.8740   38.4010 H   0  0  0  0  0  0  0  0  0  0  0  0
   37.3370   33.2920   40.2550 H   0  0  0  0  0  0  0  0  0  0  0  0
   35.7560   29.0050   41.0420 C   0  0  0  0  0  0  0  0  0  0  0  0
   35.0500   28.4020   40.4410 H   0  0  0  0  0  0  0  0  0  0  0  0
   35.1220   29.4910   41.8300 H   0  0  0  0  0  0  0  0  0  0  0  0
   36.8600   28.1900   41.6480 C   0  0  0  0  0  3  0  0  0  0  0  0
   37.4120   28.7460   42.9410 C   0  0  0  0  0  2  0  0  0  0  0  0
   36.6650   27.4230   42.8980 C   0  0  0  0  0  2  0  0  0  0  0  0
  1  6  2  0  0  0  0
  1  2  1  0  0  0  0
  2  3  2  0  0  0  0
  3  4  1  0  0  0  0
  3 10  1  0  0  0  0
  5  9  1  0  0  0  0
  5  4  2  0  0  0  0
  6  5  1  0  0  0  0
  7  1  1  0  0  0  0
  8  2  1  0  0  0  0
 10 13  1  0  0  0  0
 10 12  1  0  0  0  0
 11 10  1  0  0  0  0
 13 15  1  0  0  0  0
 13 14  1  0  0  0  0
 15 14  1  0  0  0  0
M  END
>  <minimizedAffinity>
-3.3389976

$$$$

 OpenBabel03252509303D

 15 16  0  0  0  0  0  0  0  0999 V2000
   36.9020   27.3160   42.1140 C   0  0  0  0  0  0  0  0  0  0  0  0
   36.3260   28.4270   41.4720 C   0  0  0  0  0  0  0  0  0  0  0  0
   36.9140   29.6630   41.7070 C   0  0  0  0  0  0  0  0  0  0  0  0
   37.9940   29.7460   42.5250 N   0  0  0  0  0  0  0  0  0  0  0  0
   38.5190   28.6540   43.1240 C   0  0  0  0  0  0  0  0  0  0  0  0
   37.9610   27.4470   42.9080 N   0  0  0  0  0  0  0  0  0  0  0  0
   36.4890   26.3240   41.9710 H   0  0  0  0  0  0  0  0  0  0  0  0
   35.4800   28.2410   40.8530 H   0  0  0  0  0  0  0  0  0  0  0  0
   39.3750   28.6760   43.7800 H   0  0  0  0  0  0  0  0  0  0  0  0
   36.3090   30.8140   41.0360 C   0  0  0  0  0  0  0  0  0  0  0  0
   36.6340   31.7500   41.5280 H   0  0  0  0  0  0  0  0  0  0  0  0
   35.2070   30.7530   41.2350 H   0  0  0  0  0  0  0  0  0  0  0  0
   36.6070   30.7860   39.5670 C   0  0  0  0  0  3  0  0  0  0  0  0
   37.1300   32.0900   39.0080 C   0  0  0  0  0  2  0  0  0  0  0  0
   37.9920   30.8390   39.0520 C   0  0  0  0  0  2  0  0  0  0  0  0
  1  6  1  0  0  0  0
  2  3  1  0  0  0  0
  2  1  2  0  0  0  0
  3  4  2  0  0  0  0
  4  5  1  0  0  0  0
  5  9  1  0  0  0  0
  6  5  2  0  0  0  0
  7  1  1  0  0  0  0
  8  2  1  0  0  0  0
 10 12  1  0  0  0  0
 10 11  1  0  0  0  0
 10  3  1  0  0  0  0
 13 10  1  0  0  0  0
 14 15  1  0  0  0  0
 14 13  1  0  0  0  0
 15 13  1  0  0  0  0
M  END
>  <minimizedAffinity>
-3.30820012

$$$$

 OpenBabel03252509303D

 15 16  0  0  0  0  0  0  0  0999 V2000
   37.8890   27.1650   42.8590 C   0  0  0  0  0  0  0  0  0  0  0  0
   36.7910   27.4020   42.0120 C   0  0  0  0  0  0  0  0  0  0  0  0
   36.5700   28.7170   41.6230 C   0  0  0  0  0  0  0  0  0  0  0  0
   37.4020   29.6950   42.0630 N   0  0  0  0  0  0  0  0  0  0  0  0
   38.4470   29.4270   42.8760 C   0  0  0  0  0  0  0  0  0  0  0  0
   38.6760   28.1570   43.2650 N   0  0  0  0  0  0  0  0  0  0  0  0
   38.1140   26.1610   43.1980 H   0  0  0  0  0  0  0  0  0  0  0  0
   36.2070   26.5560   41.7310 H   0  0  0  0  0  0  0  0  0  0  0  0
   39.1310   30.1730   43.2490 H   0  0  0  0  0  0  0  0  0  0  0  0
   35.4250   28.9550   40.7420 C   0  0  0  0  0  0  0  0  0  0  0  0
   35.0540   29.9880   40.8780 H   0  0  0  0  0  0  0  0  0  0  0  0
   34.5960   28.3000   41.1170 H   0  0  0  0  0  0  0  0  0  0  0  0
   35.7780   28.6390   39.3190 C   0  0  0  0  0  3  0  0  0  0  0  0
   34.6700   28.9010   38.3250 C   0  0  0  0  0  2  0  0  0  0  0  0
   35.9610   29.7020   38.3080 C   0  0  0  0  0  2  0  0  0  0  0  0
  1  7  1  0  0  0  0
  1  6  1  0  0  0  0
  2  1  2  0  0  0  0
  3  2  1  0  0  0  0
  3  4  2  0  0  0  0
  4  5  1  0  0  0  0
  5  9  1  0  0  0  0
  5  6  2  0  0  0  0
  8  2  1  0  0  0  0
 10 11  1  0  0  0  0
 10 12  1  0  0  0  0
 10  3  1  0  0  0  0
 13 10  1  0  0  0  0
 14 13  1  0  0  0  0
 15 14  1  0  0  0  0
 15 13  1  0  0  0  0
M  END
>  <minimizedAffinity>
-3.28645563

$$$$
