
 OpenBabel03252508353D

 29 31  0  0  1  0  0  0  0  0999 V2000
   37.1390   30.4510   39.6900 N   0  0  0  0  0  0  0  0  0  0  0  0
   36.3230   30.1180   40.8330 C   0  0  1  0  0  0  0  0  0  0  0  0
   35.3850   28.9950   40.6010 C   0  0  0  0  0  0  0  0  0  0  0  0
   34.7660   28.9480   39.3400 N   0  0  0  0  0  0  0  0  0  0  0  0
   35.4650   29.4540   38.2360 C   0  0  0  0  0  0  0  0  0  0  0  0
   36.9420   29.6090   38.5470 C   0  0  0  0  0  0  0  0  0  0  0  0
   35.7280   31.0190   41.0830 H   0  0  0  0  0  0  0  0  0  0  0  0
   34.6050   29.0110   41.4040 H   0  0  0  0  0  0  0  0  0  0  0  0
   35.9440   28.0400   40.7530 H   0  0  0  0  0  0  0  0  0  0  0  0
   33.7530   29.2030   39.3840 H   0  0  0  0  0  0  0  0  0  0  0  0
   35.0950   30.4880   38.0160 H   0  0  0  0  0  0  0  0  0  0  0  0
   35.3570   28.8700   37.2930 H   0  0  0  0  0  0  0  0  0  0  0  0
   37.3650   28.5890   38.6490 H   0  0  0  0  0  0  0  0  0  0  0  0
   37.4050   30.1320   37.6830 H   0  0  0  0  0  0  0  0  0  0  0  0
   37.4100   32.7950   39.9280 C   0  0  0  0  0  0  0  0  0  0  0  0
   38.0160   31.5380   39.8170 C   0  0  0  0  0  0  0  0  0  0  0  0
   39.4080   31.4820   39.8400 C   0  0  0  0  0  0  0  0  0  0  0  0
   40.1230   32.6300   39.9690 N   0  0  0  0  0  0  0  0  0  0  0  0
   39.5060   33.8240   40.0740 C   0  0  0  0  0  0  0  0  0  0  0  0
   38.1810   33.9120   40.0550 N   0  0  0  0  0  0  0  0  0  0  0  0
   36.3170   32.9100   39.9170 H   0  0  0  0  0  0  0  0  0  0  0  0
   39.8400   30.5170   39.7530 H   0  0  0  0  0  0  0  0  0  0  0  0
   40.0070   34.7740   40.1790 H   0  0  0  0  0  0  0  0  0  0  0  0
   37.2410   29.7210   41.9670 C   0  0  0  0  0  0  0  0  0  0  0  0
   36.8830   30.2950   42.8660 H   0  0  0  0  0  0  0  0  0  0  0  0
   38.2720   29.9820   41.7060 H   0  0  0  0  0  0  0  0  0  0  0  0
   37.1660   28.2680   42.3230 C   0  0  0  0  0  3  0  0  0  0  0  0
   38.2590   27.8280   43.3150 C   0  0  0  0  0  2  0  0  0  0  0  0
   36.8020   27.8070   43.6770 C   0  0  0  0  0  2  0  0  0  0  0  0
  1 16  1  0  0  0  0
  1  2  1  0  0  0  0
  2  7  1  1  0  0  0
  2 24  1  0  0  0  0
  3  9  1  0  0  0  0
  3  2  1  0  0  0  0
  3  8  1  0  0  0  0
  4 10  1  0  0  0  0
  4  3  1  0  0  0  0
  5  6  1  0  0  0  0
  5  4  1  0  0  0  0
  6 13  1  0  0  0  0
  6  1  1  0  0  0  0
 11  5  1  0  0  0  0
 12  5  1  0  0  0  0
 14  6  1  0  0  0  0
 15 20  1  0  0  0  0
 16 17  1  0  0  0  0
 16 15  2  0  0  0  0
 17 18  2  0  0  0  0
 18 19  1  0  0  0  0
 19 23  1  0  0  0  0
 20 19  2  0  0  0  0
 21 15  1  0  0  0  0
 22 17  1  0  0  0  0
 24 27  1  0  0  0  0
 24 25  1  0  0  0  0
 26 24  1  0  0  0  0
 27 28  1  0  0  0  0
 27 29  1  0  0  0  0
 28 29  1  0  0  0  0
M  END
>  <minimizedAffinity>
-4.41537666

$$$$

 OpenBabel03252508353D

 29 31  0  0  1  0  0  0  0  0999 V2000
   38.5390   31.0870   40.6690 N   0  0  0  0  0  0  0  0  0  0  0  0
   37.2580   31.3160   40.0450 C   0  0  1  0  0  0  0  0  0  0  0  0
   37.1170   32.6510   39.4190 C   0  0  0  0  0  0  0  0  0  0  0  0
   37.6890   33.7300   40.1150 N   0  0  0  0  0  0  0  0  0  0  0  0
   38.8280   33.4910   40.8950 C   0  0  0  0  0  0  0  0  0  0  0  0
   39.4730   32.1660   40.5320 C   0  0  0  0  0  0  0  0  0  0  0  0
   36.4880   31.2220   40.8370 H   0  0  0  0  0  0  0  0  0  0  0  0
   36.0300   32.8500   39.2430 H   0  0  0  0  0  0  0  0  0  0  0  0
   37.5770   32.6070   38.4020 H   0  0  0  0  0  0  0  0  0  0  0  0
   36.9690   34.3490   40.5510 H   0  0  0  0  0  0  0  0  0  0  0  0
   38.5180   33.3890   41.9670 H   0  0  0  0  0  0  0  0  0  0  0  0
   39.6060   34.2880   40.8640 H   0  0  0  0  0  0  0  0  0  0  0  0
   39.9010   32.2780   39.5150 H   0  0  0  0  0  0  0  0  0  0  0  0
   40.2810   31.9830   41.2720 H   0  0  0  0  0  0  0  0  0  0  0  0
   37.9720   29.6800   42.4910 C   0  0  0  0  0  0  0  0  0  0  0  0
   38.7290   29.8640   41.3280 C   0  0  0  0  0  0  0  0  0  0  0  0
   39.5850   28.8360   40.9380 C   0  0  0  0  0  0  0  0  0  0  0  0
   39.6590   27.7050   41.6870 N   0  0  0  0  0  0  0  0  0  0  0  0
   38.9150   27.5610   42.8020 C   0  0  0  0  0  0  0  0  0  0  0  0
   38.0890   28.5210   43.2010 N   0  0  0  0  0  0  0  0  0  0  0  0
   37.2780   30.4500   42.8540 H   0  0  0  0  0  0  0  0  0  0  0  0
   40.1460   29.0040   40.0530 H   0  0  0  0  0  0  0  0  0  0  0  0
   38.9210   26.6930   43.4430 H   0  0  0  0  0  0  0  0  0  0  0  0
   37.0720   30.2790   38.9590 C   0  0  0  0  0  0  0  0  0  0  0  0
   37.8600   29.4980   39.1430 H   0  0  0  0  0  0  0  0  0  0  0  0
   37.1960   30.7540   37.9810 H   0  0  0  0  0  0  0  0  0  0  0  0
   35.7480   29.5800   39.0140 C   0  0  0  0  0  3  0  0  0  0  0  0
   35.8500   28.1210   39.4960 C   0  0  0  0  0  2  0  0  0  0  0  0
   35.1270   29.1710   40.2890 C   0  0  0  0  0  2  0  0  0  0  0  0
  1 16  1  0  0  0  0
  2  1  1  0  0  0  0
  2  7  1  1  0  0  0
  3  2  1  0  0  0  0
  3  4  1  0  0  0  0
  4 10  1  0  0  0  0
  4  5  1  0  0  0  0
  5 11  1  0  0  0  0
  6  1  1  0  0  0  0
  6  5  1  0  0  0  0
  6 14  1  0  0  0  0
  8  3  1  0  0  0  0
  9  3  1  0  0  0  0
 12  5  1  0  0  0  0
 13  6  1  0  0  0  0
 15 21  1  0  0  0  0
 15 20  1  0  0  0  0
 16 15  2  0  0  0  0
 17 16  1  0  0  0  0
 17 18  2  0  0  0  0
 18 19  1  0  0  0  0
 19 20  2  0  0  0  0
 19 23  1  0  0  0  0
 22 17  1  0  0  0  0
 24 27  1  0  0  0  0
 24 25  1  0  0  0  0
 24  2  1  0  0  0  0
 26 24  1  0  0  0  0
 27 28  1  0  0  0  0
 27 29  1  0  0  0  0
 28 29  1  0  0  0  0
M  END
>  <minimizedAffinity>
-4.29633713

$$$$

 OpenBabel03252508353D

 29 31  0  0  1  0  0  0  0  0999 V2000
   38.2360   30.6320   41.1130 N   0  0  0  0  0  0  0  0  0  0  0  0
   36.9280   31.1440   40.7830 C   0  0  1  0  0  0  0  0  0  0  0  0
   36.9480   32.4340   40.0550 C   0  0  0  0  0  0  0  0  0  0  0  0
   37.9130   33.3680   40.4640 N   0  0  0  0  0  0  0  0  0  0  0  0
   39.1260   32.8910   40.9800 C   0  0  0  0  0  0  0  0  0  0  0  0
   39.3290   31.4270   40.6350 C   0  0  0  0  0  0  0  0  0  0  0  0
   36.3870   31.2950   41.7390 H   0  0  0  0  0  0  0  0  0  0  0  0
   35.9280   32.8930   40.1160 H   0  0  0  0  0  0  0  0  0  0  0  0
   37.1080   32.2160   38.9710 H   0  0  0  0  0  0  0  0  0  0  0  0
   37.4940   34.1750   40.9810 H   0  0  0  0  0  0  0  0  0  0  0  0
   39.0860   32.9330   42.0990 H   0  0  0  0  0  0  0  0  0  0  0  0
   40.0340   33.4600   40.6730 H   0  0  0  0  0  0  0  0  0  0  0  0
   39.4970   31.3690   39.5400 H   0  0  0  0  0  0  0  0  0  0  0  0
   40.2350   31.0860   41.1810 H   0  0  0  0  0  0  0  0  0  0  0  0
   39.0790   28.4220   41.2880 C   0  0  0  0  0  0  0  0  0  0  0  0
   38.2980   29.4400   41.8490 C   0  0  0  0  0  0  0  0  0  0  0  0
   37.6650   29.1810   43.0640 C   0  0  0  0  0  0  0  0  0  0  0  0
   37.8230   27.9690   43.6560 N   0  0  0  0  0  0  0  0  0  0  0  0
   38.5830   27.0120   43.0880 C   0  0  0  0  0  0  0  0  0  0  0  0
   39.2000   27.2260   41.9310 N   0  0  0  0  0  0  0  0  0  0  0  0
   39.6050   28.5610   40.3330 H   0  0  0  0  0  0  0  0  0  0  0  0
   37.0800   29.9710   43.4650 H   0  0  0  0  0  0  0  0  0  0  0  0
   38.7530   26.0290   43.5000 H   0  0  0  0  0  0  0  0  0  0  0  0
   36.2340   30.1300   39.9020 C   0  0  0  0  0  0  0  0  0  0  0  0
   35.1320   30.2980   40.0510 H   0  0  0  0  0  0  0  0  0  0  0  0
   36.5330   29.1220   40.2070 H   0  0  0  0  0  0  0  0  0  0  0  0
   36.5070   30.3150   38.4410 C   0  0  0  0  0  3  0  0  0  0  0  0
   37.2940   29.1480   37.8170 C   0  0  0  0  0  2  0  0  0  0  0  0
   35.8830   29.4610   37.4110 C   0  0  0  0  0  2  0  0  0  0  0  0
  1 16  1  0  0  0  0
  2  1  1  0  0  0  0
  2  7  1  1  0  0  0
  3  8  1  0  0  0  0
  3  4  1  0  0  0  0
  3  2  1  0  0  0  0
  4  5  1  0  0  0  0
  4 10  1  0  0  0  0
  5 11  1  0  0  0  0
  6  5  1  0  0  0  0
  6  1  1  0  0  0  0
  6 14  1  0  0  0  0
  9  3  1  0  0  0  0
 12  5  1  0  0  0  0
 13  6  1  0  0  0  0
 15 16  2  0  0  0  0
 15 20  1  0  0  0  0
 16 17  1  0  0  0  0
 17 22  1  0  0  0  0
 17 18  2  0  0  0  0
 19 23  1  0  0  0  0
 19 18  1  0  0  0  0
 20 19  2  0  0  0  0
 21 15  1  0  0  0  0
 24 25  1  0  0  0  0
 24 26  1  0  0  0  0
 24  2  1  0  0  0  0
 27 24  1  0  0  0  0
 28 27  1  0  0  0  0
 29 28  1  0  0  0  0
 29 27  1  0  0  0  0
M  END
>  <minimizedAffinity>
-4.2571559

$$$$

 OpenBabel03252508353D

 29 31  0  0  1  0  0  0  0  0999 V2000
   38.6640   30.0950   40.8210 N   0  0  0  0  0  0  0  0  0  0  0  0
   37.3760   29.9390   41.4540 C   0  0  1  0  0  0  0  0  0  0  0  0
   36.3410   30.8780   40.9640 C   0  0  0  0  0  0  0  0  0  0  0  0
   36.7640   32.1910   40.6970 N   0  0  0  0  0  0  0  0  0  0  0  0
   38.0830   32.3910   40.2680 C   0  0  0  0  0  0  0  0  0  0  0  0
   38.7080   31.0920   39.7920 C   0  0  0  0  0  0  0  0  0  0  0  0
   37.5220   30.1200   42.5380 H   0  0  0  0  0  0  0  0  0  0  0  0
   35.4980   30.8960   41.7010 H   0  0  0  0  0  0  0  0  0  0  0  0
   35.9040   30.4530   40.0280 H   0  0  0  0  0  0  0  0  0  0  0  0
   36.4160   32.8740   41.4070 H   0  0  0  0  0  0  0  0  0  0  0  0
   38.7030   32.7180   41.1430 H   0  0  0  0  0  0  0  0  0  0  0  0
   38.2170   33.1640   39.4770 H   0  0  0  0  0  0  0  0  0  0  0  0
   38.1930   30.8070   38.8520 H   0  0  0  0  0  0  0  0  0  0  0  0
   39.7810   31.2990   39.5950 H   0  0  0  0  0  0  0  0  0  0  0  0
   40.3330   28.4980   40.2860 C   0  0  0  0  0  0  0  0  0  0  0  0
   39.7090   29.2760   41.2690 C   0  0  0  0  0  0  0  0  0  0  0  0
   40.1740   29.1660   42.5780 C   0  0  0  0  0  0  0  0  0  0  0  0
   41.2030   28.3230   42.8560 N   0  0  0  0  0  0  0  0  0  0  0  0
   41.7800   27.5880   41.8830 C   0  0  0  0  0  0  0  0  0  0  0  0
   41.3600   27.6690   40.6260 N   0  0  0  0  0  0  0  0  0  0  0  0
   40.0140   28.5370   39.2350 H   0  0  0  0  0  0  0  0  0  0  0  0
   39.6830   29.7670   43.3020 H   0  0  0  0  0  0  0  0  0  0  0  0
   42.5980   26.9000   42.0300 H   0  0  0  0  0  0  0  0  0  0  0  0
   36.8860   28.5340   41.1830 C   0  0  0  0  0  0  0  0  0  0  0  0
   37.7980   27.9410   40.8960 H   0  0  0  0  0  0  0  0  0  0  0  0
   36.1490   28.5580   40.3740 H   0  0  0  0  0  0  0  0  0  0  0  0
   36.2920   27.8610   42.3830 C   0  0  0  0  0  3  0  0  0  0  0  0
   37.0310   26.5710   42.7830 C   0  0  0  0  0  2  0  0  0  0  0  0
   37.0050   27.7800   43.6730 C   0  0  0  0  0  2  0  0  0  0  0  0
  1 16  1  0  0  0  0
  1  2  1  0  0  0  0
  2  7  1  1  0  0  0
  3  2  1  0  0  0  0
  3  8  1  0  0  0  0
  4  3  1  0  0  0  0
  4 10  1  0  0  0  0
  5  4  1  0  0  0  0
  5 11  1  0  0  0  0
  6  5  1  0  0  0  0
  6  1  1  0  0  0  0
  9  3  1  0  0  0  0
 12  5  1  0  0  0  0
 13  6  1  0  0  0  0
 14  6  1  0  0  0  0
 15 20  2  0  0  0  0
 15 16  1  0  0  0  0
 16 17  2  0  0  0  0
 17 18  1  0  0  0  0
 17 22  1  0  0  0  0
 19 23  1  0  0  0  0
 19 18  2  0  0  0  0
 20 19  1  0  0  0  0
 21 15  1  0  0  0  0
 24  2  1  0  0  0  0
 24 27  1  0  0  0  0
 25 24  1  0  0  0  0
 26 24  1  0  0  0  0
 27 28  1  0  0  0  0
 27 29  1  0  0  0  0
 28 29  1  0  0  0  0
M  END
>  <minimizedAffinity>
-4.25152826

$$$$

 OpenBabel03252508353D

 29 31  0  0  1  0  0  0  0  0999 V2000
   38.1150   29.2740   40.9160 N   0  0  0  0  0  0  0  0  0  0  0  0
   36.9550   28.6280   41.4820 C   0  0  1  0  0  0  0  0  0  0  0  0
   35.6660   29.2470   41.0950 C   0  0  0  0  0  0  0  0  0  0  0  0
   35.6430   30.6500   41.0260 N   0  0  0  0  0  0  0  0  0  0  0  0
   36.8220   31.3190   40.6700 C   0  0  0  0  0  0  0  0  0  0  0  0
   37.8210   30.3680   40.0370 C   0  0  0  0  0  0  0  0  0  0  0  0
   37.0520   28.6910   42.5840 H   0  0  0  0  0  0  0  0  0  0  0  0
   34.8730   28.8910   41.8010 H   0  0  0  0  0  0  0  0  0  0  0  0
   35.3740   28.8420   40.0960 H   0  0  0  0  0  0  0  0  0  0  0  0
   35.1050   31.0790   41.8130 H   0  0  0  0  0  0  0  0  0  0  0  0
   37.3170   31.7000   41.6000 H   0  0  0  0  0  0  0  0  0  0  0  0
   36.6890   32.1980   39.9980 H   0  0  0  0  0  0  0  0  0  0  0  0
   37.4110   30.0690   39.0520 H   0  0  0  0  0  0  0  0  0  0  0  0
   38.7690   30.9330   39.9040 H   0  0  0  0  0  0  0  0  0  0  0  0
   39.6830   28.8450   42.6430 C   0  0  0  0  0  0  0  0  0  0  0  0
   39.3740   28.7760   41.2790 C   0  0  0  0  0  0  0  0  0  0  0  0
   40.3280   28.2310   40.4220 C   0  0  0  0  0  0  0  0  0  0  0  0
   41.5090   27.7900   40.9280 N   0  0  0  0  0  0  0  0  0  0  0  0
   41.7730   27.8710   42.2470 C   0  0  0  0  0  0  0  0  0  0  0  0
   40.8850   28.3850   43.0910 N   0  0  0  0  0  0  0  0  0  0  0  0
   38.9750   29.2630   43.3720 H   0  0  0  0  0  0  0  0  0  0  0  0
   40.0680   28.1930   39.3940 H   0  0  0  0  0  0  0  0  0  0  0  0
   42.6860   27.5410   42.7180 H   0  0  0  0  0  0  0  0  0  0  0  0
   36.9360   27.1930   41.0040 C   0  0  0  0  0  0  0  0  0  0  0  0
   37.8500   27.0730   40.3580 H   0  0  0  0  0  0  0  0  0  0  0  0
   36.0160   27.0130   40.4380 H   0  0  0  0  0  0  0  0  0  0  0  0
   37.0510   26.1880   42.1090 C   0  0  0  0  0  3  0  0  0  0  0  0
   37.0020   24.7310   41.6130 C   0  0  0  0  0  2  0  0  0  0  0  0
   38.2290   25.3110   42.2540 C   0  0  0  0  0  2  0  0  0  0  0  0
  1 16  1  0  0  0  0
  1  2  1  0  0  0  0
  2  7  1  1  0  0  0
  3  2  1  0  0  0  0
  3  8  1  0  0  0  0
  4  3  1  0  0  0  0
  4 10  1  0  0  0  0
  5  4  1  0  0  0  0
  5 11  1  0  0  0  0
  6  5  1  0  0  0  0
  6  1  1  0  0  0  0
  9  3  1  0  0  0  0
 12  5  1  0  0  0  0
 13  6  1  0  0  0  0
 14  6  1  0  0  0  0
 15 20  1  0  0  0  0
 15 21  1  0  0  0  0
 16 15  2  0  0  0  0
 17 18  2  0  0  0  0
 17 16  1  0  0  0  0
 18 19  1  0  0  0  0
 19 23  1  0  0  0  0
 19 20  2  0  0  0  0
 22 17  1  0  0  0  0
 24  2  1  0  0  0  0
 24 27  1  0  0  0  0
 25 24  1  0  0  0  0
 26 24  1  0  0  0  0
 27 29  1  0  0  0  0
 28 27  1  0  0  0  0
 28 29  1  0  0  0  0
M  END
>  <minimizedAffinity>
-4.18421936

$$$$

 OpenBabel03252508353D

 29 31  0  0  1  0  0  0  0  0999 V2000
   37.7610   29.0420   39.6750 N   0  0  0  0  0  0  0  0  0  0  0  0
   36.4970   28.3890   39.9160 C   0  0  1  0  0  0  0  0  0  0  0  0
   36.5070   26.9310   39.6520 C   0  0  0  0  0  0  0  0  0  0  0  0
   37.2410   26.5040   38.5330 N   0  0  0  0  0  0  0  0  0  0  0  0
   38.3700   27.2440   38.1550 C   0  0  0  0  0  0  0  0  0  0  0  0
   38.8220   28.1640   39.2740 C   0  0  0  0  0  0  0  0  0  0  0  0
   35.7540   28.8580   39.2400 H   0  0  0  0  0  0  0  0  0  0  0  0
   35.4480   26.5780   39.5650 H   0  0  0  0  0  0  0  0  0  0  0  0
   36.9150   26.4180   40.5560 H   0  0  0  0  0  0  0  0  0  0  0  0
   36.6260   26.1930   37.7470 H   0  0  0  0  0  0  0  0  0  0  0  0
   38.0920   27.9190   37.3050 H   0  0  0  0  0  0  0  0  0  0  0  0
   39.2430   26.6430   37.8110 H   0  0  0  0  0  0  0  0  0  0  0  0
   39.2200   27.5220   40.0860 H   0  0  0  0  0  0  0  0  0  0  0  0
   39.6290   28.8070   38.8620 H   0  0  0  0  0  0  0  0  0  0  0  0
   37.0560   31.1870   38.9550 C   0  0  0  0  0  0  0  0  0  0  0  0
   37.8170   30.4310   39.8540 C   0  0  0  0  0  0  0  0  0  0  0  0
   38.5470   31.1140   40.8250 C   0  0  0  0  0  0  0  0  0  0  0  0
   38.4970   32.4710   40.8690 N   0  0  0  0  0  0  0  0  0  0  0  0
   37.7530   33.1680   39.9870 C   0  0  0  0  0  0  0  0  0  0  0  0
   37.0460   32.5480   39.0490 N   0  0  0  0  0  0  0  0  0  0  0  0
   36.4580   30.7120   38.1650 H   0  0  0  0  0  0  0  0  0  0  0  0
   39.1140   30.5150   41.4920 H   0  0  0  0  0  0  0  0  0  0  0  0
   37.6670   34.2430   39.9620 H   0  0  0  0  0  0  0  0  0  0  0  0
   36.1340   28.5880   41.3710 C   0  0  0  0  0  0  0  0  0  0  0  0
   35.0360   28.3570   41.4470 H   0  0  0  0  0  0  0  0  0  0  0  0
   36.3490   29.6230   41.6580 H   0  0  0  0  0  0  0  0  0  0  0  0
   36.8400   27.6510   42.3020 C   0  0  0  0  0  3  0  0  0  0  0  0
   37.4950   28.3640   43.5000 C   0  0  0  0  0  2  0  0  0  0  0  0
   36.3600   27.3970   43.6740 C   0  0  0  0  0  2  0  0  0  0  0  0
  1 16  1  0  0  0  0
  1  2  1  0  0  0  0
  2  7  1  6  0  0  0
  2 24  1  0  0  0  0
  3  2  1  0  0  0  0
  3  9  1  0  0  0  0
  4  3  1  0  0  0  0
  5  4  1  0  0  0  0
  5  6  1  0  0  0  0
  6  1  1  0  0  0  0
  6 13  1  0  0  0  0
  8  3  1  0  0  0  0
 10  4  1  0  0  0  0
 11  5  1  0  0  0  0
 12  5  1  0  0  0  0
 14  6  1  0  0  0  0
 15 20  2  0  0  0  0
 15 16  1  0  0  0  0
 16 17  2  0  0  0  0
 17 18  1  0  0  0  0
 17 22  1  0  0  0  0
 19 18  2  0  0  0  0
 20 19  1  0  0  0  0
 21 15  1  0  0  0  0
 23 19  1  0  0  0  0
 24 25  1  0  0  0  0
 24 26  1  0  0  0  0
 24 27  1  0  0  0  0
 27 28  1  0  0  0  0
 27 29  1  0  0  0  0
 28 29  1  0  0  0  0
M  END
>  <minimizedAffinity>
-4.17895555

$$$$

 OpenBabel03252508353D

 29 31  0  0  1  0  0  0  0  0999 V2000
   37.9100   27.2520   41.4070 N   0  0  0  0  0  0  0  0  0  0  0  0
   36.5960   27.8160   41.2080 C   0  0  1  0  0  0  0  0  0  0  0  0
   36.4610   29.2170   41.6700 C   0  0  0  0  0  0  0  0  0  0  0  0
   37.1230   29.5480   42.8650 N   0  0  0  0  0  0  0  0  0  0  0  0
   38.3050   28.8660   43.1820 C   0  0  0  0  0  0  0  0  0  0  0  0
   38.8720   28.1560   41.9660 C   0  0  0  0  0  0  0  0  0  0  0  0
   35.8830   27.1920   41.7830 H   0  0  0  0  0  0  0  0  0  0  0  0
   35.3720   29.4590   41.7620 H   0  0  0  0  0  0  0  0  0  0  0  0
   36.8440   29.8860   40.8610 H   0  0  0  0  0  0  0  0  0  0  0  0
   36.4600   29.6890   43.6610 H   0  0  0  0  0  0  0  0  0  0  0  0
   38.0700   28.0560   43.9190 H   0  0  0  0  0  0  0  0  0  0  0  0
   39.1090   29.4890   43.6390 H   0  0  0  0  0  0  0  0  0  0  0  0
   39.2280   28.9390   41.2660 H   0  0  0  0  0  0  0  0  0  0  0  0
   39.7240   27.5370   42.3170 H   0  0  0  0  0  0  0  0  0  0  0  0
   37.3050   24.9810   41.7200 C   0  0  0  0  0  0  0  0  0  0  0  0
   38.1010   25.9120   41.0420 C   0  0  0  0  0  0  0  0  0  0  0  0
   38.9930   25.4320   40.0850 C   0  0  0  0  0  0  0  0  0  0  0  0
   39.0620   24.0970   39.8430 N   0  0  0  0  0  0  0  0  0  0  0  0
   38.2800   23.2280   40.5160 C   0  0  0  0  0  0  0  0  0  0  0  0
   37.4200   23.6530   41.4340 N   0  0  0  0  0  0  0  0  0  0  0  0
   36.5810   25.2920   42.4860 H   0  0  0  0  0  0  0  0  0  0  0  0
   39.5830   26.1600   39.5870 H   0  0  0  0  0  0  0  0  0  0  0  0
   38.2810   22.1580   40.3760 H   0  0  0  0  0  0  0  0  0  0  0  0
   36.2920   27.7900   39.7270 C   0  0  0  0  0  0  0  0  0  0  0  0
   35.7530   26.8210   39.5410 H   0  0  0  0  0  0  0  0  0  0  0  0
   37.2300   27.8430   39.1640 H   0  0  0  0  0  0  0  0  0  0  0  0
   35.3760   28.8880   39.2800 C   0  0  0  0  0  3  0  0  0  0  0  0
   35.6130   29.3220   37.8220 C   0  0  0  0  0  2  0  0  0  0  0  0
   34.3310   28.6740   38.2600 C   0  0  0  0  0  2  0  0  0  0  0  0
  1  6  1  0  0  0  0
  2  1  1  0  0  0  0
  2  3  1  0  0  0  0
  2  7  1  1  0  0  0
  3  8  1  0  0  0  0
  3  4  1  0  0  0  0
  4  5  1  0  0  0  0
  4 10  1  0  0  0  0
  5 12  1  0  0  0  0
  5 11  1  0  0  0  0
  6 14  1  0  0  0  0
  6  5  1  0  0  0  0
  9  3  1  0  0  0  0
 13  6  1  0  0  0  0
 15 21  1  0  0  0  0
 16  1  1  0  0  0  0
 16 15  2  0  0  0  0
 17 16  1  0  0  0  0
 18 17  2  0  0  0  0
 18 19  1  0  0  0  0
 19 20  2  0  0  0  0
 20 15  1  0  0  0  0
 22 17  1  0  0  0  0
 23 19  1  0  0  0  0
 24  2  1  0  0  0  0
 25 24  1  0  0  0  0
 26 24  1  0  0  0  0
 27 24  1  0  0  0  0
 28 29  1  0  0  0  0
 28 27  1  0  0  0  0
 29 27  1  0  0  0  0
M  END
>  <minimizedAffinity>
-4.16824579

$$$$

 OpenBabel03252508353D

 29 31  0  0  1  0  0  0  0  0999 V2000
   38.6560   31.0270   40.3430 N   0  0  0  0  0  0  0  0  0  0  0  0
   39.0430   30.1790   41.4450 C   0  0  1  0  0  0  0  0  0  0  0  0
   39.7650   30.8850   42.5290 C   0  0  0  0  0  0  0  0  0  0  0  0
   40.6840   31.8700   42.1290 N   0  0  0  0  0  0  0  0  0  0  0  0
   40.4310   32.5750   40.9450 C   0  0  0  0  0  0  0  0  0  0  0  0
   38.9880   32.4120   40.5070 C   0  0  0  0  0  0  0  0  0  0  0  0
   39.7130   29.3970   41.0350 H   0  0  0  0  0  0  0  0  0  0  0  0
   40.2820   30.1250   43.1680 H   0  0  0  0  0  0  0  0  0  0  0  0
   39.0070   31.3640   43.1950 H   0  0  0  0  0  0  0  0  0  0  0  0
   41.6760   31.5700   42.2680 H   0  0  0  0  0  0  0  0  0  0  0  0
   41.0470   32.1320   40.1200 H   0  0  0  0  0  0  0  0  0  0  0  0
   40.6760   33.6630   40.9740 H   0  0  0  0  0  0  0  0  0  0  0  0
   38.3590   32.9510   41.2440 H   0  0  0  0  0  0  0  0  0  0  0  0
   38.8950   32.8830   39.5050 H   0  0  0  0  0  0  0  0  0  0  0  0
   38.8010   29.5410   38.5000 C   0  0  0  0  0  0  0  0  0  0  0  0
   38.0140   30.4200   39.2550 C   0  0  0  0  0  0  0  0  0  0  0  0
   36.6900   30.6080   38.8630 C   0  0  0  0  0  0  0  0  0  0  0  0
   36.2110   29.9440   37.7790 N   0  0  0  0  0  0  0  0  0  0  0  0
   36.9970   29.1050   37.0750 C   0  0  0  0  0  0  0  0  0  0  0  0
   38.2630   28.9030   37.4220 N   0  0  0  0  0  0  0  0  0  0  0  0
   39.8520   29.3480   38.7550 H   0  0  0  0  0  0  0  0  0  0  0  0
   36.1170   31.2800   39.4520 H   0  0  0  0  0  0  0  0  0  0  0  0
   36.6860   28.5460   36.2060 H   0  0  0  0  0  0  0  0  0  0  0  0
   37.7890   29.5830   42.0430 C   0  0  0  0  0  0  0  0  0  0  0  0
   37.4690   28.7680   41.3360 H   0  0  0  0  0  0  0  0  0  0  0  0
   37.0250   30.3620   42.1320 H   0  0  0  0  0  0  0  0  0  0  0  0
   38.0050   28.9370   43.3780 C   0  0  0  0  0  3  0  0  0  0  0  0
   36.9970   27.8130   43.6800 C   0  0  0  0  0  2  0  0  0  0  0  0
   38.4640   27.5410   43.5100 C   0  0  0  0  0  2  0  0  0  0  0  0
  1  6  1  0  0  0  0
  1  2  1  0  0  0  0
  2  7  1  6  0  0  0
  2 24  1  0  0  0  0
  2  3  1  0  0  0  0
  3  8  1  0  0  0  0
  3  9  1  0  0  0  0
  4 10  1  0  0  0  0
  4  3  1  0  0  0  0
  5 12  1  0  0  0  0
  5  4  1  0  0  0  0
  6  5  1  0  0  0  0
  6 13  1  0  0  0  0
 11  5  1  0  0  0  0
 14  6  1  0  0  0  0
 15 21  1  0  0  0  0
 15 16  1  0  0  0  0
 16  1  1  0  0  0  0
 17 16  2  0  0  0  0
 17 22  1  0  0  0  0
 18 17  1  0  0  0  0
 19 20  1  0  0  0  0
 19 18  2  0  0  0  0
 20 15  2  0  0  0  0
 23 19  1  0  0  0  0
 24 26  1  0  0  0  0
 24 27  1  0  0  0  0
 25 24  1  0  0  0  0
 27 29  1  0  0  0  0
 27 28  1  0  0  0  0
 29 28  1  0  0  0  0
M  END
>  <minimizedAffinity>
-4.16779232

$$$$

 OpenBabel03252508353D

 29 31  0  0  1  0  0  0  0  0999 V2000
   36.4650   29.1510   40.2110 N   0  0  0  0  0  0  0  0  0  0  0  0
   37.1900   29.6360   39.0610 C   0  0  1  0  0  0  0  0  0  0  0  0
   36.3270   30.0910   37.9470 C   0  0  0  0  0  0  0  0  0  0  0  0
   35.1750   29.3280   37.6970 N   0  0  0  0  0  0  0  0  0  0  0  0
   34.5600   28.6770   38.7750 C   0  0  0  0  0  0  0  0  0  0  0  0
   35.0380   29.2420   40.1000 C   0  0  0  0  0  0  0  0  0  0  0  0
   37.8160   28.7980   38.6940 H   0  0  0  0  0  0  0  0  0  0  0  0
   36.9480   30.1520   37.0170 H   0  0  0  0  0  0  0  0  0  0  0  0
   36.0130   31.1420   38.1600 H   0  0  0  0  0  0  0  0  0  0  0  0
   35.2520   28.7650   36.8200 H   0  0  0  0  0  0  0  0  0  0  0  0
   34.8740   27.6020   38.7770 H   0  0  0  0  0  0  0  0  0  0  0  0
   33.4460   28.6820   38.7650 H   0  0  0  0  0  0  0  0  0  0  0  0
   34.6350   30.2710   40.1830 H   0  0  0  0  0  0  0  0  0  0  0  0
   34.6150   28.5980   40.9010 H   0  0  0  0  0  0  0  0  0  0  0  0
   37.9160   27.4690   41.0380 C   0  0  0  0  0  0  0  0  0  0  0  0
   37.2140   28.6540   41.2870 C   0  0  0  0  0  0  0  0  0  0  0  0
   37.3200   29.2210   42.5550 C   0  0  0  0  0  0  0  0  0  0  0  0
   38.0890   28.6150   43.4970 N   0  0  0  0  0  0  0  0  0  0  0  0
   38.7530   27.4740   43.2230 C   0  0  0  0  0  0  0  0  0  0  0  0
   38.6730   26.9090   42.0250 N   0  0  0  0  0  0  0  0  0  0  0  0
   37.8760   26.9700   40.0600 H   0  0  0  0  0  0  0  0  0  0  0  0
   36.7760   30.1180   42.7150 H   0  0  0  0  0  0  0  0  0  0  0  0
   39.3810   26.9400   43.9200 H   0  0  0  0  0  0  0  0  0  0  0  0
   38.0330   30.8130   39.4990 C   0  0  0  0  0  0  0  0  0  0  0  0
   38.6010   31.1400   38.5850 H   0  0  0  0  0  0  0  0  0  0  0  0
   38.7080   30.4960   40.3010 H   0  0  0  0  0  0  0  0  0  0  0  0
   37.2300   31.9920   39.9560 C   0  0  0  0  0  3  0  0  0  0  0  0
   38.0950   33.1350   40.5200 C   0  0  0  0  0  2  0  0  0  0  0  0
   37.2850   33.2960   39.2660 C   0  0  0  0  0  2  0  0  0  0  0  0
  1 16  1  0  0  0  0
  2  7  1  6  0  0  0
  2 24  1  0  0  0  0
  2  1  1  0  0  0  0
  3  9  1  0  0  0  0
  3  2  1  0  0  0  0
  4  3  1  0  0  0  0
  4  5  1  0  0  0  0
  5 11  1  0  0  0  0
  5  6  1  0  0  0  0
  6 13  1  0  0  0  0
  6  1  1  0  0  0  0
  6 14  1  0  0  0  0
  8  3  1  0  0  0  0
 10  4  1  0  0  0  0
 12  5  1  0  0  0  0
 15 16  2  0  0  0  0
 15 20  1  0  0  0  0
 16 17  1  0  0  0  0
 17 22  1  0  0  0  0
 17 18  2  0  0  0  0
 19 18  1  0  0  0  0
 19 23  1  0  0  0  0
 20 19  2  0  0  0  0
 21 15  1  0  0  0  0
 24 27  1  0  0  0  0
 24 26  1  0  0  0  0
 25 24  1  0  0  0  0
 27 28  1  0  0  0  0
 29 27  1  0  0  0  0
 29 28  1  0  0  0  0
M  END
>  <minimizedAffinity>
-4.06312084

$$$$
