
 OpenBabel03252508033D

 36 39  0  0  1  0  0  0  0  0999 V2000
   44.5140   34.2770   42.8830 C   0  0  0  0  0  0  0  0  0  0  0  0
   44.2890   35.5760   43.4030 C   0  0  0  0  0  0  0  0  0  0  0  0
   44.6710   35.7930   44.7290 C   0  0  0  0  0  0  0  0  0  0  0  0
   45.2230   34.7620   45.4180 N   0  0  0  0  0  0  0  0  0  0  0  0
   45.4190   33.5220   44.8650 C   0  0  0  0  0  0  0  0  0  0  0  0
   45.0640   33.3350   43.6440 N   0  0  0  0  0  0  0  0  0  0  0  0
   43.8650   36.4260   42.9280 H   0  0  0  0  0  0  0  0  0  0  0  0
   44.5470   36.7410   45.2270 H   0  0  0  0  0  0  0  0  0  0  0  0
   46.0190   32.4620   45.6940 C   0  0  1  0  0  0  0  0  0  0  0  0
   46.9450   32.8570   46.8260 C   0  0  0  0  0  0  0  0  0  0  0  0
   45.5340   32.4190   47.1000 C   0  0  1  0  0  0  0  0  0  0  0  0
   46.2280   31.4890   45.2270 H   0  0  0  0  0  0  0  0  0  0  0  0
   47.7300   32.1280   47.1030 H   0  0  0  0  0  0  0  0  0  0  0  0
   47.2340   33.9200   46.8360 H   0  0  0  0  0  0  0  0  0  0  0  0
   45.3650   31.4550   47.6000 H   0  0  0  0  0  0  0  0  0  0  0  0
   44.7330   33.5110   47.6240 N   0  0  0  0  0  0  0  0  0  0  0  0
   43.8060   33.2290   47.9560 H   0  0  0  0  0  0  0  0  0  0  0  0
   45.2480   34.1300   48.2710 H   0  0  0  0  0  0  0  0  0  0  0  0
   44.1090   34.0650   41.5180 C   0  0  0  0  0  0  0  0  0  0  0  0
   44.9310   33.6980   40.6020 O   0  0  0  0  0  0  0  0  0  0  0  0
   41.7450   33.3060   41.3190 C   0  0  0  0  0  0  0  0  0  0  0  0
   42.6800   34.3130   41.3050 C   0  0  0  0  0  0  0  0  0  0  0  0
   42.2540   35.6220   41.0810 C   0  0  0  0  0  0  0  0  0  0  0  0
   40.9210   35.9320   40.8740 C   0  0  0  0  0  0  0  0  0  0  0  0
   39.9830   34.9280   40.8880 C   0  0  0  0  0  0  0  0  0  0  0  0
   40.4060   33.6450   41.1080 C   0  0  0  0  0  0  0  0  0  0  0  0
   42.9080   36.4810   41.0460 H   0  0  0  0  0  0  0  0  0  0  0  0
   40.5840   36.9300   40.7030 H   0  0  0  0  0  0  0  0  0  0  0  0
   38.9540   35.1280   40.7330 H   0  0  0  0  0  0  0  0  0  0  0  0
   39.6510   32.8620   41.1150 H   0  0  0  0  0  0  0  0  0  0  0  0
   42.1570   31.7020   41.5430 S   0  0  0  0  0  0  0  0  0  0  0  0
   41.7560   31.0220   40.2490 O   0  0  0  0  0  0  0  0  0  0  0  0
   41.3540   31.0960   42.6960 O   0  0  0  0  0  0  0  0  0  0  0  0
   43.6090   30.9000   41.6620 C   0  0  0  0  0  0  0  0  0  0  0  0
   44.0990   30.0640   42.8640 C   0  0  0  0  0  0  0  0  0  0  0  0
   43.3800   29.3440   41.8150 C   0  0  0  0  0  0  0  0  0  0  0  0
  1  2  2  0  0  0  0
  1  6  1  0  0  0  0
  2  3  1  0  0  0  0
  3  8  1  0  0  0  0
  3  4  2  0  0  0  0
  5  4  1  0  0  0  0
  5  9  1  0  0  0  0
  6  5  2  0  0  0  0
  7  2  1  0  0  0  0
  9 12  1  6  0  0  0
  9 10  1  0  0  0  0
  9 11  1  0  0  0  0
 10 14  1  0  0  0  0
 10 11  1  0  0  0  0
 10 13  1  0  0  0  0
 11 15  1  1  0  0  0
 11 16  1  0  0  0  0
 16 17  1  0  0  0  0
 16 18  1  0  0  0  0
 19  1  1  0  0  0  0
 20 19  2  0  0  0  0
 21 31  1  0  0  0  0
 22 21  1  0  0  0  0
 22 19  1  0  0  0  0
 23 22  2  0  0  0  0
 24 25  2  0  0  0  0
 24 23  1  0  0  0  0
 25 26  1  0  0  0  0
 26 30  1  0  0  0  0
 26 21  2  0  0  0  0
 27 23  1  0  0  0  0
 28 24  1  0  0  0  0
 29 25  1  0  0  0  0
 31 34  1  0  0  0  0
 31 33  2  0  0  0  0
 32 31  2  0  0  0  0
 34 36  1  0  0  0  0
 34 35  1  0  0  0  0
 36 35  1  0  0  0  0
M  END
>  <minimizedAffinity>
-5.63909721

>  <minimizedRMSD>
0.312193304

$$$$
