
 OpenBabel03252509343D

 37 39  0  0  1  0  0  0  0  0999 V2000
   37.4160   28.1920   41.8090 C   0  0  1  0  0  0  0  0  0  0  0  0
   37.8280   28.5110   43.2290 C   0  0  0  0  0  0  0  0  0  0  0  0
   39.2460   28.0050   43.2410 C   0  0  0  0  0  0  0  0  0  0  0  0
   39.3180   26.9150   42.1880 C   0  0  0  0  0  0  0  0  0  0  0  0
   37.8830   26.7390   41.6920 C   0  0  1  0  0  0  0  0  0  0  0  0
   38.0020   28.8090   41.1320 H   0  0  0  0  0  0  0  0  0  0  0  0
   37.9180   29.6350   43.3250 H   0  0  0  0  0  0  0  0  0  0  0  0
   37.1740   28.0910   43.9860 H   0  0  0  0  0  0  0  0  0  0  0  0
   39.4550   27.5770   44.2430 H   0  0  0  0  0  0  0  0  0  0  0  0
   40.0000   28.7970   43.0460 H   0  0  0  0  0  0  0  0  0  0  0  0
   39.8040   26.0460   42.5540 H   0  0  0  0  0  0  0  0  0  0  0  0
   39.8460   27.3490   41.2780 H   0  0  0  0  0  0  0  0  0  0  0  0
   37.8500   26.5070   40.6230 H   0  0  0  0  0  0  0  0  0  0  0  0
   37.0520   25.8070   42.4990 C   0  0  0  0  0  0  0  0  0  0  0  0
   36.0340   26.2940   42.6270 H   0  0  0  0  0  0  0  0  0  0  0  0
   37.4590   25.6800   43.5390 H   0  0  0  0  0  0  0  0  0  0  0  0
   36.8190   24.5040   41.8240 C   0  0  0  0  0  3  0  0  0  0  0  0
   36.6480   24.3020   40.3790 C   0  0  0  0  0  2  0  0  0  0  0  0
   37.8170   23.6720   41.1610 C   0  0  0  0  0  2  0  0  0  0  0  0
   36.0430   28.3020   41.6170 O   0  0  0  0  0  0  0  0  0  0  0  0
   34.4700   29.2480   39.7790 O   0  0  0  0  0  0  0  0  0  0  0  0
   35.7090   29.5680   40.5600 P   0  0  1  0  0  0  0  0  0  0  0  0
   35.5630   31.0200   41.4020 O   0  0  0  0  0  0  0  0  0  0  0  0
   34.8610   30.8940   42.0690 H   0  0  0  0  0  0  0  0  0  0  0  0
   37.0220   29.7740   39.5280 O   0  0  0  0  0  0  0  0  0  0  0  0
   36.8800   30.9310   38.8510 C   0  0  0  0  0  0  0  0  0  0  0  0
   36.8290   30.9130   37.7660 H   0  0  0  0  0  0  0  0  0  0  0  0
   35.8970   31.3830   39.1760 H   0  0  0  0  0  0  0  0  0  0  0  0
   40.0920   32.8110   38.9310 C   0  0  0  0  0  0  0  0  0  0  0  0
   39.1230   31.8550   38.5880 C   0  0  0  0  0  0  0  0  0  0  0  0
   37.8990   31.9340   39.2070 C   0  0  0  0  0  0  0  0  0  0  0  0
   37.6940   32.9300   40.1170 N   0  0  0  0  0  0  0  0  0  0  0  0
   38.6330   33.8330   40.4310 C   0  0  0  0  0  0  0  0  0  0  0  0
   39.8200   33.7670   39.8380 N   0  0  0  0  0  0  0  0  0  0  0  0
   41.0410   32.7060   38.4140 H   0  0  0  0  0  0  0  0  0  0  0  0
   39.3590   31.0870   37.8510 H   0  0  0  0  0  0  0  0  0  0  0  0
   38.4590   34.6200   41.1550 H   0  0  0  0  0  0  0  0  0  0  0  0
  1  6  1  6  0  0  0
  1  2  1  0  0  0  0
  2  3  1  0  0  0  0
  2  7  1  0  0  0  0
  2  8  1  0  0  0  0
  3  9  1  0  0  0  0
  4 11  1  0  0  0  0
  4  3  1  0  0  0  0
  5 13  1  6  0  0  0
  5  1  1  0  0  0  0
  5  4  1  0  0  0  0
  5 14  1  0  0  0  0
 10  3  1  0  0  0  0
 12  4  1  0  0  0  0
 14 15  1  0  0  0  0
 14 16  1  0  0  0  0
 17 14  1  0  0  0  0
 18 19  1  0  0  0  0
 18 17  1  0  0  0  0
 19 17  1  0  0  0  0
 20  1  1  0  0  0  0
 22 21  2  6  0  0  0
 22 23  1  0  0  0  0
 22 20  1  0  0  0  0
 23 24  1  0  0  0  0
 25 22  1  0  0  0  0
 26 28  1  0  0  0  0
 26 31  1  0  0  0  0
 26 25  1  0  0  0  0
 27 26  1  0  0  0  0
 29 34  1  0  0  0  0
 30 29  2  0  0  0  0
 30 31  1  0  0  0  0
 31 32  2  0  0  0  0
 32 33  1  0  0  0  0
 33 37  1  0  0  0  0
 34 33  2  0  0  0  0
 35 29  1  0  0  0  0
 36 30  1  0  0  0  0
M  END
>  <minimizedAffinity>
-5.54851866

$$$$

 OpenBabel03252509343D

 37 39  0  0  1  0  0  0  0  0999 V2000
   37.2200   28.8510   41.6710 C   0  0  1  0  0  0  0  0  0  0  0  0
   37.0290   27.4020   41.2830 C   0  0  0  0  0  0  0  0  0  0  0  0
   36.6380   26.7950   42.6050 C   0  0  0  0  0  0  0  0  0  0  0  0
   37.2500   27.6780   43.6750 C   0  0  0  0  0  0  0  0  0  0  0  0
   38.0950   28.7030   42.9180 C   0  0  1  0  0  0  0  0  0  0  0  0
   36.2550   29.2610   41.9610 H   0  0  0  0  0  0  0  0  0  0  0  0
   36.0990   27.3290   40.6420 H   0  0  0  0  0  0  0  0  0  0  0  0
   37.8910   26.9540   40.7990 H   0  0  0  0  0  0  0  0  0  0  0  0
   37.0720   25.7760   42.6620 H   0  0  0  0  0  0  0  0  0  0  0  0
   35.5400   26.7050   42.7420 H   0  0  0  0  0  0  0  0  0  0  0  0
   37.7480   27.1080   44.4190 H   0  0  0  0  0  0  0  0  0  0  0  0
   36.4160   28.3170   44.1130 H   0  0  0  0  0  0  0  0  0  0  0  0
   38.0760   29.6830   43.4060 H   0  0  0  0  0  0  0  0  0  0  0  0
   39.4770   28.2580   42.5960 C   0  0  0  0  0  0  0  0  0  0  0  0
   40.1410   29.1800   42.6320 H   0  0  0  0  0  0  0  0  0  0  0  0
   39.5550   27.8710   41.5430 H   0  0  0  0  0  0  0  0  0  0  0  0
   40.0250   27.2990   43.5890 C   0  0  0  0  0  3  0  0  0  0  0  0
   40.2230   25.8600   43.3770 C   0  0  0  0  0  2  0  0  0  0  0  0
   41.3980   26.8130   43.6690 C   0  0  0  0  0  2  0  0  0  0  0  0
   37.8660   29.5850   40.6820 O   0  0  0  0  0  0  0  0  0  0  0  0
   36.5720   30.9530   38.8920 O   0  0  0  0  0  0  0  0  0  0  0  0
   36.9860   30.9760   40.3330 P   0  0  1  0  0  0  0  0  0  0  0  0
   35.6600   31.1130   41.3640 O   0  0  0  0  0  0  0  0  0  0  0  0
   35.1310   30.2990   41.2580 H   0  0  0  0  0  0  0  0  0  0  0  0
   37.9460   32.3210   40.6520 O   0  0  0  0  0  0  0  0  0  0  0  0
   39.0580   32.2650   39.8930 C   0  0  0  0  0  0  0  0  0  0  0  0
   39.1850   31.4480   39.1890 H   0  0  0  0  0  0  0  0  0  0  0  0
   39.0670   33.1970   39.2540 H   0  0  0  0  0  0  0  0  0  0  0  0
   42.3430   33.4350   41.1950 C   0  0  0  0  0  0  0  0  0  0  0  0
   41.1620   33.3740   40.4400 C   0  0  0  0  0  0  0  0  0  0  0  0
   40.2980   32.3340   40.6850 C   0  0  0  0  0  0  0  0  0  0  0  0
   40.6340   31.4230   41.6440 N   0  0  0  0  0  0  0  0  0  0  0  0
   41.7670   31.4990   42.3540 C   0  0  0  0  0  0  0  0  0  0  0  0
   42.6100   32.5000   42.1260 N   0  0  0  0  0  0  0  0  0  0  0  0
   42.9910   34.2760   40.9630 H   0  0  0  0  0  0  0  0  0  0  0  0
   40.9600   34.1390   39.6890 H   0  0  0  0  0  0  0  0  0  0  0  0
   42.0240   30.7700   43.1130 H   0  0  0  0  0  0  0  0  0  0  0  0
  1  6  1  1  0  0  0
  1  5  1  0  0  0  0
  2  1  1  0  0  0  0
  2  3  1  0  0  0  0
  3  9  1  0  0  0  0
  3 10  1  0  0  0  0
  3  4  1  0  0  0  0
  4 12  1  0  0  0  0
  4 11  1  0  0  0  0
  5 13  1  1  0  0  0
  5  4  1  0  0  0  0
  7  2  1  0  0  0  0
  8  2  1  0  0  0  0
 14 15  1  0  0  0  0
 14  5  1  0  0  0  0
 14 17  1  0  0  0  0
 16 14  1  0  0  0  0
 17 19  1  0  0  0  0
 18 17  1  0  0  0  0
 18 19  1  0  0  0  0
 20  1  1  0  0  0  0
 22 21  2  6  0  0  0
 22 25  1  0  0  0  0
 22 20  1  0  0  0  0
 22 23  1  0  0  0  0
 24 23  1  0  0  0  0
 26 25  1  0  0  0  0
 26 31  1  0  0  0  0
 27 26  1  0  0  0  0
 28 26  1  0  0  0  0
 29 34  1  0  0  0  0
 30 31  1  0  0  0  0
 30 29  2  0  0  0  0
 31 32  2  0  0  0  0
 32 33  1  0  0  0  0
 33 37  1  0  0  0  0
 34 33  2  0  0  0  0
 35 29  1  0  0  0  0
 36 30  1  0  0  0  0
M  END
>  <minimizedAffinity>
-5.15145588

$$$$

 OpenBabel03252509343D

 37 39  0  0  1  0  0  0  0  0999 V2000
   37.0210   28.4250   41.5890 C   0  0  1  0  0  0  0  0  0  0  0  0
   37.1230   26.9340   41.3620 C   0  0  0  0  0  0  0  0  0  0  0  0
   37.0050   26.4160   42.7710 C   0  0  0  0  0  0  0  0  0  0  0  0
   37.5020   27.5270   43.6760 C   0  0  0  0  0  0  0  0  0  0  0  0
   38.0210   28.6130   42.7330 C   0  0  1  0  0  0  0  0  0  0  0  0
   36.0210   28.6520   41.9510 H   0  0  0  0  0  0  0  0  0  0  0  0
   36.1770   26.5910   40.8440 H   0  0  0  0  0  0  0  0  0  0  0  0
   38.0140   26.6270   40.8230 H   0  0  0  0  0  0  0  0  0  0  0  0
   37.6590   25.5250   42.8710 H   0  0  0  0  0  0  0  0  0  0  0  0
   35.9730   26.1110   43.0440 H   0  0  0  0  0  0  0  0  0  0  0  0
   38.1830   27.1650   44.4050 H   0  0  0  0  0  0  0  0  0  0  0  0
   36.5920   28.0200   44.1480 H   0  0  0  0  0  0  0  0  0  0  0  0
   37.8300   29.6160   43.1270 H   0  0  0  0  0  0  0  0  0  0  0  0
   39.4300   28.4370   42.2930 C   0  0  0  0  0  0  0  0  0  0  0  0
   39.4120   28.3010   41.1650 H   0  0  0  0  0  0  0  0  0  0  0  0
   39.8810   27.4920   42.7030 H   0  0  0  0  0  0  0  0  0  0  0  0
   40.2770   29.6270   42.5650 C   0  0  0  0  0  3  0  0  0  0  0  0
   40.8700   30.5110   41.5530 C   0  0  0  0  0  2  0  0  0  0  0  0
   39.8460   31.0200   42.5850 C   0  0  0  0  0  2  0  0  0  0  0  0
   37.3890   29.1600   40.4670 O   0  0  0  0  0  0  0  0  0  0  0  0
   35.0290   29.4200   39.4150 O   0  0  0  0  0  0  0  0  0  0  0  0
   36.1450   30.2070   40.0330 P   0  0  1  0  0  0  0  0  0  0  0  0
   35.6250   31.0950   41.3670 O   0  0  0  0  0  0  0  0  0  0  0  0
   35.3530   30.4510   42.0490 H   0  0  0  0  0  0  0  0  0  0  0  0
   36.7450   31.3400   38.9420 O   0  0  0  0  0  0  0  0  0  0  0  0
   37.0630   32.4710   39.6030 C   0  0  0  0  0  0  0  0  0  0  0  0
   36.4930   33.3760   39.4190 H   0  0  0  0  0  0  0  0  0  0  0  0
   36.9160   32.2600   40.7030 H   0  0  0  0  0  0  0  0  0  0  0  0
   40.3320   34.1610   40.1600 C   0  0  0  0  0  0  0  0  0  0  0  0
   38.9780   33.8170   40.2910 C   0  0  0  0  0  0  0  0  0  0  0  0
   38.4850   32.8330   39.4690 C   0  0  0  0  0  0  0  0  0  0  0  0
   39.3330   32.2470   38.5750 N   0  0  0  0  0  0  0  0  0  0  0  0
   40.6240   32.5910   38.4660 C   0  0  0  0  0  0  0  0  0  0  0  0
   41.1120   33.5410   39.2550 N   0  0  0  0  0  0  0  0  0  0  0  0
   40.6720   34.9440   40.8320 H   0  0  0  0  0  0  0  0  0  0  0  0
   38.3600   34.3300   41.0290 H   0  0  0  0  0  0  0  0  0  0  0  0
   41.2880   32.1190   37.7520 H   0  0  0  0  0  0  0  0  0  0  0  0
  1  6  1  1  0  0  0
  1  5  1  0  0  0  0
  2  1  1  0  0  0  0
  2  3  1  0  0  0  0
  3  9  1  0  0  0  0
  3 10  1  0  0  0  0
  3  4  1  0  0  0  0
  4 12  1  0  0  0  0
  4 11  1  0  0  0  0
  5 13  1  1  0  0  0
  5  4  1  0  0  0  0
  7  2  1  0  0  0  0
  8  2  1  0  0  0  0
 14 17  1  0  0  0  0
 14 16  1  0  0  0  0
 14  5  1  0  0  0  0
 15 14  1  0  0  0  0
 17 19  1  0  0  0  0
 18 17  1  0  0  0  0
 18 19  1  0  0  0  0
 20  1  1  0  0  0  0
 22 21  2  6  0  0  0
 22 20  1  0  0  0  0
 22 23  1  0  0  0  0
 23 24  1  0  0  0  0
 25 26  1  0  0  0  0
 25 22  1  0  0  0  0
 26 28  1  0  0  0  0
 27 26  1  0  0  0  0
 29 30  1  0  0  0  0
 29 35  1  0  0  0  0
 30 36  1  0  0  0  0
 31 26  1  0  0  0  0
 31 30  2  0  0  0  0
 32 31  1  0  0  0  0
 33 32  2  0  0  0  0
 33 34  1  0  0  0  0
 34 29  2  0  0  0  0
 37 33  1  0  0  0  0
M  END
>  <minimizedAffinity>
-5.137146

$$$$

 OpenBabel03252509343D

 37 39  0  0  1  0  0  0  0  0999 V2000
   38.1740   31.0710   40.6080 C   0  0  1  0  0  0  0  0  0  0  0  0
   39.2300   31.5700   39.6480 C   0  0  0  0  0  0  0  0  0  0  0  0
   38.6690   32.9170   39.2720 C   0  0  0  0  0  0  0  0  0  0  0  0
   37.1660   32.8170   39.4550 C   0  0  0  0  0  0  0  0  0  0  0  0
   36.8990   31.3540   39.8090 C   0  0  1  0  0  0  0  0  0  0  0  0
   38.1850   31.7030   41.4940 H   0  0  0  0  0  0  0  0  0  0  0  0
   40.1660   31.7990   40.2420 H   0  0  0  0  0  0  0  0  0  0  0  0
   39.4300   30.8990   38.8190 H   0  0  0  0  0  0  0  0  0  0  0  0
   38.9080   33.1090   38.2060 H   0  0  0  0  0  0  0  0  0  0  0  0
   39.0890   33.7530   39.8700 H   0  0  0  0  0  0  0  0  0  0  0  0
   36.6420   33.2080   38.6200 H   0  0  0  0  0  0  0  0  0  0  0  0
   36.9000   33.3600   40.4200 H   0  0  0  0  0  0  0  0  0  0  0  0
   36.0770   31.2550   40.5240 H   0  0  0  0  0  0  0  0  0  0  0  0
   36.7450   30.4470   38.6410 C   0  0  0  0  0  0  0  0  0  0  0  0
   37.6790   29.7990   38.5970 H   0  0  0  0  0  0  0  0  0  0  0  0
   36.7270   31.0150   37.6710 H   0  0  0  0  0  0  0  0  0  0  0  0
   35.5910   29.5220   38.7710 C   0  0  0  0  0  3  0  0  0  0  0  0
   35.6570   28.1180   39.2000 C   0  0  0  0  0  2  0  0  0  0  0  0
   34.8770   29.1810   39.9980 C   0  0  0  0  0  2  0  0  0  0  0  0
   38.3080   29.7150   40.8870 O   0  0  0  0  0  0  0  0  0  0  0  0
   39.4340   30.6420   43.0360 O   0  0  0  0  0  0  0  0  0  0  0  0
   38.6170   29.4940   42.5260 P   0  0  1  0  0  0  0  0  0  0  0  0
   37.1760   29.3200   43.3820 O   0  0  0  0  0  0  0  0  0  0  0  0
   36.6410   30.1170   43.2060 H   0  0  0  0  0  0  0  0  0  0  0  0
   39.4430   28.0420   42.7320 O   0  0  0  0  0  0  0  0  0  0  0  0
   38.6400   27.1560   43.3550 C   0  0  0  0  0  0  0  0  0  0  0  0
   38.9000   26.8060   44.3490 H   0  0  0  0  0  0  0  0  0  0  0  0
   37.6350   27.6580   43.4830 H   0  0  0  0  0  0  0  0  0  0  0  0
   36.8020   24.4620   41.5620 C   0  0  0  0  0  0  0  0  0  0  0  0
   37.0570   25.6050   42.3350 C   0  0  0  0  0  0  0  0  0  0  0  0
   38.3680   25.9580   42.5430 C   0  0  0  0  0  0  0  0  0  0  0  0
   39.3450   25.1810   41.9910 N   0  0  0  0  0  0  0  0  0  0  0  0
   39.0810   24.0930   41.2560 C   0  0  0  0  0  0  0  0  0  0  0  0
   37.8170   23.7420   41.0480 N   0  0  0  0  0  0  0  0  0  0  0  0
   35.7500   24.2260   41.4270 H   0  0  0  0  0  0  0  0  0  0  0  0
   36.2240   26.1770   42.7440 H   0  0  0  0  0  0  0  0  0  0  0  0
   39.8650   23.4830   40.8230 H   0  0  0  0  0  0  0  0  0  0  0  0
  1 20  1  0  0  0  0
  1  6  1  1  0  0  0
  2  7  1  0  0  0  0
  2  1  1  0  0  0  0
  3  4  1  0  0  0  0
  3  2  1  0  0  0  0
  3 10  1  0  0  0  0
  4  5  1  0  0  0  0
  4 12  1  0  0  0  0
  5 13  1  1  0  0  0
  5  1  1  0  0  0  0
  8  2  1  0  0  0  0
  9  3  1  0  0  0  0
 11  4  1  0  0  0  0
 14 17  1  0  0  0  0
 14  5  1  0  0  0  0
 15 14  1  0  0  0  0
 16 14  1  0  0  0  0
 17 18  1  0  0  0  0
 17 19  1  0  0  0  0
 18 19  1  0  0  0  0
 20 22  1  0  0  0  0
 22 25  1  0  0  0  0
 22 21  2  1  0  0  0
 22 23  1  0  0  0  0
 24 23  1  0  0  0  0
 25 26  1  0  0  0  0
 26 28  1  0  0  0  0
 26 27  1  0  0  0  0
 29 30  1  0  0  0  0
 30 31  2  0  0  0  0
 30 36  1  0  0  0  0
 31 26  1  0  0  0  0
 32 31  1  0  0  0  0
 33 32  2  0  0  0  0
 34 33  1  0  0  0  0
 34 29  2  0  0  0  0
 35 29  1  0  0  0  0
 37 33  1  0  0  0  0
M  END
>  <minimizedAffinity>
-5.01865196

$$$$

 OpenBabel03252509343D

 37 39  0  0  1  0  0  0  0  0999 V2000
   37.3570   28.0290   41.9160 C   0  0  1  0  0  0  0  0  0  0  0  0
   37.6780   28.2630   43.3750 C   0  0  0  0  0  0  0  0  0  0  0  0
   39.0910   27.7480   43.4490 C   0  0  0  0  0  0  0  0  0  0  0  0
   39.2280   26.7200   42.3430 C   0  0  0  0  0  0  0  0  0  0  0  0
   37.8270   26.5810   41.7460 C   0  0  1  0  0  0  0  0  0  0  0  0
   37.9880   28.6800   41.3140 H   0  0  0  0  0  0  0  0  0  0  0  0
   37.7640   29.3790   43.5410 H   0  0  0  0  0  0  0  0  0  0  0  0
   36.9750   27.8040   44.0630 H   0  0  0  0  0  0  0  0  0  0  0  0
   39.2330   27.2630   44.4360 H   0  0  0  0  0  0  0  0  0  0  0  0
   39.8570   28.5450   43.3500 H   0  0  0  0  0  0  0  0  0  0  0  0
   39.6870   25.8290   42.6890 H   0  0  0  0  0  0  0  0  0  0  0  0
   39.8140   27.2020   41.4950 H   0  0  0  0  0  0  0  0  0  0  0  0
   37.8630   26.4110   40.6650 H   0  0  0  0  0  0  0  0  0  0  0  0
   36.9440   25.6090   42.4430 C   0  0  0  0  0  0  0  0  0  0  0  0
   35.9170   26.0900   42.5210 H   0  0  0  0  0  0  0  0  0  0  0  0
   37.2740   25.4310   43.5020 H   0  0  0  0  0  0  0  0  0  0  0  0
   36.7650   24.3420   41.6890 C   0  0  0  0  0  3  0  0  0  0  0  0
   36.7180   24.2100   40.2270 C   0  0  0  0  0  2  0  0  0  0  0  0
   37.8130   23.5350   41.0740 C   0  0  0  0  0  2  0  0  0  0  0  0
   35.9990   28.1570   41.6430 O   0  0  0  0  0  0  0  0  0  0  0  0
   34.5050   29.1840   39.7830 O   0  0  0  0  0  0  0  0  0  0  0  0
   35.7450   29.4410   40.5850 P   0  0  1  0  0  0  0  0  0  0  0  0
   35.6560   30.8960   41.4310 O   0  0  0  0  0  0  0  0  0  0  0  0
   34.9380   30.8020   42.0850 H   0  0  0  0  0  0  0  0  0  0  0  0
   37.0840   29.5870   39.5760 O   0  0  0  0  0  0  0  0  0  0  0  0
   37.7180   30.7460   39.8400 C   0  0  0  0  0  0  0  0  0  0  0  0
   37.8860   31.4590   39.0390 H   0  0  0  0  0  0  0  0  0  0  0  0
   37.0830   31.3040   40.5900 H   0  0  0  0  0  0  0  0  0  0  0  0
   40.5050   31.0870   42.2830 C   0  0  0  0  0  0  0  0  0  0  0  0
   39.2670   31.2740   41.6500 C   0  0  0  0  0  0  0  0  0  0  0  0
   39.0160   30.5510   40.5090 C   0  0  0  0  0  0  0  0  0  0  0  0
   39.9790   29.6950   40.0570 N   0  0  0  0  0  0  0  0  0  0  0  0
   41.1550   29.5310   40.6770 C   0  0  0  0  0  0  0  0  0  0  0  0
   41.4090   30.2250   41.7810 N   0  0  0  0  0  0  0  0  0  0  0  0
   40.6550   31.6810   43.1810 H   0  0  0  0  0  0  0  0  0  0  0  0
   38.5470   31.9760   42.0700 H   0  0  0  0  0  0  0  0  0  0  0  0
   41.9120   28.8490   40.3090 H   0  0  0  0  0  0  0  0  0  0  0  0
  1  6  1  6  0  0  0
  1  2  1  0  0  0  0
  2  3  1  0  0  0  0
  2  7  1  0  0  0  0
  2  8  1  0  0  0  0
  3  9  1  0  0  0  0
  4 11  1  0  0  0  0
  4  3  1  0  0  0  0
  5 13  1  6  0  0  0
  5  1  1  0  0  0  0
  5  4  1  0  0  0  0
  5 14  1  0  0  0  0
 10  3  1  0  0  0  0
 12  4  1  0  0  0  0
 14 15  1  0  0  0  0
 14 16  1  0  0  0  0
 17 14  1  0  0  0  0
 18 19  1  0  0  0  0
 18 17  1  0  0  0  0
 19 17  1  0  0  0  0
 20  1  1  0  0  0  0
 22 21  2  6  0  0  0
 22 23  1  0  0  0  0
 22 20  1  0  0  0  0
 23 24  1  0  0  0  0
 25 26  1  0  0  0  0
 25 22  1  0  0  0  0
 26 31  1  0  0  0  0
 26 28  1  0  0  0  0
 27 26  1  0  0  0  0
 29 35  1  0  0  0  0
 30 36  1  0  0  0  0
 30 29  2  0  0  0  0
 31 30  1  0  0  0  0
 32 31  2  0  0  0  0
 32 33  1  0  0  0  0
 33 34  2  0  0  0  0
 34 29  1  0  0  0  0
 37 33  1  0  0  0  0
M  END
>  <minimizedAffinity>
-5.00458288

$$$$

 OpenBabel03252509343D

 37 39  0  0  1  0  0  0  0  0999 V2000
   37.3090   28.2160   41.8220 C   0  0  1  0  0  0  0  0  0  0  0  0
   37.7180   28.5290   43.2440 C   0  0  0  0  0  0  0  0  0  0  0  0
   39.1630   28.1040   43.2320 C   0  0  0  0  0  0  0  0  0  0  0  0
   39.2840   27.0420   42.1560 C   0  0  0  0  0  0  0  0  0  0  0  0
   37.8560   26.7940   41.6700 C   0  0  1  0  0  0  0  0  0  0  0  0
   37.8520   28.8790   41.1520 H   0  0  0  0  0  0  0  0  0  0  0  0
   37.7450   29.6540   43.3630 H   0  0  0  0  0  0  0  0  0  0  0  0
   37.0970   28.0570   43.9990 H   0  0  0  0  0  0  0  0  0  0  0  0
   39.4060   27.6690   44.2220 H   0  0  0  0  0  0  0  0  0  0  0  0
   39.8680   28.9410   43.0460 H   0  0  0  0  0  0  0  0  0  0  0  0
   39.8230   26.1950   42.4990 H   0  0  0  0  0  0  0  0  0  0  0  0
   39.7760   27.5230   41.2500 H   0  0  0  0  0  0  0  0  0  0  0  0
   37.8250   26.5820   40.5970 H   0  0  0  0  0  0  0  0  0  0  0  0
   37.0880   25.8000   42.4660 C   0  0  0  0  0  0  0  0  0  0  0  0
   36.0660   26.2530   42.6680 H   0  0  0  0  0  0  0  0  0  0  0  0
   37.5480   25.6310   43.4780 H   0  0  0  0  0  0  0  0  0  0  0  0
   36.8540   24.5280   41.7360 C   0  0  0  0  0  3  0  0  0  0  0  0
   36.8900   24.3530   40.2780 C   0  0  0  0  0  2  0  0  0  0  0  0
   37.8700   23.6200   41.2140 C   0  0  0  0  0  2  0  0  0  0  0  0
   35.9300   28.2510   41.6460 O   0  0  0  0  0  0  0  0  0  0  0  0
   34.1170   29.2050   40.0490 O   0  0  0  0  0  0  0  0  0  0  0  0
   35.5250   29.4270   40.5130 P   0  0  1  0  0  0  0  0  0  0  0  0
   35.7370   30.9700   41.1580 O   0  0  0  0  0  0  0  0  0  0  0  0
   35.1880   31.0200   41.9630 H   0  0  0  0  0  0  0  0  0  0  0  0
   36.5960   29.3270   39.2190 O   0  0  0  0  0  0  0  0  0  0  0  0
   36.2050   28.3380   38.3910 C   0  0  0  0  0  0  0  0  0  0  0  0
   36.8410   27.4680   38.2610 H   0  0  0  0  0  0  0  0  0  0  0  0
   35.2390   27.9260   38.8060 H   0  0  0  0  0  0  0  0  0  0  0  0
   34.2760   29.0540   35.2900 C   0  0  0  0  0  0  0  0  0  0  0  0
   34.5940   28.5960   36.5770 C   0  0  0  0  0  0  0  0  0  0  0  0
   35.8680   28.8200   37.0410 C   0  0  0  0  0  0  0  0  0  0  0  0
   36.7490   29.4720   36.2280 N   0  0  0  0  0  0  0  0  0  0  0  0
   36.4260   29.9020   35.0010 C   0  0  0  0  0  0  0  0  0  0  0  0
   35.1970   29.6910   34.5420 N   0  0  0  0  0  0  0  0  0  0  0  0
   33.2570   28.8530   34.9710 H   0  0  0  0  0  0  0  0  0  0  0  0
   33.8370   28.0820   37.1700 H   0  0  0  0  0  0  0  0  0  0  0  0
   37.1340   30.4180   34.3640 H   0  0  0  0  0  0  0  0  0  0  0  0
  1  6  1  6  0  0  0
  1  2  1  0  0  0  0
  2  7  1  0  0  0  0
  2  8  1  0  0  0  0
  3  2  1  0  0  0  0
  3  9  1  0  0  0  0
  4 11  1  0  0  0  0
  4  3  1  0  0  0  0
  5 13  1  6  0  0  0
  5  1  1  0  0  0  0
  5  4  1  0  0  0  0
  5 14  1  0  0  0  0
 10  3  1  0  0  0  0
 12  4  1  0  0  0  0
 14 15  1  0  0  0  0
 14 16  1  0  0  0  0
 17 14  1  0  0  0  0
 18 19  1  0  0  0  0
 18 17  1  0  0  0  0
 19 17  1  0  0  0  0
 20  1  1  0  0  0  0
 22 21  2  6  0  0  0
 22 23  1  0  0  0  0
 22 20  1  0  0  0  0
 23 24  1  0  0  0  0
 25 22  1  0  0  0  0
 26 28  1  0  0  0  0
 26 25  1  0  0  0  0
 27 26  1  0  0  0  0
 29 30  1  0  0  0  0
 30 31  2  0  0  0  0
 30 36  1  0  0  0  0
 31 26  1  0  0  0  0
 32 31  1  0  0  0  0
 33 32  2  0  0  0  0
 34 33  1  0  0  0  0
 34 29  2  0  0  0  0
 35 29  1  0  0  0  0
 37 33  1  0  0  0  0
M  END
>  <minimizedAffinity>
-4.94578505

$$$$

 OpenBabel03252509343D

 37 39  0  0  1  0  0  0  0  0999 V2000
   37.2050   29.2390   38.7840 C   0  0  1  0  0  0  0  0  0  0  0  0
   37.7120   28.1180   37.9060 C   0  0  0  0  0  0  0  0  0  0  0  0
   37.7240   28.7860   36.5570 C   0  0  0  0  0  0  0  0  0  0  0  0
   36.6770   29.8820   36.6160 C   0  0  0  0  0  0  0  0  0  0  0  0
   35.9960   29.7160   37.9750 C   0  0  1  0  0  0  0  0  0  0  0  0
   37.9530   30.0290   38.8030 H   0  0  0  0  0  0  0  0  0  0  0  0
   38.8020   27.9410   38.1550 H   0  0  0  0  0  0  0  0  0  0  0  0
   37.1290   27.2040   37.9720 H   0  0  0  0  0  0  0  0  0  0  0  0
   37.4410   28.0340   35.7930 H   0  0  0  0  0  0  0  0  0  0  0  0
   38.7160   29.1980   36.2770 H   0  0  0  0  0  0  0  0  0  0  0  0
   36.0450   29.8690   35.7630 H   0  0  0  0  0  0  0  0  0  0  0  0
   37.2220   30.8740   36.7290 H   0  0  0  0  0  0  0  0  0  0  0  0
   35.7170   30.6820   38.4080 H   0  0  0  0  0  0  0  0  0  0  0  0
   34.8740   28.7400   37.9980 C   0  0  0  0  0  0  0  0  0  0  0  0
   34.2380   28.9850   38.9070 H   0  0  0  0  0  0  0  0  0  0  0  0
   35.2390   27.6890   38.1600 H   0  0  0  0  0  0  0  0  0  0  0  0
   33.9850   28.8490   36.8130 C   0  0  0  0  0  3  0  0  0  0  0  0
   32.9670   27.8710   36.4080 C   0  0  0  0  0  2  0  0  0  0  0  0
   32.6030   29.3170   36.7970 C   0  0  0  0  0  2  0  0  0  0  0  0
   36.8280   28.7960   40.0470 O   0  0  0  0  0  0  0  0  0  0  0  0
   38.2670   30.8430   40.7460 O   0  0  0  0  0  0  0  0  0  0  0  0
   37.1050   30.0040   41.1860 P   0  0  1  0  0  0  0  0  0  0  0  0
   35.7150   30.9290   41.4180 O   0  0  0  0  0  0  0  0  0  0  0  0
   35.4620   31.2870   40.5460 H   0  0  0  0  0  0  0  0  0  0  0  0
   37.4230   29.2860   42.6740 O   0  0  0  0  0  0  0  0  0  0  0  0
   36.8210   28.0810   42.7260 C   0  0  0  0  0  0  0  0  0  0  0  0
   36.0460   27.9020   43.4650 H   0  0  0  0  0  0  0  0  0  0  0  0
   36.3080   27.9280   41.7310 H   0  0  0  0  0  0  0  0  0  0  0  0
   38.4060   24.7450   42.2710 C   0  0  0  0  0  0  0  0  0  0  0  0
   37.4950   25.8060   42.1600 C   0  0  0  0  0  0  0  0  0  0  0  0
   37.7770   26.9660   42.8390 C   0  0  0  0  0  0  0  0  0  0  0  0
   38.9200   27.0230   43.5820 N   0  0  0  0  0  0  0  0  0  0  0  0
   39.7780   25.9980   43.6750 C   0  0  0  0  0  0  0  0  0  0  0  0
   39.5160   24.8710   43.0230 N   0  0  0  0  0  0  0  0  0  0  0  0
   38.1380   23.8510   41.7150 H   0  0  0  0  0  0  0  0  0  0  0  0
   36.6000   25.6880   41.5470 H   0  0  0  0  0  0  0  0  0  0  0  0
   40.6830   26.0540   44.2680 H   0  0  0  0  0  0  0  0  0  0  0  0
  1  6  1  1  0  0  0
  1 20  1  0  0  0  0
  2  8  1  0  0  0  0
  2  7  1  0  0  0  0
  2  1  1  0  0  0  0
  3  4  1  0  0  0  0
  3  2  1  0  0  0  0
  4 12  1  0  0  0  0
  4  5  1  0  0  0  0
  5 14  1  0  0  0  0
  5 13  1  1  0  0  0
  5  1  1  0  0  0  0
  9  3  1  0  0  0  0
 10  3  1  0  0  0  0
 11  4  1  0  0  0  0
 14 16  1  0  0  0  0
 14 15  1  0  0  0  0
 17 14  1  0  0  0  0
 18 19  1  0  0  0  0
 18 17  1  0  0  0  0
 19 17  1  0  0  0  0
 20 22  1  0  0  0  0
 22 21  2  6  0  0  0
 22 23  1  0  0  0  0
 22 25  1  0  0  0  0
 24 23  1  0  0  0  0
 25 26  1  0  0  0  0
 26 31  1  0  0  0  0
 26 27  1  0  0  0  0
 28 26  1  0  0  0  0
 29 34  1  0  0  0  0
 30 29  2  0  0  0  0
 30 31  1  0  0  0  0
 31 32  2  0  0  0  0
 32 33  1  0  0  0  0
 33 37  1  0  0  0  0
 34 33  2  0  0  0  0
 35 29  1  0  0  0  0
 36 30  1  0  0  0  0
M  END
>  <minimizedAffinity>
-4.92016888

$$$$

 OpenBabel03252509343D

 37 39  0  0  1  0  0  0  0  0999 V2000
   37.6750   29.4800   42.1200 C   0  0  1  0  0  0  0  0  0  0  0  0
   37.1410   28.3160   41.3170 C   0  0  0  0  0  0  0  0  0  0  0  0
   36.5320   27.4680   42.4030 C   0  0  0  0  0  0  0  0  0  0  0  0
   37.2880   27.8000   43.6750 C   0  0  0  0  0  0  0  0  0  0  0  0
   38.4100   28.7440   43.2430 C   0  0  1  0  0  0  0  0  0  0  0  0
   36.8330   30.0240   42.5430 H   0  0  0  0  0  0  0  0  0  0  0  0
   36.2620   28.6830   40.7060 H   0  0  0  0  0  0  0  0  0  0  0  0
   37.8850   27.8230   40.7000 H   0  0  0  0  0  0  0  0  0  0  0  0
   36.6850   26.4020   42.1390 H   0  0  0  0  0  0  0  0  0  0  0  0
   35.4420   27.6330   42.5320 H   0  0  0  0  0  0  0  0  0  0  0  0
   37.5780   26.9250   44.2000 H   0  0  0  0  0  0  0  0  0  0  0  0
   36.6220   28.4750   44.3050 H   0  0  0  0  0  0  0  0  0  0  0  0
   38.6150   29.5040   44.0040 H   0  0  0  0  0  0  0  0  0  0  0  0
   39.6470   28.0700   42.7690 C   0  0  0  0  0  0  0  0  0  0  0  0
   40.4690   28.8540   42.7530 H   0  0  0  0  0  0  0  0  0  0  0  0
   39.5480   27.7160   41.7060 H   0  0  0  0  0  0  0  0  0  0  0  0
   40.1060   26.9900   43.6800 C   0  0  0  0  0  3  0  0  0  0  0  0
   40.0660   25.5490   43.3950 C   0  0  0  0  0  2  0  0  0  0  0  0
   41.3900   26.2990   43.6400 C   0  0  0  0  0  2  0  0  0  0  0  0
   38.5430   30.2790   41.3830 O   0  0  0  0  0  0  0  0  0  0  0  0
   36.2060   31.2150   40.7450 O   0  0  0  0  0  0  0  0  0  0  0  0
   37.6720   31.4380   40.5280 P   0  0  1  0  0  0  0  0  0  0  0  0
   38.1450   32.9900   40.9840 O   0  0  0  0  0  0  0  0  0  0  0  0
   38.0120   33.0570   41.9490 H   0  0  0  0  0  0  0  0  0  0  0  0
   38.0550   31.3110   38.8950 O   0  0  0  0  0  0  0  0  0  0  0  0
   39.0080   30.3720   38.7320 C   0  0  0  0  0  0  0  0  0  0  0  0
   39.3580   29.8100   39.5930 H   0  0  0  0  0  0  0  0  0  0  0  0
   38.5830   29.5900   38.0350 H   0  0  0  0  0  0  0  0  0  0  0  0
   41.5510   32.7280   37.3780 C   0  0  0  0  0  0  0  0  0  0  0  0
   40.4090   32.2430   38.0330 C   0  0  0  0  0  0  0  0  0  0  0  0
   40.2070   30.8840   38.0470 C   0  0  0  0  0  0  0  0  0  0  0  0
   41.1230   30.0850   37.4260 N   0  0  0  0  0  0  0  0  0  0  0  0
   42.2080   30.5680   36.8050 C   0  0  0  0  0  0  0  0  0  0  0  0
   42.4140   31.8810   36.7860 N   0  0  0  0  0  0  0  0  0  0  0  0
   41.6650   33.8080   37.3960 H   0  0  0  0  0  0  0  0  0  0  0  0
   39.7210   32.9430   38.5080 H   0  0  0  0  0  0  0  0  0  0  0  0
   42.9280   29.9250   36.3150 H   0  0  0  0  0  0  0  0  0  0  0  0
  1  6  1  1  0  0  0
  1  5  1  0  0  0  0
  2  1  1  0  0  0  0
  2  3  1  0  0  0  0
  3 10  1  0  0  0  0
  3  4  1  0  0  0  0
  4 11  1  0  0  0  0
  4 12  1  0  0  0  0
  5  4  1  0  0  0  0
  5 13  1  1  0  0  0
  7  2  1  0  0  0  0
  8  2  1  0  0  0  0
  9  3  1  0  0  0  0
 14  5  1  0  0  0  0
 14 17  1  0  0  0  0
 15 14  1  0  0  0  0
 16 14  1  0  0  0  0
 18 19  1  0  0  0  0
 18 17  1  0  0  0  0
 19 17  1  0  0  0  0
 20  1  1  0  0  0  0
 22 21  2  1  0  0  0
 22 23  1  0  0  0  0
 22 20  1  0  0  0  0
 23 24  1  0  0  0  0
 25 22  1  0  0  0  0
 26 25  1  0  0  0  0
 26 27  1  0  0  0  0
 28 26  1  0  0  0  0
 29 35  1  0  0  0  0
 29 30  1  0  0  0  0
 30 31  2  0  0  0  0
 30 36  1  0  0  0  0
 31 26  1  0  0  0  0
 32 31  1  0  0  0  0
 33 32  2  0  0  0  0
 34 33  1  0  0  0  0
 34 29  2  0  0  0  0
 37 33  1  0  0  0  0
M  END
>  <minimizedAffinity>
-4.90768194

$$$$

 OpenBabel03252509343D

 37 39  0  0  1  0  0  0  0  0999 V2000
   38.7580   29.5640   41.6660 C   0  0  1  0  0  0  0  0  0  0  0  0
   39.3180   30.6740   42.5260 C   0  0  0  0  0  0  0  0  0  0  0  0
   40.7730   30.6370   42.1390 C   0  0  0  0  0  0  0  0  0  0  0  0
   41.0550   29.2190   41.6800 C   0  0  0  0  0  0  0  0  0  0  0  0
   39.7640   28.4450   41.9470 C   0  0  1  0  0  0  0  0  0  0  0  0
   38.8400   29.8610   40.6220 H   0  0  0  0  0  0  0  0  0  0  0  0
   38.9340   31.6600   42.1230 H   0  0  0  0  0  0  0  0  0  0  0  0
   39.1120   30.5620   43.5860 H   0  0  0  0  0  0  0  0  0  0  0  0
   41.3790   30.8700   43.0390 H   0  0  0  0  0  0  0  0  0  0  0  0
   41.0400   31.3720   41.3510 H   0  0  0  0  0  0  0  0  0  0  0  0
   41.9400   28.8330   42.1170 H   0  0  0  0  0  0  0  0  0  0  0  0
   41.1080   29.2300   40.5430 H   0  0  0  0  0  0  0  0  0  0  0  0
   39.5800   27.6870   41.1790 H   0  0  0  0  0  0  0  0  0  0  0  0
   39.6370   27.8980   43.3240 C   0  0  0  0  0  0  0  0  0  0  0  0
   38.7760   28.4470   43.8230 H   0  0  0  0  0  0  0  0  0  0  0  0
   40.5430   28.1270   43.9490 H   0  0  0  0  0  0  0  0  0  0  0  0
   39.2910   26.4540   43.3460 C   0  0  0  0  0  3  0  0  0  0  0  0
   38.3680   25.7760   42.4250 C   0  0  0  0  0  2  0  0  0  0  0  0
   39.8610   25.4050   42.5070 C   0  0  0  0  0  2  0  0  0  0  0  0
   37.4710   29.1970   42.0430 O   0  0  0  0  0  0  0  0  0  0  0  0
   35.3080   28.6740   40.7030 O   0  0  0  0  0  0  0  0  0  0  0  0
   36.3620   29.7230   40.8910 P   0  0  1  0  0  0  0  0  0  0  0  0
   35.6990   31.2060   41.3420 O   0  0  0  0  0  0  0  0  0  0  0  0
   35.2950   31.0820   42.2220 H   0  0  0  0  0  0  0  0  0  0  0  0
   37.1750   30.0120   39.4470 O   0  0  0  0  0  0  0  0  0  0  0  0
   36.9050   31.2640   39.0260 C   0  0  0  0  0  0  0  0  0  0  0  0
   36.6390   31.4330   37.9870 H   0  0  0  0  0  0  0  0  0  0  0  0
   36.0090   31.6210   39.6120 H   0  0  0  0  0  0  0  0  0  0  0  0
   40.2300   32.9360   39.0780 C   0  0  0  0  0  0  0  0  0  0  0  0
   39.2100   32.0240   38.7690 C   0  0  0  0  0  0  0  0  0  0  0  0
   37.9790   32.2210   39.3460 C   0  0  0  0  0  0  0  0  0  0  0  0
   37.8170   33.2860   40.1830 N   0  0  0  0  0  0  0  0  0  0  0  0
   38.8050   34.1460   40.4650 C   0  0  0  0  0  0  0  0  0  0  0  0
   40.0000   33.9660   39.9130 N   0  0  0  0  0  0  0  0  0  0  0  0
   41.1840   32.7360   38.5960 H   0  0  0  0  0  0  0  0  0  0  0  0
   39.4130   31.1940   38.0900 H   0  0  0  0  0  0  0  0  0  0  0  0
   38.6650   34.9880   41.1320 H   0  0  0  0  0  0  0  0  0  0  0  0
  1  6  1  6  0  0  0
  1  5  1  0  0  0  0
  1 20  1  0  0  0  0
  1  2  1  0  0  0  0
  2  8  1  0  0  0  0
  3  2  1  0  0  0  0
  3  9  1  0  0  0  0
  4  5  1  0  0  0  0
  4 11  1  0  0  0  0
  4  3  1  0  0  0  0
  5 13  1  6  0  0  0
  5 14  1  0  0  0  0
  7  2  1  0  0  0  0
 10  3  1  0  0  0  0
 12  4  1  0  0  0  0
 14 17  1  0  0  0  0
 14 15  1  0  0  0  0
 14 16  1  0  0  0  0
 18 19  1  0  0  0  0
 18 17  1  0  0  0  0
 19 17  1  0  0  0  0
 22 21  2  6  0  0  0
 22 23  1  0  0  0  0
 22 20  1  0  0  0  0
 23 24  1  0  0  0  0
 25 22  1  0  0  0  0
 26 31  1  0  0  0  0
 26 25  1  0  0  0  0
 26 28  1  0  0  0  0
 27 26  1  0  0  0  0
 29 34  1  0  0  0  0
 30 29  2  0  0  0  0
 30 31  1  0  0  0  0
 31 32  2  0  0  0  0
 32 33  1  0  0  0  0
 33 37  1  0  0  0  0
 34 33  2  0  0  0  0
 35 29  1  0  0  0  0
 36 30  1  0  0  0  0
M  END
>  <minimizedAffinity>
-4.85923052

$$$$
