
 OpenBabel03242522343D

 27 29  0  0  0  0  0  0  0  0999 V2000
   37.4250   29.6610   42.0360 C   0  0  0  0  0  0  0  0  0  0  0  0
   36.6240   28.5290   41.9950 C   0  0  0  0  0  0  0  0  0  0  0  0
   35.8260   28.3520   40.8910 C   0  0  0  0  0  0  0  0  0  0  0  0
   35.7760   29.2370   39.8190 C   0  0  0  0  0  0  0  0  0  0  0  0
   36.5810   30.3520   39.8880 C   0  0  0  0  0  0  0  0  0  0  0  0
   37.3890   30.5570   40.9770 C   0  0  0  0  0  0  0  0  0  0  0  0
   35.2040   27.4680   40.8620 H   0  0  0  0  0  0  0  0  0  0  0  0
   35.1180   29.0310   38.9770 H   0  0  0  0  0  0  0  0  0  0  0  0
   36.5030   31.0050   39.0330 H   0  0  0  0  0  0  0  0  0  0  0  0
   36.6020   27.5210   43.0840 C   0  0  0  0  0  0  0  0  0  0  0  0
   36.8040   28.1090   44.0250 H   0  0  0  0  0  0  0  0  0  0  0  0
   35.6260   27.0500   43.1670 H   0  0  0  0  0  0  0  0  0  0  0  0
   38.7410   24.6260   42.1700 C   0  0  0  0  0  0  0  0  0  0  0  0
   39.9040   24.9030   42.8710 C   0  0  0  0  0  0  0  0  0  0  0  0
   39.9360   26.0690   43.6410 C   0  0  0  0  0  0  0  0  0  0  0  0
   38.8460   26.8830   43.6790 N   0  0  0  0  0  0  0  0  0  0  0  0
   37.7180   26.5640   42.9660 C   0  0  0  0  0  0  0  0  0  0  0  0
   37.7040   25.4480   42.2370 N   0  0  0  0  0  0  0  0  0  0  0  0
   38.6150   23.7400   41.5400 H   0  0  0  0  0  0  0  0  0  0  0  0
   40.7170   24.2060   42.7860 H   0  0  0  0  0  0  0  0  0  0  0  0
   40.8420   26.2940   44.1930 H   0  0  0  0  0  0  0  0  0  0  0  0
   38.2320   29.8680   43.1230 O   0  0  0  0  0  0  0  0  0  0  0  0
   39.1940   29.5670   43.0780 H   0  0  0  0  0  0  0  0  0  0  0  0
   38.1870   31.6660   41.0440 O   0  0  0  0  0  0  0  0  0  0  0  0
   38.4990   32.5750   40.0460 C   0  0  0  0  0  3  0  0  0  0  0  0
   38.9250   33.9690   40.5620 C   0  0  0  0  0  2  0  0  0  0  0  0
   37.6810   33.7960   39.8100 C   0  0  0  0  0  2  0  0  0  0  0  0
  1 22  1  0  0  0  0
  2  1  1  0  0  0  0
  2 10  1  0  0  0  0
  3  2  2  0  0  0  0
  4  5  2  0  0  0  0
  4  3  1  0  0  0  0
  5  6  1  0  0  0  0
  6 24  1  0  0  0  0
  6  1  2  0  0  0  0
  7  3  1  0  0  0  0
  8  4  1  0  0  0  0
  9  5  1  0  0  0  0
 10 12  1  0  0  0  0
 10 11  1  0  0  0  0
 13 18  2  0  0  0  0
 13 14  1  0  0  0  0
 14 15  2  0  0  0  0
 15 16  1  0  0  0  0
 15 21  1  0  0  0  0
 17 10  1  0  0  0  0
 17 16  2  0  0  0  0
 18 17  1  0  0  0  0
 19 13  1  0  0  0  0
 20 14  1  0  0  0  0
 23 22  1  0  0  0  0
 25 26  1  0  0  0  0
 25 24  1  0  0  0  0
 27 25  1  0  0  0  0
 27 26  1  0  0  0  0
M  END
>  <minimizedAffinity>
-5.16936493

$$$$

 OpenBabel03242522343D

 27 29  0  0  0  0  0  0  0  0999 V2000
   36.4900   31.2660   39.8800 C   0  0  0  0  0  0  0  0  0  0  0  0
   36.1330   30.0760   39.2640 C   0  0  0  0  0  0  0  0  0  0  0  0
   36.6010   29.8500   37.9930 C   0  0  0  0  0  0  0  0  0  0  0  0
   37.4070   30.7410   37.2930 C   0  0  0  0  0  0  0  0  0  0  0  0
   37.7450   31.9150   37.9280 C   0  0  0  0  0  0  0  0  0  0  0  0
   37.2930   32.1690   39.1990 C   0  0  0  0  0  0  0  0  0  0  0  0
   36.3200   28.9200   37.5160 H   0  0  0  0  0  0  0  0  0  0  0  0
   37.7400   30.4940   36.2860 H   0  0  0  0  0  0  0  0  0  0  0  0
   38.3690   32.5690   37.3420 H   0  0  0  0  0  0  0  0  0  0  0  0
   35.2770   29.0570   39.9220 C   0  0  0  0  0  0  0  0  0  0  0  0
   34.6080   29.6450   40.6140 H   0  0  0  0  0  0  0  0  0  0  0  0
   34.6600   28.5310   39.1980 H   0  0  0  0  0  0  0  0  0  0  0  0
   37.1430   27.5930   42.7810 C   0  0  0  0  0  0  0  0  0  0  0  0
   37.5310   26.3670   42.2650 C   0  0  0  0  0  0  0  0  0  0  0  0
   37.1510   26.0630   40.9550 C   0  0  0  0  0  0  0  0  0  0  0  0
   36.4240   26.9630   40.2380 N   0  0  0  0  0  0  0  0  0  0  0  0
   36.0640   28.1640   40.7950 C   0  0  0  0  0  0  0  0  0  0  0  0
   36.4350   28.4380   42.0460 N   0  0  0  0  0  0  0  0  0  0  0  0
   37.3900   27.9250   43.7950 H   0  0  0  0  0  0  0  0  0  0  0  0
   38.1050   25.7160   42.9000 H   0  0  0  0  0  0  0  0  0  0  0  0
   37.4500   25.1060   40.5430 H   0  0  0  0  0  0  0  0  0  0  0  0
   36.0390   31.5230   41.1480 O   0  0  0  0  0  0  0  0  0  0  0  0
   36.6360   31.2990   41.9300 H   0  0  0  0  0  0  0  0  0  0  0  0
   37.6290   33.3370   39.8280 O   0  0  0  0  0  0  0  0  0  0  0  0
   38.6640   33.5810   40.7150 C   0  0  0  0  0  3  0  0  0  0  0  0
   39.9410   34.1610   40.0640 C   0  0  0  0  0  2  0  0  0  0  0  0
   39.9440   32.8230   40.6590 C   0  0  0  0  0  2  0  0  0  0  0  0
  1 22  1  0  0  0  0
  2  1  1  0  0  0  0
  2 10  1  0  0  0  0
  3  2  2  0  0  0  0
  4  5  2  0  0  0  0
  4  3  1  0  0  0  0
  5  6  1  0  0  0  0
  6 24  1  0  0  0  0
  6  1  2  0  0  0  0
  7  3  1  0  0  0  0
  8  4  1  0  0  0  0
  9  5  1  0  0  0  0
 10 11  1  0  0  0  0
 10 17  1  0  0  0  0
 12 10  1  0  0  0  0
 13 19  1  0  0  0  0
 14 13  1  0  0  0  0
 14 20  1  0  0  0  0
 15 14  2  0  0  0  0
 16 17  2  0  0  0  0
 16 15  1  0  0  0  0
 17 18  1  0  0  0  0
 18 13  2  0  0  0  0
 21 15  1  0  0  0  0
 22 23  1  0  0  0  0
 24 25  1  0  0  0  0
 26 27  1  0  0  0  0
 26 25  1  0  0  0  0
 27 25  1  0  0  0  0
M  END
>  <minimizedAffinity>
-5.13489056

$$$$

 OpenBabel03242522343D

 27 29  0  0  0  0  0  0  0  0999 V2000
   37.8230   29.6880   42.1850 C   0  0  0  0  0  0  0  0  0  0  0  0
   38.1890   28.4830   42.7660 C   0  0  0  0  0  0  0  0  0  0  0  0
   39.5290   28.2500   42.9600 C   0  0  0  0  0  0  0  0  0  0  0  0
   40.5320   29.1470   42.6090 C   0  0  0  0  0  0  0  0  0  0  0  0
   40.1390   30.3340   42.0330 C   0  0  0  0  0  0  0  0  0  0  0  0
   38.8080   30.5970   41.8260 C   0  0  0  0  0  0  0  0  0  0  0  0
   39.8110   27.3100   43.4140 H   0  0  0  0  0  0  0  0  0  0  0  0
   41.5740   28.8930   42.7930 H   0  0  0  0  0  0  0  0  0  0  0  0
   40.9540   30.9920   41.7790 H   0  0  0  0  0  0  0  0  0  0  0  0
   37.1990   27.4570   43.1780 C   0  0  0  0  0  0  0  0  0  0  0  0
   37.6790   26.9260   44.0490 H   0  0  0  0  0  0  0  0  0  0  0  0
   36.2710   27.9140   43.5120 H   0  0  0  0  0  0  0  0  0  0  0  0
   36.8600   24.2330   41.3660 C   0  0  0  0  0  0  0  0  0  0  0  0
   36.6510   24.6620   40.0640 C   0  0  0  0  0  0  0  0  0  0  0  0
   36.6300   26.0410   39.8310 C   0  0  0  0  0  0  0  0  0  0  0  0
   36.8110   26.9040   40.8670 N   0  0  0  0  0  0  0  0  0  0  0  0
   37.0150   26.4270   42.1370 C   0  0  0  0  0  0  0  0  0  0  0  0
   37.0320   25.1100   42.3430 N   0  0  0  0  0  0  0  0  0  0  0  0
   36.8940   23.1770   41.6520 H   0  0  0  0  0  0  0  0  0  0  0  0
   36.5170   23.9140   39.3050 H   0  0  0  0  0  0  0  0  0  0  0  0
   36.4660   26.3850   38.8160 H   0  0  0  0  0  0  0  0  0  0  0  0
   36.4950   29.9520   41.9760 O   0  0  0  0  0  0  0  0  0  0  0  0
   35.9930   30.4880   42.6680 H   0  0  0  0  0  0  0  0  0  0  0  0
   38.4200   31.7770   41.2530 O   0  0  0  0  0  0  0  0  0  0  0  0
   38.3740   32.1190   39.9120 C   0  0  0  0  0  3  0  0  0  0  0  0
   37.4090   33.2810   39.5820 C   0  0  0  0  0  2  0  0  0  0  0  0
   37.1460   31.9270   39.0920 C   0  0  0  0  0  2  0  0  0  0  0  0
  1  2  1  0  0  0  0
  2  3  2  0  0  0  0
  2 10  1  0  0  0  0
  3  7  1  0  0  0  0
  4  8  1  0  0  0  0
  4  3  1  0  0  0  0
  5  4  2  0  0  0  0
  6  5  1  0  0  0  0
  6  1  2  0  0  0  0
  9  5  1  0  0  0  0
 10 12  1  0  0  0  0
 10 11  1  0  0  0  0
 13 19  1  0  0  0  0
 13 18  1  0  0  0  0
 14 13  2  0  0  0  0
 15 14  1  0  0  0  0
 15 16  2  0  0  0  0
 16 17  1  0  0  0  0
 17 18  2  0  0  0  0
 17 10  1  0  0  0  0
 20 14  1  0  0  0  0
 21 15  1  0  0  0  0
 22  1  1  0  0  0  0
 22 23  1  0  0  0  0
 24  6  1  0  0  0  0
 25 24  1  0  0  0  0
 26 25  1  0  0  0  0
 27 26  1  0  0  0  0
 27 25  1  0  0  0  0
M  END
>  <minimizedAffinity>
-5.01876831

$$$$

 OpenBabel03242522343D

 27 29  0  0  0  0  0  0  0  0999 V2000
   36.8140   28.6060   41.7650 C   0  0  0  0  0  0  0  0  0  0  0  0
   36.4000   29.4470   40.7430 C   0  0  0  0  0  0  0  0  0  0  0  0
   36.2100   28.8940   39.5000 C   0  0  0  0  0  0  0  0  0  0  0  0
   36.4080   27.5490   39.2100 C   0  0  0  0  0  0  0  0  0  0  0  0
   36.8200   26.7370   40.2430 C   0  0  0  0  0  0  0  0  0  0  0  0
   37.0180   27.2600   41.4960 C   0  0  0  0  0  0  0  0  0  0  0  0
   35.8860   29.5530   38.7050 H   0  0  0  0  0  0  0  0  0  0  0  0
   36.2380   27.1820   38.2000 H   0  0  0  0  0  0  0  0  0  0  0  0
   36.9590   25.7060   39.9650 H   0  0  0  0  0  0  0  0  0  0  0  0
   36.1600   30.8970   40.9450 C   0  0  0  0  0  0  0  0  0  0  0  0
   35.4940   31.2020   40.0870 H   0  0  0  0  0  0  0  0  0  0  0  0
   35.6380   31.0860   41.8800 H   0  0  0  0  0  0  0  0  0  0  0  0
   39.6610   32.1220   41.1340 C   0  0  0  0  0  0  0  0  0  0  0  0
   39.5970   33.2780   40.3710 C   0  0  0  0  0  0  0  0  0  0  0  0
   38.3620   33.6160   39.8080 C   0  0  0  0  0  0  0  0  0  0  0  0
   37.2820   32.8180   40.0210 N   0  0  0  0  0  0  0  0  0  0  0  0
   37.3980   31.6830   40.7850 C   0  0  0  0  0  0  0  0  0  0  0  0
   38.5820   31.3750   41.3140 N   0  0  0  0  0  0  0  0  0  0  0  0
   40.5790   31.7710   41.6180 H   0  0  0  0  0  0  0  0  0  0  0  0
   40.4980   33.8510   40.2540 H   0  0  0  0  0  0  0  0  0  0  0  0
   38.3030   34.5180   39.2100 H   0  0  0  0  0  0  0  0  0  0  0  0
   37.0140   29.1250   43.0170 O   0  0  0  0  0  0  0  0  0  0  0  0
   36.2660   29.0670   43.6910 H   0  0  0  0  0  0  0  0  0  0  0  0
   37.4290   26.4520   42.5220 O   0  0  0  0  0  0  0  0  0  0  0  0
   38.6360   25.7930   42.6810 C   0  0  0  0  0  3  0  0  0  0  0  0
   39.6050   26.4680   43.6790 C   0  0  0  0  0  2  0  0  0  0  0  0
   39.9270   26.3990   42.2520 C   0  0  0  0  0  2  0  0  0  0  0  0
  1 22  1  0  0  0  0
  2 10  1  0  0  0  0
  2  1  2  0  0  0  0
  3  2  1  0  0  0  0
  4  3  2  0  0  0  0
  4  5  1  0  0  0  0
  5  6  2  0  0  0  0
  6  1  1  0  0  0  0
  6 24  1  0  0  0  0
  7  3  1  0  0  0  0
  8  4  1  0  0  0  0
  9  5  1  0  0  0  0
 10 12  1  0  0  0  0
 11 10  1  0  0  0  0
 13 18  1  0  0  0  0
 13 19  1  0  0  0  0
 14 13  2  0  0  0  0
 15 16  2  0  0  0  0
 15 14  1  0  0  0  0
 16 17  1  0  0  0  0
 17 10  1  0  0  0  0
 17 18  2  0  0  0  0
 20 14  1  0  0  0  0
 21 15  1  0  0  0  0
 22 23  1  0  0  0  0
 24 25  1  0  0  0  0
 25 26  1  0  0  0  0
 27 25  1  0  0  0  0
 27 26  1  0  0  0  0
M  END
>  <minimizedAffinity>
-4.79999495

$$$$

 OpenBabel03242522343D

 27 29  0  0  0  0  0  0  0  0999 V2000
   36.9890   27.0250   40.9670 C   0  0  0  0  0  0  0  0  0  0  0  0
   36.5220   28.1980   41.5430 C   0  0  0  0  0  0  0  0  0  0  0  0
   37.0020   28.5320   42.7860 C   0  0  0  0  0  0  0  0  0  0  0  0
   37.9220   27.7680   43.4940 C   0  0  0  0  0  0  0  0  0  0  0  0
   38.3670   26.6090   42.8990 C   0  0  0  0  0  0  0  0  0  0  0  0
   37.9070   26.2480   41.6570 C   0  0  0  0  0  0  0  0  0  0  0  0
   36.6360   29.4470   43.2310 H   0  0  0  0  0  0  0  0  0  0  0  0
   38.2570   28.0960   44.4760 H   0  0  0  0  0  0  0  0  0  0  0  0
   39.0780   26.0540   43.4890 H   0  0  0  0  0  0  0  0  0  0  0  0
   35.5400   29.0860   40.8720 C   0  0  0  0  0  0  0  0  0  0  0  0
   34.9300   28.4000   40.2170 H   0  0  0  0  0  0  0  0  0  0  0  0
   34.8810   29.5620   41.5940 H   0  0  0  0  0  0  0  0  0  0  0  0
   37.0900   30.6790   37.8970 C   0  0  0  0  0  0  0  0  0  0  0  0
   37.4290   31.9290   38.3920 C   0  0  0  0  0  0  0  0  0  0  0  0
   37.1220   32.2040   39.7280 C   0  0  0  0  0  0  0  0  0  0  0  0
   36.5130   31.2550   40.4890 N   0  0  0  0  0  0  0  0  0  0  0  0
   36.1990   30.0320   39.9510 C   0  0  0  0  0  0  0  0  0  0  0  0
   36.4970   29.7870   38.6760 N   0  0  0  0  0  0  0  0  0  0  0  0
   37.2870   30.3670   36.8660 H   0  0  0  0  0  0  0  0  0  0  0  0
   37.9090   32.6190   37.7220 H   0  0  0  0  0  0  0  0  0  0  0  0
   37.3840   33.1790   40.1230 H   0  0  0  0  0  0  0  0  0  0  0  0
   36.5300   26.6620   39.7280 O   0  0  0  0  0  0  0  0  0  0  0  0
   37.0740   26.9120   38.9160 H   0  0  0  0  0  0  0  0  0  0  0  0
   38.3500   25.0950   41.0680 O   0  0  0  0  0  0  0  0  0  0  0  0
   37.8940   23.7990   41.2380 C   0  0  0  0  0  3  0  0  0  0  0  0
   38.4150   22.7940   40.1850 C   0  0  0  0  0  2  0  0  0  0  0  0
   36.9950   23.1440   40.2490 C   0  0  0  0  0  2  0  0  0  0  0  0
  1  2  2  0  0  0  0
  1  6  1  0  0  0  0
  2  3  1  0  0  0  0
  3  7  1  0  0  0  0
  3  4  2  0  0  0  0
  4  8  1  0  0  0  0
  5  9  1  0  0  0  0
  5  4  1  0  0  0  0
  6  5  2  0  0  0  0
 10  2  1  0  0  0  0
 10 12  1  0  0  0  0
 11 10  1  0  0  0  0
 13 14  2  0  0  0  0
 13 18  1  0  0  0  0
 14 15  1  0  0  0  0
 15 21  1  0  0  0  0
 15 16  2  0  0  0  0
 17 16  1  0  0  0  0
 17 10  1  0  0  0  0
 18 17  2  0  0  0  0
 19 13  1  0  0  0  0
 20 14  1  0  0  0  0
 22  1  1  0  0  0  0
 23 22  1  0  0  0  0
 24 25  1  0  0  0  0
 24  6  1  0  0  0  0
 26 27  1  0  0  0  0
 26 25  1  0  0  0  0
 27 25  1  0  0  0  0
M  END
>  <minimizedAffinity>
-4.73690653

$$$$

 OpenBabel03242522343D

 27 29  0  0  0  0  0  0  0  0999 V2000
   39.3260   28.3970   42.8770 C   0  0  0  0  0  0  0  0  0  0  0  0
   38.5130   29.4040   42.3790 C   0  0  0  0  0  0  0  0  0  0  0  0
   37.1770   29.1260   42.2220 C   0  0  0  0  0  0  0  0  0  0  0  0
   36.5980   27.9010   42.5310 C   0  0  0  0  0  0  0  0  0  0  0  0
   37.4280   26.9190   43.0230 C   0  0  0  0  0  0  0  0  0  0  0  0
   38.7680   27.1660   43.1910 C   0  0  0  0  0  0  0  0  0  0  0  0
   36.5460   29.9150   41.8340 H   0  0  0  0  0  0  0  0  0  0  0  0
   35.5300   27.7530   42.3800 H   0  0  0  0  0  0  0  0  0  0  0  0
   36.9300   25.9900   43.2460 H   0  0  0  0  0  0  0  0  0  0  0  0
   39.0300   30.7480   42.0170 C   0  0  0  0  0  0  0  0  0  0  0  0
   38.5910   31.4440   42.7880 H   0  0  0  0  0  0  0  0  0  0  0  0
   40.1140   30.7860   42.0840 H   0  0  0  0  0  0  0  0  0  0  0  0
   37.1860   32.5700   39.3580 C   0  0  0  0  0  0  0  0  0  0  0  0
   37.6200   31.9160   38.2150 C   0  0  0  0  0  0  0  0  0  0  0  0
   38.5320   30.8680   38.3740 C   0  0  0  0  0  0  0  0  0  0  0  0
   38.9580   30.5270   39.6200 N   0  0  0  0  0  0  0  0  0  0  0  0
   38.4970   31.2070   40.7190 C   0  0  0  0  0  0  0  0  0  0  0  0
   37.6290   32.2040   40.5510 N   0  0  0  0  0  0  0  0  0  0  0  0
   36.4740   33.4020   39.3400 H   0  0  0  0  0  0  0  0  0  0  0  0
   37.2330   32.2490   37.2700 H   0  0  0  0  0  0  0  0  0  0  0  0
   38.8770   30.3510   37.4850 H   0  0  0  0  0  0  0  0  0  0  0  0
   40.6630   28.6410   43.0450 O   0  0  0  0  0  0  0  0  0  0  0  0
   40.9930   28.9310   43.9530 H   0  0  0  0  0  0  0  0  0  0  0  0
   39.5920   26.1890   43.6790 O   0  0  0  0  0  0  0  0  0  0  0  0
   40.1090   25.0820   43.0290 C   0  0  0  0  0  3  0  0  0  0  0  0
   41.6470   25.0950   42.8710 C   0  0  0  0  0  2  0  0  0  0  0  0
   40.7730   25.1880   41.7000 C   0  0  0  0  0  2  0  0  0  0  0  0
  1 22  1  0  0  0  0
  1  6  1  0  0  0  0
  2  1  2  0  0  0  0
  3  2  1  0  0  0  0
  3  4  2  0  0  0  0
  4  5  1  0  0  0  0
  5  6  2  0  0  0  0
  5  9  1  0  0  0  0
  6 24  1  0  0  0  0
  7  3  1  0  0  0  0
  8  4  1  0  0  0  0
 10 12  1  0  0  0  0
 10  2  1  0  0  0  0
 10 11  1  0  0  0  0
 13 18  1  0  0  0  0
 14 15  1  0  0  0  0
 14 13  2  0  0  0  0
 15 16  2  0  0  0  0
 16 17  1  0  0  0  0
 17 10  1  0  0  0  0
 18 17  2  0  0  0  0
 19 13  1  0  0  0  0
 20 14  1  0  0  0  0
 21 15  1  0  0  0  0
 22 23  1  0  0  0  0
 25 24  1  0  0  0  0
 26 25  1  0  0  0  0
 27 26  1  0  0  0  0
 27 25  1  0  0  0  0
M  END
>  <minimizedAffinity>
-4.6344347

$$$$

 OpenBabel03242522343D

 27 29  0  0  0  0  0  0  0  0999 V2000
   36.1970   29.4600   38.2540 C   0  0  0  0  0  0  0  0  0  0  0  0
   36.1900   30.0420   39.5130 C   0  0  0  0  0  0  0  0  0  0  0  0
   36.8110   31.2590   39.6560 C   0  0  0  0  0  0  0  0  0  0  0  0
   37.4410   31.9360   38.6180 C   0  0  0  0  0  0  0  0  0  0  0  0
   37.4330   31.3350   37.3790 C   0  0  0  0  0  0  0  0  0  0  0  0
   36.8200   30.1190   37.2040 C   0  0  0  0  0  0  0  0  0  0  0  0
   36.8030   31.7100   40.6400 H   0  0  0  0  0  0  0  0  0  0  0  0
   37.9130   32.8980   38.8070 H   0  0  0  0  0  0  0  0  0  0  0  0
   37.9340   31.9000   36.6110 H   0  0  0  0  0  0  0  0  0  0  0  0
   35.5460   29.4040   40.6880 C   0  0  0  0  0  0  0  0  0  0  0  0
   35.3600   30.2500   41.4100 H   0  0  0  0  0  0  0  0  0  0  0  0
   34.5940   28.9530   40.4210 H   0  0  0  0  0  0  0  0  0  0  0  0
   37.5640   26.4500   41.6840 C   0  0  0  0  0  0  0  0  0  0  0  0
   38.2210   26.9230   42.8090 C   0  0  0  0  0  0  0  0  0  0  0  0
   37.9620   28.2380   43.2060 C   0  0  0  0  0  0  0  0  0  0  0  0
   37.0920   29.0010   42.4910 N   0  0  0  0  0  0  0  0  0  0  0  0
   36.4680   28.4840   41.3830 C   0  0  0  0  0  0  0  0  0  0  0  0
   36.7250   27.2290   41.0180 N   0  0  0  0  0  0  0  0  0  0  0  0
   37.6970   25.4360   41.2920 H   0  0  0  0  0  0  0  0  0  0  0  0
   38.8910   26.2540   43.3170 H   0  0  0  0  0  0  0  0  0  0  0  0
   38.4720   28.6170   44.0850 H   0  0  0  0  0  0  0  0  0  0  0  0
   35.5870   28.2470   38.0760 O   0  0  0  0  0  0  0  0  0  0  0  0
   34.6360   28.2260   37.7410 H   0  0  0  0  0  0  0  0  0  0  0  0
   36.8140   29.5230   35.9720 O   0  0  0  0  0  0  0  0  0  0  0  0
   35.9390   29.7160   34.9170 C   0  0  0  0  0  3  0  0  0  0  0  0
   36.5280   29.3760   33.5280 C   0  0  0  0  0  2  0  0  0  0  0  0
   36.1770   30.7540   33.8760 C   0  0  0  0  0  2  0  0  0  0  0  0
  1  2  1  0  0  0  0
  2  3  2  0  0  0  0
  2 10  1  0  0  0  0
  3  7  1  0  0  0  0
  4  8  1  0  0  0  0
  4  3  1  0  0  0  0
  5  4  2  0  0  0  0
  6  5  1  0  0  0  0
  6  1  2  0  0  0  0
  9  5  1  0  0  0  0
 10 17  1  0  0  0  0
 10 11  1  0  0  0  0
 12 10  1  0  0  0  0
 13 14  1  0  0  0  0
 14 15  2  0  0  0  0
 14 20  1  0  0  0  0
 15 21  1  0  0  0  0
 16 15  1  0  0  0  0
 17 16  2  0  0  0  0
 18 17  1  0  0  0  0
 18 13  2  0  0  0  0
 19 13  1  0  0  0  0
 22  1  1  0  0  0  0
 23 22  1  0  0  0  0
 24  6  1  0  0  0  0
 25 24  1  0  0  0  0
 26 27  1  0  0  0  0
 26 25  1  0  0  0  0
 27 25  1  0  0  0  0
M  END
>  <minimizedAffinity>
-4.62987041

$$$$

 OpenBabel03242522343D

 27 29  0  0  0  0  0  0  0  0999 V2000
   38.9110   27.7370   41.7240 C   0  0  0  0  0  0  0  0  0  0  0  0
   38.6700   29.0290   42.1690 C   0  0  0  0  0  0  0  0  0  0  0  0
   37.7050   29.2030   43.1310 C   0  0  0  0  0  0  0  0  0  0  0  0
   36.9610   28.1640   43.6800 C   0  0  0  0  0  0  0  0  0  0  0  0
   37.2210   26.8930   43.2190 C   0  0  0  0  0  0  0  0  0  0  0  0
   38.1790   26.6870   42.2590 C   0  0  0  0  0  0  0  0  0  0  0  0
   37.5200   30.2110   43.4750 H   0  0  0  0  0  0  0  0  0  0  0  0
   36.2110   28.3780   44.4390 H   0  0  0  0  0  0  0  0  0  0  0  0
   36.6170   26.1260   43.6760 H   0  0  0  0  0  0  0  0  0  0  0  0
   39.4080   30.2070   41.6490 C   0  0  0  0  0  0  0  0  0  0  0  0
   39.4250   30.9390   42.5070 H   0  0  0  0  0  0  0  0  0  0  0  0
   40.4310   29.9490   41.3860 H   0  0  0  0  0  0  0  0  0  0  0  0
   37.3320   32.5760   39.6810 C   0  0  0  0  0  0  0  0  0  0  0  0
   37.3460   31.9870   38.4270 C   0  0  0  0  0  0  0  0  0  0  0  0
   38.0610   30.7960   38.2760 C   0  0  0  0  0  0  0  0  0  0  0  0
   38.7110   30.2590   39.3450 N   0  0  0  0  0  0  0  0  0  0  0  0
   38.6660   30.8820   40.5670 C   0  0  0  0  0  0  0  0  0  0  0  0
   37.9790   32.0170   40.6930 N   0  0  0  0  0  0  0  0  0  0  0  0
   36.8010   33.5080   39.9020 H   0  0  0  0  0  0  0  0  0  0  0  0
   36.8050   32.4770   37.6370 H   0  0  0  0  0  0  0  0  0  0  0  0
   38.0780   30.3290   37.2980 H   0  0  0  0  0  0  0  0  0  0  0  0
   39.8670   27.5290   40.7650 O   0  0  0  0  0  0  0  0  0  0  0  0
   40.7980   27.2720   41.0560 H   0  0  0  0  0  0  0  0  0  0  0  0
   38.4350   25.4230   41.8020 O   0  0  0  0  0  0  0  0  0  0  0  0
   37.6320   24.2970   41.8620 C   0  0  0  0  0  3  0  0  0  0  0  0
   37.8210   23.3140   40.6830 C   0  0  0  0  0  2  0  0  0  0  0  0
   36.5610   24.0390   40.8590 C   0  0  0  0  0  2  0  0  0  0  0  0
  1  2  2  0  0  0  0
  1  6  1  0  0  0  0
  2  3  1  0  0  0  0
  3  7  1  0  0  0  0
  3  4  2  0  0  0  0
  4  8  1  0  0  0  0
  5  9  1  0  0  0  0
  5  4  1  0  0  0  0
  6  5  2  0  0  0  0
 10  2  1  0  0  0  0
 10 11  1  0  0  0  0
 12 10  1  0  0  0  0
 13 19  1  0  0  0  0
 13 18  1  0  0  0  0
 14 13  2  0  0  0  0
 15 14  1  0  0  0  0
 15 16  2  0  0  0  0
 16 17  1  0  0  0  0
 17 18  2  0  0  0  0
 17 10  1  0  0  0  0
 20 14  1  0  0  0  0
 21 15  1  0  0  0  0
 22 23  1  0  0  0  0
 22  1  1  0  0  0  0
 24 25  1  0  0  0  0
 24  6  1  0  0  0  0
 26 27  1  0  0  0  0
 26 25  1  0  0  0  0
 27 25  1  0  0  0  0
M  END
>  <minimizedAffinity>
-4.55815792

$$$$

 OpenBabel03242522343D

 27 29  0  0  0  0  0  0  0  0999 V2000
   36.3960   31.0620   39.8310 C   0  0  0  0  0  0  0  0  0  0  0  0
   36.0260   30.0050   39.0120 C   0  0  0  0  0  0  0  0  0  0  0  0
   36.6040   29.9300   37.7690 C   0  0  0  0  0  0  0  0  0  0  0  0
   37.5320   30.8470   37.2880 C   0  0  0  0  0  0  0  0  0  0  0  0
   37.8800   31.8850   38.1210 C   0  0  0  0  0  0  0  0  0  0  0  0
   37.3200   31.9880   39.3700 C   0  0  0  0  0  0  0  0  0  0  0  0
   36.3130   29.1040   37.1330 H   0  0  0  0  0  0  0  0  0  0  0  0
   37.9480   30.7230   36.2890 H   0  0  0  0  0  0  0  0  0  0  0  0
   38.6010   32.5660   37.7000 H   0  0  0  0  0  0  0  0  0  0  0  0
   35.0440   28.9730   39.4290 C   0  0  0  0  0  0  0  0  0  0  0  0
   35.6710   28.1020   39.7780 H   0  0  0  0  0  0  0  0  0  0  0  0
   34.4310   29.3200   40.2570 H   0  0  0  0  0  0  0  0  0  0  0  0
   33.7560   26.9190   36.6160 C   0  0  0  0  0  0  0  0  0  0  0  0
   32.6980   27.6920   36.1630 C   0  0  0  0  0  0  0  0  0  0  0  0
   32.4460   28.8970   36.8250 C   0  0  0  0  0  0  0  0  0  0  0  0
   33.2300   29.2690   37.8730 N   0  0  0  0  0  0  0  0  0  0  0  0
   34.2650   28.4660   38.2820 C   0  0  0  0  0  0  0  0  0  0  0  0
   34.4920   27.3200   37.6410 N   0  0  0  0  0  0  0  0  0  0  0  0
   34.0350   25.9600   36.1660 H   0  0  0  0  0  0  0  0  0  0  0  0
   32.1300   27.3250   35.3280 H   0  0  0  0  0  0  0  0  0  0  0  0
   31.6200   29.5090   36.4780 H   0  0  0  0  0  0  0  0  0  0  0  0
   35.8370   31.1670   41.0780 O   0  0  0  0  0  0  0  0  0  0  0  0
   36.3370   30.7860   41.8670 H   0  0  0  0  0  0  0  0  0  0  0  0
   37.6660   33.0220   40.1970 O   0  0  0  0  0  0  0  0  0  0  0  0
   38.8080   33.1780   40.9640 C   0  0  0  0  0  3  0  0  0  0  0  0
   39.8460   34.1600   40.3720 C   0  0  0  0  0  2  0  0  0  0  0  0
   40.1460   32.7310   40.4850 C   0  0  0  0  0  2  0  0  0  0  0  0
  1 22  1  0  0  0  0
  2 10  1  0  0  0  0
  2  1  2  0  0  0  0
  3  2  1  0  0  0  0
  4  3  2  0  0  0  0
  4  5  1  0  0  0  0
  5  6  2  0  0  0  0
  6  1  1  0  0  0  0
  6 24  1  0  0  0  0
  7  3  1  0  0  0  0
  8  4  1  0  0  0  0
  9  5  1  0  0  0  0
 10 11  1  0  0  0  0
 10 12  1  0  0  0  0
 13 18  1  0  0  0  0
 14 13  2  0  0  0  0
 14 15  1  0  0  0  0
 15 16  2  0  0  0  0
 16 17  1  0  0  0  0
 17 10  1  0  0  0  0
 18 17  2  0  0  0  0
 19 13  1  0  0  0  0
 20 14  1  0  0  0  0
 21 15  1  0  0  0  0
 22 23  1  0  0  0  0
 24 25  1  0  0  0  0
 26 27  1  0  0  0  0
 26 25  1  0  0  0  0
 27 25  1  0  0  0  0
M  END
>  <minimizedAffinity>
-4.54444218

$$$$
