
 OpenBabel03252509003D

 39 41  0  0  1  0  0  0  0  0999 V2000
   46.7410   34.3850   43.4120 N   0  0  0  0  0  0  0  0  0  0  0  0
   46.4520   34.8860   42.1140 C   0  0  0  0  0  0  0  0  0  0  0  0
   44.9940   34.8460   41.7220 C   0  0  0  0  0  0  0  0  0  0  0  0
   44.0370   35.0590   42.8640 C   0  0  0  0  0  0  0  0  0  0  0  0
   44.7620   35.3540   44.1540 C   0  0  0  0  0  0  0  0  0  0  0  0
   45.7220   34.1220   44.3150 C   0  0  2  0  0  0  0  0  0  0  0  0
   46.7280   35.9680   42.1090 H   0  0  0  0  0  0  0  0  0  0  0  0
   47.0190   34.4420   41.2930 H   0  0  0  0  0  0  0  0  0  0  0  0
   44.8220   33.8790   41.2000 H   0  0  0  0  0  0  0  0  0  0  0  0
   44.8260   35.6250   40.9450 H   0  0  0  0  0  0  0  0  0  0  0  0
   43.4430   34.1380   42.9770 H   0  0  0  0  0  0  0  0  0  0  0  0
   43.3720   35.9340   42.6550 H   0  0  0  0  0  0  0  0  0  0  0  0
   45.3910   36.2400   44.0820 H   0  0  0  0  0  0  0  0  0  0  0  0
   44.0260   35.3520   44.9610 H   0  0  0  0  0  0  0  0  0  0  0  0
   45.0890   33.2300   44.1640 H   0  0  0  0  0  0  0  0  0  0  0  0
   47.9470   33.6140   43.4880 C   0  0  0  0  0  0  0  0  0  0  0  0
   48.7760   34.2200   43.0880 H   0  0  0  0  0  0  0  0  0  0  0  0
   48.1320   33.3900   44.5660 H   0  0  0  0  0  0  0  0  0  0  0  0
   47.7460   32.3200   42.7750 C   0  0  0  0  0  0  0  0  0  0  0  0
   47.6020   31.4430   43.4180 H   0  0  0  0  0  0  0  0  0  0  0  0
   46.8370   32.3700   42.1260 H   0  0  0  0  0  0  0  0  0  0  0  0
   51.2460   32.1540   41.4100 C   0  0  0  0  0  0  0  0  0  0  0  0
   50.1610   32.3610   42.2820 C   0  0  0  0  0  0  0  0  0  0  0  0
   48.8820   32.0960   41.8420 C   0  0  0  0  0  0  0  0  0  0  0  0
   48.7360   31.6500   40.5890 N   0  0  0  0  0  0  0  0  0  0  0  0
   49.7820   31.4550   39.7620 C   0  0  0  0  0  0  0  0  0  0  0  0
   51.0410   31.7050   40.1620 N   0  0  0  0  0  0  0  0  0  0  0  0
   52.2500   32.3620   41.7540 H   0  0  0  0  0  0  0  0  0  0  0  0
   50.3610   32.7250   43.2840 H   0  0  0  0  0  0  0  0  0  0  0  0
   49.6460   31.0940   38.7540 H   0  0  0  0  0  0  0  0  0  0  0  0
   46.1570   34.2800   45.6310 O   0  0  0  0  0  0  0  0  0  0  0  0
   45.7480   31.6550   45.6270 O   0  0  0  0  0  0  0  0  0  0  0  0
   46.0680   32.8570   46.5210 P   0  0  2  0  0  0  0  0  0  0  0  0
   44.7030   33.0190   47.5370 O   0  0  0  0  0  0  0  0  0  0  0  0
   44.7270   33.8870   48.0030 H   0  0  0  0  0  0  0  0  0  0  0  0
   47.4070   32.6140   47.4710 O   0  0  0  0  0  0  0  0  0  0  0  0
   47.2860   31.6640   48.4520 C   0  0  0  0  0  3  0  0  0  0  0  0
   47.8540   30.3040   48.3160 C   0  0  0  0  0  2  0  0  0  0  0  0
   48.6130   31.2990   49.1280 C   0  0  0  0  0  2  0  0  0  0  0  0
  1 16  1  0  0  0  0
  1  6  1  0  0  0  0
  2  1  1  0  0  0  0
  3  2  1  0  0  0  0
  3  4  1  0  0  0  0
  4 11  1  0  0  0  0
  4  5  1  0  0  0  0
  5  6  1  0  0  0  0
  5 14  1  0  0  0  0
  6 15  1  6  0  0  0
  6 31  1  0  0  0  0
  7  2  1  0  0  0  0
  8  2  1  0  0  0  0
  9  3  1  0  0  0  0
 10  3  1  0  0  0  0
 12  4  1  0  0  0  0
 13  5  1  0  0  0  0
 16 18  1  0  0  0  0
 17 16  1  0  0  0  0
 19 20  1  0  0  0  0
 19 16  1  0  0  0  0
 21 19  1  0  0  0  0
 22 28  1  0  0  0  0
 22 23  1  0  0  0  0
 23 29  1  0  0  0  0
 24 23  2  0  0  0  0
 24 19  1  0  0  0  0
 25 24  1  0  0  0  0
 26 27  1  0  0  0  0
 26 25  2  0  0  0  0
 27 22  2  0  0  0  0
 30 26  1  0  0  0  0
 31 33  1  0  0  0  0
 33 32  2  6  0  0  0
 33 36  1  0  0  0  0
 33 34  1  0  0  0  0
 34 35  1  0  0  0  0
 36 37  1  0  0  0  0
 37 39  1  0  0  0  0
 38 37  1  0  0  0  0
 38 39  1  0  0  0  0
M  END
>  <minimizedAffinity>
-4.67107868

>  <minimizedRMSD>
2.47484803

$$$$
