
 OpenBabel03242519363D

 18 19  0  0  0  0  0  0  0  0999 V2000
   44.6980   36.1380   44.4410 C   0  0  0  0  0  0  0  0  0  0  0  0
   44.8890   36.0010   43.0550 C   0  0  0  0  0  0  0  0  0  0  0  0
   45.2910   34.7560   42.5880 C   0  0  0  0  0  0  0  0  0  0  0  0
   45.4780   33.7440   43.4700 N   0  0  0  0  0  0  0  0  0  0  0  0
   45.2870   33.9060   44.7890 C   0  0  0  0  0  0  0  0  0  0  0  0
   44.8950   35.1020   45.2870 N   0  0  0  0  0  0  0  0  0  0  0  0
   44.3830   37.1490   44.7260 H   0  0  0  0  0  0  0  0  0  0  0  0
   44.7320   36.8320   42.3700 H   0  0  0  0  0  0  0  0  0  0  0  0
   45.4400   33.0850   45.4880 H   0  0  0  0  0  0  0  0  0  0  0  0
   45.4810   34.6260   41.2100 O   0  0  0  0  0  0  0  0  0  0  0  0
   46.1520   32.1610   40.5410 O   0  0  0  0  0  0  0  0  0  0  0  0
   46.7090   33.5850   40.6370 P   0  0  1  0  0  0  0  0  0  0  0  0
   47.2560   34.1320   39.1600 O   0  0  0  0  0  0  0  0  0  0  0  0
   46.5530   33.9080   38.4940 H   0  0  0  0  0  0  0  0  0  0  0  0
   47.9490   33.5450   41.8060 O   0  0  0  0  0  0  0  0  0  0  0  0
   49.0420   34.3130   41.3810 C   0  0  0  0  0  0  0  0  0  0  0  0
   48.8930   35.7840   41.6690 C   0  0  0  0  0  0  0  0  0  0  0  0
   49.8790   34.9860   42.4390 C   0  0  0  0  0  0  0  0  0  0  0  0
  1  7  1  0  0  0  0
  1  6  1  0  0  0  0
  2  1  2  0  0  0  0
  3  2  1  0  0  0  0
  3  4  2  0  0  0  0
  4  5  1  0  0  0  0
  5  6  2  0  0  0  0
  5  9  1  0  0  0  0
  8  2  1  0  0  0  0
 10  3  1  0  0  0  0
 12 11  2  6  0  0  0
 12 10  1  0  0  0  0
 12 15  1  0  0  0  0
 13 12  1  0  0  0  0
 14 13  1  0  0  0  0
 16 17  1  0  0  0  0
 16 15  1  0  0  0  0
 16 18  1  0  0  0  0
 17 18  1  0  0  0  0
M  END
>  <minimizedAffinity>
-4.21998358

>  <minimizedRMSD>
1.9763552

$$$$
