
 OpenBabel03242520533D

 21 22  0  0  0  0  0  0  0  0999 V2000
   44.8390   34.9510   43.7210 C   0  0  0  0  0  0  0  0  0  0  0  0
   45.7310   35.5370   42.8030 C   0  0  0  0  0  0  0  0  0  0  0  0
   47.0280   35.0820   42.7310 C   0  0  0  0  0  0  0  0  0  0  0  0
   47.3730   34.0820   43.5630 N   0  0  0  0  0  0  0  0  0  0  0  0
   46.5370   33.5240   44.4330 C   0  0  0  0  0  0  0  0  0  0  0  0
   45.2610   33.9540   44.5210 N   0  0  0  0  0  0  0  0  0  0  0  0
   43.8320   35.3560   43.7270 H   0  0  0  0  0  0  0  0  0  0  0  0
   45.4540   36.3490   42.1250 H   0  0  0  0  0  0  0  0  0  0  0  0
   46.9660   32.4350   45.3130 C   0  0  0  0  0  0  0  0  0  0  0  0
   46.1830   31.8800   46.1890 C   0  0  0  0  0  0  0  0  0  0  0  0
   46.6180   30.7800   47.0690 C   0  0  0  0  0  0  0  0  0  0  0  0
   45.8600   29.9600   47.0070 H   0  0  0  0  0  0  0  0  0  0  0  0
   47.6080   30.3540   46.7370 H   0  0  0  0  0  0  0  0  0  0  0  0
   46.7000   31.1960   48.5070 C   0  0  0  0  0  0  0  0  0  0  0  0
   45.7850   32.2910   49.0030 C   0  0  0  0  0  0  0  0  0  0  0  0
   45.4830   30.8890   49.3780 C   0  0  0  0  0  0  0  0  0  0  0  0
   47.9780   35.5740   41.8810 O   0  0  0  0  0  0  0  0  0  0  0  0
   48.2140   34.8370   40.6690 C   0  0  0  0  0  0  0  0  0  0  0  0
   47.0010   34.4030   40.1560 F   0  0  0  0  0  0  0  0  0  0  0  0
   48.8190   35.7150   39.7600 F   0  0  0  0  0  0  0  0  0  0  0  0
   49.0820   33.7690   40.8810 F   0  0  0  0  0  0  0  0  0  0  0  0
  1  7  1  0  0  0  0
  1  6  1  0  0  0  0
  2  1  2  0  0  0  0
  3  2  1  0  0  0  0
  3  4  2  0  0  0  0
  4  5  1  0  0  0  0
  5  6  2  0  0  0  0
  5  9  1  0  0  0  0
  8  2  1  0  0  0  0
  9 10  2  0  0  0  0
 10 11  1  0  0  0  0
 11 14  1  0  0  0  0
 12 11  1  0  0  0  0
 13 11  1  0  0  0  0
 14 15  1  0  0  0  0
 14 16  1  0  0  0  0
 15 16  1  0  0  0  0
 17  3  1  0  0  0  0
 18 21  1  0  0  0  0
 18 17  1  0  0  0  0
 19 18  1  0  0  0  0
 20 18  1  0  0  0  0
M  END
>  <minimizedAffinity>
-4.96503592

>  <minimizedRMSD>
1.7416625

$$$$
