
 OpenBabel03242512353D

 14 15  0  0  0  0  0  0  0  0999 V2000
   37.5500   30.4240   41.3470 C   0  0  0  0  0  0  0  0  0  0  0  0
   36.7490   31.2280   40.5200 C   0  0  0  0  0  0  0  0  0  0  0  0
   37.3250   32.3920   40.0250 C   0  0  0  0  0  0  0  0  0  0  0  0
   38.6170   32.6980   40.3560 N   0  0  0  0  0  0  0  0  0  0  0  0
   39.3400   31.8980   41.1490 C   0  0  0  0  0  0  0  0  0  0  0  0
   38.8040   30.7780   41.6320 N   0  0  0  0  0  0  0  0  0  0  0  0
   35.7250   31.0200   40.2370 H   0  0  0  0  0  0  0  0  0  0  0  0
   36.7190   33.0360   39.3780 H   0  0  0  0  0  0  0  0  0  0  0  0
   40.3670   32.1770   41.3900 H   0  0  0  0  0  0  0  0  0  0  0  0
   36.9560   29.2260   41.8560 C   0  0  0  0  0  0  0  0  0  0  0  0
   36.0830   28.5500   41.2100 O   0  0  0  0  0  0  0  0  0  0  0  0
   37.3340   28.6890   43.1970 C   0  0  0  0  0  3  0  0  0  0  0  0
   38.1750   27.4410   43.1770 C   0  0  0  0  0  2  0  0  0  0  0  0
   36.7850   27.4070   43.6790 C   0  0  0  0  0  2  0  0  0  0  0  0
  1  6  1  0  0  0  0
  1 10  1  0  0  0  0
  2  1  2  0  0  0  0
  3  4  2  0  0  0  0
  3  2  1  0  0  0  0
  4  5  1  0  0  0  0
  5  9  1  0  0  0  0
  5  6  2  0  0  0  0
  7  2  1  0  0  0  0
  8  3  1  0  0  0  0
 10 12  1  0  0  0  0
 11 10  2  0  0  0  0
 12 14  1  0  0  0  0
 13 12  1  0  0  0  0
 13 14  1  0  0  0  0
M  END
>  <minimizedAffinity>
-3.62799168

$$$$

 OpenBabel03242512353D

 14 15  0  0  0  0  0  0  0  0999 V2000
   36.8760   28.6370   41.8560 C   0  0  0  0  0  0  0  0  0  0  0  0
   35.7830   28.9420   41.0290 C   0  0  0  0  0  0  0  0  0  0  0  0
   35.8320   30.1510   40.3430 C   0  0  0  0  0  0  0  0  0  0  0  0
   36.9150   30.9710   40.5000 N   0  0  0  0  0  0  0  0  0  0  0  0
   37.9320   30.6350   41.3010 C   0  0  0  0  0  0  0  0  0  0  0  0
   37.9040   29.4800   41.9660 N   0  0  0  0  0  0  0  0  0  0  0  0
   34.9110   28.3200   40.8800 H   0  0  0  0  0  0  0  0  0  0  0  0
   34.9890   30.4110   39.6920 H   0  0  0  0  0  0  0  0  0  0  0  0
   38.7790   31.3160   41.4000 H   0  0  0  0  0  0  0  0  0  0  0  0
   36.8250   27.3920   42.5610 C   0  0  0  0  0  0  0  0  0  0  0  0
   36.1470   27.2230   43.6320 O   0  0  0  0  0  0  0  0  0  0  0  0
   37.5780   26.1990   42.0710 C   0  0  0  0  0  3  0  0  0  0  0  0
   36.9700   25.4950   40.8880 C   0  0  0  0  0  2  0  0  0  0  0  0
   37.0170   24.8420   42.2130 C   0  0  0  0  0  2  0  0  0  0  0  0
  1  6  1  0  0  0  0
  1 10  1  0  0  0  0
  2  1  2  0  0  0  0
  3  4  2  0  0  0  0
  3  2  1  0  0  0  0
  4  5  1  0  0  0  0
  5  9  1  0  0  0  0
  5  6  2  0  0  0  0
  7  2  1  0  0  0  0
  8  3  1  0  0  0  0
 10 11  2  0  0  0  0
 12 14  1  0  0  0  0
 12 10  1  0  0  0  0
 13 12  1  0  0  0  0
 13 14  1  0  0  0  0
M  END
>  <minimizedAffinity>
-3.58670235

$$$$

 OpenBabel03242512353D

 14 15  0  0  0  0  0  0  0  0999 V2000
   37.6850   30.0320   41.6740 C   0  0  0  0  0  0  0  0  0  0  0  0
   38.5400   29.6400   42.7160 C   0  0  0  0  0  0  0  0  0  0  0  0
   38.2700   28.4200   43.3260 C   0  0  0  0  0  0  0  0  0  0  0  0
   37.2090   27.6720   42.8970 N   0  0  0  0  0  0  0  0  0  0  0  0
   36.4220   28.0900   41.8980 C   0  0  0  0  0  0  0  0  0  0  0  0
   36.6660   29.2560   41.3010 N   0  0  0  0  0  0  0  0  0  0  0  0
   39.3880   30.2030   43.0830 H   0  0  0  0  0  0  0  0  0  0  0  0
   38.9250   28.0940   44.1430 H   0  0  0  0  0  0  0  0  0  0  0  0
   35.5850   27.4640   41.5840 H   0  0  0  0  0  0  0  0  0  0  0  0
   37.9640   31.2870   41.0460 C   0  0  0  0  0  0  0  0  0  0  0  0
   39.0710   31.9110   41.1920 O   0  0  0  0  0  0  0  0  0  0  0  0
   36.9540   31.9490   40.1670 C   0  0  0  0  0  3  0  0  0  0  0  0
   37.2040   31.8190   38.6890 C   0  0  0  0  0  2  0  0  0  0  0  0
   37.3150   33.1310   39.3600 C   0  0  0  0  0  2  0  0  0  0  0  0
  1  2  1  0  0  0  0
  2  7  1  0  0  0  0
  2  3  2  0  0  0  0
  3  8  1  0  0  0  0
  4  3  1  0  0  0  0
  5  4  2  0  0  0  0
  6  1  2  0  0  0  0
  6  5  1  0  0  0  0
  9  5  1  0  0  0  0
 10 11  2  0  0  0  0
 10  1  1  0  0  0  0
 12 10  1  0  0  0  0
 13 14  1  0  0  0  0
 13 12  1  0  0  0  0
 14 12  1  0  0  0  0
M  END
>  <minimizedAffinity>
-3.56393838

$$$$

 OpenBabel03242512353D

 14 15  0  0  0  0  0  0  0  0999 V2000
   38.0780   26.7090   42.7110 C   0  0  0  0  0  0  0  0  0  0  0  0
   39.2340   26.7920   43.5030 C   0  0  0  0  0  0  0  0  0  0  0  0
   39.9670   25.6230   43.6700 C   0  0  0  0  0  0  0  0  0  0  0  0
   39.5420   24.4690   43.0710 N   0  0  0  0  0  0  0  0  0  0  0  0
   38.4320   24.4420   42.3240 C   0  0  0  0  0  0  0  0  0  0  0  0
   37.7160   25.5530   42.1520 N   0  0  0  0  0  0  0  0  0  0  0  0
   39.6010   27.6850   43.9930 H   0  0  0  0  0  0  0  0  0  0  0  0
   40.8730   25.6640   44.2860 H   0  0  0  0  0  0  0  0  0  0  0  0
   38.1260   23.5020   41.8620 H   0  0  0  0  0  0  0  0  0  0  0  0
   37.3240   27.9130   42.5380 C   0  0  0  0  0  0  0  0  0  0  0  0
   37.4780   28.9460   43.2770 O   0  0  0  0  0  0  0  0  0  0  0  0
   36.2960   28.0300   41.4620 C   0  0  0  0  0  3  0  0  0  0  0  0
   36.8230   28.4240   40.1080 C   0  0  0  0  0  2  0  0  0  0  0  0
   35.9590   29.3430   40.8790 C   0  0  0  0  0  2  0  0  0  0  0  0
  1  2  1  0  0  0  0
  2  3  2  0  0  0  0
  2  7  1  0  0  0  0
  3  8  1  0  0  0  0
  4  3  1  0  0  0  0
  5  4  2  0  0  0  0
  6  5  1  0  0  0  0
  6  1  2  0  0  0  0
  9  5  1  0  0  0  0
 10  1  1  0  0  0  0
 10 11  2  0  0  0  0
 12 10  1  0  0  0  0
 13 14  1  0  0  0  0
 13 12  1  0  0  0  0
 14 12  1  0  0  0  0
M  END
>  <minimizedAffinity>
-3.46559596

$$$$

 OpenBabel03242512353D

 14 15  0  0  0  0  0  0  0  0999 V2000
   37.6690   29.5090   41.7860 C   0  0  0  0  0  0  0  0  0  0  0  0
   37.2350   28.4900   40.9230 C   0  0  0  0  0  0  0  0  0  0  0  0
   36.9110   27.2700   41.5050 C   0  0  0  0  0  0  0  0  0  0  0  0
   37.0250   27.1170   42.8600 N   0  0  0  0  0  0  0  0  0  0  0  0
   37.4440   28.1210   43.6390 C   0  0  0  0  0  0  0  0  0  0  0  0
   37.7590   29.2980   43.1000 N   0  0  0  0  0  0  0  0  0  0  0  0
   37.1320   28.5730   39.8490 H   0  0  0  0  0  0  0  0  0  0  0  0
   36.5710   26.4590   40.8510 H   0  0  0  0  0  0  0  0  0  0  0  0
   37.5220   27.9600   44.7160 H   0  0  0  0  0  0  0  0  0  0  0  0
   38.0020   30.7660   41.1860 C   0  0  0  0  0  0  0  0  0  0  0  0
   39.1840   31.2540   41.2000 O   0  0  0  0  0  0  0  0  0  0  0  0
   36.9640   31.5890   40.4970 C   0  0  0  0  0  3  0  0  0  0  0  0
   37.0380   31.5910   38.9940 C   0  0  0  0  0  2  0  0  0  0  0  0
   37.3370   32.8150   39.7660 C   0  0  0  0  0  2  0  0  0  0  0  0
  1  6  1  0  0  0  0
  2  3  1  0  0  0  0
  2  1  2  0  0  0  0
  3  4  2  0  0  0  0
  4  5  1  0  0  0  0
  5  9  1  0  0  0  0
  6  5  2  0  0  0  0
  7  2  1  0  0  0  0
  8  3  1  0  0  0  0
 10 11  2  0  0  0  0
 10  1  1  0  0  0  0
 12 10  1  0  0  0  0
 13 14  1  0  0  0  0
 13 12  1  0  0  0  0
 14 12  1  0  0  0  0
M  END
>  <minimizedAffinity>
-3.4426899

$$$$

 OpenBabel03242512353D

 14 15  0  0  0  0  0  0  0  0999 V2000
   37.0090   30.2170   40.3050 C   0  0  0  0  0  0  0  0  0  0  0  0
   36.9400   31.5960   40.5600 C   0  0  0  0  0  0  0  0  0  0  0  0
   37.1600   32.4460   39.4830 C   0  0  0  0  0  0  0  0  0  0  0  0
   37.4290   31.9170   38.2500 N   0  0  0  0  0  0  0  0  0  0  0  0
   37.4840   30.5940   38.0580 C   0  0  0  0  0  0  0  0  0  0  0  0
   37.2750   29.7630   39.0790 N   0  0  0  0  0  0  0  0  0  0  0  0
   36.7310   32.0510   41.5190 H   0  0  0  0  0  0  0  0  0  0  0  0
   37.1120   33.5270   39.6580 H   0  0  0  0  0  0  0  0  0  0  0  0
   37.7000   30.2100   37.0600 H   0  0  0  0  0  0  0  0  0  0  0  0
   36.7810   29.3410   41.4150 C   0  0  0  0  0  0  0  0  0  0  0  0
   35.8630   28.4510   41.4250 O   0  0  0  0  0  0  0  0  0  0  0  0
   37.6240   29.4230   42.6450 C   0  0  0  0  0  3  0  0  0  0  0  0
   38.7120   28.3880   42.7500 C   0  0  0  0  0  2  0  0  0  0  0  0
   37.5590   28.3690   43.6750 C   0  0  0  0  0  2  0  0  0  0  0  0
  1  2  1  0  0  0  0
  1 10  1  0  0  0  0
  2  7  1  0  0  0  0
  3  8  1  0  0  0  0
  3  2  2  0  0  0  0
  4  3  1  0  0  0  0
  5  4  2  0  0  0  0
  5  6  1  0  0  0  0
  6  1  2  0  0  0  0
  9  5  1  0  0  0  0
 10 11  2  0  0  0  0
 10 12  1  0  0  0  0
 12 13  1  0  0  0  0
 12 14  1  0  0  0  0
 13 14  1  0  0  0  0
M  END
>  <minimizedAffinity>
-3.3873446

$$$$

 OpenBabel03242512353D

 14 15  0  0  0  0  0  0  0  0999 V2000
   37.5270   26.7530   42.2750 C   0  0  0  0  0  0  0  0  0  0  0  0
   37.2330   27.4690   41.1040 C   0  0  0  0  0  0  0  0  0  0  0  0
   37.1420   28.8510   41.2190 C   0  0  0  0  0  0  0  0  0  0  0  0
   37.3390   29.4410   42.4380 N   0  0  0  0  0  0  0  0  0  0  0  0
   37.6170   28.7130   43.5260 C   0  0  0  0  0  0  0  0  0  0  0  0
   37.7080   27.3870   43.4350 N   0  0  0  0  0  0  0  0  0  0  0  0
   37.0710   27.0390   40.1250 H   0  0  0  0  0  0  0  0  0  0  0  0
   36.9130   29.4320   40.3180 H   0  0  0  0  0  0  0  0  0  0  0  0
   37.7680   29.2200   44.4800 H   0  0  0  0  0  0  0  0  0  0  0  0
   37.6200   25.3290   42.1570 C   0  0  0  0  0  0  0  0  0  0  0  0
   36.6150   24.5490   42.2940 O   0  0  0  0  0  0  0  0  0  0  0  0
   38.9240   24.6650   41.8590 C   0  0  0  0  0  3  0  0  0  0  0  0
   39.7790   24.3560   43.0590 C   0  0  0  0  0  2  0  0  0  0  0  0
   40.2000   25.3760   42.0740 C   0  0  0  0  0  2  0  0  0  0  0  0
  1  6  1  0  0  0  0
  2  3  1  0  0  0  0
  2  1  2  0  0  0  0
  3  4  2  0  0  0  0
  4  5  1  0  0  0  0
  5  9  1  0  0  0  0
  6  5  2  0  0  0  0
  7  2  1  0  0  0  0
  8  3  1  0  0  0  0
 10  1  1  0  0  0  0
 10 11  2  0  0  0  0
 12 14  1  0  0  0  0
 12 10  1  0  0  0  0
 12 13  1  0  0  0  0
 14 13  1  0  0  0  0
M  END
>  <minimizedAffinity>
-3.35823512

$$$$

 OpenBabel03242512353D

 14 15  0  0  0  0  0  0  0  0999 V2000
   36.7520   28.5170   41.4580 C   0  0  0  0  0  0  0  0  0  0  0  0
   36.9370   27.1490   41.7160 C   0  0  0  0  0  0  0  0  0  0  0  0
   37.7380   26.8170   42.8020 C   0  0  0  0  0  0  0  0  0  0  0  0
   38.2990   27.8110   43.5550 N   0  0  0  0  0  0  0  0  0  0  0  0
   38.0930   29.1020   43.2680 C   0  0  0  0  0  0  0  0  0  0  0  0
   37.3280   29.4400   42.2310 N   0  0  0  0  0  0  0  0  0  0  0  0
   36.5100   26.3360   41.1440 H   0  0  0  0  0  0  0  0  0  0  0  0
   37.8970   25.7550   43.0220 H   0  0  0  0  0  0  0  0  0  0  0  0
   38.5580   29.8660   43.8930 H   0  0  0  0  0  0  0  0  0  0  0  0
   35.9270   28.8590   40.3400 C   0  0  0  0  0  0  0  0  0  0  0  0
   34.6680   29.0650   40.4380 O   0  0  0  0  0  0  0  0  0  0  0  0
   36.5050   28.9970   38.9700 C   0  0  0  0  0  3  0  0  0  0  0  0
   36.7240   30.4110   38.5030 C   0  0  0  0  0  2  0  0  0  0  0  0
   35.7020   29.5560   37.8650 C   0  0  0  0  0  2  0  0  0  0  0  0
  1  2  2  0  0  0  0
  1  6  1  0  0  0  0
  2  3  1  0  0  0  0
  3  8  1  0  0  0  0
  3  4  2  0  0  0  0
  5  4  1  0  0  0  0
  5  9  1  0  0  0  0
  6  5  2  0  0  0  0
  7  2  1  0  0  0  0
 10 11  2  0  0  0  0
 10  1  1  0  0  0  0
 12 10  1  0  0  0  0
 13 12  1  0  0  0  0
 14 13  1  0  0  0  0
 14 12  1  0  0  0  0
M  END
>  <minimizedAffinity>
-3.34972858

$$$$

 OpenBabel03242512353D

 14 15  0  0  0  0  0  0  0  0999 V2000
   38.0530   29.9250   41.2390 C   0  0  0  0  0  0  0  0  0  0  0  0
   39.2400   30.6220   41.5130 C   0  0  0  0  0  0  0  0  0  0  0  0
   39.2510   31.9820   41.2230 C   0  0  0  0  0  0  0  0  0  0  0  0
   38.1330   32.5680   40.6980 N   0  0  0  0  0  0  0  0  0  0  0  0
   37.0240   31.8590   40.4550 C   0  0  0  0  0  0  0  0  0  0  0  0
   36.9950   30.5550   40.7260 N   0  0  0  0  0  0  0  0  0  0  0  0
   40.1430   30.1940   41.9270 H   0  0  0  0  0  0  0  0  0  0  0  0
   40.1680   32.5470   41.4280 H   0  0  0  0  0  0  0  0  0  0  0  0
   36.1520   32.3630   40.0350 H   0  0  0  0  0  0  0  0  0  0  0  0
   38.0420   28.5250   41.5380 C   0  0  0  0  0  0  0  0  0  0  0  0
   39.0360   27.7540   41.3080 O   0  0  0  0  0  0  0  0  0  0  0  0
   36.8420   27.8770   42.1470 C   0  0  0  0  0  3  0  0  0  0  0  0
   36.8720   27.7470   43.6460 C   0  0  0  0  0  2  0  0  0  0  0  0
   36.9430   26.5490   42.7830 C   0  0  0  0  0  2  0  0  0  0  0  0
  1  2  1  0  0  0  0
  1 10  1  0  0  0  0
  2  7  1  0  0  0  0
  3  8  1  0  0  0  0
  3  2  2  0  0  0  0
  4  3  1  0  0  0  0
  5  4  2  0  0  0  0
  5  6  1  0  0  0  0
  6  1  2  0  0  0  0
  9  5  1  0  0  0  0
 10 12  1  0  0  0  0
 11 10  2  0  0  0  0
 12 14  1  0  0  0  0
 12 13  1  0  0  0  0
 14 13  1  0  0  0  0
M  END
>  <minimizedAffinity>
-3.33529401

$$$$
