
 OpenBabel03252509003D

 39 41  0  0  1  0  0  0  0  0999 V2000
   46.5560   34.6240   43.5500 N   0  0  0  0  0  0  0  0  0  0  0  0
   46.0210   35.5430   42.6070 C   0  0  0  0  0  0  0  0  0  0  0  0
   44.5130   35.6470   42.5970 C   0  0  0  0  0  0  0  0  0  0  0  0
   43.8690   35.4570   43.9440 C   0  0  0  0  0  0  0  0  0  0  0  0
   44.8940   35.2850   45.0370 C   0  0  0  0  0  0  0  0  0  0  0  0
   45.7520   34.0700   44.5360 C   0  0  2  0  0  0  0  0  0  0  0  0
   46.3830   36.5590   42.8960 H   0  0  0  0  0  0  0  0  0  0  0  0
   46.3410   35.4070   41.5730 H   0  0  0  0  0  0  0  0  0  0  0  0
   44.1410   34.9200   41.8420 H   0  0  0  0  0  0  0  0  0  0  0  0
   44.2410   36.6470   42.1910 H   0  0  0  0  0  0  0  0  0  0  0  0
   43.2370   34.5560   43.8860 H   0  0  0  0  0  0  0  0  0  0  0  0
   43.2540   36.3530   44.2090 H   0  0  0  0  0  0  0  0  0  0  0  0
   45.5670   36.1400   45.1110 H   0  0  0  0  0  0  0  0  0  0  0  0
   44.3670   35.0080   45.9520 H   0  0  0  0  0  0  0  0  0  0  0  0
   45.0250   33.2870   44.2570 H   0  0  0  0  0  0  0  0  0  0  0  0
   47.6720   33.8680   43.0640 C   0  0  0  0  0  0  0  0  0  0  0  0
   48.3650   34.5580   42.5530 H   0  0  0  0  0  0  0  0  0  0  0  0
   48.1790   33.4160   43.9500 H   0  0  0  0  0  0  0  0  0  0  0  0
   47.1750   32.7600   42.2000 C   0  0  0  0  0  0  0  0  0  0  0  0
   47.3470   31.7470   42.5840 H   0  0  0  0  0  0  0  0  0  0  0  0
   46.0700   32.8450   42.0550 H   0  0  0  0  0  0  0  0  0  0  0  0
   49.2090   32.0680   39.1140 C   0  0  0  0  0  0  0  0  0  0  0  0
   48.6480   31.9450   40.3980 C   0  0  0  0  0  0  0  0  0  0  0  0
   47.7610   32.9030   40.8400 C   0  0  0  0  0  0  0  0  0  0  0  0
   47.4750   33.9150   40.0130 N   0  0  0  0  0  0  0  0  0  0  0  0
   48.0190   34.0230   38.7850 C   0  0  0  0  0  0  0  0  0  0  0  0
   48.8870   33.1060   38.3250 N   0  0  0  0  0  0  0  0  0  0  0  0
   49.9050   31.3170   38.7650 H   0  0  0  0  0  0  0  0  0  0  0  0
   48.9280   31.0950   41.0100 H   0  0  0  0  0  0  0  0  0  0  0  0
   47.7770   34.8470   38.1300 H   0  0  0  0  0  0  0  0  0  0  0  0
   46.4910   33.7630   45.6780 O   0  0  0  0  0  0  0  0  0  0  0  0
   45.7450   31.2830   45.0870 O   0  0  0  0  0  0  0  0  0  0  0  0
   46.2290   32.1930   46.2190 P   0  0  2  0  0  0  0  0  0  0  0  0
   44.9090   32.2800   47.3030 O   0  0  0  0  0  0  0  0  0  0  0  0
   45.0530   33.0050   47.9550 H   0  0  0  0  0  0  0  0  0  0  0  0
   47.5370   31.5710   47.0300 O   0  0  0  0  0  0  0  0  0  0  0  0
   47.5810   31.8100   48.3790 C   0  0  0  0  0  3  0  0  0  0  0  0
   47.8190   30.7360   49.3690 C   0  0  0  0  0  2  0  0  0  0  0  0
   48.9690   31.6100   48.9990 C   0  0  0  0  0  2  0  0  0  0  0  0
  1  6  1  0  0  0  0
  2  7  1  0  0  0  0
  2  1  1  0  0  0  0
  3  2  1  0  0  0  0
  3  4  1  0  0  0  0
  4 12  1  0  0  0  0
  4  5  1  0  0  0  0
  5 13  1  0  0  0  0
  5 14  1  0  0  0  0
  6 15  1  6  0  0  0
  6  5  1  0  0  0  0
  6 31  1  0  0  0  0
  8  2  1  0  0  0  0
  9  3  1  0  0  0  0
 10  3  1  0  0  0  0
 11  4  1  0  0  0  0
 16  1  1  0  0  0  0
 16 18  1  0  0  0  0
 17 16  1  0  0  0  0
 19 20  1  0  0  0  0
 19 16  1  0  0  0  0
 21 19  1  0  0  0  0
 22 23  1  0  0  0  0
 23 24  2  0  0  0  0
 23 29  1  0  0  0  0
 24 19  1  0  0  0  0
 25 24  1  0  0  0  0
 26 25  2  0  0  0  0
 27 26  1  0  0  0  0
 27 22  2  0  0  0  0
 28 22  1  0  0  0  0
 30 26  1  0  0  0  0
 31 33  1  0  0  0  0
 33 32  2  6  0  0  0
 33 36  1  0  0  0  0
 33 34  1  0  0  0  0
 34 35  1  0  0  0  0
 36 37  1  0  0  0  0
 37 39  1  0  0  0  0
 37 38  1  0  0  0  0
 39 38  1  0  0  0  0
M  END
>  <minimizedAffinity>
-4.38987875

>  <minimizedRMSD>
1.42497468

$$$$
