
 OpenBabel03252509313D

 21 22  0  0  0  0  0  0  0  0999 V2000
   47.5590   32.7800   43.8270 C   0  0  0  0  0  0  0  0  0  0  0  0
   48.1970   33.6930   43.8120 H   0  0  0  0  0  0  0  0  0  0  0  0
   46.8150   32.8950   42.9980 H   0  0  0  0  0  0  0  0  0  0  0  0
   46.2840   31.6900   47.1690 C   0  0  0  0  0  0  0  0  0  0  0  0
   46.9990   31.6900   45.9650 C   0  0  0  0  0  0  0  0  0  0  0  0
   46.8250   32.7570   45.0890 C   0  0  0  0  0  0  0  0  0  0  0  0
   45.9560   33.7680   45.4420 N   0  0  0  0  0  0  0  0  0  0  0  0
   45.2840   33.7300   46.6150 C   0  0  0  0  0  0  0  0  0  0  0  0
   45.4420   32.7120   47.4660 N   0  0  0  0  0  0  0  0  0  0  0  0
   46.4900   30.8200   47.7780 H   0  0  0  0  0  0  0  0  0  0  0  0
   47.6750   30.9040   45.6910 H   0  0  0  0  0  0  0  0  0  0  0  0
   44.5980   34.5150   46.9080 H   0  0  0  0  0  0  0  0  0  0  0  0
   48.3060   31.6130   43.6660 O   0  0  0  0  0  0  0  0  0  0  0  0
   49.3130   30.3870   41.5830 O   0  0  0  0  0  0  0  0  0  0  0  0
   49.1430   31.7570   42.2020 P   0  0  2  0  0  0  0  0  0  0  0  0
   50.6020   32.5200   42.5210 O   0  0  0  0  0  0  0  0  0  0  0  0
   51.2170   31.8660   42.9290 H   0  0  0  0  0  0  0  0  0  0  0  0
   48.1990   32.6800   41.1550 O   0  0  0  0  0  0  0  0  0  0  0  0
   48.8890   33.6870   40.5290 C   0  0  0  0  0  3  0  0  0  0  0  0
   48.4420   35.0860   40.8720 C   0  0  0  0  0  2  0  0  0  0  0  0
   48.0170   34.5000   39.5740 C   0  0  0  0  0  2  0  0  0  0  0  0
  1  6  1  0  0  0  0
  2  1  1  0  0  0  0
  3  1  1  0  0  0  0
  4  9  1  0  0  0  0
  4 10  1  0  0  0  0
  5  4  2  0  0  0  0
  6  7  2  0  0  0  0
  6  5  1  0  0  0  0
  7  8  1  0  0  0  0
  8 12  1  0  0  0  0
  8  9  2  0  0  0  0
 11  5  1  0  0  0  0
 13  1  1  0  0  0  0
 15 14  2  6  0  0  0
 15 16  1  0  0  0  0
 15 13  1  0  0  0  0
 16 17  1  0  0  0  0
 18 15  1  0  0  0  0
 19 20  1  0  0  0  0
 19 18  1  0  0  0  0
 21 19  1  0  0  0  0
 21 20  1  0  0  0  0
M  END
>  <minimizedAffinity>
-3.07052588

>  <minimizedRMSD>
2.63870597

$$$$
