
 OpenBabel03252509273D

 24 26  0  0  1  0  0  0  0  0999 V2000
   36.2550   28.6060   40.0400 C   0  0  1  0  0  0  0  0  0  0  0  0
   36.5850   27.3940   39.1240 C   0  0  0  0  0  0  0  0  0  0  0  0
   37.2270   27.7080   40.5090 C   0  0  2  0  0  0  0  0  0  0  0  0
   35.2110   28.6220   40.4000 H   0  0  0  0  0  0  0  0  0  0  0  0
   35.7970   26.6430   39.1130 H   0  0  0  0  0  0  0  0  0  0  0  0
   37.2080   27.5510   38.2400 H   0  0  0  0  0  0  0  0  0  0  0  0
   38.3380   27.9100   40.4180 H   0  0  0  0  0  0  0  0  0  0  0  0
   37.0080   32.2140   39.3500 C   0  0  0  0  0  0  0  0  0  0  0  0
   36.5100   31.0680   40.0240 C   0  0  0  0  0  0  0  0  0  0  0  0
   36.6720   29.8920   39.3700 C   0  0  0  0  0  0  0  0  0  0  0  0
   37.2790   29.8240   38.1260 N   0  0  0  0  0  0  0  0  0  0  0  0
   37.7370   30.9380   37.5200 C   0  0  0  0  0  0  0  0  0  0  0  0
   37.6000   32.1360   38.1370 N   0  0  0  0  0  0  0  0  0  0  0  0
   36.8950   33.1650   39.8490 H   0  0  0  0  0  0  0  0  0  0  0  0
   38.1900   30.7550   36.5550 H   0  0  0  0  0  0  0  0  0  0  0  0
   35.8590   31.1480   41.2650 N   0  0  0  0  0  0  0  0  0  0  0  0
   35.0650   30.5200   41.5160 H   0  0  0  0  0  0  0  0  0  0  0  0
   36.1620   31.8560   41.9890 H   0  0  0  0  0  0  0  0  0  0  0  0
   36.9530   26.7730   41.6610 C   0  0  0  0  0  0  0  0  0  0  0  0
   35.9530   26.3420   41.4890 H   0  0  0  0  0  0  0  0  0  0  0  0
   37.6640   25.9280   41.5790 H   0  0  0  0  0  0  0  0  0  0  0  0
   36.9920   27.4450   43.0070 C   0  0  0  0  0  3  0  0  0  0  0  0
   37.7400   28.6680   43.2750 C   0  0  0  0  0  2  0  0  0  0  0  0
   38.3770   27.3500   43.6790 C   0  0  0  0  0  2  0  0  0  0  0  0
  1  4  1  1  0  0  0
  1  3  1  0  0  0  0
  2  1  1  0  0  0  0
  2  3  1  0  0  0  0
  3  7  1  6  0  0  0
  3 19  1  0  0  0  0
  5  2  1  0  0  0  0
  6  2  1  0  0  0  0
  8 14  1  0  0  0  0
  8  9  1  0  0  0  0
  9 16  1  0  0  0  0
 10  9  2  0  0  0  0
 10  1  1  0  0  0  0
 11 10  1  0  0  0  0
 12 11  2  0  0  0  0
 12 13  1  0  0  0  0
 13  8  2  0  0  0  0
 15 12  1  0  0  0  0
 16 17  1  0  0  0  0
 16 18  1  0  0  0  0
 19 22  1  0  0  0  0
 20 19  1  0  0  0  0
 21 19  1  0  0  0  0
 22 23  1  0  0  0  0
 22 24  1  0  0  0  0
 23 24  1  0  0  0  0
M  END
>  <minimizedAffinity>
-4.58421516

$$$$

 OpenBabel03252509273D

 24 26  0  0  1  0  0  0  0  0999 V2000
   37.4140   30.9980   40.7810 C   0  0  1  0  0  0  0  0  0  0  0  0
   37.1110   30.2840   39.4340 C   0  0  0  0  0  0  0  0  0  0  0  0
   37.6970   29.6250   40.7200 C   0  0  2  0  0  0  0  0  0  0  0  0
   36.5200   31.4180   41.2740 H   0  0  0  0  0  0  0  0  0  0  0  0
   36.0470   30.1420   39.2570 H   0  0  0  0  0  0  0  0  0  0  0  0
   37.7950   30.4250   38.5930 H   0  0  0  0  0  0  0  0  0  0  0  0
   38.7420   29.2240   40.5450 H   0  0  0  0  0  0  0  0  0  0  0  0
   39.3100   34.1610   40.1000 C   0  0  0  0  0  0  0  0  0  0  0  0
   38.2180   33.2560   40.1620 C   0  0  0  0  0  0  0  0  0  0  0  0
   38.5200   32.0090   40.5960 C   0  0  0  0  0  0  0  0  0  0  0  0
   39.8110   31.6480   40.9480 N   0  0  0  0  0  0  0  0  0  0  0  0
   40.8210   32.5390   40.8720 C   0  0  0  0  0  0  0  0  0  0  0  0
   40.5660   33.8000   40.4470 N   0  0  0  0  0  0  0  0  0  0  0  0
   39.0980   35.1640   39.7590 H   0  0  0  0  0  0  0  0  0  0  0  0
   41.7790   32.1390   41.1740 H   0  0  0  0  0  0  0  0  0  0  0  0
   36.9200   33.6140   39.7650 N   0  0  0  0  0  0  0  0  0  0  0  0
   36.2770   32.9390   39.2980 H   0  0  0  0  0  0  0  0  0  0  0  0
   36.5540   34.5910   39.9330 H   0  0  0  0  0  0  0  0  0  0  0  0
   36.8590   28.6090   41.4560 C   0  0  0  0  0  0  0  0  0  0  0  0
   35.8040   28.8670   41.2620 H   0  0  0  0  0  0  0  0  0  0  0  0
   37.0240   27.6270   40.9700 H   0  0  0  0  0  0  0  0  0  0  0  0
   37.1110   28.5800   42.9400 C   0  0  0  0  0  3  0  0  0  0  0  0
   37.9720   27.6010   43.5910 C   0  0  0  0  0  2  0  0  0  0  0  0
   36.4750   27.3540   43.6270 C   0  0  0  0  0  2  0  0  0  0  0  0
  1  4  1  1  0  0  0
  2  3  1  0  0  0  0
  2  1  1  0  0  0  0
  3  7  1  6  0  0  0
  3  1  1  0  0  0  0
  3 19  1  0  0  0  0
  5  2  1  0  0  0  0
  6  2  1  0  0  0  0
  8  9  2  0  0  0  0
  8 13  1  0  0  0  0
  9 10  1  0  0  0  0
 10  1  1  0  0  0  0
 10 11  2  0  0  0  0
 12 11  1  0  0  0  0
 12 15  1  0  0  0  0
 13 12  2  0  0  0  0
 14  8  1  0  0  0  0
 16 18  1  0  0  0  0
 16  9  1  0  0  0  0
 17 16  1  0  0  0  0
 19 22  1  0  0  0  0
 20 19  1  0  0  0  0
 21 19  1  0  0  0  0
 22 23  1  0  0  0  0
 22 24  1  0  0  0  0
 23 24  1  0  0  0  0
M  END
>  <minimizedAffinity>
-4.46866608

$$$$

 OpenBabel03252509273D

 24 26  0  0  1  0  0  0  0  0999 V2000
   38.8620   30.1540   41.2900 C   0  0  1  0  0  0  0  0  0  0  0  0
   40.3060   29.8410   41.7730 C   0  0  0  0  0  0  0  0  0  0  0  0
   39.0310   29.9320   42.6660 C   0  0  2  0  0  0  0  0  0  0  0  0
   38.4510   29.4010   40.5940 H   0  0  0  0  0  0  0  0  0  0  0  0
   40.6380   28.8410   41.5010 H   0  0  0  0  0  0  0  0  0  0  0  0
   41.0280   30.6580   41.8520 H   0  0  0  0  0  0  0  0  0  0  0  0
   39.1060   30.7790   43.4150 H   0  0  0  0  0  0  0  0  0  0  0  0
   37.6040   33.4720   40.0780 C   0  0  0  0  0  0  0  0  0  0  0  0
   37.5770   32.1170   40.5000 C   0  0  0  0  0  0  0  0  0  0  0  0
   38.7880   31.5630   40.7520 C   0  0  0  0  0  0  0  0  0  0  0  0
   39.9660   32.2760   40.6010 N   0  0  0  0  0  0  0  0  0  0  0  0
   39.9470   33.5620   40.1960 C   0  0  0  0  0  0  0  0  0  0  0  0
   38.7590   34.1600   39.9350 N   0  0  0  0  0  0  0  0  0  0  0  0
   36.6530   33.9420   39.8710 H   0  0  0  0  0  0  0  0  0  0  0  0
   40.9280   34.0100   40.1170 H   0  0  0  0  0  0  0  0  0  0  0  0
   36.3840   31.3870   40.6120 N   0  0  0  0  0  0  0  0  0  0  0  0
   36.3330   30.3700   40.3860 H   0  0  0  0  0  0  0  0  0  0  0  0
   35.4930   31.8550   40.9340 H   0  0  0  0  0  0  0  0  0  0  0  0
   38.5270   28.6780   43.3350 C   0  0  0  0  0  0  0  0  0  0  0  0
   39.2360   27.8740   43.0780 H   0  0  0  0  0  0  0  0  0  0  0  0
   38.6200   28.8250   44.4290 H   0  0  0  0  0  0  0  0  0  0  0  0
   37.1370   28.2850   42.9110 C   0  0  0  0  0  3  0  0  0  0  0  0
   36.2870   27.3820   43.6780 C   0  0  0  0  0  2  0  0  0  0  0  0
   37.0410   26.8030   42.4940 C   0  0  0  0  0  2  0  0  0  0  0  0
  1  4  1  6  0  0  0
  1  2  1  0  0  0  0
  1  3  1  0  0  0  0
  2  6  1  0  0  0  0
  2  3  1  0  0  0  0
  3 19  1  0  0  0  0
  3  7  1  1  0  0  0
  5  2  1  0  0  0  0
  8  9  1  0  0  0  0
  9 16  1  0  0  0  0
  9 10  2  0  0  0  0
 10  1  1  0  0  0  0
 11 10  1  0  0  0  0
 12 11  2  0  0  0  0
 13  8  2  0  0  0  0
 13 12  1  0  0  0  0
 14  8  1  0  0  0  0
 15 12  1  0  0  0  0
 16 18  1  0  0  0  0
 17 16  1  0  0  0  0
 19 21  1  0  0  0  0
 20 19  1  0  0  0  0
 22 19  1  0  0  0  0
 22 23  1  0  0  0  0
 24 22  1  0  0  0  0
 24 23  1  0  0  0  0
M  END
>  <minimizedAffinity>
-4.4224391

$$$$

 OpenBabel03252509273D

 24 26  0  0  1  0  0  0  0  0999 V2000
   37.1120   26.6840   42.3390 C   0  0  1  0  0  0  0  0  0  0  0  0
   36.3970   27.4130   43.5120 C   0  0  0  0  0  0  0  0  0  0  0  0
   36.8620   28.0550   42.1700 C   0  0  2  0  0  0  0  0  0  0  0  0
   36.5050   25.8890   41.8720 H   0  0  0  0  0  0  0  0  0  0  0  0
   35.3420   27.1600   43.5900 H   0  0  0  0  0  0  0  0  0  0  0  0
   36.9700   27.6650   44.4080 H   0  0  0  0  0  0  0  0  0  0  0  0
   37.6560   28.8460   42.3380 H   0  0  0  0  0  0  0  0  0  0  0  0
   40.1510   24.5790   42.9660 C   0  0  0  0  0  0  0  0  0  0  0  0
   38.8190   24.9120   42.6040 C   0  0  0  0  0  0  0  0  0  0  0  0
   38.4770   26.2120   42.7760 C   0  0  0  0  0  0  0  0  0  0  0  0
   39.3720   27.1440   43.2770 N   0  0  0  0  0  0  0  0  0  0  0  0
   40.6280   26.7850   43.6100 C   0  0  0  0  0  0  0  0  0  0  0  0
   41.0170   25.4960   43.4520 N   0  0  0  0  0  0  0  0  0  0  0  0
   40.4530   23.5490   42.8380 H   0  0  0  0  0  0  0  0  0  0  0  0
   41.2300   27.6010   43.9880 H   0  0  0  0  0  0  0  0  0  0  0  0
   37.9050   23.9550   42.1370 N   0  0  0  0  0  0  0  0  0  0  0  0
   36.8890   23.9990   42.3680 H   0  0  0  0  0  0  0  0  0  0  0  0
   38.2260   23.1530   41.5280 H   0  0  0  0  0  0  0  0  0  0  0  0
   35.8130   28.5570   41.2090 C   0  0  0  0  0  0  0  0  0  0  0  0
   34.8760   28.0320   41.4590 H   0  0  0  0  0  0  0  0  0  0  0  0
   35.6320   29.6250   41.4420 H   0  0  0  0  0  0  0  0  0  0  0  0
   36.1570   28.3210   39.7620 C   0  0  0  0  0  3  0  0  0  0  0  0
   36.4390   29.3950   38.8170 C   0  0  0  0  0  2  0  0  0  0  0  0
   35.0460   28.7930   38.8030 C   0  0  0  0  0  2  0  0  0  0  0  0
  1  4  1  6  0  0  0
  1 10  1  0  0  0  0
  1  2  1  0  0  0  0
  2  5  1  0  0  0  0
  2  6  1  0  0  0  0
  3  7  1  1  0  0  0
  3  1  1  0  0  0  0
  3  2  1  0  0  0  0
  8 13  1  0  0  0  0
  9 10  1  0  0  0  0
  9  8  2  0  0  0  0
 10 11  2  0  0  0  0
 11 12  1  0  0  0  0
 12 15  1  0  0  0  0
 13 12  2  0  0  0  0
 14  8  1  0  0  0  0
 16 17  1  0  0  0  0
 16  9  1  0  0  0  0
 18 16  1  0  0  0  0
 19 21  1  0  0  0  0
 19 20  1  0  0  0  0
 19  3  1  0  0  0  0
 22 19  1  0  0  0  0
 23 22  1  0  0  0  0
 24 23  1  0  0  0  0
 24 22  1  0  0  0  0
M  END
>  <minimizedAffinity>
-4.36491776

$$$$

 OpenBabel03252509273D

 24 26  0  0  1  0  0  0  0  0999 V2000
   37.1690   28.3950   42.3090 C   0  0  1  0  0  0  0  0  0  0  0  0
   36.4310   27.4840   43.3310 C   0  0  0  0  0  0  0  0  0  0  0  0
   37.8520   27.2440   42.7340 C   0  0  2  0  0  0  0  0  0  0  0  0
   37.3830   29.4090   42.6890 H   0  0  0  0  0  0  0  0  0  0  0  0
   36.3900   27.9130   44.3300 H   0  0  0  0  0  0  0  0  0  0  0  0
   35.6270   26.8340   42.9770 H   0  0  0  0  0  0  0  0  0  0  0  0
   37.8890   26.2950   42.1160 H   0  0  0  0  0  0  0  0  0  0  0  0
   35.2090   29.4560   39.2940 C   0  0  0  0  0  0  0  0  0  0  0  0
   35.7990   29.5220   40.5830 C   0  0  0  0  0  0  0  0  0  0  0  0
   36.4350   28.3970   40.9900 C   0  0  0  0  0  0  0  0  0  0  0  0
   36.4950   27.2620   40.1970 N   0  0  0  0  0  0  0  0  0  0  0  0
   35.9200   27.2410   38.9780 C   0  0  0  0  0  0  0  0  0  0  0  0
   35.2750   28.3450   38.5260 N   0  0  0  0  0  0  0  0  0  0  0  0
   34.6960   30.3390   38.9410 H   0  0  0  0  0  0  0  0  0  0  0  0
   36.0360   26.3010   38.4560 H   0  0  0  0  0  0  0  0  0  0  0  0
   35.6980   30.6600   41.3990 N   0  0  0  0  0  0  0  0  0  0  0  0
   35.6150   30.5920   42.4370 H   0  0  0  0  0  0  0  0  0  0  0  0
   35.7060   31.6290   40.9780 H   0  0  0  0  0  0  0  0  0  0  0  0
   39.0440   27.3240   43.6540 C   0  0  0  0  0  0  0  0  0  0  0  0
   38.9630   28.2800   44.1970 H   0  0  0  0  0  0  0  0  0  0  0  0
   38.9270   26.5310   44.4190 H   0  0  0  0  0  0  0  0  0  0  0  0
   40.3660   27.2580   42.9360 C   0  0  0  0  0  3  0  0  0  0  0  0
   41.6530   27.3950   43.6060 C   0  0  0  0  0  2  0  0  0  0  0  0
   41.0920   28.6180   42.9030 C   0  0  0  0  0  2  0  0  0  0  0  0
  1  4  1  1  0  0  0
  1  3  1  0  0  0  0
  1  2  1  0  0  0  0
  2  5  1  0  0  0  0
  3  7  1  6  0  0  0
  3  2  1  0  0  0  0
  3 19  1  0  0  0  0
  6  2  1  0  0  0  0
  8  9  1  0  0  0  0
  9 10  2  0  0  0  0
  9 16  1  0  0  0  0
 10  1  1  0  0  0  0
 11 10  1  0  0  0  0
 12 11  2  0  0  0  0
 13 12  1  0  0  0  0
 13  8  2  0  0  0  0
 14  8  1  0  0  0  0
 15 12  1  0  0  0  0
 16 17  1  0  0  0  0
 18 16  1  0  0  0  0
 19 20  1  0  0  0  0
 19 21  1  0  0  0  0
 22 23  1  0  0  0  0
 22 19  1  0  0  0  0
 24 22  1  0  0  0  0
 24 23  1  0  0  0  0
M  END
>  <minimizedAffinity>
-4.34555864

$$$$

 OpenBabel03252509273D

 24 26  0  0  1  0  0  0  0  0999 V2000
   37.1780   28.2400   42.3030 C   0  0  1  0  0  0  0  0  0  0  0  0
   36.4200   27.3530   43.3310 C   0  0  0  0  0  0  0  0  0  0  0  0
   37.8430   27.0870   42.7500 C   0  0  2  0  0  0  0  0  0  0  0  0
   37.4010   29.2570   42.6700 H   0  0  0  0  0  0  0  0  0  0  0  0
   36.3760   27.7960   44.3230 H   0  0  0  0  0  0  0  0  0  0  0  0
   35.6110   26.7080   42.9800 H   0  0  0  0  0  0  0  0  0  0  0  0
   37.8740   26.1290   42.1460 H   0  0  0  0  0  0  0  0  0  0  0  0
   35.2300   29.2750   39.2710 C   0  0  0  0  0  0  0  0  0  0  0  0
   35.8080   29.3490   40.5650 C   0  0  0  0  0  0  0  0  0  0  0  0
   36.4550   28.2330   40.9770 C   0  0  0  0  0  0  0  0  0  0  0  0
   36.5380   27.0990   40.1850 N   0  0  0  0  0  0  0  0  0  0  0  0
   35.9730   27.0700   38.9610 C   0  0  0  0  0  0  0  0  0  0  0  0
   35.3170   28.1650   38.5040 N   0  0  0  0  0  0  0  0  0  0  0  0
   34.7080   30.1510   38.9140 H   0  0  0  0  0  0  0  0  0  0  0  0
   36.1070   26.1310   38.4400 H   0  0  0  0  0  0  0  0  0  0  0  0
   35.6850   30.4850   41.3800 N   0  0  0  0  0  0  0  0  0  0  0  0
   35.5930   30.4160   42.4170 H   0  0  0  0  0  0  0  0  0  0  0  0
   35.6840   31.4540   40.9590 H   0  0  0  0  0  0  0  0  0  0  0  0
   39.0280   27.1650   43.6790 C   0  0  0  0  0  0  0  0  0  0  0  0
   39.0050   28.1680   44.1390 H   0  0  0  0  0  0  0  0  0  0  0  0
   38.8500   26.4500   44.5060 H   0  0  0  0  0  0  0  0  0  0  0  0
   40.3500   26.9510   42.9910 C   0  0  0  0  0  3  0  0  0  0  0  0
   40.6620   25.7690   42.1970 C   0  0  0  0  0  2  0  0  0  0  0  0
   41.1730   25.8120   43.6260 C   0  0  0  0  0  2  0  0  0  0  0  0
  1  4  1  1  0  0  0
  1  3  1  0  0  0  0
  1  2  1  0  0  0  0
  2  5  1  0  0  0  0
  3  7  1  6  0  0  0
  3  2  1  0  0  0  0
  3 19  1  0  0  0  0
  6  2  1  0  0  0  0
  8  9  1  0  0  0  0
  9 10  2  0  0  0  0
  9 16  1  0  0  0  0
 10  1  1  0  0  0  0
 11 10  1  0  0  0  0
 12 11  2  0  0  0  0
 13 12  1  0  0  0  0
 13  8  2  0  0  0  0
 14  8  1  0  0  0  0
 15 12  1  0  0  0  0
 16 17  1  0  0  0  0
 18 16  1  0  0  0  0
 19 20  1  0  0  0  0
 19 21  1  0  0  0  0
 22 24  1  0  0  0  0
 22 19  1  0  0  0  0
 23 22  1  0  0  0  0
 23 24  1  0  0  0  0
M  END
>  <minimizedAffinity>
-4.2902956

$$$$

 OpenBabel03252509273D

 24 26  0  0  1  0  0  0  0  0999 V2000
   36.0240   28.5870   39.6510 C   0  0  1  0  0  0  0  0  0  0  0  0
   35.3680   27.8980   38.4220 C   0  0  0  0  0  0  0  0  0  0  0  0
   36.6610   27.4370   39.1610 C   0  0  2  0  0  0  0  0  0  0  0  0
   35.3840   28.5960   40.5510 H   0  0  0  0  0  0  0  0  0  0  0  0
   34.4510   27.3670   38.6700 H   0  0  0  0  0  0  0  0  0  0  0  0
   35.4930   28.3460   37.4330 H   0  0  0  0  0  0  0  0  0  0  0  0
   37.5680   27.4850   38.4830 H   0  0  0  0  0  0  0  0  0  0  0  0
   36.9970   32.2070   39.7380 C   0  0  0  0  0  0  0  0  0  0  0  0
   36.4170   30.9790   40.1510 C   0  0  0  0  0  0  0  0  0  0  0  0
   36.5310   29.9570   39.2690 C   0  0  0  0  0  0  0  0  0  0  0  0
   37.1670   30.1100   38.0480 N   0  0  0  0  0  0  0  0  0  0  0  0
   37.7040   31.2950   37.6940 C   0  0  0  0  0  0  0  0  0  0  0  0
   37.6180   32.3460   38.5450 N   0  0  0  0  0  0  0  0  0  0  0  0
   36.9240   33.0400   40.4220 H   0  0  0  0  0  0  0  0  0  0  0  0
   38.1730   31.2880   36.7200 H   0  0  0  0  0  0  0  0  0  0  0  0
   35.7370   30.8410   41.3710 N   0  0  0  0  0  0  0  0  0  0  0  0
   34.9020   30.2240   41.4740 H   0  0  0  0  0  0  0  0  0  0  0  0
   36.0590   31.3640   42.2310 H   0  0  0  0  0  0  0  0  0  0  0  0
   36.6350   26.1320   39.9160 C   0  0  0  0  0  0  0  0  0  0  0  0
   35.5980   25.7610   39.8720 H   0  0  0  0  0  0  0  0  0  0  0  0
   37.2410   25.4040   39.3420 H   0  0  0  0  0  0  0  0  0  0  0  0
   37.0700   26.2570   41.3520 C   0  0  0  0  0  3  0  0  0  0  0  0
   38.3110   25.6920   41.8690 C   0  0  0  0  0  2  0  0  0  0  0  0
   37.0310   24.9110   42.1040 C   0  0  0  0  0  2  0  0  0  0  0  0
  1  4  1  1  0  0  0
  2  5  1  0  0  0  0
  2  3  1  0  0  0  0
  2  1  1  0  0  0  0
  3  7  1  6  0  0  0
  3  1  1  0  0  0  0
  3 19  1  0  0  0  0
  6  2  1  0  0  0  0
  8  9  1  0  0  0  0
  8 14  1  0  0  0  0
  9 16  1  0  0  0  0
 10  1  1  0  0  0  0
 10  9  2  0  0  0  0
 11 10  1  0  0  0  0
 12 11  2  0  0  0  0
 12 13  1  0  0  0  0
 13  8  2  0  0  0  0
 15 12  1  0  0  0  0
 16 17  1  0  0  0  0
 16 18  1  0  0  0  0
 19 22  1  0  0  0  0
 20 19  1  0  0  0  0
 21 19  1  0  0  0  0
 22 23  1  0  0  0  0
 22 24  1  0  0  0  0
 23 24  1  0  0  0  0
M  END
>  <minimizedAffinity>
-4.28665543

$$$$

 OpenBabel03252509273D

 24 26  0  0  1  0  0  0  0  0999 V2000
   38.7860   29.0910   42.5720 C   0  0  1  0  0  0  0  0  0  0  0  0
   37.6900   28.7980   43.6360 C   0  0  0  0  0  0  0  0  0  0  0  0
   37.9820   27.9620   42.3520 C   0  0  2  0  0  0  0  0  0  0  0  0
   39.8160   29.0420   42.9680 H   0  0  0  0  0  0  0  0  0  0  0  0
   38.0950   28.4130   44.5690 H   0  0  0  0  0  0  0  0  0  0  0  0
   36.7800   29.4030   43.6390 H   0  0  0  0  0  0  0  0  0  0  0  0
   37.1000   27.9710   41.6400 H   0  0  0  0  0  0  0  0  0  0  0  0
   39.0620   32.5380   41.1220 C   0  0  0  0  0  0  0  0  0  0  0  0
   39.3950   31.3910   41.8900 C   0  0  0  0  0  0  0  0  0  0  0  0
   38.4860   30.3870   41.8590 C   0  0  0  0  0  0  0  0  0  0  0  0
   37.3120   30.4840   41.1300 N   0  0  0  0  0  0  0  0  0  0  0  0
   37.0340   31.5930   40.4140 C   0  0  0  0  0  0  0  0  0  0  0  0
   37.9150   32.6220   40.4120 N   0  0  0  0  0  0  0  0  0  0  0  0
   39.7700   33.3550   41.1260 H   0  0  0  0  0  0  0  0  0  0  0  0
   36.0900   31.5480   39.8880 H   0  0  0  0  0  0  0  0  0  0  0  0
   40.5650   31.3150   42.6600 N   0  0  0  0  0  0  0  0  0  0  0  0
   40.5950   30.8170   43.5770 H   0  0  0  0  0  0  0  0  0  0  0  0
   41.4620   31.7650   42.3270 H   0  0  0  0  0  0  0  0  0  0  0  0
   38.5190   26.5620   42.5100 C   0  0  0  0  0  0  0  0  0  0  0  0
   39.5980   26.6090   42.2860 H   0  0  0  0  0  0  0  0  0  0  0  0
   38.4440   26.2960   43.5820 H   0  0  0  0  0  0  0  0  0  0  0  0
   37.8570   25.5560   41.6060 C   0  0  0  0  0  3  0  0  0  0  0  0
   36.8670   24.5890   42.0660 C   0  0  0  0  0  2  0  0  0  0  0  0
   38.2980   24.1080   41.9040 C   0  0  0  0  0  2  0  0  0  0  0  0
  1  4  1  1  0  0  0
  1  2  1  0  0  0  0
  2  6  1  0  0  0  0
  2  5  1  0  0  0  0
  3  7  1  6  0  0  0
  3 19  1  0  0  0  0
  3  1  1  0  0  0  0
  3  2  1  0  0  0  0
  8 14  1  0  0  0  0
  8  9  1  0  0  0  0
  9 16  1  0  0  0  0
 10  9  2  0  0  0  0
 10  1  1  0  0  0  0
 11 10  1  0  0  0  0
 12 11  2  0  0  0  0
 13 12  1  0  0  0  0
 13  8  2  0  0  0  0
 15 12  1  0  0  0  0
 16 17  1  0  0  0  0
 18 16  1  0  0  0  0
 19 21  1  0  0  0  0
 20 19  1  0  0  0  0
 22 24  1  0  0  0  0
 22 23  1  0  0  0  0
 22 19  1  0  0  0  0
 24 23  1  0  0  0  0
M  END
>  <minimizedAffinity>
-4.27555227

$$$$

 OpenBabel03252509273D

 24 26  0  0  1  0  0  0  0  0999 V2000
   39.4090   30.6850   42.5990 C   0  0  1  0  0  0  0  0  0  0  0  0
   40.8670   31.1230   42.2820 C   0  0  0  0  0  0  0  0  0  0  0  0
   39.6680   31.1040   41.2850 C   0  0  2  0  0  0  0  0  0  0  0  0
   38.9090   31.3160   43.3550 H   0  0  0  0  0  0  0  0  0  0  0  0
   41.1240   32.0880   42.7130 H   0  0  0  0  0  0  0  0  0  0  0  0
   41.6340   30.3560   42.1510 H   0  0  0  0  0  0  0  0  0  0  0  0
   39.8430   30.3740   40.4360 H   0  0  0  0  0  0  0  0  0  0  0  0
   38.2310   27.2040   43.3440 C   0  0  0  0  0  0  0  0  0  0  0  0
   38.1730   28.6050   43.1180 C   0  0  0  0  0  0  0  0  0  0  0  0
   39.3690   29.2140   42.9320 C   0  0  0  0  0  0  0  0  0  0  0  0
   40.5620   28.5110   42.9670 N   0  0  0  0  0  0  0  0  0  0  0  0
   40.5730   27.1800   43.1850 C   0  0  0  0  0  0  0  0  0  0  0  0
   39.4010   26.5270   43.3740 N   0  0  0  0  0  0  0  0  0  0  0  0
   37.2920   26.6910   43.4940 H   0  0  0  0  0  0  0  0  0  0  0  0
   41.5640   26.7460   43.1880 H   0  0  0  0  0  0  0  0  0  0  0  0
   36.9650   29.3180   43.1260 N   0  0  0  0  0  0  0  0  0  0  0  0
   36.8980   30.2920   43.4950 H   0  0  0  0  0  0  0  0  0  0  0  0
   36.0780   28.8830   42.7520 H   0  0  0  0  0  0  0  0  0  0  0  0
   39.1500   32.4170   40.7530 C   0  0  0  0  0  0  0  0  0  0  0  0
   39.3330   33.1710   41.5370 H   0  0  0  0  0  0  0  0  0  0  0  0
   39.7930   32.7070   39.9000 H   0  0  0  0  0  0  0  0  0  0  0  0
   37.6860   32.3920   40.4040 C   0  0  0  0  0  3  0  0  0  0  0  0
   37.1830   32.1470   39.0580 C   0  0  0  0  0  2  0  0  0  0  0  0
   37.2630   33.5880   39.5270 C   0  0  0  0  0  2  0  0  0  0  0  0
  1 10  1  0  0  0  0
  1  4  1  1  0  0  0
  2  1  1  0  0  0  0
  2  5  1  0  0  0  0
  3  7  1  6  0  0  0
  3  2  1  0  0  0  0
  3  1  1  0  0  0  0
  6  2  1  0  0  0  0
  8 13  1  0  0  0  0
  8 14  1  0  0  0  0
  9 16  1  0  0  0  0
  9  8  2  0  0  0  0
 10 11  2  0  0  0  0
 10  9  1  0  0  0  0
 11 12  1  0  0  0  0
 12 15  1  0  0  0  0
 12 13  2  0  0  0  0
 16 17  1  0  0  0  0
 18 16  1  0  0  0  0
 19  3  1  0  0  0  0
 19 20  1  0  0  0  0
 21 19  1  0  0  0  0
 22 19  1  0  0  0  0
 23 24  1  0  0  0  0
 23 22  1  0  0  0  0
 24 22  1  0  0  0  0
M  END
>  <minimizedAffinity>
-4.22479916

$$$$
