
 OpenBabel03252503343D

 16 17  0  0  0  0  0  0  0  0999 V2000
   44.6500   36.0670   44.2660 C   0  0  0  0  0  0  0  0  0  0  0  0
   45.5510   35.8260   43.1970 C   0  0  0  0  0  0  0  0  0  0  0  0
   46.3890   34.7110   43.2860 C   0  0  0  0  0  0  0  0  0  0  0  0
   46.3070   33.9200   44.3710 N   0  0  0  0  0  0  0  0  0  0  0  0
   45.4430   34.1560   45.3870 C   0  0  0  0  0  0  0  0  0  0  0  0
   44.6240   35.2250   45.3260 N   0  0  0  0  0  0  0  0  0  0  0  0
   43.9670   36.9280   44.2540 H   0  0  0  0  0  0  0  0  0  0  0  0
   45.5680   36.4980   42.3550 H   0  0  0  0  0  0  0  0  0  0  0  0
   45.4920   33.4350   46.1890 H   0  0  0  0  0  0  0  0  0  0  0  0
   46.9320   33.6250   41.1120 C   0  0  0  0  0  0  0  0  0  0  0  0
   45.7120   33.2610   41.1170 O   0  0  0  0  0  0  0  0  0  0  0  0
   47.3050   34.4270   42.2460 N   0  0  0  0  0  0  0  0  0  0  0  0
   48.3000   34.7960   42.2650 H   0  0  0  0  0  0  0  0  0  0  0  0
   47.9600   33.3100   40.0880 C   0  0  0  0  0  3  0  0  0  0  0  0
   47.5620   33.1150   38.6510 C   0  0  0  0  0  2  0  0  0  0  0  0
   48.1600   34.4240   39.0330 C   0  0  0  0  0  2  0  0  0  0  0  0
  1  6  1  0  0  0  0
  2  3  1  0  0  0  0
  2  1  2  0  0  0  0
  3  4  2  0  0  0  0
  4  5  1  0  0  0  0
  5  9  1  0  0  0  0
  6  5  2  0  0  0  0
  7  1  1  0  0  0  0
  8  2  1  0  0  0  0
 10 11  2  0  0  0  0
 10 12  1  0  0  0  0
 12 13  1  0  0  0  0
 12  3  1  0  0  0  0
 14 10  1  0  0  0  0
 15 16  1  0  0  0  0
 15 14  1  0  0  0  0
 16 14  1  0  0  0  0
M  END
>  <minimizedAffinity>
-3.54981017

>  <minimizedRMSD>
0.783195615

$$$$
